Ivermectin.pdb
  RxDock  02242113023D
librxdock.so/0.1.0
 65 71  0  0  0  0  0  0  0  0999 V2000
  -44.9404    0.2775   19.6990 O   0  0  0  0  0  0
  -46.1999    0.4924   17.7240 O   0  0  0  0  0  0
  -49.4661   -0.8833   19.6380 O   0  0  0  0  0  0
  -54.1639   -0.9299   20.2071 O   0  0  0  0  0  0
  -51.6847   -3.5545   20.3195 O   0  0  0  0  0  0
  -54.9650   -1.4786   22.7070 O   0  0  0  0  0  0
  -49.0781   -2.3955   21.2640 O   0  0  0  0  0  0
  -49.2940   -2.8383   13.2966 O   0  0  0  0  0  0
  -47.8329   -3.4179   15.1386 O   0  0  0  0  0  0
  -48.3667   -5.9155   17.8769 O   0  0  0  0  0  0
  -51.0664   -5.5763   16.3248 O   0  0  0  0  0  0
  -48.5229   -6.4512   20.2334 O   0  0  0  0  0  0
  -52.1886   -7.7654   18.6516 O   0  0  0  0  0  0
  -50.3089   -9.6761   19.7522 O   0  0  0  0  0  0
  -46.2890    0.3439   19.1693 C   0  0  0  0  0  0
  -44.3916    1.5472   20.1156 C   0  0  0  0  0  0
  -45.1670    1.9814   21.3906 C   0  0  0  0  0  0
  -47.0820    1.5596   19.7167 C   0  0  0  0  0  0
  -46.9673   -0.9720   19.6299 C   0  0  0  0  0  0
  -46.6979    1.9361   21.1624 C   0  0  0  0  0  0
  -48.2973   -1.2932   18.9091 C   0  0  0  0  0  0
  -46.9476   -0.4788   16.9498 C   0  0  0  0  0  0
  -48.3666   -0.6507   17.5125 C   0  0  0  0  0  0
  -42.8660    1.4148   20.3798 C   0  0  0  0  0  0
  -52.1722   -2.2040   20.3148 C   0  0  0  0  0  0
  -51.2393   -1.2630   21.1086 C   0  0  0  0  0  0
  -53.6317   -2.1352   20.7824 C   0  0  0  0  0  0
  -44.7662    3.3675   21.9291 C   0  0  0  0  0  0
  -47.0485   -0.0255   15.4804 C   0  0  0  0  0  0
  -42.0673    1.2986   19.0580 C   0  0  0  0  0  0
  -53.8191   -2.2490   22.3136 C   0  0  0  0  0  0
  -52.3594   -1.6600   18.9225 C   0  0  0  0  0  0
  -42.5763    0.1744   21.2497 C   0  0  0  0  0  0
  -49.8167   -1.5928   20.7231 C   0  0  0  0  0  0
  -51.4928   -1.3947   22.5868 C   0  0  0  0  0  0
  -52.6096   -1.8395   23.1325 C   0  0  0  0  0  0
  -53.4630   -0.6284   18.9820 C   0  0  0  0  0  0
  -48.0627   -0.8639   14.7274 C   0  0  0  0  0  0
  -42.1373    2.5991   18.2350 C   0  0  0  0  0  0
  -51.7143   -2.1876   17.8874 C   0  0  0  0  0  0
  -49.1676   -0.5216   14.0806 C   0  0  0  0  0  0
  -50.0088   -1.5884   13.3977 C   0  0  0  0  0  0
  -52.7375   -1.9697   24.6321 C   0  0  0  0  0  0
  -51.3849   -1.8160   14.0636 C   0  0  0  0  0  0
  -51.9147   -1.6809   16.5300 C   0  0  0  0  0  0
  -49.1603   -3.5123   14.5668 C   0  0  0  0  0  0
  -48.7575   -4.9907   16.8403 C   0  0  0  0  0  0
  -49.7197   -5.6473   15.8168 C   0  0  0  0  0  0
  -49.6170   -4.9764   14.4237 C   0  0  0  0  0  0
  -51.2810   -2.2433   15.5081 C   0  0  0  0  0  0
  -47.5162   -4.4601   16.0901 C   0  0  0  0  0  0
  -49.6735    0.8933   13.8842 C   0  0  0  0  0  0
  -52.1462   -2.9082   13.2945 C   0  0  0  0  0  0
  -49.0548   -5.6901   19.1261 C   0  0  0  0  0  0
  -50.5606   -5.9764   18.9631 C   0  0  0  0  0  0
  -50.7796   -7.4881   18.7594 C   0  0  0  0  0  0
  -50.1545   -8.2610   19.9396 C   0  0  0  0  0  0
  -46.4680   -3.9370   17.0851 C   0  0  0  0  0  0
  -48.6655   -7.8749   20.0535 C   0  0  0  0  0  0
  -48.0287   -8.6091   21.2441 C   0  0  0  0  0  0
  -52.0555   -5.9729   15.3556 C   0  0  0  0  0  0
  -52.5149   -8.5034   17.4599 C   0  0  0  0  0  0
  -51.6215   -3.9189   21.2551 H   0  0  0  0  0  0
  -55.4601   -1.1224   21.9081 H   0  0  0  0  0  0
  -50.7412  -10.1065   20.5524 H   0  0  0  0  0  0
  1 16  1  0  0  0
  2 15  1  0  0  0
  2 22  1  0  0  0
  3 21  1  0  0  0
  3 34  1  0  0  0
  4 27  1  0  0  0
  4 37  1  0  0  0
  5 25  1  0  0  0
  5 63  1  0  0  0
  6 31  1  0  0  0
  6 64  1  0  0  0
  7 34  2  0  0  0
  8 42  1  0  0  0
  8 46  1  0  0  0
  9 46  1  0  0  0
  9 51  1  0  0  0
 10 47  1  0  0  0
 10 54  1  0  0  0
 11 48  1  0  0  0
 11 61  1  0  0  0
 12 54  1  0  0  0
 12 59  1  0  0  0
 13 56  1  0  0  0
 13 62  1  0  0  0
 14 57  1  0  0  0
 14 65  1  0  0  0
 15  1  1  0  0  0
 15 18  1  0  0  0
 15 19  1  0  0  0
 16 17  1  0  0  0
 16 24  1  0  0  0
 17 20  1  0  0  0
 17 28  1  0  0  0
 18 20  1  0  0  0
 19 21  1  0  0  0
 21 23  1  0  0  0
 22 23  1  0  0  0
 22 29  1  0  0  0
 24 30  1  0  0  0
 24 33  1  0  0  0
 25 26  1  0  0  0
 25 32  1  0  0  0
 26 34  1  0  0  0
 26 35  1  0  0  0
 27 25  1  0  0  0
 29 38  1  0  0  0
 30 39  1  0  0  0
 31 27  1  0  0  0
 31 36  1  0  0  0
 32 37  1  0  0  0
 32 40  2  0  0  0
 35 36  2  0  0  0
 36 43  1  0  0  0
 38 41  2  0  0  0
 40 45  1  0  0  0
 41 42  1  0  0  0
 41 52  1  0  0  0
 42 44  1  0  0  0
 44 50  1  0  0  0
 44 53  1  0  0  0
 45 50  2  0  0  0
 46 49  1  0  0  0
 47 48  1  0  0  0
 48 49  1  0  0  0
 51 47  1  0  0  0
 51 58  1  0  0  0
 54 55  1  0  0  0
 55 56  1  0  0  0
 56 57  1  0  0  0
 57 59  1  0  0  0
 59 60  1  0  0  0
M  END
>  <CHROM.0>
-55.62059798,41.14005160,98.80057277

>  <CHROM.1>
60.32310369,6.64660918,72.32213837,-104.67547916,-103.26146925,-170.19001600
170.94428590,126.35253869,-126.66958134,73.76685675,66.61624063,-49.21827004
-2.52363013,18.50293269,0.42181352,0.73468240,1.11851261

>  <HEADER>
                                                                          

>  <MASTER>
        0    0    0    0    0    0    0    0  136    0  136    0          

>  <Name>
Ivermectin.pdb

>  <RI>
-1.036e+09

>  <Rbt.Current_Directory>
/root/miniconda3/envs/rdock/share/rxdock-2013.1.1_148c5bd1-0/data/ligands/prepped_ligands/Ivermectin

>  <Rbt.Executable>
rbdock/0.1.0

>  <Rbt.Library>
librxdock.so/0.1.0

>  <Rbt.Parameter_File>
/root/miniconda3/envs/rdock/share/rxdock-2013.1.1_148c5bd1-0/data/scripts/dock.prm

>  <Rbt.Receptor>
def.prm

>  <SCORE>
60.4655

>  <SCORE.INTER>
38.7113

>  <SCORE.INTER.CONST>
1

>  <SCORE.INTER.POLAR>
-0.568724

>  <SCORE.INTER.REPUL>
0.306756

>  <SCORE.INTER.ROT>
8

>  <SCORE.INTER.VDW>
25.7112

>  <SCORE.INTER.norm>
0.624376

>  <SCORE.INTRA>
4.19693

>  <SCORE.INTRA.DIHEDRAL>
5.6917

>  <SCORE.INTRA.DIHEDRAL.0>
29.9071

>  <SCORE.INTRA.POLAR>
-0.226974

>  <SCORE.INTRA.POLAR.0>
0

>  <SCORE.INTRA.REPUL>
0.00449898

>  <SCORE.INTRA.REPUL.0>
0

>  <SCORE.INTRA.VDW>
2.10029

>  <SCORE.INTRA.VDW.0>
1.27762

>  <SCORE.INTRA.norm>
0.0676923

>  <SCORE.RESTR>
15.1313

>  <SCORE.RESTR.CAVITY>
15.1313

>  <SCORE.RESTR.norm>
0.244053

>  <SCORE.SYSTEM>
2.42604

>  <SCORE.SYSTEM.CONST>
0

>  <SCORE.SYSTEM.DIHEDRAL>
4.2476

>  <SCORE.SYSTEM.POLAR>
-0.00376201

>  <SCORE.SYSTEM.VDW>
0.315031

>  <SCORE.SYSTEM.norm>
0.0391297

>  <SCORE.heavy>
62

>  <SCORE.norm>
0.975251

>  <TITLE>
    6321424_D                                                             

$$$$
Ivermectin.pdb
  RxDock  02242113023D
librxdock.so/0.1.0
 65 71  0  0  0  0  0  0  0  0999 V2000
  -49.3312   -6.9402   19.0421 O   0  0  0  0  0  0
  -49.3192   -6.0745   16.8549 O   0  0  0  0  0  0
  -47.3817   -2.7888   18.1489 O   0  0  0  0  0  0
  -44.3129    0.7288   17.3712 O   0  0  0  0  0  0
  -47.4840    0.6188   19.0975 O   0  0  0  0  0  0
  -43.0601    1.6046   19.5749 O   0  0  0  0  0  0
  -47.8748   -2.1297   20.2474 O   0  0  0  0  0  0
  -51.6294   -1.3978   13.2410 O   0  0  0  0  0  0
  -52.8161   -3.1291   14.4487 O   0  0  0  0  0  0
  -53.1648   -3.6103   18.1457 O   0  0  0  0  0  0
  -51.0144   -1.3873   17.6489 O   0  0  0  0  0  0
  -51.8730   -4.4379   20.0194 O   0  0  0  0  0  0
  -55.1596   -2.5334   21.8186 O   0  0  0  0  0  0
  -54.8102   -5.3972   22.0866 O   0  0  0  0  0  0
  -48.7106   -5.9594   18.1722 C   0  0  0  0  0  0
  -48.6424   -8.2082   19.1115 C   0  0  0  0  0  0
  -47.3131   -7.9623   19.8782 C   0  0  0  0  0  0
  -47.1863   -6.1945   18.0057 C   0  0  0  0  0  0
  -48.9555   -4.5946   18.8658 C   0  0  0  0  0  0
  -46.5194   -6.7816   19.2667 C   0  0  0  0  0  0
  -48.6867   -3.3634   17.9695 C   0  0  0  0  0  0
  -49.8531   -4.8440   16.3048 C   0  0  0  0  0  0
  -48.8534   -3.6902   16.4750 C   0  0  0  0  0  0
  -49.5331   -9.2680   19.8171 C   0  0  0  0  0  0
  -46.3052    0.0853   18.4750 C   0  0  0  0  0  0
  -45.8943   -1.2640   19.1048 C   0  0  0  0  0  0
  -45.1660    1.1126   18.4630 C   0  0  0  0  0  0
  -46.4034   -9.2013   19.9736 C   0  0  0  0  0  0
  -50.1578   -5.0190   14.8044 C   0  0  0  0  0  0
  -51.0379   -9.0150   19.5517 C   0  0  0  0  0  0
  -44.4363    1.2750   19.8172 C   0  0  0  0  0  0
  -46.4634   -0.0882   16.9870 C   0  0  0  0  0  0
  -49.2845   -9.2523   21.3393 C   0  0  0  0  0  0
  -47.1453   -2.0932   19.2732 C   0  0  0  0  0  0
  -45.1603   -1.0386   20.3999 C   0  0  0  0  0  0
  -44.5301    0.0716   20.7361 C   0  0  0  0  0  0
  -45.0920    0.0478   16.3652 C   0  0  0  0  0  0
  -50.4338   -3.6787   14.1518 C   0  0  0  0  0  0
  -51.2949   -8.5942   18.0921 C   0  0  0  0  0  0
  -47.6668   -0.1831   16.4314 C   0  0  0  0  0  0
  -49.8325   -3.0591   13.1464 C   0  0  0  0  0  0
  -50.3314   -1.6985   12.6860 C   0  0  0  0  0  0
  -43.8616    0.2016   22.0846 C   0  0  0  0  0  0
  -49.3476   -0.5432   12.9799 C   0  0  0  0  0  0
  -47.8256   -0.3232   14.9842 C   0  0  0  0  0  0
  -51.8591   -2.0436   14.5121 C   0  0  0  0  0  0
  -52.5478   -3.1395   16.9290 C   0  0  0  0  0  0
  -52.2695   -1.6149   16.9782 C   0  0  0  0  0  0
  -52.2614   -0.9892   15.5605 C   0  0  0  0  0  0
  -49.0390   -0.3870   14.4497 C   0  0  0  0  0  0
  -53.4473   -3.4444   15.7112 C   0  0  0  0  0  0
  -48.6869   -3.6150   12.3249 C   0  0  0  0  0  0
  -49.9504    0.7775   12.4739 C   0  0  0  0  0  0
  -52.4044   -3.2849   19.3292 C   0  0  0  0  0  0
  -53.2583   -2.4388   20.2940 C   0  0  0  0  0  0
  -54.3867   -3.3080   20.8824 C   0  0  0  0  0  0
  -53.7754   -4.5489   21.5660 C   0  0  0  0  0  0
  -53.8719   -4.9216   15.7111 C   0  0  0  0  0  0
  -52.9031   -5.3019   20.5407 C   0  0  0  0  0  0
  -52.2570   -6.5259   21.2088 C   0  0  0  0  0  0
  -51.1195   -0.4496   18.7373 C   0  0  0  0  0  0
  -56.4137   -3.1583   22.1472 C   0  0  0  0  0  0
  -47.7918    1.4605   18.6404 H   0  0  0  0  0  0
  -42.5628    0.8307   19.1700 H   0  0  0  0  0  0
  -54.4246   -6.1898   22.5718 H   0  0  0  0  0  0
  1 16  1  0  0  0
  2 15  1  0  0  0
  2 22  1  0  0  0
  3 21  1  0  0  0
  3 34  1  0  0  0
  4 27  1  0  0  0
  4 37  1  0  0  0
  5 25  1  0  0  0
  5 63  1  0  0  0
  6 31  1  0  0  0
  6 64  1  0  0  0
  7 34  2  0  0  0
  8 42  1  0  0  0
  8 46  1  0  0  0
  9 46  1  0  0  0
  9 51  1  0  0  0
 10 47  1  0  0  0
 10 54  1  0  0  0
 11 48  1  0  0  0
 11 61  1  0  0  0
 12 54  1  0  0  0
 12 59  1  0  0  0
 13 56  1  0  0  0
 13 62  1  0  0  0
 14 57  1  0  0  0
 14 65  1  0  0  0
 15  1  1  0  0  0
 15 18  1  0  0  0
 15 19  1  0  0  0
 16 17  1  0  0  0
 16 24  1  0  0  0
 17 20  1  0  0  0
 17 28  1  0  0  0
 18 20  1  0  0  0
 19 21  1  0  0  0
 21 23  1  0  0  0
 22 23  1  0  0  0
 22 29  1  0  0  0
 24 30  1  0  0  0
 24 33  1  0  0  0
 25 26  1  0  0  0
 25 32  1  0  0  0
 26 34  1  0  0  0
 26 35  1  0  0  0
 27 25  1  0  0  0
 29 38  1  0  0  0
 30 39  1  0  0  0
 31 27  1  0  0  0
 31 36  1  0  0  0
 32 37  1  0  0  0
 32 40  2  0  0  0
 35 36  2  0  0  0
 36 43  1  0  0  0
 38 41  2  0  0  0
 40 45  1  0  0  0
 41 42  1  0  0  0
 41 52  1  0  0  0
 42 44  1  0  0  0
 44 50  1  0  0  0
 44 53  1  0  0  0
 45 50  2  0  0  0
 46 49  1  0  0  0
 47 48  1  0  0  0
 48 49  1  0  0  0
 51 47  1  0  0  0
 51 58  1  0  0  0
 54 55  1  0  0  0
 55 56  1  0  0  0
 56 57  1  0  0  0
 57 59  1  0  0  0
 59 60  1  0  0  0
M  END
>  <CHROM.0>
-165.35824661,32.46291017,-58.50340735

>  <CHROM.1>
-175.58951207,-68.63923898,28.18172451,-108.31465704,-55.18996387,-114.35096054
-126.98522127,165.23157152,-177.43029639,31.63856966,40.56584271,-49.58811525
-3.21643031,17.95737493,-2.46020388,-0.41469564,-0.80598404

>  <HEADER>
                                                                          

>  <MASTER>
        0    0    0    0    0    0    0    0  136    0  136    0          

>  <Name>
Ivermectin.pdb

>  <RI>
-1.036e+09

>  <Rbt.Current_Directory>
/root/miniconda3/envs/rdock/share/rxdock-2013.1.1_148c5bd1-0/data/ligands/prepped_ligands/Ivermectin

>  <Rbt.Executable>
rbdock/0.1.0

>  <Rbt.Library>
librxdock.so/0.1.0

>  <Rbt.Parameter_File>
/root/miniconda3/envs/rdock/share/rxdock-2013.1.1_148c5bd1-0/data/scripts/dock.prm

>  <Rbt.Receptor>
def.prm

>  <SCORE>
111.2

>  <SCORE.INTER>
80.1216

>  <SCORE.INTER.CONST>
1

>  <SCORE.INTER.POLAR>
-0.0499332

>  <SCORE.INTER.REPUL>
0.0406965

>  <SCORE.INTER.ROT>
8

>  <SCORE.INTER.VDW>
66.6879

>  <SCORE.INTER.norm>
1.29228

>  <SCORE.INTRA>
19.7217

>  <SCORE.INTRA.DIHEDRAL>
0.501463

>  <SCORE.INTRA.DIHEDRAL.0>
29.9071

>  <SCORE.INTRA.POLAR>
0

>  <SCORE.INTRA.POLAR.0>
0

>  <SCORE.INTRA.REPUL>
0.49175

>  <SCORE.INTRA.REPUL.0>
0

>  <SCORE.INTRA.VDW>
17.0122

>  <SCORE.INTRA.VDW.0>
1.27762

>  <SCORE.INTRA.norm>
0.318091

>  <SCORE.RESTR>
9.34905

>  <SCORE.RESTR.CAVITY>
9.34905

>  <SCORE.RESTR.norm>
0.150791

>  <SCORE.SYSTEM>
2.00733

>  <SCORE.SYSTEM.CONST>
0

>  <SCORE.SYSTEM.DIHEDRAL>
3.63528

>  <SCORE.SYSTEM.POLAR>
-0.00445861

>  <SCORE.SYSTEM.VDW>
0.204844

>  <SCORE.SYSTEM.norm>
0.0323762

>  <SCORE.heavy>
62

>  <SCORE.norm>
1.79354

>  <TITLE>
    6321424_D                                                             

$$$$
Ivermectin.pdb
  RxDock  02242113033D
librxdock.so/0.1.0
 65 71  0  0  0  0  0  0  0  0999 V2000
  -48.9671   -7.1979   19.2413 O   0  0  0  0  0  0
  -49.1901   -6.3915   17.0429 O   0  0  0  0  0  0
  -46.9528   -3.1754   17.9784 O   0  0  0  0  0  0
  -43.8445    0.1605   16.7112 O   0  0  0  0  0  0
  -46.7744    0.2567   18.8217 O   0  0  0  0  0  0
  -42.2843    1.0292   18.7121 O   0  0  0  0  0  0
  -47.1459   -2.4374   20.0996 O   0  0  0  0  0  0
  -51.7149   -1.7000   13.5955 O   0  0  0  0  0  0
  -52.7437   -2.9752   15.3785 O   0  0  0  0  0  0
  -52.1985   -2.7259   19.0748 O   0  0  0  0  0  0
  -50.0089   -1.0004   17.6462 O   0  0  0  0  0  0
  -51.0713   -4.8487   19.3704 O   0  0  0  0  0  0
  -53.1422   -4.2906   22.9850 O   0  0  0  0  0  0
  -53.8520   -6.4784   21.2230 O   0  0  0  0  0  0
  -48.4156   -6.2729   18.2697 C   0  0  0  0  0  0
  -48.3354   -8.4969   19.2654 C   0  0  0  0  0  0
  -46.9100   -8.2987   19.8522 C   0  0  0  0  0  0
  -46.9371   -6.5893   17.9223 C   0  0  0  0  0  0
  -48.5067   -4.8798   18.9438 C   0  0  0  0  0  0
  -46.1451   -7.1761   19.1087 C   0  0  0  0  0  0
  -48.2955   -3.6877   17.9816 C   0  0  0  0  0  0
  -49.7307   -5.1504   16.5240 C   0  0  0  0  0  0
  -48.6644   -4.0446   16.5309 C   0  0  0  0  0  0
  -49.1789   -9.4913   20.1104 C   0  0  0  0  0  0
  -45.7098   -0.3520   18.0747 C   0  0  0  0  0  0
  -45.2867   -1.7034   18.6917 C   0  0  0  0  0  0
  -44.5342    0.6156   17.8877 C   0  0  0  0  0  0
  -46.0548   -9.5793   19.8735 C   0  0  0  0  0  0
  -50.2298   -5.3490   15.0797 C   0  0  0  0  0  0
  -49.5331  -10.7656   19.3043 C   0  0  0  0  0  0
  -43.6329    0.7762   19.1345 C   0  0  0  0  0  0
  -46.0622   -0.5562   16.6244 C   0  0  0  0  0  0
  -50.4845   -8.8211   20.5851 C   0  0  0  0  0  0
  -46.5442   -2.4634   19.0414 C   0  0  0  0  0  0
  -44.3856   -1.4816   19.8773 C   0  0  0  0  0  0
  -43.6667   -0.3964   20.0964 C   0  0  0  0  0  0
  -44.7753   -0.5062   15.8325 C   0  0  0  0  0  0
  -50.5226   -4.0139   14.4236 C   0  0  0  0  0  0
  -48.2836  -11.6171   19.0088 C   0  0  0  0  0  0
  -47.3292   -0.6046   16.2265 C   0  0  0  0  0  0
  -50.0244   -3.4522   13.3315 C   0  0  0  0  0  0
  -50.5127   -2.0805   12.8931 C   0  0  0  0  0  0
  -42.8281   -0.2651   21.3461 C   0  0  0  0  0  0
  -49.4465   -0.9693   13.0247 C   0  0  0  0  0  0
  -47.6755   -0.7742   14.8156 C   0  0  0  0  0  0
  -51.6867   -2.0631   14.9929 C   0  0  0  0  0  0
  -51.8604   -2.5849   17.6789 C   0  0  0  0  0  0
  -51.4100   -1.1405   17.3395 C   0  0  0  0  0  0
  -51.6905   -0.7877   15.8568 C   0  0  0  0  0  0
  -48.9483   -0.7905   14.4387 C   0  0  0  0  0  0
  -53.0667   -2.9547   16.7883 C   0  0  0  0  0  0
  -49.0188   -4.0868   12.3921 C   0  0  0  0  0  0
  -50.0455    0.3666   12.5552 C   0  0  0  0  0  0
  -51.2218   -3.4838   19.8206 C   0  0  0  0  0  0
  -51.5630   -3.4578   21.3235 C   0  0  0  0  0  0
  -52.8450   -4.2749   21.5760 C   0  0  0  0  0  0
  -52.6548   -5.7081   21.0369 C   0  0  0  0  0  0
  -53.6398   -4.3210   17.1972 C   0  0  0  0  0  0
  -52.2701   -5.6310   19.5453 C   0  0  0  0  0  0
  -52.0436   -7.0476   18.9939 C   0  0  0  0  0  0
  -49.7536   -0.8469   19.0555 C   0  0  0  0  0  0
  -53.7877   -3.0818   23.4250 C   0  0  0  0  0  0
  -47.5490    0.4982   18.2268 H   0  0  0  0  0  0
  -41.7482    0.1802   18.6665 H   0  0  0  0  0  0
  -53.6734   -7.4634   21.1214 H   0  0  0  0  0  0
  1 16  1  0  0  0
  2 15  1  0  0  0
  2 22  1  0  0  0
  3 21  1  0  0  0
  3 34  1  0  0  0
  4 27  1  0  0  0
  4 37  1  0  0  0
  5 25  1  0  0  0
  5 63  1  0  0  0
  6 31  1  0  0  0
  6 64  1  0  0  0
  7 34  2  0  0  0
  8 42  1  0  0  0
  8 46  1  0  0  0
  9 46  1  0  0  0
  9 51  1  0  0  0
 10 47  1  0  0  0
 10 54  1  0  0  0
 11 48  1  0  0  0
 11 61  1  0  0  0
 12 54  1  0  0  0
 12 59  1  0  0  0
 13 56  1  0  0  0
 13 62  1  0  0  0
 14 57  1  0  0  0
 14 65  1  0  0  0
 15  1  1  0  0  0
 15 18  1  0  0  0
 15 19  1  0  0  0
 16 17  1  0  0  0
 16 24  1  0  0  0
 17 20  1  0  0  0
 17 28  1  0  0  0
 18 20  1  0  0  0
 19 21  1  0  0  0
 21 23  1  0  0  0
 22 23  1  0  0  0
 22 29  1  0  0  0
 24 30  1  0  0  0
 24 33  1  0  0  0
 25 26  1  0  0  0
 25 32  1  0  0  0
 26 34  1  0  0  0
 26 35  1  0  0  0
 27 25  1  0  0  0
 29 38  1  0  0  0
 30 39  1  0  0  0
 31 27  1  0  0  0
 31 36  1  0  0  0
 32 37  1  0  0  0
 32 40  2  0  0  0
 35 36  2  0  0  0
 36 43  1  0  0  0
 38 41  2  0  0  0
 40 45  1  0  0  0
 41 42  1  0  0  0
 41 52  1  0  0  0
 42 44  1  0  0  0
 44 50  1  0  0  0
 44 53  1  0  0  0
 45 50  2  0  0  0
 46 49  1  0  0  0
 47 48  1  0  0  0
 48 49  1  0  0  0
 51 47  1  0  0  0
 51 58  1  0  0  0
 54 55  1  0  0  0
 55 56  1  0  0  0
 56 57  1  0  0  0
 57 59  1  0  0  0
 59 60  1  0  0  0
M  END
>  <CHROM.0>
-50.02887264,-63.99981107,-58.87922758

>  <CHROM.1>
-127.17320239,-94.33170143,40.35016835,-119.48471056,-107.72491347,-62.17229013
-77.31953204,79.97719923,-164.07680157,125.26129597,67.80357430,-49.00535187
-3.60270294,17.96963034,-2.23115603,-0.35767083,-0.65178079

>  <HEADER>
                                                                          

>  <MASTER>
        0    0    0    0    0    0    0    0  136    0  136    0          

>  <Name>
Ivermectin.pdb

>  <RI>
-1.036e+09

>  <Rbt.Current_Directory>
/root/miniconda3/envs/rdock/share/rxdock-2013.1.1_148c5bd1-0/data/ligands/prepped_ligands/Ivermectin

>  <Rbt.Executable>
rbdock/0.1.0

>  <Rbt.Library>
librxdock.so/0.1.0

>  <Rbt.Parameter_File>
/root/miniconda3/envs/rdock/share/rxdock-2013.1.1_148c5bd1-0/data/scripts/dock.prm

>  <Rbt.Receptor>
def.prm

>  <SCORE>
164.071

>  <SCORE.INTER>
134.173

>  <SCORE.INTER.CONST>
1

>  <SCORE.INTER.POLAR>
-0.441275

>  <SCORE.INTER.REPUL>
0.319028

>  <SCORE.INTER.ROT>
8

>  <SCORE.INTER.VDW>
120.678

>  <SCORE.INTER.norm>
2.16409

>  <SCORE.INTRA>
21.234

>  <SCORE.INTRA.DIHEDRAL>
7.26815

>  <SCORE.INTRA.DIHEDRAL.0>
29.9071

>  <SCORE.INTRA.POLAR>
0

>  <SCORE.INTRA.POLAR.0>
0

>  <SCORE.INTRA.REPUL>
0.474492

>  <SCORE.INTRA.REPUL.0>
0

>  <SCORE.INTRA.VDW>
15.2275

>  <SCORE.INTRA.VDW.0>
1.27762

>  <SCORE.INTRA.norm>
0.342484

>  <SCORE.RESTR>
9.57917

>  <SCORE.RESTR.CAVITY>
9.57917

>  <SCORE.RESTR.norm>
0.154503

>  <SCORE.SYSTEM>
-0.915587

>  <SCORE.SYSTEM.CONST>
0

>  <SCORE.SYSTEM.DIHEDRAL>
0.313791

>  <SCORE.SYSTEM.POLAR>
-0.0035759

>  <SCORE.SYSTEM.VDW>
-1.06032

>  <SCORE.SYSTEM.norm>
-0.0147675

>  <SCORE.heavy>
62

>  <SCORE.norm>
2.6463

>  <TITLE>
    6321424_D                                                             

$$$$
Ivermectin.pdb
  RxDock  02242113033D
librxdock.so/0.1.0
 65 71  0  0  0  0  0  0  0  0999 V2000
  -44.6915   -0.2540   19.6135 O   0  0  0  0  0  0
  -45.8254   -0.0843   17.5596 O   0  0  0  0  0  0
  -49.3358   -0.7311   19.4257 O   0  0  0  0  0  0
  -54.0037   -0.0157   19.7331 O   0  0  0  0  0  0
  -51.9627   -2.9477   20.2673 O   0  0  0  0  0  0
  -54.9761   -0.1474   22.2291 O   0  0  0  0  0  0
  -49.2480   -2.0863   21.2250 O   0  0  0  0  0  0
  -49.2195   -3.4086   13.3527 O   0  0  0  0  0  0
  -48.2280   -4.2215   15.4069 O   0  0  0  0  0  0
  -49.7509   -6.3621   18.0753 O   0  0  0  0  0  0
  -52.0304   -5.4674   16.1219 O   0  0  0  0  0  0
  -51.0635   -8.3252   18.6119 O   0  0  0  0  0  0
  -47.0971   -9.7148   18.6635 O   0  0  0  0  0  0
  -48.6644   -9.6937   21.1003 O   0  0  0  0  0  0
  -45.9924   -0.0502   19.0053 C   0  0  0  0  0  0
  -43.9710    0.9599   19.9204 C   0  0  0  0  0  0
  -44.7196    1.6484   21.0956 C   0  0  0  0  0  0
  -46.6102    1.3245   19.3728 C   0  0  0  0  0  0
  -46.8818   -1.1891   19.5669 C   0  0  0  0  0  0
  -46.2293    1.8042   20.7885 C   0  0  0  0  0  0
  -48.2163   -1.3909   18.8120 C   0  0  0  0  0  0
  -46.6826   -1.0169   16.8545 C   0  0  0  0  0  0
  -48.1320   -0.9108   17.3524 C   0  0  0  0  0  0
  -42.4953    0.6345   20.2822 C   0  0  0  0  0  0
  -52.2368   -1.5495   20.0892 C   0  0  0  0  0  0
  -51.2021   -0.6718   20.8274 C   0  0  0  0  0  0
  -53.6855   -1.2119   20.4644 C   0  0  0  0  0  0
  -44.1321    3.0127   21.5025 C   0  0  0  0  0  0
  -46.6556   -0.7264   15.3414 C   0  0  0  0  0  0
  -41.7772   -0.1096   19.1292 C   0  0  0  0  0  0
  -53.9475   -1.1192   21.9860 C   0  0  0  0  0  0
  -52.2840   -1.1482   18.6379 C   0  0  0  0  0  0
  -42.4325   -0.2354   21.5543 C   0  0  0  0  0  0
  -49.8331   -1.2509   20.5600 C   0  0  0  0  0  0
  -51.5301   -0.5930   22.2947 C   0  0  0  0  0  0
  -52.7222   -0.8016   22.8221 C   0  0  0  0  0  0
  -53.2178    0.0353   18.5238 C   0  0  0  0  0  0
  -47.7564   -1.4866   14.6280 C   0  0  0  0  0  0
  -42.4314   -1.4738   18.8384 C   0  0  0  0  0  0
  -51.6878   -1.8814   17.7037 C   0  0  0  0  0  0
  -48.7696   -1.0614   13.8872 C   0  0  0  0  0  0
  -49.7374   -2.0635   13.2779 C   0  0  0  0  0  0
  -52.9268   -0.7375   24.3175 C   0  0  0  0  0  0
  -51.1570   -2.0065   13.8866 C   0  0  0  0  0  0
  -51.7552   -1.5107   16.2904 C   0  0  0  0  0  0
  -49.4408   -4.0241   14.6402 C   0  0  0  0  0  0
  -49.7476   -5.4287   16.9746 C   0  0  0  0  0  0
  -50.6841   -5.8891   15.8277 C   0  0  0  0  0  0
  -50.2192   -5.3404   14.4550 C   0  0  0  0  0  0
  -51.1760   -2.2748   15.3723 C   0  0  0  0  0  0
  -48.3189   -5.2554   16.4143 C   0  0  0  0  0  0
  -49.0445    0.3805   13.5110 C   0  0  0  0  0  0
  -52.0463   -3.0552   13.1988 C   0  0  0  0  0  0
  -50.1495   -7.6944   17.6871 C   0  0  0  0  0  0
  -48.9068   -8.5833   17.4834 C   0  0  0  0  0  0
  -48.2327   -8.8477   18.8437 C   0  0  0  0  0  0
  -49.2576   -9.4759   19.8111 C   0  0  0  0  0  0
  -47.3288   -4.9467   17.5487 C   0  0  0  0  0  0
  -50.4814   -8.5426   19.9132 C   0  0  0  0  0  0
  -51.5313   -9.1640   20.8479 C   0  0  0  0  0  0
  -52.6591   -6.2636   17.1444 C   0  0  0  0  0  0
  -45.8909   -8.9878   18.3672 C   0  0  0  0  0  0
  -51.0333   -3.1816   19.9614 H   0  0  0  0  0  0
  -55.2443   -0.1308   23.1976 H   0  0  0  0  0  0
  -47.8161  -10.2298   21.0273 H   0  0  0  0  0  0
  1 16  1  0  0  0
  2 15  1  0  0  0
  2 22  1  0  0  0
  3 21  1  0  0  0
  3 34  1  0  0  0
  4 27  1  0  0  0
  4 37  1  0  0  0
  5 25  1  0  0  0
  5 63  1  0  0  0
  6 31  1  0  0  0
  6 64  1  0  0  0
  7 34  2  0  0  0
  8 42  1  0  0  0
  8 46  1  0  0  0
  9 46  1  0  0  0
  9 51  1  0  0  0
 10 47  1  0  0  0
 10 54  1  0  0  0
 11 48  1  0  0  0
 11 61  1  0  0  0
 12 54  1  0  0  0
 12 59  1  0  0  0
 13 56  1  0  0  0
 13 62  1  0  0  0
 14 57  1  0  0  0
 14 65  1  0  0  0
 15  1  1  0  0  0
 15 18  1  0  0  0
 15 19  1  0  0  0
 16 17  1  0  0  0
 16 24  1  0  0  0
 17 20  1  0  0  0
 17 28  1  0  0  0
 18 20  1  0  0  0
 19 21  1  0  0  0
 21 23  1  0  0  0
 22 23  1  0  0  0
 22 29  1  0  0  0
 24 30  1  0  0  0
 24 33  1  0  0  0
 25 26  1  0  0  0
 25 32  1  0  0  0
 26 34  1  0  0  0
 26 35  1  0  0  0
 27 25  1  0  0  0
 29 38  1  0  0  0
 30 39  1  0  0  0
 31 27  1  0  0  0
 31 36  1  0  0  0
 32 37  1  0  0  0
 32 40  2  0  0  0
 35 36  2  0  0  0
 36 43  1  0  0  0
 38 41  2  0  0  0
 40 45  1  0  0  0
 41 42  1  0  0  0
 41 52  1  0  0  0
 42 44  1  0  0  0
 44 50  1  0  0  0
 44 53  1  0  0  0
 45 50  2  0  0  0
 46 49  1  0  0  0
 47 48  1  0  0  0
 48 49  1  0  0  0
 51 47  1  0  0  0
 51 58  1  0  0  0
 54 55  1  0  0  0
 55 56  1  0  0  0
 56 57  1  0  0  0
 57 59  1  0  0  0
 59 60  1  0  0  0
M  END
>  <CHROM.0>
-44.64713177,-179.07916740,-177.62598105

>  <CHROM.1>
-56.74438460,173.82116503,81.91980136,-110.74813196,23.22240244,-136.77989834
-75.01444654,87.96082788,-53.72636164,58.30002556,-62.61646242,-49.07192658
-2.86230042,18.39414530,-0.99586594,-0.20278811,-2.77013507

>  <HEADER>
                                                                          

>  <MASTER>
        0    0    0    0    0    0    0    0  136    0  136    0          

>  <Name>
Ivermectin.pdb

>  <RI>
-1.036e+09

>  <Rbt.Current_Directory>
/root/miniconda3/envs/rdock/share/rxdock-2013.1.1_148c5bd1-0/data/ligands/prepped_ligands/Ivermectin

>  <Rbt.Executable>
rbdock/0.1.0

>  <Rbt.Library>
librxdock.so/0.1.0

>  <Rbt.Parameter_File>
/root/miniconda3/envs/rdock/share/rxdock-2013.1.1_148c5bd1-0/data/scripts/dock.prm

>  <Rbt.Receptor>
def.prm

>  <SCORE>
48.9024

>  <SCORE.INTER>
23.6771

>  <SCORE.INTER.CONST>
1

>  <SCORE.INTER.POLAR>
0

>  <SCORE.INTER.REPUL>
0.0322641

>  <SCORE.INTER.ROT>
8

>  <SCORE.INTER.VDW>
10.1158

>  <SCORE.INTER.norm>
0.381889

>  <SCORE.INTRA>
6.95282

>  <SCORE.INTRA.DIHEDRAL>
-5.32362

>  <SCORE.INTRA.DIHEDRAL.0>
29.9071

>  <SCORE.INTRA.POLAR>
0

>  <SCORE.INTRA.POLAR.0>
0

>  <SCORE.INTRA.REPUL>
0

>  <SCORE.INTRA.REPUL.0>
0

>  <SCORE.INTRA.VDW>
9.61463

>  <SCORE.INTRA.VDW.0>
1.27762

>  <SCORE.INTRA.norm>
0.112142

>  <SCORE.RESTR>
18.9989

>  <SCORE.RESTR.CAVITY>
18.9989

>  <SCORE.RESTR.norm>
0.306434

>  <SCORE.SYSTEM>
-0.726486

>  <SCORE.SYSTEM.CONST>
0

>  <SCORE.SYSTEM.DIHEDRAL>
0.557089

>  <SCORE.SYSTEM.POLAR>
-0.00741659

>  <SCORE.SYSTEM.VDW>
-0.979814

>  <SCORE.SYSTEM.norm>
-0.0117175

>  <SCORE.heavy>
62

>  <SCORE.norm>
0.788748

>  <TITLE>
    6321424_D                                                             

$$$$
Ivermectin.pdb
  RxDock  02242113033D
librxdock.so/0.1.0
 65 71  0  0  0  0  0  0  0  0999 V2000
  -45.8993    1.1437   22.0359 O   0  0  0  0  0  0
  -46.3284   -1.1186   22.5166 O   0  0  0  0  0  0
  -47.6774   -1.6770   18.7626 O   0  0  0  0  0  0
  -48.2623   -4.4806   14.9952 O   0  0  0  0  0  0
  -50.4080   -2.0180   16.5378 O   0  0  0  0  0  0
  -48.3276   -3.1774   12.6521 O   0  0  0  0  0  0
  -48.7019    0.0966   17.8212 O   0  0  0  0  0  0
  -50.9984   -5.3650   23.1710 O   0  0  0  0  0  0
  -51.1790   -2.9510   23.2356 O   0  0  0  0  0  0
  -52.5617   -0.6192   20.6526 O   0  0  0  0  0  0
  -52.3234   -3.4670   19.3697 O   0  0  0  0  0  0
  -52.2356    1.7805   20.6511 O   0  0  0  0  0  0
  -50.9304    0.5793   16.8406 O   0  0  0  0  0  0
  -53.2596    2.2811   17.1125 O   0  0  0  0  0  0
  -46.1504   -0.1547   21.4404 C   0  0  0  0  0  0
  -44.5027    1.4659   22.2165 C   0  0  0  0  0  0
  -43.9012    1.6912   20.8013 C   0  0  0  0  0  0
  -44.9673   -0.6443   20.5645 C   0  0  0  0  0  0
  -47.4074    0.0452   20.5551 C   0  0  0  0  0  0
  -44.2163    0.5035   19.8589 C   0  0  0  0  0  0
  -48.0731   -1.2681   20.0823 C   0  0  0  0  0  0
  -47.5488   -1.8991   22.4594 C   0  0  0  0  0  0
  -47.7872   -2.4377   21.0407 C   0  0  0  0  0  0
  -44.3510    2.7214   23.1194 C   0  0  0  0  0  0
  -49.1789   -2.7115   16.2725 C   0  0  0  0  0  0
  -47.9567   -1.7832   16.4470 C   0  0  0  0  0  0
  -49.2134   -3.4062   14.9052 C   0  0  0  0  0  0
  -42.3856    1.9646   20.7981 C   0  0  0  0  0  0
  -47.4662   -3.0896   23.4344 C   0  0  0  0  0  0
  -45.0413    2.5228   24.4916 C   0  0  0  0  0  0
  -48.9961   -2.4601   13.7009 C   0  0  0  0  0  0
  -49.0037   -3.9323   17.1375 C   0  0  0  0  0  0
  -44.9603    3.9582   22.4277 C   0  0  0  0  0  0
  -48.1598   -0.9885   17.7151 C   0  0  0  0  0  0
  -47.7784   -0.9135   15.2310 C   0  0  0  0  0  0
  -48.2401   -1.1853   14.0245 C   0  0  0  0  0  0
  -48.1548   -4.9176   16.3665 C   0  0  0  0  0  0
  -48.5919   -4.0726   23.1794 C   0  0  0  0  0  0
  -44.5939    1.2133   25.1688 C   0  0  0  0  0  0
  -49.6582   -4.0583   18.2871 C   0  0  0  0  0  0
  -48.5697   -5.3577   22.8565 C   0  0  0  0  0  0
  -49.8743   -6.1145   22.6631 C   0  0  0  0  0  0
  -48.0375   -0.2158   12.8839 C   0  0  0  0  0  0
  -50.1363   -6.5388   21.2002 C   0  0  0  0  0  0
  -49.5126   -5.2545   19.1160 C   0  0  0  0  0  0
  -51.2452   -4.1515   22.4279 C   0  0  0  0  0  0
  -51.9664   -1.8375   21.1466 C   0  0  0  0  0  0
  -52.7585   -3.0903   20.6908 C   0  0  0  0  0  0
  -52.5902   -4.2663   21.6859 C   0  0  0  0  0  0
  -50.1992   -5.3700   20.2463 C   0  0  0  0  0  0
  -51.8997   -1.8222   22.6894 C   0  0  0  0  0  0
  -47.3257   -6.2114   22.7149 C   0  0  0  0  0  0
  -51.4738   -7.2930   21.1225 C   0  0  0  0  0  0
  -51.6232    0.4744   20.5638 C   0  0  0  0  0  0
  -50.7984    0.3634   19.2663 C   0  0  0  0  0  0
  -51.7068    0.6378   18.0521 C   0  0  0  0  0  0
  -52.3747    2.0195   18.2125 C   0  0  0  0  0  0
  -51.2548   -0.5193   23.1881 C   0  0  0  0  0  0
  -53.1328    2.0521   19.5553 C   0  0  0  0  0  0
  -53.7805    3.4319   19.7521 C   0  0  0  0  0  0
  -52.5944   -2.4576   18.3783 C   0  0  0  0  0  0
  -50.9618   -0.7229   16.2288 C   0  0  0  0  0  0
  -50.2490   -1.0380   16.7002 H   0  0  0  0  0  0
  -48.9369   -3.8508   12.2214 H   0  0  0  0  0  0
  -53.4401    3.2660   17.0138 H   0  0  0  0  0  0
  1 16  1  0  0  0
  2 15  1  0  0  0
  2 22  1  0  0  0
  3 21  1  0  0  0
  3 34  1  0  0  0
  4 27  1  0  0  0
  4 37  1  0  0  0
  5 25  1  0  0  0
  5 63  1  0  0  0
  6 31  1  0  0  0
  6 64  1  0  0  0
  7 34  2  0  0  0
  8 42  1  0  0  0
  8 46  1  0  0  0
  9 46  1  0  0  0
  9 51  1  0  0  0
 10 47  1  0  0  0
 10 54  1  0  0  0
 11 48  1  0  0  0
 11 61  1  0  0  0
 12 54  1  0  0  0
 12 59  1  0  0  0
 13 56  1  0  0  0
 13 62  1  0  0  0
 14 57  1  0  0  0
 14 65  1  0  0  0
 15  1  1  0  0  0
 15 18  1  0  0  0
 15 19  1  0  0  0
 16 17  1  0  0  0
 16 24  1  0  0  0
 17 20  1  0  0  0
 17 28  1  0  0  0
 18 20  1  0  0  0
 19 21  1  0  0  0
 21 23  1  0  0  0
 22 23  1  0  0  0
 22 29  1  0  0  0
 24 30  1  0  0  0
 24 33  1  0  0  0
 25 26  1  0  0  0
 25 32  1  0  0  0
 26 34  1  0  0  0
 26 35  1  0  0  0
 27 25  1  0  0  0
 29 38  1  0  0  0
 30 39  1  0  0  0
 31 27  1  0  0  0
 31 36  1  0  0  0
 32 37  1  0  0  0
 32 40  2  0  0  0
 35 36  2  0  0  0
 36 43  1  0  0  0
 38 41  2  0  0  0
 40 45  1  0  0  0
 41 42  1  0  0  0
 41 52  1  0  0  0
 42 44  1  0  0  0
 44 50  1  0  0  0
 44 53  1  0  0  0
 45 50  2  0  0  0
 46 49  1  0  0  0
 47 48  1  0  0  0
 48 49  1  0  0  0
 51 47  1  0  0  0
 51 58  1  0  0  0
 54 55  1  0  0  0
 55 56  1  0  0  0
 56 57  1  0  0  0
 57 59  1  0  0  0
 59 60  1  0  0  0
M  END
>  <CHROM.0>
-159.35538130,179.65169676,-162.05996521

>  <CHROM.1>
5.50424127,71.33798308,66.07801988,-121.03160912,-156.00001838,-154.35542432
-62.97558725,93.79234265,-159.37532398,56.89641591,51.44598848,-49.08346504
-1.49395980,19.70693412,-0.55700831,-0.80209570,-1.23225015

>  <HEADER>
                                                                          

>  <MASTER>
        0    0    0    0    0    0    0    0  136    0  136    0          

>  <Name>
Ivermectin.pdb

>  <RI>
-1.036e+09

>  <Rbt.Current_Directory>
/root/miniconda3/envs/rdock/share/rxdock-2013.1.1_148c5bd1-0/data/ligands/prepped_ligands/Ivermectin

>  <Rbt.Executable>
rbdock/0.1.0

>  <Rbt.Library>
librxdock.so/0.1.0

>  <Rbt.Parameter_File>
/root/miniconda3/envs/rdock/share/rxdock-2013.1.1_148c5bd1-0/data/scripts/dock.prm

>  <Rbt.Receptor>
def.prm

>  <SCORE>
134.185

>  <SCORE.INTER>
63.0773

>  <SCORE.INTER.CONST>
1

>  <SCORE.INTER.POLAR>
-0.423171

>  <SCORE.INTER.REPUL>
0.0339479

>  <SCORE.INTER.ROT>
8

>  <SCORE.INTER.VDW>
50.9464

>  <SCORE.INTER.norm>
1.01738

>  <SCORE.INTRA>
36.8975

>  <SCORE.INTRA.DIHEDRAL>
-2.76636

>  <SCORE.INTRA.DIHEDRAL.0>
29.9071

>  <SCORE.INTRA.POLAR>
0

>  <SCORE.INTRA.POLAR.0>
0

>  <SCORE.INTRA.REPUL>
0

>  <SCORE.INTRA.REPUL.0>
0

>  <SCORE.INTRA.VDW>
38.2807

>  <SCORE.INTRA.VDW.0>
1.27762

>  <SCORE.INTRA.norm>
0.595121

>  <SCORE.RESTR>
34.21

>  <SCORE.RESTR.CAVITY>
34.21

>  <SCORE.RESTR.norm>
0.551774

>  <SCORE.SYSTEM>
0.000132007

>  <SCORE.SYSTEM.CONST>
0

>  <SCORE.SYSTEM.DIHEDRAL>
1.66621

>  <SCORE.SYSTEM.POLAR>
-0.0195975

>  <SCORE.SYSTEM.VDW>
-0.766343

>  <SCORE.SYSTEM.norm>
2.12915e-06

>  <SCORE.heavy>
62

>  <SCORE.norm>
2.16427

>  <TITLE>
    6321424_D                                                             

$$$$
Ivermectin.pdb
  RxDock  02242113033D
librxdock.so/0.1.0
 65 71  0  0  0  0  0  0  0  0999 V2000
  -49.1285   -6.9997   19.0807 O   0  0  0  0  0  0
  -49.1861   -6.1190   16.9002 O   0  0  0  0  0  0
  -47.4800   -2.7146   18.2127 O   0  0  0  0  0  0
  -44.6699    1.0163   17.4516 O   0  0  0  0  0  0
  -47.8185    0.6702   19.1878 O   0  0  0  0  0  0
  -43.4732    1.9619   19.6577 O   0  0  0  0  0  0
  -48.0100   -2.1075   20.3179 O   0  0  0  0  0  0
  -51.8345   -1.5903   13.3302 O   0  0  0  0  0  0
  -53.0039   -3.3024   14.5811 O   0  0  0  0  0  0
  -53.1460   -3.8353   18.2848 O   0  0  0  0  0  0
  -50.9559   -1.6754   17.6924 O   0  0  0  0  0  0
  -52.7546   -5.3941   20.0963 O   0  0  0  0  0  0
  -51.3238   -1.7331   21.5846 O   0  0  0  0  0  0
  -53.6149   -3.0098   22.8158 O   0  0  0  0  0  0
  -48.5820   -5.9711   18.2163 C   0  0  0  0  0  0
  -48.3518   -8.2164   19.1380 C   0  0  0  0  0  0
  -47.0401   -7.8831   19.9021 C   0  0  0  0  0  0
  -47.0455   -6.0969   18.0428 C   0  0  0  0  0  0
  -48.9197   -4.6322   18.9212 C   0  0  0  0  0  0
  -46.3340   -6.6448   19.2969 C   0  0  0  0  0  0
  -48.7419   -3.3785   18.0334 C   0  0  0  0  0  0
  -49.8077   -4.9253   16.3614 C   0  0  0  0  0  0
  -48.8911   -3.7051   16.5370 C   0  0  0  0  0  0
  -49.1628   -9.3416   19.8385 C   0  0  0  0  0  0
  -46.6074    0.2257   18.5572 C   0  0  0  0  0  0
  -46.1000   -1.0958   19.1752 C   0  0  0  0  0  0
  -45.5436    1.3309   18.5492 C   0  0  0  0  0  0
  -46.0450   -9.0555   19.9849 C   0  0  0  0  0  0
  -50.1051   -5.1102   14.8607 C   0  0  0  0  0  0
  -49.2344  -10.6194   18.9662 C   0  0  0  0  0  0
  -44.8218    1.5343   19.9022 C   0  0  0  0  0  0
  -46.7589    0.0525   17.0684 C   0  0  0  0  0  0
  -50.5972   -8.8620   20.1414 C   0  0  0  0  0  0
  -47.2888   -2.0124   19.3415 C   0  0  0  0  0  0
  -45.3786   -0.8288   20.4695 C   0  0  0  0  0  0
  -44.8270    0.3205   20.8121 C   0  0  0  0  0  0
  -45.4029    0.2895   16.4430 C   0  0  0  0  0  0
  -50.4775   -3.7878   14.2194 C   0  0  0  0  0  0
  -47.9295  -11.4346   19.0436 C   0  0  0  0  0  0
  -47.9548   -0.1229   16.5163 C   0  0  0  0  0  0
  -49.9254   -3.1200   13.2167 C   0  0  0  0  0  0
  -50.5207   -1.7945   12.7684 C   0  0  0  0  0  0
  -44.1639    0.4873   22.1592 C   0  0  0  0  0  0
  -49.6196   -0.5750   13.0679 C   0  0  0  0  0  0
  -48.1090   -0.2630   15.0686 C   0  0  0  0  0  0
  -52.0090   -2.2500   14.6029 C   0  0  0  0  0  0
  -52.5877   -3.3641   17.0402 C   0  0  0  0  0  0
  -52.2559   -1.8504   17.0956 C   0  0  0  0  0  0
  -52.3120   -1.2011   15.6896 C   0  0  0  0  0  0
  -49.3171   -0.4083   14.5377 C   0  0  0  0  0  0
  -53.5685   -3.6185   15.8747 C   0  0  0  0  0  0
  -48.7467   -3.5876   12.3870 C   0  0  0  0  0  0
  -50.3160    0.7037   12.5740 C   0  0  0  0  0  0
  -52.1750   -4.4899   19.1294 C   0  0  0  0  0  0
  -51.2998   -3.4418   19.8447 C   0  0  0  0  0  0
  -52.1485   -2.6822   20.8827 C   0  0  0  0  0  0
  -52.7845   -3.6904   21.8626 C   0  0  0  0  0  0
  -54.0416   -5.0809   15.8779 C   0  0  0  0  0  0
  -53.5972   -4.7231   21.0551 C   0  0  0  0  0  0
  -54.2145   -5.7580   22.0089 C   0  0  0  0  0  0
  -50.5951   -0.2910   17.8603 C   0  0  0  0  0  0
  -51.0428   -0.5607   20.7986 C   0  0  0  0  0  0
  -48.1053    1.5693   18.8394 H   0  0  0  0  0  0
  -43.1169    1.5804   18.7988 H   0  0  0  0  0  0
  -53.0625   -2.5080   23.4905 H   0  0  0  0  0  0
  1 16  1  0  0  0
  2 15  1  0  0  0
  2 22  1  0  0  0
  3 21  1  0  0  0
  3 34  1  0  0  0
  4 27  1  0  0  0
  4 37  1  0  0  0
  5 25  1  0  0  0
  5 63  1  0  0  0
  6 31  1  0  0  0
  6 64  1  0  0  0
  7 34  2  0  0  0
  8 42  1  0  0  0
  8 46  1  0  0  0
  9 46  1  0  0  0
  9 51  1  0  0  0
 10 47  1  0  0  0
 10 54  1  0  0  0
 11 48  1  0  0  0
 11 61  1  0  0  0
 12 54  1  0  0  0
 12 59  1  0  0  0
 13 56  1  0  0  0
 13 62  1  0  0  0
 14 57  1  0  0  0
 14 65  1  0  0  0
 15  1  1  0  0  0
 15 18  1  0  0  0
 15 19  1  0  0  0
 16 17  1  0  0  0
 16 24  1  0  0  0
 17 20  1  0  0  0
 17 28  1  0  0  0
 18 20  1  0  0  0
 19 21  1  0  0  0
 21 23  1  0  0  0
 22 23  1  0  0  0
 22 29  1  0  0  0
 24 30  1  0  0  0
 24 33  1  0  0  0
 25 26  1  0  0  0
 25 32  1  0  0  0
 26 34  1  0  0  0
 26 35  1  0  0  0
 27 25  1  0  0  0
 29 38  1  0  0  0
 30 39  1  0  0  0
 31 27  1  0  0  0
 31 36  1  0  0  0
 32 37  1  0  0  0
 32 40  2  0  0  0
 35 36  2  0  0  0
 36 43  1  0  0  0
 38 41  2  0  0  0
 40 45  1  0  0  0
 41 42  1  0  0  0
 41 52  1  0  0  0
 42 44  1  0  0  0
 44 50  1  0  0  0
 44 53  1  0  0  0
 45 50  2  0  0  0
 46 49  1  0  0  0
 47 48  1  0  0  0
 48 49  1  0  0  0
 51 47  1  0  0  0
 51 58  1  0  0  0
 54 55  1  0  0  0
 55 56  1  0  0  0
 56 57  1  0  0  0
 57 59  1  0  0  0
 59 60  1  0  0  0
M  END
>  <CHROM.0>
-130.98287513,74.13726185,48.22193853

>  <CHROM.1>
175.13692902,-31.20302145,28.71578368,-115.29134565,-98.90867549,-157.59725269
-176.46421064,76.49704316,-73.08276694,126.60236631,78.52346337,-49.38269209
-3.17455480,17.99064557,-2.21457965,-0.64297445,-0.62233963

>  <HEADER>
                                                                          

>  <MASTER>
        0    0    0    0    0    0    0    0  136    0  136    0          

>  <Name>
Ivermectin.pdb

>  <RI>
-1.036e+09

>  <Rbt.Current_Directory>
/root/miniconda3/envs/rdock/share/rxdock-2013.1.1_148c5bd1-0/data/ligands/prepped_ligands/Ivermectin

>  <Rbt.Executable>
rbdock/0.1.0

>  <Rbt.Library>
librxdock.so/0.1.0

>  <Rbt.Parameter_File>
/root/miniconda3/envs/rdock/share/rxdock-2013.1.1_148c5bd1-0/data/scripts/dock.prm

>  <Rbt.Receptor>
def.prm

>  <SCORE>
109.475

>  <SCORE.INTER>
82.1796

>  <SCORE.INTER.CONST>
1

>  <SCORE.INTER.POLAR>
-0.0400911

>  <SCORE.INTER.REPUL>
0.28153

>  <SCORE.INTER.ROT>
8

>  <SCORE.INTER.VDW>
67.5083

>  <SCORE.INTER.norm>
1.32548

>  <SCORE.INTRA>
16.5909

>  <SCORE.INTRA.DIHEDRAL>
1.44083

>  <SCORE.INTRA.DIHEDRAL.0>
29.9071

>  <SCORE.INTRA.POLAR>
-0.249318

>  <SCORE.INTRA.POLAR.0>
0

>  <SCORE.INTRA.REPUL>
0.0252768

>  <SCORE.INTRA.REPUL.0>
0

>  <SCORE.INTRA.VDW>
16.5918

>  <SCORE.INTRA.VDW.0>
1.27762

>  <SCORE.INTRA.norm>
0.267595

>  <SCORE.RESTR>
8.97212

>  <SCORE.RESTR.CAVITY>
8.97212

>  <SCORE.RESTR.norm>
0.144712

>  <SCORE.SYSTEM>
1.73242

>  <SCORE.SYSTEM.CONST>
0

>  <SCORE.SYSTEM.DIHEDRAL>
4.58547

>  <SCORE.SYSTEM.VDW>
-0.560312

>  <SCORE.SYSTEM.norm>
0.0279423

>  <SCORE.heavy>
62

>  <SCORE.norm>
1.76573

>  <TITLE>
    6321424_D                                                             

$$$$
Ivermectin.pdb
  RxDock  02242113033D
librxdock.so/0.1.0
 65 71  0  0  0  0  0  0  0  0999 V2000
  -49.1347    0.5850   20.6222 O   0  0  0  0  0  0
  -49.8517    0.1078   18.4333 O   0  0  0  0  0  0
  -50.1738   -3.7958   19.3726 O   0  0  0  0  0  0
  -52.2982   -7.9852   18.7969 O   0  0  0  0  0  0
  -48.8335   -7.0684   19.2478 O   0  0  0  0  0  0
  -52.2416   -9.5565   20.9695 O   0  0  0  0  0  0
  -48.6941   -4.5577   20.8930 O   0  0  0  0  0  0
  -48.1950   -2.9044   13.0993 O   0  0  0  0  0  0
  -46.7309   -1.4156   14.3256 O   0  0  0  0  0  0
  -45.3156   -1.8078   17.7700 O   0  0  0  0  0  0
  -47.4838   -4.0287   17.3465 O   0  0  0  0  0  0
  -45.1469    0.4960   18.4969 O   0  0  0  0  0  0
  -43.7311   -1.7084   21.7835 O   0  0  0  0  0  0
  -41.9472    0.0595   20.3387 O   0  0  0  0  0  0
  -49.7976   -0.4047   19.7947 C   0  0  0  0  0  0
  -50.0223    1.5182   21.2766 C   0  0  0  0  0  0
  -50.7960    0.7230   22.3649 C   0  0  0  0  0  0
  -51.2551   -0.6783   20.2500 C   0  0  0  0  0  0
  -48.9507   -1.6936   19.9529 C   0  0  0  0  0  0
  -51.4509   -0.5500   21.7747 C   0  0  0  0  0  0
  -49.2557   -2.7924   18.9083 C   0  0  0  0  0  0
  -49.3111   -0.7704   17.4143 C   0  0  0  0  0  0
  -49.8225   -2.2065   17.6031 C   0  0  0  0  0  0
  -49.2130    2.6977   21.8834 C   0  0  0  0  0  0
  -50.2568   -6.8788   19.2553 C   0  0  0  0  0  0
  -50.6862   -5.8606   20.3346 C   0  0  0  0  0  0
  -50.9982   -8.2173   19.3654 C   0  0  0  0  0  0
  -51.8581    1.5504   23.1128 C   0  0  0  0  0  0
  -49.7223   -0.2778   16.0132 C   0  0  0  0  0  0
  -48.5250    3.5422   20.7824 C   0  0  0  0  0  0
  -51.0222   -8.8203   20.7896 C   0  0  0  0  0  0
  -50.7901   -6.4391   17.9167 C   0  0  0  0  0  0
  -48.1367    2.1688   22.8534 C   0  0  0  0  0  0
  -49.7318   -4.6918   20.2702 C   0  0  0  0  0  0
  -50.7232   -6.5147   21.6901 C   0  0  0  0  0  0
  -50.8533   -7.8101   21.9087 C   0  0  0  0  0  0
  -52.2137   -6.9366   17.8089 C   0  0  0  0  0  0
  -49.4224   -1.3300   14.9637 C   0  0  0  0  0  0
  -49.0465    3.1799   19.3787 C   0  0  0  0  0  0
  -49.9993   -5.8587   17.0202 C   0  0  0  0  0  0
  -50.2159   -1.9572   14.1074 C   0  0  0  0  0  0
  -49.6355   -2.9817   13.1453 C   0  0  0  0  0  0
  -50.8346   -8.3614   23.3150 C   0  0  0  0  0  0
  -50.0805   -4.4325   13.4388 C   0  0  0  0  0  0
  -50.5065   -5.4561   15.7087 C   0  0  0  0  0  0
  -47.6105   -2.5652   14.3756 C   0  0  0  0  0  0
  -46.2566   -2.0254   16.6977 C   0  0  0  0  0  0
  -46.4856   -3.5358   16.4315 C   0  0  0  0  0  0
  -46.9017   -3.8006   14.9624 C   0  0  0  0  0  0
  -49.6903   -4.9044   14.8189 C   0  0  0  0  0  0
  -45.7604   -1.3580   15.3964 C   0  0  0  0  0  0
  -51.6998   -1.7054   13.9314 C   0  0  0  0  0  0
  -49.4388   -5.3778   12.4100 C   0  0  0  0  0  0
  -45.7494   -0.8003   18.7088 C   0  0  0  0  0  0
  -45.4918   -1.2729   20.1532 C   0  0  0  0  0  0
  -43.9747   -1.3105   20.4211 C   0  0  0  0  0  0
  -43.3685    0.0796   20.1361 C   0  0  0  0  0  0
  -45.3767    0.1077   15.6549 C   0  0  0  0  0  0
  -43.7179    0.4871   18.6902 C   0  0  0  0  0  0
  -43.1510    1.8845   18.3936 C   0  0  0  0  0  0
  -47.2457   -5.3874   17.7613 C   0  0  0  0  0  0
  -44.3598   -0.8300   22.7345 C   0  0  0  0  0  0
  -48.4656   -7.1245   20.1825 H   0  0  0  0  0  0
  -52.1309  -10.2909   21.6468 H   0  0  0  0  0  0
  -41.4776   -0.4246   19.5920 H   0  0  0  0  0  0
  1 16  1  0  0  0
  2 15  1  0  0  0
  2 22  1  0  0  0
  3 21  1  0  0  0
  3 34  1  0  0  0
  4 27  1  0  0  0
  4 37  1  0  0  0
  5 25  1  0  0  0
  5 63  1  0  0  0
  6 31  1  0  0  0
  6 64  1  0  0  0
  7 34  2  0  0  0
  8 42  1  0  0  0
  8 46  1  0  0  0
  9 46  1  0  0  0
  9 51  1  0  0  0
 10 47  1  0  0  0
 10 54  1  0  0  0
 11 48  1  0  0  0
 11 61  1  0  0  0
 12 54  1  0  0  0
 12 59  1  0  0  0
 13 56  1  0  0  0
 13 62  1  0  0  0
 14 57  1  0  0  0
 14 65  1  0  0  0
 15  1  1  0  0  0
 15 18  1  0  0  0
 15 19  1  0  0  0
 16 17  1  0  0  0
 16 24  1  0  0  0
 17 20  1  0  0  0
 17 28  1  0  0  0
 18 20  1  0  0  0
 19 21  1  0  0  0
 21 23  1  0  0  0
 22 23  1  0  0  0
 22 29  1  0  0  0
 24 30  1  0  0  0
 24 33  1  0  0  0
 25 26  1  0  0  0
 25 32  1  0  0  0
 26 34  1  0  0  0
 26 35  1  0  0  0
 27 25  1  0  0  0
 29 38  1  0  0  0
 30 39  1  0  0  0
 31 27  1  0  0  0
 31 36  1  0  0  0
 32 37  1  0  0  0
 32 40  2  0  0  0
 35 36  2  0  0  0
 36 43  1  0  0  0
 38 41  2  0  0  0
 40 45  1  0  0  0
 41 42  1  0  0  0
 41 52  1  0  0  0
 42 44  1  0  0  0
 44 50  1  0  0  0
 44 53  1  0  0  0
 45 50  2  0  0  0
 46 49  1  0  0  0
 47 48  1  0  0  0
 48 49  1  0  0  0
 51 47  1  0  0  0
 51 58  1  0  0  0
 54 55  1  0  0  0
 55 56  1  0  0  0
 56 57  1  0  0  0
 57 59  1  0  0  0
 59 60  1  0  0  0
M  END
>  <CHROM.0>
-43.93360340,-164.70464326,-151.86034639

>  <CHROM.1>
41.93749897,153.01796619,34.76686092,-125.80347285,-134.75963274,-99.52632038
-145.53844530,-58.11556928,73.99927260,64.86995270,11.70190714,-48.51487450
-2.59845611,18.53498408,0.41470241,0.97200933,1.22991106

>  <HEADER>
                                                                          

>  <MASTER>
        0    0    0    0    0    0    0    0  136    0  136    0          

>  <Name>
Ivermectin.pdb

>  <RI>
-1.036e+09

>  <Rbt.Current_Directory>
/root/miniconda3/envs/rdock/share/rxdock-2013.1.1_148c5bd1-0/data/ligands/prepped_ligands/Ivermectin

>  <Rbt.Executable>
rbdock/0.1.0

>  <Rbt.Library>
librxdock.so/0.1.0

>  <Rbt.Parameter_File>
/root/miniconda3/envs/rdock/share/rxdock-2013.1.1_148c5bd1-0/data/scripts/dock.prm

>  <Rbt.Receptor>
def.prm

>  <SCORE>
72.2354

>  <SCORE.INTER>
32.5158

>  <SCORE.INTER.CONST>
1

>  <SCORE.INTER.POLAR>
-0.0629653

>  <SCORE.INTER.REPUL>
0.214258

>  <SCORE.INTER.ROT>
8

>  <SCORE.INTER.VDW>
18.2586

>  <SCORE.INTER.norm>
0.524448

>  <SCORE.INTRA>
21.5833

>  <SCORE.INTRA.DIHEDRAL>
7.38476

>  <SCORE.INTRA.DIHEDRAL.0>
29.9071

>  <SCORE.INTRA.POLAR>
0

>  <SCORE.INTRA.POLAR.0>
0

>  <SCORE.INTRA.REPUL>
0

>  <SCORE.INTRA.REPUL.0>
0

>  <SCORE.INTRA.VDW>
17.8909

>  <SCORE.INTRA.VDW.0>
1.27762

>  <SCORE.INTRA.norm>
0.348118

>  <SCORE.RESTR>
17.2122

>  <SCORE.RESTR.CAVITY>
17.2122

>  <SCORE.RESTR.norm>
0.277616

>  <SCORE.SYSTEM>
0.924096

>  <SCORE.SYSTEM.CONST>
0

>  <SCORE.SYSTEM.DIHEDRAL>
3.2933

>  <SCORE.SYSTEM.POLAR>
-0.0130096

>  <SCORE.SYSTEM.VDW>
-0.678319

>  <SCORE.SYSTEM.norm>
0.0149048

>  <SCORE.heavy>
62

>  <SCORE.norm>
1.16509

>  <TITLE>
    6321424_D                                                             

$$$$
Ivermectin.pdb
  RxDock  02242113033D
librxdock.so/0.1.0
 65 71  0  0  0  0  0  0  0  0999 V2000
  -49.0606   -6.9144   19.0198 O   0  0  0  0  0  0
  -49.1522   -6.0167   16.8475 O   0  0  0  0  0  0
  -47.4500   -2.6123   18.1650 O   0  0  0  0  0  0
  -44.6730    1.1421   17.3974 O   0  0  0  0  0  0
  -47.7964    0.7624   19.1717 O   0  0  0  0  0  0
  -43.4534    2.0775   19.5952 O   0  0  0  0  0  0
  -47.9561   -2.0253   20.2818 O   0  0  0  0  0  0
  -51.8749   -1.4762   13.3489 O   0  0  0  0  0  0
  -53.0525   -3.2672   14.4756 O   0  0  0  0  0  0
  -53.2229   -4.0422   18.1351 O   0  0  0  0  0  0
  -51.0301   -1.8473   17.7029 O   0  0  0  0  0  0
  -52.9733   -5.7271   19.8565 O   0  0  0  0  0  0
  -50.4132   -2.6311   21.0920 O   0  0  0  0  0  0
  -52.7345   -3.3229   22.6821 O   0  0  0  0  0  0
  -48.5318   -5.8755   18.1567 C   0  0  0  0  0  0
  -48.2757   -8.1266   19.0572 C   0  0  0  0  0  0
  -46.9562   -7.7912   19.8067 C   0  0  0  0  0  0
  -46.9970   -5.9903   17.9622 C   0  0  0  0  0  0
  -48.8685   -4.5444   18.8767 C   0  0  0  0  0  0
  -46.2658   -6.5438   19.2024 C   0  0  0  0  0  0
  -48.7100   -3.2826   17.9968 C   0  0  0  0  0  0
  -49.7881   -4.8226   16.3264 C   0  0  0  0  0  0
  -48.8768   -3.5982   16.4999 C   0  0  0  0  0  0
  -49.0706   -9.2624   19.7591 C   0  0  0  0  0  0
  -46.5911    0.3306   18.5218 C   0  0  0  0  0  0
  -46.0674   -0.9926   19.1224 C   0  0  0  0  0  0
  -45.5342    1.4425   18.5088 C   0  0  0  0  0  0
  -45.9529   -8.9581   19.8671 C   0  0  0  0  0  0
  -50.1040   -4.9974   14.8283 C   0  0  0  0  0  0
  -49.1581  -10.5287   18.8716 C   0  0  0  0  0  0
  -44.7961    1.6395   19.8538 C   0  0  0  0  0  0
  -46.7609    0.1684   17.0338 C   0  0  0  0  0  0
  -50.4991   -8.7894   20.0977 C   0  0  0  0  0  0
  -47.2483   -1.9179   19.2969 C   0  0  0  0  0  0
  -45.3308   -0.7315   20.4093 C   0  0  0  0  0  0
  -44.7818    0.4185   20.7539 C   0  0  0  0  0  0
  -45.4148    0.4188   16.3926 C   0  0  0  0  0  0
  -50.4929   -3.6723   14.2026 C   0  0  0  0  0  0
  -47.9981  -11.5024   19.1540 C   0  0  0  0  0  0
  -47.9629   -0.0101   16.4959 C   0  0  0  0  0  0
  -49.9581   -2.9930   13.1982 C   0  0  0  0  0  0
  -50.5673   -1.6678   12.7685 C   0  0  0  0  0  0
  -44.1022    0.5787   22.0936 C   0  0  0  0  0  0
  -49.6699   -0.4451   13.0659 C   0  0  0  0  0  0
  -48.1352   -0.1397   15.0492 C   0  0  0  0  0  0
  -52.0587   -2.2181   14.5742 C   0  0  0  0  0  0
  -52.6554   -3.4901   16.9285 C   0  0  0  0  0  0
  -52.3252   -1.9832   17.0857 C   0  0  0  0  0  0
  -52.3710   -1.2430   15.7250 C   0  0  0  0  0  0
  -49.3492   -0.2882   14.5330 C   0  0  0  0  0  0
  -53.6268   -3.6678   15.7412 C   0  0  0  0  0  0
  -48.7875   -3.4467   12.3495 C   0  0  0  0  0  0
  -50.3805    0.8331   12.5915 C   0  0  0  0  0  0
  -52.3371   -4.9625   18.8082 C   0  0  0  0  0  0
  -51.1153   -4.2096   19.3706 C   0  0  0  0  0  0
  -51.5589   -3.3023   20.5345 C   0  0  0  0  0  0
  -52.2740   -4.1531   21.6049 C   0  0  0  0  0  0
  -54.0987   -5.1274   15.6447 C   0  0  0  0  0  0
  -53.4469   -4.9033   20.9412 C   0  0  0  0  0  0
  -54.1555   -5.7836   21.9828 C   0  0  0  0  0  0
  -50.9320   -0.6921   18.5577 C   0  0  0  0  0  0
  -49.5487   -3.5261   21.8152 C   0  0  0  0  0  0
  -47.9606    1.7443   19.0262 H   0  0  0  0  0  0
  -42.8204    1.7631   20.3097 H   0  0  0  0  0  0
  -51.9646   -2.9108   23.1818 H   0  0  0  0  0  0
  1 16  1  0  0  0
  2 15  1  0  0  0
  2 22  1  0  0  0
  3 21  1  0  0  0
  3 34  1  0  0  0
  4 27  1  0  0  0
  4 37  1  0  0  0
  5 25  1  0  0  0
  5 63  1  0  0  0
  6 31  1  0  0  0
  6 64  1  0  0  0
  7 34  2  0  0  0
  8 42  1  0  0  0
  8 46  1  0  0  0
  9 46  1  0  0  0
  9 51  1  0  0  0
 10 47  1  0  0  0
 10 54  1  0  0  0
 11 48  1  0  0  0
 11 61  1  0  0  0
 12 54  1  0  0  0
 12 59  1  0  0  0
 13 56  1  0  0  0
 13 62  1  0  0  0
 14 57  1  0  0  0
 14 65  1  0  0  0
 15  1  1  0  0  0
 15 18  1  0  0  0
 15 19  1  0  0  0
 16 17  1  0  0  0
 16 24  1  0  0  0
 17 20  1  0  0  0
 17 28  1  0  0  0
 18 20  1  0  0  0
 19 21  1  0  0  0
 21 23  1  0  0  0
 22 23  1  0  0  0
 22 29  1  0  0  0
 24 30  1  0  0  0
 24 33  1  0  0  0
 25 26  1  0  0  0
 25 32  1  0  0  0
 26 34  1  0  0  0
 26 35  1  0  0  0
 27 25  1  0  0  0
 29 38  1  0  0  0
 30 39  1  0  0  0
 31 27  1  0  0  0
 31 36  1  0  0  0
 32 37  1  0  0  0
 32 40  2  0  0  0
 35 36  2  0  0  0
 36 43  1  0  0  0
 38 41  2  0  0  0
 40 45  1  0  0  0
 41 42  1  0  0  0
 41 52  1  0  0  0
 42 44  1  0  0  0
 44 50  1  0  0  0
 44 53  1  0  0  0
 45 50  2  0  0  0
 46 49  1  0  0  0
 47 48  1  0  0  0
 48 49  1  0  0  0
 51 47  1  0  0  0
 51 58  1  0  0  0
 54 55  1  0  0  0
 55 56  1  0  0  0
 56 57  1  0  0  0
 57 59  1  0  0  0
 59 60  1  0  0  0
M  END
>  <CHROM.0>
93.11695416,-151.74095609,58.47676380

>  <CHROM.1>
159.96947699,-149.66530093,24.88793415,-113.91228517,-110.28032297,-168.16923048
-146.61450827,-70.60619558,-65.37251761,126.01981920,91.58802431,-49.30748347
-3.24375926,17.94293451,-2.23556402,-0.66076612,-0.64408457

>  <HEADER>
                                                                          

>  <MASTER>
        0    0    0    0    0    0    0    0  136    0  136    0          

>  <Name>
Ivermectin.pdb

>  <RI>
-1.036e+09

>  <Rbt.Current_Directory>
/root/miniconda3/envs/rdock/share/rxdock-2013.1.1_148c5bd1-0/data/ligands/prepped_ligands/Ivermectin

>  <Rbt.Executable>
rbdock/0.1.0

>  <Rbt.Library>
librxdock.so/0.1.0

>  <Rbt.Parameter_File>
/root/miniconda3/envs/rdock/share/rxdock-2013.1.1_148c5bd1-0/data/scripts/dock.prm

>  <Rbt.Receptor>
def.prm

>  <SCORE>
122.86

>  <SCORE.INTER>
79.8439

>  <SCORE.INTER.CONST>
1

>  <SCORE.INTER.POLAR>
-0.0432916

>  <SCORE.INTER.REPUL>
0.283286

>  <SCORE.INTER.ROT>
8

>  <SCORE.INTER.VDW>
65.1747

>  <SCORE.INTER.norm>
1.28781

>  <SCORE.INTRA>
33.6139

>  <SCORE.INTRA.DIHEDRAL>
8.98892

>  <SCORE.INTRA.DIHEDRAL.0>
29.9071

>  <SCORE.INTRA.POLAR>
0

>  <SCORE.INTRA.POLAR.0>
0

>  <SCORE.INTRA.REPUL>
0

>  <SCORE.INTRA.REPUL.0>
0

>  <SCORE.INTRA.VDW>
29.1194

>  <SCORE.INTRA.VDW.0>
1.27762

>  <SCORE.INTRA.norm>
0.542159

>  <SCORE.RESTR>
7.46282

>  <SCORE.RESTR.CAVITY>
7.46282

>  <SCORE.RESTR.norm>
0.120368

>  <SCORE.SYSTEM>
1.93977

>  <SCORE.SYSTEM.CONST>
0

>  <SCORE.SYSTEM.DIHEDRAL>
5.35789

>  <SCORE.SYSTEM.VDW>
-0.739175

>  <SCORE.SYSTEM.norm>
0.0312866

>  <SCORE.heavy>
62

>  <SCORE.norm>
1.98162

>  <TITLE>
    6321424_D                                                             

$$$$
Ivermectin.pdb
  RxDock  02242113043D
librxdock.so/0.1.0
 65 71  0  0  0  0  0  0  0  0999 V2000
  -48.7464   -6.3018   21.2615 O   0  0  0  0  0  0
  -49.1271   -4.1806   20.3188 O   0  0  0  0  0  0
  -51.6737   -5.8042   17.6537 O   0  0  0  0  0  0
  -55.5292   -5.4508   14.9324 O   0  0  0  0  0  0
  -52.2979   -6.9639   14.3693 O   0  0  0  0  0  0
  -56.7800   -7.7809   14.4867 O   0  0  0  0  0  0
  -51.1895   -7.9061   16.9986 O   0  0  0  0  0  0
  -48.2555   -0.7402   15.0582 O   0  0  0  0  0  0
  -47.2878    0.5186   16.8866 O   0  0  0  0  0  0
  -43.7407    0.5897   18.0843 O   0  0  0  0  0  0
  -44.0244   -1.7403   16.0100 O   0  0  0  0  0  0
  -43.6767   -1.1943   19.7206 O   0  0  0  0  0  0
  -41.0750    1.7107   21.2884 O   0  0  0  0  0  0
  -43.5232    1.0421   22.6864 O   0  0  0  0  0  0
  -49.6434   -5.5382   20.4153 C   0  0  0  0  0  0
  -49.1127   -6.3317   22.6586 C   0  0  0  0  0  0
  -50.4002   -7.1947   22.7728 C   0  0  0  0  0  0
  -51.0788   -5.4527   20.9974 C   0  0  0  0  0  0
  -49.6718   -6.3022   19.0666 C   0  0  0  0  0  0
  -51.4919   -6.7122   21.7863 C   0  0  0  0  0  0
  -50.2882   -5.5063   17.8926 C   0  0  0  0  0  0
  -48.9388   -3.6791   18.9716 C   0  0  0  0  0  0
  -50.1643   -3.9862   18.0978 C   0  0  0  0  0  0
  -47.9479   -6.9098   23.5094 C   0  0  0  0  0  0
  -53.3635   -6.3832   15.1368 C   0  0  0  0  0  0
  -53.3987   -6.9486   16.5739 C   0  0  0  0  0  0
  -54.7086   -6.5095   14.4101 C   0  0  0  0  0  0
  -50.9854   -7.2663   24.1956 C   0  0  0  0  0  0
  -48.7171   -2.1543   18.9965 C   0  0  0  0  0  0
  -46.6996   -5.9942   23.4624 C   0  0  0  0  0  0
  -55.3505   -7.9145   14.4913 C   0  0  0  0  0  0
  -53.2832   -4.8801   15.1957 C   0  0  0  0  0  0
  -47.5575   -8.3137   23.0036 C   0  0  0  0  0  0
  -51.9795   -6.9840   17.0893 C   0  0  0  0  0  0
  -54.0640   -8.2991   16.5921 C   0  0  0  0  0  0
  -54.9084   -8.7456   15.6809 C   0  0  0  0  0  0
  -54.6918   -4.3557   15.3594 C   0  0  0  0  0  0
  -48.8123   -1.5742   17.5990 C   0  0  0  0  0  0
  -47.0495   -4.5369   23.8193 C   0  0  0  0  0  0
  -52.1369   -4.2451   14.9751 C   0  0  0  0  0  0
  -49.6165   -0.6508   17.0922 C   0  0  0  0  0  0
  -49.4858   -0.2494   15.6314 C   0  0  0  0  0  0
  -55.4840  -10.1389   15.7787 C   0  0  0  0  0  0
  -50.6868   -0.6789   14.7585 C   0  0  0  0  0  0
  -52.0607   -2.7848   15.0033 C   0  0  0  0  0  0
  -47.1180   -0.5540   15.9282 C   0  0  0  0  0  0
  -44.9017    0.0347   17.4310 C   0  0  0  0  0  0
  -44.5858   -0.4135   15.9805 C   0  0  0  0  0  0
  -45.8461   -0.3650   15.0800 C   0  0  0  0  0  0
  -50.9103   -2.1721   14.7512 C   0  0  0  0  0  0
  -46.0502    1.0666   17.3965 C   0  0  0  0  0  0
  -50.6599    0.1316   17.8640 C   0  0  0  0  0  0
  -50.4496   -0.2229   13.3095 C   0  0  0  0  0  0
  -42.9410   -0.4048   18.7595 C   0  0  0  0  0  0
  -41.7282    0.2602   19.4398 C   0  0  0  0  0  0
  -42.2088    1.1235   20.6224 C   0  0  0  0  0  0
  -43.0283    0.2505   21.5956 C   0  0  0  0  0  0
  -46.2930    1.6499   18.7976 C   0  0  0  0  0  0
  -44.1855   -0.4087   20.8177 C   0  0  0  0  0  0
  -44.9979   -1.3100   21.7610 C   0  0  0  0  0  0
  -43.4176   -2.1229   14.7608 C   0  0  0  0  0  0
  -40.5082    2.8068   20.5476 C   0  0  0  0  0  0
  -52.5973   -7.8025   13.9011 H   0  0  0  0  0  0
  -57.1158   -7.4565   13.5967 H   0  0  0  0  0  0
  -44.2077    1.7098   22.3733 H   0  0  0  0  0  0
  1 16  1  0  0  0
  2 15  1  0  0  0
  2 22  1  0  0  0
  3 21  1  0  0  0
  3 34  1  0  0  0
  4 27  1  0  0  0
  4 37  1  0  0  0
  5 25  1  0  0  0
  5 63  1  0  0  0
  6 31  1  0  0  0
  6 64  1  0  0  0
  7 34  2  0  0  0
  8 42  1  0  0  0
  8 46  1  0  0  0
  9 46  1  0  0  0
  9 51  1  0  0  0
 10 47  1  0  0  0
 10 54  1  0  0  0
 11 48  1  0  0  0
 11 61  1  0  0  0
 12 54  1  0  0  0
 12 59  1  0  0  0
 13 56  1  0  0  0
 13 62  1  0  0  0
 14 57  1  0  0  0
 14 65  1  0  0  0
 15  1  1  0  0  0
 15 18  1  0  0  0
 15 19  1  0  0  0
 16 17  1  0  0  0
 16 24  1  0  0  0
 17 20  1  0  0  0
 17 28  1  0  0  0
 18 20  1  0  0  0
 19 21  1  0  0  0
 21 23  1  0  0  0
 22 23  1  0  0  0
 22 29  1  0  0  0
 24 30  1  0  0  0
 24 33  1  0  0  0
 25 26  1  0  0  0
 25 32  1  0  0  0
 26 34  1  0  0  0
 26 35  1  0  0  0
 27 25  1  0  0  0
 29 38  1  0  0  0
 30 39  1  0  0  0
 31 27  1  0  0  0
 31 36  1  0  0  0
 32 37  1  0  0  0
 32 40  2  0  0  0
 35 36  2  0  0  0
 36 43  1  0  0  0
 38 41  2  0  0  0
 40 45  1  0  0  0
 41 42  1  0  0  0
 41 52  1  0  0  0
 42 44  1  0  0  0
 44 50  1  0  0  0
 44 53  1  0  0  0
 45 50  2  0  0  0
 46 49  1  0  0  0
 47 48  1  0  0  0
 48 49  1  0  0  0
 51 47  1  0  0  0
 51 58  1  0  0  0
 54 55  1  0  0  0
 55 56  1  0  0  0
 56 57  1  0  0  0
 57 59  1  0  0  0
 59 60  1  0  0  0
M  END
>  <CHROM.0>
68.87400770,-66.90824842,53.63325858

>  <CHROM.1>
89.17234341,68.57793062,-43.84376711,-24.05724044,-88.66055757,-55.38730992
-166.54784278,75.32055610,67.21095730,64.63676747,52.09624524,-48.81429610
-3.39086795,18.18283631,-3.02863574,-0.65539376,-0.95522099

>  <HEADER>
                                                                          

>  <MASTER>
        0    0    0    0    0    0    0    0  136    0  136    0          

>  <Name>
Ivermectin.pdb

>  <RI>
-1.036e+09

>  <Rbt.Current_Directory>
/root/miniconda3/envs/rdock/share/rxdock-2013.1.1_148c5bd1-0/data/ligands/prepped_ligands/Ivermectin

>  <Rbt.Executable>
rbdock/0.1.0

>  <Rbt.Library>
librxdock.so/0.1.0

>  <Rbt.Parameter_File>
/root/miniconda3/envs/rdock/share/rxdock-2013.1.1_148c5bd1-0/data/scripts/dock.prm

>  <Rbt.Receptor>
def.prm

>  <SCORE>
50.5804

>  <SCORE.INTER>
37.0721

>  <SCORE.INTER.CONST>
1

>  <SCORE.INTER.POLAR>
-0.0827238

>  <SCORE.INTER.REPUL>
0.436575

>  <SCORE.INTER.ROT>
8

>  <SCORE.INTER.VDW>
21.7705

>  <SCORE.INTER.norm>
0.597938

>  <SCORE.INTRA>
-3.39161

>  <SCORE.INTRA.DIHEDRAL>
-14.0964

>  <SCORE.INTRA.DIHEDRAL.0>
29.9071

>  <SCORE.INTRA.POLAR>
0

>  <SCORE.INTRA.POLAR.0>
0

>  <SCORE.INTRA.REPUL>
0

>  <SCORE.INTRA.REPUL.0>
0

>  <SCORE.INTRA.VDW>
3.65661

>  <SCORE.INTRA.VDW.0>
1.27762

>  <SCORE.INTRA.norm>
-0.0547033

>  <SCORE.RESTR>
17.731

>  <SCORE.RESTR.CAVITY>
17.731

>  <SCORE.RESTR.norm>
0.285983

>  <SCORE.SYSTEM>
-0.831092

>  <SCORE.SYSTEM.CONST>
0

>  <SCORE.SYSTEM.DIHEDRAL>
0.521835

>  <SCORE.SYSTEM.VDW>
-1.09201

>  <SCORE.SYSTEM.norm>
-0.0134047

>  <SCORE.heavy>
62

>  <SCORE.norm>
0.815813

>  <TITLE>
    6321424_D                                                             

$$$$
Ivermectin.pdb
  RxDock  02242113043D
librxdock.so/0.1.0
 65 71  0  0  0  0  0  0  0  0999 V2000
  -49.2544   -6.8889   19.2524 O   0  0  0  0  0  0
  -49.3601   -6.1334   17.0273 O   0  0  0  0  0  0
  -47.2069   -2.8756   18.0142 O   0  0  0  0  0  0
  -44.0610    0.4622   16.8486 O   0  0  0  0  0  0
  -47.1059    0.5758   18.7886 O   0  0  0  0  0  0
  -42.6235    1.3900   18.9139 O   0  0  0  0  0  0
  -47.5257   -2.0930   20.1041 O   0  0  0  0  0  0
  -51.7270   -1.5442   13.3387 O   0  0  0  0  0  0
  -52.8388   -2.9065   15.0036 O   0  0  0  0  0  0
  -52.6282   -2.7084   18.7369 O   0  0  0  0  0  0
  -50.4153   -0.8460   17.5340 O   0  0  0  0  0  0
  -54.3554   -3.8890   19.9566 O   0  0  0  0  0  0
  -50.8276   -5.9462   20.9513 O   0  0  0  0  0  0
  -52.2971   -4.5049   22.9906 O   0  0  0  0  0  0
  -48.6571   -5.9802   18.2927 C   0  0  0  0  0  0
  -48.6140   -8.1808   19.3412 C   0  0  0  0  0  0
  -47.2256   -7.9556   20.0025 C   0  0  0  0  0  0
  -47.1587   -6.2895   18.0361 C   0  0  0  0  0  0
  -48.7981   -4.5735   18.9291 C   0  0  0  0  0  0
  -46.4297   -6.8423   19.2780 C   0  0  0  0  0  0
  -48.5432   -3.4009   17.9536 C   0  0  0  0  0  0
  -49.8813   -4.9094   16.4511 C   0  0  0  0  0  0
  -48.8267   -3.7933   16.4929 C   0  0  0  0  0  0
  -49.4952   -9.1647   20.1597 C   0  0  0  0  0  0
  -45.9957   -0.0386   18.1165 C   0  0  0  0  0  0
  -45.5964   -1.3718   18.7866 C   0  0  0  0  0  0
  -44.8198    0.9362   17.9740 C   0  0  0  0  0  0
  -46.3620   -9.2270   20.1007 C   0  0  0  0  0  0
  -50.2965   -5.1447   14.9858 C   0  0  0  0  0  0
  -50.9873   -8.7507   20.1319 C   0  0  0  0  0  0
  -43.9916    1.1332   19.2655 C   0  0  0  0  0  0
  -46.2641   -0.2782   16.6537 C   0  0  0  0  0  0
  -49.0192   -9.2208   21.6258 C   0  0  0  0  0  0
  -46.8650   -2.1363   19.0822 C   0  0  0  0  0  0
  -44.7655   -1.1151   20.0156 C   0  0  0  0  0  0
  -44.0694   -0.0182   20.2502 C   0  0  0  0  0  0
  -44.9350   -0.2329   15.9344 C   0  0  0  0  0  0
  -50.5633   -3.8273   14.2844 C   0  0  0  0  0  0
  -51.7518   -9.2967   21.3529 C   0  0  0  0  0  0
  -47.5061   -0.3478   16.1864 C   0  0  0  0  0  0
  -50.0092   -3.2849   13.2097 C   0  0  0  0  0  0
  -50.4839   -1.9282   12.7137 C   0  0  0  0  0  0
  -43.3038    0.1488   21.5418 C   0  0  0  0  0  0
  -49.4364   -0.8039   12.8798 C   0  0  0  0  0  0
  -47.7708   -0.5519   14.7625 C   0  0  0  0  0  0
  -51.8008   -1.9348   14.7270 C   0  0  0  0  0  0
  -52.1786   -2.5213   17.3784 C   0  0  0  0  0  0
  -51.7756   -1.0493   17.1038 C   0  0  0  0  0  0
  -51.9449   -0.6798   15.6084 C   0  0  0  0  0  0
  -49.0202   -0.5890   14.3152 C   0  0  0  0  0  0
  -53.2828   -2.9319   16.3799 C   0  0  0  0  0  0
  -48.9469   -3.9301   12.3428 C   0  0  0  0  0  0
  -50.0195    0.5154   12.3474 C   0  0  0  0  0  0
  -53.3371   -3.9508   18.9330 C   0  0  0  0  0  0
  -52.3431   -5.0870   19.2446 C   0  0  0  0  0  0
  -51.7232   -4.8630   20.6376 C   0  0  0  0  0  0
  -52.8479   -4.7557   21.6886 C   0  0  0  0  0  0
  -53.8179   -4.3334   16.7143 C   0  0  0  0  0  0
  -53.8150   -3.6301   21.2683 C   0  0  0  0  0  0
  -54.9629   -3.5259   22.2849 C   0  0  0  0  0  0
  -50.3210   -0.1781   18.8067 C   0  0  0  0  0  0
  -49.7343   -5.5312   21.7901 C   0  0  0  0  0  0
  -47.2937    1.4942   18.4233 H   0  0  0  0  0  0
  -42.2222    0.6178   18.4111 H   0  0  0  0  0  0
  -51.9183   -3.5751   23.0552 H   0  0  0  0  0  0
  1 16  1  0  0  0
  2 15  1  0  0  0
  2 22  1  0  0  0
  3 21  1  0  0  0
  3 34  1  0  0  0
  4 27  1  0  0  0
  4 37  1  0  0  0
  5 25  1  0  0  0
  5 63  1  0  0  0
  6 31  1  0  0  0
  6 64  1  0  0  0
  7 34  2  0  0  0
  8 42  1  0  0  0
  8 46  1  0  0  0
  9 46  1  0  0  0
  9 51  1  0  0  0
 10 47  1  0  0  0
 10 54  1  0  0  0
 11 48  1  0  0  0
 11 61  1  0  0  0
 12 54  1  0  0  0
 12 59  1  0  0  0
 13 56  1  0  0  0
 13 62  1  0  0  0
 14 57  1  0  0  0
 14 65  1  0  0  0
 15  1  1  0  0  0
 15 18  1  0  0  0
 15 19  1  0  0  0
 16 17  1  0  0  0
 16 24  1  0  0  0
 17 20  1  0  0  0
 17 28  1  0  0  0
 18 20  1  0  0  0
 19 21  1  0  0  0
 21 23  1  0  0  0
 22 23  1  0  0  0
 22 29  1  0  0  0
 24 30  1  0  0  0
 24 33  1  0  0  0
 25 26  1  0  0  0
 25 32  1  0  0  0
 26 34  1  0  0  0
 26 35  1  0  0  0
 27 25  1  0  0  0
 29 38  1  0  0  0
 30 39  1  0  0  0
 31 27  1  0  0  0
 31 36  1  0  0  0
 32 37  1  0  0  0
 32 40  2  0  0  0
 35 36  2  0  0  0
 36 43  1  0  0  0
 38 41  2  0  0  0
 40 45  1  0  0  0
 41 42  1  0  0  0
 41 52  1  0  0  0
 42 44  1  0  0  0
 44 50  1  0  0  0
 44 53  1  0  0  0
 45 50  2  0  0  0
 46 49  1  0  0  0
 47 48  1  0  0  0
 48 49  1  0  0  0
 51 47  1  0  0  0
 51 58  1  0  0  0
 54 55  1  0  0  0
 55 56  1  0  0  0
 56 57  1  0  0  0
 57 59  1  0  0  0
 59 60  1  0  0  0
M  END
>  <CHROM.0>
-153.25391841,121.42800843,-177.28736943

>  <CHROM.1>
173.07775354,-61.33128273,37.48906937,-115.65559405,164.45962144,-149.12801968
-101.47805991,148.96079347,70.31299462,24.29080567,-155.68212405,-49.26462867
-3.29259233,18.01240711,-2.26052449,-0.41778737,-0.80711293

>  <HEADER>
                                                                          

>  <MASTER>
        0    0    0    0    0    0    0    0  136    0  136    0          

>  <Name>
Ivermectin.pdb

>  <RI>
-1.036e+09

>  <Rbt.Current_Directory>
/root/miniconda3/envs/rdock/share/rxdock-2013.1.1_148c5bd1-0/data/ligands/prepped_ligands/Ivermectin

>  <Rbt.Executable>
rbdock/0.1.0

>  <Rbt.Library>
librxdock.so/0.1.0

>  <Rbt.Parameter_File>
/root/miniconda3/envs/rdock/share/rxdock-2013.1.1_148c5bd1-0/data/scripts/dock.prm

>  <Rbt.Receptor>
def.prm

>  <SCORE>
144.498

>  <SCORE.INTER>
99.0372

>  <SCORE.INTER.CONST>
1

>  <SCORE.INTER.POLAR>
-0.338434

>  <SCORE.INTER.REPUL>
0.0299138

>  <SCORE.INTER.ROT>
8

>  <SCORE.INTER.VDW>
86.6383

>  <SCORE.INTER.norm>
1.59737

>  <SCORE.INTRA>
34.7938

>  <SCORE.INTRA.DIHEDRAL>
0.98517

>  <SCORE.INTRA.DIHEDRAL.0>
29.9071

>  <SCORE.INTRA.POLAR>
0

>  <SCORE.INTRA.POLAR.0>
0

>  <SCORE.INTRA.REPUL>
0

>  <SCORE.INTRA.REPUL.0>
0

>  <SCORE.INTRA.VDW>
34.3012

>  <SCORE.INTRA.VDW.0>
1.27762

>  <SCORE.INTRA.norm>
0.56119

>  <SCORE.RESTR>
7.17226

>  <SCORE.RESTR.CAVITY>
7.17226

>  <SCORE.RESTR.norm>
0.115682

>  <SCORE.SYSTEM>
3.49505

>  <SCORE.SYSTEM.CONST>
0

>  <SCORE.SYSTEM.DIHEDRAL>
8.68688

>  <SCORE.SYSTEM.POLAR>
-0.0081042

>  <SCORE.SYSTEM.VDW>
-0.820841

>  <SCORE.SYSTEM.norm>
0.0563717

>  <SCORE.heavy>
62

>  <SCORE.norm>
2.33062

>  <TITLE>
    6321424_D                                                             

$$$$
