Ivermectin.pdb
  RxDock  02242101243D
librxdock.so/0.1.0
 65 71  0  0  0  0  0  0  0  0999 V2000
  -49.2526   -2.0497   14.4390 O   0  0  0  0  0  0
  -48.7082   -3.7583   15.9613 O   0  0  0  0  0  0
  -52.2471   -5.5443   15.2471 O   0  0  0  0  0  0
  -54.8537   -9.4793   14.9047 O   0  0  0  0  0  0
  -55.5708   -6.2099   16.2628 O   0  0  0  0  0  0
  -56.9040   -9.2960   13.1856 O   0  0  0  0  0  0
  -53.9599   -4.1582   14.7712 O   0  0  0  0  0  0
  -50.3292   -6.2649   21.5611 O   0  0  0  0  0  0
  -49.4012   -4.0323   21.4254 O   0  0  0  0  0  0
  -50.5250   -1.1337   19.3383 O   0  0  0  0  0  0
  -52.0744   -3.6832   18.3834 O   0  0  0  0  0  0
  -48.4060   -0.5199   18.3394 O   0  0  0  0  0  0
  -50.8468    2.8373   17.6779 O   0  0  0  0  0  0
  -48.5256    3.0412   19.4000 O   0  0  0  0  0  0
  -49.5918   -3.3945   14.8632 C   0  0  0  0  0  0
  -48.2951   -1.9799   13.3595 C   0  0  0  0  0  0
  -49.0116   -2.4991   12.0818 C   0  0  0  0  0  0
  -49.3916   -4.4405   13.7352 C   0  0  0  0  0  0
  -51.0910   -3.3273   15.2526 C   0  0  0  0  0  0
  -49.6722   -3.8781   12.3265 C   0  0  0  0  0  0
  -51.5996   -4.5476   16.0549 C   0  0  0  0  0  0
  -49.3685   -4.2180   17.1673 C   0  0  0  0  0  0
  -50.4667   -5.2390   16.8338 C   0  0  0  0  0  0
  -47.7817   -0.5235   13.1870 C   0  0  0  0  0  0
  -54.8456   -7.1897   15.5040 C   0  0  0  0  0  0
  -54.1267   -6.5506   14.2954 C   0  0  0  0  0  0
  -55.7440   -8.3696   15.1115 C   0  0  0  0  0  0
  -48.1054   -2.5743   10.8388 C   0  0  0  0  0  0
  -48.3484   -4.8787   18.1147 C   0  0  0  0  0  0
  -46.7609   -0.1454   14.2886 C   0  0  0  0  0  0
  -56.6945   -8.0834   13.9252 C   0  0  0  0  0  0
  -53.8422   -7.9426   16.3382 C   0  0  0  0  0  0
  -48.9596    0.4712   13.2342 C   0  0  0  0  0  0
  -53.4735   -5.2745   14.7707 C   0  0  0  0  0  0
  -55.0950   -6.3287   13.1641 C   0  0  0  0  0  0
  -56.2316   -6.9785   12.9944 C   0  0  0  0  0  0
  -53.6758   -9.3132   15.7219 C   0  0  0  0  0  0
  -49.0547   -5.6201   19.2328 C   0  0  0  0  0  0
  -47.2482   -0.5726   15.6863 C   0  0  0  0  0  0
  -53.3773   -7.4359   17.4753 C   0  0  0  0  0  0
  -49.0197   -6.8958   19.5902 C   0  0  0  0  0  0
  -49.8399   -7.3741   20.7779 C   0  0  0  0  0  0
  -57.1487   -6.6418   11.8421 C   0  0  0  0  0  0
  -51.0092   -8.3076   20.3907 C   0  0  0  0  0  0
  -52.4246   -8.1759   18.3023 C   0  0  0  0  0  0
  -50.2944   -5.0125   20.8429 C   0  0  0  0  0  0
  -50.3777   -2.5245   19.6943 C   0  0  0  0  0  0
  -51.7431   -3.2590   19.7202 C   0  0  0  0  0  0
  -51.7260   -4.4632   20.6954 C   0  0  0  0  0  0
  -51.9966   -7.6614   19.4488 C   0  0  0  0  0  0
  -49.7096   -2.6621   21.0798 C   0  0  0  0  0  0
  -48.1602   -7.9684   18.9521 C   0  0  0  0  0  0
  -51.7646   -8.7284   21.6620 C   0  0  0  0  0  0
  -49.8128   -0.7788   18.1335 C   0  0  0  0  0  0
  -50.4803    0.4361   17.4593 C   0  0  0  0  0  0
  -50.2634    1.6914   18.3264 C   0  0  0  0  0  0
  -48.7523    1.8998   18.5590 C   0  0  0  0  0  0
  -48.4247   -1.8212   21.1446 C   0  0  0  0  0  0
  -48.1654    0.6202   19.1890 C   0  0  0  0  0  0
  -46.6529    0.7926   19.4005 C   0  0  0  0  0  0
  -53.4768   -3.9646   18.2132 C   0  0  0  0  0  0
  -52.2424    2.9961   17.9915 C   0  0  0  0  0  0
  -56.0340   -6.6264   17.0529 H   0  0  0  0  0  0
  -56.8134  -10.1056   13.7742 H   0  0  0  0  0  0
  -48.6692    2.8157   20.3700 H   0  0  0  0  0  0
  1 16  1  0  0  0
  2 15  1  0  0  0
  2 22  1  0  0  0
  3 21  1  0  0  0
  3 34  1  0  0  0
  4 27  1  0  0  0
  4 37  1  0  0  0
  5 25  1  0  0  0
  5 63  1  0  0  0
  6 31  1  0  0  0
  6 64  1  0  0  0
  7 34  2  0  0  0
  8 42  1  0  0  0
  8 46  1  0  0  0
  9 46  1  0  0  0
  9 51  1  0  0  0
 10 47  1  0  0  0
 10 54  1  0  0  0
 11 48  1  0  0  0
 11 61  1  0  0  0
 12 54  1  0  0  0
 12 59  1  0  0  0
 13 56  1  0  0  0
 13 62  1  0  0  0
 14 57  1  0  0  0
 14 65  1  0  0  0
 15  1  1  0  0  0
 15 18  1  0  0  0
 15 19  1  0  0  0
 16 17  1  0  0  0
 16 24  1  0  0  0
 17 20  1  0  0  0
 17 28  1  0  0  0
 18 20  1  0  0  0
 19 21  1  0  0  0
 21 23  1  0  0  0
 22 23  1  0  0  0
 22 29  1  0  0  0
 24 30  1  0  0  0
 24 33  1  0  0  0
 25 26  1  0  0  0
 25 32  1  0  0  0
 26 34  1  0  0  0
 26 35  1  0  0  0
 27 25  1  0  0  0
 29 38  1  0  0  0
 30 39  1  0  0  0
 31 27  1  0  0  0
 31 36  1  0  0  0
 32 37  1  0  0  0
 32 40  2  0  0  0
 35 36  2  0  0  0
 36 43  1  0  0  0
 38 41  2  0  0  0
 40 45  1  0  0  0
 41 42  1  0  0  0
 41 52  1  0  0  0
 42 44  1  0  0  0
 44 50  1  0  0  0
 44 53  1  0  0  0
 45 50  2  0  0  0
 46 49  1  0  0  0
 47 48  1  0  0  0
 48 49  1  0  0  0
 51 47  1  0  0  0
 51 58  1  0  0  0
 54 55  1  0  0  0
 55 56  1  0  0  0
 56 57  1  0  0  0
 57 59  1  0  0  0
 59 60  1  0  0  0
M  END
>  <CHROM.0>
170.10954004,42.61425720,28.34729287

>  <CHROM.1>
-179.65237148,28.35371424,17.97654528,-116.24792317,-119.39335929,-81.73122942
-160.52538924,86.49091212,79.95576638,76.03137523,-45.96124832,-51.07005998
-3.95160697,16.91580793,0.15655681,-0.95255332,-1.07828126

>  <HEADER>
                                                                          

>  <MASTER>
        0    0    0    0    0    0    0    0  136    0  136    0          

>  <Name>
Ivermectin.pdb

>  <RI>
-6.88282e+08

>  <Rbt.Current_Directory>
/root/miniconda3/envs/rdock/share/rxdock-2013.1.1_148c5bd1-0/data/ligands/prepped_ligands/Ivermectin

>  <Rbt.Executable>
rbdock/0.1.0

>  <Rbt.Library>
librxdock.so/0.1.0

>  <Rbt.Parameter_File>
/root/miniconda3/envs/rdock/share/rxdock-2013.1.1_148c5bd1-0/data/scripts/dock.prm

>  <Rbt.Receptor>
def.prm

>  <SCORE>
225.927

>  <SCORE.INTER>
201.898

>  <SCORE.INTER.CONST>
1

>  <SCORE.INTER.POLAR>
-1.86006

>  <SCORE.INTER.REPUL>
0.845135

>  <SCORE.INTER.ROT>
8

>  <SCORE.INTER.VDW>
190.597

>  <SCORE.INTER.norm>
3.25642

>  <SCORE.INTRA>
16.9611

>  <SCORE.INTRA.DIHEDRAL>
4.35549

>  <SCORE.INTRA.DIHEDRAL.0>
29.9071

>  <SCORE.INTRA.POLAR>
0

>  <SCORE.INTRA.POLAR.0>
0

>  <SCORE.INTRA.REPUL>
0

>  <SCORE.INTRA.REPUL.0>
0

>  <SCORE.INTRA.VDW>
14.7833

>  <SCORE.INTRA.VDW.0>
1.27762

>  <SCORE.INTRA.norm>
0.273566

>  <SCORE.RESTR>
5.36068

>  <SCORE.RESTR.CAVITY>
5.36068

>  <SCORE.RESTR.norm>
0.0864626

>  <SCORE.SYSTEM>
1.70733

>  <SCORE.SYSTEM.CONST>
0

>  <SCORE.SYSTEM.DIHEDRAL>
3.60557

>  <SCORE.SYSTEM.VDW>
-0.0954561

>  <SCORE.SYSTEM.norm>
0.0275376

>  <SCORE.heavy>
62

>  <SCORE.norm>
3.64399

>  <TITLE>
    6321424_D                                                             

$$$$
Ivermectin.pdb
  RxDock  02242101253D
librxdock.so/0.1.0
 65 71  0  0  0  0  0  0  0  0999 V2000
  -49.0145   -6.8822   19.0194 O   0  0  0  0  0  0
  -49.1155   -5.9851   16.8472 O   0  0  0  0  0  0
  -47.4174   -2.5763   18.1588 O   0  0  0  0  0  0
  -44.6523    1.1848   17.3817 O   0  0  0  0  0  0
  -47.7689    0.7977   19.1662 O   0  0  0  0  0  0
  -43.4278    2.1236   19.5754 O   0  0  0  0  0  0
  -47.9181   -1.9903   20.2771 O   0  0  0  0  0  0
  -51.8607   -1.4518   13.3570 O   0  0  0  0  0  0
  -53.0469   -3.2889   14.3972 O   0  0  0  0  0  0
  -53.2700   -4.2014   18.0220 O   0  0  0  0  0  0
  -51.0816   -1.9825   17.7066 O   0  0  0  0  0  0
  -52.9839   -5.8150   19.8050 O   0  0  0  0  0  0
  -50.2406   -2.7723   20.7439 O   0  0  0  0  0  0
  -52.4892   -3.2965   22.4944 O   0  0  0  0  0  0
  -48.4911   -5.8422   18.1544 C   0  0  0  0  0  0
  -48.2266   -8.0925   19.0544 C   0  0  0  0  0  0
  -46.9055   -7.7537   19.7996 C   0  0  0  0  0  0
  -46.9567   -5.9532   17.9549 C   0  0  0  0  0  0
  -48.8288   -4.5118   18.8753 C   0  0  0  0  0  0
  -46.2201   -6.5047   19.1929 C   0  0  0  0  0  0
  -48.6763   -3.2497   17.9948 C   0  0  0  0  0  0
  -49.7560   -4.7926   16.3281 C   0  0  0  0  0  0
  -48.8472   -3.5659   16.4984 C   0  0  0  0  0  0
  -49.0163   -9.2302   19.7591 C   0  0  0  0  0  0
  -46.5646    0.3688   18.5124 C   0  0  0  0  0  0
  -46.0358   -0.9531   19.1115 C   0  0  0  0  0  0
  -45.5105    1.4833   18.4958 C   0  0  0  0  0  0
  -45.8991   -8.9181   19.8568 C   0  0  0  0  0  0
  -50.0764   -4.9684   14.8311 C   0  0  0  0  0  0
  -50.3816   -9.4848   19.0735 C   0  0  0  0  0  0
  -44.7685    1.6824   19.8384 C   0  0  0  0  0  0
  -46.7389    0.2059   17.0250 C   0  0  0  0  0  0
  -49.2590   -8.8785   21.2411 C   0  0  0  0  0  0
  -47.2138   -1.8812   19.2899 C   0  0  0  0  0  0
  -45.2956   -0.6899   20.3959 C   0  0  0  0  0  0
  -44.7483    0.4615   20.7386 C   0  0  0  0  0  0
  -45.3955    0.4596   16.3794 C   0  0  0  0  0  0
  -50.4705   -3.6443   14.2064 C   0  0  0  0  0  0
  -51.3133   -8.2635   19.1909 C   0  0  0  0  0  0
  -47.9421    0.0244   16.4910 C   0  0  0  0  0  0
  -49.9406   -2.9639   13.2002 C   0  0  0  0  0  0
  -50.5546   -1.6402   12.7723 C   0  0  0  0  0  0
  -44.0648    0.6236   22.0761 C   0  0  0  0  0  0
  -49.6592   -0.4153   13.0667 C   0  0  0  0  0  0
  -48.1188   -0.1058   15.0449 C   0  0  0  0  0  0
  -52.0599   -2.2400   14.5506 C   0  0  0  0  0  0
  -52.6866   -3.6020   16.8460 C   0  0  0  0  0  0
  -52.3663   -2.1006   17.0647 C   0  0  0  0  0  0
  -52.3946   -1.3101   15.7321 C   0  0  0  0  0  0
  -49.3341   -0.2574   14.5327 C   0  0  0  0  0  0
  -53.6387   -3.7391   15.6378 C   0  0  0  0  0  0
  -48.7717   -3.4148   12.3478 C   0  0  0  0  0  0
  -50.3746    0.8611   12.5944 C   0  0  0  0  0  0
  -52.3818   -5.1253   18.6869 C   0  0  0  0  0  0
  -51.1015   -4.3977   19.1425 C   0  0  0  0  0  0
  -51.4416   -3.4211   20.2850 C   0  0  0  0  0  0
  -52.1244   -4.1927   21.4337 C   0  0  0  0  0  0
  -54.1020   -5.1961   15.4793 C   0  0  0  0  0  0
  -53.3617   -4.9242   20.8742 C   0  0  0  0  0  0
  -54.0409   -5.7268   21.9952 C   0  0  0  0  0  0
  -50.8134   -0.6520   18.1892 C   0  0  0  0  0  0
  -50.5060   -1.5087   21.3797 C   0  0  0  0  0  0
  -48.1396    1.6317   18.7428 H   0  0  0  0  0  0
  -43.4044    2.8107   18.8422 H   0  0  0  0  0  0
  -53.1621   -2.6160   22.1838 H   0  0  0  0  0  0
  1 16  1  0  0  0
  2 15  1  0  0  0
  2 22  1  0  0  0
  3 21  1  0  0  0
  3 34  1  0  0  0
  4 27  1  0  0  0
  4 37  1  0  0  0
  5 25  1  0  0  0
  5 63  1  0  0  0
  6 31  1  0  0  0
  6 64  1  0  0  0
  7 34  2  0  0  0
  8 42  1  0  0  0
  8 46  1  0  0  0
  9 46  1  0  0  0
  9 51  1  0  0  0
 10 47  1  0  0  0
 10 54  1  0  0  0
 11 48  1  0  0  0
 11 61  1  0  0  0
 12 54  1  0  0  0
 12 59  1  0  0  0
 13 56  1  0  0  0
 13 62  1  0  0  0
 14 57  1  0  0  0
 14 65  1  0  0  0
 15  1  1  0  0  0
 15 18  1  0  0  0
 15 19  1  0  0  0
 16 17  1  0  0  0
 16 24  1  0  0  0
 17 20  1  0  0  0
 17 28  1  0  0  0
 18 20  1  0  0  0
 19 21  1  0  0  0
 21 23  1  0  0  0
 22 23  1  0  0  0
 22 29  1  0  0  0
 24 30  1  0  0  0
 24 33  1  0  0  0
 25 26  1  0  0  0
 25 32  1  0  0  0
 26 34  1  0  0  0
 26 35  1  0  0  0
 27 25  1  0  0  0
 29 38  1  0  0  0
 30 39  1  0  0  0
 31 27  1  0  0  0
 31 36  1  0  0  0
 32 37  1  0  0  0
 32 40  2  0  0  0
 35 36  2  0  0  0
 36 43  1  0  0  0
 38 41  2  0  0  0
 40 45  1  0  0  0
 41 42  1  0  0  0
 41 52  1  0  0  0
 42 44  1  0  0  0
 44 50  1  0  0  0
 44 53  1  0  0  0
 45 50  2  0  0  0
 46 49  1  0  0  0
 47 48  1  0  0  0
 48 49  1  0  0  0
 51 47  1  0  0  0
 51 58  1  0  0  0
 54 55  1  0  0  0
 55 56  1  0  0  0
 56 57  1  0  0  0
 57 59  1  0  0  0
 59 60  1  0  0  0
M  END
>  <CHROM.0>
94.68530878,72.12482537,49.93416734

>  <CHROM.1>
-176.92870860,41.93843310,22.30145267,-112.52193194,-109.27814774,-175.37058422
-168.45229971,156.15629612,62.74106732,56.49367547,-64.34933940,-49.35013384
-3.13810255,17.91336894,-2.41397122,-0.66360686,-0.74690481

>  <HEADER>
                                                                          

>  <MASTER>
        0    0    0    0    0    0    0    0  136    0  136    0          

>  <Name>
Ivermectin.pdb

>  <RI>
-6.88282e+08

>  <Rbt.Current_Directory>
/root/miniconda3/envs/rdock/share/rxdock-2013.1.1_148c5bd1-0/data/ligands/prepped_ligands/Ivermectin

>  <Rbt.Executable>
rbdock/0.1.0

>  <Rbt.Library>
librxdock.so/0.1.0

>  <Rbt.Parameter_File>
/root/miniconda3/envs/rdock/share/rxdock-2013.1.1_148c5bd1-0/data/scripts/dock.prm

>  <Rbt.Receptor>
def.prm

>  <SCORE>
118.436

>  <SCORE.INTER>
84.2871

>  <SCORE.INTER.CONST>
1

>  <SCORE.INTER.POLAR>
-0.0348637

>  <SCORE.INTER.REPUL>
0.24799

>  <SCORE.INTER.ROT>
8

>  <SCORE.INTER.VDW>
69.7657

>  <SCORE.INTER.norm>
1.35947

>  <SCORE.INTRA>
27.9233

>  <SCORE.INTRA.DIHEDRAL>
-6.31822

>  <SCORE.INTRA.DIHEDRAL.0>
29.9071

>  <SCORE.INTRA.POLAR>
0

>  <SCORE.INTRA.POLAR.0>
0

>  <SCORE.INTRA.REPUL>
0.334217

>  <SCORE.INTRA.REPUL.0>
0

>  <SCORE.INTRA.VDW>
29.4113

>  <SCORE.INTRA.VDW.0>
1.27762

>  <SCORE.INTRA.norm>
0.450376

>  <SCORE.RESTR>
5.353

>  <SCORE.RESTR.CAVITY>
5.353

>  <SCORE.RESTR.norm>
0.0863387

>  <SCORE.SYSTEM>
0.872452

>  <SCORE.SYSTEM.CONST>
0

>  <SCORE.SYSTEM.DIHEDRAL>
3.17708

>  <SCORE.SYSTEM.VDW>
-0.716086

>  <SCORE.SYSTEM.norm>
0.0140718

>  <SCORE.heavy>
62

>  <SCORE.norm>
1.91026

>  <TITLE>
    6321424_D                                                             

$$$$
Ivermectin.pdb
  RxDock  02242101253D
librxdock.so/0.1.0
 65 71  0  0  0  0  0  0  0  0999 V2000
  -49.7333   -5.9025   22.1115 O   0  0  0  0  0  0
  -50.0350   -3.8330   21.0348 O   0  0  0  0  0  0
  -52.0249   -5.6593   18.0467 O   0  0  0  0  0  0
  -55.3748   -5.5749   14.7051 O   0  0  0  0  0  0
  -52.0359   -6.9523   14.7528 O   0  0  0  0  0  0
  -56.4360   -7.9743   14.1487 O   0  0  0  0  0  0
  -51.3515   -7.7561   17.5661 O   0  0  0  0  0  0
  -48.4258   -0.5269   15.8628 O   0  0  0  0  0  0
  -47.8540    1.0719   17.5893 O   0  0  0  0  0  0
  -44.4941    1.8944   19.0231 O   0  0  0  0  0  0
  -44.1934   -0.6587   17.2332 O   0  0  0  0  0  0
  -43.2941    2.3262   21.0818 O   0  0  0  0  0  0
  -42.1651   -1.5899   20.0546 O   0  0  0  0  0  0
  -40.1957    0.5352   20.0752 O   0  0  0  0  0  0
  -50.5044   -5.2094   21.0971 C   0  0  0  0  0  0
  -50.3295   -5.9046   23.4274 C   0  0  0  0  0  0
  -51.5814   -6.8228   23.3580 C   0  0  0  0  0  0
  -52.0199   -5.1727   21.4262 C   0  0  0  0  0  0
  -50.2727   -6.0170   19.7941 C   0  0  0  0  0  0
  -52.5090   -6.4241   22.1839 C   0  0  0  0  0  0
  -50.7133   -5.2892   18.5027 C   0  0  0  0  0  0
  -49.6418   -3.3669   19.7195 C   0  0  0  0  0  0
  -50.6880   -3.7592   18.6653 C   0  0  0  0  0  0
  -49.3031   -6.3996   24.4838 C   0  0  0  0  0  0
  -53.2389   -6.3978   15.3069 C   0  0  0  0  0  0
  -53.4939   -6.9175   16.7390 C   0  0  0  0  0  0
  -54.4352   -6.6103   14.3704 C   0  0  0  0  0  0
  -52.3958   -6.8759   24.6641 C   0  0  0  0  0  0
  -49.4899   -1.8334   19.7207 C   0  0  0  0  0  0
  -48.2243   -5.3274   24.7757 C   0  0  0  0  0  0
  -55.0237   -8.0405   14.3984 C   0  0  0  0  0  0
  -53.2311   -4.8914   15.3187 C   0  0  0  0  0  0
  -48.6086   -7.6878   23.9966 C   0  0  0  0  0  0
  -52.1823   -6.8697   17.4863 C   0  0  0  0  0  0
  -54.0971   -8.2964   16.6988 C   0  0  0  0  0  0
  -54.7560   -8.8112   15.6773 C   0  0  0  0  0  0
  -54.6672   -4.4286   15.2228 C   0  0  0  0  0  0
  -49.3706   -1.3037   18.3052 C   0  0  0  0  0  0
  -48.8555   -3.9766   25.1636 C   0  0  0  0  0  0
  -52.0908   -4.2108   15.2686 C   0  0  0  0  0  0
  -50.1143   -0.4359   17.6343 C   0  0  0  0  0  0
  -49.7544   -0.0761   16.2014 C   0  0  0  0  0  0
  -55.2826  -10.2261   15.7324 C   0  0  0  0  0  0
  -50.7717   -0.5894   15.1570 C   0  0  0  0  0  0
  -52.0801   -2.7483   15.2512 C   0  0  0  0  0  0
  -47.4203   -0.0510   16.7837 C   0  0  0  0  0  0
  -45.4812    1.0767   18.3600 C   0  0  0  0  0  0
  -44.9627    0.5377   17.0017 C   0  0  0  0  0  0
  -46.1248    0.2665   16.0131 C   0  0  0  0  0  0
  -50.9296   -2.0909   15.1717 C   0  0  0  0  0  0
  -46.7772    1.8807   18.1169 C   0  0  0  0  0  0
  -51.3043    0.3212   18.1883 C   0  0  0  0  0  0
  -50.3112   -0.1696   13.7515 C   0  0  0  0  0  0
  -44.2896    1.5272   20.4044 C   0  0  0  0  0  0
  -43.9283    0.0324   20.5095 C   0  0  0  0  0  0
  -42.5250   -0.2023   19.9176 C   0  0  0  0  0  0
  -41.5057    0.7051   20.6378 C   0  0  0  0  0  0
  -47.2420    2.5594   19.4152 C   0  0  0  0  0  0
  -41.9748    2.1698   20.5209 C   0  0  0  0  0  0
  -40.9905    3.0904   21.2596 C   0  0  0  0  0  0
  -43.7108   -1.2619   16.0174 C   0  0  0  0  0  0
  -42.8855   -2.4382   19.1421 C   0  0  0  0  0  0
  -51.2327   -6.7195   15.3121 H   0  0  0  0  0  0
  -56.6296   -7.6474   13.2181 H   0  0  0  0  0  0
  -40.1569    0.8735   19.1285 H   0  0  0  0  0  0
  1 16  1  0  0  0
  2 15  1  0  0  0
  2 22  1  0  0  0
  3 21  1  0  0  0
  3 34  1  0  0  0
  4 27  1  0  0  0
  4 37  1  0  0  0
  5 25  1  0  0  0
  5 63  1  0  0  0
  6 31  1  0  0  0
  6 64  1  0  0  0
  7 34  2  0  0  0
  8 42  1  0  0  0
  8 46  1  0  0  0
  9 46  1  0  0  0
  9 51  1  0  0  0
 10 47  1  0  0  0
 10 54  1  0  0  0
 11 48  1  0  0  0
 11 61  1  0  0  0
 12 54  1  0  0  0
 12 59  1  0  0  0
 13 56  1  0  0  0
 13 62  1  0  0  0
 14 57  1  0  0  0
 14 65  1  0  0  0
 15  1  1  0  0  0
 15 18  1  0  0  0
 15 19  1  0  0  0
 16 17  1  0  0  0
 16 24  1  0  0  0
 17 20  1  0  0  0
 17 28  1  0  0  0
 18 20  1  0  0  0
 19 21  1  0  0  0
 21 23  1  0  0  0
 22 23  1  0  0  0
 22 29  1  0  0  0
 24 30  1  0  0  0
 24 33  1  0  0  0
 25 26  1  0  0  0
 25 32  1  0  0  0
 26 34  1  0  0  0
 26 35  1  0  0  0
 27 25  1  0  0  0
 29 38  1  0  0  0
 30 39  1  0  0  0
 31 27  1  0  0  0
 31 36  1  0  0  0
 32 37  1  0  0  0
 32 40  2  0  0  0
 35 36  2  0  0  0
 36 43  1  0  0  0
 38 41  2  0  0  0
 40 45  1  0  0  0
 41 42  1  0  0  0
 41 52  1  0  0  0
 42 44  1  0  0  0
 44 50  1  0  0  0
 44 53  1  0  0  0
 45 50  2  0  0  0
 46 49  1  0  0  0
 47 48  1  0  0  0
 48 49  1  0  0  0
 51 47  1  0  0  0
 51 58  1  0  0  0
 54 55  1  0  0  0
 55 56  1  0  0  0
 56 57  1  0  0  0
 57 59  1  0  0  0
 59 60  1  0  0  0
M  END
>  <CHROM.0>
176.80541122,-89.96284376,102.24481792

>  <CHROM.1>
-59.52108757,65.52146733,-54.35799486,-17.62347186,-130.67906489,179.38965284
177.78440777,73.17157916,66.81375209,73.72503464,53.47363817,-49.11225411
-3.09498960,18.57154910,-3.02824144,-0.67594198,-1.05778663

>  <HEADER>
                                                                          

>  <MASTER>
        0    0    0    0    0    0    0    0  136    0  136    0          

>  <Name>
Ivermectin.pdb

>  <RI>
-6.88282e+08

>  <Rbt.Current_Directory>
/root/miniconda3/envs/rdock/share/rxdock-2013.1.1_148c5bd1-0/data/ligands/prepped_ligands/Ivermectin

>  <Rbt.Executable>
rbdock/0.1.0

>  <Rbt.Library>
librxdock.so/0.1.0

>  <Rbt.Parameter_File>
/root/miniconda3/envs/rdock/share/rxdock-2013.1.1_148c5bd1-0/data/scripts/dock.prm

>  <Rbt.Receptor>
def.prm

>  <SCORE>
59.2835

>  <SCORE.INTER>
39.1564

>  <SCORE.INTER.CONST>
1

>  <SCORE.INTER.POLAR>
0

>  <SCORE.INTER.REPUL>
0.378195

>  <SCORE.INTER.ROT>
8

>  <SCORE.INTER.VDW>
23.8654

>  <SCORE.INTER.norm>
0.631555

>  <SCORE.INTRA>
-3.28103

>  <SCORE.INTRA.DIHEDRAL>
-14.749

>  <SCORE.INTRA.DIHEDRAL.0>
29.9071

>  <SCORE.INTRA.POLAR>
0

>  <SCORE.INTRA.POLAR.0>
0

>  <SCORE.INTRA.REPUL>
0

>  <SCORE.INTRA.REPUL.0>
0

>  <SCORE.INTRA.VDW>
4.09347

>  <SCORE.INTRA.VDW.0>
1.27762

>  <SCORE.INTRA.norm>
-0.0529198

>  <SCORE.RESTR>
20.7142

>  <SCORE.RESTR.CAVITY>
20.7142

>  <SCORE.RESTR.norm>
0.334099

>  <SCORE.SYSTEM>
2.69399

>  <SCORE.SYSTEM.CONST>
0

>  <SCORE.SYSTEM.DIHEDRAL>
6.4846

>  <SCORE.SYSTEM.POLAR>
-0.00160955

>  <SCORE.SYSTEM.VDW>
-0.542833

>  <SCORE.SYSTEM.norm>
0.0434515

>  <SCORE.heavy>
62

>  <SCORE.norm>
0.956186

>  <TITLE>
    6321424_D                                                             

$$$$
Ivermectin.pdb
  RxDock  02242101253D
librxdock.so/0.1.0
 65 71  0  0  0  0  0  0  0  0999 V2000
  -49.4384   -1.7895   15.2158 O   0  0  0  0  0  0
  -48.8406   -3.5670   16.6358 O   0  0  0  0  0  0
  -52.3103   -5.4301   15.7908 O   0  0  0  0  0  0
  -54.7735   -9.4266   15.1934 O   0  0  0  0  0  0
  -55.6129   -6.2729   16.7418 O   0  0  0  0  0  0
  -56.8210   -9.2118   13.4747 O   0  0  0  0  0  0
  -54.0691   -4.0790   15.3879 O   0  0  0  0  0  0
  -50.3975   -6.4641   22.0627 O   0  0  0  0  0  0
  -49.0261   -4.4957   22.3922 O   0  0  0  0  0  0
  -49.3802   -1.0926   20.8708 O   0  0  0  0  0  0
  -51.3438   -3.0331   19.3905 O   0  0  0  0  0  0
  -47.6142    0.3435   20.0441 O   0  0  0  0  0  0
  -51.0103    1.5769   17.8967 O   0  0  0  0  0  0
  -49.7287    3.3880   19.7602 O   0  0  0  0  0  0
  -49.7315   -3.1687   15.5556 C   0  0  0  0  0  0
  -48.4790   -1.6207   14.1490 C   0  0  0  0  0  0
  -49.1706   -2.0864   12.8374 C   0  0  0  0  0  0
  -49.4890   -4.1367   14.3679 C   0  0  0  0  0  0
  -51.2340   -3.1781   15.9381 C   0  0  0  0  0  0
  -49.7828   -3.5001   12.9939 C   0  0  0  0  0  0
  -51.7025   -4.4620   16.6618 C   0  0  0  0  0  0
  -49.4898   -4.1220   17.8072 C   0  0  0  0  0  0
  -50.5494   -5.1590   17.4051 C   0  0  0  0  0  0
  -48.0170   -0.1393   14.0683 C   0  0  0  0  0  0
  -54.8497   -7.1787   15.9301 C   0  0  0  0  0  0
  -54.1485   -6.4425   14.7673 C   0  0  0  0  0  0
  -55.7038   -8.3635   15.4610 C   0  0  0  0  0  0
  -48.2565   -2.0540   11.5984 C   0  0  0  0  0  0
  -48.4512   -4.8025   18.7199 C   0  0  0  0  0  0
  -48.2006    0.4376   12.6428 C   0  0  0  0  0  0
  -56.6582   -8.0396   14.2876 C   0  0  0  0  0  0
  -53.8241   -7.9449   16.7241 C   0  0  0  0  0  0
  -46.5330   -0.0160   14.4703 C   0  0  0  0  0  0
  -53.5433   -5.1753   15.3232 C   0  0  0  0  0  0
  -55.1188   -6.1867   13.6449 C   0  0  0  0  0  0
  -56.2306   -6.8647   13.4285 C   0  0  0  0  0  0
  -53.6061   -9.2688   16.0273 C   0  0  0  0  0  0
  -49.1358   -5.6348   19.7863 C   0  0  0  0  0  0
  -49.4501    1.3338   12.5485 C   0  0  0  0  0  0
  -53.3828   -7.4920   17.8929 C   0  0  0  0  0  0
  -49.0571   -6.9278   20.0662 C   0  0  0  0  0  0
  -49.8653   -7.5058   21.2172 C   0  0  0  0  0  0
  -57.1538   -6.4913   12.2924 C   0  0  0  0  0  0
  -50.9989   -8.4549   20.7664 C   0  0  0  0  0  0
  -52.4083   -8.2468   18.6802 C   0  0  0  0  0  0
  -50.0558   -5.1387   21.6022 C   0  0  0  0  0  0
  -49.5461   -2.5237   20.9552 C   0  0  0  0  0  0
  -51.0308   -2.9409   20.7941 C   0  0  0  0  0  0
  -51.3306   -4.2781   21.5176 C   0  0  0  0  0  0
  -52.0042   -7.7880   19.8585 C   0  0  0  0  0  0
  -49.0225   -3.0518   22.3088 C   0  0  0  0  0  0
  -48.1571   -7.9288   19.3703 C   0  0  0  0  0  0
  -51.7447   -8.9783   22.0047 C   0  0  0  0  0  0
  -48.5871   -0.6800   19.7371 C   0  0  0  0  0  0
  -49.5032   -0.2109   18.5896 C   0  0  0  0  0  0
  -50.1883    1.1120   18.9838 C   0  0  0  0  0  0
  -49.1138    2.1576   19.3486 C   0  0  0  0  0  0
  -47.6012   -2.5318   22.5768 C   0  0  0  0  0  0
  -48.2197    1.5824   20.4660 C   0  0  0  0  0  0
  -47.1205    2.5951   20.8241 C   0  0  0  0  0  0
  -52.4970   -2.2542   19.0183 C   0  0  0  0  0  0
  -52.2434    2.1638   18.3508 C   0  0  0  0  0  0
  -55.0458   -5.5117   17.0752 H   0  0  0  0  0  0
  -57.3600   -9.0147   12.6496 H   0  0  0  0  0  0
  -49.3215    3.7338   20.6128 H   0  0  0  0  0  0
  1 16  1  0  0  0
  2 15  1  0  0  0
  2 22  1  0  0  0
  3 21  1  0  0  0
  3 34  1  0  0  0
  4 27  1  0  0  0
  4 37  1  0  0  0
  5 25  1  0  0  0
  5 63  1  0  0  0
  6 31  1  0  0  0
  6 64  1  0  0  0
  7 34  2  0  0  0
  8 42  1  0  0  0
  8 46  1  0  0  0
  9 46  1  0  0  0
  9 51  1  0  0  0
 10 47  1  0  0  0
 10 54  1  0  0  0
 11 48  1  0  0  0
 11 61  1  0  0  0
 12 54  1  0  0  0
 12 59  1  0  0  0
 13 56  1  0  0  0
 13 62  1  0  0  0
 14 57  1  0  0  0
 14 65  1  0  0  0
 15  1  1  0  0  0
 15 18  1  0  0  0
 15 19  1  0  0  0
 16 17  1  0  0  0
 16 24  1  0  0  0
 17 20  1  0  0  0
 17 28  1  0  0  0
 18 20  1  0  0  0
 19 21  1  0  0  0
 21 23  1  0  0  0
 22 23  1  0  0  0
 22 29  1  0  0  0
 24 30  1  0  0  0
 24 33  1  0  0  0
 25 26  1  0  0  0
 25 32  1  0  0  0
 26 34  1  0  0  0
 26 35  1  0  0  0
 27 25  1  0  0  0
 29 38  1  0  0  0
 30 39  1  0  0  0
 31 27  1  0  0  0
 31 36  1  0  0  0
 32 37  1  0  0  0
 32 40  2  0  0  0
 35 36  2  0  0  0
 36 43  1  0  0  0
 38 41  2  0  0  0
 40 45  1  0  0  0
 41 42  1  0  0  0
 41 52  1  0  0  0
 42 44  1  0  0  0
 44 50  1  0  0  0
 44 53  1  0  0  0
 45 50  2  0  0  0
 46 49  1  0  0  0
 47 48  1  0  0  0
 48 49  1  0  0  0
 51 47  1  0  0  0
 51 58  1  0  0  0
 54 55  1  0  0  0
 55 56  1  0  0  0
 56 57  1  0  0  0
 57 59  1  0  0  0
 59 60  1  0  0  0
M  END
>  <CHROM.0>
69.06340609,63.55662166,-159.15580142

>  <CHROM.1>
-54.69307637,-174.18705409,0.97770374,-105.23455496,-116.09719215,-136.33176934
-126.73156247,141.70094663,132.33340793,-126.34545898,102.08180330,-50.99786442
-3.82064655,17.51477794,0.15382494,-0.96494988,-1.00385592

>  <HEADER>
                                                                          

>  <MASTER>
        0    0    0    0    0    0    0    0  136    0  136    0          

>  <Name>
Ivermectin.pdb

>  <RI>
-6.88282e+08

>  <Rbt.Current_Directory>
/root/miniconda3/envs/rdock/share/rxdock-2013.1.1_148c5bd1-0/data/ligands/prepped_ligands/Ivermectin

>  <Rbt.Executable>
rbdock/0.1.0

>  <Rbt.Library>
librxdock.so/0.1.0

>  <Rbt.Parameter_File>
/root/miniconda3/envs/rdock/share/rxdock-2013.1.1_148c5bd1-0/data/scripts/dock.prm

>  <Rbt.Receptor>
def.prm

>  <SCORE>
251.776

>  <SCORE.INTER>
210.868

>  <SCORE.INTER.CONST>
1

>  <SCORE.INTER.POLAR>
-0.983772

>  <SCORE.INTER.REPUL>
0.848528

>  <SCORE.INTER.ROT>
8

>  <SCORE.INTER.VDW>
196.57

>  <SCORE.INTER.norm>
3.40109

>  <SCORE.INTRA>
32.7986

>  <SCORE.INTRA.DIHEDRAL>
26.2573

>  <SCORE.INTRA.DIHEDRAL.0>
29.9071

>  <SCORE.INTRA.POLAR>
0

>  <SCORE.INTRA.POLAR.0>
0

>  <SCORE.INTRA.REPUL>
0

>  <SCORE.INTRA.REPUL.0>
0

>  <SCORE.INTRA.VDW>
19.67

>  <SCORE.INTRA.VDW.0>
1.27762

>  <SCORE.INTRA.norm>
0.52901

>  <SCORE.RESTR>
8.37609

>  <SCORE.RESTR.CAVITY>
8.37609

>  <SCORE.RESTR.norm>
0.135098

>  <SCORE.SYSTEM>
-0.266689

>  <SCORE.SYSTEM.CONST>
0

>  <SCORE.SYSTEM.DIHEDRAL>
1.21077

>  <SCORE.SYSTEM.POLAR>
-0.0184166

>  <SCORE.SYSTEM.VDW>
-0.809459

>  <SCORE.SYSTEM.norm>
-0.00430143

>  <SCORE.heavy>
62

>  <SCORE.norm>
4.0609

>  <TITLE>
    6321424_D                                                             

$$$$
Ivermectin.pdb
  RxDock  02242101253D
librxdock.so/0.1.0
 65 71  0  0  0  0  0  0  0  0999 V2000
  -49.8545   -1.2155   14.5477 O   0  0  0  0  0  0
  -49.0950   -2.6984   16.2083 O   0  0  0  0  0  0
  -52.2848   -5.0733   15.5690 O   0  0  0  0  0  0
  -54.2276   -9.3878   15.4850 O   0  0  0  0  0  0
  -55.4920   -6.1832   16.5711 O   0  0  0  0  0  0
  -56.2272   -9.6610   13.7188 O   0  0  0  0  0  0
  -54.1790   -4.0169   14.9548 O   0  0  0  0  0  0
  -50.4730   -5.0109   21.9548 O   0  0  0  0  0  0
  -49.1210   -3.0040   22.0472 O   0  0  0  0  0  0
  -49.6616    0.2848   20.3404 O   0  0  0  0  0  0
  -51.6933   -1.7799   19.1477 O   0  0  0  0  0  0
  -48.7695   -0.0872   18.1199 O   0  0  0  0  0  0
  -47.6061    3.8473   19.0321 O   0  0  0  0  0  0
  -45.6052    1.7806   18.6854 O   0  0  0  0  0  0
  -49.9907   -2.5622   15.0689 C   0  0  0  0  0  0
  -48.8871   -1.0740   13.4842 C   0  0  0  0  0  0
  -49.4732   -1.7936   12.2376 C   0  0  0  0  0  0
  -49.5936   -3.6433   14.0296 C   0  0  0  0  0  0
  -51.4930   -2.7061   15.4237 C   0  0  0  0  0  0
  -49.9157   -3.2384   12.5764 C   0  0  0  0  0  0
  -51.8276   -3.9293   16.3089 C   0  0  0  0  0  0
  -49.7116   -3.1672   17.4338 C   0  0  0  0  0  0
  -50.6245   -4.3719   17.1602 C   0  0  0  0  0  0
  -48.6044    0.4289   13.2086 C   0  0  0  0  0  0
  -54.5985   -7.0883   15.9045 C   0  0  0  0  0  0
  -53.9524   -6.4337   14.6635 C   0  0  0  0  0  0
  -55.2875   -8.4219   15.5882 C   0  0  0  0  0  0
  -48.5286   -1.8150   11.0214 C   0  0  0  0  0  0
  -48.6298   -3.5851   18.4487 C   0  0  0  0  0  0
  -49.8775    1.1692   12.7291 C   0  0  0  0  0  0
  -56.2341   -8.3792   14.3656 C   0  0  0  0  0  0
  -53.5153   -7.6079   16.8133 C   0  0  0  0  0  0
  -47.5042    0.5818   12.1383 C   0  0  0  0  0  0
  -53.5232   -5.0383   15.0502 C   0  0  0  0  0  0
  -54.9082   -6.4531   13.5004 C   0  0  0  0  0  0
  -55.9225   -7.2865   13.3606 C   0  0  0  0  0  0
  -53.1163   -8.9762   16.3088 C   0  0  0  0  0  0
  -49.2447   -4.3450   19.6076 C   0  0  0  0  0  0
  -49.5355    2.3267   11.7717 C   0  0  0  0  0  0
  -53.1713   -6.9511   17.9161 C   0  0  0  0  0  0
  -49.0203   -5.5689   20.0637 C   0  0  0  0  0  0
  -49.7912   -6.0827   21.2695 C   0  0  0  0  0  0
  -56.8452   -7.1862   12.1686 C   0  0  0  0  0  0
  -50.7865   -7.2167   20.9343 C   0  0  0  0  0  0
  -52.1399   -7.4668   18.8159 C   0  0  0  0  0  0
  -50.1953   -3.7139   21.3838 C   0  0  0  0  0  0
  -49.7909   -1.1400   20.5303 C   0  0  0  0  0  0
  -51.2748   -1.5899   20.5136 C   0  0  0  0  0  0
  -51.4902   -2.8806   21.3437 C   0  0  0  0  0  0
  -51.8338   -6.8074   19.9267 C   0  0  0  0  0  0
  -49.1537   -1.5689   21.8701 C   0  0  0  0  0  0
  -47.9835   -6.5350   19.5272 C   0  0  0  0  0  0
  -51.5050   -7.6575   22.2201 C   0  0  0  0  0  0
  -49.6745    0.6744   18.9502 C   0  0  0  0  0  0
  -49.3731    2.1802   18.8170 C   0  0  0  0  0  0
  -47.9042    2.4483   19.1983 C   0  0  0  0  0  0
  -46.9792    1.5796   18.3205 C   0  0  0  0  0  0
  -47.7269   -1.0104   21.9915 C   0  0  0  0  0  0
  -47.3862    0.1007   18.4817 C   0  0  0  0  0  0
  -46.4982   -0.7820   17.5905 C   0  0  0  0  0  0
  -52.6677   -0.8103   18.7172 C   0  0  0  0  0  0
  -47.8015    4.5996   20.2434 C   0  0  0  0  0  0
  -56.3113   -6.0008   16.0163 H   0  0  0  0  0  0
  -57.1534   -9.9395   13.4454 H   0  0  0  0  0  0
  -45.1711    2.4799   18.1069 H   0  0  0  0  0  0
  1 16  1  0  0  0
  2 15  1  0  0  0
  2 22  1  0  0  0
  3 21  1  0  0  0
  3 34  1  0  0  0
  4 27  1  0  0  0
  4 37  1  0  0  0
  5 25  1  0  0  0
  5 63  1  0  0  0
  6 31  1  0  0  0
  6 64  1  0  0  0
  7 34  2  0  0  0
  8 42  1  0  0  0
  8 46  1  0  0  0
  9 46  1  0  0  0
  9 51  1  0  0  0
 10 47  1  0  0  0
 10 54  1  0  0  0
 11 48  1  0  0  0
 11 61  1  0  0  0
 12 54  1  0  0  0
 12 59  1  0  0  0
 13 56  1  0  0  0
 13 62  1  0  0  0
 14 57  1  0  0  0
 14 65  1  0  0  0
 15  1  1  0  0  0
 15 18  1  0  0  0
 15 19  1  0  0  0
 16 17  1  0  0  0
 16 24  1  0  0  0
 17 20  1  0  0  0
 17 28  1  0  0  0
 18 20  1  0  0  0
 19 21  1  0  0  0
 21 23  1  0  0  0
 22 23  1  0  0  0
 22 29  1  0  0  0
 24 30  1  0  0  0
 24 33  1  0  0  0
 25 26  1  0  0  0
 25 32  1  0  0  0
 26 34  1  0  0  0
 26 35  1  0  0  0
 27 25  1  0  0  0
 29 38  1  0  0  0
 30 39  1  0  0  0
 31 27  1  0  0  0
 31 36  1  0  0  0
 32 37  1  0  0  0
 32 40  2  0  0  0
 35 36  2  0  0  0
 36 43  1  0  0  0
 38 41  2  0  0  0
 40 45  1  0  0  0
 41 42  1  0  0  0
 41 52  1  0  0  0
 42 44  1  0  0  0
 44 50  1  0  0  0
 44 53  1  0  0  0
 45 50  2  0  0  0
 46 49  1  0  0  0
 47 48  1  0  0  0
 48 49  1  0  0  0
 51 47  1  0  0  0
 51 58  1  0  0  0
 54 55  1  0  0  0
 55 56  1  0  0  0
 56 57  1  0  0  0
 57 59  1  0  0  0
 59 60  1  0  0  0
M  END
>  <CHROM.0>
-118.27149578,175.83186582,163.73720808

>  <CHROM.1>
68.83409890,137.79696339,-3.50043587,-95.10276608,-84.21362269,-49.36595757
-112.12501791,92.67520266,-94.40383010,-62.45292129,-149.09701779,-50.77704278
-3.21092182,17.18739458,0.03013868,-0.95883202,-1.20207341

>  <HEADER>
                                                                          

>  <MASTER>
        0    0    0    0    0    0    0    0  136    0  136    0          

>  <Name>
Ivermectin.pdb

>  <RI>
-6.88282e+08

>  <Rbt.Current_Directory>
/root/miniconda3/envs/rdock/share/rxdock-2013.1.1_148c5bd1-0/data/ligands/prepped_ligands/Ivermectin

>  <Rbt.Executable>
rbdock/0.1.0

>  <Rbt.Library>
librxdock.so/0.1.0

>  <Rbt.Parameter_File>
/root/miniconda3/envs/rdock/share/rxdock-2013.1.1_148c5bd1-0/data/scripts/dock.prm

>  <Rbt.Receptor>
def.prm

>  <SCORE>
183.535

>  <SCORE.INTER>
146.871

>  <SCORE.INTER.CONST>
1

>  <SCORE.INTER.POLAR>
-1.68891

>  <SCORE.INTER.REPUL>
1.33142

>  <SCORE.INTER.ROT>
8

>  <SCORE.INTER.VDW>
132.556

>  <SCORE.INTER.norm>
2.36889

>  <SCORE.INTRA>
26.7584

>  <SCORE.INTRA.DIHEDRAL>
9.57013

>  <SCORE.INTRA.DIHEDRAL.0>
29.9071

>  <SCORE.INTRA.POLAR>
0

>  <SCORE.INTRA.POLAR.0>
0

>  <SCORE.INTRA.REPUL>
0

>  <SCORE.INTRA.REPUL.0>
0

>  <SCORE.INTRA.VDW>
21.9733

>  <SCORE.INTRA.VDW.0>
1.27762

>  <SCORE.INTRA.norm>
0.431587

>  <SCORE.RESTR>
8.15825

>  <SCORE.RESTR.CAVITY>
8.15825

>  <SCORE.RESTR.norm>
0.131585

>  <SCORE.SYSTEM>
1.74755

>  <SCORE.SYSTEM.CONST>
0

>  <SCORE.SYSTEM.DIHEDRAL>
4.30509

>  <SCORE.SYSTEM.VDW>
-0.404996

>  <SCORE.SYSTEM.norm>
0.0281863

>  <SCORE.heavy>
62

>  <SCORE.norm>
2.96025

>  <TITLE>
    6321424_D                                                             

$$$$
Ivermectin.pdb
  RxDock  02242101253D
librxdock.so/0.1.0
 65 71  0  0  0  0  0  0  0  0999 V2000
  -48.9740   -6.9007   19.3776 O   0  0  0  0  0  0
  -49.1431   -6.1353   17.1597 O   0  0  0  0  0  0
  -47.2505   -2.7276   18.1743 O   0  0  0  0  0  0
  -44.3789    0.8576   17.0359 O   0  0  0  0  0  0
  -47.4195    0.7138   18.9806 O   0  0  0  0  0  0
  -43.0147    1.8765   19.1079 O   0  0  0  0  0  0
  -47.6256   -1.9917   20.2717 O   0  0  0  0  0  0
  -51.8705   -1.7125   13.5170 O   0  0  0  0  0  0
  -52.9598   -3.2371   15.0510 O   0  0  0  0  0  0
  -52.7982   -3.3362   18.7907 O   0  0  0  0  0  0
  -50.6287   -1.3188   17.7727 O   0  0  0  0  0  0
  -51.3508   -5.1881   19.3738 O   0  0  0  0  0  0
  -53.6671   -4.5871   22.8291 O   0  0  0  0  0  0
  -53.9132   -7.0489   21.3211 O   0  0  0  0  0  0
  -48.4518   -5.9390   18.4256 C   0  0  0  0  0  0
  -48.2338   -8.1389   19.4535 C   0  0  0  0  0  0
  -46.8662   -7.8115   20.1151 C   0  0  0  0  0  0
  -46.9342   -6.1272   18.1642 C   0  0  0  0  0  0
  -48.7016   -4.5536   19.0753 C   0  0  0  0  0  0
  -46.1616   -6.6324   19.4001 C   0  0  0  0  0  0
  -48.5415   -3.3557   18.1104 C   0  0  0  0  0  0
  -49.7600   -4.9508   16.5956 C   0  0  0  0  0  0
  -48.7962   -3.7557   16.6465 C   0  0  0  0  0  0
  -49.0333   -9.1965   20.2639 C   0  0  0  0  0  0
  -46.2658    0.1947   18.3015 C   0  0  0  0  0  0
  -45.7617   -1.1091   18.9586 C   0  0  0  0  0  0
  -45.1704    1.2602   18.1666 C   0  0  0  0  0  0
  -45.9051   -9.0118   20.2004 C   0  0  0  0  0  0
  -50.1583   -5.2045   15.1287 C   0  0  0  0  0  0
  -49.7943  -10.1719   19.3321 C   0  0  0  0  0  0
  -44.3577    1.5097   19.4589 C   0  0  0  0  0  0
  -46.5174   -0.0517   16.8368 C   0  0  0  0  0  0
  -50.0470   -8.5046   21.1982 C   0  0  0  0  0  0
  -46.9656   -1.9736   19.2487 C   0  0  0  0  0  0
  -44.9511   -0.7992   20.1889 C   0  0  0  0  0  0
  -44.3428    0.3468   20.4329 C   0  0  0  0  0  0
  -45.1974    0.1044   16.1163 C   0  0  0  0  0  0
  -50.5292   -3.9058   14.4399 C   0  0  0  0  0  0
  -48.8435  -11.1943   18.6808 C   0  0  0  0  0  0
  -47.7510   -0.2144   16.3705 C   0  0  0  0  0  0
  -50.0215   -3.3117   13.3696 C   0  0  0  0  0  0
  -50.6023   -1.9919   12.8869 C   0  0  0  0  0  0
  -43.5902    0.5615   21.7250 C   0  0  0  0  0  0
  -49.6461   -0.7903   13.0622 C   0  0  0  0  0  0
  -48.0017   -0.4256   14.9450 C   0  0  0  0  0  0
  -51.9485   -2.2164   14.8681 C   0  0  0  0  0  0
  -52.3388   -3.0266   17.4581 C   0  0  0  0  0  0
  -51.9772   -1.5261   17.3088 C   0  0  0  0  0  0
  -52.1404   -1.0416   15.8458 C   0  0  0  0  0  0
  -49.2452   -0.5566   14.4990 C   0  0  0  0  0  0
  -53.4186   -3.3868   16.4145 C   0  0  0  0  0  0
  -48.9135   -3.8634   12.4954 C   0  0  0  0  0  0
  -50.3321    0.4838   12.5428 C   0  0  0  0  0  0
  -51.7485   -3.8269   19.6521 C   0  0  0  0  0  0
  -52.1654   -3.6900   21.1297 C   0  0  0  0  0  0
  -53.3052   -4.6802   21.4384 C   0  0  0  0  0  0
  -52.8525   -6.1115   21.0813 C   0  0  0  0  0  0
  -53.9151   -4.8258   16.6273 C   0  0  0  0  0  0
  -52.4104   -6.1387   19.6039 C   0  0  0  0  0  0
  -51.9243   -7.5489   19.2337 C   0  0  0  0  0  0
  -50.5561   -1.0309   19.1823 C   0  0  0  0  0  0
  -54.4837   -3.4357   23.1097 C   0  0  0  0  0  0
  -48.1859    0.0626   18.9529 H   0  0  0  0  0  0
  -42.9926    2.7371   18.5892 H   0  0  0  0  0  0
  -53.5792   -7.9973   21.2846 H   0  0  0  0  0  0
  1 16  1  0  0  0
  2 15  1  0  0  0
  2 22  1  0  0  0
  3 21  1  0  0  0
  3 34  1  0  0  0
  4 27  1  0  0  0
  4 37  1  0  0  0
  5 25  1  0  0  0
  5 63  1  0  0  0
  6 31  1  0  0  0
  6 64  1  0  0  0
  7 34  2  0  0  0
  8 42  1  0  0  0
  8 46  1  0  0  0
  9 46  1  0  0  0
  9 51  1  0  0  0
 10 47  1  0  0  0
 10 54  1  0  0  0
 11 48  1  0  0  0
 11 61  1  0  0  0
 12 54  1  0  0  0
 12 59  1  0  0  0
 13 56  1  0  0  0
 13 62  1  0  0  0
 14 57  1  0  0  0
 14 65  1  0  0  0
 15  1  1  0  0  0
 15 18  1  0  0  0
 15 19  1  0  0  0
 16 17  1  0  0  0
 16 24  1  0  0  0
 17 20  1  0  0  0
 17 28  1  0  0  0
 18 20  1  0  0  0
 19 21  1  0  0  0
 21 23  1  0  0  0
 22 23  1  0  0  0
 22 29  1  0  0  0
 24 30  1  0  0  0
 24 33  1  0  0  0
 25 26  1  0  0  0
 25 32  1  0  0  0
 26 34  1  0  0  0
 26 35  1  0  0  0
 27 25  1  0  0  0
 29 38  1  0  0  0
 30 39  1  0  0  0
 31 27  1  0  0  0
 31 36  1  0  0  0
 32 37  1  0  0  0
 32 40  2  0  0  0
 35 36  2  0  0  0
 36 43  1  0  0  0
 38 41  2  0  0  0
 40 45  1  0  0  0
 41 42  1  0  0  0
 41 52  1  0  0  0
 42 44  1  0  0  0
 44 50  1  0  0  0
 44 53  1  0  0  0
 45 50  2  0  0  0
 46 49  1  0  0  0
 47 48  1  0  0  0
 48 49  1  0  0  0
 51 47  1  0  0  0
 51 58  1  0  0  0
 54 55  1  0  0  0
 55 56  1  0  0  0
 56 57  1  0  0  0
 57 59  1  0  0  0
 59 60  1  0  0  0
M  END
>  <CHROM.0>
81.24116362,-177.66850039,-159.65390163

>  <CHROM.1>
-61.02686548,62.82057341,32.82173648,-116.47223008,-94.79412065,-74.66159589
-88.89877468,77.74753695,-167.76914126,98.49579990,75.11422196,-49.30625486
-3.44951506,18.04858563,-2.25753609,-0.50096738,-0.70591489

>  <HEADER>
                                                                          

>  <MASTER>
        0    0    0    0    0    0    0    0  136    0  136    0          

>  <Name>
Ivermectin.pdb

>  <RI>
-6.88282e+08

>  <Rbt.Current_Directory>
/root/miniconda3/envs/rdock/share/rxdock-2013.1.1_148c5bd1-0/data/ligands/prepped_ligands/Ivermectin

>  <Rbt.Executable>
rbdock/0.1.0

>  <Rbt.Library>
librxdock.so/0.1.0

>  <Rbt.Parameter_File>
/root/miniconda3/envs/rdock/share/rxdock-2013.1.1_148c5bd1-0/data/scripts/dock.prm

>  <Rbt.Receptor>
def.prm

>  <SCORE>
135.054

>  <SCORE.INTER>
113.336

>  <SCORE.INTER.CONST>
1

>  <SCORE.INTER.POLAR>
-0.00230544

>  <SCORE.INTER.REPUL>
0.439648

>  <SCORE.INTER.ROT>
8

>  <SCORE.INTER.VDW>
97.7459

>  <SCORE.INTER.norm>
1.828

>  <SCORE.INTRA>
12.5464

>  <SCORE.INTRA.DIHEDRAL>
-3.11921

>  <SCORE.INTRA.DIHEDRAL.0>
29.9071

>  <SCORE.INTRA.POLAR>
0

>  <SCORE.INTRA.POLAR.0>
0

>  <SCORE.INTRA.REPUL>
0.645425

>  <SCORE.INTRA.REPUL.0>
0

>  <SCORE.INTRA.VDW>
10.8789

>  <SCORE.INTRA.VDW.0>
1.27762

>  <SCORE.INTRA.norm>
0.202362

>  <SCORE.RESTR>
8.96111

>  <SCORE.RESTR.CAVITY>
8.96111

>  <SCORE.RESTR.norm>
0.144534

>  <SCORE.SYSTEM>
0.20982

>  <SCORE.SYSTEM.CONST>
0

>  <SCORE.SYSTEM.DIHEDRAL>
1.93213

>  <SCORE.SYSTEM.POLAR>
-0.0186707

>  <SCORE.SYSTEM.VDW>
-0.692763

>  <SCORE.SYSTEM.norm>
0.0033842

>  <SCORE.heavy>
62

>  <SCORE.norm>
2.17828

>  <TITLE>
    6321424_D                                                             

$$$$
Ivermectin.pdb
  RxDock  02242101263D
librxdock.so/0.1.0
 65 71  0  0  0  0  0  0  0  0999 V2000
  -44.7731    0.1880   19.9709 O   0  0  0  0  0  0
  -46.0338    0.5351   18.0155 O   0  0  0  0  0  0
  -49.3330   -0.8279   19.8814 O   0  0  0  0  0  0
  -54.0275   -0.7560   20.4749 O   0  0  0  0  0  0
  -51.6309   -3.4584   20.4490 O   0  0  0  0  0  0
  -54.8345   -1.3973   22.9508 O   0  0  0  0  0  0
  -48.9854   -2.4268   21.4320 O   0  0  0  0  0  0
  -49.2495   -2.4848   13.4539 O   0  0  0  0  0  0
  -47.7933   -3.2295   15.2397 O   0  0  0  0  0  0
  -48.4227   -5.8166   17.8726 O   0  0  0  0  0  0
  -51.1241   -5.2558   16.3892 O   0  0  0  0  0  0
  -49.5481   -7.9596   17.7980 O   0  0  0  0  0  0
  -45.8191   -8.8346   19.5285 O   0  0  0  0  0  0
  -48.2516   -9.1616   21.0683 O   0  0  0  0  0  0
  -46.1213    0.3211   19.4527 C   0  0  0  0  0  0
  -44.1831    1.4189   20.4438 C   0  0  0  0  0  0
  -44.9391    1.8161   21.7423 C   0  0  0  0  0  0
  -46.8736    1.5335   20.0615 C   0  0  0  0  0  0
  -46.8383   -0.9934   19.8547 C   0  0  0  0  0  0
  -46.4717    1.8291   21.5212 C   0  0  0  0  0  0
  -48.1807   -1.2389   19.1273 C   0  0  0  0  0  0
  -46.8148   -0.3748   17.2007 C   0  0  0  0  0  0
  -48.2360   -0.5292   17.7629 C   0  0  0  0  0  0
  -42.6613    1.2270   20.6926 C   0  0  0  0  0  0
  -52.0761   -2.0947   20.5108 C   0  0  0  0  0  0
  -51.1109   -1.2218   21.3427 C   0  0  0  0  0  0
  -53.5307   -2.0030   20.9896 C   0  0  0  0  0  0
  -44.4929    3.1620   22.3433 C   0  0  0  0  0  0
  -46.9078    0.1505   15.7550 C   0  0  0  0  0  0
  -41.8702    1.1658   19.3625 C   0  0  0  0  0  0
  -53.7149   -2.1833   22.5148 C   0  0  0  0  0  0
  -52.2522   -1.4800   19.1468 C   0  0  0  0  0  0
  -42.4054   -0.0703   21.4866 C   0  0  0  0  0  0
  -49.7010   -1.5768   20.9339 C   0  0  0  0  0  0
  -51.3619   -1.4154   22.8145 C   0  0  0  0  0  0
  -52.4897   -1.8507   23.3451 C   0  0  0  0  0  0
  -53.3229   -0.4186   19.2614 C   0  0  0  0  0  0
  -47.9510   -0.6195   14.9692 C   0  0  0  0  0  0
  -41.9619    2.4925   18.5848 C   0  0  0  0  0  0
  -51.6284   -1.9777   18.0843 C   0  0  0  0  0  0
  -49.0474   -0.2129   14.3456 C   0  0  0  0  0  0
  -49.9245   -1.2196   13.6181 C   0  0  0  0  0  0
  -52.6151   -2.0478   24.8376 C   0  0  0  0  0  0
  -51.3041   -1.4358   14.2805 C   0  0  0  0  0  0
  -51.8188   -1.4013   16.7535 C   0  0  0  0  0  0
  -49.1332   -3.2230   14.6897 C   0  0  0  0  0  0
  -48.7774   -4.8246   16.8862 C   0  0  0  0  0  0
  -49.7922   -5.3786   15.8529 C   0  0  0  0  0  0
  -49.6746   -4.6512   14.4896 C   0  0  0  0  0  0
  -51.2073   -1.9340   15.7025 C   0  0  0  0  0  0
  -47.5206   -4.3305   16.1372 C   0  0  0  0  0  0
  -49.5098    1.2247   14.2192 C   0  0  0  0  0  0
  -52.1024   -2.4662   13.4651 C   0  0  0  0  0  0
  -48.4290   -7.1626   17.3500 C   0  0  0  0  0  0
  -47.1043   -7.8723   17.6926 C   0  0  0  0  0  0
  -47.0349   -8.1314   19.2102 C   0  0  0  0  0  0
  -48.2718   -8.9426   19.6495 C   0  0  0  0  0  0
  -46.4280   -3.9131   17.1344 C   0  0  0  0  0  0
  -49.5430   -8.1803   19.2230 C   0  0  0  0  0  0
  -50.7895   -8.9859   19.6221 C   0  0  0  0  0  0
  -51.4896   -6.3543   17.2463 C   0  0  0  0  0  0
  -45.7146  -10.0936   18.8392 C   0  0  0  0  0  0
  -51.4974   -3.8432   21.3689 H   0  0  0  0  0  0
  -54.7411   -0.4370   22.6691 H   0  0  0  0  0  0
  -48.9904   -9.7821   21.3537 H   0  0  0  0  0  0
  1 16  1  0  0  0
  2 15  1  0  0  0
  2 22  1  0  0  0
  3 21  1  0  0  0
  3 34  1  0  0  0
  4 27  1  0  0  0
  4 37  1  0  0  0
  5 25  1  0  0  0
  5 63  1  0  0  0
  6 31  1  0  0  0
  6 64  1  0  0  0
  7 34  2  0  0  0
  8 42  1  0  0  0
  8 46  1  0  0  0
  9 46  1  0  0  0
  9 51  1  0  0  0
 10 47  1  0  0  0
 10 54  1  0  0  0
 11 48  1  0  0  0
 11 61  1  0  0  0
 12 54  1  0  0  0
 12 59  1  0  0  0
 13 56  1  0  0  0
 13 62  1  0  0  0
 14 57  1  0  0  0
 14 65  1  0  0  0
 15  1  1  0  0  0
 15 18  1  0  0  0
 15 19  1  0  0  0
 16 17  1  0  0  0
 16 24  1  0  0  0
 17 20  1  0  0  0
 17 28  1  0  0  0
 18 20  1  0  0  0
 19 21  1  0  0  0
 21 23  1  0  0  0
 22 23  1  0  0  0
 22 29  1  0  0  0
 24 30  1  0  0  0
 24 33  1  0  0  0
 25 26  1  0  0  0
 25 32  1  0  0  0
 26 34  1  0  0  0
 26 35  1  0  0  0
 27 25  1  0  0  0
 29 38  1  0  0  0
 30 39  1  0  0  0
 31 27  1  0  0  0
 31 36  1  0  0  0
 32 37  1  0  0  0
 32 40  2  0  0  0
 35 36  2  0  0  0
 36 43  1  0  0  0
 38 41  2  0  0  0
 40 45  1  0  0  0
 41 42  1  0  0  0
 41 52  1  0  0  0
 42 44  1  0  0  0
 44 50  1  0  0  0
 44 53  1  0  0  0
 45 50  2  0  0  0
 46 49  1  0  0  0
 47 48  1  0  0  0
 48 49  1  0  0  0
 51 47  1  0  0  0
 51 58  1  0  0  0
 54 55  1  0  0  0
 55 56  1  0  0  0
 56 57  1  0  0  0
 57 59  1  0  0  0
 59 60  1  0  0  0
M  END
>  <CHROM.0>
-177.79982924,-170.22237050,-98.36662471

>  <CHROM.1>
55.32106526,-53.83687304,72.41380714,-106.33776705,32.24206976,-106.69290210
-84.35248313,-58.80239538,-173.10679446,74.44491022,63.83617310,-48.77803869
-2.59611910,18.64813088,-0.98695303,-0.33367781,-2.72448496

>  <HEADER>
                                                                          

>  <MASTER>
        0    0    0    0    0    0    0    0  136    0  136    0          

>  <Name>
Ivermectin.pdb

>  <RI>
-6.88282e+08

>  <Rbt.Current_Directory>
/root/miniconda3/envs/rdock/share/rxdock-2013.1.1_148c5bd1-0/data/ligands/prepped_ligands/Ivermectin

>  <Rbt.Executable>
rbdock/0.1.0

>  <Rbt.Library>
librxdock.so/0.1.0

>  <Rbt.Parameter_File>
/root/miniconda3/envs/rdock/share/rxdock-2013.1.1_148c5bd1-0/data/scripts/dock.prm

>  <Rbt.Receptor>
def.prm

>  <SCORE>
58.5828

>  <SCORE.INTER>
33.8974

>  <SCORE.INTER.CONST>
1

>  <SCORE.INTER.POLAR>
-0.220694

>  <SCORE.INTER.REPUL>
0.605884

>  <SCORE.INTER.ROT>
8

>  <SCORE.INTER.VDW>
18.2184

>  <SCORE.INTER.norm>
0.546733

>  <SCORE.INTRA>
3.38667

>  <SCORE.INTRA.DIHEDRAL>
-9.02291

>  <SCORE.INTRA.DIHEDRAL.0>
29.9071

>  <SCORE.INTRA.POLAR>
0

>  <SCORE.INTRA.POLAR.0>
0

>  <SCORE.INTRA.REPUL>
0

>  <SCORE.INTRA.REPUL.0>
0

>  <SCORE.INTRA.VDW>
7.89813

>  <SCORE.INTRA.VDW.0>
1.27762

>  <SCORE.INTRA.norm>
0.0546238

>  <SCORE.RESTR>
20.5527

>  <SCORE.RESTR.CAVITY>
20.5527

>  <SCORE.RESTR.norm>
0.331496

>  <SCORE.SYSTEM>
0.74594

>  <SCORE.SYSTEM.CONST>
0

>  <SCORE.SYSTEM.DIHEDRAL>
3.04957

>  <SCORE.SYSTEM.VDW>
-0.778847

>  <SCORE.SYSTEM.norm>
0.0120313

>  <SCORE.heavy>
62

>  <SCORE.norm>
0.944884

>  <TITLE>
    6321424_D                                                             

$$$$
Ivermectin.pdb
  RxDock  02242101263D
librxdock.so/0.1.0
 65 71  0  0  0  0  0  0  0  0999 V2000
  -49.4267   -1.7095   14.1535 O   0  0  0  0  0  0
  -48.8717   -3.1081   15.9616 O   0  0  0  0  0  0
  -52.2501   -5.2236   15.3832 O   0  0  0  0  0  0
  -54.5934   -9.3308   15.5709 O   0  0  0  0  0  0
  -55.5821   -5.9415   16.3342 O   0  0  0  0  0  0
  -56.5469   -9.5685   13.7488 O   0  0  0  0  0  0
  -54.0115   -4.0530   14.6032 O   0  0  0  0  0  0
  -50.6656   -4.7805   21.8142 O   0  0  0  0  0  0
  -48.9096   -3.1285   22.0404 O   0  0  0  0  0  0
  -48.6297    0.2493   20.4486 O   0  0  0  0  0  0
  -51.0090   -1.2738   19.0952 O   0  0  0  0  0  0
  -48.0480   -0.3968   18.1884 O   0  0  0  0  0  0
  -45.1119    2.4280   19.2209 O   0  0  0  0  0  0
  -44.3705   -0.3296   18.7296 O   0  0  0  0  0  0
  -49.7096   -2.9880   14.7774 C   0  0  0  0  0  0
  -48.4135   -1.7501   13.1246 C   0  0  0  0  0  0
  -49.0219   -2.5168   11.9173 C   0  0  0  0  0  0
  -49.3818   -4.1865   13.8486 C   0  0  0  0  0  0
  -51.2303   -2.9612   15.0778 C   0  0  0  0  0  0
  -49.6124   -3.8799   12.3545 C   0  0  0  0  0  0
  -51.7115   -4.0674   16.0454 C   0  0  0  0  0  0
  -49.5729   -3.4107   17.1938 C   0  0  0  0  0  0
  -50.5870   -4.5447   16.9813 C   0  0  0  0  0  0
  -47.9785   -0.3091   12.7387 C   0  0  0  0  0  0
  -54.7567   -6.9793   15.7834 C   0  0  0  0  0  0
  -54.0076   -6.4966   14.5218 C   0  0  0  0  0  0
  -55.5588   -8.2657   15.5486 C   0  0  0  0  0  0
  -48.0415   -2.7300   10.7488 C   0  0  0  0  0  0
  -48.5725   -3.8382   18.2853 C   0  0  0  0  0  0
  -46.7208    0.1359   13.5254 C   0  0  0  0  0  0
  -56.4535   -8.2408   14.2870 C   0  0  0  0  0  0
  -53.7608   -7.5170   16.7777 C   0  0  0  0  0  0
  -49.1207    0.6899   13.0153 C   0  0  0  0  0  0
  -53.4604   -5.1188   14.8105 C   0  0  0  0  0  0
  -54.9195   -6.5273   13.3242 C   0  0  0  0  0  0
  -56.0035   -7.2721   13.2098 C   0  0  0  0  0  0
  -53.4774   -8.9546   16.4051 C   0  0  0  0  0  0
  -49.2976   -4.4354   19.4753 C   0  0  0  0  0  0
  -46.8318   -0.2160   15.0212 C   0  0  0  0  0  0
  -53.3943   -6.8025   17.8364 C   0  0  0  0  0  0
  -49.2078   -5.6310   20.0397 C   0  0  0  0  0  0
  -50.0661   -5.9658   21.2494 C   0  0  0  0  0  0
  -56.8699   -7.1897   11.9751 C   0  0  0  0  0  0
  -51.1532   -7.0273   20.9661 C   0  0  0  0  0  0
  -52.4493   -7.3322   18.8192 C   0  0  0  0  0  0
  -50.0818   -3.5607   21.3075 C   0  0  0  0  0  0
  -49.0793   -1.1162   20.5755 C   0  0  0  0  0  0
  -50.6234   -1.2239   20.4828 C   0  0  0  0  0  0
  -51.1573   -2.4594   21.2509 C   0  0  0  0  0  0
  -52.1205   -6.6110   19.8841 C   0  0  0  0  0  0
  -48.6161   -1.7173   21.9205 C   0  0  0  0  0  0
  -48.2501   -6.7315   19.6296 C   0  0  0  0  0  0
  -51.9554   -7.2875   22.2517 C   0  0  0  0  0  0
  -48.4623    0.6654   19.0762 C   0  0  0  0  0  0
  -47.4681    1.8405   18.9942 C   0  0  0  0  0  0
  -46.0512    1.3429   19.3401 C   0  0  0  0  0  0
  -45.6718    0.1798   18.3998 C   0  0  0  0  0  0
  -47.1085   -1.4942   22.1198 C   0  0  0  0  0  0
  -46.7450   -0.9220   18.5142 C   0  0  0  0  0  0
  -46.4048   -2.0787   17.5611 C   0  0  0  0  0  0
  -52.2484   -0.5892   18.8302 C   0  0  0  0  0  0
  -43.8828    2.1721   19.9245 C   0  0  0  0  0  0
  -55.7541   -5.2133   15.6617 H   0  0  0  0  0  0
  -56.2477  -10.2575   14.4166 H   0  0  0  0  0  0
  -44.3852   -0.8372   19.5981 H   0  0  0  0  0  0
  1 16  1  0  0  0
  2 15  1  0  0  0
  2 22  1  0  0  0
  3 21  1  0  0  0
  3 34  1  0  0  0
  4 27  1  0  0  0
  4 37  1  0  0  0
  5 25  1  0  0  0
  5 63  1  0  0  0
  6 31  1  0  0  0
  6 64  1  0  0  0
  7 34  2  0  0  0
  8 42  1  0  0  0
  8 46  1  0  0  0
  9 46  1  0  0  0
  9 51  1  0  0  0
 10 47  1  0  0  0
 10 54  1  0  0  0
 11 48  1  0  0  0
 11 61  1  0  0  0
 12 54  1  0  0  0
 12 59  1  0  0  0
 13 56  1  0  0  0
 13 62  1  0  0  0
 14 57  1  0  0  0
 14 65  1  0  0  0
 15  1  1  0  0  0
 15 18  1  0  0  0
 15 19  1  0  0  0
 16 17  1  0  0  0
 16 24  1  0  0  0
 17 20  1  0  0  0
 17 28  1  0  0  0
 18 20  1  0  0  0
 19 21  1  0  0  0
 21 23  1  0  0  0
 22 23  1  0  0  0
 22 29  1  0  0  0
 24 30  1  0  0  0
 24 33  1  0  0  0
 25 26  1  0  0  0
 25 32  1  0  0  0
 26 34  1  0  0  0
 26 35  1  0  0  0
 27 25  1  0  0  0
 29 38  1  0  0  0
 30 39  1  0  0  0
 31 27  1  0  0  0
 31 36  1  0  0  0
 32 37  1  0  0  0
 32 40  2  0  0  0
 35 36  2  0  0  0
 36 43  1  0  0  0
 38 41  2  0  0  0
 40 45  1  0  0  0
 41 42  1  0  0  0
 41 52  1  0  0  0
 42 44  1  0  0  0
 44 50  1  0  0  0
 44 53  1  0  0  0
 45 50  2  0  0  0
 46 49  1  0  0  0
 47 48  1  0  0  0
 48 49  1  0  0  0
 51 47  1  0  0  0
 51 58  1  0  0  0
 54 55  1  0  0  0
 55 56  1  0  0  0
 56 57  1  0  0  0
 57 59  1  0  0  0
 59 60  1  0  0  0
M  END
>  <CHROM.0>
32.91334880,83.72531870,-43.85275769

>  <CHROM.1>
18.20060195,15.98123282,-13.25536390,-86.66610035,-85.51649752,-32.24067994
-144.37082058,161.18352068,71.49987738,94.73386612,-45.22291895,-50.36811182
-3.53095876,17.19042069,-0.20697167,-0.79352262,-1.38308246

>  <HEADER>
                                                                          

>  <MASTER>
        0    0    0    0    0    0    0    0  136    0  136    0          

>  <Name>
Ivermectin.pdb

>  <RI>
-6.88282e+08

>  <Rbt.Current_Directory>
/root/miniconda3/envs/rdock/share/rxdock-2013.1.1_148c5bd1-0/data/ligands/prepped_ligands/Ivermectin

>  <Rbt.Executable>
rbdock/0.1.0

>  <Rbt.Library>
librxdock.so/0.1.0

>  <Rbt.Parameter_File>
/root/miniconda3/envs/rdock/share/rxdock-2013.1.1_148c5bd1-0/data/scripts/dock.prm

>  <Rbt.Receptor>
def.prm

>  <SCORE>
187.869

>  <SCORE.INTER>
160.391

>  <SCORE.INTER.CONST>
1

>  <SCORE.INTER.POLAR>
-1.09023

>  <SCORE.INTER.REPUL>
1.1975

>  <SCORE.INTER.ROT>
8

>  <SCORE.INTER.VDW>
144.711

>  <SCORE.INTER.norm>
2.58696

>  <SCORE.INTRA>
19.6217

>  <SCORE.INTRA.DIHEDRAL>
8.55064

>  <SCORE.INTRA.DIHEDRAL.0>
29.9071

>  <SCORE.INTRA.POLAR>
-0.101275

>  <SCORE.INTRA.POLAR.0>
0

>  <SCORE.INTRA.REPUL>
0

>  <SCORE.INTRA.REPUL.0>
0

>  <SCORE.INTRA.VDW>
15.6907

>  <SCORE.INTRA.VDW.0>
1.27762

>  <SCORE.INTRA.norm>
0.316478

>  <SCORE.RESTR>
6.41709

>  <SCORE.RESTR.CAVITY>
6.41709

>  <SCORE.RESTR.norm>
0.103501

>  <SCORE.SYSTEM>
1.43864

>  <SCORE.SYSTEM.CONST>
0

>  <SCORE.SYSTEM.DIHEDRAL>
4.5732

>  <SCORE.SYSTEM.POLAR>
-0.0201226

>  <SCORE.SYSTEM.VDW>
-0.779546

>  <SCORE.SYSTEM.norm>
0.0232038

>  <SCORE.heavy>
62

>  <SCORE.norm>
3.03014

>  <TITLE>
    6321424_D                                                             

$$$$
Ivermectin.pdb
  RxDock  02242101263D
librxdock.so/0.1.0
 65 71  0  0  0  0  0  0  0  0999 V2000
  -44.5427   -0.2697   19.3367 O   0  0  0  0  0  0
  -45.9323    0.0534   17.4665 O   0  0  0  0  0  0
  -49.1581   -0.9142   19.6761 O   0  0  0  0  0  0
  -53.7674   -0.4220   20.6287 O   0  0  0  0  0  0
  -51.5939   -3.3069   20.6053 O   0  0  0  0  0  0
  -54.4111   -0.8359   23.1991 O   0  0  0  0  0  0
  -48.8047   -2.4336   21.3033 O   0  0  0  0  0  0
  -49.7384   -2.9796   13.3943 O   0  0  0  0  0  0
  -48.4942   -3.8562   15.2777 O   0  0  0  0  0  0
  -49.5497   -6.3831   17.8315 O   0  0  0  0  0  0
  -52.0699   -5.5789   16.1540 O   0  0  0  0  0  0
  -48.1400   -6.7323   19.7694 O   0  0  0  0  0  0
  -52.0247   -6.5484   21.3636 O   0  0  0  0  0  0
  -50.4990   -9.0063   21.5260 O   0  0  0  0  0  0
  -45.9154   -0.0605   18.9176 C   0  0  0  0  0  0
  -43.8233    0.9367   19.6743 C   0  0  0  0  0  0
  -44.4356    1.4764   20.9969 C   0  0  0  0  0  0
  -46.5198    1.2456   19.4967 C   0  0  0  0  0  0
  -46.6941   -1.2838   19.4659 C   0  0  0  0  0  0
  -45.9759    1.6001   20.8960 C   0  0  0  0  0  0
  -48.1075   -1.4650   18.8648 C   0  0  0  0  0  0
  -46.8457   -0.8400   16.7813 C   0  0  0  0  0  0
  -48.2225   -0.8418   17.4625 C   0  0  0  0  0  0
  -42.3050    0.6377   19.8160 C   0  0  0  0  0  0
  -51.9273   -1.9103   20.6058 C   0  0  0  0  0  0
  -50.8323   -1.0676   21.2962 C   0  0  0  0  0  0
  -53.3256   -1.6700   21.1894 C   0  0  0  0  0  0
  -43.8397    2.8172   21.4650 C   0  0  0  0  0  0
  -47.0190   -0.4024   15.3140 C   0  0  0  0  0  0
  -41.4452    1.8753   19.4586 C   0  0  0  0  0  0
  -53.3949   -1.7368   22.7332 C   0  0  0  0  0  0
  -52.1696   -1.3717   19.2200 C   0  0  0  0  0  0
  -41.8997   -0.5344   18.8989 C   0  0  0  0  0  0
  -49.4926   -1.5618   20.8042 C   0  0  0  0  0  0
  -50.9735   -1.1456   22.7931 C   0  0  0  0  0  0
  -52.0827   -1.4528   23.4396 C   0  0  0  0  0  0
  -53.1431   -0.2214   19.3431 C   0  0  0  0  0  0
  -48.1797   -1.1334   14.6683 C   0  0  0  0  0  0
  -40.0329    1.7814   20.0669 C   0  0  0  0  0  0
  -51.6764   -1.9854   18.1495 C   0  0  0  0  0  0
  -49.2903   -0.6794   14.1055 C   0  0  0  0  0  0
  -50.2991   -1.6557   13.5214 C   0  0  0  0  0  0
  -52.0976   -1.5433   24.9475 C   0  0  0  0  0  0
  -51.6310   -1.7160   14.3033 C   0  0  0  0  0  0
  -51.9330   -1.4817   16.8005 C   0  0  0  0  0  0
  -49.7826   -3.7283   14.6284 C   0  0  0  0  0  0
  -49.7387   -5.3609   16.8305 C   0  0  0  0  0  0
  -50.7174   -5.8192   15.7185 C   0  0  0  0  0  0
  -50.4323   -5.1018   14.3748 C   0  0  0  0  0  0
  -51.4538   -2.1285   15.7449 C   0  0  0  0  0  0
  -48.3896   -4.9794   16.1830 C   0  0  0  0  0  0
  -49.6509    0.7800   13.9148 C   0  0  0  0  0  0
  -52.5707   -2.7278   13.6274 C   0  0  0  0  0  0
  -49.0727   -5.8618   19.0906 C   0  0  0  0  0  0
  -50.2615   -5.5366   20.0163 C   0  0  0  0  0  0
  -50.9412   -6.8456   20.4628 C   0  0  0  0  0  0
  -49.8986   -7.7611   21.1378 C   0  0  0  0  0  0
  -47.3431   -4.6641   17.2636 C   0  0  0  0  0  0
  -48.7295   -7.9897   20.1580 C   0  0  0  0  0  0
  -47.6618   -8.8740   20.8214 C   0  0  0  0  0  0
  -53.0554   -6.1466   15.2700 C   0  0  0  0  0  0
  -52.9111   -7.6673   21.5469 C   0  0  0  0  0  0
  -51.5797   -3.6814   21.5390 H   0  0  0  0  0  0
  -54.9969   -1.2692   23.8915 H   0  0  0  0  0  0
  -50.9058   -9.4786   20.7363 H   0  0  0  0  0  0
  1 16  1  0  0  0
  2 15  1  0  0  0
  2 22  1  0  0  0
  3 21  1  0  0  0
  3 34  1  0  0  0
  4 27  1  0  0  0
  4 37  1  0  0  0
  5 25  1  0  0  0
  5 63  1  0  0  0
  6 31  1  0  0  0
  6 64  1  0  0  0
  7 34  2  0  0  0
  8 42  1  0  0  0
  8 46  1  0  0  0
  9 46  1  0  0  0
  9 51  1  0  0  0
 10 47  1  0  0  0
 10 54  1  0  0  0
 11 48  1  0  0  0
 11 61  1  0  0  0
 12 54  1  0  0  0
 12 59  1  0  0  0
 13 56  1  0  0  0
 13 62  1  0  0  0
 14 57  1  0  0  0
 14 65  1  0  0  0
 15  1  1  0  0  0
 15 18  1  0  0  0
 15 19  1  0  0  0
 16 17  1  0  0  0
 16 24  1  0  0  0
 17 20  1  0  0  0
 17 28  1  0  0  0
 18 20  1  0  0  0
 19 21  1  0  0  0
 21 23  1  0  0  0
 22 23  1  0  0  0
 22 29  1  0  0  0
 24 30  1  0  0  0
 24 33  1  0  0  0
 25 26  1  0  0  0
 25 32  1  0  0  0
 26 34  1  0  0  0
 26 35  1  0  0  0
 27 25  1  0  0  0
 29 38  1  0  0  0
 30 39  1  0  0  0
 31 27  1  0  0  0
 31 36  1  0  0  0
 32 37  1  0  0  0
 32 40  2  0  0  0
 35 36  2  0  0  0
 36 43  1  0  0  0
 38 41  2  0  0  0
 40 45  1  0  0  0
 41 42  1  0  0  0
 41 52  1  0  0  0
 42 44  1  0  0  0
 44 50  1  0  0  0
 44 53  1  0  0  0
 45 50  2  0  0  0
 46 49  1  0  0  0
 47 48  1  0  0  0
 48 49  1  0  0  0
 51 47  1  0  0  0
 51 58  1  0  0  0
 54 55  1  0  0  0
 55 56  1  0  0  0
 56 57  1  0  0  0
 57 59  1  0  0  0
 59 60  1  0  0  0
M  END
>  <CHROM.0>
-161.68289209,177.84781046,13.98518412

>  <CHROM.1>
65.78327015,134.13186479,82.17193178,-105.88878243,-158.56381408,-143.73606061
-171.65006858,164.93174937,57.74818650,150.92423228,159.15892741,-49.14582723
-2.55398867,18.73075060,0.10211247,0.66670888,1.41238157

>  <HEADER>
                                                                          

>  <MASTER>
        0    0    0    0    0    0    0    0  136    0  136    0          

>  <Name>
Ivermectin.pdb

>  <RI>
-6.88282e+08

>  <Rbt.Current_Directory>
/root/miniconda3/envs/rdock/share/rxdock-2013.1.1_148c5bd1-0/data/ligands/prepped_ligands/Ivermectin

>  <Rbt.Executable>
rbdock/0.1.0

>  <Rbt.Library>
librxdock.so/0.1.0

>  <Rbt.Parameter_File>
/root/miniconda3/envs/rdock/share/rxdock-2013.1.1_148c5bd1-0/data/scripts/dock.prm

>  <Rbt.Receptor>
def.prm

>  <SCORE>
40.0644

>  <SCORE.INTER>
12.2037

>  <SCORE.INTER.CONST>
1

>  <SCORE.INTER.POLAR>
-0.65547

>  <SCORE.INTER.REPUL>
0.148129

>  <SCORE.INTER.ROT>
8

>  <SCORE.INTER.VDW>
0.2917

>  <SCORE.INTER.norm>
0.196835

>  <SCORE.INTRA>
6.18586

>  <SCORE.INTRA.DIHEDRAL>
-2.29722

>  <SCORE.INTRA.DIHEDRAL.0>
29.9071

>  <SCORE.INTRA.POLAR>
0

>  <SCORE.INTRA.POLAR.0>
0

>  <SCORE.INTRA.REPUL>
0.0223634

>  <SCORE.INTRA.REPUL.0>
0

>  <SCORE.INTRA.VDW>
7.22266

>  <SCORE.INTRA.VDW.0>
1.27762

>  <SCORE.INTRA.norm>
0.099772

>  <SCORE.RESTR>
20.1709

>  <SCORE.RESTR.CAVITY>
20.1709

>  <SCORE.RESTR.norm>
0.325337

>  <SCORE.SYSTEM>
1.50384

>  <SCORE.SYSTEM.CONST>
0

>  <SCORE.SYSTEM.DIHEDRAL>
3.92656

>  <SCORE.SYSTEM.VDW>
-0.459444

>  <SCORE.SYSTEM.norm>
0.0242554

>  <SCORE.heavy>
62

>  <SCORE.norm>
0.646199

>  <TITLE>
    6321424_D                                                             

$$$$
Ivermectin.pdb
  RxDock  02242101263D
librxdock.so/0.1.0
 65 71  0  0  0  0  0  0  0  0999 V2000
  -49.5428   -6.4200   18.8556 O   0  0  0  0  0  0
  -49.1598   -5.7215   16.6424 O   0  0  0  0  0  0
  -46.9133   -2.6580   17.9809 O   0  0  0  0  0  0
  -43.2904    0.3288   17.3894 O   0  0  0  0  0  0
  -46.6148    0.7886   18.7254 O   0  0  0  0  0  0
  -42.1744    1.1732   19.6772 O   0  0  0  0  0  0
  -47.5334   -1.7893   19.9664 O   0  0  0  0  0  0
  -50.3363   -1.0337   12.5303 O   0  0  0  0  0  0
  -51.9896   -2.3659   13.6946 O   0  0  0  0  0  0
  -52.6770   -2.5889   17.3688 O   0  0  0  0  0  0
  -50.0142   -0.9882   16.9690 O   0  0  0  0  0  0
  -52.8190   -3.9859   19.3418 O   0  0  0  0  0  0
  -50.7952   -0.5523   20.6763 O   0  0  0  0  0  0
  -53.4219   -1.1918   21.7189 O   0  0  0  0  0  0
  -48.6911   -5.6003   18.0151 C   0  0  0  0  0  0
  -49.0613   -7.7642   19.0755 C   0  0  0  0  0  0
  -47.8038   -7.6542   19.9821 C   0  0  0  0  0  0
  -47.2094   -6.0588   18.0460 C   0  0  0  0  0  0
  -48.8068   -4.1690   18.5997 C   0  0  0  0  0  0
  -46.7811   -6.6432   19.4077 C   0  0  0  0  0  0
  -48.2608   -3.0544   17.6771 C   0  0  0  0  0  0
  -49.4413   -4.4701   15.9666 C   0  0  0  0  0  0
  -48.3070   -3.4594   16.1932 C   0  0  0  0  0  0
  -50.1719   -8.6355   19.7251 C   0  0  0  0  0  0
  -45.4661    0.0518   18.2787 C   0  0  0  0  0  0
  -45.3320   -1.2939   19.0251 C   0  0  0  0  0  0
  -44.1932    0.9051   18.3484 C   0  0  0  0  0  0
  -47.1038   -8.9991   20.2528 C   0  0  0  0  0  0
  -49.5998   -4.7062   14.4520 C   0  0  0  0  0  0
  -51.4479   -8.6781   18.8483 C   0  0  0  0  0  0
  -43.6026    1.0586   19.7698 C   0  0  0  0  0  0
  -45.4819   -0.2026   16.7940 C   0  0  0  0  0  0
  -50.5408   -8.0861   21.1183 C   0  0  0  0  0  0
  -46.7029   -1.9247   19.0864 C   0  0  0  0  0  0
  -44.7213   -1.0830   20.3850 C   0  0  0  0  0  0
  -43.9750   -0.0515   20.7342 C   0  0  0  0  0  0
  -44.0450   -0.3052   16.3351 C   0  0  0  0  0  0
  -49.6001   -3.3899   13.6997 C   0  0  0  0  0  0
  -51.9989   -7.2651   18.5771 C   0  0  0  0  0  0
  -46.6169   -0.1662   16.1037 C   0  0  0  0  0  0
  -48.8059   -2.9338   12.7419 C   0  0  0  0  0  0
  -49.0435   -1.5525   12.1523 C   0  0  0  0  0  0
  -43.4486    0.0781   22.1443 C   0  0  0  0  0  0
  -47.9384   -0.5294   12.4997 C   0  0  0  0  0  0
  -46.6328   -0.3845   14.6576 C   0  0  0  0  0  0
  -50.7984   -1.5484   13.7980 C   0  0  0  0  0  0
  -51.8876   -2.3369   16.1872 C   0  0  0  0  0  0
  -51.2420   -0.9274   16.2170 C   0  0  0  0  0  0
  -50.9900   -0.3838   14.7879 C   0  0  0  0  0  0
  -47.7754   -0.3146   13.9853 C   0  0  0  0  0  0
  -52.7569   -2.4618   14.9169 C   0  0  0  0  0  0
  -47.6710   -3.7022   12.0952 C   0  0  0  0  0  0
  -48.2790    0.8239   11.8544 C   0  0  0  0  0  0
  -51.9620   -3.3307   18.3802 C   0  0  0  0  0  0
  -50.9603   -2.4109   19.1059 C   0  0  0  0  0  0
  -51.7280   -1.3848   19.9616 C   0  0  0  0  0  0
  -52.6636   -2.1281   20.9380 C   0  0  0  0  0  0
  -53.5350   -3.7873   14.9245 C   0  0  0  0  0  0
  -53.5917   -3.0558   20.1276 C   0  0  0  0  0  0
  -54.5123   -3.8318   21.0829 C   0  0  0  0  0  0
  -49.5998    0.2950   17.4754 C   0  0  0  0  0  0
  -50.8640    0.8265   20.2694 C   0  0  0  0  0  0
  -46.7391    1.6332   18.1931 H   0  0  0  0  0  0
  -41.7742    0.3926   19.1866 H   0  0  0  0  0  0
  -53.5042   -1.4942   22.6750 H   0  0  0  0  0  0
  1 16  1  0  0  0
  2 15  1  0  0  0
  2 22  1  0  0  0
  3 21  1  0  0  0
  3 34  1  0  0  0
  4 27  1  0  0  0
  4 37  1  0  0  0
  5 25  1  0  0  0
  5 63  1  0  0  0
  6 31  1  0  0  0
  6 64  1  0  0  0
  7 34  2  0  0  0
  8 42  1  0  0  0
  8 46  1  0  0  0
  9 46  1  0  0  0
  9 51  1  0  0  0
 10 47  1  0  0  0
 10 54  1  0  0  0
 11 48  1  0  0  0
 11 61  1  0  0  0
 12 54  1  0  0  0
 12 59  1  0  0  0
 13 56  1  0  0  0
 13 62  1  0  0  0
 14 57  1  0  0  0
 14 65  1  0  0  0
 15  1  1  0  0  0
 15 18  1  0  0  0
 15 19  1  0  0  0
 16 17  1  0  0  0
 16 24  1  0  0  0
 17 20  1  0  0  0
 17 28  1  0  0  0
 18 20  1  0  0  0
 19 21  1  0  0  0
 21 23  1  0  0  0
 22 23  1  0  0  0
 22 29  1  0  0  0
 24 30  1  0  0  0
 24 33  1  0  0  0
 25 26  1  0  0  0
 25 32  1  0  0  0
 26 34  1  0  0  0
 26 35  1  0  0  0
 27 25  1  0  0  0
 29 38  1  0  0  0
 30 39  1  0  0  0
 31 27  1  0  0  0
 31 36  1  0  0  0
 32 37  1  0  0  0
 32 40  2  0  0  0
 35 36  2  0  0  0
 36 43  1  0  0  0
 38 41  2  0  0  0
 40 45  1  0  0  0
 41 42  1  0  0  0
 41 52  1  0  0  0
 42 44  1  0  0  0
 44 50  1  0  0  0
 44 53  1  0  0  0
 45 50  2  0  0  0
 46 49  1  0  0  0
 47 48  1  0  0  0
 48 49  1  0  0  0
 51 47  1  0  0  0
 51 58  1  0  0  0
 54 55  1  0  0  0
 55 56  1  0  0  0
 56 57  1  0  0  0
 57 59  1  0  0  0
 59 60  1  0  0  0
M  END
>  <CHROM.0>
101.69912971,-87.50033254,92.03788386

>  <CHROM.1>
-175.88834074,-55.83860518,28.22912897,-115.17592030,-96.85049505,-159.83042261
-158.36925149,115.58350076,-139.98529370,57.94765456,-57.22002442,-48.89495219
-2.63332938,17.55916851,-2.68137110,-0.56347819,-1.01232711

>  <HEADER>
                                                                          

>  <MASTER>
        0    0    0    0    0    0    0    0  136    0  136    0          

>  <Name>
Ivermectin.pdb

>  <RI>
-6.88282e+08

>  <Rbt.Current_Directory>
/root/miniconda3/envs/rdock/share/rxdock-2013.1.1_148c5bd1-0/data/ligands/prepped_ligands/Ivermectin

>  <Rbt.Executable>
rbdock/0.1.0

>  <Rbt.Library>
librxdock.so/0.1.0

>  <Rbt.Parameter_File>
/root/miniconda3/envs/rdock/share/rxdock-2013.1.1_148c5bd1-0/data/scripts/dock.prm

>  <Rbt.Receptor>
def.prm

>  <SCORE>
133.198

>  <SCORE.INTER>
105.96

>  <SCORE.INTER.CONST>
1

>  <SCORE.INTER.POLAR>
-0.284093

>  <SCORE.INTER.REPUL>
0.0604552

>  <SCORE.INTER.ROT>
8

>  <SCORE.INTER.VDW>
93.2234

>  <SCORE.INTER.norm>
1.70903

>  <SCORE.INTRA>
16.6658

>  <SCORE.INTRA.DIHEDRAL>
2.7377

>  <SCORE.INTRA.DIHEDRAL.0>
29.9071

>  <SCORE.INTRA.POLAR>
0

>  <SCORE.INTRA.POLAR.0>
0

>  <SCORE.INTRA.REPUL>
0.117545

>  <SCORE.INTRA.REPUL.0>
0

>  <SCORE.INTRA.VDW>
14.7093

>  <SCORE.INTRA.VDW.0>
1.27762

>  <SCORE.INTRA.norm>
0.268804

>  <SCORE.RESTR>
6.79876

>  <SCORE.RESTR.CAVITY>
6.79876

>  <SCORE.RESTR.norm>
0.109657

>  <SCORE.SYSTEM>
3.77343

>  <SCORE.SYSTEM.CONST>
0

>  <SCORE.SYSTEM.DIHEDRAL>
7.92971

>  <SCORE.SYSTEM.POLAR>
-0.00919714

>  <SCORE.SYSTEM.VDW>
-0.160151

>  <SCORE.SYSTEM.norm>
0.0608618

>  <SCORE.heavy>
62

>  <SCORE.norm>
2.14835

>  <TITLE>
    6321424_D                                                             

$$$$
