Ivermectin.pdb
  RxDock  02242111023D
librxdock.so/0.1.0
 65 71  0  0  0  0  0  0  0  0999 V2000
  -44.8484    0.0192   20.1223 O   0  0  0  0  0  0
  -46.0899    0.4168   18.1642 O   0  0  0  0  0  0
  -49.4036   -1.0079   19.9567 O   0  0  0  0  0  0
  -54.1043   -0.9669   20.5026 O   0  0  0  0  0  0
  -51.6984   -3.6602   20.4266 O   0  0  0  0  0  0
  -54.9348   -1.6796   22.9510 O   0  0  0  0  0  0
  -49.0668   -2.6482   21.4657 O   0  0  0  0  0  0
  -49.2476   -2.4846   13.4868 O   0  0  0  0  0  0
  -48.0725   -3.5252   15.3307 O   0  0  0  0  0  0
  -49.1964   -6.3019   17.5776 O   0  0  0  0  0  0
  -51.6539   -5.3689   15.8739 O   0  0  0  0  0  0
  -47.8505   -6.9463   19.4849 O   0  0  0  0  0  0
  -51.6640   -6.2722   21.1186 O   0  0  0  0  0  0
  -50.5151   -8.9319   21.1518 O   0  0  0  0  0  0
  -46.1915    0.1626   19.5939 C   0  0  0  0  0  0
  -44.2675    1.2383   20.6355 C   0  0  0  0  0  0
  -45.0383    1.5968   21.9365 C   0  0  0  0  0  0
  -46.9542    1.3552   20.2283 C   0  0  0  0  0  0
  -46.9082   -1.1648   19.9515 C   0  0  0  0  0  0
  -46.5685    1.6112   21.6997 C   0  0  0  0  0  0
  -48.2422   -1.3941   19.2035 C   0  0  0  0  0  0
  -46.8593   -0.4724   17.3162 C   0  0  0  0  0  0
  -48.2857   -0.6467   17.8590 C   0  0  0  0  0  0
  -42.7478    1.0443   20.8948 C   0  0  0  0  0  0
  -52.1489   -2.3002   20.5217 C   0  0  0  0  0  0
  -51.1953   -1.4478   21.3877 C   0  0  0  0  0  0
  -53.6086   -2.2263   20.9876 C   0  0  0  0  0  0
  -44.6030    2.9268   22.5795 C   0  0  0  0  0  0
  -46.9390    0.0927   15.8848 C   0  0  0  0  0  0
  -41.9697    0.8152   19.5753 C   0  0  0  0  0  0
  -53.8082   -2.4497   22.5052 C   0  0  0  0  0  0
  -52.3128   -1.6482   19.1736 C   0  0  0  0  0  0
  -42.5110   -0.1592   21.8301 C   0  0  0  0  0  0
  -49.7800   -1.7869   20.9839 C   0  0  0  0  0  0
  -51.4610   -1.6831   22.8508 C   0  0  0  0  0  0
  -52.5927   -2.1366   23.3572 C   0  0  0  0  0  0
  -53.3882   -0.5937   19.3064 C   0  0  0  0  0  0
  -47.9713   -0.6583   15.0669 C   0  0  0  0  0  0
  -40.4725    1.1418   19.7341 C   0  0  0  0  0  0
  -51.6763   -2.1141   18.1042 C   0  0  0  0  0  0
  -49.0625   -0.2378   14.4435 C   0  0  0  0  0  0
  -49.9286   -1.2266   13.6790 C   0  0  0  0  0  0
  -52.7330   -2.3756   24.8422 C   0  0  0  0  0  0
  -51.3143   -1.4654   14.3206 C   0  0  0  0  0  0
  -51.8548   -1.5015   16.7881 C   0  0  0  0  0  0
  -49.3332   -3.3505   14.6393 C   0  0  0  0  0  0
  -49.3584   -5.1893   16.6728 C   0  0  0  0  0  0
  -50.2799   -5.5490   15.4786 C   0  0  0  0  0  0
  -49.9483   -4.7006   14.2249 C   0  0  0  0  0  0
  -51.2306   -2.0027   15.7291 C   0  0  0  0  0  0
  -47.9888   -4.7300   16.1267 C   0  0  0  0  0  0
  -49.5284    1.2013   14.3522 C   0  0  0  0  0  0
  -52.1006   -2.4751   13.4685 C   0  0  0  0  0  0
  -48.6463   -5.9170   18.8558 C   0  0  0  0  0  0
  -49.7733   -5.4660   19.8058 C   0  0  0  0  0  0
  -50.6371   -6.6813   20.1956 C   0  0  0  0  0  0
  -49.7391   -7.7709   20.8178 C   0  0  0  0  0  0
  -46.9959   -4.5086   17.2789 C   0  0  0  0  0  0
  -48.6175   -8.1210   19.8185 C   0  0  0  0  0  0
  -47.6902   -9.1829   20.4304 C   0  0  0  0  0  0
  -52.5888   -5.9339   14.9349 C   0  0  0  0  0  0
  -52.8420   -7.0944   21.0314 C   0  0  0  0  0  0
  -51.6213   -4.0859   21.3349 H   0  0  0  0  0  0
  -55.7788   -1.9573   22.4812 H   0  0  0  0  0  0
  -49.9303   -9.6800   21.4844 H   0  0  0  0  0  0
  1 16  1  0  0  0
  2 15  1  0  0  0
  2 22  1  0  0  0
  3 21  1  0  0  0
  3 34  1  0  0  0
  4 27  1  0  0  0
  4 37  1  0  0  0
  5 25  1  0  0  0
  5 63  1  0  0  0
  6 31  1  0  0  0
  6 64  1  0  0  0
  7 34  2  0  0  0
  8 42  1  0  0  0
  8 46  1  0  0  0
  9 46  1  0  0  0
  9 51  1  0  0  0
 10 47  1  0  0  0
 10 54  1  0  0  0
 11 48  1  0  0  0
 11 61  1  0  0  0
 12 54  1  0  0  0
 12 59  1  0  0  0
 13 56  1  0  0  0
 13 62  1  0  0  0
 14 57  1  0  0  0
 14 65  1  0  0  0
 15  1  1  0  0  0
 15 18  1  0  0  0
 15 19  1  0  0  0
 16 17  1  0  0  0
 16 24  1  0  0  0
 17 20  1  0  0  0
 17 28  1  0  0  0
 18 20  1  0  0  0
 19 21  1  0  0  0
 21 23  1  0  0  0
 22 23  1  0  0  0
 22 29  1  0  0  0
 24 30  1  0  0  0
 24 33  1  0  0  0
 25 26  1  0  0  0
 25 32  1  0  0  0
 26 34  1  0  0  0
 26 35  1  0  0  0
 27 25  1  0  0  0
 29 38  1  0  0  0
 30 39  1  0  0  0
 31 27  1  0  0  0
 31 36  1  0  0  0
 32 37  1  0  0  0
 32 40  2  0  0  0
 35 36  2  0  0  0
 36 43  1  0  0  0
 38 41  2  0  0  0
 40 45  1  0  0  0
 41 42  1  0  0  0
 41 52  1  0  0  0
 42 44  1  0  0  0
 44 50  1  0  0  0
 44 53  1  0  0  0
 45 50  2  0  0  0
 46 49  1  0  0  0
 47 48  1  0  0  0
 48 49  1  0  0  0
 51 47  1  0  0  0
 51 58  1  0  0  0
 54 55  1  0  0  0
 55 56  1  0  0  0
 56 57  1  0  0  0
 57 59  1  0  0  0
 59 60  1  0  0  0
M  END
>  <CHROM.0>
-50.15723021,-175.54856932,-34.98073649

>  <CHROM.1>
58.42072996,60.67995358,82.00235397,-110.54859672,-164.84675135,-149.53802994
-168.02541441,151.57207095,175.06706162,66.11892566,158.74455765,-49.17876412
-2.54703004,18.87051937,0.19659661,0.67948641,1.41426393

>  <HEADER>
                                                                          

>  <MASTER>
        0    0    0    0    0    0    0    0  136    0  136    0          

>  <Name>
Ivermectin.pdb

>  <RI>
-6.2024e+08

>  <Rbt.Current_Directory>
/root/miniconda3/envs/rdock/share/rxdock-2013.1.1_148c5bd1-0/data/ligands/prepped_ligands/Ivermectin

>  <Rbt.Executable>
rbdock/0.1.0

>  <Rbt.Library>
librxdock.so/0.1.0

>  <Rbt.Parameter_File>
/root/miniconda3/envs/rdock/share/rxdock-2013.1.1_148c5bd1-0/data/scripts/dock.prm

>  <Rbt.Receptor>
def.prm

>  <SCORE>
60.5994

>  <SCORE.INTER>
41.8616

>  <SCORE.INTER.CONST>
1

>  <SCORE.INTER.POLAR>
-0.361951

>  <SCORE.INTER.REPUL>
0.51572

>  <SCORE.INTER.ROT>
8

>  <SCORE.INTER.VDW>
27.1136

>  <SCORE.INTER.norm>
0.675187

>  <SCORE.INTRA>
1.62643

>  <SCORE.INTRA.DIHEDRAL>
-9.8923

>  <SCORE.INTRA.DIHEDRAL.0>
29.9071

>  <SCORE.INTRA.POLAR>
-0.160929

>  <SCORE.INTRA.POLAR.0>
0

>  <SCORE.INTRA.REPUL>
0

>  <SCORE.INTRA.REPUL.0>
0

>  <SCORE.INTRA.VDW>
7.11973

>  <SCORE.INTRA.VDW.0>
1.27762

>  <SCORE.INTRA.norm>
0.0262327

>  <SCORE.RESTR>
17.0939

>  <SCORE.RESTR.CAVITY>
17.0939

>  <SCORE.RESTR.norm>
0.275708

>  <SCORE.SYSTEM>
0.0174948

>  <SCORE.SYSTEM.CONST>
0

>  <SCORE.SYSTEM.DIHEDRAL>
1.64512

>  <SCORE.SYSTEM.POLAR>
-0.016311

>  <SCORE.SYSTEM.VDW>
-0.749607

>  <SCORE.SYSTEM.norm>
0.000282174

>  <SCORE.heavy>
62

>  <SCORE.norm>
0.97741

>  <TITLE>
    6321424_D                                                             

$$$$
Ivermectin.pdb
  RxDock  02242111023D
librxdock.so/0.1.0
 65 71  0  0  0  0  0  0  0  0999 V2000
  -49.6331   -6.9765   18.8568 O   0  0  0  0  0  0
  -49.4742   -6.0172   16.7149 O   0  0  0  0  0  0
  -47.9170   -2.6645   18.3144 O   0  0  0  0  0  0
  -45.0544    1.0886   17.9748 O   0  0  0  0  0  0
  -48.3602    0.6829   19.3729 O   0  0  0  0  0  0
  -44.0873    1.9521   20.3225 O   0  0  0  0  0  0
  -48.6569   -2.1338   20.3766 O   0  0  0  0  0  0
  -51.7631   -1.3588   13.0640 O   0  0  0  0  0  0
  -51.0884   -0.9725   15.3573 O   0  0  0  0  0  0
  -51.8883   -2.9726   18.4202 O   0  0  0  0  0  0
  -53.6669   -4.0328   16.0696 O   0  0  0  0  0  0
  -54.0401   -3.6415   19.3073 O   0  0  0  0  0  0
  -51.2753   -5.2734   22.0201 O   0  0  0  0  0  0
  -53.1095   -3.2017   22.8797 O   0  0  0  0  0  0
  -49.0054   -5.9178   18.0894 C   0  0  0  0  0  0
  -48.8629   -8.1954   18.9475 C   0  0  0  0  0  0
  -47.6352   -7.8914   19.8508 C   0  0  0  0  0  0
  -47.4589   -6.0389   18.0664 C   0  0  0  0  0  0
  -49.4155   -4.6050   18.8050 C   0  0  0  0  0  0
  -46.8753   -6.6328   19.3648 C   0  0  0  0  0  0
  -49.1529   -3.3201   17.9855 C   0  0  0  0  0  0
  -50.0417   -4.8039   16.1601 C   0  0  0  0  0  0
  -49.1505   -3.5919   16.4709 C   0  0  0  0  0  0
  -49.7371   -9.3444   19.5219 C   0  0  0  0  0  0
  -47.0909    0.2604   18.8511 C   0  0  0  0  0  0
  -46.6446   -1.0832   19.4685 C   0  0  0  0  0  0
  -46.0345    1.3641   18.9899 C   0  0  0  0  0  0
  -46.6504   -9.0672   19.9903 C   0  0  0  0  0  0
  -50.1868   -4.9338   14.6315 C   0  0  0  0  0  0
  -51.2476   -9.0211   19.4101 C   0  0  0  0  0  0
  -45.4525    1.5174   20.4149 C   0  0  0  0  0  0
  -47.0919    0.1416   17.3494 C   0  0  0  0  0  0
  -49.3882   -9.5969   21.0030 C   0  0  0  0  0  0
  -47.8417   -2.0040   19.4815 C   0  0  0  0  0  0
  -46.0572   -0.8642   20.8374 C   0  0  0  0  0  0
  -45.5457    0.2713   21.2751 C   0  0  0  0  0  0
  -45.6808    0.3998   16.8720 C   0  0  0  0  0  0
  -50.4964   -3.5886   14.0045 C   0  0  0  0  0  0
  -51.7192   -8.1046   20.5552 C   0  0  0  0  0  0
  -48.2261   -0.0123   16.6741 C   0  0  0  0  0  0
  -49.8483   -2.8854   13.0870 C   0  0  0  0  0  0
  -50.3991   -1.5439   12.6298 C   0  0  0  0  0  0
  -45.0214    0.3883   22.6870 C   0  0  0  0  0  0
  -49.5357   -0.3370   13.0621 C   0  0  0  0  0  0
  -48.2340   -0.0996   15.2141 C   0  0  0  0  0  0
  -51.9597   -1.6959   14.4544 C   0  0  0  0  0  0
  -52.0864   -2.4765   17.0795 C   0  0  0  0  0  0
  -52.2831   -3.6306   16.0627 C   0  0  0  0  0  0
  -51.8325   -3.2201   14.6379 C   0  0  0  0  0  0
  -49.3824   -0.2242   14.5599 C   0  0  0  0  0  0
  -50.8819   -1.6184   16.6349 C   0  0  0  0  0  0
  -48.5912   -3.3238   12.3633 C   0  0  0  0  0  0
  -50.1824    0.9595   12.5476 C   0  0  0  0  0  0
  -52.7722   -4.0635   18.7570 C   0  0  0  0  0  0
  -52.0721   -5.0351   19.7275 C   0  0  0  0  0  0
  -51.8884   -4.3534   21.0973 C   0  0  0  0  0  0
  -53.2594   -3.8780   21.6221 C   0  0  0  0  0  0
  -50.5580   -0.5537   17.6950 C   0  0  0  0  0  0
  -53.9020   -2.9541   20.5674 C   0  0  0  0  0  0
  -55.2847   -2.4931   21.0549 C   0  0  0  0  0  0
  -53.8751   -5.3438   15.5103 C   0  0  0  0  0  0
  -49.8541   -5.3858   21.8230 C   0  0  0  0  0  0
  -48.6522    1.5557   18.9665 H   0  0  0  0  0  0
  -43.7661    2.3414   21.1916 H   0  0  0  0  0  0
  -53.7534   -3.5576   23.5660 H   0  0  0  0  0  0
  1 16  1  0  0  0
  2 15  1  0  0  0
  2 22  1  0  0  0
  3 21  1  0  0  0
  3 34  1  0  0  0
  4 27  1  0  0  0
  4 37  1  0  0  0
  5 25  1  0  0  0
  5 63  1  0  0  0
  6 31  1  0  0  0
  6 64  1  0  0  0
  7 34  2  0  0  0
  8 42  1  0  0  0
  8 46  1  0  0  0
  9 46  1  0  0  0
  9 51  1  0  0  0
 10 47  1  0  0  0
 10 54  1  0  0  0
 11 48  1  0  0  0
 11 61  1  0  0  0
 12 54  1  0  0  0
 12 59  1  0  0  0
 13 56  1  0  0  0
 13 62  1  0  0  0
 14 57  1  0  0  0
 14 65  1  0  0  0
 15  1  1  0  0  0
 15 18  1  0  0  0
 15 19  1  0  0  0
 16 17  1  0  0  0
 16 24  1  0  0  0
 17 20  1  0  0  0
 17 28  1  0  0  0
 18 20  1  0  0  0
 19 21  1  0  0  0
 21 23  1  0  0  0
 22 23  1  0  0  0
 22 29  1  0  0  0
 24 30  1  0  0  0
 24 33  1  0  0  0
 25 26  1  0  0  0
 25 32  1  0  0  0
 26 34  1  0  0  0
 26 35  1  0  0  0
 27 25  1  0  0  0
 29 38  1  0  0  0
 30 39  1  0  0  0
 31 27  1  0  0  0
 31 36  1  0  0  0
 32 37  1  0  0  0
 32 40  2  0  0  0
 35 36  2  0  0  0
 36 43  1  0  0  0
 38 41  2  0  0  0
 40 45  1  0  0  0
 41 42  1  0  0  0
 41 52  1  0  0  0
 42 44  1  0  0  0
 44 50  1  0  0  0
 44 53  1  0  0  0
 45 50  2  0  0  0
 46 49  1  0  0  0
 47 48  1  0  0  0
 48 49  1  0  0  0
 51 47  1  0  0  0
 51 58  1  0  0  0
 54 55  1  0  0  0
 55 56  1  0  0  0
 56 57  1  0  0  0
 57 59  1  0  0  0
 59 60  1  0  0  0
M  END
>  <CHROM.0>
-147.72201010,55.83391043,-174.45497666

>  <CHROM.1>
-179.70154773,161.80558909,46.73976917,55.91948196,-42.23979310,-88.22269291
-161.02145320,78.87331847,-130.28599340,18.24624777,-81.44178628,-49.65590206
-3.14144900,18.02755842,-2.25096737,-0.77443054,-0.86362379

>  <HEADER>
                                                                          

>  <MASTER>
        0    0    0    0    0    0    0    0  136    0  136    0          

>  <Name>
Ivermectin.pdb

>  <RI>
-6.2024e+08

>  <Rbt.Current_Directory>
/root/miniconda3/envs/rdock/share/rxdock-2013.1.1_148c5bd1-0/data/ligands/prepped_ligands/Ivermectin

>  <Rbt.Executable>
rbdock/0.1.0

>  <Rbt.Library>
librxdock.so/0.1.0

>  <Rbt.Parameter_File>
/root/miniconda3/envs/rdock/share/rxdock-2013.1.1_148c5bd1-0/data/scripts/dock.prm

>  <Rbt.Receptor>
def.prm

>  <SCORE>
118.559

>  <SCORE.INTER>
21.5994

>  <SCORE.INTER.CONST>
1

>  <SCORE.INTER.POLAR>
-0.582226

>  <SCORE.INTER.REPUL>
0.14195

>  <SCORE.INTER.ROT>
8

>  <SCORE.INTER.VDW>
9.46927

>  <SCORE.INTER.norm>
0.348378

>  <SCORE.INTRA>
91.2162

>  <SCORE.INTRA.DIHEDRAL>
-5.8023

>  <SCORE.INTRA.DIHEDRAL.0>
29.9071

>  <SCORE.INTRA.POLAR>
0

>  <SCORE.INTRA.POLAR.0>
0

>  <SCORE.INTRA.REPUL>
0

>  <SCORE.INTRA.REPUL.0>
0

>  <SCORE.INTRA.VDW>
94.1173

>  <SCORE.INTRA.VDW.0>
1.27762

>  <SCORE.INTRA.norm>
1.47123

>  <SCORE.RESTR>
5.22937

>  <SCORE.RESTR.CAVITY>
5.22937

>  <SCORE.RESTR.norm>
0.0843446

>  <SCORE.SYSTEM>
0.513859

>  <SCORE.SYSTEM.CONST>
0

>  <SCORE.SYSTEM.DIHEDRAL>
2.15645

>  <SCORE.SYSTEM.POLAR>
-0.0130396

>  <SCORE.SYSTEM.VDW>
-0.520033

>  <SCORE.SYSTEM.norm>
0.00828805

>  <SCORE.heavy>
62

>  <SCORE.norm>
1.91224

>  <TITLE>
    6321424_D                                                             

$$$$
Ivermectin.pdb
  RxDock  02242111023D
librxdock.so/0.1.0
 65 71  0  0  0  0  0  0  0  0999 V2000
  -44.2885   -0.0963   18.9951 O   0  0  0  0  0  0
  -45.7810    0.1757   17.1974 O   0  0  0  0  0  0
  -48.8642   -0.8387   19.5824 O   0  0  0  0  0  0
  -53.4274   -0.4379   20.7708 O   0  0  0  0  0  0
  -51.1935   -3.2743   20.6612 O   0  0  0  0  0  0
  -53.9264   -0.8380   23.3753 O   0  0  0  0  0  0
  -48.3921   -2.3323   21.2034 O   0  0  0  0  0  0
  -49.7251   -2.9843   13.3599 O   0  0  0  0  0  0
  -48.6078   -3.9738   15.2669 O   0  0  0  0  0  0
  -49.8548   -6.5948   17.6327 O   0  0  0  0  0  0
  -52.2589   -5.6605   15.8551 O   0  0  0  0  0  0
  -52.0571   -6.6721   18.6368 O   0  0  0  0  0  0
  -50.0507   -9.9471   20.3442 O   0  0  0  0  0  0
  -50.8814   -7.7220   22.0038 O   0  0  0  0  0  0
  -45.6856    0.0780   18.6466 C   0  0  0  0  0  0
  -43.5799    1.1292   19.2828 C   0  0  0  0  0  0
  -44.1344    1.6695   20.6304 C   0  0  0  0  0  0
  -46.2883    1.3767   19.2440 C   0  0  0  0  0  0
  -46.4069   -1.1562   19.2468 C   0  0  0  0  0  0
  -45.6802    1.7582   20.6093 C   0  0  0  0  0  0
  -47.8452   -1.3750   18.7225 C   0  0  0  0  0  0
  -46.7084   -0.7449   16.5697 C   0  0  0  0  0  0
  -48.0474   -0.7696   17.3222 C   0  0  0  0  0  0
  -42.0500    0.8653   19.3476 C   0  0  0  0  0  0
  -51.5579   -1.8855   20.6657 C   0  0  0  0  0  0
  -50.4476   -1.0114   21.2895 C   0  0  0  0  0  0
  -52.9288   -1.6697   21.3195 C   0  0  0  0  0  0
  -43.5452    3.0281   21.0536 C   0  0  0  0  0  0
  -46.9680   -0.3271   15.1093 C   0  0  0  0  0  0
  -41.6829   -0.0700   20.5262 C   0  0  0  0  0  0
  -52.9159   -1.7213   22.8654 C   0  0  0  0  0  0
  -51.8843   -1.3673   19.2894 C   0  0  0  0  0  0
  -41.2812    2.1932   19.5050 C   0  0  0  0  0  0
  -49.1247   -1.4813   20.7327 C   0  0  0  0  0  0
  -50.5086   -1.0763   22.7924 C   0  0  0  0  0  0
  -51.5754   -1.4008   23.4992 C   0  0  0  0  0  0
  -52.8757   -0.2376   19.4523 C   0  0  0  0  0  0
  -48.1441   -1.0905   14.5325 C   0  0  0  0  0  0
  -41.8032    0.6504   21.8826 C   0  0  0  0  0  0
  -51.4340   -1.9816   18.2004 C   0  0  0  0  0  0
  -49.2925   -0.6673   14.0244 C   0  0  0  0  0  0
  -50.3082   -1.6718   13.5035 C   0  0  0  0  0  0
  -51.5093   -1.4752   25.0066 C   0  0  0  0  0  0
  -51.5957   -1.7529   14.3548 C   0  0  0  0  0  0
  -51.7720   -1.4983   16.8620 C   0  0  0  0  0  0
  -49.8540   -3.7888   14.5523 C   0  0  0  0  0  0
  -49.9671   -5.5231   16.6727 C   0  0  0  0  0  0
  -50.8881   -5.9084   15.4862 C   0  0  0  0  0  0
  -50.5129   -5.1350   14.1967 C   0  0  0  0  0  0
  -51.3342   -2.1458   15.7890 C   0  0  0  0  0  0
  -48.5761   -5.1401   16.1218 C   0  0  0  0  0  0
  -49.6954    0.7817   13.8388 C   0  0  0  0  0  0
  -52.5463   -2.7925   13.7389 C   0  0  0  0  0  0
  -51.0826   -7.3356   17.8010 C   0  0  0  0  0  0
  -50.7831   -8.7429   18.3539 C   0  0  0  0  0  0
  -50.2888   -8.6314   19.8092 C   0  0  0  0  0  0
  -51.3380   -7.8756   20.6512 C   0  0  0  0  0  0
  -47.5882   -4.8975   17.2740 C   0  0  0  0  0  0
  -51.6069   -6.5052   19.9966 C   0  0  0  0  0  0
  -52.6741   -5.7464   20.8011 C   0  0  0  0  0  0
  -53.2031   -6.2100   14.9162 C   0  0  0  0  0  0
  -49.0725   -9.9435   21.3998 C   0  0  0  0  0  0
  -50.9437   -3.5914   21.5828 H   0  0  0  0  0  0
  -53.6779    0.1254   23.2331 H   0  0  0  0  0  0
  -51.5725   -8.0402   22.6621 H   0  0  0  0  0  0
  1 16  1  0  0  0
  2 15  1  0  0  0
  2 22  1  0  0  0
  3 21  1  0  0  0
  3 34  1  0  0  0
  4 27  1  0  0  0
  4 37  1  0  0  0
  5 25  1  0  0  0
  5 63  1  0  0  0
  6 31  1  0  0  0
  6 64  1  0  0  0
  7 34  2  0  0  0
  8 42  1  0  0  0
  8 46  1  0  0  0
  9 46  1  0  0  0
  9 51  1  0  0  0
 10 47  1  0  0  0
 10 54  1  0  0  0
 11 48  1  0  0  0
 11 61  1  0  0  0
 12 54  1  0  0  0
 12 59  1  0  0  0
 13 56  1  0  0  0
 13 62  1  0  0  0
 14 57  1  0  0  0
 14 65  1  0  0  0
 15  1  1  0  0  0
 15 18  1  0  0  0
 15 19  1  0  0  0
 16 17  1  0  0  0
 16 24  1  0  0  0
 17 20  1  0  0  0
 17 28  1  0  0  0
 18 20  1  0  0  0
 19 21  1  0  0  0
 21 23  1  0  0  0
 22 23  1  0  0  0
 22 29  1  0  0  0
 24 30  1  0  0  0
 24 33  1  0  0  0
 25 26  1  0  0  0
 25 32  1  0  0  0
 26 34  1  0  0  0
 26 35  1  0  0  0
 27 25  1  0  0  0
 29 38  1  0  0  0
 30 39  1  0  0  0
 31 27  1  0  0  0
 31 36  1  0  0  0
 32 37  1  0  0  0
 32 40  2  0  0  0
 35 36  2  0  0  0
 36 43  1  0  0  0
 38 41  2  0  0  0
 40 45  1  0  0  0
 41 42  1  0  0  0
 41 52  1  0  0  0
 42 44  1  0  0  0
 44 50  1  0  0  0
 44 53  1  0  0  0
 45 50  2  0  0  0
 46 49  1  0  0  0
 47 48  1  0  0  0
 48 49  1  0  0  0
 51 47  1  0  0  0
 51 58  1  0  0  0
 54 55  1  0  0  0
 55 56  1  0  0  0
 56 57  1  0  0  0
 57 59  1  0  0  0
 59 60  1  0  0  0
M  END
>  <CHROM.0>
-161.81842470,-175.82162108,166.18376047

>  <CHROM.1>
54.45368266,-70.64399660,90.20587030,-107.84558064,-36.25723720,-78.49719164
-169.43125000,154.00787182,-128.38288368,-64.74004063,-72.81728090,-49.19723685
-2.63799650,18.61439132,-0.19470154,-0.76992294,-1.69051308

>  <HEADER>
                                                                          

>  <MASTER>
        0    0    0    0    0    0    0    0  136    0  136    0          

>  <Name>
Ivermectin.pdb

>  <RI>
-6.2024e+08

>  <Rbt.Current_Directory>
/root/miniconda3/envs/rdock/share/rxdock-2013.1.1_148c5bd1-0/data/ligands/prepped_ligands/Ivermectin

>  <Rbt.Executable>
rbdock/0.1.0

>  <Rbt.Library>
librxdock.so/0.1.0

>  <Rbt.Parameter_File>
/root/miniconda3/envs/rdock/share/rxdock-2013.1.1_148c5bd1-0/data/scripts/dock.prm

>  <Rbt.Receptor>
def.prm

>  <SCORE>
43.3081

>  <SCORE.INTER>
9.61157

>  <SCORE.INTER.CONST>
1

>  <SCORE.INTER.POLAR>
-0.353399

>  <SCORE.INTER.REPUL>
0.170292

>  <SCORE.INTER.ROT>
8

>  <SCORE.INTER.VDW>
-3.43833

>  <SCORE.INTER.norm>
0.155025

>  <SCORE.INTRA>
15.3449

>  <SCORE.INTRA.DIHEDRAL>
-3.7567

>  <SCORE.INTRA.DIHEDRAL.0>
29.9071

>  <SCORE.INTRA.POLAR>
0

>  <SCORE.INTRA.POLAR.0>
0

>  <SCORE.INTRA.REPUL>
0

>  <SCORE.INTRA.REPUL.0>
0

>  <SCORE.INTRA.VDW>
17.2233

>  <SCORE.INTRA.VDW.0>
1.27762

>  <SCORE.INTRA.norm>
0.247499

>  <SCORE.RESTR>
18.6586

>  <SCORE.RESTR.CAVITY>
18.6586

>  <SCORE.RESTR.norm>
0.300945

>  <SCORE.SYSTEM>
-0.306982

>  <SCORE.SYSTEM.CONST>
0

>  <SCORE.SYSTEM.DIHEDRAL>
1.29145

>  <SCORE.SYSTEM.VDW>
-0.952708

>  <SCORE.SYSTEM.norm>
-0.00495132

>  <SCORE.heavy>
62

>  <SCORE.norm>
0.698517

>  <TITLE>
    6321424_D                                                             

$$$$
Ivermectin.pdb
  RxDock  02242111033D
librxdock.so/0.1.0
 65 71  0  0  0  0  0  0  0  0999 V2000
  -49.3394   -6.9667   19.1674 O   0  0  0  0  0  0
  -49.3788   -6.1452   16.9636 O   0  0  0  0  0  0
  -47.4603   -2.8101   18.1553 O   0  0  0  0  0  0
  -44.4519    0.7292   17.2504 O   0  0  0  0  0  0
  -47.5889    0.6144   19.0375 O   0  0  0  0  0  0
  -43.1701    1.6649   19.4123 O   0  0  0  0  0  0
  -47.9230   -2.1150   20.2491 O   0  0  0  0  0  0
  -51.8152   -1.5717   13.3009 O   0  0  0  0  0  0
  -53.0760   -3.3011   14.4337 O   0  0  0  0  0  0
  -53.3728   -3.9836   18.1035 O   0  0  0  0  0  0
  -51.1058   -1.8628   17.6849 O   0  0  0  0  0  0
  -53.1856   -5.5399   19.9494 O   0  0  0  0  0  0
  -50.3734   -2.5507   20.8565 O   0  0  0  0  0  0
  -52.6833   -2.9423   22.5612 O   0  0  0  0  0  0
  -48.7476   -5.9959   18.2668 C   0  0  0  0  0  0
  -48.6332   -8.2243   19.2493 C   0  0  0  0  0  0
  -47.2932   -7.9463   19.9860 C   0  0  0  0  0  0
  -47.2237   -6.2153   18.0765 C   0  0  0  0  0  0
  -48.9972   -4.6206   18.9374 C   0  0  0  0  0  0
  -46.5262   -6.7684   19.3363 C   0  0  0  0  0  0
  -48.7608   -3.4045   18.0118 C   0  0  0  0  0  0
  -49.9386   -4.9329   16.3991 C   0  0  0  0  0  0
  -48.9509   -3.7634   16.5275 C   0  0  0  0  0  0
  -49.4970   -9.2807   19.9924 C   0  0  0  0  0  0
  -46.4150    0.0832   18.4038 C   0  0  0  0  0  0
  -45.9752   -1.2478   19.0526 C   0  0  0  0  0  0
  -45.2895    1.1243   18.3500 C   0  0  0  0  0  0
  -46.3660   -9.1717   20.0891 C   0  0  0  0  0  0
  -50.2686   -5.1419   14.9084 C   0  0  0  0  0  0
  -49.2496  -10.7073   19.4426 C   0  0  0  0  0  0
  -44.5372    1.3231   19.6869 C   0  0  0  0  0  0
  -46.5983   -0.1223   16.9228 C   0  0  0  0  0  0
  -50.9959   -8.9442   19.8532 C   0  0  0  0  0  0
  -47.2122   -2.0890   19.2609 C   0  0  0  0  0  0
  -45.2205   -0.9871   20.3290 C   0  0  0  0  0  0
  -44.5986    0.1375   20.6312 C   0  0  0  0  0  0
  -45.2405    0.0183   16.2728 C   0  0  0  0  0  0
  -50.5738   -3.8186   14.2345 C   0  0  0  0  0  0
  -48.5344  -11.5987   20.4757 C   0  0  0  0  0  0
  -47.8105   -0.2434   16.3918 C   0  0  0  0  0  0
  -49.9992   -3.2120   13.2058 C   0  0  0  0  0  0
  -50.5239   -1.8673   12.7278 C   0  0  0  0  0  0
  -43.9070    0.3030   21.9641 C   0  0  0  0  0  0
  -49.5498   -0.6941   12.9802 C   0  0  0  0  0  0
  -47.9941   -0.4146   14.9509 C   0  0  0  0  0  0
  -52.0554   -2.2787   14.5370 C   0  0  0  0  0  0
  -52.7554   -3.4767   16.9016 C   0  0  0  0  0  0
  -52.3863   -1.9765   17.0336 C   0  0  0  0  0  0
  -52.3717   -1.2679   15.6555 C   0  0  0  0  0  0
  -49.2163   -0.5044   14.4405 C   0  0  0  0  0  0
  -53.6975   -3.6550   15.6909 C   0  0  0  0  0  0
  -48.8618   -3.7700   12.3743 C   0  0  0  0  0  0
  -50.1788    0.6085   12.4592 C   0  0  0  0  0  0
  -52.5323   -4.9097   18.8250 C   0  0  0  0  0  0
  -51.2423   -4.2057   19.2900 C   0  0  0  0  0  0
  -51.5816   -3.1786   20.3876 C   0  0  0  0  0  0
  -52.3189   -3.8870   21.5433 C   0  0  0  0  0  0
  -54.2087   -5.1025   15.6143 C   0  0  0  0  0  0
  -53.5633   -4.5999   20.9758 C   0  0  0  0  0  0
  -54.2972   -5.3404   22.1050 C   0  0  0  0  0  0
  -50.7597   -0.5036   18.0134 C   0  0  0  0  0  0
  -50.5740   -1.1723   21.2184 C   0  0  0  0  0  0
  -48.3813    0.0077   18.9104 H   0  0  0  0  0  0
  -42.6502    1.8099   20.2602 H   0  0  0  0  0  0
  -53.6161   -2.5928   22.4196 H   0  0  0  0  0  0
  1 16  1  0  0  0
  2 15  1  0  0  0
  2 22  1  0  0  0
  3 21  1  0  0  0
  3 34  1  0  0  0
  4 27  1  0  0  0
  4 37  1  0  0  0
  5 25  1  0  0  0
  5 63  1  0  0  0
  6 31  1  0  0  0
  6 64  1  0  0  0
  7 34  2  0  0  0
  8 42  1  0  0  0
  8 46  1  0  0  0
  9 46  1  0  0  0
  9 51  1  0  0  0
 10 47  1  0  0  0
 10 54  1  0  0  0
 11 48  1  0  0  0
 11 61  1  0  0  0
 12 54  1  0  0  0
 12 59  1  0  0  0
 13 56  1  0  0  0
 13 62  1  0  0  0
 14 57  1  0  0  0
 14 65  1  0  0  0
 15  1  1  0  0  0
 15 18  1  0  0  0
 15 19  1  0  0  0
 16 17  1  0  0  0
 16 24  1  0  0  0
 17 20  1  0  0  0
 17 28  1  0  0  0
 18 20  1  0  0  0
 19 21  1  0  0  0
 21 23  1  0  0  0
 22 23  1  0  0  0
 22 29  1  0  0  0
 24 30  1  0  0  0
 24 33  1  0  0  0
 25 26  1  0  0  0
 25 32  1  0  0  0
 26 34  1  0  0  0
 26 35  1  0  0  0
 27 25  1  0  0  0
 29 38  1  0  0  0
 30 39  1  0  0  0
 31 27  1  0  0  0
 31 36  1  0  0  0
 32 37  1  0  0  0
 32 40  2  0  0  0
 35 36  2  0  0  0
 36 43  1  0  0  0
 38 41  2  0  0  0
 40 45  1  0  0  0
 41 42  1  0  0  0
 41 52  1  0  0  0
 42 44  1  0  0  0
 44 50  1  0  0  0
 44 53  1  0  0  0
 45 50  2  0  0  0
 46 49  1  0  0  0
 47 48  1  0  0  0
 48 49  1  0  0  0
 51 47  1  0  0  0
 51 58  1  0  0  0
 54 55  1  0  0  0
 55 56  1  0  0  0
 56 57  1  0  0  0
 57 59  1  0  0  0
 59 60  1  0  0  0
M  END
>  <CHROM.0>
-155.91451318,-173.15169797,-29.93918608

>  <CHROM.1>
-64.27109369,179.51668021,23.55899164,-110.93866527,-110.12644776,-173.56870111
-172.17521708,145.76447370,93.32722110,147.09430611,111.75165416,-49.37036450
-3.30656031,17.93069447,-2.27248343,-0.60864480,-0.68254757

>  <HEADER>
                                                                          

>  <MASTER>
        0    0    0    0    0    0    0    0  136    0  136    0          

>  <Name>
Ivermectin.pdb

>  <RI>
-6.2024e+08

>  <Rbt.Current_Directory>
/root/miniconda3/envs/rdock/share/rxdock-2013.1.1_148c5bd1-0/data/ligands/prepped_ligands/Ivermectin

>  <Rbt.Executable>
rbdock/0.1.0

>  <Rbt.Library>
librxdock.so/0.1.0

>  <Rbt.Parameter_File>
/root/miniconda3/envs/rdock/share/rxdock-2013.1.1_148c5bd1-0/data/scripts/dock.prm

>  <Rbt.Receptor>
def.prm

>  <SCORE>
118.639

>  <SCORE.INTER>
78.6923

>  <SCORE.INTER.CONST>
1

>  <SCORE.INTER.POLAR>
-0.0714289

>  <SCORE.INTER.REPUL>
0.307028

>  <SCORE.INTER.ROT>
8

>  <SCORE.INTER.VDW>
64.0001

>  <SCORE.INTER.norm>
1.26923

>  <SCORE.INTRA>
31.1798

>  <SCORE.INTRA.DIHEDRAL>
7.50704

>  <SCORE.INTRA.DIHEDRAL.0>
29.9071

>  <SCORE.INTRA.POLAR>
0

>  <SCORE.INTRA.POLAR.0>
0

>  <SCORE.INTRA.REPUL>
0.385816

>  <SCORE.INTRA.REPUL.0>
0

>  <SCORE.INTRA.VDW>
25.4972

>  <SCORE.INTRA.VDW.0>
1.27762

>  <SCORE.INTRA.norm>
0.5029

>  <SCORE.RESTR>
7.67339

>  <SCORE.RESTR.CAVITY>
7.67339

>  <SCORE.RESTR.norm>
0.123764

>  <SCORE.SYSTEM>
1.09345

>  <SCORE.SYSTEM.CONST>
0

>  <SCORE.SYSTEM.DIHEDRAL>
3.25714

>  <SCORE.SYSTEM.POLAR>
-0.0120428

>  <SCORE.SYSTEM.VDW>
-0.494171

>  <SCORE.SYSTEM.norm>
0.0176364

>  <SCORE.heavy>
62

>  <SCORE.norm>
1.91353

>  <TITLE>
    6321424_D                                                             

$$$$
Ivermectin.pdb
  RxDock  02242111033D
librxdock.so/0.1.0
 65 71  0  0  0  0  0  0  0  0999 V2000
  -49.4189   -6.6368   18.8197 O   0  0  0  0  0  0
  -49.0967   -5.8838   16.6146 O   0  0  0  0  0  0
  -46.8984   -2.7944   17.9736 O   0  0  0  0  0  0
  -43.3607    0.2914   17.3751 O   0  0  0  0  0  0
  -46.6681    0.6424   18.7844 O   0  0  0  0  0  0
  -42.2203    1.1157   19.6582 O   0  0  0  0  0  0
  -47.4998   -1.9821   19.9885 O   0  0  0  0  0  0
  -50.4667   -1.1427   12.6253 O   0  0  0  0  0  0
  -52.0136   -2.3683   14.0285 O   0  0  0  0  0  0
  -52.3752   -2.3058   17.7550 O   0  0  0  0  0  0
  -49.7548   -0.7632   17.0023 O   0  0  0  0  0  0
  -53.9144   -3.8404   18.8230 O   0  0  0  0  0  0
  -50.3104   -4.4052   20.9106 O   0  0  0  0  0  0
  -52.6227   -3.3070   22.2680 O   0  0  0  0  0  0
  -48.6039   -5.7794   17.9803 C   0  0  0  0  0  0
  -48.9010   -7.9730   19.0020 C   0  0  0  0  0  0
  -47.6288   -7.8510   19.8862 C   0  0  0  0  0  0
  -47.1113   -6.2021   17.9729 C   0  0  0  0  0  0
  -48.7424   -4.3637   18.5969 C   0  0  0  0  0  0
  -46.6423   -6.8037   19.3136 C   0  0  0  0  0  0
  -48.2417   -3.2174   17.6876 C   0  0  0  0  0  0
  -49.4215   -4.6261   15.9708 C   0  0  0  0  0  0
  -48.3075   -3.5928   16.1967 C   0  0  0  0  0  0
  -49.9773   -8.8843   19.6544 C   0  0  0  0  0  0
  -45.5111   -0.0568   18.3003 C   0  0  0  0  0  0
  -45.3300   -1.4139   19.0155 C   0  0  0  0  0  0
  -44.2579    0.8258   18.3633 C   0  0  0  0  0  0
  -46.8915   -9.1836   20.1150 C   0  0  0  0  0  0
  -49.6043   -4.8348   14.4550 C   0  0  0  0  0  0
  -51.4046   -8.5017   19.1904 C   0  0  0  0  0  0
  -43.6431    0.9644   19.7759 C   0  0  0  0  0  0
  -45.5502   -0.2809   16.8111 C   0  0  0  0  0  0
  -49.9076   -8.7832   21.1919 C   0  0  0  0  0  0
  -46.6838   -2.0791   19.0899 C   0  0  0  0  0  0
  -44.6977   -1.2161   20.3675 C   0  0  0  0  0  0
  -43.9696   -0.1741   20.7238 C   0  0  0  0  0  0
  -44.1206   -0.3390   16.3225 C   0  0  0  0  0  0
  -49.6511   -3.5037   13.7306 C   0  0  0  0  0  0
  -51.4804   -8.3383   17.6604 C   0  0  0  0  0  0
  -46.6991   -0.2582   16.1438 C   0  0  0  0  0  0
  -48.8872   -3.0088   12.7675 C   0  0  0  0  0  0
  -49.1696   -1.6219   12.2117 C   0  0  0  0  0  0
  -43.4187   -0.0606   22.1259 C   0  0  0  0  0  0
  -48.0827   -0.5794   12.5591 C   0  0  0  0  0  0
  -46.7385   -0.4471   14.6940 C   0  0  0  0  0  0
  -50.8163   -1.5556   13.9643 C   0  0  0  0  0  0
  -51.6924   -2.1511   16.4930 C   0  0  0  0  0  0
  -51.0440   -0.7490   16.3584 C   0  0  0  0  0  0
  -50.9178   -0.3176   14.8753 C   0  0  0  0  0  0
  -47.8955   -0.3913   14.0455 C   0  0  0  0  0  0
  -52.6705   -2.3646   15.3171 C   0  0  0  0  0  0
  -47.7472   -3.7358   12.0830 C   0  0  0  0  0  0
  -48.4684    0.7781   11.9491 C   0  0  0  0  0  0
  -52.6977   -3.6797   18.0599 C   0  0  0  0  0  0
  -51.5209   -4.3521   18.7941 C   0  0  0  0  0  0
  -51.3802   -3.7484   20.2050 C   0  0  0  0  0  0
  -52.7154   -3.8999   20.9636 C   0  0  0  0  0  0
  -53.4474   -3.6789   15.4941 C   0  0  0  0  0  0
  -53.8363   -3.2423   20.1329 C   0  0  0  0  0  0
  -55.1829   -3.4091   20.8545 C   0  0  0  0  0  0
  -49.4385    0.4804   17.6567 C   0  0  0  0  0  0
  -50.6548   -5.7443   21.3100 C   0  0  0  0  0  0
  -46.7094    1.5796   18.4211 H   0  0  0  0  0  0
  -41.8238    1.5198   20.4888 H   0  0  0  0  0  0
  -51.9961   -3.8240   22.8617 H   0  0  0  0  0  0
  1 16  1  0  0  0
  2 15  1  0  0  0
  2 22  1  0  0  0
  3 21  1  0  0  0
  3 34  1  0  0  0
  4 27  1  0  0  0
  4 37  1  0  0  0
  5 25  1  0  0  0
  5 63  1  0  0  0
  6 31  1  0  0  0
  6 64  1  0  0  0
  7 34  2  0  0  0
  8 42  1  0  0  0
  8 46  1  0  0  0
  9 46  1  0  0  0
  9 51  1  0  0  0
 10 47  1  0  0  0
 10 54  1  0  0  0
 11 48  1  0  0  0
 11 61  1  0  0  0
 12 54  1  0  0  0
 12 59  1  0  0  0
 13 56  1  0  0  0
 13 62  1  0  0  0
 14 57  1  0  0  0
 14 65  1  0  0  0
 15  1  1  0  0  0
 15 18  1  0  0  0
 15 19  1  0  0  0
 16 17  1  0  0  0
 16 24  1  0  0  0
 17 20  1  0  0  0
 17 28  1  0  0  0
 18 20  1  0  0  0
 19 21  1  0  0  0
 21 23  1  0  0  0
 22 23  1  0  0  0
 22 29  1  0  0  0
 24 30  1  0  0  0
 24 33  1  0  0  0
 25 26  1  0  0  0
 25 32  1  0  0  0
 26 34  1  0  0  0
 26 35  1  0  0  0
 27 25  1  0  0  0
 29 38  1  0  0  0
 30 39  1  0  0  0
 31 27  1  0  0  0
 31 36  1  0  0  0
 32 37  1  0  0  0
 32 40  2  0  0  0
 35 36  2  0  0  0
 36 43  1  0  0  0
 38 41  2  0  0  0
 40 45  1  0  0  0
 41 42  1  0  0  0
 41 52  1  0  0  0
 42 44  1  0  0  0
 44 50  1  0  0  0
 44 53  1  0  0  0
 45 50  2  0  0  0
 46 49  1  0  0  0
 47 48  1  0  0  0
 48 49  1  0  0  0
 51 47  1  0  0  0
 51 58  1  0  0  0
 54 55  1  0  0  0
 55 56  1  0  0  0
 56 57  1  0  0  0
 57 59  1  0  0  0
 59 60  1  0  0  0
M  END
>  <CHROM.0>
85.15108758,173.21360106,-150.59573580

>  <CHROM.1>
171.50959563,160.23447756,35.72573763,-119.31759088,-165.41249986,-147.98386438
-144.17498789,-72.50292047,-68.06948334,33.85227940,47.77869476,-48.87554912
-3.02952545,17.60676368,-2.49175015,-0.52800241,-0.92305752

>  <HEADER>
                                                                          

>  <MASTER>
        0    0    0    0    0    0    0    0  136    0  136    0          

>  <Name>
Ivermectin.pdb

>  <RI>
-6.2024e+08

>  <Rbt.Current_Directory>
/root/miniconda3/envs/rdock/share/rxdock-2013.1.1_148c5bd1-0/data/ligands/prepped_ligands/Ivermectin

>  <Rbt.Executable>
rbdock/0.1.0

>  <Rbt.Library>
librxdock.so/0.1.0

>  <Rbt.Parameter_File>
/root/miniconda3/envs/rdock/share/rxdock-2013.1.1_148c5bd1-0/data/scripts/dock.prm

>  <Rbt.Receptor>
def.prm

>  <SCORE>
140.419

>  <SCORE.INTER>
112.704

>  <SCORE.INTER.CONST>
1

>  <SCORE.INTER.POLAR>
-0.463132

>  <SCORE.INTER.REPUL>
0.204668

>  <SCORE.INTER.ROT>
8

>  <SCORE.INTER.VDW>
99.8549

>  <SCORE.INTER.norm>
1.8178

>  <SCORE.INTRA>
21.9201

>  <SCORE.INTRA.DIHEDRAL>
-4.07563

>  <SCORE.INTRA.DIHEDRAL.0>
29.9071

>  <SCORE.INTRA.POLAR>
0

>  <SCORE.INTRA.POLAR.0>
0

>  <SCORE.INTRA.REPUL>
0.187951

>  <SCORE.INTRA.REPUL.0>
0

>  <SCORE.INTRA.VDW>
23.0182

>  <SCORE.INTRA.VDW.0>
1.27762

>  <SCORE.INTRA.norm>
0.35355

>  <SCORE.RESTR>
4.67092

>  <SCORE.RESTR.CAVITY>
4.67092

>  <SCORE.RESTR.norm>
0.0753374

>  <SCORE.SYSTEM>
1.12482

>  <SCORE.SYSTEM.CONST>
0

>  <SCORE.SYSTEM.DIHEDRAL>
3.28744

>  <SCORE.SYSTEM.POLAR>
-0.0118776

>  <SCORE.SYSTEM.VDW>
-0.478516

>  <SCORE.SYSTEM.norm>
0.0181423

>  <SCORE.heavy>
62

>  <SCORE.norm>
2.26483

>  <TITLE>
    6321424_D                                                             

$$$$
Ivermectin.pdb
  RxDock  02242111033D
librxdock.so/0.1.0
 65 71  0  0  0  0  0  0  0  0999 V2000
  -48.8180   -7.1479   18.8302 O   0  0  0  0  0  0
  -48.8571   -6.0986   16.7254 O   0  0  0  0  0  0
  -47.6575   -2.6415   18.4086 O   0  0  0  0  0  0
  -45.2844    1.4434   18.1287 O   0  0  0  0  0  0
  -48.4620    0.5856   19.6171 O   0  0  0  0  0  0
  -44.3411    2.3321   20.4766 O   0  0  0  0  0  0
  -48.3779   -2.2811   20.5139 O   0  0  0  0  0  0
  -51.8282   -1.6245   13.3454 O   0  0  0  0  0  0
  -52.9384   -3.3173   14.6743 O   0  0  0  0  0  0
  -52.9820   -3.7426   18.3944 O   0  0  0  0  0  0
  -50.8431   -1.5666   17.6853 O   0  0  0  0  0  0
  -51.4628   -5.3655   19.3550 O   0  0  0  0  0  0
  -53.9733   -4.3103   22.5565 O   0  0  0  0  0  0
  -54.0078   -7.0111   21.5080 O   0  0  0  0  0  0
  -48.3522   -5.9930   18.0866 C   0  0  0  0  0  0
  -47.9032   -8.2659   18.8456 C   0  0  0  0  0  0
  -46.6882   -7.8475   19.7197 C   0  0  0  0  0  0
  -46.8045   -5.9232   18.0077 C   0  0  0  0  0  0
  -48.8909   -4.7673   18.8684 C   0  0  0  0  0  0
  -46.1048   -6.4884   19.2609 C   0  0  0  0  0  0
  -48.8165   -3.4308   18.0940 C   0  0  0  0  0  0
  -49.5875   -4.9443   16.2397 C   0  0  0  0  0  0
  -48.8383   -3.6447   16.5702 C   0  0  0  0  0  0
  -48.6099   -9.5335   19.4010 C   0  0  0  0  0  0
  -47.1715    0.3409   19.0370 C   0  0  0  0  0  0
  -46.5430   -0.9598   19.5839 C   0  0  0  0  0  0
  -46.2517    1.5596   19.1860 C   0  0  0  0  0  0
  -45.5639   -8.8983   19.7785 C   0  0  0  0  0  0
  -49.7733   -5.0350   14.7126 C   0  0  0  0  0  0
  -49.4996  -10.2063   18.3265 C   0  0  0  0  0  0
  -45.6393    1.7306   20.5961 C   0  0  0  0  0  0
  -47.2147    0.2779   17.5325 C   0  0  0  0  0  0
  -49.4843   -9.1718   20.6191 C   0  0  0  0  0  0
  -47.6187   -2.0199   19.5986 C   0  0  0  0  0  0
  -45.9353   -0.7209   20.9405 C   0  0  0  0  0  0
  -45.5487    0.4519   21.4072 C   0  0  0  0  0  0
  -45.8641    0.7239   17.0199 C   0  0  0  0  0  0
  -50.2667   -3.7157   14.1517 C   0  0  0  0  0  0
  -49.8354   -9.2364   17.1776 C   0  0  0  0  0  0
  -48.3465    0.0113   16.8892 C   0  0  0  0  0  0
  -49.7434   -2.9054   13.2429 C   0  0  0  0  0  0
  -50.4692   -1.6255   12.8593 C   0  0  0  0  0  0
  -44.9896    0.5804   22.8047 C   0  0  0  0  0  0
  -49.7424   -0.3387   13.3120 C   0  0  0  0  0  0
  -48.3988   -0.0228   15.4279 C   0  0  0  0  0  0
  -51.9609   -2.2490   14.6408 C   0  0  0  0  0  0
  -52.4619   -3.2995   17.1232 C   0  0  0  0  0  0
  -52.1540   -1.7798   17.1261 C   0  0  0  0  0  0
  -52.2549   -1.1733   15.7036 C   0  0  0  0  0  0
  -49.5475   -0.2629   14.8073 C   0  0  0  0  0  0
  -53.4662   -3.6039   15.9901 C   0  0  0  0  0  0
  -48.4706   -3.1600   12.4609 C   0  0  0  0  0  0
  -50.5599    0.8870   12.8725 C   0  0  0  0  0  0
  -51.9492   -4.0047   19.3687 C   0  0  0  0  0  0
  -52.4440   -3.6348   20.7809 C   0  0  0  0  0  0
  -53.5400   -4.6253   21.2198 C   0  0  0  0  0  0
  -52.9910   -6.0653   21.1433 C   0  0  0  0  0  0
  -53.9147   -5.0729   16.0477 C   0  0  0  0  0  0
  -52.4773   -6.3259   19.7125 C   0  0  0  0  0  0
  -51.8955   -7.7454   19.6207 C   0  0  0  0  0  0
  -50.8781   -1.1921   19.0758 C   0  0  0  0  0  0
  -52.9293   -4.4910   23.5306 C   0  0  0  0  0  0
  -48.9291    1.3525   19.1633 H   0  0  0  0  0  0
  -43.7205    1.7611   19.9298 H   0  0  0  0  0  0
  -53.6083   -7.8996   21.7596 H   0  0  0  0  0  0
  1 16  1  0  0  0
  2 15  1  0  0  0
  2 22  1  0  0  0
  3 21  1  0  0  0
  3 34  1  0  0  0
  4 27  1  0  0  0
  4 37  1  0  0  0
  5 25  1  0  0  0
  5 63  1  0  0  0
  6 31  1  0  0  0
  6 64  1  0  0  0
  7 34  2  0  0  0
  8 42  1  0  0  0
  8 46  1  0  0  0
  9 46  1  0  0  0
  9 51  1  0  0  0
 10 47  1  0  0  0
 10 54  1  0  0  0
 11 48  1  0  0  0
 11 61  1  0  0  0
 12 54  1  0  0  0
 12 59  1  0  0  0
 13 56  1  0  0  0
 13 62  1  0  0  0
 14 57  1  0  0  0
 14 65  1  0  0  0
 15  1  1  0  0  0
 15 18  1  0  0  0
 15 19  1  0  0  0
 16 17  1  0  0  0
 16 24  1  0  0  0
 17 20  1  0  0  0
 17 28  1  0  0  0
 18 20  1  0  0  0
 19 21  1  0  0  0
 21 23  1  0  0  0
 22 23  1  0  0  0
 22 29  1  0  0  0
 24 30  1  0  0  0
 24 33  1  0  0  0
 25 26  1  0  0  0
 25 32  1  0  0  0
 26 34  1  0  0  0
 26 35  1  0  0  0
 27 25  1  0  0  0
 29 38  1  0  0  0
 30 39  1  0  0  0
 31 27  1  0  0  0
 31 36  1  0  0  0
 32 37  1  0  0  0
 32 40  2  0  0  0
 35 36  2  0  0  0
 36 43  1  0  0  0
 38 41  2  0  0  0
 40 45  1  0  0  0
 41 42  1  0  0  0
 41 52  1  0  0  0
 42 44  1  0  0  0
 44 50  1  0  0  0
 44 53  1  0  0  0
 45 50  2  0  0  0
 46 49  1  0  0  0
 47 48  1  0  0  0
 48 49  1  0  0  0
 51 47  1  0  0  0
 51 58  1  0  0  0
 54 55  1  0  0  0
 55 56  1  0  0  0
 56 57  1  0  0  0
 57 59  1  0  0  0
 59 60  1  0  0  0
M  END
>  <CHROM.0>
-140.75614258,54.76482427,49.95493853

>  <CHROM.1>
-171.49101446,-60.38882105,36.66848103,-125.22642562,-82.54714479,-90.02306092
-98.20701549,-64.70019264,-161.12908487,79.25726854,-19.11118050,-49.52456199
-3.39139321,18.08165426,-2.24239597,-0.78224755,-0.70081682

>  <HEADER>
                                                                          

>  <MASTER>
        0    0    0    0    0    0    0    0  136    0  136    0          

>  <Name>
Ivermectin.pdb

>  <RI>
-6.2024e+08

>  <Rbt.Current_Directory>
/root/miniconda3/envs/rdock/share/rxdock-2013.1.1_148c5bd1-0/data/ligands/prepped_ligands/Ivermectin

>  <Rbt.Executable>
rbdock/0.1.0

>  <Rbt.Library>
librxdock.so/0.1.0

>  <Rbt.Parameter_File>
/root/miniconda3/envs/rdock/share/rxdock-2013.1.1_148c5bd1-0/data/scripts/dock.prm

>  <Rbt.Receptor>
def.prm

>  <SCORE>
124.054

>  <SCORE.INTER>
96.4728

>  <SCORE.INTER.CONST>
1

>  <SCORE.INTER.POLAR>
-0.0740659

>  <SCORE.INTER.REPUL>
0.322461

>  <SCORE.INTER.ROT>
8

>  <SCORE.INTER.VDW>
81.7123

>  <SCORE.INTER.norm>
1.55601

>  <SCORE.INTRA>
19.5633

>  <SCORE.INTRA.DIHEDRAL>
-0.992859

>  <SCORE.INTRA.DIHEDRAL.0>
29.9071

>  <SCORE.INTRA.POLAR>
0

>  <SCORE.INTRA.POLAR.0>
0

>  <SCORE.INTRA.REPUL>
0.727751

>  <SCORE.INTRA.REPUL.0>
0

>  <SCORE.INTRA.VDW>
16.421

>  <SCORE.INTRA.VDW.0>
1.27762

>  <SCORE.INTRA.norm>
0.315537

>  <SCORE.RESTR>
6.89939

>  <SCORE.RESTR.CAVITY>
6.89939

>  <SCORE.RESTR.norm>
0.111281

>  <SCORE.SYSTEM>
1.11842

>  <SCORE.SYSTEM.CONST>
0

>  <SCORE.SYSTEM.DIHEDRAL>
3.01066

>  <SCORE.SYSTEM.VDW>
-0.386906

>  <SCORE.SYSTEM.norm>
0.0180391

>  <SCORE.heavy>
62

>  <SCORE.norm>
2.00087

>  <TITLE>
    6321424_D                                                             

$$$$
Ivermectin.pdb
  RxDock  02242111033D
librxdock.so/0.1.0
 65 71  0  0  0  0  0  0  0  0999 V2000
  -44.7681    0.0972   19.9968 O   0  0  0  0  0  0
  -46.0430    0.4765   18.0568 O   0  0  0  0  0  0
  -49.3136   -0.9807   19.9015 O   0  0  0  0  0  0
  -54.0058   -0.9905   20.5176 O   0  0  0  0  0  0
  -51.5716   -3.6572   20.4113 O   0  0  0  0  0  0
  -54.7917   -1.7067   22.9797 O   0  0  0  0  0  0
  -48.9361   -2.6137   21.4088 O   0  0  0  0  0  0
  -49.2378   -2.4704   13.4332 O   0  0  0  0  0  0
  -48.0648   -3.4615   15.3055 O   0  0  0  0  0  0
  -49.1183   -6.2938   17.5168 O   0  0  0  0  0  0
  -51.5707   -5.4696   15.7506 O   0  0  0  0  0  0
  -47.7531   -6.8874   19.4268 O   0  0  0  0  0  0
  -51.6000   -6.3941   21.0466 O   0  0  0  0  0  0
  -50.3329   -8.9997   21.0712 O   0  0  0  0  0  0
  -46.1205    0.2245   19.4883 C   0  0  0  0  0  0
  -44.1932    1.3238   20.4987 C   0  0  0  0  0  0
  -44.9484    1.6767   21.8104 C   0  0  0  0  0  0
  -46.8868    1.4100   20.1315 C   0  0  0  0  0  0
  -46.8170   -1.1100   19.8594 C   0  0  0  0  0  0
  -46.4821    1.6736   21.5965 C   0  0  0  0  0  0
  -48.1593   -1.3557   19.1319 C   0  0  0  0  0  0
  -46.8150   -0.4230   17.2223 C   0  0  0  0  0  0
  -48.2312   -0.6120   17.7866 C   0  0  0  0  0  0
  -42.6677    1.1472   20.7357 C   0  0  0  0  0  0
  -52.0356   -2.3020   20.5103 C   0  0  0  0  0  0
  -51.0787   -1.4371   21.3601 C   0  0  0  0  0  0
  -53.4890   -2.2432   20.9978 C   0  0  0  0  0  0
  -44.5183    3.0129   22.4439 C   0  0  0  0  0  0
  -46.9224    0.1378   15.7909 C   0  0  0  0  0  0
  -41.8790    1.1618   19.4028 C   0  0  0  0  0  0
  -53.6634   -2.4653   22.5186 C   0  0  0  0  0  0
  -52.2269   -1.6549   19.1634 C   0  0  0  0  0  0
  -42.3873   -0.1812   21.4679 C   0  0  0  0  0  0
  -49.6660   -1.7615   20.9360 C   0  0  0  0  0  0
  -51.3200   -1.6720   22.8276 C   0  0  0  0  0  0
  -52.4389   -2.1368   23.3517 C   0  0  0  0  0  0
  -53.3118   -0.6121   19.3101 C   0  0  0  0  0  0
  -47.9584   -0.6264   14.9902 C   0  0  0  0  0  0
  -42.1846    2.4248   18.5752 C   0  0  0  0  0  0
  -51.6013   -2.1162   18.0856 C   0  0  0  0  0  0
  -49.0634   -0.2195   14.3822 C   0  0  0  0  0  0
  -49.9297   -1.2195   13.6329 C   0  0  0  0  0  0
  -52.5543   -2.3740   24.8392 C   0  0  0  0  0  0
  -51.3030   -1.4722   14.2956 C   0  0  0  0  0  0
  -51.8062   -1.5086   16.7710 C   0  0  0  0  0  0
  -49.3137   -3.3428   14.5815 C   0  0  0  0  0  0
  -49.3077   -5.1871   16.6101 C   0  0  0  0  0  0
  -50.1799   -5.5851   15.3914 C   0  0  0  0  0  0
  -49.8549   -4.7185   14.1484 C   0  0  0  0  0  0
  -51.1923   -2.0053   15.7039 C   0  0  0  0  0  0
  -47.9468   -4.6636   16.1012 C   0  0  0  0  0  0
  -49.5465    1.2141   14.2949 C   0  0  0  0  0  0
  -52.0907   -2.4925   13.4576 C   0  0  0  0  0  0
  -48.5916   -5.8916   18.7995 C   0  0  0  0  0  0
  -49.7418   -5.4968   19.7467 C   0  0  0  0  0  0
  -50.5518   -6.7517   20.1262 C   0  0  0  0  0  0
  -49.6084   -7.8033   20.7468 C   0  0  0  0  0  0
  -46.9957   -4.4004   17.2796 C   0  0  0  0  0  0
  -48.4680   -8.0972   19.7508 C   0  0  0  0  0  0
  -47.4965   -9.1197   20.3614 C   0  0  0  0  0  0
  -51.9648   -6.3954   16.7814 C   0  0  0  0  0  0
  -52.8737   -6.2348   20.3956 C   0  0  0  0  0  0
  -51.5443   -4.1028   21.3129 H   0  0  0  0  0  0
  -54.9373   -1.8277   23.9668 H   0  0  0  0  0  0
  -50.8676   -9.3287   20.2849 H   0  0  0  0  0  0
  1 16  1  0  0  0
  2 15  1  0  0  0
  2 22  1  0  0  0
  3 21  1  0  0  0
  3 34  1  0  0  0
  4 27  1  0  0  0
  4 37  1  0  0  0
  5 25  1  0  0  0
  5 63  1  0  0  0
  6 31  1  0  0  0
  6 64  1  0  0  0
  7 34  2  0  0  0
  8 42  1  0  0  0
  8 46  1  0  0  0
  9 46  1  0  0  0
  9 51  1  0  0  0
 10 47  1  0  0  0
 10 54  1  0  0  0
 11 48  1  0  0  0
 11 61  1  0  0  0
 12 54  1  0  0  0
 12 59  1  0  0  0
 13 56  1  0  0  0
 13 62  1  0  0  0
 14 57  1  0  0  0
 14 65  1  0  0  0
 15  1  1  0  0  0
 15 18  1  0  0  0
 15 19  1  0  0  0
 16 17  1  0  0  0
 16 24  1  0  0  0
 17 20  1  0  0  0
 17 28  1  0  0  0
 18 20  1  0  0  0
 19 21  1  0  0  0
 21 23  1  0  0  0
 22 23  1  0  0  0
 22 29  1  0  0  0
 24 30  1  0  0  0
 24 33  1  0  0  0
 25 26  1  0  0  0
 25 32  1  0  0  0
 26 34  1  0  0  0
 26 35  1  0  0  0
 27 25  1  0  0  0
 29 38  1  0  0  0
 30 39  1  0  0  0
 31 27  1  0  0  0
 31 36  1  0  0  0
 32 37  1  0  0  0
 32 40  2  0  0  0
 35 36  2  0  0  0
 36 43  1  0  0  0
 38 41  2  0  0  0
 40 45  1  0  0  0
 41 42  1  0  0  0
 41 52  1  0  0  0
 42 44  1  0  0  0
 44 50  1  0  0  0
 44 53  1  0  0  0
 45 50  2  0  0  0
 46 49  1  0  0  0
 47 48  1  0  0  0
 48 49  1  0  0  0
 51 47  1  0  0  0
 51 58  1  0  0  0
 54 55  1  0  0  0
 55 56  1  0  0  0
 56 57  1  0  0  0
 57 59  1  0  0  0
 59 60  1  0  0  0
M  END
>  <CHROM.0>
-50.42807949,62.36344007,178.78828213

>  <CHROM.1>
62.83473720,179.91567338,82.87942523,-107.88562709,-166.17235392,-148.67076751
-64.74518397,98.89032973,51.43173279,75.66770338,54.20188764,-49.12296974
-2.49841964,18.81111961,0.18097980,0.73625504,1.36286568

>  <HEADER>
                                                                          

>  <MASTER>
        0    0    0    0    0    0    0    0  136    0  136    0          

>  <Name>
Ivermectin.pdb

>  <RI>
-6.2024e+08

>  <Rbt.Current_Directory>
/root/miniconda3/envs/rdock/share/rxdock-2013.1.1_148c5bd1-0/data/ligands/prepped_ligands/Ivermectin

>  <Rbt.Executable>
rbdock/0.1.0

>  <Rbt.Library>
librxdock.so/0.1.0

>  <Rbt.Parameter_File>
/root/miniconda3/envs/rdock/share/rxdock-2013.1.1_148c5bd1-0/data/scripts/dock.prm

>  <Rbt.Receptor>
def.prm

>  <SCORE>
57.6628

>  <SCORE.INTER>
39.7356

>  <SCORE.INTER.CONST>
1

>  <SCORE.INTER.POLAR>
-0.533205

>  <SCORE.INTER.REPUL>
0.532937

>  <SCORE.INTER.ROT>
8

>  <SCORE.INTER.VDW>
25.4838

>  <SCORE.INTER.norm>
0.640897

>  <SCORE.INTRA>
2.76631

>  <SCORE.INTRA.DIHEDRAL>
-9.32054

>  <SCORE.INTRA.DIHEDRAL.0>
29.9071

>  <SCORE.INTRA.POLAR>
-0.0631636

>  <SCORE.INTRA.POLAR.0>
0

>  <SCORE.INTRA.REPUL>
0

>  <SCORE.INTRA.REPUL.0>
0

>  <SCORE.INTRA.VDW>
7.64133

>  <SCORE.INTRA.VDW.0>
1.27762

>  <SCORE.INTRA.norm>
0.0446179

>  <SCORE.RESTR>
16.0577

>  <SCORE.RESTR.CAVITY>
16.0577

>  <SCORE.RESTR.norm>
0.258995

>  <SCORE.SYSTEM>
-0.896758

>  <SCORE.SYSTEM.CONST>
0

>  <SCORE.SYSTEM.DIHEDRAL>
0.246921

>  <SCORE.SYSTEM.VDW>
-1.02022

>  <SCORE.SYSTEM.norm>
-0.0144638

>  <SCORE.heavy>
62

>  <SCORE.norm>
0.930046

>  <TITLE>
    6321424_D                                                             

$$$$
Ivermectin.pdb
  RxDock  02242111043D
librxdock.so/0.1.0
 65 71  0  0  0  0  0  0  0  0999 V2000
  -49.3553   -6.6720   18.8128 O   0  0  0  0  0  0
  -49.0604   -5.9072   16.6079 O   0  0  0  0  0  0
  -46.8711   -2.8078   17.9586 O   0  0  0  0  0  0
  -43.3620    0.3063   17.3388 O   0  0  0  0  0  0
  -46.6577    0.6271   18.7822 O   0  0  0  0  0  0
  -42.2050    1.1290   19.6141 O   0  0  0  0  0  0
  -47.4584   -2.0085   19.9829 O   0  0  0  0  0  0
  -50.5042   -1.1590   12.6533 O   0  0  0  0  0  0
  -52.0172   -2.3780   14.0985 O   0  0  0  0  0  0
  -52.3112   -2.2747   17.8300 O   0  0  0  0  0  0
  -49.7151   -0.7245   17.0118 O   0  0  0  0  0  0
  -53.7989   -3.8213   18.9521 O   0  0  0  0  0  0
  -50.1522   -4.2624   20.9949 O   0  0  0  0  0  0
  -52.4683   -3.1890   22.3654 O   0  0  0  0  0  0
  -48.5549   -5.8051   17.9692 C   0  0  0  0  0  0
  -48.8260   -8.0052   18.9841 C   0  0  0  0  0  0
  -47.5459   -7.8777   19.8563 C   0  0  0  0  0  0
  -47.0594   -6.2169   17.9452 C   0  0  0  0  0  0
  -48.6975   -4.3931   18.5933 C   0  0  0  0  0  0
  -46.5727   -6.8208   19.2785 C   0  0  0  0  0  0
  -48.2142   -3.2393   17.6842 C   0  0  0  0  0  0
  -49.4007   -4.6491   15.9729 C   0  0  0  0  0  0
  -48.2920   -3.6087   16.1923 C   0  0  0  0  0  0
  -49.8891   -8.9271   19.6431 C   0  0  0  0  0  0
  -45.5005   -0.0616   18.2836 C   0  0  0  0  0  0
  -45.3025   -1.4204   18.9911 C   0  0  0  0  0  0
  -44.2532    0.8298   18.3381 C   0  0  0  0  0  0
  -46.7968   -9.2059   20.0719 C   0  0  0  0  0  0
  -49.5970   -4.8526   14.4581 C   0  0  0  0  0  0
  -50.1414   -8.5394   21.1212 C   0  0  0  0  0  0
  -43.6255    0.9668   19.7452 C   0  0  0  0  0  0
  -45.5528   -0.2796   16.7940 C   0  0  0  0  0  0
  -49.4352  -10.4001   19.5831 C   0  0  0  0  0  0
  -46.6507   -2.0958   19.0760 C   0  0  0  0  0  0
  -44.6583   -1.2238   20.3376 C   0  0  0  0  0  0
  -43.9343   -0.1781   20.6913 C   0  0  0  0  0  0
  -44.1277   -0.3251   16.2910 C   0  0  0  0  0  0
  -49.6606   -3.5188   13.7401 C   0  0  0  0  0  0
  -51.5303   -9.0018   21.6013 C   0  0  0  0  0  0
  -46.7084   -0.2623   16.1382 C   0  0  0  0  0  0
  -48.9099   -3.0142   12.7716 C   0  0  0  0  0  0
  -49.2078   -1.6270   12.2247 C   0  0  0  0  0  0
  -43.3703   -0.0666   22.0883 C   0  0  0  0  0  0
  -48.1251   -0.5781   12.5659 C   0  0  0  0  0  0
  -46.7607   -0.4452   14.6879 C   0  0  0  0  0  0
  -50.8267   -1.5586   14.0030 C   0  0  0  0  0  0
  -51.6526   -2.1303   16.5540 C   0  0  0  0  0  0
  -51.0158   -0.7258   16.3915 C   0  0  0  0  0  0
  -50.9195   -0.3108   14.9015 C   0  0  0  0  0  0
  -47.9245   -0.3950   14.0512 C   0  0  0  0  0  0
  -52.6505   -2.3635   15.3987 C   0  0  0  0  0  0
  -47.7715   -3.7299   12.0727 C   0  0  0  0  0  0
  -48.5266    0.7791   11.9657 C   0  0  0  0  0  0
  -52.5978   -3.6490   18.1673 C   0  0  0  0  0  0
  -51.3952   -4.2796   18.8966 C   0  0  0  0  0  0
  -51.2472   -3.6443   20.2928 C   0  0  0  0  0  0
  -52.5670   -3.8102   21.0748 C   0  0  0  0  0  0
  -53.4156   -3.6805   15.6049 C   0  0  0  0  0  0
  -53.7149   -3.1951   20.2484 C   0  0  0  0  0  0
  -55.0464   -3.3774   20.9939 C   0  0  0  0  0  0
  -49.6463    0.1238   18.1740 C   0  0  0  0  0  0
  -50.4529   -5.6075   21.4091 C   0  0  0  0  0  0
  -46.6550    0.6695   19.7874 H   0  0  0  0  0  0
  -41.9469    2.1001   19.5887 H   0  0  0  0  0  0
  -51.6863   -3.5487   22.8863 H   0  0  0  0  0  0
  1 16  1  0  0  0
  2 15  1  0  0  0
  2 22  1  0  0  0
  3 21  1  0  0  0
  3 34  1  0  0  0
  4 27  1  0  0  0
  4 37  1  0  0  0
  5 25  1  0  0  0
  5 63  1  0  0  0
  6 31  1  0  0  0
  6 64  1  0  0  0
  7 34  2  0  0  0
  8 42  1  0  0  0
  8 46  1  0  0  0
  9 46  1  0  0  0
  9 51  1  0  0  0
 10 47  1  0  0  0
 10 54  1  0  0  0
 11 48  1  0  0  0
 11 61  1  0  0  0
 12 54  1  0  0  0
 12 59  1  0  0  0
 13 56  1  0  0  0
 13 62  1  0  0  0
 14 57  1  0  0  0
 14 65  1  0  0  0
 15  1  1  0  0  0
 15 18  1  0  0  0
 15 19  1  0  0  0
 16 17  1  0  0  0
 16 24  1  0  0  0
 17 20  1  0  0  0
 17 28  1  0  0  0
 18 20  1  0  0  0
 19 21  1  0  0  0
 21 23  1  0  0  0
 22 23  1  0  0  0
 22 29  1  0  0  0
 24 30  1  0  0  0
 24 33  1  0  0  0
 25 26  1  0  0  0
 25 32  1  0  0  0
 26 34  1  0  0  0
 26 35  1  0  0  0
 27 25  1  0  0  0
 29 38  1  0  0  0
 30 39  1  0  0  0
 31 27  1  0  0  0
 31 36  1  0  0  0
 32 37  1  0  0  0
 32 40  2  0  0  0
 35 36  2  0  0  0
 36 43  1  0  0  0
 38 41  2  0  0  0
 40 45  1  0  0  0
 41 42  1  0  0  0
 41 52  1  0  0  0
 42 44  1  0  0  0
 44 50  1  0  0  0
 44 53  1  0  0  0
 45 50  2  0  0  0
 46 49  1  0  0  0
 47 48  1  0  0  0
 48 49  1  0  0  0
 51 47  1  0  0  0
 51 58  1  0  0  0
 54 55  1  0  0  0
 55 56  1  0  0  0
 56 57  1  0  0  0
 57 59  1  0  0  0
 59 60  1  0  0  0
M  END
>  <CHROM.0>
-156.47579641,-32.83633078,178.49507775

>  <CHROM.1>
50.20819338,93.04326041,36.84161738,-119.72174528,-164.37219635,-147.91099543
-113.06204542,-71.64825803,-55.70244116,-69.51742888,156.29593605,-48.81302043
-3.06743240,17.70538815,-2.31708532,-0.51228336,-0.88778902

>  <HEADER>
                                                                          

>  <MASTER>
        0    0    0    0    0    0    0    0  136    0  136    0          

>  <Name>
Ivermectin.pdb

>  <RI>
-6.2024e+08

>  <Rbt.Current_Directory>
/root/miniconda3/envs/rdock/share/rxdock-2013.1.1_148c5bd1-0/data/ligands/prepped_ligands/Ivermectin

>  <Rbt.Executable>
rbdock/0.1.0

>  <Rbt.Library>
librxdock.so/0.1.0

>  <Rbt.Parameter_File>
/root/miniconda3/envs/rdock/share/rxdock-2013.1.1_148c5bd1-0/data/scripts/dock.prm

>  <Rbt.Receptor>
def.prm

>  <SCORE>
145.136

>  <SCORE.INTER>
114.324

>  <SCORE.INTER.CONST>
1

>  <SCORE.INTER.POLAR>
-0.785033

>  <SCORE.INTER.REPUL>
0.213914

>  <SCORE.INTER.ROT>
8

>  <SCORE.INTER.VDW>
102.523

>  <SCORE.INTER.norm>
1.84393

>  <SCORE.INTRA>
24.0527

>  <SCORE.INTRA.DIHEDRAL>
-0.240104

>  <SCORE.INTRA.DIHEDRAL.0>
29.9071

>  <SCORE.INTRA.POLAR>
0

>  <SCORE.INTRA.POLAR.0>
0

>  <SCORE.INTRA.REPUL>
0.309893

>  <SCORE.INTRA.REPUL.0>
0

>  <SCORE.INTRA.VDW>
22.6232

>  <SCORE.INTRA.VDW.0>
1.27762

>  <SCORE.INTRA.norm>
0.387946

>  <SCORE.RESTR>
5.03818

>  <SCORE.RESTR.CAVITY>
5.03818

>  <SCORE.RESTR.norm>
0.081261

>  <SCORE.SYSTEM>
1.72148

>  <SCORE.SYSTEM.CONST>
0

>  <SCORE.SYSTEM.DIHEDRAL>
4.26227

>  <SCORE.SYSTEM.VDW>
-0.409657

>  <SCORE.SYSTEM.norm>
0.0277657

>  <SCORE.heavy>
62

>  <SCORE.norm>
2.3409

>  <TITLE>
    6321424_D                                                             

$$$$
Ivermectin.pdb
  RxDock  02242111043D
librxdock.so/0.1.0
 65 71  0  0  0  0  0  0  0  0999 V2000
  -44.8907    0.1220   19.7026 O   0  0  0  0  0  0
  -46.1151    0.3376   17.7057 O   0  0  0  0  0  0
  -49.4448   -0.9175   19.5928 O   0  0  0  0  0  0
  -54.1500   -0.8281   20.0921 O   0  0  0  0  0  0
  -51.7448   -3.5162   20.2847 O   0  0  0  0  0  0
  -55.0020   -1.3129   22.5884 O   0  0  0  0  0  0
  -49.1218   -2.4121   21.2491 O   0  0  0  0  0  0
  -49.2337   -2.9826   13.2876 O   0  0  0  0  0  0
  -48.2485   -3.9044   15.2984 O   0  0  0  0  0  0
  -49.5669   -6.5852   17.5560 O   0  0  0  0  0  0
  -51.8406   -5.7894   15.5535 O   0  0  0  0  0  0
  -48.4916   -6.4819   19.7233 O   0  0  0  0  0  0
  -52.0620   -8.5723   20.4637 O   0  0  0  0  0  0
  -49.5053   -9.8954   20.7917 O   0  0  0  0  0  0
  -46.2292    0.2158   19.1517 C   0  0  0  0  0  0
  -44.3137    1.3833   20.1066 C   0  0  0  0  0  0
  -45.0955    1.8596   21.3625 C   0  0  0  0  0  0
  -46.9968    1.4614   19.6672 C   0  0  0  0  0  0
  -46.9495   -1.0734   19.6237 C   0  0  0  0  0  0
  -46.6236    1.8517   21.1122 C   0  0  0  0  0  0
  -48.2771   -1.3708   18.8884 C   0  0  0  0  0  0
  -46.8775   -0.6260   16.9364 C   0  0  0  0  0  0
  -48.3087   -0.7503   17.4805 C   0  0  0  0  0  0
  -42.7963    1.2144   20.3957 C   0  0  0  0  0  0
  -52.1954   -2.1533   20.2505 C   0  0  0  0  0  0
  -51.2489   -1.2246   21.0427 C   0  0  0  0  0  0
  -53.6591   -2.0374   20.6950 C   0  0  0  0  0  0
  -44.6651    3.2433   21.8842 C   0  0  0  0  0  0
  -46.9446   -0.1950   15.4584 C   0  0  0  0  0  0
  -41.9663    1.1945   19.0883 C   0  0  0  0  0  0
  -53.8718   -2.1204   22.2249 C   0  0  0  0  0  0
  -52.3474   -1.6280   18.8468 C   0  0  0  0  0  0
  -42.5388   -0.0938   21.1712 C   0  0  0  0  0  0
  -49.8304   -1.5989   20.6840 C   0  0  0  0  0  0
  -51.5274   -1.3245   22.5189 C   0  0  0  0  0  0
  -52.6636   -1.7299   23.0550 C   0  0  0  0  0  0
  -53.4234   -0.5662   18.8729 C   0  0  0  0  0  0
  -47.9702   -1.0183   14.7042 C   0  0  0  0  0  0
  -42.0044    2.5568   18.3698 C   0  0  0  0  0  0
  -51.7019   -2.1900   17.8303 C   0  0  0  0  0  0
  -49.0558   -0.6573   14.0353 C   0  0  0  0  0  0
  -49.9157   -1.7124   13.3575 C   0  0  0  0  0  0
  -52.8168   -1.8314   24.5545 C   0  0  0  0  0  0
  -51.3070   -1.8917   14.0064 C   0  0  0  0  0  0
  -51.8688   -1.7010   16.4620 C   0  0  0  0  0  0
  -49.4300   -3.7903   14.4685 C   0  0  0  0  0  0
  -49.6470   -5.5235   16.5817 C   0  0  0  0  0  0
  -50.4296   -5.9618   15.3168 C   0  0  0  0  0  0
  -49.9776   -5.1717   14.0626 C   0  0  0  0  0  0
  -51.2357   -2.2973   15.4590 C   0  0  0  0  0  0
  -48.2334   -5.0652   16.1611 C   0  0  0  0  0  0
  -49.5202    0.7672   13.8082 C   0  0  0  0  0  0
  -52.0864   -2.9757   13.2440 C   0  0  0  0  0  0
  -49.6325   -6.1104   18.9179 C   0  0  0  0  0  0
  -50.9329   -6.5957   19.5883 C   0  0  0  0  0  0
  -50.8680   -8.1212   19.7968 C   0  0  0  0  0  0
  -49.6109   -8.4739   20.6191 C   0  0  0  0  0  0
  -47.3733   -4.7658   17.3992 C   0  0  0  0  0  0
  -48.3705   -7.9082   19.8978 C   0  0  0  0  0  0
  -47.1073   -8.2198   20.7160 C   0  0  0  0  0  0
  -52.3262   -6.5747   16.6590 C   0  0  0  0  0  0
  -52.2033   -8.0092   21.7806 C   0  0  0  0  0  0
  -51.0797   -3.6646   21.0248 H   0  0  0  0  0  0
  -55.1680   -1.3382   23.5794 H   0  0  0  0  0  0
  -50.2661  -10.2549   21.3433 H   0  0  0  0  0  0
  1 16  1  0  0  0
  2 15  1  0  0  0
  2 22  1  0  0  0
  3 21  1  0  0  0
  3 34  1  0  0  0
  4 27  1  0  0  0
  4 37  1  0  0  0
  5 25  1  0  0  0
  5 63  1  0  0  0
  6 31  1  0  0  0
  6 64  1  0  0  0
  7 34  2  0  0  0
  8 42  1  0  0  0
  8 46  1  0  0  0
  9 46  1  0  0  0
  9 51  1  0  0  0
 10 47  1  0  0  0
 10 54  1  0  0  0
 11 48  1  0  0  0
 11 61  1  0  0  0
 12 54  1  0  0  0
 12 59  1  0  0  0
 13 56  1  0  0  0
 13 62  1  0  0  0
 14 57  1  0  0  0
 14 65  1  0  0  0
 15  1  1  0  0  0
 15 18  1  0  0  0
 15 19  1  0  0  0
 16 17  1  0  0  0
 16 24  1  0  0  0
 17 20  1  0  0  0
 17 28  1  0  0  0
 18 20  1  0  0  0
 19 21  1  0  0  0
 21 23  1  0  0  0
 22 23  1  0  0  0
 22 29  1  0  0  0
 24 30  1  0  0  0
 24 33  1  0  0  0
 25 26  1  0  0  0
 25 32  1  0  0  0
 26 34  1  0  0  0
 26 35  1  0  0  0
 27 25  1  0  0  0
 29 38  1  0  0  0
 30 39  1  0  0  0
 31 27  1  0  0  0
 31 36  1  0  0  0
 32 37  1  0  0  0
 32 40  2  0  0  0
 35 36  2  0  0  0
 36 43  1  0  0  0
 38 41  2  0  0  0
 40 45  1  0  0  0
 41 42  1  0  0  0
 41 52  1  0  0  0
 42 44  1  0  0  0
 44 50  1  0  0  0
 44 53  1  0  0  0
 45 50  2  0  0  0
 46 49  1  0  0  0
 47 48  1  0  0  0
 48 49  1  0  0  0
 51 47  1  0  0  0
 51 58  1  0  0  0
 54 55  1  0  0  0
 55 56  1  0  0  0
 56 57  1  0  0  0
 57 59  1  0  0  0
 59 60  1  0  0  0
M  END
>  <CHROM.0>
-171.76626837,60.39835082,71.67075247

>  <CHROM.1>
17.25611570,-179.67258717,87.24374039,-108.73332174,-144.33325814,-122.36114785
-60.42457467,-62.84979143,-64.92350697,79.37169695,66.63778502,-49.26378942
-2.67031559,18.60910632,0.24784366,0.80401487,1.26402200

>  <HEADER>
                                                                          

>  <MASTER>
        0    0    0    0    0    0    0    0  136    0  136    0          

>  <Name>
Ivermectin.pdb

>  <RI>
-6.2024e+08

>  <Rbt.Current_Directory>
/root/miniconda3/envs/rdock/share/rxdock-2013.1.1_148c5bd1-0/data/ligands/prepped_ligands/Ivermectin

>  <Rbt.Executable>
rbdock/0.1.0

>  <Rbt.Library>
librxdock.so/0.1.0

>  <Rbt.Parameter_File>
/root/miniconda3/envs/rdock/share/rxdock-2013.1.1_148c5bd1-0/data/scripts/dock.prm

>  <Rbt.Receptor>
def.prm

>  <SCORE>
48.0127

>  <SCORE.INTER>
25.2861

>  <SCORE.INTER.CONST>
1

>  <SCORE.INTER.POLAR>
-0.476411

>  <SCORE.INTER.REPUL>
0.0470267

>  <SCORE.INTER.ROT>
8

>  <SCORE.INTER.VDW>
13.2707

>  <SCORE.INTER.norm>
0.40784

>  <SCORE.INTRA>
7.90418

>  <SCORE.INTRA.DIHEDRAL>
-0.617143

>  <SCORE.INTRA.DIHEDRAL.0>
29.9071

>  <SCORE.INTRA.POLAR>
0

>  <SCORE.INTRA.POLAR.0>
0

>  <SCORE.INTRA.REPUL>
0.000327775

>  <SCORE.INTRA.REPUL.0>
0

>  <SCORE.INTRA.VDW>
8.21111

>  <SCORE.INTRA.VDW.0>
1.27762

>  <SCORE.INTRA.norm>
0.127487

>  <SCORE.RESTR>
15.4719

>  <SCORE.RESTR.CAVITY>
15.4719

>  <SCORE.RESTR.norm>
0.249546

>  <SCORE.SYSTEM>
-0.649414

>  <SCORE.SYSTEM.CONST>
0

>  <SCORE.SYSTEM.DIHEDRAL>
0.476568

>  <SCORE.SYSTEM.POLAR>
-0.0177766

>  <SCORE.SYSTEM.VDW>
-0.827257

>  <SCORE.SYSTEM.norm>
-0.0104744

>  <SCORE.heavy>
62

>  <SCORE.norm>
0.774398

>  <TITLE>
    6321424_D                                                             

$$$$
Ivermectin.pdb
  RxDock  02242111043D
librxdock.so/0.1.0
 65 71  0  0  0  0  0  0  0  0999 V2000
  -44.7895    0.1762   20.0045 O   0  0  0  0  0  0
  -46.0598    0.5504   18.0604 O   0  0  0  0  0  0
  -49.3238   -0.9457   19.8858 O   0  0  0  0  0  0
  -54.0182   -1.0038   20.4818 O   0  0  0  0  0  0
  -51.5575   -3.6461   20.3760 O   0  0  0  0  0  0
  -54.8075   -1.7369   22.9378 O   0  0  0  0  0  0
  -48.9367   -2.5807   21.3886 O   0  0  0  0  0  0
  -49.2060   -2.4101   13.4123 O   0  0  0  0  0  0
  -47.8219   -3.2097   15.2313 O   0  0  0  0  0  0
  -48.5029   -5.9581   17.6815 O   0  0  0  0  0  0
  -51.1397   -5.3964   16.0865 O   0  0  0  0  0  0
  -48.4985   -6.4353   20.0557 O   0  0  0  0  0  0
  -51.9461   -8.3780   18.6393 O   0  0  0  0  0  0
  -49.7472   -9.9213   19.7249 O   0  0  0  0  0  0
  -46.1409    0.2922   19.4907 C   0  0  0  0  0  0
  -44.2288    1.4065   20.5134 C   0  0  0  0  0  0
  -44.9929    1.7470   21.8232 C   0  0  0  0  0  0
  -46.9215    1.4678   20.1351 C   0  0  0  0  0  0
  -46.8258   -1.0504   19.8539 C   0  0  0  0  0  0
  -46.5256    1.7297   21.6027 C   0  0  0  0  0  0
  -48.1626   -1.3065   19.1197 C   0  0  0  0  0  0
  -46.8195   -0.3535   17.2193 C   0  0  0  0  0  0
  -48.2361   -0.5584   17.7769 C   0  0  0  0  0  0
  -42.7026    1.2439   20.7562 C   0  0  0  0  0  0
  -52.0352   -2.2958   20.4780 C   0  0  0  0  0  0
  -51.0905   -1.4249   21.3351 C   0  0  0  0  0  0
  -53.4912   -2.2532   20.9595 C   0  0  0  0  0  0
  -44.5786    3.0850   22.4635 C   0  0  0  0  0  0
  -46.9263    0.2117   15.7896 C   0  0  0  0  0  0
  -41.9215    1.1424   19.4226 C   0  0  0  0  0  0
  -53.6698   -2.4827   22.4788 C   0  0  0  0  0  0
  -52.2272   -1.6456   19.1327 C   0  0  0  0  0  0
  -42.4231   -0.0190   21.5966 C   0  0  0  0  0  0
  -49.6728   -1.7338   20.9158 C   0  0  0  0  0  0
  -51.3356   -1.6677   22.8006 C   0  0  0  0  0  0
  -52.4521   -2.1454   23.3183 C   0  0  0  0  0  0
  -53.3228   -0.6141   19.2787 C   0  0  0  0  0  0
  -47.9513   -0.5597   14.9816 C   0  0  0  0  0  0
  -41.9076    2.4856   18.6682 C   0  0  0  0  0  0
  -51.5925   -2.0967   18.0559 C   0  0  0  0  0  0
  -49.0577   -0.1613   14.3705 C   0  0  0  0  0  0
  -49.9110   -1.1669   13.6137 C   0  0  0  0  0  0
  -52.5715   -2.3893   24.8044 C   0  0  0  0  0  0
  -51.2845   -1.4355   14.2697 C   0  0  0  0  0  0
  -51.7978   -1.4861   16.7427 C   0  0  0  0  0  0
  -49.1305   -3.2126   14.6106 C   0  0  0  0  0  0
  -48.8379   -4.9235   16.7328 C   0  0  0  0  0  0
  -49.7782   -5.4489   15.6173 C   0  0  0  0  0  0
  -49.6133   -4.6429   14.3040 C   0  0  0  0  0  0
  -51.1746   -1.9728   15.6764 C   0  0  0  0  0  0
  -47.5604   -4.3505   16.0810 C   0  0  0  0  0  0
  -49.5545    1.2679   14.2865 C   0  0  0  0  0  0
  -52.0586   -2.4602   13.4244 C   0  0  0  0  0  0
  -49.1806   -5.8070   18.9474 C   0  0  0  0  0  0
  -50.6236   -6.3392   18.8450 C   0  0  0  0  0  0
  -50.5987   -7.8723   18.6901 C   0  0  0  0  0  0
  -49.8205   -8.4946   19.8683 C   0  0  0  0  0  0
  -46.5362   -3.9571   17.1573 C   0  0  0  0  0  0
  -48.4119   -7.8684   19.9195 C   0  0  0  0  0  0
  -47.6282   -8.4503   21.1066 C   0  0  0  0  0  0
  -52.0885   -5.8812   15.1171 C   0  0  0  0  0  0
  -52.5991   -8.0806   17.3917 C   0  0  0  0  0  0
  -52.3173   -4.2979   20.2758 H   0  0  0  0  0  0
  -54.9851   -1.9010   23.9134 H   0  0  0  0  0  0
  -49.4771  -10.3628   20.5877 H   0  0  0  0  0  0
  1 16  1  0  0  0
  2 15  1  0  0  0
  2 22  1  0  0  0
  3 21  1  0  0  0
  3 34  1  0  0  0
  4 27  1  0  0  0
  4 37  1  0  0  0
  5 25  1  0  0  0
  5 63  1  0  0  0
  6 31  1  0  0  0
  6 64  1  0  0  0
  7 34  2  0  0  0
  8 42  1  0  0  0
  8 46  1  0  0  0
  9 46  1  0  0  0
  9 51  1  0  0  0
 10 47  1  0  0  0
 10 54  1  0  0  0
 11 48  1  0  0  0
 11 61  1  0  0  0
 12 54  1  0  0  0
 12 59  1  0  0  0
 13 56  1  0  0  0
 13 62  1  0  0  0
 14 57  1  0  0  0
 14 65  1  0  0  0
 15  1  1  0  0  0
 15 18  1  0  0  0
 15 19  1  0  0  0
 16 17  1  0  0  0
 16 24  1  0  0  0
 17 20  1  0  0  0
 17 28  1  0  0  0
 18 20  1  0  0  0
 19 21  1  0  0  0
 21 23  1  0  0  0
 22 23  1  0  0  0
 22 29  1  0  0  0
 24 30  1  0  0  0
 24 33  1  0  0  0
 25 26  1  0  0  0
 25 32  1  0  0  0
 26 34  1  0  0  0
 26 35  1  0  0  0
 27 25  1  0  0  0
 29 38  1  0  0  0
 30 39  1  0  0  0
 31 27  1  0  0  0
 31 36  1  0  0  0
 32 37  1  0  0  0
 32 40  2  0  0  0
 35 36  2  0  0  0
 36 43  1  0  0  0
 38 41  2  0  0  0
 40 45  1  0  0  0
 41 42  1  0  0  0
 41 52  1  0  0  0
 42 44  1  0  0  0
 44 50  1  0  0  0
 44 53  1  0  0  0
 45 50  2  0  0  0
 46 49  1  0  0  0
 47 48  1  0  0  0
 48 49  1  0  0  0
 51 47  1  0  0  0
 51 58  1  0  0  0
 54 55  1  0  0  0
 55 56  1  0  0  0
 56 57  1  0  0  0
 57 59  1  0  0  0
 59 60  1  0  0  0
M  END
>  <CHROM.0>
63.35746298,58.46486021,-175.87636059

>  <CHROM.1>
149.80841247,176.91803199,75.37900219,-105.37639740,-106.04301080,-155.70346682
-179.37527161,72.94523063,-164.24636875,70.50991801,70.07502506,-49.10175946
-2.53223422,18.64940190,0.37358208,0.75931700,1.25337540

>  <HEADER>
                                                                          

>  <MASTER>
        0    0    0    0    0    0    0    0  136    0  136    0          

>  <Name>
Ivermectin.pdb

>  <RI>
-6.2024e+08

>  <Rbt.Current_Directory>
/root/miniconda3/envs/rdock/share/rxdock-2013.1.1_148c5bd1-0/data/ligands/prepped_ligands/Ivermectin

>  <Rbt.Executable>
rbdock/0.1.0

>  <Rbt.Library>
librxdock.so/0.1.0

>  <Rbt.Parameter_File>
/root/miniconda3/envs/rdock/share/rxdock-2013.1.1_148c5bd1-0/data/scripts/dock.prm

>  <Rbt.Receptor>
def.prm

>  <SCORE>
51.7921

>  <SCORE.INTER>
38.503

>  <SCORE.INTER.CONST>
1

>  <SCORE.INTER.POLAR>
-0.794913

>  <SCORE.INTER.REPUL>
0.668405

>  <SCORE.INTER.ROT>
8

>  <SCORE.INTER.VDW>
24.4637

>  <SCORE.INTER.norm>
0.621016

>  <SCORE.INTRA>
-1.39974

>  <SCORE.INTRA.DIHEDRAL>
-6.77389

>  <SCORE.INTRA.DIHEDRAL.0>
29.9071

>  <SCORE.INTRA.POLAR>
0

>  <SCORE.INTRA.POLAR.0>
0

>  <SCORE.INTRA.REPUL>
0.0327966

>  <SCORE.INTRA.REPUL.0>
0

>  <SCORE.INTRA.VDW>
1.82322

>  <SCORE.INTRA.VDW.0>
1.27762

>  <SCORE.INTRA.norm>
-0.0225764

>  <SCORE.RESTR>
15.598

>  <SCORE.RESTR.CAVITY>
15.598

>  <SCORE.RESTR.norm>
0.251581

>  <SCORE.SYSTEM>
-0.90913

>  <SCORE.SYSTEM.CONST>
0

>  <SCORE.SYSTEM.DIHEDRAL>
0.0755507

>  <SCORE.SYSTEM.POLAR>
-0.0107436

>  <SCORE.SYSTEM.VDW>
-0.910378

>  <SCORE.SYSTEM.norm>
-0.0146634

>  <SCORE.heavy>
62

>  <SCORE.norm>
0.835357

>  <TITLE>
    6321424_D                                                             

$$$$
