Ivermectin.pdb
  RxDock  02242109523D
librxdock.so/0.1.0
 65 71  0  0  0  0  0  0  0  0999 V2000
  -44.9557    0.2066   19.7259 O   0  0  0  0  0  0
  -46.2097    0.4245   17.7477 O   0  0  0  0  0  0
  -49.4868   -0.9322   19.6564 O   0  0  0  0  0  0
  -54.1861   -0.9550   20.2150 O   0  0  0  0  0  0
  -51.7200   -3.5915   20.3372 O   0  0  0  0  0  0
  -54.9955   -1.4958   22.7140 O   0  0  0  0  0  0
  -49.1100   -2.4438   21.2857 O   0  0  0  0  0  0
  -49.3101   -2.8981   13.3185 O   0  0  0  0  0  0
  -47.8854   -3.4840   15.1870 O   0  0  0  0  0  0
  -48.4652   -6.0031   17.8961 O   0  0  0  0  0  0
  -51.1331   -5.6653   16.2896 O   0  0  0  0  0  0
  -48.5763   -6.3704   20.2872 O   0  0  0  0  0  0
  -51.8484   -8.5340   18.7778 O   0  0  0  0  0  0
  -49.6501   -9.9221   20.0567 O   0  0  0  0  0  0
  -46.3028    0.2787   19.1930 C   0  0  0  0  0  0
  -44.4016    1.4742   20.1418 C   0  0  0  0  0  0
  -45.1778    1.9143   21.4143 C   0  0  0  0  0  0
  -47.0911    1.4992   19.7368 C   0  0  0  0  0  0
  -46.9885   -1.0331   19.6542 C   0  0  0  0  0  0
  -46.7084    1.8761   21.1827 C   0  0  0  0  0  0
  -48.3184   -1.3490   18.9309 C   0  0  0  0  0  0
  -46.9604   -0.5443   16.9733 C   0  0  0  0  0  0
  -48.3815   -0.7084   17.5331 C   0  0  0  0  0  0
  -42.8774    1.3349   20.4096 C   0  0  0  0  0  0
  -52.2010   -2.2386   20.3292 C   0  0  0  0  0  0
  -51.2652   -1.3010   21.1236 C   0  0  0  0  0  0
  -53.6611   -2.1620   20.7934 C   0  0  0  0  0  0
  -44.7715    3.2992   21.9515 C   0  0  0  0  0  0
  -47.0557   -0.0929   15.5030 C   0  0  0  0  0  0
  -42.0708    1.2705   19.0890 C   0  0  0  0  0  0
  -53.8525   -2.2724   22.3244 C   0  0  0  0  0  0
  -52.3823   -1.6960   18.9356 C   0  0  0  0  0  0
  -42.5900    0.0628   21.2333 C   0  0  0  0  0  0
  -49.8434   -1.6383   20.7419 C   0  0  0  0  0  0
  -51.5227   -1.4290   22.6015 C   0  0  0  0  0  0
  -52.6428   -1.8675   23.1453 C   0  0  0  0  0  0
  -53.4810   -0.6589   18.9910 C   0  0  0  0  0  0
  -48.0724   -0.9275   14.7490 C   0  0  0  0  0  0
  -42.1488    2.5973   18.3098 C   0  0  0  0  0  0
  -51.7374   -2.2283   17.9028 C   0  0  0  0  0  0
  -49.1740   -0.5808   14.0992 C   0  0  0  0  0  0
  -50.0190   -1.6446   13.4161 C   0  0  0  0  0  0
  -52.7748   -1.9948   24.6449 C   0  0  0  0  0  0
  -51.3977   -1.8644   14.0792 C   0  0  0  0  0  0
  -51.9324   -1.7228   16.5442 C   0  0  0  0  0  0
  -49.2000   -3.5803   14.5866 C   0  0  0  0  0  0
  -48.8384   -5.0728   16.8578 C   0  0  0  0  0  0
  -49.7757   -5.7266   15.8097 C   0  0  0  0  0  0
  -49.6467   -5.0455   14.4237 C   0  0  0  0  0  0
  -51.2990   -2.2899   15.5246 C   0  0  0  0  0  0
  -47.5840   -4.5314   16.1378 C   0  0  0  0  0  0
  -49.6726    0.8362   13.8994 C   0  0  0  0  0  0
  -52.1625   -2.9541   13.3102 C   0  0  0  0  0  0
  -49.2205   -5.8259   19.1138 C   0  0  0  0  0  0
  -50.6306   -6.4287   18.9576 C   0  0  0  0  0  0
  -50.5296   -7.9644   18.8786 C   0  0  0  0  0  0
  -49.7939   -8.4953   20.1267 C   0  0  0  0  0  0
  -46.5595   -4.0104   17.1583 C   0  0  0  0  0  0
  -48.4193   -7.8026   20.2254 C   0  0  0  0  0  0
  -47.6803   -8.2926   21.4807 C   0  0  0  0  0  0
  -52.1059   -5.9442   15.2645 C   0  0  0  0  0  0
  -52.4527   -8.2996   17.4928 C   0  0  0  0  0  0
  -50.7229   -3.6276   20.2076 H   0  0  0  0  0  0
  -55.1269   -1.5097   23.7103 H   0  0  0  0  0  0
  -49.1092  -10.1968   19.2540 H   0  0  0  0  0  0
  1 16  1  0  0  0
  2 15  1  0  0  0
  2 22  1  0  0  0
  3 21  1  0  0  0
  3 34  1  0  0  0
  4 27  1  0  0  0
  4 37  1  0  0  0
  5 25  1  0  0  0
  5 63  1  0  0  0
  6 31  1  0  0  0
  6 64  1  0  0  0
  7 34  2  0  0  0
  8 42  1  0  0  0
  8 46  1  0  0  0
  9 46  1  0  0  0
  9 51  1  0  0  0
 10 47  1  0  0  0
 10 54  1  0  0  0
 11 48  1  0  0  0
 11 61  1  0  0  0
 12 54  1  0  0  0
 12 59  1  0  0  0
 13 56  1  0  0  0
 13 62  1  0  0  0
 14 57  1  0  0  0
 14 65  1  0  0  0
 15  1  1  0  0  0
 15 18  1  0  0  0
 15 19  1  0  0  0
 16 17  1  0  0  0
 16 24  1  0  0  0
 17 20  1  0  0  0
 17 28  1  0  0  0
 18 20  1  0  0  0
 19 21  1  0  0  0
 21 23  1  0  0  0
 22 23  1  0  0  0
 22 29  1  0  0  0
 24 30  1  0  0  0
 24 33  1  0  0  0
 25 26  1  0  0  0
 25 32  1  0  0  0
 26 34  1  0  0  0
 26 35  1  0  0  0
 27 25  1  0  0  0
 29 38  1  0  0  0
 30 39  1  0  0  0
 31 27  1  0  0  0
 31 36  1  0  0  0
 32 37  1  0  0  0
 32 40  2  0  0  0
 35 36  2  0  0  0
 36 43  1  0  0  0
 38 41  2  0  0  0
 40 45  1  0  0  0
 41 42  1  0  0  0
 41 52  1  0  0  0
 42 44  1  0  0  0
 44 50  1  0  0  0
 44 53  1  0  0  0
 45 50  2  0  0  0
 46 49  1  0  0  0
 47 48  1  0  0  0
 48 49  1  0  0  0
 51 47  1  0  0  0
 51 58  1  0  0  0
 54 55  1  0  0  0
 55 56  1  0  0  0
 56 57  1  0  0  0
 57 59  1  0  0  0
 59 60  1  0  0  0
M  END
>  <CHROM.0>
65.05729949,-63.29428928,54.47435589

>  <CHROM.1>
-41.77897709,-177.40672104,73.19662580,-103.98731642,-100.80416313,-158.67493833
165.75398010,71.68472404,61.03065002,76.07951109,66.12615746,-49.20402493
-2.59456970,18.53678007,0.42775017,0.75131380,1.12468609

>  <HEADER>
                                                                          

>  <MASTER>
        0    0    0    0    0    0    0    0  136    0  136    0          

>  <Name>
Ivermectin.pdb

>  <RI>
-8.28202e+08

>  <Rbt.Current_Directory>
/root/miniconda3/envs/rdock/share/rxdock-2013.1.1_148c5bd1-0/data/ligands/prepped_ligands/Ivermectin

>  <Rbt.Executable>
rbdock/0.1.0

>  <Rbt.Library>
librxdock.so/0.1.0

>  <Rbt.Parameter_File>
/root/miniconda3/envs/rdock/share/rxdock-2013.1.1_148c5bd1-0/data/scripts/dock.prm

>  <Rbt.Receptor>
def.prm

>  <SCORE>
47.3805

>  <SCORE.INTER>
32.8332

>  <SCORE.INTER.CONST>
1

>  <SCORE.INTER.POLAR>
-0.591824

>  <SCORE.INTER.REPUL>
0.237637

>  <SCORE.INTER.ROT>
8

>  <SCORE.INTER.VDW>
20.2572

>  <SCORE.INTER.norm>
0.529568

>  <SCORE.INTRA>
0.136445

>  <SCORE.INTRA.DIHEDRAL>
-11.0635

>  <SCORE.INTRA.DIHEDRAL.0>
29.9071

>  <SCORE.INTRA.POLAR>
0

>  <SCORE.INTRA.POLAR.0>
0

>  <SCORE.INTRA.REPUL>
0.0388174

>  <SCORE.INTRA.REPUL.0>
0

>  <SCORE.INTRA.VDW>
5.47412

>  <SCORE.INTRA.VDW.0>
1.27762

>  <SCORE.INTRA.norm>
0.00220073

>  <SCORE.RESTR>
15.3968

>  <SCORE.RESTR.CAVITY>
15.3968

>  <SCORE.RESTR.norm>
0.248335

>  <SCORE.SYSTEM>
-0.985966

>  <SCORE.SYSTEM.CONST>
0

>  <SCORE.SYSTEM.DIHEDRAL>
0.191916

>  <SCORE.SYSTEM.VDW>
-1.08192

>  <SCORE.SYSTEM.norm>
-0.0159027

>  <SCORE.heavy>
62

>  <SCORE.norm>
0.764201

>  <TITLE>
    6321424_D                                                             

$$$$
Ivermectin.pdb
  RxDock  02242109533D
librxdock.so/0.1.0
 65 71  0  0  0  0  0  0  0  0999 V2000
  -55.1094   -5.3308   16.6775 O   0  0  0  0  0  0
  -53.3123   -4.5502   15.3758 O   0  0  0  0  0  0
  -50.7058   -6.3332   17.8760 O   0  0  0  0  0  0
  -46.5682   -8.5103   18.6082 O   0  0  0  0  0  0
  -48.3985   -6.0727   20.5463 O   0  0  0  0  0  0
  -46.5864  -10.2532   20.6465 O   0  0  0  0  0  0
  -51.3385   -6.4289   20.0375 O   0  0  0  0  0  0
  -48.3222   -0.6307   15.4542 O   0  0  0  0  0  0
  -48.8710   -1.2643   17.7261 O   0  0  0  0  0  0
  -46.9162   -0.7005   20.8697 O   0  0  0  0  0  0
  -45.0874    0.0398   18.4366 O   0  0  0  0  0  0
  -45.6339   -1.3998   22.8013 O   0  0  0  0  0  0
  -43.0679    1.2523   20.7893 O   0  0  0  0  0  0
  -44.0780    1.9191   23.4218 O   0  0  0  0  0  0
  -53.6986   -5.5148   16.3953 C   0  0  0  0  0  0
  -55.9948   -6.1709   15.9048 C   0  0  0  0  0  0
  -55.7998   -7.6264   16.4135 C   0  0  0  0  0  0
  -53.3837   -6.9301   15.8437 C   0  0  0  0  0  0
  -52.9865   -5.3153   17.7579 C   0  0  0  0  0  0
  -54.3039   -8.0264   16.4190 C   0  0  0  0  0  0
  -51.4549   -5.1262   17.6584 C   0  0  0  0  0  0
  -52.1768   -3.7123   15.7082 C   0  0  0  0  0  0
  -51.0317   -4.5513   16.2952 C   0  0  0  0  0  0
  -57.4650   -5.6925   16.0607 C   0  0  0  0  0  0
  -48.2004   -7.0619   19.5245 C   0  0  0  0  0  0
  -49.5074   -7.8244   19.2144 C   0  0  0  0  0  0
  -47.0304   -7.9930   19.8675 C   0  0  0  0  0  0
  -56.6126   -8.6787   15.6364 C   0  0  0  0  0  0
  -51.6643   -2.9854   14.4498 C   0  0  0  0  0  0
  -58.3389   -6.7589   16.7663 C   0  0  0  0  0  0
  -47.3622   -9.0766   20.9202 C   0  0  0  0  0  0
  -47.6519   -6.4765   18.2494 C   0  0  0  0  0  0
  -58.0775   -5.3776   14.6806 C   0  0  0  0  0  0
  -50.6229   -6.8098   19.1289 C   0  0  0  0  0  0
  -49.7569   -8.8854   20.2531 C   0  0  0  0  0  0
  -48.8331   -9.4337   21.0205 C   0  0  0  0  0  0
  -46.8492   -7.5574   17.5614 C   0  0  0  0  0  0
  -50.3156   -2.3440   14.7110 C   0  0  0  0  0  0
  -59.7635   -6.2384   17.0365 C   0  0  0  0  0  0
  -47.7918   -5.1845   17.9719 C   0  0  0  0  0  0
  -49.1406   -2.5163   14.1229 C   0  0  0  0  0  0
  -47.9325   -1.7217   14.5934 C   0  0  0  0  0  0
  -49.2058  -10.4623   22.0622 C   0  0  0  0  0  0
  -46.8519   -2.5838   15.2847 C   0  0  0  0  0  0
  -47.2360   -4.6066   16.7485 C   0  0  0  0  0  0
  -47.8531   -0.7914   16.8106 C   0  0  0  0  0  0
  -47.1119   -0.8633   19.4492 C   0  0  0  0  0  0
  -46.4881    0.3066   18.6450 C   0  0  0  0  0  0
  -47.2173    0.5253   17.2952 C   0  0  0  0  0  0
  -47.3635   -3.3075   16.5071 C   0  0  0  0  0  0
  -48.6171   -0.9526   19.1155 C   0  0  0  0  0  0
  -48.8719   -3.4157   12.9333 C   0  0  0  0  0  0
  -45.6831   -1.6827   15.7156 C   0  0  0  0  0  0
  -45.7374   -1.3747   21.3601 C   0  0  0  0  0  0
  -44.4707   -0.7424   20.7505 C   0  0  0  0  0  0
  -44.2749    0.6752   21.3222 C   0  0  0  0  0  0
  -44.2183    0.6041   22.8626 C   0  0  0  0  0  0
  -49.3050   -2.0011   20.0043 C   0  0  0  0  0  0
  -45.4999   -0.0839   23.3757 C   0  0  0  0  0  0
  -45.4513   -0.1950   24.9078 C   0  0  0  0  0  0
  -44.3433    1.2096   18.0457 C   0  0  0  0  0  0
  -41.8994    0.4736   21.1047 C   0  0  0  0  0  0
  -47.7290   -6.1742   21.2904 H   0  0  0  0  0  0
  -45.7436  -10.2732   21.1938 H   0  0  0  0  0  0
  -43.2659    1.9811   24.0126 H   0  0  0  0  0  0
  1 16  1  0  0  0
  2 15  1  0  0  0
  2 22  1  0  0  0
  3 21  1  0  0  0
  3 34  1  0  0  0
  4 27  1  0  0  0
  4 37  1  0  0  0
  5 25  1  0  0  0
  5 63  1  0  0  0
  6 31  1  0  0  0
  6 64  1  0  0  0
  7 34  2  0  0  0
  8 42  1  0  0  0
  8 46  1  0  0  0
  9 46  1  0  0  0
  9 51  1  0  0  0
 10 47  1  0  0  0
 10 54  1  0  0  0
 11 48  1  0  0  0
 11 61  1  0  0  0
 12 54  1  0  0  0
 12 59  1  0  0  0
 13 56  1  0  0  0
 13 62  1  0  0  0
 14 57  1  0  0  0
 14 65  1  0  0  0
 15  1  1  0  0  0
 15 18  1  0  0  0
 15 19  1  0  0  0
 16 17  1  0  0  0
 16 24  1  0  0  0
 17 20  1  0  0  0
 17 28  1  0  0  0
 18 20  1  0  0  0
 19 21  1  0  0  0
 21 23  1  0  0  0
 22 23  1  0  0  0
 22 29  1  0  0  0
 24 30  1  0  0  0
 24 33  1  0  0  0
 25 26  1  0  0  0
 25 32  1  0  0  0
 26 34  1  0  0  0
 26 35  1  0  0  0
 27 25  1  0  0  0
 29 38  1  0  0  0
 30 39  1  0  0  0
 31 27  1  0  0  0
 31 36  1  0  0  0
 32 37  1  0  0  0
 32 40  2  0  0  0
 35 36  2  0  0  0
 36 43  1  0  0  0
 38 41  2  0  0  0
 40 45  1  0  0  0
 41 42  1  0  0  0
 41 52  1  0  0  0
 42 44  1  0  0  0
 44 50  1  0  0  0
 44 53  1  0  0  0
 45 50  2  0  0  0
 46 49  1  0  0  0
 47 48  1  0  0  0
 48 49  1  0  0  0
 51 47  1  0  0  0
 51 58  1  0  0  0
 54 55  1  0  0  0
 55 56  1  0  0  0
 56 57  1  0  0  0
 57 59  1  0  0  0
 59 60  1  0  0  0
M  END
>  <CHROM.0>
-172.26615879,59.83016813,143.35683694

>  <CHROM.1>
127.55444022,95.52402894,113.98779960,-101.20282420,-93.65965376,-170.92895556
-163.37864401,-59.41632132,-123.80728554,-115.46611302,174.84794777,-49.24539178
-3.97622016,18.33119690,2.82382150,0.58396046,2.68526715

>  <HEADER>
                                                                          

>  <MASTER>
        0    0    0    0    0    0    0    0  136    0  136    0          

>  <Name>
Ivermectin.pdb

>  <RI>
-8.28202e+08

>  <Rbt.Current_Directory>
/root/miniconda3/envs/rdock/share/rxdock-2013.1.1_148c5bd1-0/data/ligands/prepped_ligands/Ivermectin

>  <Rbt.Executable>
rbdock/0.1.0

>  <Rbt.Library>
librxdock.so/0.1.0

>  <Rbt.Parameter_File>
/root/miniconda3/envs/rdock/share/rxdock-2013.1.1_148c5bd1-0/data/scripts/dock.prm

>  <Rbt.Receptor>
def.prm

>  <SCORE>
136.936

>  <SCORE.INTER>
87.4503

>  <SCORE.INTER.CONST>
1

>  <SCORE.INTER.POLAR>
-0.900232

>  <SCORE.INTER.REPUL>
0.234284

>  <SCORE.INTER.ROT>
8

>  <SCORE.INTER.VDW>
75.9397

>  <SCORE.INTER.norm>
1.41049

>  <SCORE.INTRA>
34.8602

>  <SCORE.INTRA.DIHEDRAL>
13.2029

>  <SCORE.INTRA.DIHEDRAL.0>
29.9071

>  <SCORE.INTRA.POLAR>
0

>  <SCORE.INTRA.POLAR.0>
0

>  <SCORE.INTRA.REPUL>
0

>  <SCORE.INTRA.REPUL.0>
0

>  <SCORE.INTRA.VDW>
28.2588

>  <SCORE.INTRA.VDW.0>
1.27762

>  <SCORE.INTRA.norm>
0.562262

>  <SCORE.RESTR>
13.9445

>  <SCORE.RESTR.CAVITY>
13.9445

>  <SCORE.RESTR.norm>
0.224912

>  <SCORE.SYSTEM>
0.680814

>  <SCORE.SYSTEM.CONST>
0

>  <SCORE.SYSTEM.DIHEDRAL>
2.5684

>  <SCORE.SYSTEM.VDW>
-0.603385

>  <SCORE.SYSTEM.norm>
0.0109809

>  <SCORE.heavy>
62

>  <SCORE.norm>
2.20864

>  <TITLE>
    6321424_D                                                             

$$$$
Ivermectin.pdb
  RxDock  02242109533D
librxdock.so/0.1.0
 65 71  0  0  0  0  0  0  0  0999 V2000
  -46.8053   -7.5967   17.5388 O   0  0  0  0  0  0
  -47.2852   -5.5482   18.5905 O   0  0  0  0  0  0
  -50.9109   -5.4791   16.8374 O   0  0  0  0  0  0
  -55.4838   -4.2645   16.9324 O   0  0  0  0  0  0
  -53.0255   -4.2379   14.2859 O   0  0  0  0  0  0
  -57.0855   -5.8941   15.5283 O   0  0  0  0  0  0
  -51.0225   -6.4199   14.7920 O   0  0  0  0  0  0
  -48.3354    0.6072   17.4604 O   0  0  0  0  0  0
  -46.3463    1.5158   18.5006 O   0  0  0  0  0  0
  -42.7600    0.5997   17.9342 O   0  0  0  0  0  0
  -44.5506   -1.5190   16.4789 O   0  0  0  0  0  0
  -42.8979   -1.1879   19.5621 O   0  0  0  0  0  0
  -40.7837    1.8433   21.5641 O   0  0  0  0  0  0
  -43.4053    1.0363   22.4975 O   0  0  0  0  0  0
  -47.8754   -6.6890   17.9056 C   0  0  0  0  0  0
  -46.5363   -8.6360   18.5055 C   0  0  0  0  0  0
  -47.7466   -9.6104   18.4744 C   0  0  0  0  0  0
  -48.8982   -7.3386   18.8743 C   0  0  0  0  0  0
  -48.5759   -6.3322   16.5693 C   0  0  0  0  0  0
  -49.0864   -8.8511   18.6364 C   0  0  0  0  0  0
  -49.5320   -5.1195   16.6514 C   0  0  0  0  0  0
  -47.6329   -4.2483   18.0508 C   0  0  0  0  0  0
  -49.1427   -4.1533   17.7842 C   0  0  0  0  0  0
  -45.2015   -9.3557   18.1666 C   0  0  0  0  0  0
  -53.5760   -4.5788   15.5675 C   0  0  0  0  0  0
  -53.0607   -5.9500   16.0578 C   0  0  0  0  0  0
  -55.1069   -4.4810   15.5620 C   0  0  0  0  0  0
  -47.6676  -10.7451   19.5127 C   0  0  0  0  0  0
  -47.2331   -3.1362   19.0398 C   0  0  0  0  0  0
  -44.2044   -9.2931   19.3500 C   0  0  0  0  0  0
  -55.8219   -5.6731   14.8835 C   0  0  0  0  0  0
  -53.2907   -3.5363   16.6169 C   0  0  0  0  0  0
  -44.5454   -8.7160   16.9258 C   0  0  0  0  0  0
  -51.5746   -6.0041   15.7944 C   0  0  0  0  0  0
  -53.8169   -7.0665   15.3882 C   0  0  0  0  0  0
  -55.0195   -6.9601   14.8541 C   0  0  0  0  0  0
  -54.4143   -3.5888   17.6271 C   0  0  0  0  0  0
  -47.8461   -1.8102   18.6344 C   0  0  0  0  0  0
  -44.7662   -9.9893   20.6043 C   0  0  0  0  0  0
  -52.2808   -2.6834   16.4799 C   0  0  0  0  0  0
  -48.6674   -0.9961   19.2816 C   0  0  0  0  0  0
  -49.1279    0.2963   18.6260 C   0  0  0  0  0  0
  -55.6666   -8.1403   14.1681 C   0  0  0  0  0  0
  -50.6308    0.3095   18.2652 C   0  0  0  0  0  0
  -52.0178   -1.6515   17.4826 C   0  0  0  0  0  0
  -46.9174    0.4595   17.6907 C   0  0  0  0  0  0
  -44.1884    0.3937   17.9454 C   0  0  0  0  0  0
  -44.7103   -0.0895   16.5675 C   0  0  0  0  0  0
  -46.1883    0.3179   16.3412 C   0  0  0  0  0  0
  -51.0206   -0.7924   17.3095 C   0  0  0  0  0  0
  -44.9218    1.6977   18.3285 C   0  0  0  0  0  0
  -49.1709   -1.1921   20.6974 C   0  0  0  0  0  0
  -50.9841    1.6564   17.6133 C   0  0  0  0  0  0
  -42.0437   -0.3545   18.7472 C   0  0  0  0  0  0
  -41.0119    0.3706   19.6336 C   0  0  0  0  0  0
  -41.7447    1.2000   20.7059 C   0  0  0  0  0  0
  -42.6789    0.2787   21.5178 C   0  0  0  0  0  0
  -44.3273    2.2923   19.6151 C   0  0  0  0  0  0
  -43.6388   -0.4371   20.5455 C   0  0  0  0  0  0
  -44.5590   -1.3861   21.3295 C   0  0  0  0  0  0
  -44.5623   -2.0040   15.1226 C   0  0  0  0  0  0
  -40.1827    2.9977   20.9497 C   0  0  0  0  0  0
  -52.0196   -4.2356   14.3071 H   0  0  0  0  0  0
  -57.1417   -6.8182   15.9195 H   0  0  0  0  0  0
  -44.0611    1.6635   22.0630 H   0  0  0  0  0  0
  1 16  1  0  0  0
  2 15  1  0  0  0
  2 22  1  0  0  0
  3 21  1  0  0  0
  3 34  1  0  0  0
  4 27  1  0  0  0
  4 37  1  0  0  0
  5 25  1  0  0  0
  5 63  1  0  0  0
  6 31  1  0  0  0
  6 64  1  0  0  0
  7 34  2  0  0  0
  8 42  1  0  0  0
  8 46  1  0  0  0
  9 46  1  0  0  0
  9 51  1  0  0  0
 10 47  1  0  0  0
 10 54  1  0  0  0
 11 48  1  0  0  0
 11 61  1  0  0  0
 12 54  1  0  0  0
 12 59  1  0  0  0
 13 56  1  0  0  0
 13 62  1  0  0  0
 14 57  1  0  0  0
 14 65  1  0  0  0
 15  1  1  0  0  0
 15 18  1  0  0  0
 15 19  1  0  0  0
 16 17  1  0  0  0
 16 24  1  0  0  0
 17 20  1  0  0  0
 17 28  1  0  0  0
 18 20  1  0  0  0
 19 21  1  0  0  0
 21 23  1  0  0  0
 22 23  1  0  0  0
 22 29  1  0  0  0
 24 30  1  0  0  0
 24 33  1  0  0  0
 25 26  1  0  0  0
 25 32  1  0  0  0
 26 34  1  0  0  0
 26 35  1  0  0  0
 27 25  1  0  0  0
 29 38  1  0  0  0
 30 39  1  0  0  0
 31 27  1  0  0  0
 31 36  1  0  0  0
 32 37  1  0  0  0
 32 40  2  0  0  0
 35 36  2  0  0  0
 36 43  1  0  0  0
 38 41  2  0  0  0
 40 45  1  0  0  0
 41 42  1  0  0  0
 41 52  1  0  0  0
 42 44  1  0  0  0
 44 50  1  0  0  0
 44 53  1  0  0  0
 45 50  2  0  0  0
 46 49  1  0  0  0
 47 48  1  0  0  0
 48 49  1  0  0  0
 51 47  1  0  0  0
 51 58  1  0  0  0
 54 55  1  0  0  0
 55 56  1  0  0  0
 56 57  1  0  0  0
 57 59  1  0  0  0
 59 60  1  0  0  0
M  END
>  <CHROM.0>
-14.65098752,-168.94031742,47.99083797

>  <CHROM.1>
-57.00254157,-120.30788369,-46.10565036,-73.90814195,-111.71077166,-8.86844042
-159.84212565,77.16913859,67.60858367,122.96330219,61.13635355,-48.06653820
-3.29430761,17.91587345,-2.56869248,-0.33107763,0.02870222

>  <HEADER>
                                                                          

>  <MASTER>
        0    0    0    0    0    0    0    0  136    0  136    0          

>  <Name>
Ivermectin.pdb

>  <RI>
-8.28202e+08

>  <Rbt.Current_Directory>
/root/miniconda3/envs/rdock/share/rxdock-2013.1.1_148c5bd1-0/data/ligands/prepped_ligands/Ivermectin

>  <Rbt.Executable>
rbdock/0.1.0

>  <Rbt.Library>
librxdock.so/0.1.0

>  <Rbt.Parameter_File>
/root/miniconda3/envs/rdock/share/rxdock-2013.1.1_148c5bd1-0/data/scripts/dock.prm

>  <Rbt.Receptor>
def.prm

>  <SCORE>
155.941

>  <SCORE.INTER>
132.714

>  <SCORE.INTER.CONST>
1

>  <SCORE.INTER.POLAR>
-0.503912

>  <SCORE.INTER.REPUL>
1.36041

>  <SCORE.INTER.ROT>
8

>  <SCORE.INTER.VDW>
114.225

>  <SCORE.INTER.norm>
2.14055

>  <SCORE.INTRA>
8.17897

>  <SCORE.INTRA.DIHEDRAL>
2.37711

>  <SCORE.INTRA.DIHEDRAL.0>
29.9071

>  <SCORE.INTRA.POLAR>
0

>  <SCORE.INTRA.POLAR.0>
0

>  <SCORE.INTRA.REPUL>
0

>  <SCORE.INTRA.REPUL.0>
0

>  <SCORE.INTRA.VDW>
6.99041

>  <SCORE.INTRA.VDW.0>
1.27762

>  <SCORE.INTRA.norm>
0.131919

>  <SCORE.RESTR>
13.5624

>  <SCORE.RESTR.CAVITY>
13.5624

>  <SCORE.RESTR.norm>
0.218748

>  <SCORE.SYSTEM>
1.48539

>  <SCORE.SYSTEM.CONST>
0

>  <SCORE.SYSTEM.DIHEDRAL>
4.02643

>  <SCORE.SYSTEM.VDW>
-0.527827

>  <SCORE.SYSTEM.norm>
0.0239579

>  <SCORE.heavy>
62

>  <SCORE.norm>
2.51517

>  <TITLE>
    6321424_D                                                             

$$$$
Ivermectin.pdb
  RxDock  02242109533D
librxdock.so/0.1.0
 65 71  0  0  0  0  0  0  0  0999 V2000
  -49.4708   -2.0415   14.6957 O   0  0  0  0  0  0
  -49.0346   -3.6142   16.3896 O   0  0  0  0  0  0
  -52.4297   -5.5748   15.4660 O   0  0  0  0  0  0
  -54.8734   -9.6163   15.1664 O   0  0  0  0  0  0
  -55.8187   -6.2853   16.1951 O   0  0  0  0  0  0
  -56.7432   -9.6328   13.2439 O   0  0  0  0  0  0
  -54.1247   -4.2900   14.7191 O   0  0  0  0  0  0
  -51.1423   -5.7653   21.9752 O   0  0  0  0  0  0
  -49.7078   -3.8176   22.0872 O   0  0  0  0  0  0
  -49.9422   -0.6029   20.1814 O   0  0  0  0  0  0
  -51.9625   -2.6364   18.9182 O   0  0  0  0  0  0
  -48.9270   -1.1209   18.0447 O   0  0  0  0  0  0
  -47.6514    2.8029   18.8465 O   0  0  0  0  0  0
  -45.7259    0.6409   18.7300 O   0  0  0  0  0  0
  -49.8124   -3.3634   15.1850 C   0  0  0  0  0  0
  -48.4112   -2.0155   13.7142 C   0  0  0  0  0  0
  -48.9791   -2.6516   12.4149 C   0  0  0  0  0  0
  -49.4687   -4.4805   14.1649 C   0  0  0  0  0  0
  -51.3446   -3.3227   15.4178 C   0  0  0  0  0  0
  -49.6210   -4.0323   12.6968 C   0  0  0  0  0  0
  -51.8966   -4.4992   16.2560 C   0  0  0  0  0  0
  -49.8003   -4.0090   17.5556 C   0  0  0  0  0  0
  -50.8290   -5.0907   17.1934 C   0  0  0  0  0  0
  -47.9252   -0.5577   13.4834 C   0  0  0  0  0  0
  -54.9923   -7.2905   15.5883 C   0  0  0  0  0  0
  -54.1733   -6.7151   14.4119 C   0  0  0  0  0  0
  -55.8118   -8.5277   15.1994 C   0  0  0  0  0  0
  -47.9496   -2.7838   11.2770 C   0  0  0  0  0  0
  -48.8629   -4.5617   18.6468 C   0  0  0  0  0  0
  -47.1341   -0.0216   14.7022 C   0  0  0  0  0  0
  -56.6449   -8.3629   13.9065 C   0  0  0  0  0  0
  -54.0574   -7.9440   16.5724 C   0  0  0  0  0  0
  -49.1255    0.3738   13.2176 C   0  0  0  0  0  0
  -53.6087   -5.3849   14.8514 C   0  0  0  0  0  0
  -55.0278   -6.6111   13.1767 C   0  0  0  0  0  0
  -56.1220   -7.3124   12.9451 C   0  0  0  0  0  0
  -53.7899   -9.3487   16.0813 C   0  0  0  0  0  0
  -49.6572   -5.2452   19.7424 C   0  0  0  0  0  0
  -45.6381   -0.3782   14.6106 C   0  0  0  0  0  0
  -53.7251   -7.3396   17.7082 C   0  0  0  0  0  0
  -49.6219   -6.4895   20.1971 C   0  0  0  0  0  0
  -50.5441   -6.9099   21.3306 C   0  0  0  0  0  0
  -56.9268   -7.0938   11.6855 C   0  0  0  0  0  0
  -51.6408   -7.9110   20.9015 C   0  0  0  0  0  0
  -52.8402   -7.9826   18.6793 C   0  0  0  0  0  0
  -50.7548   -4.5136   21.3681 C   0  0  0  0  0  0
  -50.1557   -2.0086   20.4286 C   0  0  0  0  0  0
  -51.6528   -2.3932   20.3044 C   0  0  0  0  0  0
  -51.9999   -3.6276   21.1746 C   0  0  0  0  0  0
  -52.5458   -7.3711   19.8202 C   0  0  0  0  0  0
  -49.6560   -2.3938   21.8382 C   0  0  0  0  0  0
  -48.6715   -7.5736   19.7305 C   0  0  0  0  0  0
  -52.5088   -8.2656   22.1199 C   0  0  0  0  0  0
  -49.8488   -0.2825   18.7767 C   0  0  0  0  0  0
  -49.4730    1.2012   18.5934 C   0  0  0  0  0  0
  -48.0212    1.4272   19.0580 C   0  0  0  0  0  0
  -47.0812    0.4787   18.2849 C   0  0  0  0  0  0
  -48.2194   -1.8927   22.0563 C   0  0  0  0  0  0
  -47.5628   -0.9724   18.4879 C   0  0  0  0  0  0
  -46.6594   -1.9340   17.6997 C   0  0  0  0  0  0
  -52.4173   -1.4571   18.2274 C   0  0  0  0  0  0
  -48.0038    3.6450   19.9591 C   0  0  0  0  0  0
  -56.2964   -6.6425   17.0053 H   0  0  0  0  0  0
  -56.7226  -10.3928   13.9013 H   0  0  0  0  0  0
  -45.3798    1.5624   18.5219 H   0  0  0  0  0  0
  1 16  1  0  0  0
  2 15  1  0  0  0
  2 22  1  0  0  0
  3 21  1  0  0  0
  3 34  1  0  0  0
  4 27  1  0  0  0
  4 37  1  0  0  0
  5 25  1  0  0  0
  5 63  1  0  0  0
  6 31  1  0  0  0
  6 64  1  0  0  0
  7 34  2  0  0  0
  8 42  1  0  0  0
  8 46  1  0  0  0
  9 46  1  0  0  0
  9 51  1  0  0  0
 10 47  1  0  0  0
 10 54  1  0  0  0
 11 48  1  0  0  0
 11 61  1  0  0  0
 12 54  1  0  0  0
 12 59  1  0  0  0
 13 56  1  0  0  0
 13 62  1  0  0  0
 14 57  1  0  0  0
 14 65  1  0  0  0
 15  1  1  0  0  0
 15 18  1  0  0  0
 15 19  1  0  0  0
 16 17  1  0  0  0
 16 24  1  0  0  0
 17 20  1  0  0  0
 17 28  1  0  0  0
 18 20  1  0  0  0
 19 21  1  0  0  0
 21 23  1  0  0  0
 22 23  1  0  0  0
 22 29  1  0  0  0
 24 30  1  0  0  0
 24 33  1  0  0  0
 25 26  1  0  0  0
 25 32  1  0  0  0
 26 34  1  0  0  0
 26 35  1  0  0  0
 27 25  1  0  0  0
 29 38  1  0  0  0
 30 39  1  0  0  0
 31 27  1  0  0  0
 31 36  1  0  0  0
 32 37  1  0  0  0
 32 40  2  0  0  0
 35 36  2  0  0  0
 36 43  1  0  0  0
 38 41  2  0  0  0
 40 45  1  0  0  0
 41 42  1  0  0  0
 41 52  1  0  0  0
 42 44  1  0  0  0
 44 50  1  0  0  0
 44 53  1  0  0  0
 45 50  2  0  0  0
 46 49  1  0  0  0
 47 48  1  0  0  0
 48 49  1  0  0  0
 51 47  1  0  0  0
 51 58  1  0  0  0
 54 55  1  0  0  0
 55 56  1  0  0  0
 56 57  1  0  0  0
 57 59  1  0  0  0
 59 60  1  0  0  0
M  END
>  <CHROM.0>
127.55528935,-94.07140115,26.51846612

>  <CHROM.1>
-175.52653397,30.39034898,1.71620544,-100.05043692,-82.87920155,-49.77713514
-90.82987477,87.29988589,-64.37427020,71.17445491,87.32791700,-50.91675231
-3.93106909,17.20493006,-0.12656257,-0.87440005,-1.36062859

>  <HEADER>
                                                                          

>  <MASTER>
        0    0    0    0    0    0    0    0  136    0  136    0          

>  <Name>
Ivermectin.pdb

>  <RI>
-8.28202e+08

>  <Rbt.Current_Directory>
/root/miniconda3/envs/rdock/share/rxdock-2013.1.1_148c5bd1-0/data/ligands/prepped_ligands/Ivermectin

>  <Rbt.Executable>
rbdock/0.1.0

>  <Rbt.Library>
librxdock.so/0.1.0

>  <Rbt.Parameter_File>
/root/miniconda3/envs/rdock/share/rxdock-2013.1.1_148c5bd1-0/data/scripts/dock.prm

>  <Rbt.Receptor>
def.prm

>  <SCORE>
209.751

>  <SCORE.INTER>
190.101

>  <SCORE.INTER.CONST>
1

>  <SCORE.INTER.POLAR>
-1.97779

>  <SCORE.INTER.REPUL>
1.04394

>  <SCORE.INTER.ROT>
8

>  <SCORE.INTER.VDW>
178.206

>  <SCORE.INTER.norm>
3.06615

>  <SCORE.INTRA>
7.87946

>  <SCORE.INTRA.DIHEDRAL>
-0.768981

>  <SCORE.INTRA.DIHEDRAL.0>
29.9071

>  <SCORE.INTRA.POLAR>
0

>  <SCORE.INTRA.POLAR.0>
0

>  <SCORE.INTRA.REPUL>
0

>  <SCORE.INTRA.REPUL.0>
0

>  <SCORE.INTRA.VDW>
8.26395

>  <SCORE.INTRA.VDW.0>
1.27762

>  <SCORE.INTRA.norm>
0.127088

>  <SCORE.RESTR>
7.07985

>  <SCORE.RESTR.CAVITY>
7.07985

>  <SCORE.RESTR.norm>
0.114191

>  <SCORE.SYSTEM>
4.69068

>  <SCORE.SYSTEM.CONST>
0

>  <SCORE.SYSTEM.DIHEDRAL>
9.96959

>  <SCORE.SYSTEM.VDW>
-0.294112

>  <SCORE.SYSTEM.norm>
0.0756562

>  <SCORE.heavy>
62

>  <SCORE.norm>
3.38308

>  <TITLE>
    6321424_D                                                             

$$$$
Ivermectin.pdb
  RxDock  02242109533D
librxdock.so/0.1.0
 65 71  0  0  0  0  0  0  0  0999 V2000
  -44.8526    0.0426   19.5830 O   0  0  0  0  0  0
  -46.1396    0.2557   17.6256 O   0  0  0  0  0  0
  -49.4216   -0.9341   19.6346 O   0  0  0  0  0  0
  -54.1059   -0.7740   20.2884 O   0  0  0  0  0  0
  -51.7326   -3.4935   20.4289 O   0  0  0  0  0  0
  -54.8810   -1.2224   22.8164 O   0  0  0  0  0  0
  -49.0641   -2.4168   21.2945 O   0  0  0  0  0  0
  -49.4484   -3.0636   13.3474 O   0  0  0  0  0  0
  -48.2854   -3.9550   15.2753 O   0  0  0  0  0  0
  -49.4483   -6.5016   17.7621 O   0  0  0  0  0  0
  -51.8949   -5.6839   15.9850 O   0  0  0  0  0  0
  -47.9032   -6.7972   19.6032 O   0  0  0  0  0  0
  -51.6900   -7.1311   21.3962 O   0  0  0  0  0  0
  -49.9020   -9.4102   21.3349 O   0  0  0  0  0  0
  -46.2072    0.1497   19.0758 C   0  0  0  0  0  0
  -44.2453    1.2996   19.9547 C   0  0  0  0  0  0
  -44.9783    1.7991   21.2309 C   0  0  0  0  0  0
  -46.9402    1.4109   19.6036 C   0  0  0  0  0  0
  -46.9290   -1.1246   19.5845 C   0  0  0  0  0  0
  -46.5139    1.8100   21.0313 C   0  0  0  0  0  0
  -48.2842   -1.4107   18.8966 C   0  0  0  0  0  0
  -46.9403   -0.7047   16.8919 C   0  0  0  0  0  0
  -48.3541   -0.8035   17.4843 C   0  0  0  0  0  0
  -42.7216    1.1123   20.1952 C   0  0  0  0  0  0
  -52.1654   -2.1248   20.3957 C   0  0  0  0  0  0
  -51.1805   -1.2017   21.1465 C   0  0  0  0  0  0
  -53.6118   -1.9841   20.8872 C   0  0  0  0  0  0
  -44.5120    3.1816   21.7238 C   0  0  0  0  0  0
  -47.0506   -0.2872   15.4126 C   0  0  0  0  0  0
  -41.8809    1.8734   19.1403 C   0  0  0  0  0  0
  -53.7747   -2.0491   22.4240 C   0  0  0  0  0  0
  -52.3568   -1.6112   18.9925 C   0  0  0  0  0  0
  -42.3492   -0.3837   20.1465 C   0  0  0  0  0  0
  -49.7800   -1.5994   20.7450 C   0  0  0  0  0  0
  -51.4111   -1.2833   22.6321 C   0  0  0  0  0  0
  -52.5343   -1.6675   23.2096 C   0  0  0  0  0  0
  -53.4168   -0.5342   19.0433 C   0  0  0  0  0  0
  -48.1118   -1.1035   14.7012 C   0  0  0  0  0  0
  -40.5060    2.2864   19.6992 C   0  0  0  0  0  0
  -51.7532   -2.1922   17.9610 C   0  0  0  0  0  0
  -49.2140   -0.7338   14.0649 C   0  0  0  0  0  0
  -50.1103   -1.7834   13.4268 C   0  0  0  0  0  0
  -52.6390   -1.7522   24.7143 C   0  0  0  0  0  0
  -51.4816   -1.9369   14.1232 C   0  0  0  0  0  0
  -51.9588   -1.7143   16.5940 C   0  0  0  0  0  0
  -49.5450   -3.8219   14.5727 C   0  0  0  0  0  0
  -49.5947   -5.4715   16.7619 C   0  0  0  0  0  0
  -50.5250   -5.9210   15.6057 C   0  0  0  0  0  0
  -50.1831   -5.1932   14.2809 C   0  0  0  0  0  0
  -51.3676   -2.3291   15.5767 C   0  0  0  0  0  0
  -48.2192   -5.0852   16.1754 C   0  0  0  0  0  0
  -49.6662    0.6947   13.8387 C   0  0  0  0  0  0
  -52.3006   -3.0173   13.3981 C   0  0  0  0  0  0
  -48.9606   -5.9997   19.0250 C   0  0  0  0  0  0
  -50.1240   -5.8588   20.0263 C   0  0  0  0  0  0
  -50.6329   -7.2573   20.4265 C   0  0  0  0  0  0
  -49.4617   -8.0871   20.9928 C   0  0  0  0  0  0
  -47.2198   -4.7785   17.3021 C   0  0  0  0  0  0
  -48.3314   -8.1314   19.9443 C   0  0  0  0  0  0
  -47.1393   -8.9268   20.4997 C   0  0  0  0  0  0
  -52.8406   -6.1710   15.0137 C   0  0  0  0  0  0
  -52.8810   -6.5458   20.8392 C   0  0  0  0  0  0
  -52.3307   -4.0814   19.8732 H   0  0  0  0  0  0
  -55.7335   -1.5136   22.3707 H   0  0  0  0  0  0
  -49.1543   -9.9538   21.7320 H   0  0  0  0  0  0
  1 16  1  0  0  0
  2 15  1  0  0  0
  2 22  1  0  0  0
  3 21  1  0  0  0
  3 34  1  0  0  0
  4 27  1  0  0  0
  4 37  1  0  0  0
  5 25  1  0  0  0
  5 63  1  0  0  0
  6 31  1  0  0  0
  6 64  1  0  0  0
  7 34  2  0  0  0
  8 42  1  0  0  0
  8 46  1  0  0  0
  9 46  1  0  0  0
  9 51  1  0  0  0
 10 47  1  0  0  0
 10 54  1  0  0  0
 11 48  1  0  0  0
 11 61  1  0  0  0
 12 54  1  0  0  0
 12 59  1  0  0  0
 13 56  1  0  0  0
 13 62  1  0  0  0
 14 57  1  0  0  0
 14 65  1  0  0  0
 15  1  1  0  0  0
 15 18  1  0  0  0
 15 19  1  0  0  0
 16 17  1  0  0  0
 16 24  1  0  0  0
 17 20  1  0  0  0
 17 28  1  0  0  0
 18 20  1  0  0  0
 19 21  1  0  0  0
 21 23  1  0  0  0
 22 23  1  0  0  0
 22 29  1  0  0  0
 24 30  1  0  0  0
 24 33  1  0  0  0
 25 26  1  0  0  0
 25 32  1  0  0  0
 26 34  1  0  0  0
 26 35  1  0  0  0
 27 25  1  0  0  0
 29 38  1  0  0  0
 30 39  1  0  0  0
 31 27  1  0  0  0
 31 36  1  0  0  0
 32 37  1  0  0  0
 32 40  2  0  0  0
 35 36  2  0  0  0
 36 43  1  0  0  0
 38 41  2  0  0  0
 40 45  1  0  0  0
 41 42  1  0  0  0
 41 52  1  0  0  0
 42 44  1  0  0  0
 44 50  1  0  0  0
 44 53  1  0  0  0
 45 50  2  0  0  0
 46 49  1  0  0  0
 47 48  1  0  0  0
 48 49  1  0  0  0
 51 47  1  0  0  0
 51 58  1  0  0  0
 54 55  1  0  0  0
 55 56  1  0  0  0
 56 57  1  0  0  0
 57 59  1  0  0  0
 59 60  1  0  0  0
M  END
>  <CHROM.0>
71.49316790,-62.83643235,51.63667391

>  <CHROM.1>
-175.06227150,58.50933105,83.57764476,-110.64962250,-161.51124592,-134.21497570
-175.30439489,68.02004749,-178.25991445,113.86762725,152.01990513,-49.21982628
-2.60302312,18.66328993,0.23294847,0.71203418,1.29520660

>  <HEADER>
                                                                          

>  <MASTER>
        0    0    0    0    0    0    0    0  136    0  136    0          

>  <Name>
Ivermectin.pdb

>  <RI>
-8.28202e+08

>  <Rbt.Current_Directory>
/root/miniconda3/envs/rdock/share/rxdock-2013.1.1_148c5bd1-0/data/ligands/prepped_ligands/Ivermectin

>  <Rbt.Executable>
rbdock/0.1.0

>  <Rbt.Library>
librxdock.so/0.1.0

>  <Rbt.Parameter_File>
/root/miniconda3/envs/rdock/share/rxdock-2013.1.1_148c5bd1-0/data/scripts/dock.prm

>  <Rbt.Receptor>
def.prm

>  <SCORE>
51.2107

>  <SCORE.INTER>
25.6802

>  <SCORE.INTER.CONST>
1

>  <SCORE.INTER.POLAR>
-0.554812

>  <SCORE.INTER.REPUL>
0.081853

>  <SCORE.INTER.ROT>
8

>  <SCORE.INTER.VDW>
13.7573

>  <SCORE.INTER.norm>
0.414197

>  <SCORE.INTRA>
7.72282

>  <SCORE.INTRA.DIHEDRAL>
-3.48549

>  <SCORE.INTRA.DIHEDRAL.0>
29.9071

>  <SCORE.INTRA.POLAR>
0

>  <SCORE.INTRA.POLAR.0>
0

>  <SCORE.INTRA.REPUL>
0

>  <SCORE.INTRA.REPUL.0>
0

>  <SCORE.INTRA.VDW>
9.46556

>  <SCORE.INTRA.VDW.0>
1.27762

>  <SCORE.INTRA.norm>
0.124562

>  <SCORE.RESTR>
18.5767

>  <SCORE.RESTR.CAVITY>
18.5767

>  <SCORE.RESTR.norm>
0.299624

>  <SCORE.SYSTEM>
-0.769024

>  <SCORE.SYSTEM.CONST>
0

>  <SCORE.SYSTEM.DIHEDRAL>
0.524469

>  <SCORE.SYSTEM.VDW>
-1.03126

>  <SCORE.SYSTEM.norm>
-0.0124036

>  <SCORE.heavy>
62

>  <SCORE.norm>
0.825979

>  <TITLE>
    6321424_D                                                             

$$$$
Ivermectin.pdb
  RxDock  02242109533D
librxdock.so/0.1.0
 65 71  0  0  0  0  0  0  0  0999 V2000
  -48.8377   -7.2743   18.8413 O   0  0  0  0  0  0
  -49.0047   -6.3097   16.7024 O   0  0  0  0  0  0
  -46.7039   -3.2265   17.8956 O   0  0  0  0  0  0
  -43.4936    0.1088   16.9130 O   0  0  0  0  0  0
  -46.4543    0.1320   18.9821 O   0  0  0  0  0  0
  -41.9452    0.7938   18.9929 O   0  0  0  0  0  0
  -46.9134   -2.6348   20.0607 O   0  0  0  0  0  0
  -51.3557   -1.3235   13.5592 O   0  0  0  0  0  0
  -52.7472   -2.8382   14.8372 O   0  0  0  0  0  0
  -52.5394   -3.7382   18.4661 O   0  0  0  0  0  0
  -49.9712   -2.1092   17.7155 O   0  0  0  0  0  0
  -51.9446   -2.0510   20.0983 O   0  0  0  0  0  0
  -54.5687   -4.5912   22.1786 O   0  0  0  0  0  0
  -51.7948   -4.3835   22.9893 O   0  0  0  0  0  0
  -48.2477   -6.2979   17.9457 C   0  0  0  0  0  0
  -48.2390   -8.5877   18.7825 C   0  0  0  0  0  0
  -46.8189   -8.4683   19.4026 C   0  0  0  0  0  0
  -46.7721   -6.6272   17.5983 C   0  0  0  0  0  0
  -48.3153   -4.9537   18.7153 C   0  0  0  0  0  0
  -46.0143   -7.3164   18.7516 C   0  0  0  0  0  0
  -48.0588   -3.7028   17.8431 C   0  0  0  0  0  0
  -49.5058   -5.0216   16.2649 C   0  0  0  0  0  0
  -48.4127   -3.9471   16.3655 C   0  0  0  0  0  0
  -49.1206   -9.6170   19.5427 C   0  0  0  0  0  0
  -45.3931   -0.4500   18.2096 C   0  0  0  0  0  0
  -45.0138   -1.8519   18.7355 C   0  0  0  0  0  0
  -44.1909    0.4976   18.1086 C   0  0  0  0  0  0
  -45.9961   -9.7689   19.3457 C   0  0  0  0  0  0
  -49.9861   -5.1051   14.8030 C   0  0  0  0  0  0
  -50.6000   -9.1631   19.6054 C   0  0  0  0  0  0
  -43.3064    0.5467   19.3767 C   0  0  0  0  0  0
  -45.7267   -0.5424   16.7435 C   0  0  0  0  0  0
  -48.5973   -9.8158   20.9800 C   0  0  0  0  0  0
  -46.2952   -2.6019   19.0122 C   0  0  0  0  0  0
  -44.1270   -1.7376   19.9468 C   0  0  0  0  0  0
  -43.3850   -0.6894   20.2526 C   0  0  0  0  0  0
  -44.4261   -0.4702   15.9759 C   0  0  0  0  0  0
  -50.2348   -3.7200   14.2388 C   0  0  0  0  0  0
  -51.1116   -8.7000   18.2280 C   0  0  0  0  0  0
  -46.9878   -0.5298   16.3247 C   0  0  0  0  0  0
  -49.7051   -3.0959   13.1966 C   0  0  0  0  0  0
  -50.1520   -1.6846   12.8493 C   0  0  0  0  0  0
  -42.5640   -0.6682   21.5205 C   0  0  0  0  0  0
  -49.0609   -0.6134   13.0747 C   0  0  0  0  0  0
  -47.3150   -0.5908   14.9004 C   0  0  0  0  0  0
  -51.5250   -2.0625   14.7884 C   0  0  0  0  0  0
  -52.0460   -3.2756   17.1912 C   0  0  0  0  0  0
  -51.3392   -1.9008   17.3129 C   0  0  0  0  0  0
  -51.4109   -1.1018   15.9871 C   0  0  0  0  0  0
  -48.5815   -0.5475   14.5049 C   0  0  0  0  0  0
  -53.2012   -3.1553   16.1734 C   0  0  0  0  0  0
  -48.7003   -3.6886   12.2294 C   0  0  0  0  0  0
  -49.6188    0.7673   12.6922 C   0  0  0  0  0  0
  -52.9950   -2.6667   19.3199 C   0  0  0  0  0  0
  -54.1171   -3.1683   20.2501 C   0  0  0  0  0  0
  -53.5320   -4.1547   21.2794 C   0  0  0  0  0  0
  -52.3848   -3.4703   22.0516 C   0  0  0  0  0  0
  -54.0230   -4.4536   16.1350 C   0  0  0  0  0  0
  -51.3388   -2.9607   21.0391 C   0  0  0  0  0  0
  -50.2006   -2.2459   21.7842 C   0  0  0  0  0  0
  -49.5338   -1.1804   18.7259 C   0  0  0  0  0  0
  -54.3730   -5.9439   22.6294 C   0  0  0  0  0  0
  -46.0958    0.6555   19.7629 H   0  0  0  0  0  0
  -41.5438   -0.0027   18.5294 H   0  0  0  0  0  0
  -51.1096   -4.9720   22.5459 H   0  0  0  0  0  0
  1 16  1  0  0  0
  2 15  1  0  0  0
  2 22  1  0  0  0
  3 21  1  0  0  0
  3 34  1  0  0  0
  4 27  1  0  0  0
  4 37  1  0  0  0
  5 25  1  0  0  0
  5 63  1  0  0  0
  6 31  1  0  0  0
  6 64  1  0  0  0
  7 34  2  0  0  0
  8 42  1  0  0  0
  8 46  1  0  0  0
  9 46  1  0  0  0
  9 51  1  0  0  0
 10 47  1  0  0  0
 10 54  1  0  0  0
 11 48  1  0  0  0
 11 61  1  0  0  0
 12 54  1  0  0  0
 12 59  1  0  0  0
 13 56  1  0  0  0
 13 62  1  0  0  0
 14 57  1  0  0  0
 14 65  1  0  0  0
 15  1  1  0  0  0
 15 18  1  0  0  0
 15 19  1  0  0  0
 16 17  1  0  0  0
 16 24  1  0  0  0
 17 20  1  0  0  0
 17 28  1  0  0  0
 18 20  1  0  0  0
 19 21  1  0  0  0
 21 23  1  0  0  0
 22 23  1  0  0  0
 22 29  1  0  0  0
 24 30  1  0  0  0
 24 33  1  0  0  0
 25 26  1  0  0  0
 25 32  1  0  0  0
 26 34  1  0  0  0
 26 35  1  0  0  0
 27 25  1  0  0  0
 29 38  1  0  0  0
 30 39  1  0  0  0
 31 27  1  0  0  0
 31 36  1  0  0  0
 32 37  1  0  0  0
 32 40  2  0  0  0
 35 36  2  0  0  0
 36 43  1  0  0  0
 38 41  2  0  0  0
 40 45  1  0  0  0
 41 42  1  0  0  0
 41 52  1  0  0  0
 42 44  1  0  0  0
 44 50  1  0  0  0
 44 53  1  0  0  0
 45 50  2  0  0  0
 46 49  1  0  0  0
 47 48  1  0  0  0
 48 49  1  0  0  0
 51 47  1  0  0  0
 51 58  1  0  0  0
 54 55  1  0  0  0
 55 56  1  0  0  0
 56 57  1  0  0  0
 57 59  1  0  0  0
 59 60  1  0  0  0
M  END
>  <CHROM.0>
48.62444693,-74.75992456,-71.73330825

>  <CHROM.1>
89.13015381,-70.40076418,25.14044994,-120.65422837,34.26535096,-85.34098184
-137.12230685,147.47287848,83.33799195,24.80677346,47.50886721,-48.91960149
-3.40044416,17.93280984,-2.49828027,-0.31603560,-0.77829644

>  <HEADER>
                                                                          

>  <MASTER>
        0    0    0    0    0    0    0    0  136    0  136    0          

>  <Name>
Ivermectin.pdb

>  <RI>
-8.28202e+08

>  <Rbt.Current_Directory>
/root/miniconda3/envs/rdock/share/rxdock-2013.1.1_148c5bd1-0/data/ligands/prepped_ligands/Ivermectin

>  <Rbt.Executable>
rbdock/0.1.0

>  <Rbt.Library>
librxdock.so/0.1.0

>  <Rbt.Parameter_File>
/root/miniconda3/envs/rdock/share/rxdock-2013.1.1_148c5bd1-0/data/scripts/dock.prm

>  <Rbt.Receptor>
def.prm

>  <SCORE>
150.667

>  <SCORE.INTER>
117.811

>  <SCORE.INTER.CONST>
1

>  <SCORE.INTER.POLAR>
-0.790275

>  <SCORE.INTER.REPUL>
0

>  <SCORE.INTER.ROT>
8

>  <SCORE.INTER.VDW>
107.098

>  <SCORE.INTER.norm>
1.90018

>  <SCORE.INTRA>
23.6296

>  <SCORE.INTRA.DIHEDRAL>
7.8056

>  <SCORE.INTRA.DIHEDRAL.0>
29.9071

>  <SCORE.INTRA.POLAR>
0

>  <SCORE.INTRA.POLAR.0>
0

>  <SCORE.INTRA.REPUL>
0

>  <SCORE.INTRA.REPUL.0>
0

>  <SCORE.INTRA.VDW>
19.7268

>  <SCORE.INTRA.VDW.0>
1.27762

>  <SCORE.INTRA.norm>
0.381123

>  <SCORE.RESTR>
9.48284

>  <SCORE.RESTR.CAVITY>
9.48284

>  <SCORE.RESTR.norm>
0.152949

>  <SCORE.SYSTEM>
-0.256563

>  <SCORE.SYSTEM.CONST>
0

>  <SCORE.SYSTEM.DIHEDRAL>
1.67878

>  <SCORE.SYSTEM.VDW>
-1.09595

>  <SCORE.SYSTEM.norm>
-0.00413812

>  <SCORE.heavy>
62

>  <SCORE.norm>
2.43011

>  <TITLE>
    6321424_D                                                             

$$$$
Ivermectin.pdb
  RxDock  02242109533D
librxdock.so/0.1.0
 65 71  0  0  0  0  0  0  0  0999 V2000
  -48.9324   -7.0117   18.3881 O   0  0  0  0  0  0
  -48.8686   -6.0568   16.2393 O   0  0  0  0  0  0
  -46.6119   -3.0266   17.6353 O   0  0  0  0  0  0
  -43.2354    0.2180   16.9516 O   0  0  0  0  0  0
  -46.3787    0.3311   18.7276 O   0  0  0  0  0  0
  -41.8754    0.8759   19.1674 O   0  0  0  0  0  0
  -47.0117   -2.4159   19.7681 O   0  0  0  0  0  0
  -50.7759   -1.0316   12.8661 O   0  0  0  0  0  0
  -52.2359   -2.4429   14.1855 O   0  0  0  0  0  0
  -52.2546   -3.0107   17.8867 O   0  0  0  0  0  0
  -49.6548   -1.4236   17.1554 O   0  0  0  0  0  0
  -51.9379   -4.6584   19.6329 O   0  0  0  0  0  0
  -50.7024   -1.0537   21.4065 O   0  0  0  0  0  0
  -53.0325   -2.4493   22.4155 O   0  0  0  0  0  0
  -48.2339   -6.0566   17.5493 C   0  0  0  0  0  0
  -48.3656   -8.3405   18.3921 C   0  0  0  0  0  0
  -47.0087   -8.2539   19.1448 C   0  0  0  0  0  0
  -46.7410   -6.4262   17.3461 C   0  0  0  0  0  0
  -48.3392   -4.7063   18.3037 C   0  0  0  0  0  0
  -46.1154   -7.1275   18.5694 C   0  0  0  0  0  0
  -47.9676   -3.4680   17.4552 C   0  0  0  0  0  0
  -49.2914   -4.7590   15.7508 C   0  0  0  0  0  0
  -48.1849   -3.7125   15.9515 C   0  0  0  0  0  0
  -49.3427   -9.3417   19.0684 C   0  0  0  0  0  0
  -45.2642   -0.2831   18.0625 C   0  0  0  0  0  0
  -44.9741   -1.6910   18.6278 C   0  0  0  0  0  0
  -44.0333    0.6324   18.0734 C   0  0  0  0  0  0
  -46.2189   -9.5758   19.1720 C   0  0  0  0  0  0
  -49.6318   -4.8394   14.2500 C   0  0  0  0  0  0
  -49.4857   -9.0616   20.5849 C   0  0  0  0  0  0
  -43.2731    0.6667   19.4201 C   0  0  0  0  0  0
  -45.4584   -0.3763   16.5716 C   0  0  0  0  0  0
  -48.8501  -10.7901   18.8718 C   0  0  0  0  0  0
  -46.2954   -2.4057   18.7835 C   0  0  0  0  0  0
  -44.2044   -1.5918   19.9180 C   0  0  0  0  0  0
  -43.4676   -0.5613   20.2893 C   0  0  0  0  0  0
  -44.0890   -0.3426   15.9318 C   0  0  0  0  0  0
  -49.7888   -3.4520   13.6592 C   0  0  0  0  0  0
  -50.3799   -7.8365   20.8551 C   0  0  0  0  0  0
  -46.6730   -0.3337   16.0339 C   0  0  0  0  0  0
  -49.1455   -2.8485   12.6701 C   0  0  0  0  0  0
  -49.5198   -1.4284   12.2761 C   0  0  0  0  0  0
  -42.7713   -0.5533   21.6299 C   0  0  0  0  0  0
  -48.4273   -0.3843   12.6007 C   0  0  0  0  0  0
  -46.8640   -0.3952   14.5851 C   0  0  0  0  0  0
  -51.0184   -1.6594   14.1439 C   0  0  0  0  0  0
  -51.6838   -2.6583   16.6089 C   0  0  0  0  0  0
  -50.9956   -1.2693   16.6502 C   0  0  0  0  0  0
  -50.9878   -0.5935   15.2556 C   0  0  0  0  0  0
  -48.0853   -0.3217   14.0700 C   0  0  0  0  0  0
  -52.7723   -2.6444   15.5135 C   0  0  0  0  0  0
  -48.0689   -3.4732   11.8059 C   0  0  0  0  0  0
  -48.9095    1.0078   12.1612 C   0  0  0  0  0  0
  -51.3222   -3.6887   18.7560 C   0  0  0  0  0  0
  -50.5224   -2.6622   19.5821 C   0  0  0  0  0  0
  -51.4553   -1.9812   20.6023 C   0  0  0  0  0  0
  -52.1253   -3.0566   21.4829 C   0  0  0  0  0  0
  -53.5811   -3.9511   15.5409 C   0  0  0  0  0  0
  -52.8573   -4.0613   20.5698 C   0  0  0  0  0  0
  -53.5064   -5.1615   21.4242 C   0  0  0  0  0  0
  -49.1470   -0.2285   17.7789 C   0  0  0  0  0  0
  -50.2756    0.1011   20.6611 C   0  0  0  0  0  0
  -46.1439    0.5959   19.6694 H   0  0  0  0  0  0
  -41.7064    1.7808   18.7637 H   0  0  0  0  0  0
  -52.7507   -2.6219   23.3658 H   0  0  0  0  0  0
  1 16  1  0  0  0
  2 15  1  0  0  0
  2 22  1  0  0  0
  3 21  1  0  0  0
  3 34  1  0  0  0
  4 27  1  0  0  0
  4 37  1  0  0  0
  5 25  1  0  0  0
  5 63  1  0  0  0
  6 31  1  0  0  0
  6 64  1  0  0  0
  7 34  2  0  0  0
  8 42  1  0  0  0
  8 46  1  0  0  0
  9 46  1  0  0  0
  9 51  1  0  0  0
 10 47  1  0  0  0
 10 54  1  0  0  0
 11 48  1  0  0  0
 11 61  1  0  0  0
 12 54  1  0  0  0
 12 59  1  0  0  0
 13 56  1  0  0  0
 13 62  1  0  0  0
 14 57  1  0  0  0
 14 65  1  0  0  0
 15  1  1  0  0  0
 15 18  1  0  0  0
 15 19  1  0  0  0
 16 17  1  0  0  0
 16 24  1  0  0  0
 17 20  1  0  0  0
 17 28  1  0  0  0
 18 20  1  0  0  0
 19 21  1  0  0  0
 21 23  1  0  0  0
 22 23  1  0  0  0
 22 29  1  0  0  0
 24 30  1  0  0  0
 24 33  1  0  0  0
 25 26  1  0  0  0
 25 32  1  0  0  0
 26 34  1  0  0  0
 26 35  1  0  0  0
 27 25  1  0  0  0
 29 38  1  0  0  0
 30 39  1  0  0  0
 31 27  1  0  0  0
 31 36  1  0  0  0
 32 37  1  0  0  0
 32 40  2  0  0  0
 35 36  2  0  0  0
 36 43  1  0  0  0
 38 41  2  0  0  0
 40 45  1  0  0  0
 41 42  1  0  0  0
 41 52  1  0  0  0
 42 44  1  0  0  0
 44 50  1  0  0  0
 44 53  1  0  0  0
 45 50  2  0  0  0
 46 49  1  0  0  0
 47 48  1  0  0  0
 48 49  1  0  0  0
 51 47  1  0  0  0
 51 58  1  0  0  0
 54 55  1  0  0  0
 55 56  1  0  0  0
 56 57  1  0  0  0
 57 59  1  0  0  0
 59 60  1  0  0  0
M  END
>  <CHROM.0>
-163.40987978,-78.55538166,-89.78759900

>  <CHROM.1>
71.13151296,65.31351778,30.96434437,-121.30886131,-88.15624664,-147.68410859
-154.24077614,70.03013726,-117.99511700,-67.94395919,76.15743916,-48.57067971
-3.05070674,17.55296965,-2.33403115,-0.49784991,-0.77674054

>  <HEADER>
                                                                          

>  <MASTER>
        0    0    0    0    0    0    0    0  136    0  136    0          

>  <Name>
Ivermectin.pdb

>  <RI>
-8.28202e+08

>  <Rbt.Current_Directory>
/root/miniconda3/envs/rdock/share/rxdock-2013.1.1_148c5bd1-0/data/ligands/prepped_ligands/Ivermectin

>  <Rbt.Executable>
rbdock/0.1.0

>  <Rbt.Library>
librxdock.so/0.1.0

>  <Rbt.Parameter_File>
/root/miniconda3/envs/rdock/share/rxdock-2013.1.1_148c5bd1-0/data/scripts/dock.prm

>  <Rbt.Receptor>
def.prm

>  <SCORE>
153.931

>  <SCORE.INTER>
131.596

>  <SCORE.INTER.CONST>
1

>  <SCORE.INTER.POLAR>
-0.610343

>  <SCORE.INTER.REPUL>
0.344185

>  <SCORE.INTER.ROT>
8

>  <SCORE.INTER.VDW>
118.55

>  <SCORE.INTER.norm>
2.12252

>  <SCORE.INTRA>
14.4047

>  <SCORE.INTRA.DIHEDRAL>
0.581801

>  <SCORE.INTRA.DIHEDRAL.0>
29.9071

>  <SCORE.INTRA.POLAR>
0

>  <SCORE.INTRA.POLAR.0>
0

>  <SCORE.INTRA.REPUL>
0.253632

>  <SCORE.INTRA.REPUL.0>
0

>  <SCORE.INTRA.VDW>
12.8456

>  <SCORE.INTRA.VDW.0>
1.27762

>  <SCORE.INTRA.norm>
0.232334

>  <SCORE.RESTR>
6.87074

>  <SCORE.RESTR.CAVITY>
6.87074

>  <SCORE.RESTR.norm>
0.110818

>  <SCORE.SYSTEM>
1.05983

>  <SCORE.SYSTEM.CONST>
0

>  <SCORE.SYSTEM.DIHEDRAL>
3.99185

>  <SCORE.SYSTEM.VDW>
-0.936095

>  <SCORE.SYSTEM.norm>
0.0170941

>  <SCORE.heavy>
62

>  <SCORE.norm>
2.48276

>  <TITLE>
    6321424_D                                                             

$$$$
Ivermectin.pdb
  RxDock  02242109543D
librxdock.so/0.1.0
 65 71  0  0  0  0  0  0  0  0999 V2000
  -44.8218   -0.0031   19.5197 O   0  0  0  0  0  0
  -46.1115    0.2525   17.5691 O   0  0  0  0  0  0
  -49.3903   -0.9831   19.5557 O   0  0  0  0  0  0
  -54.0738   -0.8400   20.2189 O   0  0  0  0  0  0
  -51.6989   -3.5606   20.2963 O   0  0  0  0  0  0
  -54.8453   -1.3445   22.7374 O   0  0  0  0  0  0
  -49.0299   -2.5019   21.1820 O   0  0  0  0  0  0
  -49.4242   -2.9734   13.2231 O   0  0  0  0  0  0
  -48.2391   -3.7542   15.1852 O   0  0  0  0  0  0
  -49.2241   -6.4098   17.6344 O   0  0  0  0  0  0
  -51.6836   -5.8274   15.7839 O   0  0  0  0  0  0
  -47.6323   -6.4246   19.4594 O   0  0  0  0  0  0
  -51.2224   -7.6956   21.2375 O   0  0  0  0  0  0
  -48.9610   -9.4996   21.0717 O   0  0  0  0  0  0
  -46.1772    0.1144   19.0168 C   0  0  0  0  0  0
  -44.2147    1.2457   19.9183 C   0  0  0  0  0  0
  -44.9463    1.7165   21.2061 C   0  0  0  0  0  0
  -46.9101    1.3634   19.5732 C   0  0  0  0  0  0
  -46.8977   -1.1712   19.4982 C   0  0  0  0  0  0
  -46.4822    1.7311   21.0089 C   0  0  0  0  0  0
  -48.2536   -1.4427   18.8059 C   0  0  0  0  0  0
  -46.9126   -0.6919   16.8155 C   0  0  0  0  0  0
  -48.3256   -0.8046   17.4074 C   0  0  0  0  0  0
  -42.6906    1.0540   20.1526 C   0  0  0  0  0  0
  -52.1325   -2.1918   20.2939 C   0  0  0  0  0  0
  -51.1471   -1.2850   21.0636 C   0  0  0  0  0  0
  -53.5783   -2.0628   20.7902 C   0  0  0  0  0  0
  -44.4801    3.0881   21.7288 C   0  0  0  0  0  0
  -47.0251   -0.2420   15.3459 C   0  0  0  0  0  0
  -42.0245    0.2970   18.9770 C   0  0  0  0  0  0
  -53.7391   -2.1618   22.3255 C   0  0  0  0  0  0
  -52.3260   -1.6475   18.9026 C   0  0  0  0  0  0
  -42.4413    0.2700   21.4573 C   0  0  0  0  0  0
  -49.7468   -1.6730   20.6516 C   0  0  0  0  0  0
  -51.3757   -1.3994   22.5473 C   0  0  0  0  0  0
  -52.4980   -1.7969   23.1177 C   0  0  0  0  0  0
  -53.3864   -0.5725   18.9785 C   0  0  0  0  0  0
  -48.0868   -1.0429   14.6180 C   0  0  0  0  0  0
  -42.4775   -1.1744   18.9188 C   0  0  0  0  0  0
  -51.7234   -2.2052   17.8577 C   0  0  0  0  0  0
  -49.1900   -0.6599   13.9915 C   0  0  0  0  0  0
  -50.0866   -1.6956   13.3316 C   0  0  0  0  0  0
  -52.6006   -1.9148   24.6203 C   0  0  0  0  0  0
  -51.4569   -1.8652   14.0261 C   0  0  0  0  0  0
  -51.9310   -1.6974   16.5019 C   0  0  0  0  0  0
  -49.4837   -3.7415   14.4445 C   0  0  0  0  0  0
  -49.4394   -5.3955   16.6306 C   0  0  0  0  0  0
  -50.2863   -5.9293   15.4464 C   0  0  0  0  0  0
  -49.9766   -5.1673   14.1330 C   0  0  0  0  0  0
  -51.3408   -2.2893   15.4706 C   0  0  0  0  0  0
  -48.0908   -4.8757   16.0864 C   0  0  0  0  0  0
  -49.6433    0.7730   13.7975 C   0  0  0  0  0  0
  -52.2763   -2.9298   13.2785 C   0  0  0  0  0  0
  -48.8503   -5.8658   18.9185 C   0  0  0  0  0  0
  -50.0040   -6.0394   19.9259 C   0  0  0  0  0  0
  -50.1751   -7.5334   20.2625 C   0  0  0  0  0  0
  -48.8389   -8.0970   20.7899 C   0  0  0  0  0  0
  -47.1604   -4.4772   17.2431 C   0  0  0  0  0  0
  -47.7400   -7.8350   19.7398 C   0  0  0  0  0  0
  -46.3916   -8.3599   20.2578 C   0  0  0  0  0  0
  -52.0605   -6.6771   16.8843 C   0  0  0  0  0  0
  -52.5180   -7.3469   20.7170 C   0  0  0  0  0  0
  -51.7127   -3.9486   21.2245 H   0  0  0  0  0  0
  -54.9359   -1.3261   23.7383 H   0  0  0  0  0  0
  -49.2407   -9.6586   22.0250 H   0  0  0  0  0  0
  1 16  1  0  0  0
  2 15  1  0  0  0
  2 22  1  0  0  0
  3 21  1  0  0  0
  3 34  1  0  0  0
  4 27  1  0  0  0
  4 37  1  0  0  0
  5 25  1  0  0  0
  5 63  1  0  0  0
  6 31  1  0  0  0
  6 64  1  0  0  0
  7 34  2  0  0  0
  8 42  1  0  0  0
  8 46  1  0  0  0
  9 46  1  0  0  0
  9 51  1  0  0  0
 10 47  1  0  0  0
 10 54  1  0  0  0
 11 48  1  0  0  0
 11 61  1  0  0  0
 12 54  1  0  0  0
 12 59  1  0  0  0
 13 56  1  0  0  0
 13 62  1  0  0  0
 14 57  1  0  0  0
 14 65  1  0  0  0
 15  1  1  0  0  0
 15 18  1  0  0  0
 15 19  1  0  0  0
 16 17  1  0  0  0
 16 24  1  0  0  0
 17 20  1  0  0  0
 17 28  1  0  0  0
 18 20  1  0  0  0
 19 21  1  0  0  0
 21 23  1  0  0  0
 22 23  1  0  0  0
 22 29  1  0  0  0
 24 30  1  0  0  0
 24 33  1  0  0  0
 25 26  1  0  0  0
 25 32  1  0  0  0
 26 34  1  0  0  0
 26 35  1  0  0  0
 27 25  1  0  0  0
 29 38  1  0  0  0
 30 39  1  0  0  0
 31 27  1  0  0  0
 31 36  1  0  0  0
 32 37  1  0  0  0
 32 40  2  0  0  0
 35 36  2  0  0  0
 36 43  1  0  0  0
 38 41  2  0  0  0
 40 45  1  0  0  0
 41 42  1  0  0  0
 41 52  1  0  0  0
 42 44  1  0  0  0
 44 50  1  0  0  0
 44 53  1  0  0  0
 45 50  2  0  0  0
 46 49  1  0  0  0
 47 48  1  0  0  0
 48 49  1  0  0  0
 51 47  1  0  0  0
 51 58  1  0  0  0
 54 55  1  0  0  0
 55 56  1  0  0  0
 56 57  1  0  0  0
 57 59  1  0  0  0
 59 60  1  0  0  0
M  END
>  <CHROM.0>
-166.44468474,-65.10531620,-41.94756772

>  <CHROM.1>
65.57044813,-175.50372342,81.80872369,-104.24746750,-160.41384704,-126.38376452
-65.19277983,66.75382021,-90.88231351,48.41481438,-68.84448125,-49.12393545
-2.70012002,18.61052662,0.19991013,0.72229439,1.33630981

>  <HEADER>
                                                                          

>  <MASTER>
        0    0    0    0    0    0    0    0  136    0  136    0          

>  <Name>
Ivermectin.pdb

>  <RI>
-8.28202e+08

>  <Rbt.Current_Directory>
/root/miniconda3/envs/rdock/share/rxdock-2013.1.1_148c5bd1-0/data/ligands/prepped_ligands/Ivermectin

>  <Rbt.Executable>
rbdock/0.1.0

>  <Rbt.Library>
librxdock.so/0.1.0

>  <Rbt.Parameter_File>
/root/miniconda3/envs/rdock/share/rxdock-2013.1.1_148c5bd1-0/data/scripts/dock.prm

>  <Rbt.Receptor>
def.prm

>  <SCORE>
51.5769

>  <SCORE.INTER>
27.8936

>  <SCORE.INTER.CONST>
1

>  <SCORE.INTER.POLAR>
-0.595574

>  <SCORE.INTER.REPUL>
0.1112

>  <SCORE.INTER.ROT>
8

>  <SCORE.INTER.VDW>
15.9625

>  <SCORE.INTER.norm>
0.449896

>  <SCORE.INTRA>
7.58062

>  <SCORE.INTRA.DIHEDRAL>
-7.60142

>  <SCORE.INTRA.DIHEDRAL.0>
29.9071

>  <SCORE.INTRA.POLAR>
0

>  <SCORE.INTRA.POLAR.0>
0

>  <SCORE.INTRA.REPUL>
0

>  <SCORE.INTRA.REPUL.0>
0

>  <SCORE.INTRA.VDW>
11.3813

>  <SCORE.INTRA.VDW.0>
1.27762

>  <SCORE.INTRA.norm>
0.122268

>  <SCORE.RESTR>
16.3796

>  <SCORE.RESTR.CAVITY>
16.3796

>  <SCORE.RESTR.norm>
0.264186

>  <SCORE.SYSTEM>
-0.276789

>  <SCORE.SYSTEM.CONST>
0

>  <SCORE.SYSTEM.DIHEDRAL>
1.28681

>  <SCORE.SYSTEM.POLAR>
-0.0199038

>  <SCORE.SYSTEM.VDW>
-0.852523

>  <SCORE.SYSTEM.norm>
-0.00446433

>  <SCORE.heavy>
62

>  <SCORE.norm>
0.831886

>  <TITLE>
    6321424_D                                                             

$$$$
Ivermectin.pdb
  RxDock  02242109543D
librxdock.so/0.1.0
 65 71  0  0  0  0  0  0  0  0999 V2000
  -49.5133   -8.0758   20.7950 O   0  0  0  0  0  0
  -49.6478   -5.7925   20.2456 O   0  0  0  0  0  0
  -52.3761   -6.6211   17.4007 O   0  0  0  0  0  0
  -56.1742   -5.3574   14.8762 O   0  0  0  0  0  0
  -53.1433   -7.1065   13.9805 O   0  0  0  0  0  0
  -57.6896   -7.4148   14.0617 O   0  0  0  0  0  0
  -52.1425   -8.6163   16.3780 O   0  0  0  0  0  0
  -48.4008   -1.6031   15.6453 O   0  0  0  0  0  0
  -47.4280   -1.0149   17.7835 O   0  0  0  0  0  0
  -43.8189   -0.8500   18.7675 O   0  0  0  0  0  0
  -44.0018   -2.2066   15.9499 O   0  0  0  0  0  0
  -42.1345    0.8620   19.0777 O   0  0  0  0  0  0
  -45.7678    2.9119   19.5911 O   0  0  0  0  0  0
  -43.9245    2.6377   21.8098 O   0  0  0  0  0  0
  -50.3184   -7.0780   20.1166 C   0  0  0  0  0  0
  -49.8754   -8.3089   22.1740 C   0  0  0  0  0  0
  -51.2543   -9.0260   22.1671 C   0  0  0  0  0  0
  -51.7319   -6.9331   20.7392 C   0  0  0  0  0  0
  -50.4406   -7.5847   18.6565 C   0  0  0  0  0  0
  -52.2860   -8.2563   21.3063 C   0  0  0  0  0  0
  -50.9644   -6.5299   17.6543 C   0  0  0  0  0  0
  -49.4074   -5.0868   19.0023 C   0  0  0  0  0  0
  -50.6635   -5.0937   18.1182 C   0  0  0  0  0  0
  -48.7828   -9.1565   22.8827 C   0  0  0  0  0  0
  -54.1311   -6.5521   14.8629 C   0  0  0  0  0  0
  -54.2266   -7.3535   16.1799 C   0  0  0  0  0  0
  -55.4845   -6.3944   14.1579 C   0  0  0  0  0  0
  -51.8386   -9.2794   23.5693 C   0  0  0  0  0  0
  -49.0094   -3.6256   19.2871 C   0  0  0  0  0  0
  -47.4485   -8.3794   23.0034 C   0  0  0  0  0  0
  -56.2854   -7.7093   14.0085 C   0  0  0  0  0  0
  -53.8760   -5.1018   15.1807 C   0  0  0  0  0  0
  -48.5304  -10.4658   22.1073 C   0  0  0  0  0  0
  -52.8193   -7.6406   16.6469 C   0  0  0  0  0  0
  -55.0446   -8.6014   15.9786 C   0  0  0  0  0  0
  -55.9387   -8.7815   15.0242 C   0  0  0  0  0  0
  -55.2133   -4.4572   15.4672 C   0  0  0  0  0  0
  -49.0416   -2.8017   18.0147 C   0  0  0  0  0  0
  -46.9070   -7.9615   21.6230 C   0  0  0  0  0  0
  -52.6644   -4.5729   15.0465 C   0  0  0  0  0  0
  -49.7347   -1.7180   17.6960 C   0  0  0  0  0  0
  -49.5635   -1.0836   16.3248 C   0  0  0  0  0  0
  -56.6723  -10.0955   14.8917 C   0  0  0  0  0  0
  -50.8096   -1.2131   15.4195 C   0  0  0  0  0  0
  -52.4185   -3.1586   15.3269 C   0  0  0  0  0  0
  -47.2162   -1.5902   16.4712 C   0  0  0  0  0  0
  -44.9569   -1.2855   17.9942 C   0  0  0  0  0  0
  -44.7316   -1.0798   16.4738 C   0  0  0  0  0  0
  -46.0708   -0.8873   15.7183 C   0  0  0  0  0  0
  -51.2055   -2.6465   15.1577 C   0  0  0  0  0  0
  -46.2278   -0.5180   18.4195 C   0  0  0  0  0  0
  -50.6769   -0.9697   18.6172 C   0  0  0  0  0  0
  -50.5262   -0.5395   14.0669 C   0  0  0  0  0  0
  -43.2540    0.3916   18.2943 C   0  0  0  0  0  0
  -44.3440    1.4792   18.2242 C   0  0  0  0  0  0
  -44.7818    1.8640   19.6508 C   0  0  0  0  0  0
  -43.5487    2.3131   20.4626 C   0  0  0  0  0  0
  -46.4036   -0.5703   19.9455 C   0  0  0  0  0  0
  -42.4979    1.1844   20.4355 C   0  0  0  0  0  0
  -41.2459    1.6223   21.2118 C   0  0  0  0  0  0
  -43.5161   -1.9898   14.6112 C   0  0  0  0  0  0
  -47.0664    2.4715   20.0281 C   0  0  0  0  0  0
  -53.2667   -8.0985   13.8679 H   0  0  0  0  0  0
  -57.8929   -6.7190   14.7579 H   0  0  0  0  0  0
  -44.6879    3.2927   21.8294 H   0  0  0  0  0  0
  1 16  1  0  0  0
  2 15  1  0  0  0
  2 22  1  0  0  0
  3 21  1  0  0  0
  3 34  1  0  0  0
  4 27  1  0  0  0
  4 37  1  0  0  0
  5 25  1  0  0  0
  5 63  1  0  0  0
  6 31  1  0  0  0
  6 64  1  0  0  0
  7 34  2  0  0  0
  8 42  1  0  0  0
  8 46  1  0  0  0
  9 46  1  0  0  0
  9 51  1  0  0  0
 10 47  1  0  0  0
 10 54  1  0  0  0
 11 48  1  0  0  0
 11 61  1  0  0  0
 12 54  1  0  0  0
 12 59  1  0  0  0
 13 56  1  0  0  0
 13 62  1  0  0  0
 14 57  1  0  0  0
 14 65  1  0  0  0
 15  1  1  0  0  0
 15 18  1  0  0  0
 15 19  1  0  0  0
 16 17  1  0  0  0
 16 24  1  0  0  0
 17 20  1  0  0  0
 17 28  1  0  0  0
 18 20  1  0  0  0
 19 21  1  0  0  0
 21 23  1  0  0  0
 22 23  1  0  0  0
 22 29  1  0  0  0
 24 30  1  0  0  0
 24 33  1  0  0  0
 25 26  1  0  0  0
 25 32  1  0  0  0
 26 34  1  0  0  0
 26 35  1  0  0  0
 27 25  1  0  0  0
 29 38  1  0  0  0
 30 39  1  0  0  0
 31 27  1  0  0  0
 31 36  1  0  0  0
 32 37  1  0  0  0
 32 40  2  0  0  0
 35 36  2  0  0  0
 36 43  1  0  0  0
 38 41  2  0  0  0
 40 45  1  0  0  0
 41 42  1  0  0  0
 41 52  1  0  0  0
 42 44  1  0  0  0
 44 50  1  0  0  0
 44 53  1  0  0  0
 45 50  2  0  0  0
 46 49  1  0  0  0
 47 48  1  0  0  0
 48 49  1  0  0  0
 51 47  1  0  0  0
 51 58  1  0  0  0
 54 55  1  0  0  0
 55 56  1  0  0  0
 56 57  1  0  0  0
 57 59  1  0  0  0
 59 60  1  0  0  0
M  END
>  <CHROM.0>
80.42842815,175.79467880,-167.87820869

>  <CHROM.1>
49.94422732,-40.27768977,-49.12450635,-2.23713221,41.71021228,178.47134887
-168.49362002,112.42554780,-52.24775947,66.32867919,-58.99591598,-49.41994045
-3.97687751,18.00271062,-2.77510462,-0.64469674,-0.72644643

>  <HEADER>
                                                                          

>  <MASTER>
        0    0    0    0    0    0    0    0  136    0  136    0          

>  <Name>
Ivermectin.pdb

>  <RI>
-8.28202e+08

>  <Rbt.Current_Directory>
/root/miniconda3/envs/rdock/share/rxdock-2013.1.1_148c5bd1-0/data/ligands/prepped_ligands/Ivermectin

>  <Rbt.Executable>
rbdock/0.1.0

>  <Rbt.Library>
librxdock.so/0.1.0

>  <Rbt.Parameter_File>
/root/miniconda3/envs/rdock/share/rxdock-2013.1.1_148c5bd1-0/data/scripts/dock.prm

>  <Rbt.Receptor>
def.prm

>  <SCORE>
95.918

>  <SCORE.INTER>
69.0638

>  <SCORE.INTER.CONST>
1

>  <SCORE.INTER.POLAR>
0

>  <SCORE.INTER.REPUL>
0.896

>  <SCORE.INTER.ROT>
8

>  <SCORE.INTER.VDW>
51.1838

>  <SCORE.INTER.norm>
1.11393

>  <SCORE.INTRA>
11.4824

>  <SCORE.INTRA.DIHEDRAL>
-9.94545

>  <SCORE.INTRA.DIHEDRAL.0>
29.9071

>  <SCORE.INTRA.POLAR>
-0.138233

>  <SCORE.INTRA.POLAR.0>
0

>  <SCORE.INTRA.REPUL>
0

>  <SCORE.INTRA.REPUL.0>
0

>  <SCORE.INTRA.VDW>
16.9252

>  <SCORE.INTRA.VDW.0>
1.27762

>  <SCORE.INTRA.norm>
0.185201

>  <SCORE.RESTR>
15.5694

>  <SCORE.RESTR.CAVITY>
15.5694

>  <SCORE.RESTR.norm>
0.25112

>  <SCORE.SYSTEM>
-0.197744

>  <SCORE.SYSTEM.CONST>
0

>  <SCORE.SYSTEM.DIHEDRAL>
1.35117

>  <SCORE.SYSTEM.POLAR>
-0.0192439

>  <SCORE.SYSTEM.VDW>
-0.807901

>  <SCORE.SYSTEM.norm>
-0.00318942

>  <SCORE.heavy>
62

>  <SCORE.norm>
1.54706

>  <TITLE>
    6321424_D                                                             

$$$$
Ivermectin.pdb
  RxDock  02242109543D
librxdock.so/0.1.0
 65 71  0  0  0  0  0  0  0  0999 V2000
  -49.4335   -6.5539   18.8190 O   0  0  0  0  0  0
  -49.1160   -5.8125   16.6093 O   0  0  0  0  0  0
  -46.8188   -2.7828   17.9388 O   0  0  0  0  0  0
  -43.2053    0.2047   17.2959 O   0  0  0  0  0  0
  -46.4857    0.6474   18.7421 O   0  0  0  0  0  0
  -42.0170    1.0001   19.5648 O   0  0  0  0  0  0
  -47.3749   -1.9521   19.9593 O   0  0  0  0  0  0
  -50.4013   -1.0402   12.6291 O   0  0  0  0  0  0
  -51.9873   -2.3738   13.8823 O   0  0  0  0  0  0
  -52.5167   -2.5476   17.5851 O   0  0  0  0  0  0
  -49.8934   -0.9216   17.0490 O   0  0  0  0  0  0
  -52.6969   -4.1061   19.4298 O   0  0  0  0  0  0
  -50.3921   -0.9557   20.9882 O   0  0  0  0  0  0
  -53.0241   -1.5065   22.0672 O   0  0  0  0  0  0
  -48.6050   -5.7201   17.9692 C   0  0  0  0  0  0
  -48.9502   -7.9036   18.9973 C   0  0  0  0  0  0
  -47.6651   -7.8153   19.8669 C   0  0  0  0  0  0
  -47.1247   -6.1834   17.9455 C   0  0  0  0  0  0
  -48.6978   -4.3004   18.5853 C   0  0  0  0  0  0
  -46.6570   -6.7960   19.2816 C   0  0  0  0  0  0
  -48.1764   -3.1692   17.6688 C   0  0  0  0  0  0
  -49.4136   -4.5471   15.9674 C   0  0  0  0  0  0
  -48.2694   -3.5444   16.1792 C   0  0  0  0  0  0
  -50.0435   -8.7845   19.6632 C   0  0  0  0  0  0
  -45.3538   -0.0837   18.2459 C   0  0  0  0  0  0
  -45.2016   -1.4444   18.9609 C   0  0  0  0  0  0
  -44.0764    0.7644   18.2934 C   0  0  0  0  0  0
  -46.9619   -9.1673   20.0893 C   0  0  0  0  0  0
  -49.6193   -4.7525   14.4541 C   0  0  0  0  0  0
  -51.3565   -8.7801   18.8418 C   0  0  0  0  0  0
  -43.4420    0.8878   19.6988 C   0  0  0  0  0  0
  -45.4159   -0.3083   16.7576 C   0  0  0  0  0  0
  -50.3445   -8.2813   21.0898 C   0  0  0  0  0  0
  -46.5722   -2.0723   19.0517 C   0  0  0  0  0  0
  -44.5488   -1.2624   20.3054 C   0  0  0  0  0  0
  -43.7886   -0.2403   20.6520 C   0  0  0  0  0  0
  -43.9940   -0.4060   16.2529 C   0  0  0  0  0  0
  -49.6380   -3.4214   13.7284 C   0  0  0  0  0  0
  -51.9644   -7.3675   18.7489 C   0  0  0  0  0  0
  -46.5713   -0.2549   16.1033 C   0  0  0  0  0  0
  -48.8718   -2.9486   12.7560 C   0  0  0  0  0  0
  -49.1226   -1.5552   12.2014 C   0  0  0  0  0  0
  -43.2189   -0.1403   22.0475 C   0  0  0  0  0  0
  -48.0038   -0.5424   12.5350 C   0  0  0  0  0  0
  -46.6323   -0.4443   14.6543 C   0  0  0  0  0  0
  -50.8032   -1.5405   13.9228 C   0  0  0  0  0  0
  -51.7809   -2.3047   16.3676 C   0  0  0  0  0  0
  -51.1524   -0.8872   16.3488 C   0  0  0  0  0  0
  -50.9676   -0.3630   14.9022 C   0  0  0  0  0  0
  -47.7946   -0.3577   14.0189 C   0  0  0  0  0  0
  -52.7013   -2.4598   15.1372 C   0  0  0  0  0  0
  -47.7600   -3.7072   12.0597 C   0  0  0  0  0  0
  -48.3592    0.8245   11.9274 C   0  0  0  0  0  0
  -51.8255   -3.4260   18.4990 C   0  0  0  0  0  0
  -50.7384   -2.6472   19.2657 C   0  0  0  0  0  0
  -51.4039   -1.6534   20.2376 C   0  0  0  0  0  0
  -52.3594   -2.4171   21.1782 C   0  0  0  0  0  0
  -53.4616   -3.7942   15.1976 C   0  0  0  0  0  0
  -53.3763   -3.2012   20.3237 C   0  0  0  0  0  0
  -54.3199   -3.9964   21.2398 C   0  0  0  0  0  0
  -49.3286    0.3871   17.2567 C   0  0  0  0  0  0
  -49.8088    0.1316   20.2474 C   0  0  0  0  0  0
  -47.3187    0.0834   18.7355 H   0  0  0  0  0  0
  -41.7584    1.8455   19.0865 H   0  0  0  0  0  0
  -53.7135   -1.9791   22.6273 H   0  0  0  0  0  0
  1 16  1  0  0  0
  2 15  1  0  0  0
  2 22  1  0  0  0
  3 21  1  0  0  0
  3 34  1  0  0  0
  4 27  1  0  0  0
  4 37  1  0  0  0
  5 25  1  0  0  0
  5 63  1  0  0  0
  6 31  1  0  0  0
  6 64  1  0  0  0
  7 34  2  0  0  0
  8 42  1  0  0  0
  8 46  1  0  0  0
  9 46  1  0  0  0
  9 51  1  0  0  0
 10 47  1  0  0  0
 10 54  1  0  0  0
 11 48  1  0  0  0
 11 61  1  0  0  0
 12 54  1  0  0  0
 12 59  1  0  0  0
 13 56  1  0  0  0
 13 62  1  0  0  0
 14 57  1  0  0  0
 14 65  1  0  0  0
 15  1  1  0  0  0
 15 18  1  0  0  0
 15 19  1  0  0  0
 16 17  1  0  0  0
 16 24  1  0  0  0
 17 20  1  0  0  0
 17 28  1  0  0  0
 18 20  1  0  0  0
 19 21  1  0  0  0
 21 23  1  0  0  0
 22 23  1  0  0  0
 22 29  1  0  0  0
 24 30  1  0  0  0
 24 33  1  0  0  0
 25 26  1  0  0  0
 25 32  1  0  0  0
 26 34  1  0  0  0
 26 35  1  0  0  0
 27 25  1  0  0  0
 29 38  1  0  0  0
 30 39  1  0  0  0
 31 27  1  0  0  0
 31 36  1  0  0  0
 32 37  1  0  0  0
 32 40  2  0  0  0
 35 36  2  0  0  0
 36 43  1  0  0  0
 38 41  2  0  0  0
 40 45  1  0  0  0
 41 42  1  0  0  0
 41 52  1  0  0  0
 42 44  1  0  0  0
 44 50  1  0  0  0
 44 53  1  0  0  0
 45 50  2  0  0  0
 46 49  1  0  0  0
 47 48  1  0  0  0
 48 49  1  0  0  0
 51 47  1  0  0  0
 51 58  1  0  0  0
 54 55  1  0  0  0
 55 56  1  0  0  0
 56 57  1  0  0  0
 57 59  1  0  0  0
 59 60  1  0  0  0
M  END
>  <CHROM.0>
85.82767888,17.21679142,168.51432450

>  <CHROM.1>
-51.19508179,64.40270355,30.38942392,-114.85656882,-105.22347474,-156.48032503
-171.33667976,80.62369585,174.66532208,56.65799891,-62.15324177,-48.77543842
-2.74855465,17.59248381,-2.62726936,-0.55708214,-0.98888402

>  <HEADER>
                                                                          

>  <MASTER>
        0    0    0    0    0    0    0    0  136    0  136    0          

>  <Name>
Ivermectin.pdb

>  <RI>
-8.28202e+08

>  <Rbt.Current_Directory>
/root/miniconda3/envs/rdock/share/rxdock-2013.1.1_148c5bd1-0/data/ligands/prepped_ligands/Ivermectin

>  <Rbt.Executable>
rbdock/0.1.0

>  <Rbt.Library>
librxdock.so/0.1.0

>  <Rbt.Parameter_File>
/root/miniconda3/envs/rdock/share/rxdock-2013.1.1_148c5bd1-0/data/scripts/dock.prm

>  <Rbt.Receptor>
def.prm

>  <SCORE>
138.485

>  <SCORE.INTER>
111.573

>  <SCORE.INTER.CONST>
1

>  <SCORE.INTER.POLAR>
0

>  <SCORE.INTER.REPUL>
0.140822

>  <SCORE.INTER.ROT>
8

>  <SCORE.INTER.VDW>
97.4691

>  <SCORE.INTER.norm>
1.79957

>  <SCORE.INTRA>
16.2251

>  <SCORE.INTRA.DIHEDRAL>
-7.68794

>  <SCORE.INTRA.DIHEDRAL.0>
29.9071

>  <SCORE.INTRA.POLAR>
0

>  <SCORE.INTRA.POLAR.0>
0

>  <SCORE.INTRA.REPUL>
0

>  <SCORE.INTRA.REPUL.0>
0

>  <SCORE.INTRA.VDW>
20.069

>  <SCORE.INTRA.VDW.0>
1.27762

>  <SCORE.INTRA.norm>
0.261695

>  <SCORE.RESTR>
6.03384

>  <SCORE.RESTR.CAVITY>
6.03384

>  <SCORE.RESTR.norm>
0.0973201

>  <SCORE.SYSTEM>
4.65314

>  <SCORE.SYSTEM.CONST>
0

>  <SCORE.SYSTEM.DIHEDRAL>
7.55449

>  <SCORE.SYSTEM.VDW>
0.87589

>  <SCORE.SYSTEM.norm>
0.0750506

>  <SCORE.heavy>
62

>  <SCORE.norm>
2.23363

>  <TITLE>
    6321424_D                                                             

$$$$
