Ivermectin.pdb
 OpenBabel02182114013D

136142  0  0  1  0  0  0  0  0999 V2000
   13.3760   -3.0030   18.1060 O   0  0  0  0  0  0  0  0  0  0  0  0
   14.2570   -1.4000   19.5850 O   0  0  0  0  0  0  0  0  0  0  0  0
   11.2770   -2.1430   22.1910 O   0  0  0  0  0  0  0  0  0  0  0  0
    9.7020   -2.4040   26.6460 O   0  0  0  0  0  0  0  0  0  0  0  0
    8.1740   -1.1960   23.6040 O   0  0  0  0  0  0  0  0  0  0  0  0
    7.7320   -4.1860   27.0150 O   0  0  0  0  0  0  0  0  0  0  0  0
    9.3010   -2.7210   21.2730 O   0  0  0  0  0  0  0  0  0  0  0  0
   13.0780    4.2460   22.2310 O   0  0  0  0  0  0  0  0  0  0  0  0
   14.9100    5.8180   22.0400 O   0  0  0  0  0  0  0  0  0  0  0  0
   15.9430    7.8900   19.0970 O   0  0  0  0  0  0  0  0  0  0  0  0
   13.7890    5.8300   18.1330 O   0  0  0  0  0  0  0  0  0  0  0  0
   18.1380    8.3290   18.1730 O   0  0  0  0  0  0  0  0  0  0  0  0
   15.5510    8.7710   14.8900 O   0  0  0  0  0  0  0  0  0  0  0  0
   17.0320   11.0500   15.8940 O   0  0  0  0  0  0  0  0  0  0  0  0
   13.3530   -2.5360   19.4790 C   0  0  2  0  0  0  0  0  0  0  0  0
   14.3280   -4.0570   17.8420 C   0  0  1  0  0  0  0  0  0  0  0  0
   13.8040   -5.3330   18.5580 C   0  0  2  0  0  0  0  0  0  0  0  0
   13.8390   -3.6160   20.4810 C   0  0  0  0  0  0  0  0  0  0  0  0
   11.8680   -2.1920   19.7620 C   0  0  0  0  0  0  0  0  0  0  0  0
   13.4840   -5.0530   20.0470 C   0  0  0  0  0  0  0  0  0  0  0  0
   11.6370   -1.3570   21.0430 C   0  0  2  0  0  0  0  0  0  0  0  0
   13.6820   -0.1960   20.1520 C   0  0  1  0  0  0  0  0  0  0  0  0
   12.8730   -0.5200   21.4170 C   0  0  0  0  0  0  0  0  0  0  0  0
   14.4840   -4.2720   16.3110 C   0  0  2  0  0  0  0  0  0  0  0  0
    9.1400   -1.8950   24.4040 C   0  0  2  0  0  0  0  0  0  0  0  0
    9.7290   -3.1070   23.6490 C   0  0  2  0  0  0  0  0  0  0  0  0
    8.5650   -2.2660   25.7770 C   0  0  1  0  0  0  0  0  0  0  0  0
   14.7470   -6.5460   18.4520 C   0  0  0  0  0  0  0  0  0  0  0  0
   14.7950    0.8050   20.5180 C   0  0  0  0  0  0  0  0  0  0  0  0
   15.1410   -3.0470   15.6280 C   0  0  0  0  0  0  0  0  0  0  0  0
    7.6180   -3.4890   25.7650 C   0  0  1  0  0  0  0  0  0  0  0  0
   10.2630   -1.0040   24.8670 C   0  0  0  0  0  0  0  0  0  0  0  0
   13.1090   -4.5290   15.6610 C   0  0  0  0  0  0  0  0  0  0  0  0
   10.0400   -2.6640   22.2390 C   0  0  0  0  0  0  0  0  0  0  0  0
    8.7780   -4.2730   23.7020 C   0  0  0  0  0  0  0  0  0  0  0  0
    7.8370   -4.4490   24.6110 C   0  0  0  0  0  0  0  0  0  0  0  0
   10.7750   -1.5610   26.1760 C   0  0  0  0  0  0  0  0  0  0  0  0
   14.2460    1.9310   21.3720 C   0  0  0  0  0  0  0  0  0  0  0  0
   16.6010   -2.8580   16.0820 C   0  0  0  0  0  0  0  0  0  0  0  0
   10.5510    0.1250   24.2280 C   0  0  0  0  0  0  0  0  0  0  0  0
   14.5720    2.3390   22.5900 C   0  0  0  0  0  0  0  0  0  0  0  0
   13.8470    3.5210   23.2140 C   0  0  2  0  0  0  0  0  0  0  0  0
    6.9090   -5.6390   24.5410 C   0  0  0  0  0  0  0  0  0  0  0  0
   12.9500    3.1380   24.4130 C   0  0  2  0  0  0  0  0  0  0  0  0
   11.6220    1.0070   24.6910 C   0  0  0  0  0  0  0  0  0  0  0  0
   13.9010    5.0410   21.3500 C   0  0  2  0  0  0  0  0  0  0  0  0
   15.3220    6.7770   19.7740 C   0  0  2  0  0  0  0  0  0  0  0  0
   13.8410    6.6000   19.3500 C   0  0  2  0  0  0  0  0  0  0  0  0
   13.0030    5.9280   20.4670 C   0  0  0  0  0  0  0  0  0  0  0  0
   11.8720    2.1440   24.0530 C   0  0  0  0  0  0  0  0  0  0  0  0
   15.3840    6.9700   21.3050 C   0  0  2  0  0  0  0  0  0  0  0  0
   15.6860    1.7680   23.4440 C   0  0  0  0  0  0  0  0  0  0  0  0
   12.2710    4.4030   24.9630 C   0  0  0  0  0  0  0  0  0  0  0  0
   16.9650    7.4850   18.1610 C   0  0  2  0  0  0  0  0  0  0  0  0
   16.3820    7.4110   16.7360 C   0  0  0  0  0  0  0  0  0  0  0  0
   16.0540    8.8320   16.2380 C   0  0  1  0  0  0  0  0  0  0  0  0
   17.3220    9.7080   16.3140 C   0  0  2  0  0  0  0  0  0  0  0  0
   16.8180    7.3000   21.7490 C   0  0  0  0  0  0  0  0  0  0  0  0
   17.8580    9.6820   17.7600 C   0  0  2  0  0  0  0  0  0  0  0  0
   19.1410   10.5230   17.8530 C   0  0  0  0  0  0  0  0  0  0  0  0
   14.5430    4.6050   18.2090 C   0  0  0  0  0  0  0  0  0  0  0  0
   14.1620    8.3980   14.8370 C   0  0  0  0  0  0  0  0  0  0  0  0
   15.2360   -3.8250   18.1890 H   0  0  0  0  0  0  0  0  0  0  0  0
   12.9650   -5.5740   18.0700 H   0  0  0  0  0  0  0  0  0  0  0  0
   10.8680   -0.7610   20.8100 H   0  0  0  0  0  0  0  0  0  0  0  0
   13.0750    0.2050   19.4650 H   0  0  0  0  0  0  0  0  0  0  0  0
   15.0760   -5.0670   16.1830 H   0  0  0  0  0  0  0  0  0  0  0  0
   10.5740   -3.4240   24.0790 H   0  0  0  0  0  0  0  0  0  0  0  0
    7.9510   -1.5490   26.1080 H   0  0  0  0  0  0  0  0  0  0  0  0
    6.6950   -3.1280   25.6340 H   0  0  0  0  0  0  0  0  0  0  0  0
   14.5690    4.1140   23.5720 H   0  0  0  0  0  0  0  0  0  0  0  0
   13.5450    2.7110   25.0940 H   0  0  0  0  0  0  0  0  0  0  0  0
   14.4140    4.4070   20.7710 H   0  0  0  0  0  0  0  0  0  0  0  0
   15.8300    5.9560   19.5130 H   0  0  0  0  0  0  0  0  0  0  0  0
   13.4420    7.5030   19.1910 H   0  0  0  0  0  0  0  0  0  0  0  0
   14.7740    7.7340   21.5150 H   0  0  0  0  0  0  0  0  0  0  0  0
   17.2690    6.5800   18.4590 H   0  0  0  0  0  0  0  0  0  0  0  0
   15.3490    9.2410   16.8180 H   0  0  0  0  0  0  0  0  0  0  0  0
   18.0210    9.3450   15.6980 H   0  0  0  0  0  0  0  0  0  0  0  0
   17.1610   10.0660   18.3650 H   0  0  0  0  0  0  0  0  0  0  0  0
    7.3860   -0.9000   24.1550 H   0  0  0  0  0  0  0  0  0  0  0  0
    7.4230   -3.6160   27.7830 H   0  0  0  0  0  0  0  0  0  0  0  0
   17.5500   11.2950   15.0670 H   0  0  0  0  0  0  0  0  0  0  0  0
   13.4200   -3.4380   21.3710 H   0  0  0  0  0  0  0  0  0  0  0  0
   14.8370   -3.5570   20.5190 H   0  0  0  0  0  0  0  0  0  0  0  0
   11.3590   -3.0490   19.8480 H   0  0  0  0  0  0  0  0  0  0  0  0
   11.5550   -1.6300   18.9960 H   0  0  0  0  0  0  0  0  0  0  0  0
   14.0020   -5.6960   20.6120 H   0  0  0  0  0  0  0  0  0  0  0  0
   12.4980   -5.1650   20.1670 H   0  0  0  0  0  0  0  0  0  0  0  0
   13.4440   -1.0350   22.0560 H   0  0  0  0  0  0  0  0  0  0  0  0
   12.5780    0.3330   21.8460 H   0  0  0  0  0  0  0  0  0  0  0  0
   14.9450   -6.8860   19.3710 H   0  0  0  0  0  0  0  0  0  0  0  0
   14.3110   -7.2660   17.9120 H   0  0  0  0  0  0  0  0  0  0  0  0
   15.5970   -6.2730   18.0020 H   0  0  0  0  0  0  0  0  0  0  0  0
   15.1850    1.1860   19.6800 H   0  0  0  0  0  0  0  0  0  0  0  0
   15.5010    0.3240   21.0390 H   0  0  0  0  0  0  0  0  0  0  0  0
   14.6190   -2.2260   15.8590 H   0  0  0  0  0  0  0  0  0  0  0  0
   15.1400   -3.2030   14.6410 H   0  0  0  0  0  0  0  0  0  0  0  0
   12.9540   -3.8470   14.9470 H   0  0  0  0  0  0  0  0  0  0  0  0
   13.0910   -5.4450   15.2620 H   0  0  0  0  0  0  0  0  0  0  0  0
   12.3910   -4.4610   16.3540 H   0  0  0  0  0  0  0  0  0  0  0  0
    8.8660   -4.9710   22.9900 H   0  0  0  0  0  0  0  0  0  0  0  0
   11.6110   -2.0930   26.0360 H   0  0  0  0  0  0  0  0  0  0  0  0
   11.0140   -0.8430   26.8300 H   0  0  0  0  0  0  0  0  0  0  0  0
   13.5120    2.4560   20.9430 H   0  0  0  0  0  0  0  0  0  0  0  0
   16.8340   -3.5770   16.7370 H   0  0  0  0  0  0  0  0  0  0  0  0
   17.2100   -2.9130   15.2910 H   0  0  0  0  0  0  0  0  0  0  0  0
   16.7060   -1.9620   16.5120 H   0  0  0  0  0  0  0  0  0  0  0  0
   10.0250    0.3760   23.4150 H   0  0  0  0  0  0  0  0  0  0  0  0
    7.1470   -6.1920   23.7430 H   0  0  0  0  0  0  0  0  0  0  0  0
    7.0020   -6.1890   25.3710 H   0  0  0  0  0  0  0  0  0  0  0  0
    5.9630   -5.3240   24.4640 H   0  0  0  0  0  0  0  0  0  0  0  0
   12.1660    0.7540   25.4900 H   0  0  0  0  0  0  0  0  0  0  0  0
   12.5770    6.6340   21.0330 H   0  0  0  0  0  0  0  0  0  0  0  0
   12.2990    5.3590   20.0440 H   0  0  0  0  0  0  0  0  0  0  0  0
   11.2970    2.3600   23.2640 H   0  0  0  0  0  0  0  0  0  0  0  0
   15.7450    2.2910   24.2940 H   0  0  0  0  0  0  0  0  0  0  0  0
   15.4950    0.8090   23.6510 H   0  0  0  0  0  0  0  0  0  0  0  0
   16.5530    1.8280   22.9500 H   0  0  0  0  0  0  0  0  0  0  0  0
   11.2800    4.2710   24.9530 H   0  0  0  0  0  0  0  0  0  0  0  0
   12.5780    4.5720   25.8990 H   0  0  0  0  0  0  0  0  0  0  0  0
   12.5130    5.1890   24.3940 H   0  0  0  0  0  0  0  0  0  0  0  0
   15.5490    6.8580   16.7430 H   0  0  0  0  0  0  0  0  0  0  0  0
   17.0530    6.9930   16.1240 H   0  0  0  0  0  0  0  0  0  0  0  0
   17.4120    7.3200   20.9450 H   0  0  0  0  0  0  0  0  0  0  0  0
   16.8350    8.1920   22.2020 H   0  0  0  0  0  0  0  0  0  0  0  0
   17.1410    6.6040   22.3900 H   0  0  0  0  0  0  0  0  0  0  0  0
   19.3470   10.9030   16.9510 H   0  0  0  0  0  0  0  0  0  0  0  0
   19.0120   11.2660   18.5100 H   0  0  0  0  0  0  0  0  0  0  0  0
   19.9000    9.9470   18.1570 H   0  0  0  0  0  0  0  0  0  0  0  0
   14.9620    4.5350   19.1140 H   0  0  0  0  0  0  0  0  0  0  0  0
   13.9360    3.8240   18.0570 H   0  0  0  0  0  0  0  0  0  0  0  0
   15.2550    4.6040   17.5070 H   0  0  0  0  0  0  0  0  0  0  0  0
   13.8270    8.2560   15.7680 H   0  0  0  0  0  0  0  0  0  0  0  0
   13.6340    9.1240   14.3970 H   0  0  0  0  0  0  0  0  0  0  0  0
   14.0600    7.5550   14.3090 H   0  0  0  0  0  0  0  0  0  0  0  0
  1 16  1  0  0  0  0
  2 15  1  0  0  0  0
  2 22  1  0  0  0  0
  3 21  1  0  0  0  0
  3 34  1  0  0  0  0
  4 27  1  0  0  0  0
  4 37  1  0  0  0  0
  5 25  1  0  0  0  0
  5 81  1  0  0  0  0
  6 31  1  0  0  0  0
  6 82  1  0  0  0  0
  7 34  2  0  0  0  0
  8 42  1  0  0  0  0
  8 46  1  0  0  0  0
  9 46  1  0  0  0  0
  9 51  1  0  0  0  0
 10 47  1  0  0  0  0
 10 54  1  0  0  0  0
 11 48  1  0  0  0  0
 11 61  1  0  0  0  0
 12 54  1  0  0  0  0
 12 59  1  0  0  0  0
 13 56  1  0  0  0  0
 13 62  1  0  0  0  0
 14 57  1  0  0  0  0
 14 83  1  0  0  0  0
 15  1  1  6  0  0  0
 15 18  1  0  0  0  0
 15 19  1  0  0  0  0
 16 17  1  1  0  0  0
 16 24  1  0  0  0  0
 16 63  1  0  0  0  0
 17 20  1  0  0  0  0
 17 28  1  0  0  0  0
 17 64  1  6  0  0  0
 18 20  1  0  0  0  0
 18 84  1  0  0  0  0
 18 85  1  0  0  0  0
 19 21  1  0  0  0  0
 19 86  1  0  0  0  0
 19 87  1  0  0  0  0
 20 88  1  0  0  0  0
 20 89  1  0  0  0  0
 21 23  1  0  0  0  0
 21 65  1  6  0  0  0
 22 23  1  0  0  0  0
 22 29  1  0  0  0  0
 22 66  1  6  0  0  0
 23 90  1  0  0  0  0
 23 91  1  0  0  0  0
 24 30  1  0  0  0  0
 24 33  1  0  0  0  0
 24 67  1  6  0  0  0
 25 26  1  6  0  0  0
 25 32  1  0  0  0  0
 26 34  1  0  0  0  0
 26 35  1  0  0  0  0
 26 68  1  1  0  0  0
 27 25  1  6  0  0  0
 27 69  1  0  0  0  0
 28 92  1  0  0  0  0
 28 93  1  0  0  0  0
 28 94  1  0  0  0  0
 29 38  1  0  0  0  0
 29 95  1  0  0  0  0
 29 96  1  0  0  0  0
 30 39  1  0  0  0  0
 30 97  1  0  0  0  0
 30 98  1  0  0  0  0
 31 27  1  6  0  0  0
 31 36  1  0  0  0  0
 31 70  1  0  0  0  0
 32 37  1  0  0  0  0
 32 40  2  0  0  0  0
 33 99  1  0  0  0  0
 33100  1  0  0  0  0
 33101  1  0  0  0  0
 35 36  2  0  0  0  0
 35102  1  0  0  0  0
 36 43  1  0  0  0  0
 37103  1  0  0  0  0
 37104  1  0  0  0  0
 38 41  2  0  0  0  0
 38105  1  0  0  0  0
 39106  1  0  0  0  0
 39107  1  0  0  0  0
 39108  1  0  0  0  0
 40 45  1  0  0  0  0
 40109  1  0  0  0  0
 41 42  1  0  0  0  0
 41 52  1  0  0  0  0
 42 44  1  1  0  0  0
 42 71  1  0  0  0  0
 43110  1  0  0  0  0
 43111  1  0  0  0  0
 43112  1  0  0  0  0
 44 50  1  0  0  0  0
 44 53  1  0  0  0  0
 44 72  1  1  0  0  0
 45 50  2  0  0  0  0
 45113  1  0  0  0  0
 46 49  1  0  0  0  0
 46 73  1  6  0  0  0
 47 48  1  6  0  0  0
 47 74  1  0  0  0  0
 48 49  1  0  0  0  0
 48 75  1  6  0  0  0
 49114  1  0  0  0  0
 49115  1  0  0  0  0
 50116  1  0  0  0  0
 51 47  1  6  0  0  0
 51 58  1  0  0  0  0
 51 76  1  0  0  0  0
 52117  1  0  0  0  0
 52118  1  0  0  0  0
 52119  1  0  0  0  0
 53120  1  0  0  0  0
 53121  1  0  0  0  0
 53122  1  0  0  0  0
 54 55  1  0  0  0  0
 54 77  1  1  0  0  0
 55 56  1  0  0  0  0
 55123  1  0  0  0  0
 55124  1  0  0  0  0
 56 57  1  1  0  0  0
 56 78  1  0  0  0  0
 57 59  1  1  0  0  0
 57 79  1  0  0  0  0
 58125  1  0  0  0  0
 58126  1  0  0  0  0
 58127  1  0  0  0  0
 59 60  1  0  0  0  0
 59 80  1  1  0  0  0
 60128  1  0  0  0  0
 60129  1  0  0  0  0
 60130  1  0  0  0  0
 61131  1  0  0  0  0
 61132  1  0  0  0  0
 61133  1  0  0  0  0
 62134  1  0  0  0  0
 62135  1  0  0  0  0
 62136  1  0  0  0  0
M  END
>  <HEADER>
                                                                          

>  <TITLE>
    6321424_D                                                             

>  <MASTER>
        0    0    0    0    0    0    0    0  136    0  136    0          

$$$$
