Disulfiram.pdb
 OpenBabel02182114013D

 36 35  0  0  0  0  0  0  0  0999 V2000
    0.4370    1.2140    1.2880 S   0  0  0  0  0  0  0  0  0  0  0  0
   -0.8850    1.8940   -0.1410 S   0  0  0  0  0  0  0  0  0  0  0  0
    2.5630    2.5310   -0.3250 S   0  0  0  0  0  0  0  0  0  0  0  0
   -0.6490   -0.3230   -2.1120 S   0  0  0  0  0  0  0  0  0  0  0  0
    2.5430   -0.1630    0.2700 N   0  0  0  0  0  0  0  0  0  0  0  0
   -2.6360   -0.1810   -0.2030 N   0  0  0  0  0  0  0  0  0  0  0  0
    3.8020   -0.4380   -0.4310 C   0  0  0  0  0  0  0  0  0  0  0  0
    1.9370   -1.3540    0.8700 C   0  0  0  0  0  0  0  0  0  0  0  0
   -3.2270   -1.4490   -0.6390 C   0  0  0  0  0  0  0  0  0  0  0  0
   -3.3350    0.4300    0.9320 C   0  0  0  0  0  0  0  0  0  0  0  0
    3.5580   -0.8370   -1.8720 C   0  0  0  0  0  0  0  0  0  0  0  0
    2.4360   -1.5800    2.2820 C   0  0  0  0  0  0  0  0  0  0  0  0
   -2.6010   -2.6280    0.0760 C   0  0  0  0  0  0  0  0  0  0  0  0
   -4.3960    1.4060    0.4690 C   0  0  0  0  0  0  0  0  0  0  0  0
    1.9460    1.1110    0.3560 C   0  0  0  0  0  0  0  0  0  0  0  0
   -1.4920    0.3670   -0.8190 C   0  0  0  0  0  0  0  0  0  0  0  0
    4.4470    0.4440   -0.4030 H   0  0  0  0  0  0  0  0  0  0  0  0
    4.3430   -1.2320    0.0960 H   0  0  0  0  0  0  0  0  0  0  0  0
    0.8460   -1.3030    0.8620 H   0  0  0  0  0  0  0  0  0  0  0  0
    2.1850   -2.2270    0.2540 H   0  0  0  0  0  0  0  0  0  0  0  0
   -4.3080   -1.4250   -0.4550 H   0  0  0  0  0  0  0  0  0  0  0  0
   -3.1090   -1.5700   -1.7190 H   0  0  0  0  0  0  0  0  0  0  0  0
   -3.7970   -0.3600    1.5360 H   0  0  0  0  0  0  0  0  0  0  0  0
   -2.6350    0.9360    1.6010 H   0  0  0  0  0  0  0  0  0  0  0  0
    2.9490   -1.7440   -1.9400 H   0  0  0  0  0  0  0  0  0  0  0  0
    3.0380   -0.0480   -2.4240 H   0  0  0  0  0  0  0  0  0  0  0  0
    4.5100   -1.0320   -2.3770 H   0  0  0  0  0  0  0  0  0  0  0  0
    3.5210   -1.7230    2.3030 H   0  0  0  0  0  0  0  0  0  0  0  0
    2.2030   -0.7340    2.9350 H   0  0  0  0  0  0  0  0  0  0  0  0
    1.9710   -2.4740    2.7090 H   0  0  0  0  0  0  0  0  0  0  0  0
   -1.5240   -2.6890   -0.1050 H   0  0  0  0  0  0  0  0  0  0  0  0
   -2.7480   -2.5580    1.1590 H   0  0  0  0  0  0  0  0  0  0  0  0
   -3.0550   -3.5630   -0.2660 H   0  0  0  0  0  0  0  0  0  0  0  0
   -3.9700    2.2200   -0.1250 H   0  0  0  0  0  0  0  0  0  0  0  0
   -5.1490    0.9070   -0.1510 H   0  0  0  0  0  0  0  0  0  0  0  0
   -4.9080    1.8470    1.3300 H   0  0  0  0  0  0  0  0  0  0  0  0
  1  2  1  0  0  0  0
  1 15  1  0  0  0  0
  2 16  1  0  0  0  0
  3 15  2  0  0  0  0
  4 16  2  0  0  0  0
  5  7  1  0  0  0  0
  5  8  1  0  0  0  0
  5 15  1  0  0  0  0
  6  9  1  0  0  0  0
  6 10  1  0  0  0  0
  6 16  1  0  0  0  0
  7 11  1  0  0  0  0
  7 17  1  0  0  0  0
  7 18  1  0  0  0  0
  8 12  1  0  0  0  0
  8 19  1  0  0  0  0
  8 20  1  0  0  0  0
  9 13  1  0  0  0  0
  9 21  1  0  0  0  0
  9 22  1  0  0  0  0
 10 14  1  0  0  0  0
 10 23  1  0  0  0  0
 10 24  1  0  0  0  0
 11 25  1  0  0  0  0
 11 26  1  0  0  0  0
 11 27  1  0  0  0  0
 12 28  1  0  0  0  0
 12 29  1  0  0  0  0
 12 30  1  0  0  0  0
 13 31  1  0  0  0  0
 13 32  1  0  0  0  0
 13 33  1  0  0  0  0
 14 34  1  0  0  0  0
 14 35  1  0  0  0  0
 14 36  1  0  0  0  0
M  END
>  <HEADER>
                                                                          

>  <TITLE>
    Disulfiram                                                            

>  <MASTER>
        0    0    0    0    0    0    0    0   36    0   36    0          

$$$$
