W_Forsythoside_E_D
  xed2sdf_05210316543D
 
 62 64  0  0  1  0  0  0  0  0999 V2000
   13.4700    3.0551   18.8994 O   0  0  0  0  0  0  0  0  0  0  0  0
   10.9040    1.4751   18.8494 O   0  0  0  0  0  0  0  0  0  0  0  0
   10.7680   -0.9239   19.1364 O   0  0  0  0  0  0  0  0  0  0  0  0
   10.3910    4.1611   20.6904 O   0  0  0  0  0  0  0  0  0  0  0  0
   15.1910    4.3271   17.7944 O   0  0  0  0  0  0  0  0  0  0  0  0
   11.1170    6.5121   19.2444 O   0  0  0  0  0  0  0  0  0  0  0  0
   13.9040    6.7231   18.5174 O   0  0  0  0  0  0  0  0  0  0  0  0
    7.9440   -0.6409   18.2584 O   0  0  0  0  0  0  0  0  0  0  0  0
    8.6680   -0.3919   15.5594 O   0  0  0  0  0  0  0  0  0  0  0  0
   11.1170   -1.8739   15.5584 O   0  0  0  0  0  0  0  0  0  0  0  0
   14.3600    8.9551   15.5694 O   0  0  0  0  0  0  0  0  0  0  0  0
   14.2190    7.8111   13.0704 O   0  0  0  0  0  0  0  0  0  0  0  0
   12.4600    3.0411   19.9314 C   0  0  0  0  0  0  0  0  0  0  0  0
   11.3930    4.1251   19.6614 C   0  0  0  0  0  0  0  0  0  0  0  0
   12.0800    5.5001   19.5754 C   0  0  0  0  0  0  0  0  0  0  0  0
   13.1970    5.4731   18.5184 C   0  0  0  0  0  0  0  0  0  0  0  0
    9.0030    0.2551   17.8914 C   0  0  0  0  0  0  0  0  0  0  0  0
   10.0520    0.3261   19.0214 C   0  0  0  0  0  0  0  0  0  0  0  0
    9.6640   -0.2039   16.5754 C   0  0  0  0  0  0  0  0  0  0  0  0
   10.4590   -1.5079   16.7814 C   0  0  0  0  0  0  0  0  0  0  0  0
   14.1720    4.3171   18.8114 C   0  0  0  0  0  0  0  0  0  0  0  0
   11.7940    1.6551   19.9664 C   0  0  0  0  0  0  0  0  0  0  0  0
   11.4660   -1.2879   17.9284 C   0  0  0  0  0  0  0  0  0  0  0  0
   12.2810   -2.5679   18.1754 C   0  0  0  0  0  0  0  0  0  0  0  0
   16.4530    4.8031   18.2874 C   0  0  0  0  0  0  0  0  0  0  0  0
   17.2890    5.3591   17.1224 C   0  0  0  0  0  0  0  0  0  0  0  0
   16.4620    6.0251   16.0364 C   0  0  0  0  0  0  0  0  0  0  0  0
   15.7820    7.1971   16.2974 C   0  0  0  0  0  0  0  0  0  0  0  0
   16.3910    5.4601   14.7824 C   0  0  0  0  0  0  0  0  0  0  0  0
   15.0320    7.7981   15.3104 C   0  0  0  0  0  0  0  0  0  0  0  0
   15.6420    6.0551   13.7914 C   0  0  0  0  0  0  0  0  0  0  0  0
   14.9610    7.2231   14.0504 C   0  0  0  0  0  0  0  0  0  0  0  0
   12.8910    3.2341   20.8124 H   0  0  0  0  0  0  0  0  0  0  0  0
   10.9390    3.9001   18.7984 H   0  0  0  0  0  0  0  0  0  0  0  0
   12.4830    5.7131   20.4654 H   0  0  0  0  0  0  0  0  0  0  0  0
   12.7880    5.3321   17.6164 H   0  0  0  0  0  0  0  0  0  0  0  0
    8.6180    1.1661   17.7514 H   0  0  0  0  0  0  0  0  0  0  0  0
    9.5890    0.4561   19.8974 H   0  0  0  0  0  0  0  0  0  0  0  0
   10.3010    0.5091   16.2824 H   0  0  0  0  0  0  0  0  0  0  0  0
    9.8480   -2.2589   17.0294 H   0  0  0  0  0  0  0  0  0  0  0  0
   14.6090    4.4391   19.7024 H   0  0  0  0  0  0  0  0  0  0  0  0
   12.0880   -0.5489   17.6674 H   0  0  0  0  0  0  0  0  0  0  0  0
    9.6460    3.5141   20.5034 H   0  0  0  0  0  0  0  0  0  0  0  0
   11.5590    7.3211   18.8424 H   0  0  0  0  0  0  0  0  0  0  0  0
   13.4050    7.4261   17.9994 H   0  0  0  0  0  0  0  0  0  0  0  0
    8.3030   -1.5339   18.5514 H   0  0  0  0  0  0  0  0  0  0  0  0
    8.5190    0.4521   15.0334 H   0  0  0  0  0  0  0  0  0  0  0  0
   10.4710   -2.2699   14.8974 H   0  0  0  0  0  0  0  0  0  0  0  0
   13.8980    8.9201   16.4624 H   0  0  0  0  0  0  0  0  0  0  0  0
   14.7980    8.3261   12.4294 H   0  0  0  0  0  0  0  0  0  0  0  0
   12.5020    0.9491   19.9374 H   0  0  0  0  0  0  0  0  0  0  0  0
   11.2610    1.5831   20.8084 H   0  0  0  0  0  0  0  0  0  0  0  0
   11.9810   -3.2739   17.5344 H   0  0  0  0  0  0  0  0  0  0  0  0
   13.2540   -2.3799   18.0394 H   0  0  0  0  0  0  0  0  0  0  0  0
   12.1390   -2.8809   19.1144 H   0  0  0  0  0  0  0  0  0  0  0  0
   16.9460    4.0501   18.7244 H   0  0  0  0  0  0  0  0  0  0  0  0
   16.2940    5.5291   18.9564 H   0  0  0  0  0  0  0  0  0  0  0  0
   17.8020    4.6051   16.7124 H   0  0  0  0  0  0  0  0  0  0  0  0
   17.8880    6.0631   17.5034 H   0  0  0  0  0  0  0  0  0  0  0  0
   15.8330    7.6111   17.2064 H   0  0  0  0  0  0  0  0  0  0  0  0
   16.8850    4.6121   14.5914 H   0  0  0  0  0  0  0  0  0  0  0  0
   15.5940    5.6391   12.8834 H   0  0  0  0  0  0  0  0  0  0  0  0
  1 13  1  0
  1 21  1  0
  2 22  1  0
  3 18  1  0
  3 23  1  0
  5 25  1  0
 11 30  1  0
 12 32  1  0
 13 14  1  0
 13 22  1  0
 14  4  1  0
 14 15  1  0
 15  6  1  0
 15 16  1  0
 16  7  1  0
 16 21  1  0
 17  8  1  0
 17 18  1  0
 17 19  1  0
 18  2  1  0
 19  9  1  0
 19 20  1  0
 20 10  1  0
 20 23  1  0
 21  5  1  0
 23 24  1  0
 25 26  1  0
 26 27  1  0
 27 28  2  0
 27 29  1  0
 28 30  1  0
 29 31  2  0
 30 32  2  0
 31 32  1  0
  4 43  1  0
  6 44  1  0
  7 45  1  0
  8 46  1  0
  9 47  1  0
 10 48  1  0
 11 49  1  0
 12 50  1  0
 13 33  1  0
 14 34  1  0
 15 35  1  0
 16 36  1  0
 17 37  1  0
 18 38  1  0
 19 39  1  0
 20 40  1  0
 21 41  1  0
 22 51  1  0
 22 52  1  0
 23 42  1  0
 24 53  1  0
 24 54  1  0
 24 55  1  0
 25 56  1  0
 25 57  1  0
 26 58  1  0
 26 59  1  0
 28 60  1  0
 29 61  1  0
 31 62  1  0
M  END
>  <BioMolTech Lead Finder dG>
-6.888

>  <BioMolTech Lead Finder VSscore>
-13.423

>  <BioMolTech Lead Finder Rank score>
-10.675

>  <BioMolTech Lead Finder LE>
-0.215

>  <BioMolTech Lead Finder Structure Name>
/var/folders/xd/y7jw_xv579q2qqq7kks92xd80000gn/T/LeadFinder_4320_1/Ligand_1.sdf

>  <BioMolTech Lead Finder SDF id>
0

>  <BioMolTech Lead Finder Pose rank>
0

>  <BioMolTech Lead Finder version>
2001 1, 19 January 2019

>  <PUBCHEM_COMPOUND_CID>
69634125

>  <PUBCHEM_COMPOUND_CANONICALIZED>
1

>  <PUBCHEM_CACTVS_COMPLEXITY>
581

>  <PUBCHEM_CACTVS_HBOND_ACCEPTOR>
12

>  <PUBCHEM_CACTVS_HBOND_DONOR>
8

>  <PUBCHEM_CACTVS_ROTATABLE_BOND>
7

>  <PUBCHEM_CACTVS_SUBSKEYS>
AAADceB4PAAAAAAAAAAAAAAAAAAAAAAAAAA0SIAAAAAAAAABAAAAGgAACAAADBSwmAMyDoAABgCAAiBCAAACAAAgIAAIiAAGiIgZNiKCERKicAElwBEPmAfA4LwOIAABAAAAQABAAAIAAACAAAAAAAAAAA==

>  <PUBCHEM_IUPAC_OPENEYE_NAME>
(2R,3R,4R,5R,6S)-2-[[(2R,3S,4S,5R,6R)-6-[2-(3,4-dihydroxyphenyl)ethoxy]-3,4,5-trihydroxy-tetrahydropyran-2-yl]methoxy]-6-methyl-tetrahydropyran-3,4,5-triol

>  <PUBCHEM_IUPAC_CAS_NAME>
(2R,3R,4R,5R,6S)-2-[[(2R,3S,4S,5R,6R)-6-[2-(3,4-dihydroxyphenyl)ethoxy]-3,4,5-trihydroxy-2-oxanyl]methoxy]-6-methyloxane-3,4,5-triol

>  <PUBCHEM_IUPAC_NAME_MARKUP>
(2<I>R</I>,3<I>R</I>,4<I>R</I>,5<I>R</I>,6<I>S</I>)-2-[[(2<I>R</I>,3<I>S</I>,4<I>S</I>,5<I>R</I>,6<I>R</I>)-6-[2-(3,4-dihydroxyphenyl)ethoxy]-3,4,5-trihydroxyoxan-2-yl]methoxy]-6-methyloxane-3,4,5-tri

>  <PUBCHEM_IUPAC_NAME>
(2R,3R,4R,5R,6S)-2-[[(2R,3S,4S,5R,6R)-6-[2-(3,4-dihydroxyphenyl)ethoxy]-3,4,5-trihydroxyoxan-2-yl]methoxy]-6-methyloxane-3,4,5-triol

>  <PUBCHEM_IUPAC_SYSTEMATIC_NAME>
(2R,3R,4R,5R,6S)-2-[[(2R,3S,4S,5R,6R)-6-[2-[3,4-bis(oxidanyl)phenyl]ethoxy]-3,4,5-tris(oxidanyl)oxan-2-yl]methoxy]-6-methyl-oxane-3,4,5-triol

>  <PUBCHEM_IUPAC_TRADITIONAL_NAME>
(2R,3R,4R,5R,6S)-2-[[(2R,3S,4S,5R,6R)-6-[2-(3,4-dihydroxyphenyl)ethoxy]-3,4,5-trihydroxy-tetrahydropyran-2-yl]methoxy]-6-methyl-tetrahydropyran-3,4,5-triol

>  <PUBCHEM_IUPAC_INCHI>
InChI=1S/C20H30O12/c1-8-13(23)15(25)17(27)20(31-8)30-7-12-14(24)16(26)18(28)19(32-12)29-5-4-9-2-3-10(21)11(22)6-9/h2-3,6,8,12-28H,4-5,7H2,1H3/t8-,12+,13-,14+,15+,16-,17+,18+,19+,20+/m0/s1

>  <PUBCHEM_IUPAC_INCHIKEY>
QIMGUQIHCNDUKU-OJJLXHDHSA-N

>  <PUBCHEM_XLOGP3_AA>
-2.5

>  <PUBCHEM_EXACT_MASS>
462.173726

>  <PUBCHEM_MOLECULAR_FORMULA>
C20H30O12

>  <PUBCHEM_MOLECULAR_WEIGHT>
462.4

>  <PUBCHEM_OPENEYE_CAN_SMILES>
CC1C(C(C(C(O1)OCC2C(C(C(C(O2)OCCC3=CC(=C(C=C3)O)O)O)O)O)O)O)O

>  <PUBCHEM_OPENEYE_ISO_SMILES>
C[C@H]1[C@@H]([C@H]([C@H]([C@@H](O1)OC[C@@H]2[C@H]([C@@H]([C@H]([C@@H](O2)OCCC3=CC(=C(C=C3)O)O)O)O)O)O)O)O

>  <PUBCHEM_CACTVS_TPSA>
199

>  <PUBCHEM_MONOISOTOPIC_WEIGHT>
462.173726

>  <PUBCHEM_TOTAL_CHARGE>
0

>  <PUBCHEM_HEAVY_ATOM_COUNT>
32

>  <PUBCHEM_ATOM_DEF_STEREO_COUNT>
10

>  <PUBCHEM_ATOM_UDEF_STEREO_COUNT>
0

>  <PUBCHEM_BOND_DEF_STEREO_COUNT>
0

>  <PUBCHEM_BOND_UDEF_STEREO_COUNT>
0

>  <PUBCHEM_ISOTOPIC_ATOM_COUNT>
0

>  <PUBCHEM_COMPONENT_COUNT>
1

>  <PUBCHEM_CACTVS_TAUTO_COUNT>
-1

>  <PUBCHEM_COORDINATE_TYPE>
1
5
255

>  <PUBCHEM_BONDANNOTATIONS>
20  10  5
13  22  5
18  2  5
23  24  6
27  28  8
27  29  8
28  30  8
29  31  8
30  32  8
31  32  8
14  4  6
21  5  5
15  6  5
16  7  6
17  8  6
19  9  6

>  <LF dG>
-6.888

>  <LF VSscore>
-13.423

>  <LF Rank Score>
-10.675

>  <LF LE>
-0.215

>  <Preferred Pose_cresset>
true

>  <Favorite_cresset>
false

>  <Protein_cresset>
6Y2F_P

>  <MW_cresset>
462.4

>  <#Atoms_cresset>
32

>  <SlogP_cresset>
-0.4

>  <TPSA_cresset>
198.8

>  <Flexibility_cresset>
15.9

>  <#RB_cresset>
15

>  <Rof5_cresset>
2

>  <Filename_cresset>
Forsythoside E.sdf

>  <Confs_cresset>
0

>  <Poses_cresset>
10

>  <_cresset_fieldpoints>
    -5       9.804800       5.976984      20.532892    -18.9588
    -5      11.004028      -1.734893      20.854443     -6.0125
    -5      15.003028       7.282106      19.982441     -7.2565
    -5       7.121762      -0.928895      16.553885    -17.2832
    -5      12.926028      -1.400894      15.147442    -12.3870
    -5      13.136028       9.128107      13.942442    -10.5425
    -5      14.615028       3.416106      16.211441    -13.2905
    -5      14.204028       2.322106      17.291441    -12.5580
    -5      18.149029       8.140106      14.584442     -3.2415
    -6      16.025028       4.516107      21.329441      3.7735
    -6      18.530027       5.929107      19.993443      2.7955
    -6      14.399028       4.617106      21.852442      4.2855
    -6       8.885028       2.269106      15.007442      8.9865
    -6       8.578028       2.058106      20.953442      9.2935
    -6       8.725028      -3.396894      18.683441      7.8750
    -6      13.076028       1.607107      22.576443      3.0500
    -6      12.357295       8.602640      17.554676     22.7118
    -6       9.543028      -3.743894      14.113441      6.5970
    -6      15.964027       8.810106      11.061441      7.6955
    -6      18.673027       3.374106      14.818441      2.1735
    -6      17.212029       7.953106      18.960442      3.0155
    -7      11.723028      -1.330894      21.312443     -2.2475
    -7       8.761028       5.864106      19.867441     -1.5200
    -7      10.918028       3.331106      22.848442     -1.8570
    -7       9.027028       2.002107      21.957441     -1.7210
    -7       8.378028       3.490107      18.677443     -2.0625
    -7      10.300028       6.021107      16.939442     -1.8060
    -7       7.146028      -2.226893      16.570442     -1.8935
    -7       9.446028      -2.812893      19.949442     -2.3970
    -7      10.230028      -0.475893      13.493442     -1.5860
    -7       8.078028      -2.622893      14.890442     -1.5135
    -7      12.157028       2.230106      16.843441     -3.8390
    -7      13.472028      10.170107      13.499441     -1.3975
    -7      14.126028       6.732106      10.810442     -1.2575
    -7      14.307028       4.998106      22.160442     -1.9320
    -7      11.909028       7.508107      16.360441     -2.4730
    -7      10.982028      -4.426894      15.461442     -1.5310
    -7      12.052028      -3.994894      15.063442     -1.5250
    -7      12.804028       0.052107      15.190442     -1.8550
    -7      13.759027       3.752106      15.737442     -3.0095
    -7      15.529028       7.831107      19.655441     -2.5335
    -7      18.442028       8.227106      14.324442     -1.8310
    -8      12.640028       4.577106      19.427443      5.1455
    -8      11.556028      -2.095893      17.602442      4.4630
    -8      10.235028      -0.452893      17.439442      4.8620
    -8      11.835028       2.857106      20.206442      3.9040
    -8      15.752028       6.583107      15.065442      6.9170

$$$$
W_Lopinavir_D
  xed2sdf_05210316543D
 
 94 97  0  0  1  0  0  0  0  0999 V2000
   13.7947    2.7660   22.0421 O   0  0  0  0  0  0  0  0  0  0  0  0
   10.3597   -2.1610   21.1801 O   0  0  0  0  0  0  0  0  0  0  0  0
   10.7237   -2.1010   25.8551 O   0  0  0  0  0  0  0  0  0  0  0  0
   11.3127    4.4130   19.4951 O   0  0  0  0  0  0  0  0  0  0  0  0
   14.2787    4.7960   17.7881 O   0  0  0  0  0  0  0  0  0  0  0  0
    9.7507   -3.3490   24.2401 N   0  0  0  0  0  0  0  0  0  0  0  0
   10.8047   -0.8150   22.9591 N   0  0  0  0  0  0  0  0  0  0  0  0
   13.1347    3.0450   19.5811 N   0  0  0  0  0  0  0  0  0  0  0  0
    8.6247   -2.7790   26.2181 N   0  0  0  0  0  0  0  0  0  0  0  0
   10.7347    0.4220   22.1691 C   0  0  0  0  0  0  0  0  0  0  0  0
   10.8947   -3.1480   23.3251 C   0  0  0  0  0  0  0  0  0  0  0  0
   11.8187    1.4300   22.6151 C   0  0  0  0  0  0  0  0  0  0  0  0
   12.9787    1.6630   21.6201 C   0  0  0  0  0  0  0  0  0  0  0  0
   11.5457   -4.3700   22.6291 C   0  0  0  0  0  0  0  0  0  0  0  0
   12.4077    1.9330   20.2101 C   0  0  0  0  0  0  0  0  0  0  0  0
    9.2977    0.9890   22.1481 C   0  0  0  0  0  0  0  0  0  0  0  0
   10.6457   -2.0060   22.3601 C   0  0  0  0  0  0  0  0  0  0  0  0
    8.6327   -4.2040   23.8071 C   0  0  0  0  0  0  0  0  0  0  0  0
    7.3177   -3.5610   24.2551 C   0  0  0  0  0  0  0  0  0  0  0  0
   12.5167    0.6980   19.2911 C   0  0  0  0  0  0  0  0  0  0  0  0
    9.7387   -2.7280   25.4481 C   0  0  0  0  0  0  0  0  0  0  0  0
   10.6787   -4.9920   21.5201 C   0  0  0  0  0  0  0  0  0  0  0  0
   11.8947   -5.4620   23.6531 C   0  0  0  0  0  0  0  0  0  0  0  0
    7.3927   -3.4570   25.7831 C   0  0  0  0  0  0  0  0  0  0  0  0
    8.6017    1.1310   23.4961 C   0  0  0  0  0  0  0  0  0  0  0  0
   11.3577    0.4850   18.3301 C   0  0  0  0  0  0  0  0  0  0  0  0
   12.5087    4.2070   19.3401 C   0  0  0  0  0  0  0  0  0  0  0  0
    8.6847    2.3220   24.1831 C   0  0  0  0  0  0  0  0  0  0  0  0
    7.8957    0.0840   24.0491 C   0  0  0  0  0  0  0  0  0  0  0  0
   10.5757    1.5480   17.9331 C   0  0  0  0  0  0  0  0  0  0  0  0
   11.0837   -0.7760   17.8471 C   0  0  0  0  0  0  0  0  0  0  0  0
   13.4667    5.2780   18.8781 C   0  0  0  0  0  0  0  0  0  0  0  0
    8.0637    2.4720   25.4011 C   0  0  0  0  0  0  0  0  0  0  0  0
    7.2717    0.2310   25.2671 C   0  0  0  0  0  0  0  0  0  0  0  0
    7.3547    1.4250   25.9441 C   0  0  0  0  0  0  0  0  0  0  0  0
    9.5287    1.3520   17.0621 C   0  0  0  0  0  0  0  0  0  0  0  0
   10.0367   -0.9740   16.9751 C   0  0  0  0  0  0  0  0  0  0  0  0
    9.2587    0.0910   16.5831 C   0  0  0  0  0  0  0  0  0  0  0  0
   15.5107    5.3090   17.6741 C   0  0  0  0  0  0  0  0  0  0  0  0
   15.7387    6.5110   17.0091 C   0  0  0  0  0  0  0  0  0  0  0  0
   16.5897    4.6230   18.2181 C   0  0  0  0  0  0  0  0  0  0  0  0
   17.0167    7.0110   16.9181 C   0  0  0  0  0  0  0  0  0  0  0  0
   17.8607    5.1370   18.1141 C   0  0  0  0  0  0  0  0  0  0  0  0
   14.6547    7.3490   16.3481 C   0  0  0  0  0  0  0  0  0  0  0  0
   16.4207    3.2980   18.9431 C   0  0  0  0  0  0  0  0  0  0  0  0
   18.0777    6.3310   17.4681 C   0  0  0  0  0  0  0  0  0  0  0  0
   10.9477    0.2130   21.2141 H   0  0  0  0  0  0  0  0  0  0  0  0
   11.6167   -2.9100   23.9761 H   0  0  0  0  0  0  0  0  0  0  0  0
   13.5497    0.8430   21.5931 H   0  0  0  0  0  0  0  0  0  0  0  0
   11.4397    2.1590   20.3231 H   0  0  0  0  0  0  0  0  0  0  0  0
   13.3127    3.6420   21.9331 H   0  0  0  0  0  0  0  0  0  0  0  0
   10.9597   -0.7720   23.8241 H   0  0  0  0  0  0  0  0  0  0  0  0
   13.9897    2.9500   19.3891 H   0  0  0  0  0  0  0  0  0  0  0  0
    8.6407   -2.3960   27.0111 H   0  0  0  0  0  0  0  0  0  0  0  0
   12.2117    1.1000   23.4741 H   0  0  0  0  0  0  0  0  0  0  0  0
   11.3517    2.3110   22.6941 H   0  0  0  0  0  0  0  0  0  0  0  0
   12.3737   -4.0130   22.1971 H   0  0  0  0  0  0  0  0  0  0  0  0
    8.7397    0.3860   21.5781 H   0  0  0  0  0  0  0  0  0  0  0  0
    9.3867    1.9220   21.7991 H   0  0  0  0  0  0  0  0  0  0  0  0
    8.7227   -5.1120   24.2171 H   0  0  0  0  0  0  0  0  0  0  0  0
    8.6417   -4.2960   22.8111 H   0  0  0  0  0  0  0  0  0  0  0  0
    6.5407   -4.1290   23.9821 H   0  0  0  0  0  0  0  0  0  0  0  0
    7.1887   -2.6630   23.8351 H   0  0  0  0  0  0  0  0  0  0  0  0
   12.5907   -0.1130   19.8721 H   0  0  0  0  0  0  0  0  0  0  0  0
   13.3207    0.8560   18.7161 H   0  0  0  0  0  0  0  0  0  0  0  0
   10.5407   -5.9620   21.7191 H   0  0  0  0  0  0  0  0  0  0  0  0
    9.7937   -4.5270   21.4821 H   0  0  0  0  0  0  0  0  0  0  0  0
   11.1377   -4.8900   20.6371 H   0  0  0  0  0  0  0  0  0  0  0  0
   11.4787   -6.3240   23.3641 H   0  0  0  0  0  0  0  0  0  0  0  0
   12.8877   -5.5690   23.7091 H   0  0  0  0  0  0  0  0  0  0  0  0
   11.5447   -5.2030   24.5541 H   0  0  0  0  0  0  0  0  0  0  0  0
    6.6027   -2.9420   26.1151 H   0  0  0  0  0  0  0  0  0  0  0  0
    7.3957   -4.3830   26.1591 H   0  0  0  0  0  0  0  0  0  0  0  0
    9.2007    3.0850   23.7921 H   0  0  0  0  0  0  0  0  0  0  0  0
    7.8357   -0.7870   23.5621 H   0  0  0  0  0  0  0  0  0  0  0  0
   10.7697    2.4660   18.2801 H   0  0  0  0  0  0  0  0  0  0  0  0
   11.6477   -1.5510   18.1311 H   0  0  0  0  0  0  0  0  0  0  0  0
   12.9487    6.0780   18.5761 H   0  0  0  0  0  0  0  0  0  0  0  0
   14.0637    5.5250   19.6411 H   0  0  0  0  0  0  0  0  0  0  0  0
    8.1267    3.3410   25.8921 H   0  0  0  0  0  0  0  0  0  0  0  0
    6.7587   -0.5320   25.6601 H   0  0  0  0  0  0  0  0  0  0  0  0
    6.9007    1.5320   26.8291 H   0  0  0  0  0  0  0  0  0  0  0  0
    8.9637    2.1270   16.7771 H   0  0  0  0  0  0  0  0  0  0  0  0
    9.8417   -1.8910   16.6281 H   0  0  0  0  0  0  0  0  0  0  0  0
    8.4987   -0.0520   15.9491 H   0  0  0  0  0  0  0  0  0  0  0  0
   17.1767    7.8780   16.4471 H   0  0  0  0  0  0  0  0  0  0  0  0
   18.6317    4.6390   18.5111 H   0  0  0  0  0  0  0  0  0  0  0  0
   15.0737    8.1600   15.9401 H   0  0  0  0  0  0  0  0  0  0  0  0
   14.1987    6.8120   15.6391 H   0  0  0  0  0  0  0  0  0  0  0  0
   13.9797    7.6250   17.0321 H   0  0  0  0  0  0  0  0  0  0  0  0
   17.3167    2.9810   19.2551 H   0  0  0  0  0  0  0  0  0  0  0  0
   15.8137    3.4180   19.7291 H   0  0  0  0  0  0  0  0  0  0  0  0
   16.0207    2.6230   18.3241 H   0  0  0  0  0  0  0  0  0  0  0  0
   19.0027    6.7030   17.3991 H   0  0  0  0  0  0  0  0  0  0  0  0
  2 17  2  0
  3 21  2  0
  4 27  2  0
  5 32  1  0
  5 39  1  0
  6 11  1  0
  6 18  1  0
  6 21  1  0
  7 17  1  0
  8 27  1  0
  9 21  1  0
  9 24  1  0
 10  7  1  0
 10 12  1  0
 10 16  1  0
 11 14  1  0
 11 17  1  0
 12 13  1  0
 13  1  1  0
 13 15  1  0
 14 22  1  0
 14 23  1  0
 15  8  1  0
 15 20  1  0
 16 25  1  0
 18 19  1  0
 19 24  1  0
 20 26  1  0
 25 28  2  0
 25 29  1  0
 26 30  2  0
 26 31  1  0
 27 32  1  0
 28 33  1  0
 29 34  2  0
 30 36  1  0
 31 37  2  0
 33 35  2  0
 34 35  1  0
 36 38  2  0
 37 38  1  0
 39 40  2  0
 39 41  1  0
 40 42  1  0
 40 44  1  0
 41 43  2  0
 41 45  1  0
 42 46  2  0
 43 46  1  0
  1 51  1  0
  7 52  1  0
  8 53  1  0
  9 54  1  0
 10 47  1  0
 11 48  1  0
 12 55  1  0
 12 56  1  0
 13 49  1  0
 14 57  1  0
 15 50  1  0
 16 58  1  0
 16 59  1  0
 18 60  1  0
 18 61  1  0
 19 62  1  0
 19 63  1  0
 20 64  1  0
 20 65  1  0
 22 66  1  0
 22 67  1  0
 22 68  1  0
 23 69  1  0
 23 70  1  0
 23 71  1  0
 24 72  1  0
 24 73  1  0
 28 74  1  0
 29 75  1  0
 30 76  1  0
 31 77  1  0
 32 78  1  0
 32 79  1  0
 33 80  1  0
 34 81  1  0
 35 82  1  0
 36 83  1  0
 37 84  1  0
 38 85  1  0
 42 86  1  0
 43 87  1  0
 44 88  1  0
 44 89  1  0
 44 90  1  0
 45 91  1  0
 45 92  1  0
 45 93  1  0
 46 94  1  0
M  END
>  <BioMolTech Lead Finder dG>
-8.398

>  <BioMolTech Lead Finder VSscore>
-10.601

>  <BioMolTech Lead Finder Rank score>
-12.399

>  <BioMolTech Lead Finder LE>
-0.183

>  <BioMolTech Lead Finder Structure Name>
/var/folders/xd/y7jw_xv579q2qqq7kks92xd80000gn/T/LeadFinder_4318_1/Ligand_1.sdf

>  <BioMolTech Lead Finder SDF id>
0

>  <BioMolTech Lead Finder Pose rank>
0

>  <BioMolTech Lead Finder version>
2001 1, 19 January 2019

>  <PUBCHEM_COMPOUND_CID>
92727

>  <PUBCHEM_COMPOUND_CANONICALIZED>
1

>  <PUBCHEM_CACTVS_COMPLEXITY>
940

>  <PUBCHEM_CACTVS_HBOND_ACCEPTOR>
5

>  <PUBCHEM_CACTVS_HBOND_DONOR>
4

>  <PUBCHEM_CACTVS_ROTATABLE_BOND>
15

>  <PUBCHEM_CACTVS_SUBSKEYS>
AAADcfB/uAAAAAAAAAAAAAAAAAAAAAAAAAA8YMEAAAAAAAABUAAAHgAQCAAADTzhmAYzBoPABgCIAiFSEAICCAAgIAAIiIHMCIiOdjKE8T+XeCCu1hOYqAeQwPAOAAACAAAIAAAAAAQAABAAAAAAAAAAAA==

>  <PUBCHEM_IUPAC_OPENEYE_NAME>
(2S)-N-[(1S,3S,4S)-1-benzyl-4-[[2-(2,6-dimethylphenoxy)acetyl]amino]-3-hydroxy-5-phenyl-pentyl]-3-methyl-2-(2-oxohexahydropyrimidin-1-yl)butanamide

>  <PUBCHEM_IUPAC_CAS_NAME>
(2S)-N-[(2S,4S,5S)-5-[[2-(2,6-dimethylphenoxy)-1-oxoethyl]amino]-4-hydroxy-1,6-diphenylhexan-2-yl]-3-methyl-2-(2-oxo-1,3-diazinan-1-yl)butanamide

>  <PUBCHEM_IUPAC_NAME_MARKUP>
(2<I>S</I>)-<I>N</I>-[(2<I>S</I>,4<I>S</I>,5<I>S</I>)-5-[[2-(2,6-dimethylphenoxy)acetyl]amino]-4-hydroxy-1,6-diphenylhexan-2-yl]-3-methyl-2-(2-oxo-1,3-diazinan-1-yl)butanamide

>  <PUBCHEM_IUPAC_NAME>
(2S)-N-[(2S,4S,5S)-5-[[2-(2,6-dimethylphenoxy)acetyl]amino]-4-hydroxy-1,6-diphenylhexan-2-yl]-3-methyl-2-(2-oxo-1,3-diazinan-1-yl)butanamide

>  <PUBCHEM_IUPAC_SYSTEMATIC_NAME>
(2S)-N-[(2S,4S,5S)-5-[2-(2,6-dimethylphenoxy)ethanoylamino]-4-oxidanyl-1,6-diphenyl-hexan-2-yl]-3-methyl-2-(2-oxidanylidene-1,3-diazinan-1-yl)butanamide

>  <PUBCHEM_IUPAC_TRADITIONAL_NAME>
(2S)-N-[(1S,3S,4S)-1-benzyl-4-[[2-(2,6-dimethylphenoxy)acetyl]amino]-3-hydroxy-5-phenyl-pentyl]-2-(2-ketohexahydropyrimidin-1-yl)-3-methyl-butyramide

>  <PUBCHEM_IUPAC_INCHI>
InChI=1S/C37H48N4O5/c1-25(2)34(41-20-12-19-38-37(41)45)36(44)39-30(21-28-15-7-5-8-16-28)23-32(42)31(22-29-17-9-6-10-18-29)40-33(43)24-46-35-26(3)13-11-14-27(35)4/h5-11,13-18,25,30-32,34,42H,12,19-24H2

>  <PUBCHEM_IUPAC_INCHIKEY>
KJHKTHWMRKYKJE-SUGCFTRWSA-N

>  <PUBCHEM_XLOGP3_AA>
5.9

>  <PUBCHEM_EXACT_MASS>
628.362471

>  <PUBCHEM_MOLECULAR_FORMULA>
C37H48N4O5

>  <PUBCHEM_MOLECULAR_WEIGHT>
628.8

>  <PUBCHEM_OPENEYE_CAN_SMILES>
CC1=C(C(=CC=C1)C)OCC(=O)NC(CC2=CC=CC=C2)C(CC(CC3=CC=CC=C3)NC(=O)C(C(C)C)N4CCCNC4=O)O

>  <PUBCHEM_OPENEYE_ISO_SMILES>
CC1=C(C(=CC=C1)C)OCC(=O)N[C@@H](CC2=CC=CC=C2)[C@H](C[C@H](CC3=CC=CC=C3)NC(=O)[C@H](C(C)C)N4CCCNC4=O)O

>  <PUBCHEM_CACTVS_TPSA>
120

>  <PUBCHEM_MONOISOTOPIC_WEIGHT>
628.362471

>  <PUBCHEM_TOTAL_CHARGE>
0

>  <PUBCHEM_HEAVY_ATOM_COUNT>
46

>  <PUBCHEM_ATOM_DEF_STEREO_COUNT>
4

>  <PUBCHEM_ATOM_UDEF_STEREO_COUNT>
0

>  <PUBCHEM_BOND_DEF_STEREO_COUNT>
0

>  <PUBCHEM_BOND_UDEF_STEREO_COUNT>
0

>  <PUBCHEM_ISOTOPIC_ATOM_COUNT>
0

>  <PUBCHEM_COMPONENT_COUNT>
1

>  <PUBCHEM_CACTVS_TAUTO_COUNT>
-1

>  <PUBCHEM_COORDINATE_TYPE>
1
5
255

>  <PUBCHEM_BONDANNOTATIONS>
13  1  6
11  17  5
25  28  8
25  29  8
26  30  8
26  31  8
28  33  8
29  34  8
30  36  8
31  37  8
33  35  8
34  35  8
36  38  8
37  38  8
39  40  8
39  41  8
40  42  8
41  43  8
42  46  8
43  46  8
10  7  6
15  8  5

>  <LF dG>
-8.398

>  <LF VSscore>
-10.601

>  <LF Rank Score>
-12.399

>  <LF LE>
-0.183

>  <Preferred Pose_cresset>
true

>  <Favorite_cresset>
false

>  <Protein_cresset>
6Y2F_P

>  <MW_cresset>
628.8

>  <#Atoms_cresset>
46

>  <SlogP_cresset>
4.7

>  <TPSA_cresset>
120

>  <Flexibility_cresset>
16.1

>  <#RB_cresset>
16

>  <Rof5_cresset>
1

>  <Filename_cresset>
Lopinavir.sdf

>  <Confs_cresset>
0

>  <Poses_cresset>
10

>  <_cresset_fieldpoints>
    -5      11.263363      -1.128213      27.213814    -16.8087
    -5      15.420657       2.434968      22.980089    -11.6670
    -5       9.220856      -1.611330      19.830524    -15.7488
    -5      10.099657       5.689968      19.186089    -14.2720
    -5      13.166656       3.033968      16.850090     -6.9655
    -5       5.703657       2.186968      23.318089     -4.2315
    -5      12.113657       0.993968      15.391088     -4.9100
    -5      16.857656       4.326968      15.116089     -4.2270
    -5      16.949657       7.443968      20.016088     -2.3965
    -6      13.328657       5.550968      21.787088      9.1750
    -6      11.849657       4.583968      22.732088      8.3565
    -6      15.377657       0.709968      19.634089      4.4655
    -6       4.914657      -1.880032      25.220089      4.7460
    -6       6.801657      -6.382032      24.963089      4.9255
    -6      13.621656      -1.508032      21.455090      3.4840
    -6      13.812656       7.909968      19.713089      3.9470
    -6       7.200657      -1.695032      28.172089      5.8780
    -6       7.054657      -0.750032      14.606089      1.8185
    -6      19.725657       3.154968      19.514090      2.8745
    -6      16.871656       9.721968      15.495089      2.9225
    -7      10.305656       4.268968      21.592089     -3.4690
    -7      16.104656       1.990968      21.877089     -1.9515
    -7      10.772657       0.275968      25.991089     -3.5945
    -7      15.222657       4.720968      21.731089     -2.7375
    -7      12.569657      -3.552032      26.292089     -2.0630
    -7      13.408657      -1.683032      21.663090     -3.6060
    -7       9.249657       3.622968      20.081089     -3.1465
    -7       9.956657      -5.417032      26.562088     -2.5830
    -7      15.630657       0.440968      20.042089     -2.4375
    -7      12.623657      -2.532032      20.187088     -3.5475
    -7      13.625657      -6.360032      20.985088     -1.4945
    -7       9.078657      -7.444032      23.257090     -1.9305
    -7       4.711657      -1.664032      24.449089     -1.9715
    -7       6.802657      -6.775032      25.007090     -1.4660
    -7       4.417657      -4.762032      25.539089     -1.1030
    -7       6.666657      -1.207032      28.184090     -1.8530
    -7       8.551657      -1.494032      19.995089     -3.6035
    -7      15.960657       7.243968      20.359089     -2.4710
    -7       5.433657       2.261968      22.961088     -1.8470
    -7       6.994657       3.809968      28.337090     -0.9695
    -7       7.704657      -2.507032      15.043089     -0.9700
    -7      13.687656       2.471968      16.776089     -3.9680
    -7       6.819657       1.931968      15.101089     -0.9710
    -7       7.981657      -2.077032      21.317089     -4.0495
    -7      19.532658       9.058968      16.010090     -1.0055
    -7      16.918657       4.119968      14.827089     -2.0005
    -7      21.202656       5.374968      18.454088     -1.0010
    -8      10.310657       0.289968      17.461088      7.2025
    -8      11.815657       1.256968      21.430088      5.9755
    -8      11.222657      -4.784032      22.724089      5.8525
    -8      11.611657       1.202968      19.028090      5.7720
    -8       7.617657      -3.983032      24.598089      4.9805
    -8      10.579657       1.343968      22.176088      5.4715
    -8      15.810658       6.686968      16.933088      5.4815
    -8       7.983657       1.275968      24.719090      7.2015
    -8      16.825657       5.833968      17.566090      7.0745

$$$$
Forsythoside_E_D
  xed2sdf_05210316543D
 
 62 64  0  0  1  0  0  0  0  0999 V2000
   12.4826    3.9231   18.3863 O   0  0  0  0  0  0  0  0  0  0  0  0
   11.3436    0.9371   19.0933 O   0  0  0  0  0  0  0  0  0  0  0  0
   10.8336   -1.4269   19.1843 O   0  0  0  0  0  0  0  0  0  0  0  0
   10.0846    3.8821   21.2423 O   0  0  0  0  0  0  0  0  0  0  0  0
   14.1846    5.5161   17.7823 O   0  0  0  0  0  0  0  0  0  0  0  0
   10.9816    6.5901   21.2563 O   0  0  0  0  0  0  0  0  0  0  0  0
   13.5666    7.0571   20.0553 O   0  0  0  0  0  0  0  0  0  0  0  0
    8.1436   -0.6559   18.1893 O   0  0  0  0  0  0  0  0  0  0  0  0
    9.0616   -0.3319   15.5583 O   0  0  0  0  0  0  0  0  0  0  0  0
   11.2586   -2.1679   15.5653 O   0  0  0  0  0  0  0  0  0  0  0  0
   12.7116    8.7191   14.3503 O   0  0  0  0  0  0  0  0  0  0  0  0
   13.9596    7.5181   12.2113 O   0  0  0  0  0  0  0  0  0  0  0  0
   11.7046    3.3411   19.4543 C   0  0  0  0  0  0  0  0  0  0  0  0
   10.8456    4.4211   20.1493 C   0  0  0  0  0  0  0  0  0  0  0  0
   11.7666    5.5371   20.6773 C   0  0  0  0  0  0  0  0  0  0  0  0
   12.6356    6.0951   19.5373 C   0  0  0  0  0  0  0  0  0  0  0  0
    9.3446    0.0911   17.9473 C   0  0  0  0  0  0  0  0  0  0  0  0
   10.3206   -0.0769   19.1313 C   0  0  0  0  0  0  0  0  0  0  0  0
   10.0106   -0.3699   16.6353 C   0  0  0  0  0  0  0  0  0  0  0  0
   10.5876   -1.7909   16.7783 C   0  0  0  0  0  0  0  0  0  0  0  0
   13.3956    4.9481   18.8443 C   0  0  0  0  0  0  0  0  0  0  0  0
   10.7916    2.2471   18.8743 C   0  0  0  0  0  0  0  0  0  0  0  0
   11.5436   -1.8089   17.9883 C   0  0  0  0  0  0  0  0  0  0  0  0
   12.1426   -3.2119   18.1763 C   0  0  0  0  0  0  0  0  0  0  0  0
   15.5436    5.7581   18.1803 C   0  0  0  0  0  0  0  0  0  0  0  0
   16.1046    6.9611   17.4023 C   0  0  0  0  0  0  0  0  0  0  0  0
   15.5226    7.1171   16.0083 C   0  0  0  0  0  0  0  0  0  0  0  0
   14.3726    7.8531   15.8103 C   0  0  0  0  0  0  0  0  0  0  0  0
   16.1446    6.5211   14.9333 C   0  0  0  0  0  0  0  0  0  0  0  0
   13.8466    7.9911   14.5443 C   0  0  0  0  0  0  0  0  0  0  0  0
   15.6236    6.6551   13.6653 C   0  0  0  0  0  0  0  0  0  0  0  0
   14.4756    7.3881   13.4663 C   0  0  0  0  0  0  0  0  0  0  0  0
   12.3236    2.9451   20.1313 H   0  0  0  0  0  0  0  0  0  0  0  0
   10.2016    4.7831   19.4753 H   0  0  0  0  0  0  0  0  0  0  0  0
   12.3646    5.1521   21.3803 H   0  0  0  0  0  0  0  0  0  0  0  0
   12.0436    6.5441   18.8683 H   0  0  0  0  0  0  0  0  0  0  0  0
    9.1086    1.0591   17.8593 H   0  0  0  0  0  0  0  0  0  0  0  0
    9.8286    0.0601   19.9903 H   0  0  0  0  0  0  0  0  0  0  0  0
   10.7626    0.2561   16.4313 H   0  0  0  0  0  0  0  0  0  0  0  0
    9.8576   -2.4559   16.9343 H   0  0  0  0  0  0  0  0  0  0  0  0
   14.0076    4.4881   19.4873 H   0  0  0  0  0  0  0  0  0  0  0  0
   12.2836   -1.1569   17.8183 H   0  0  0  0  0  0  0  0  0  0  0  0
    9.3226    3.3131   20.9153 H   0  0  0  0  0  0  0  0  0  0  0  0
   11.1426    7.4661   20.7883 H   0  0  0  0  0  0  0  0  0  0  0  0
   13.5806    7.8921   19.4933 H   0  0  0  0  0  0  0  0  0  0  0  0
    8.3326   -1.6399   18.2743 H   0  0  0  0  0  0  0  0  0  0  0  0
    8.7606    0.6091   15.3693 H   0  0  0  0  0  0  0  0  0  0  0  0
   10.6036   -2.3569   14.8263 H   0  0  0  0  0  0  0  0  0  0  0  0
   11.8926    8.1351   14.3643 H   0  0  0  0  0  0  0  0  0  0  0  0
   14.3346    8.3251   11.7413 H   0  0  0  0  0  0  0  0  0  0  0  0
    9.8946    2.3021   19.3123 H   0  0  0  0  0  0  0  0  0  0  0  0
   10.7096    2.3951   17.8883 H   0  0  0  0  0  0  0  0  0  0  0  0
   11.7816   -3.8179   17.4663 H   0  0  0  0  0  0  0  0  0  0  0  0
   13.1396   -3.1669   18.1033 H   0  0  0  0  0  0  0  0  0  0  0  0
   11.8976   -3.5649   19.0783 H   0  0  0  0  0  0  0  0  0  0  0  0
   16.0966    4.9481   17.9883 H   0  0  0  0  0  0  0  0  0  0  0  0
   15.5716    5.9571   19.1593 H   0  0  0  0  0  0  0  0  0  0  0  0
   17.0956    6.8521   17.3223 H   0  0  0  0  0  0  0  0  0  0  0  0
   15.8536    7.7821   17.9143 H   0  0  0  0  0  0  0  0  0  0  0  0
   13.9196    8.2881   16.5883 H   0  0  0  0  0  0  0  0  0  0  0  0
   16.9786    5.9891   15.0743 H   0  0  0  0  0  0  0  0  0  0  0  0
   16.0796    6.2191   12.8893 H   0  0  0  0  0  0  0  0  0  0  0  0
  1 13  1  0
  1 21  1  0
  2 22  1  0
  3 18  1  0
  3 23  1  0
  5 25  1  0
 11 30  1  0
 12 32  1  0
 13 14  1  0
 13 22  1  0
 14  4  1  0
 14 15  1  0
 15  6  1  0
 15 16  1  0
 16  7  1  0
 16 21  1  0
 17  8  1  0
 17 18  1  0
 17 19  1  0
 18  2  1  0
 19  9  1  0
 19 20  1  0
 20 10  1  0
 20 23  1  0
 21  5  1  0
 23 24  1  0
 25 26  1  0
 26 27  1  0
 27 28  2  0
 27 29  1  0
 28 30  1  0
 29 31  2  0
 30 32  2  0
 31 32  1  0
  4 43  1  0
  6 44  1  0
  7 45  1  0
  8 46  1  0
  9 47  1  0
 10 48  1  0
 11 49  1  0
 12 50  1  0
 13 33  1  0
 14 34  1  0
 15 35  1  0
 16 36  1  0
 17 37  1  0
 18 38  1  0
 19 39  1  0
 20 40  1  0
 21 41  1  0
 22 51  1  0
 22 52  1  0
 23 42  1  0
 24 53  1  0
 24 54  1  0
 24 55  1  0
 25 56  1  0
 25 57  1  0
 26 58  1  0
 26 59  1  0
 28 60  1  0
 29 61  1  0
 31 62  1  0
M  END
>  <BioMolTech Lead Finder dG>
-5.592

>  <BioMolTech Lead Finder VSscore>
-12.338

>  <BioMolTech Lead Finder Rank score>
-9.329

>  <BioMolTech Lead Finder LE>
-0.175

>  <BioMolTech Lead Finder Structure Name>
/var/folders/xd/y7jw_xv579q2qqq7kks92xd80000gn/T/LeadFinder_6113_1/Ligand_1.sdf

>  <BioMolTech Lead Finder SDF id>
0

>  <BioMolTech Lead Finder Pose rank>
0

>  <BioMolTech Lead Finder version>
2001 1, 19 January 2019

>  <PUBCHEM_COMPOUND_CID>
69634125

>  <PUBCHEM_COMPOUND_CANONICALIZED>
1

>  <PUBCHEM_CACTVS_COMPLEXITY>
581

>  <PUBCHEM_CACTVS_HBOND_ACCEPTOR>
12

>  <PUBCHEM_CACTVS_HBOND_DONOR>
8

>  <PUBCHEM_CACTVS_ROTATABLE_BOND>
7

>  <PUBCHEM_CACTVS_SUBSKEYS>
AAADceB4PAAAAAAAAAAAAAAAAAAAAAAAAAA0SIAAAAAAAAABAAAAGgAACAAADBSwmAMyDoAABgCAAiBCAAACAAAgIAAIiAAGiIgZNiKCERKicAElwBEPmAfA4LwOIAABAAAAQABAAAIAAACAAAAAAAAAAA==

>  <PUBCHEM_IUPAC_OPENEYE_NAME>
(2R,3R,4R,5R,6S)-2-[[(2R,3S,4S,5R,6R)-6-[2-(3,4-dihydroxyphenyl)ethoxy]-3,4,5-trihydroxy-tetrahydropyran-2-yl]methoxy]-6-methyl-tetrahydropyran-3,4,5-triol

>  <PUBCHEM_IUPAC_CAS_NAME>
(2R,3R,4R,5R,6S)-2-[[(2R,3S,4S,5R,6R)-6-[2-(3,4-dihydroxyphenyl)ethoxy]-3,4,5-trihydroxy-2-oxanyl]methoxy]-6-methyloxane-3,4,5-triol

>  <PUBCHEM_IUPAC_NAME_MARKUP>
(2<I>R</I>,3<I>R</I>,4<I>R</I>,5<I>R</I>,6<I>S</I>)-2-[[(2<I>R</I>,3<I>S</I>,4<I>S</I>,5<I>R</I>,6<I>R</I>)-6-[2-(3,4-dihydroxyphenyl)ethoxy]-3,4,5-trihydroxyoxan-2-yl]methoxy]-6-methyloxane-3,4,5-tri

>  <PUBCHEM_IUPAC_NAME>
(2R,3R,4R,5R,6S)-2-[[(2R,3S,4S,5R,6R)-6-[2-(3,4-dihydroxyphenyl)ethoxy]-3,4,5-trihydroxyoxan-2-yl]methoxy]-6-methyloxane-3,4,5-triol

>  <PUBCHEM_IUPAC_SYSTEMATIC_NAME>
(2R,3R,4R,5R,6S)-2-[[(2R,3S,4S,5R,6R)-6-[2-[3,4-bis(oxidanyl)phenyl]ethoxy]-3,4,5-tris(oxidanyl)oxan-2-yl]methoxy]-6-methyl-oxane-3,4,5-triol

>  <PUBCHEM_IUPAC_TRADITIONAL_NAME>
(2R,3R,4R,5R,6S)-2-[[(2R,3S,4S,5R,6R)-6-[2-(3,4-dihydroxyphenyl)ethoxy]-3,4,5-trihydroxy-tetrahydropyran-2-yl]methoxy]-6-methyl-tetrahydropyran-3,4,5-triol

>  <PUBCHEM_IUPAC_INCHI>
InChI=1S/C20H30O12/c1-8-13(23)15(25)17(27)20(31-8)30-7-12-14(24)16(26)18(28)19(32-12)29-5-4-9-2-3-10(21)11(22)6-9/h2-3,6,8,12-28H,4-5,7H2,1H3/t8-,12+,13-,14+,15+,16-,17+,18+,19+,20+/m0/s1

>  <PUBCHEM_IUPAC_INCHIKEY>
QIMGUQIHCNDUKU-OJJLXHDHSA-N

>  <PUBCHEM_XLOGP3_AA>
-2.5

>  <PUBCHEM_EXACT_MASS>
462.173726

>  <PUBCHEM_MOLECULAR_FORMULA>
C20H30O12

>  <PUBCHEM_MOLECULAR_WEIGHT>
462.4

>  <PUBCHEM_OPENEYE_CAN_SMILES>
CC1C(C(C(C(O1)OCC2C(C(C(C(O2)OCCC3=CC(=C(C=C3)O)O)O)O)O)O)O)O

>  <PUBCHEM_OPENEYE_ISO_SMILES>
C[C@H]1[C@@H]([C@H]([C@H]([C@@H](O1)OC[C@@H]2[C@H]([C@@H]([C@H]([C@@H](O2)OCCC3=CC(=C(C=C3)O)O)O)O)O)O)O)O

>  <PUBCHEM_CACTVS_TPSA>
199

>  <PUBCHEM_MONOISOTOPIC_WEIGHT>
462.173726

>  <PUBCHEM_TOTAL_CHARGE>
0

>  <PUBCHEM_HEAVY_ATOM_COUNT>
32

>  <PUBCHEM_ATOM_DEF_STEREO_COUNT>
10

>  <PUBCHEM_ATOM_UDEF_STEREO_COUNT>
0

>  <PUBCHEM_BOND_DEF_STEREO_COUNT>
0

>  <PUBCHEM_BOND_UDEF_STEREO_COUNT>
0

>  <PUBCHEM_ISOTOPIC_ATOM_COUNT>
0

>  <PUBCHEM_COMPONENT_COUNT>
1

>  <PUBCHEM_CACTVS_TAUTO_COUNT>
-1

>  <PUBCHEM_COORDINATE_TYPE>
1
5
255

>  <PUBCHEM_BONDANNOTATIONS>
20  10  5
13  22  5
18  2  5
23  24  6
27  28  8
27  29  8
28  30  8
29  31  8
30  32  8
31  32  8
14  4  6
21  5  5
15  6  5
16  7  6
17  8  6
19  9  6

>  <LF dG>
-5.592

>  <LF VSscore>
-12.338

>  <LF Rank Score>
-9.329

>  <LF LE>
-0.175

>  <Preferred Pose_cresset>
true

>  <Favorite_cresset>
false

>  <Protein_cresset>
6Y2F_P

>  <MW_cresset>
462.4

>  <#Atoms_cresset>
32

>  <SlogP_cresset>
-0.4

>  <TPSA_cresset>
198.8

>  <Flexibility_cresset>
15.9

>  <#RB_cresset>
15

>  <Rof5_cresset>
2

>  <Filename_cresset>
Forsythoside E.sdf

>  <Confs_cresset>
0

>  <Poses_cresset>
10

>  <_cresset_fieldpoints>
    -5      13.613637       4.764114      16.117348    -13.4340
    -5      13.053638       0.358114      19.728348     -8.9075
    -5      11.578637      -1.878886      20.889347     -7.9755
    -5       9.877230       5.447717      22.323891    -20.5952
    -5      14.277637       6.931114      21.828346    -10.4770
    -5       6.376637      -0.060886      17.766346    -10.7655
    -5       7.426637      -0.827886      16.422346    -12.0720
    -5      13.137637      -2.025886      15.283346    -12.3855
    -5      12.926638      10.613113      14.165347     -7.8045
    -5      12.927637       6.038114      11.569347     -8.1075
    -5      16.490637       9.751114      14.699347     -3.1495
    -6       9.111637       2.378114      16.010347     11.6385
    -6       8.021637       3.144114      19.521347     11.5105
    -6       8.351637      -3.551886      18.184347      8.0915
    -6      11.853637       8.718114      19.526346     15.1820
    -6       9.449637      -3.628886      13.980347      6.3935
    -6      15.308638       9.534114      10.716347      7.6330
    -6      10.399637       7.364114      15.282347      8.0445
    -6      15.926638       3.789114      20.367348      3.0830
    -6      14.304637       3.430114      21.336348      3.0755
    -6      18.375637       5.015114      16.540346      3.3195
    -7      10.604637       1.640114      22.061348     -2.3750
    -7      13.170637       1.178114      17.219347     -2.8395
    -7       9.137637      -3.135886      19.696346     -2.4075
    -7       7.682637       1.744114      20.332346     -1.9415
    -7       7.766637       3.511114      18.974346     -1.8550
    -7       8.769637       5.817114      22.115347     -1.4715
    -7       9.492638       7.361114      19.146347     -1.7565
    -7      12.935637       8.320114      21.969347     -1.6340
    -7       8.122637       3.669114      17.983347     -1.8540
    -7      15.030638       5.820114      21.690346     -2.1395
    -7      15.587637       8.156114      20.557346     -1.9950
    -7      14.322638       9.740114      18.568346     -1.8765
    -7       7.202637      -1.878886      16.238346     -1.9200
    -7      10.635637      -0.450886      13.560347     -1.5115
    -7       9.359637       2.792114      15.803347     -1.9300
    -7      10.819637      -4.618886      15.210346     -1.5415
    -7       8.137637      -2.403886      14.765347     -1.5185
    -7      13.196637      -0.535886      15.371346     -1.8315
    -7      11.892637       8.922113      11.980347     -1.5105
    -7      13.163637       4.647114      15.732347     -3.2000
    -7      16.875637       9.892114      14.521347     -1.8250
    -7      12.174637       9.008114      18.084347     -1.9770
    -7      14.277637       3.459114      21.800346     -1.9265
    -7      18.319637       4.524114      16.590347     -1.7370
    -7      15.306637       6.730114      10.260347     -1.2555
    -7      12.824637       3.086114      16.217346     -2.3390
    -8      12.083637       4.864114      19.882347      5.1565
    -8      10.474637      -0.750886      17.504347      4.8850
    -8      10.709637       3.343114      19.365347      4.3525
    -8      11.529637      -2.595886      17.602346      4.4565
    -8      15.042637       7.232114      14.776346      6.9155
    -8       9.892637       1.089114      18.400347      3.7075

$$$$
Lopinavir_D
  xed2sdf_05210316543D
 
 94 97  0  0  1  0  0  0  0  0999 V2000
    8.6396   -0.0577   21.5653 O   0  0  0  0  0  0  0  0  0  0  0  0
   12.8586    2.1043   23.3783 O   0  0  0  0  0  0  0  0  0  0  0  0
   14.9646    5.0433   22.1623 O   0  0  0  0  0  0  0  0  0  0  0  0
   11.8136   -1.6557   22.9703 O   0  0  0  0  0  0  0  0  0  0  0  0
   11.5786   -4.5457   22.0693 O   0  0  0  0  0  0  0  0  0  0  0  0
   12.7816    5.3883   22.6423 N   0  0  0  0  0  0  0  0  0  0  0  0
   10.8846    3.2343   23.3943 N   0  0  0  0  0  0  0  0  0  0  0  0
   10.6676   -1.5757   21.0003 N   0  0  0  0  0  0  0  0  0  0  0  0
   13.7746    6.2353   20.6923 N   0  0  0  0  0  0  0  0  0  0  0  0
   10.0956    2.0663   22.9793 C   0  0  0  0  0  0  0  0  0  0  0  0
   12.8456    4.4863   23.8123 C   0  0  0  0  0  0  0  0  0  0  0  0
    9.8966    2.0443   21.4453 C   0  0  0  0  0  0  0  0  0  0  0  0
    9.6326    0.6573   20.8163 C   0  0  0  0  0  0  0  0  0  0  0  0
   12.4506    5.0173   25.2133 C   0  0  0  0  0  0  0  0  0  0  0  0
   10.9486   -0.1517   20.7683 C   0  0  0  0  0  0  0  0  0  0  0  0
    8.7906    1.9543   23.7993 C   0  0  0  0  0  0  0  0  0  0  0  0
   12.2186    3.1383   23.5143 C   0  0  0  0  0  0  0  0  0  0  0  0
   11.5186    6.0843   22.3453 C   0  0  0  0  0  0  0  0  0  0  0  0
   11.2986    6.0843   20.8303 C   0  0  0  0  0  0  0  0  0  0  0  0
   11.6686   -0.0117   19.4103 C   0  0  0  0  0  0  0  0  0  0  0  0
   13.8766    5.5403   21.8513 C   0  0  0  0  0  0  0  0  0  0  0  0
   12.7096    6.5213   25.4073 C   0  0  0  0  0  0  0  0  0  0  0  0
   13.1846    4.2423   26.3193 C   0  0  0  0  0  0  0  0  0  0  0  0
   12.5036    6.8113   20.2243 C   0  0  0  0  0  0  0  0  0  0  0  0
    8.5876    0.6643   24.5823 C   0  0  0  0  0  0  0  0  0  0  0  0
   10.8216   -0.3037   18.1813 C   0  0  0  0  0  0  0  0  0  0  0  0
   11.0916   -2.1687   22.1263 C   0  0  0  0  0  0  0  0  0  0  0  0
    7.3156    0.2893   24.9593 C   0  0  0  0  0  0  0  0  0  0  0  0
    9.6546   -0.1357   24.9313 C   0  0  0  0  0  0  0  0  0  0  0  0
   10.8006   -1.5677   17.6323 C   0  0  0  0  0  0  0  0  0  0  0  0
   10.0656    0.6973   17.6113 C   0  0  0  0  0  0  0  0  0  0  0  0
   10.5386   -3.5657   22.2693 C   0  0  0  0  0  0  0  0  0  0  0  0
    7.1096   -0.8727   25.6663 C   0  0  0  0  0  0  0  0  0  0  0  0
    9.4516   -1.2987   25.6383 C   0  0  0  0  0  0  0  0  0  0  0  0
    8.1786   -1.6687   26.0063 C   0  0  0  0  0  0  0  0  0  0  0  0
   10.0306   -1.8277   16.5223 C   0  0  0  0  0  0  0  0  0  0  0  0
    9.2956    0.4373   16.5003 C   0  0  0  0  0  0  0  0  0  0  0  0
    9.2776   -0.8257   15.9553 C   0  0  0  0  0  0  0  0  0  0  0  0
   11.2486   -5.6537   21.3913 C   0  0  0  0  0  0  0  0  0  0  0  0
   10.7026   -6.7617   22.0313 C   0  0  0  0  0  0  0  0  0  0  0  0
   11.4686   -5.7057   20.0203 C   0  0  0  0  0  0  0  0  0  0  0  0
   10.3696   -7.8787   21.3013 C   0  0  0  0  0  0  0  0  0  0  0  0
   11.1326   -6.8327   19.3073 C   0  0  0  0  0  0  0  0  0  0  0  0
   10.4336   -6.8467   23.5263 C   0  0  0  0  0  0  0  0  0  0  0  0
   12.0756   -4.5407   19.2553 C   0  0  0  0  0  0  0  0  0  0  0  0
   10.5806   -7.9187   19.9433 C   0  0  0  0  0  0  0  0  0  0  0  0
   10.6086    1.2343   23.1883 H   0  0  0  0  0  0  0  0  0  0  0  0
   13.8346    4.3973   23.9283 H   0  0  0  0  0  0  0  0  0  0  0  0
    9.2906    0.7853   19.8853 H   0  0  0  0  0  0  0  0  0  0  0  0
   11.5446    0.2153   21.4833 H   0  0  0  0  0  0  0  0  0  0  0  0
    7.7736    0.4523   21.6063 H   0  0  0  0  0  0  0  0  0  0  0  0
   10.4796    3.9993   23.5553 H   0  0  0  0  0  0  0  0  0  0  0  0
   10.1976   -2.0267   20.4073 H   0  0  0  0  0  0  0  0  0  0  0  0
   14.4986    6.3503   20.2033 H   0  0  0  0  0  0  0  0  0  0  0  0
   10.7206    2.4233   21.0233 H   0  0  0  0  0  0  0  0  0  0  0  0
    9.0696    2.5793   21.2733 H   0  0  0  0  0  0  0  0  0  0  0  0
   11.4626    4.8733   25.2773 H   0  0  0  0  0  0  0  0  0  0  0  0
    8.0226    2.0523   23.1653 H   0  0  0  0  0  0  0  0  0  0  0  0
    8.8506    2.6753   24.4903 H   0  0  0  0  0  0  0  0  0  0  0  0
   11.5656    7.0253   22.6803 H   0  0  0  0  0  0  0  0  0  0  0  0
   10.7586    5.6183   22.7983 H   0  0  0  0  0  0  0  0  0  0  0  0
   10.4506    6.5623   20.6013 H   0  0  0  0  0  0  0  0  0  0  0  0
   11.2186    5.1533   20.4743 H   0  0  0  0  0  0  0  0  0  0  0  0
   12.4466   -0.6407   19.4073 H   0  0  0  0  0  0  0  0  0  0  0  0
   11.9286    0.9513   19.3383 H   0  0  0  0  0  0  0  0  0  0  0  0
   13.2966    6.6503   26.2073 H   0  0  0  0  0  0  0  0  0  0  0  0
   13.1606    6.8933   24.5953 H   0  0  0  0  0  0  0  0  0  0  0  0
   11.8416    6.9983   25.5443 H   0  0  0  0  0  0  0  0  0  0  0  0
   13.6616    4.8923   26.9103 H   0  0  0  0  0  0  0  0  0  0  0  0
   12.5256    3.7173   26.8593 H   0  0  0  0  0  0  0  0  0  0  0  0
   13.8436    3.6123   25.9083 H   0  0  0  0  0  0  0  0  0  0  0  0
   12.4616    6.7403   19.2273 H   0  0  0  0  0  0  0  0  0  0  0  0
   12.4686    7.7683   20.5133 H   0  0  0  0  0  0  0  0  0  0  0  0
    6.5366    0.8673   24.7163 H   0  0  0  0  0  0  0  0  0  0  0  0
   10.5816    0.1313   24.6703 H   0  0  0  0  0  0  0  0  0  0  0  0
   11.3466   -2.2977   18.0423 H   0  0  0  0  0  0  0  0  0  0  0  0
   10.0766    1.6153   18.0053 H   0  0  0  0  0  0  0  0  0  0  0  0
   10.1526   -3.6777   23.1843 H   0  0  0  0  0  0  0  0  0  0  0  0
    9.8296   -3.7027   21.5783 H   0  0  0  0  0  0  0  0  0  0  0  0
    6.1836   -1.1377   25.9343 H   0  0  0  0  0  0  0  0  0  0  0  0
   10.2306   -1.8757   25.8843 H   0  0  0  0  0  0  0  0  0  0  0  0
    8.0316   -2.5147   26.5183 H   0  0  0  0  0  0  0  0  0  0  0  0
   10.0186   -2.7467   16.1263 H   0  0  0  0  0  0  0  0  0  0  0  0
    8.7486    1.1673   16.0893 H   0  0  0  0  0  0  0  0  0  0  0  0
    8.7176   -1.0147   15.1483 H   0  0  0  0  0  0  0  0  0  0  0  0
    9.9696   -8.6697   21.7643 H   0  0  0  0  0  0  0  0  0  0  0  0
   11.2896   -6.8617   18.3203 H   0  0  0  0  0  0  0  0  0  0  0  0
   10.0416   -7.7427   23.7363 H   0  0  0  0  0  0  0  0  0  0  0  0
   11.2886   -6.7267   24.0313 H   0  0  0  0  0  0  0  0  0  0  0  0
    9.7936   -6.1267   23.7953 H   0  0  0  0  0  0  0  0  0  0  0  0
   12.1426   -4.7867   18.2883 H   0  0  0  0  0  0  0  0  0  0  0  0
   11.4986   -3.7307   19.3573 H   0  0  0  0  0  0  0  0  0  0  0  0
   12.9866   -4.3387   19.6163 H   0  0  0  0  0  0  0  0  0  0  0  0
   10.3336   -8.7347   19.4213 H   0  0  0  0  0  0  0  0  0  0  0  0
  2 17  2  0
  3 21  2  0
  4 27  2  0
  5 32  1  0
  5 39  1  0
  6 11  1  0
  6 18  1  0
  6 21  1  0
  7 17  1  0
  8 27  1  0
  9 21  1  0
  9 24  1  0
 10  7  1  0
 10 12  1  0
 10 16  1  0
 11 14  1  0
 11 17  1  0
 12 13  1  0
 13  1  1  0
 13 15  1  0
 14 22  1  0
 14 23  1  0
 15  8  1  0
 15 20  1  0
 16 25  1  0
 18 19  1  0
 19 24  1  0
 20 26  1  0
 25 28  2  0
 25 29  1  0
 26 30  2  0
 26 31  1  0
 27 32  1  0
 28 33  1  0
 29 34  2  0
 30 36  1  0
 31 37  2  0
 33 35  2  0
 34 35  1  0
 36 38  2  0
 37 38  1  0
 39 40  2  0
 39 41  1  0
 40 42  1  0
 40 44  1  0
 41 43  2  0
 41 45  1  0
 42 46  2  0
 43 46  1  0
  1 51  1  0
  7 52  1  0
  8 53  1  0
  9 54  1  0
 10 47  1  0
 11 48  1  0
 12 55  1  0
 12 56  1  0
 13 49  1  0
 14 57  1  0
 15 50  1  0
 16 58  1  0
 16 59  1  0
 18 60  1  0
 18 61  1  0
 19 62  1  0
 19 63  1  0
 20 64  1  0
 20 65  1  0
 22 66  1  0
 22 67  1  0
 22 68  1  0
 23 69  1  0
 23 70  1  0
 23 71  1  0
 24 72  1  0
 24 73  1  0
 28 74  1  0
 29 75  1  0
 30 76  1  0
 31 77  1  0
 32 78  1  0
 32 79  1  0
 33 80  1  0
 34 81  1  0
 35 82  1  0
 36 83  1  0
 37 84  1  0
 38 85  1  0
 42 86  1  0
 43 87  1  0
 44 88  1  0
 44 89  1  0
 44 90  1  0
 45 91  1  0
 45 92  1  0
 45 93  1  0
 46 94  1  0
M  END
>  <BioMolTech Lead Finder dG>
-9.124

>  <BioMolTech Lead Finder VSscore>
-10.898

>  <BioMolTech Lead Finder Rank score>
-12.617

>  <BioMolTech Lead Finder LE>
-0.198

>  <BioMolTech Lead Finder Structure Name>
/var/folders/xd/y7jw_xv579q2qqq7kks92xd80000gn/T/LeadFinder_5346_1/Ligand_1.sdf

>  <BioMolTech Lead Finder SDF id>
0

>  <BioMolTech Lead Finder Pose rank>
0

>  <BioMolTech Lead Finder version>
2001 1, 19 January 2019

>  <PUBCHEM_COMPOUND_CID>
92727

>  <PUBCHEM_COMPOUND_CANONICALIZED>
1

>  <PUBCHEM_CACTVS_COMPLEXITY>
940

>  <PUBCHEM_CACTVS_HBOND_ACCEPTOR>
5

>  <PUBCHEM_CACTVS_HBOND_DONOR>
4

>  <PUBCHEM_CACTVS_ROTATABLE_BOND>
15

>  <PUBCHEM_CACTVS_SUBSKEYS>
AAADcfB/uAAAAAAAAAAAAAAAAAAAAAAAAAA8YMEAAAAAAAABUAAAHgAQCAAADTzhmAYzBoPABgCIAiFSEAICCAAgIAAIiIHMCIiOdjKE8T+XeCCu1hOYqAeQwPAOAAACAAAIAAAAAAQAABAAAAAAAAAAAA==

>  <PUBCHEM_IUPAC_OPENEYE_NAME>
(2S)-N-[(1S,3S,4S)-1-benzyl-4-[[2-(2,6-dimethylphenoxy)acetyl]amino]-3-hydroxy-5-phenyl-pentyl]-3-methyl-2-(2-oxohexahydropyrimidin-1-yl)butanamide

>  <PUBCHEM_IUPAC_CAS_NAME>
(2S)-N-[(2S,4S,5S)-5-[[2-(2,6-dimethylphenoxy)-1-oxoethyl]amino]-4-hydroxy-1,6-diphenylhexan-2-yl]-3-methyl-2-(2-oxo-1,3-diazinan-1-yl)butanamide

>  <PUBCHEM_IUPAC_NAME_MARKUP>
(2<I>S</I>)-<I>N</I>-[(2<I>S</I>,4<I>S</I>,5<I>S</I>)-5-[[2-(2,6-dimethylphenoxy)acetyl]amino]-4-hydroxy-1,6-diphenylhexan-2-yl]-3-methyl-2-(2-oxo-1,3-diazinan-1-yl)butanamide

>  <PUBCHEM_IUPAC_NAME>
(2S)-N-[(2S,4S,5S)-5-[[2-(2,6-dimethylphenoxy)acetyl]amino]-4-hydroxy-1,6-diphenylhexan-2-yl]-3-methyl-2-(2-oxo-1,3-diazinan-1-yl)butanamide

>  <PUBCHEM_IUPAC_SYSTEMATIC_NAME>
(2S)-N-[(2S,4S,5S)-5-[2-(2,6-dimethylphenoxy)ethanoylamino]-4-oxidanyl-1,6-diphenyl-hexan-2-yl]-3-methyl-2-(2-oxidanylidene-1,3-diazinan-1-yl)butanamide

>  <PUBCHEM_IUPAC_TRADITIONAL_NAME>
(2S)-N-[(1S,3S,4S)-1-benzyl-4-[[2-(2,6-dimethylphenoxy)acetyl]amino]-3-hydroxy-5-phenyl-pentyl]-2-(2-ketohexahydropyrimidin-1-yl)-3-methyl-butyramide

>  <PUBCHEM_IUPAC_INCHI>
InChI=1S/C37H48N4O5/c1-25(2)34(41-20-12-19-38-37(41)45)36(44)39-30(21-28-15-7-5-8-16-28)23-32(42)31(22-29-17-9-6-10-18-29)40-33(43)24-46-35-26(3)13-11-14-27(35)4/h5-11,13-18,25,30-32,34,42H,12,19-24H2

>  <PUBCHEM_IUPAC_INCHIKEY>
KJHKTHWMRKYKJE-SUGCFTRWSA-N

>  <PUBCHEM_XLOGP3_AA>
5.9

>  <PUBCHEM_EXACT_MASS>
628.362471

>  <PUBCHEM_MOLECULAR_FORMULA>
C37H48N4O5

>  <PUBCHEM_MOLECULAR_WEIGHT>
628.8

>  <PUBCHEM_OPENEYE_CAN_SMILES>
CC1=C(C(=CC=C1)C)OCC(=O)NC(CC2=CC=CC=C2)C(CC(CC3=CC=CC=C3)NC(=O)C(C(C)C)N4CCCNC4=O)O

>  <PUBCHEM_OPENEYE_ISO_SMILES>
CC1=C(C(=CC=C1)C)OCC(=O)N[C@@H](CC2=CC=CC=C2)[C@H](C[C@H](CC3=CC=CC=C3)NC(=O)[C@H](C(C)C)N4CCCNC4=O)O

>  <PUBCHEM_CACTVS_TPSA>
120

>  <PUBCHEM_MONOISOTOPIC_WEIGHT>
628.362471

>  <PUBCHEM_TOTAL_CHARGE>
0

>  <PUBCHEM_HEAVY_ATOM_COUNT>
46

>  <PUBCHEM_ATOM_DEF_STEREO_COUNT>
4

>  <PUBCHEM_ATOM_UDEF_STEREO_COUNT>
0

>  <PUBCHEM_BOND_DEF_STEREO_COUNT>
0

>  <PUBCHEM_BOND_UDEF_STEREO_COUNT>
0

>  <PUBCHEM_ISOTOPIC_ATOM_COUNT>
0

>  <PUBCHEM_COMPONENT_COUNT>
1

>  <PUBCHEM_CACTVS_TAUTO_COUNT>
-1

>  <PUBCHEM_COORDINATE_TYPE>
1
5
255

>  <PUBCHEM_BONDANNOTATIONS>
13  1  6
11  17  5
25  28  8
25  29  8
26  30  8
26  31  8
28  33  8
29  34  8
30  36  8
31  37  8
33  35  8
34  35  8
36  38  8
37  38  8
39  40  8
39  41  8
40  42  8
41  43  8
42  46  8
43  46  8
10  7  6
15  8  5

>  <LF dG>
-9.124

>  <LF VSscore>
-10.898

>  <LF Rank Score>
-12.617

>  <LF LE>
-0.198

>  <Preferred Pose_cresset>
true

>  <Favorite_cresset>
false

>  <Protein_cresset>
6Y2F_P

>  <MW_cresset>
628.8

>  <#Atoms_cresset>
46

>  <SlogP_cresset>
4.7

>  <TPSA_cresset>
120

>  <Flexibility_cresset>
16.1

>  <#RB_cresset>
16

>  <Rof5_cresset>
1

>  <Filename_cresset>
Lopinavir.sdf

>  <Confs_cresset>
0

>  <Poses_cresset>
10

>  <_cresset_fieldpoints>
    -5       8.659668      -1.488184      22.641296    -15.4010
    -5      12.689708       0.001578      23.361042    -25.4886
    -5      15.193409       3.182771      22.551289    -19.8455
    -5      12.754519      -2.321822      24.285568    -18.8586
    -5      14.658747       2.148898      23.014687    -20.0848
    -5      12.268565       0.094278      15.419312     -3.6545
    -5       8.124565      -6.163722      20.062313     -2.5770
    -5       8.884565       0.856278      27.714314     -4.3795
    -6       9.130566      -3.368722      19.557312      6.7650
    -6       8.023565      -4.658722      23.044313      3.0820
    -6      14.984566       7.198278      18.534313      4.9985
    -6       9.865565       3.500278      18.989313      7.5630
    -6      13.666565      -2.433722      18.053312      2.4360
    -6      10.371565       8.750278      21.619312      5.6285
    -6       6.787565       2.039278      21.267313     12.2370
    -6       9.168565       5.255278      24.160313     11.6610
    -6       9.069565      -9.913721      23.194313      2.7775
    -6       9.075565      -4.596722      25.313313      2.7885
    -6      10.672565      -4.824722      16.482313      4.3090
    -7       9.811565       3.827278      18.817312     -2.7190
    -7       6.511565       2.168278      21.108313     -2.0920
    -7      12.870565      -0.010722      24.059313     -3.1490
    -7      15.732565       6.058278      24.292313     -2.3740
    -7      13.985565       8.346278      22.699312     -2.5005
    -7      13.661565      -2.283722      20.994312     -3.0535
    -7      11.426565      -4.159722      25.299313     -2.4810
    -7       8.376565       4.883278      22.278313     -2.8800
    -7      11.756565       3.386278      18.833313     -3.1355
    -7      10.275565       2.759278      26.553312     -3.1405
    -7       9.024565       5.421278      24.834312     -2.5995
    -7      10.482565       9.225279      21.642313     -1.4610
    -7      12.705565       0.276278      15.397312     -1.8415
    -7      13.931565      -7.730722      21.327312     -1.9955
    -7       9.272565       2.916278      27.039312     -2.2205
    -7       9.247565       4.407278      26.176311     -2.2730
    -7      15.131565       2.144278      24.135313     -1.8645
    -7       5.847565       1.348278      22.105312     -2.0050
    -7       8.831565      -3.776722      19.201313     -3.5625
    -7       6.151565       3.453278      24.859312     -1.5165
    -7      12.528565       1.177278      25.605312     -3.0865
    -7      13.993565      -2.237722      18.099312     -2.1790
    -7       7.084565       0.832278      13.954313     -0.9700
    -7      13.039565       3.024278      20.671312     -4.1080
    -7       7.950565      -3.671722      14.616312     -0.9820
    -7       7.927565      -1.631722      19.494312     -3.4090
    -7       7.872565      -1.969722      22.420313     -3.9910
    -7       9.217566     -10.973722      20.656313     -1.0055
    -7       7.821565      -4.306722      23.931313     -2.3895
    -8      10.048565      -0.564722      17.077312      7.2145
    -8       9.329565       1.820278      22.587313      5.2050
    -8       8.384565      -0.498722      25.295313      7.1935
    -8      12.923565       5.110278      25.337313      5.9115
    -8       9.410565       1.094278      24.049313      5.7805
    -8      11.580565       6.562278      21.130312      4.9560
    -8      10.639565       0.277278      19.369312      5.7915
    -8      10.786565      -0.272722      18.237312      5.7860
    -8       8.603565       0.657278      24.589314      5.7195
    -8      10.614565      -6.935722      22.078312      5.4815
    -8      10.010565      -2.970722      22.409313      2.8925
    -8      10.905565      -6.812722      20.652313      7.0775

$$$$
DAR_D
  xed2sdf_05210316543D
 
 82 86  0  0  1  0  0  0  0  0999 V2000
    8.8693   -2.1596   15.5589 O   0  0  0  0  0  0  0  0  0  0  0  0
    9.3743   -1.3636   16.3319 C   0  0  0  0  0  0  0  0  0  0  0  0
    8.8933    0.0684   16.4189 C   0  0  0  0  0  0  0  0  0  0  0  0
    9.1103    0.6754   17.8069 C   0  0  0  0  0  0  0  0  0  0  0  0
   10.6083    0.5344   18.0939 C   0  0  0  0  0  0  0  0  0  0  0  0
   10.9343    1.1714   19.3789 N   0  0  0  0  0  0  0  0  0  0  0  0
   10.5543    0.5834   20.6749 C   0  0  0  0  0  0  0  0  0  0  0  0
   10.5243    1.9444   21.3929 C   0  0  0  0  0  0  0  0  0  0  0  0
   10.3753    2.1164   22.8899 C   0  0  0  0  0  0  0  0  0  0  0  0
    9.8143    1.0504   23.5309 N   0  0  0  0  0  0  0  0  0  0  0  0
    8.3613    1.0294   23.7459 C   0  0  0  0  0  0  0  0  0  0  0  0
    8.0323    0.9674   25.2469 C   0  0  0  0  0  0  0  0  0  0  0  0
    8.8443   -0.1596   25.8989 C   0  0  0  0  0  0  0  0  0  0  0  0
    7.9493   -1.3916   26.0969 C   0  0  0  0  0  0  0  0  0  0  0  0
    8.5453   -2.5616   25.3009 C   0  0  0  0  0  0  0  0  0  0  0  0
    7.4483   -3.2866   24.5039 C   0  0  0  0  0  0  0  0  0  0  0  0
    7.9123   -4.6676   24.3059 N   0  0  0  0  0  0  0  0  0  0  0  0
    7.7993   -5.5726   25.3029 C   0  0  0  0  0  0  0  0  0  0  0  0
    7.1863   -5.3476   26.3449 O   0  0  0  0  0  0  0  0  0  0  0  0
    8.4623   -6.8996   25.1809 C   0  0  0  0  0  0  0  0  0  0  0  0
    8.2573   -7.8836   26.1289 C   0  0  0  0  0  0  0  0  0  0  0  0
    8.8413   -9.1176   25.9959 C   0  0  0  0  0  0  0  0  0  0  0  0
    9.6353   -9.4626   24.9629 N   0  0  0  0  0  0  0  0  0  0  0  0
    9.8333   -8.5016   24.0459 C   0  0  0  0  0  0  0  0  0  0  0  0
    9.2853   -7.2326   24.1089 C   0  0  0  0  0  0  0  0  0  0  0  0
    9.5733   -6.2976   23.1089 N   0  0  0  0  0  0  0  0  0  0  0  0
   10.7533   -5.6656   22.9479 C   0  0  0  0  0  0  0  0  0  0  0  0
   11.7663   -5.9146   23.5859 O   0  0  0  0  0  0  0  0  0  0  0  0
   10.7193   -4.5996   21.8719 C   0  0  0  0  0  0  0  0  0  0  0  0
   11.2763   -5.1726   20.5809 C   0  0  0  0  0  0  0  0  0  0  0  0
   11.1673   -6.5196   20.3179 C   0  0  0  0  0  0  0  0  0  0  0  0
   11.6623   -7.0366   19.1419 C   0  0  0  0  0  0  0  0  0  0  0  0
   12.2673   -6.2076   18.2259 C   0  0  0  0  0  0  0  0  0  0  0  0
   12.3783   -4.8596   18.4859 C   0  0  0  0  0  0  0  0  0  0  0  0
   13.1433   -3.8086   17.3299 Cl  0  0  0  0  0  0  0  0  0  0  0  0
   11.8813   -4.3446   19.6629 C   0  0  0  0  0  0  0  0  0  0  0  0
   10.7683    3.2634   23.4679 C   0  0  0  0  0  0  0  0  0  0  0  0
   11.3423    4.3314   22.6499 C   0  0  0  0  0  0  0  0  0  0  0  0
   11.8283    4.0484   21.4429 C   0  0  0  0  0  0  0  0  0  0  0  0
   11.7943    2.6434   20.8989 C   0  0  0  0  0  0  0  0  0  0  0  0
   11.6003    2.3354   19.4439 C   0  0  0  0  0  0  0  0  0  0  0  0
   11.9803    3.0174   18.5019 O   0  0  0  0  0  0  0  0  0  0  0  0
   11.0443   -0.9146   18.0549 C   0  0  0  0  0  0  0  0  0  0  0  0
   11.9303   -1.3376   18.7779 O   0  0  0  0  0  0  0  0  0  0  0  0
   10.3843   -1.6926   17.1689 N   0  0  0  0  0  0  0  0  0  0  0  0
   11.1183    1.0054   17.3739 H   0  0  0  0  0  0  0  0  0  0  0  0
    9.6293    2.3204   21.1549 H   0  0  0  0  0  0  0  0  0  0  0  0
   12.7163    2.3774   21.1819 H   0  0  0  0  0  0  0  0  0  0  0  0
    7.9173    0.0934   16.2039 H   0  0  0  0  0  0  0  0  0  0  0  0
    9.4253    0.6074   15.7669 H   0  0  0  0  0  0  0  0  0  0  0  0
    8.5733    0.1824   18.4919 H   0  0  0  0  0  0  0  0  0  0  0  0
    8.8183    1.6314   17.8409 H   0  0  0  0  0  0  0  0  0  0  0  0
   11.2393   -0.0456   21.0419 H   0  0  0  0  0  0  0  0  0  0  0  0
    9.7393    0.0054   20.7159 H   0  0  0  0  0  0  0  0  0  0  0  0
   10.3183    0.5764   24.0749 H   0  0  0  0  0  0  0  0  0  0  0  0
    7.9713    0.2294   23.2889 H   0  0  0  0  0  0  0  0  0  0  0  0
    7.9683    1.8684   23.3679 H   0  0  0  0  0  0  0  0  0  0  0  0
    7.0553    0.7924   25.3689 H   0  0  0  0  0  0  0  0  0  0  0  0
    8.2663    1.8394   25.6769 H   0  0  0  0  0  0  0  0  0  0  0  0
    9.1913    0.1484   26.7849 H   0  0  0  0  0  0  0  0  0  0  0  0
    9.6133   -0.4006   25.3069 H   0  0  0  0  0  0  0  0  0  0  0  0
    7.0253   -1.1956   25.7709 H   0  0  0  0  0  0  0  0  0  0  0  0
    7.9033   -1.6286   27.0679 H   0  0  0  0  0  0  0  0  0  0  0  0
    8.9753   -3.2066   25.9329 H   0  0  0  0  0  0  0  0  0  0  0  0
    9.2243   -2.2036   24.6609 H   0  0  0  0  0  0  0  0  0  0  0  0
    7.3083   -2.8376   23.6219 H   0  0  0  0  0  0  0  0  0  0  0  0
    6.5773   -3.2676   24.9939 H   0  0  0  0  0  0  0  0  0  0  0  0
    8.2893   -4.8886   23.5419 H   0  0  0  0  0  0  0  0  0  0  0  0
    7.6763   -7.6946   26.9209 H   0  0  0  0  0  0  0  0  0  0  0  0
    8.6693   -9.8006   26.7059 H   0  0  0  0  0  0  0  0  0  0  0  0
   10.4173   -8.7186   23.2629 H   0  0  0  0  0  0  0  0  0  0  0  0
    8.9263   -6.1076   22.5459 H   0  0  0  0  0  0  0  0  0  0  0  0
   11.2703   -3.8156   22.1579 H   0  0  0  0  0  0  0  0  0  0  0  0
    9.7753   -4.3016   21.7259 H   0  0  0  0  0  0  0  0  0  0  0  0
   10.7273   -7.1236   20.9829 H   0  0  0  0  0  0  0  0  0  0  0  0
   11.5823   -8.0156   18.9539 H   0  0  0  0  0  0  0  0  0  0  0  0
   12.6273   -6.5836   17.3719 H   0  0  0  0  0  0  0  0  0  0  0  0
   11.9603   -3.3656   19.8509 H   0  0  0  0  0  0  0  0  0  0  0  0
   10.6673    3.3874   24.4549 H   0  0  0  0  0  0  0  0  0  0  0  0
   11.3703    5.2694   22.9949 H   0  0  0  0  0  0  0  0  0  0  0  0
   12.2213    4.7814   20.8869 H   0  0  0  0  0  0  0  0  0  0  0  0
   10.6433   -2.5336   17.1379 H   0  0  0  0  0  0  0  0  0  0  0  0
  1  2  2  0
  2  3  1  0
  2 45  1  0
  3  4  1  0
  4  5  1  0
  5  6  1  0
  5 43  1  0
  6  7  1  0
  6 41  1  0
  7  8  1  0
  8  9  1  0
  8 40  1  0
  9 10  1  0
  9 37  2  0
 10 11  1  0
 11 12  1  0
 12 13  1  0
 13 14  1  0
 14 15  1  0
 15 16  1  0
 16 17  1  0
 17 18  1  0
 18 19  2  0
 18 20  1  0
 20 21  2  0
 20 25  1  0
 21 22  1  0
 22 23  2  0
 23 24  1  0
 24 25  2  0
 25 26  1  0
 26 27  1  0
 27 28  2  0
 27 29  1  0
 29 30  1  0
 30 31  2  0
 30 36  1  0
 31 32  1  0
 32 33  2  0
 33 34  1  0
 34 35  1  0
 34 36  2  0
 37 38  1  0
 38 39  2  0
 39 40  1  0
 40 41  1  0
 41 42  2  0
 43 44  2  0
 43 45  1  0
  3 49  1  0
  3 50  1  0
  4 51  1  0
  4 52  1  0
  5 46  1  0
  7 53  1  0
  7 54  1  0
  8 47  1  0
 10 55  1  0
 11 56  1  0
 11 57  1  0
 12 58  1  0
 12 59  1  0
 13 60  1  0
 13 61  1  0
 14 62  1  0
 14 63  1  0
 15 64  1  0
 15 65  1  0
 16 66  1  0
 16 67  1  0
 17 68  1  0
 21 69  1  0
 22 70  1  0
 24 71  1  0
 26 72  1  0
 29 73  1  0
 29 74  1  0
 31 75  1  0
 32 76  1  0
 33 77  1  0
 36 78  1  0
 37 79  1  0
 38 80  1  0
 39 81  1  0
 40 48  1  0
 45 82  1  0
M  END
>  <BioMolTech Lead Finder dG>
-10.089

>  <BioMolTech Lead Finder VSscore>
-11.556

>  <BioMolTech Lead Finder Rank score>
-4.601

>  <BioMolTech Lead Finder LE>
-0.224

>  <BioMolTech Lead Finder Structure Name>
/var/folders/xd/y7jw_xv579q2qqq7kks92xd80000gn/T/LeadFinder_37237_1/Ligand_1.sdf

>  <BioMolTech Lead Finder SDF id>
0

>  <BioMolTech Lead Finder Pose rank>
0

>  <BioMolTech Lead Finder version>
2001 1, 19 January 2019

>  <LF dG>
-10.089

>  <LF VSscore>
-11.556

>  <LF Rank Score>
-4.601

>  <LF LE>
-0.224

>  <Preferred Pose_cresset>
true

>  <Favorite_cresset>
false

>  <Protein_cresset>
6Y2F_P

>  <MW_cresset>
633.1

>  <#Atoms_cresset>
45

>  <SlogP_cresset>
2.9

>  <TPSA_cresset>
149.6

>  <Flexibility_cresset>
10.4

>  <#RB_cresset>
13

>  <Rof5_cresset>
2

>  <Filename_cresset>
DAR-DIA-9e4459de-1.mol

>  <Confs_cresset>
0

>  <Poses_cresset>
10

>  <_cresset_fieldpoints>
    -5       7.616267      -2.325575      14.237917    -13.0625
    -5      12.879713       4.516952      18.392220    -16.8231
    -5       6.454267      -5.324574      28.112917    -13.0315
    -5      12.419267      -6.935575      24.981916    -14.8275
    -5      10.582267     -11.125575      24.941917    -10.7585
    -5       6.269267      -4.561575      27.829918    -12.9565
    -5      13.534267      -5.524575      23.489918    -14.5135
    -5      13.195267      -0.150575      19.475918    -13.9930
    -5      13.526267       3.517425      23.445917     -4.3360
    -6      11.600267       0.098425      15.424917      5.2835
    -6       9.275267      -2.078575      22.203917     11.8570
    -6      11.028267      -1.138575      23.604918     11.9090
    -6       7.770802      -4.877967      21.640465     17.0972
    -6       7.376267      -9.733575      28.470917      2.5450
    -6      12.223267      -9.046575      17.025917      3.0290
    -7       9.320267      -1.796575      22.262917     -3.8315
    -7      12.384267      -1.354575      15.498917     -2.3055
    -7       7.874267      -5.544575      20.375917     -2.2535
    -7       7.331267       1.216425      20.621918     -2.6580
    -7       5.532267      -0.757575      23.702917     -2.3655
    -7      10.244267       3.669425      17.028917     -2.0875
    -7      13.601267       0.056425      19.652918     -2.7725
    -7       9.181267      -2.389575      19.646917     -3.9035
    -7      13.292267      -1.458575      20.636917     -2.5840
    -7      12.773267       0.457425      23.301918     -2.5060
    -7      10.753267      -1.533575      22.975918     -3.6140
    -7       6.479267       0.683425      28.134918     -1.5415
    -7       6.091267      -3.566575      27.615917     -2.0305
    -7      10.977267      -4.725574      25.655918     -3.0535
    -7       9.145267      -4.821575      27.880917     -2.2620
    -7       7.066267      -9.300574      28.953917     -0.9210
    -7       7.309267      -4.593575      21.291918     -2.3615
    -7      10.597267     -11.728575      24.718918     -1.0280
    -7       6.303267      -6.124575      22.642918     -2.3475
    -7      12.871267      -7.846575      22.721916     -2.4490
    -7      12.517267      -9.210575      16.674917     -0.9785
    -7       8.313267      -7.963574      20.956917     -2.2860
    -7      13.808268      -6.320575      22.353916     -2.2070
    -7       8.140267       4.346425      24.042917     -2.0705
    -7      11.524267       1.586425      26.003918     -2.3005
    -7      14.130267       4.046425      19.142918     -1.5540
    -7       9.195267       3.901425      19.095917     -2.5865
    -7       8.259267       4.262425      22.213917     -2.4230
    -7      15.286267      -4.063575      19.738916     -1.4630
    -8      11.112267       3.035425      22.050917      7.0445
    -8       9.638268       0.243425      17.260918      5.5955
    -8      11.771267      -5.688575      19.405918      7.1900
    -8       8.169267      -0.271575      25.530918      5.8930
    -8       8.493267      -1.296575      25.593918      5.8745
    -8       7.896267      -2.203575      25.293917      5.5950
    -8       8.838267      -7.810575      25.158916      5.3665
    -8      12.476267      -4.729575      18.334917      5.5990

$$$$
Baicalin_D
  xed2sdf_05210316543D
 
 49 52  0  0  1  0  0  0  0  0999 V2000
   10.1547    0.2680   19.6644 O   0  0  0  0  0  0  0  0  0  0  0  0
   10.8987    0.6110   21.9794 O   0  0  0  0  0  0  0  0  0  0  0  0
   11.8957    3.9280   18.5544 O   0  0  0  0  0  0  0  0  0  0  0  0
   11.7677    3.1680   21.3214 O   0  0  0  0  0  0  0  0  0  0  0  0
   10.0057    2.6290   16.7994 O   0  0  0  0  0  0  0  0  0  0  0  0
    8.1437   -0.6240   17.4334 O   0  5  0  0  0  0  0  0  0  0  0  0
   10.2677   -0.3960   16.6264 O   0  0  0  0  0  0  0  0  0  0  0  0
    9.1257   -3.0630   24.3044 O   0  0  0  0  0  0  0  0  0  0  0  0
    8.9637    2.3070   23.0414 O   0  0  0  0  0  0  0  0  0  0  0  0
    7.1057    1.2790   24.7514 O   0  0  0  0  0  0  0  0  0  0  0  0
    6.2177   -0.7950   25.9784 O   0  0  0  0  0  0  0  0  0  0  0  0
   10.9347    2.9760   19.0334 C   0  0  0  0  0  0  0  0  0  0  0  0
   11.4817    2.2360   20.2684 C   0  0  0  0  0  0  0  0  0  0  0  0
   10.5877    1.9610   17.9284 C   0  0  0  0  0  0  0  0  0  0  0  0
   10.4447    1.1940   20.7364 C   0  0  0  0  0  0  0  0  0  0  0  0
    9.6067    0.9180   18.4974 C   0  0  0  0  0  0  0  0  0  0  0  0
    9.3177   -0.1120   17.4364 C   0  0  0  0  0  0  0  0  0  0  0  0
    9.9787    0.1440   22.8244 C   0  0  0  0  0  0  0  0  0  0  0  0
    9.9837   -1.1970   23.1494 C   0  0  0  0  0  0  0  0  0  0  0  0
    9.0007    0.9780   23.3654 C   0  0  0  0  0  0  0  0  0  0  0  0
    9.0497   -1.7330   24.0164 C   0  0  0  0  0  0  0  0  0  0  0  0
    8.0777   -0.8920   24.5584 C   0  0  0  0  0  0  0  0  0  0  0  0
    8.0597    0.4660   24.2244 C   0  0  0  0  0  0  0  0  0  0  0  0
    7.1057   -1.4720   25.4614 C   0  0  0  0  0  0  0  0  0  0  0  0
    8.1957   -3.5950   25.1644 C   0  0  0  0  0  0  0  0  0  0  0  0
    7.2037   -2.8570   25.7434 C   0  0  0  0  0  0  0  0  0  0  0  0
    8.3217   -5.0460   25.4574 C   0  0  0  0  0  0  0  0  0  0  0  0
    9.3987   -5.5760   26.1544 C   0  0  0  0  0  0  0  0  0  0  0  0
    7.3277   -5.9090   25.0224 C   0  0  0  0  0  0  0  0  0  0  0  0
    9.4777   -6.9250   26.4014 C   0  0  0  0  0  0  0  0  0  0  0  0
    7.4077   -7.2580   25.2694 C   0  0  0  0  0  0  0  0  0  0  0  0
    8.4837   -7.7690   25.9594 C   0  0  0  0  0  0  0  0  0  0  0  0
   10.1047    3.4700   19.2924 H   0  0  0  0  0  0  0  0  0  0  0  0
   12.3317    1.7680   20.0264 H   0  0  0  0  0  0  0  0  0  0  0  0
   11.4227    1.5040   17.6214 H   0  0  0  0  0  0  0  0  0  0  0  0
    9.5597    1.6090   20.9444 H   0  0  0  0  0  0  0  0  0  0  0  0
    8.7657    1.3850   18.7684 H   0  0  0  0  0  0  0  0  0  0  0  0
   12.8347    3.6440   18.7764 H   0  0  0  0  0  0  0  0  0  0  0  0
   11.0747    3.1220   22.0494 H   0  0  0  0  0  0  0  0  0  0  0  0
   10.4287    2.3280   15.9384 H   0  0  0  0  0  0  0  0  0  0  0  0
    8.2347    2.5100   22.3794 H   0  0  0  0  0  0  0  0  0  0  0  0
    6.5957    1.7630   24.0324 H   0  0  0  0  0  0  0  0  0  0  0  0
   10.6777   -1.7940   22.7484 H   0  0  0  0  0  0  0  0  0  0  0  0
    6.5497   -3.2920   26.3624 H   0  0  0  0  0  0  0  0  0  0  0  0
   10.1247   -4.9700   26.4794 H   0  0  0  0  0  0  0  0  0  0  0  0
    6.5417   -5.5450   24.5224 H   0  0  0  0  0  0  0  0  0  0  0  0
   10.2587   -7.2950   26.9054 H   0  0  0  0  0  0  0  0  0  0  0  0
    6.6847   -7.8690   24.9474 H   0  0  0  0  0  0  0  0  0  0  0  0
    8.5437   -8.7510   26.1384 H   0  0  0  0  0  0  0  0  0  0  0  0
  1 15  1  0
  1 16  1  0
  2 18  1  0
  6 17  1  0
  7 17  2  0
  8 21  1  0
  8 25  1  0
  9 20  1  0
 10 23  1  0
 11 24  2  0
 12  3  1  0
 12 13  1  0
 12 14  1  0
 13  4  1  0
 13 15  1  0
 14  5  1  0
 14 16  1  0
 15  2  1  0
 16 17  1  0
 18 19  2  0
 18 20  1  0
 19 21  1  0
 20 23  2  0
 21 22  2  0
 22 23  1  0
 22 24  1  0
 24 26  1  0
 25 26  2  0
 25 27  1  0
 27 28  2  0
 27 29  1  0
 28 30  1  0
 29 31  2  0
 30 32  2  0
 31 32  1  0
  3 38  1  0
  4 39  1  0
  5 40  1  0
  9 41  1  0
 10 42  1  0
 12 33  1  0
 13 34  1  0
 14 35  1  0
 15 36  1  0
 16 37  1  0
 19 43  1  0
 26 44  1  0
 28 45  1  0
 29 46  1  0
 30 47  1  0
 31 48  1  0
 32 49  1  0
M  CHG  1   6  -1
M  END
>  <BioMolTech Lead Finder dG>
-7.842

>  <BioMolTech Lead Finder VSscore>
-11.696

>  <BioMolTech Lead Finder Rank score>
-12.999

>  <BioMolTech Lead Finder LE>
-0.245

>  <BioMolTech Lead Finder Structure Name>
/var/folders/xd/y7jw_xv579q2qqq7kks92xd80000gn/T/LeadFinder_38165_1/Ligand_1.sdf

>  <BioMolTech Lead Finder SDF id>
0

>  <BioMolTech Lead Finder Pose rank>
0

>  <BioMolTech Lead Finder version>
2001 1, 19 January 2019

>  <PUBCHEM_COMPOUND_CID>
64982

>  <PUBCHEM_COMPOUND_CANONICALIZED>
1

>  <PUBCHEM_CACTVS_COMPLEXITY>
748

>  <PUBCHEM_CACTVS_HBOND_ACCEPTOR>
11

>  <PUBCHEM_CACTVS_HBOND_DONOR>
6

>  <PUBCHEM_CACTVS_ROTATABLE_BOND>
4

>  <PUBCHEM_CACTVS_SUBSKEYS>
AAADceB4PAAAAAAAAAAAAAAAAAAAAAAAAAA0YIEAAAAAAACBQAAAGgAACAAADBSwmAMwDoAABgCIAqDSCAICCAAkIAAIiAFGiMgdNzaGNR6ieWOl4BUPuQfK7LzOIQABCAAIQABCAAIQABCAAAAAAAAAAA==

>  <PUBCHEM_IUPAC_OPENEYE_NAME>
(2S,3S,4S,5R,6S)-6-(5,6-dihydroxy-4-oxo-2-phenyl-chromen-7-yl)oxy-3,4,5-trihydroxy-tetrahydropyran-2-carboxylic acid

>  <PUBCHEM_IUPAC_CAS_NAME>
(2S,3S,4S,5R,6S)-6-[(5,6-dihydroxy-4-oxo-2-phenyl-1-benzopyran-7-yl)oxy]-3,4,5-trihydroxy-2-oxanecarboxylic acid

>  <PUBCHEM_IUPAC_NAME_MARKUP>
(2<I>S</I>,3<I>S</I>,4<I>S</I>,5<I>R</I>,6<I>S</I>)-6-(5,6-dihydroxy-4-oxo-2-phenylchromen-7-yl)oxy-3,4,5-trihydroxyoxane-2-carboxylic acid

>  <PUBCHEM_IUPAC_NAME>
(2S,3S,4S,5R,6S)-6-(5,6-dihydroxy-4-oxo-2-phenylchromen-7-yl)oxy-3,4,5-trihydroxyoxane-2-carboxylic acid

>  <PUBCHEM_IUPAC_SYSTEMATIC_NAME>
(2S,3S,4S,5R,6S)-6-[5,6-bis(oxidanyl)-4-oxidanylidene-2-phenyl-chromen-7-yl]oxy-3,4,5-tris(oxidanyl)oxane-2-carboxylic acid

>  <PUBCHEM_IUPAC_TRADITIONAL_NAME>
(2S,3S,4S,5R,6S)-6-(5,6-dihydroxy-4-keto-2-phenyl-chromen-7-yl)oxy-3,4,5-trihydroxy-tetrahydropyran-2-carboxylic acid

>  <PUBCHEM_IUPAC_INCHI>
InChI=1S/C21H18O11/c22-9-6-10(8-4-2-1-3-5-8)30-11-7-12(14(23)15(24)13(9)11)31-21-18(27)16(25)17(26)19(32-21)20(28)29/h1-7,16-19,21,23-27H,(H,28,29)/t16-,17-,18+,19-,21+/m0/s1

>  <PUBCHEM_IUPAC_INCHIKEY>
IKIIZLYTISPENI-ZFORQUDYSA-N

>  <PUBCHEM_XLOGP3_AA>
1.1

>  <PUBCHEM_EXACT_MASS>
446.084911

>  <PUBCHEM_MOLECULAR_FORMULA>
C21H18O11

>  <PUBCHEM_MOLECULAR_WEIGHT>
446.4

>  <PUBCHEM_OPENEYE_CAN_SMILES>
C1=CC=C(C=C1)C2=CC(=O)C3=C(C(=C(C=C3O2)OC4C(C(C(C(O4)C(=O)O)O)O)O)O)O

>  <PUBCHEM_OPENEYE_ISO_SMILES>
C1=CC=C(C=C1)C2=CC(=O)C3=C(C(=C(C=C3O2)O[C@H]4[C@@H]([C@H]([C@@H]([C@H](O4)C(=O)O)O)O)O)O)O

>  <PUBCHEM_CACTVS_TPSA>
183

>  <PUBCHEM_MONOISOTOPIC_WEIGHT>
446.084911

>  <PUBCHEM_TOTAL_CHARGE>
0

>  <PUBCHEM_HEAVY_ATOM_COUNT>
32

>  <PUBCHEM_ATOM_DEF_STEREO_COUNT>
5

>  <PUBCHEM_ATOM_UDEF_STEREO_COUNT>
0

>  <PUBCHEM_BOND_DEF_STEREO_COUNT>
0

>  <PUBCHEM_BOND_UDEF_STEREO_COUNT>
0

>  <PUBCHEM_ISOTOPIC_ATOM_COUNT>
0

>  <PUBCHEM_COMPONENT_COUNT>
1

>  <PUBCHEM_CACTVS_TAUTO_COUNT>
-1

>  <PUBCHEM_COORDINATE_TYPE>
1
5
255

>  <PUBCHEM_BONDANNOTATIONS>
16  17  5
18  19  8
18  20  8
19  21  8
15  2  5
20  23  8
21  22  8
22  23  8
22  24  8
24  26  8
25  26  8
27  28  8
27  29  8
28  30  8
29  31  8
12  3  5
30  32  8
31  32  8
13  4  6
14  5  6
8  21  8
8  25  8

>  <LF dG>
-7.842

>  <LF VSscore>
-11.696

>  <LF Rank Score>
-12.999

>  <LF LE>
-0.245

>  <Preferred Pose_cresset>
true

>  <Favorite_cresset>
false

>  <Protein_cresset>
6Y2F_P

>  <MW_cresset>
445.4

>  <#Atoms_cresset>
32

>  <SlogP_cresset>
1.1

>  <TPSA_cresset>
186

>  <Flexibility_cresset>
7.6

>  <#RB_cresset>
9

>  <Rof5_cresset>
1

>  <Filename_cresset>
Baicalin.sdf

>  <Confs_cresset>
0

>  <Poses_cresset>
10

>  <_cresset_fieldpoints>
    -5       8.191701      -1.855951      16.021370    -10.8280
    -5      10.618701      -1.587950      19.731369     -7.4390
    -5       9.408701      -1.741951      15.570369    -10.5165
    -5      10.855405       4.492083      17.049557    -16.3789
    -5      10.006701      -4.523951      23.119370     -3.6290
    -5      12.066701       4.900049      20.561369    -12.4115
    -5       9.864700      -6.648951      23.191368     -2.9695
    -5       6.243875       1.053780      26.445801    -22.2820
    -5       7.044701      -6.306951      28.333368     -2.3735
    -6       7.700701       2.527050      20.652369     15.2380
    -6      13.869701       2.090050      18.351368      8.9065
    -6      11.975700      -5.680951      27.673368      2.8260
    -6      12.005701       1.869050      15.042369      7.2355
    -6       6.433346       2.364182      22.221470     17.2758
    -6       4.762701      -6.646951      23.747370      2.9390
    -6       5.783701      -4.045950      23.318369      2.9785
    -6      12.207701      -3.190950      22.580368      1.6455
    -6      10.714701      -2.997951      26.867369      2.7310
    -6       6.755701     -10.219951      25.353369      2.6980
    -6      10.424701      -9.654950      27.360369      2.6875
    -7      12.235701      -0.862951      18.987370     -2.4380
    -7      12.672701       5.291049      20.523369     -1.5445
    -7       9.250701       4.308049      21.636370     -2.5565
    -7      13.987701       1.828049      17.964369     -1.6440
    -7      12.209701       4.006049      16.128368     -1.5585
    -7      12.537701       2.199049      23.494370     -2.1630
    -7       7.870701       3.687050      17.657370     -1.6675
    -7      11.751700       0.647049      15.127369     -1.4640
    -7       6.352701      -3.386950      22.838369     -2.6040
    -7       7.827701       2.109050      15.980370     -1.6255
    -7       7.712701      -0.674951      20.545368     -2.9785
    -7      10.172701      -4.688951      22.793369     -2.4335
    -7       9.920701      -2.294950      27.190369     -2.5850
    -7       7.526701       3.865050      24.249369     -1.5850
    -7       7.712701       3.201050      20.324369     -2.3930
    -7       7.303700       1.041049      27.373369     -1.6410
    -7       4.787701       0.184049      24.102369     -1.7925
    -7      10.869700       0.078049      26.307369     -1.8510
    -7      12.486701      -5.753951      27.520369     -0.9900
    -7       6.667701     -10.570951      25.324369     -0.9670
    -7       6.690701      -5.165951      28.313370     -2.0405
    -7      10.643701      -9.943951      27.429369     -0.9675
    -8      10.546700       1.992049      19.277369      5.1500
    -8       9.019701      -0.406951      23.698368      6.6105
    -8       7.888700      -2.062951      25.003368      5.0260
    -8       8.399701      -6.409951      25.712368      7.1515

$$$$
Untitled
  xed2sdf_05210316543D
 
 30 32  0  0  0  0  0  0  0  0999 V2000
   11.9444   -1.4328   18.4398 O   0  0  0  0  0  0  0  0  0  0  0  0
    8.8504    1.8992   16.7718 O   0  0  0  0  0  0  0  0  0  0  0  0
   10.3924    3.8232   17.8778 O   0  0  0  0  0  0  0  0  0  0  0  0
   12.6794    3.1542   19.2428 O   0  0  0  0  0  0  0  0  0  0  0  0
    8.5284   -0.7728   16.3838 O   0  0  0  0  0  0  0  0  0  0  0  0
   10.3454    0.1782   17.5658 C   0  0  0  0  0  0  0  0  0  0  0  0
   11.5114   -0.1528   18.2668 C   0  0  0  0  0  0  0  0  0  0  0  0
   11.2344   -2.4468   17.8478 C   0  0  0  0  0  0  0  0  0  0  0  0
    9.9754    1.5282   17.4428 C   0  0  0  0  0  0  0  0  0  0  0  0
    9.5854   -0.9208   16.9968 C   0  0  0  0  0  0  0  0  0  0  0  0
   10.0834   -2.2388   17.1488 C   0  0  0  0  0  0  0  0  0  0  0  0
   11.7684   -3.8208   18.0098 C   0  0  0  0  0  0  0  0  0  0  0  0
   12.2764    0.8572   18.8198 C   0  0  0  0  0  0  0  0  0  0  0  0
   10.7554    2.5112   18.0018 C   0  0  0  0  0  0  0  0  0  0  0  0
   11.9114    2.1772   18.6938 C   0  0  0  0  0  0  0  0  0  0  0  0
   11.5194   -4.5738   19.1488 C   0  0  0  0  0  0  0  0  0  0  0  0
   12.5324   -4.3798   16.9978 C   0  0  0  0  0  0  0  0  0  0  0  0
   12.0254   -5.8458   19.2698 C   0  0  0  0  0  0  0  0  0  0  0  0
   13.0414   -5.6498   17.1228 C   0  0  0  0  0  0  0  0  0  0  0  0
   12.7894   -6.3848   18.2598 C   0  0  0  0  0  0  0  0  0  0  0  0
    9.0594    2.4062   15.9328 H   0  0  0  0  0  0  0  0  0  0  0  0
   10.0214    4.1852   18.7408 H   0  0  0  0  0  0  0  0  0  0  0  0
   13.6594    2.9622   19.1238 H   0  0  0  0  0  0  0  0  0  0  0  0
    9.5924   -3.0108   16.7458 H   0  0  0  0  0  0  0  0  0  0  0  0
   13.1104    0.6232   19.3218 H   0  0  0  0  0  0  0  0  0  0  0  0
   10.9664   -4.1888   19.8868 H   0  0  0  0  0  0  0  0  0  0  0  0
   12.7164   -3.8528   16.1678 H   0  0  0  0  0  0  0  0  0  0  0  0
   11.8394   -6.3798   20.0948 H   0  0  0  0  0  0  0  0  0  0  0  0
   13.5954   -6.0408   16.3878 H   0  0  0  0  0  0  0  0  0  0  0  0
   13.1594   -7.3098   18.3508 H   0  0  0  0  0  0  0  0  0  0  0  0
  1  7  1  0
  1  8  1  0
  2  9  1  0
  3 14  1  0
  4 15  1  0
  5 10  2  0
  6  7  2  0
  6  9  1  0
  6 10  1  0
  7 13  1  0
  8 11  2  0
  8 12  1  0
  9 14  2  0
 10 11  1  0
 12 16  2  0
 12 17  1  0
 13 15  2  0
 14 15  1  0
 16 18  1  0
 17 19  2  0
 18 20  2  0
 19 20  1  0
  2 21  1  0
  3 22  1  0
  4 23  1  0
 11 24  1  0
 13 25  1  0
 16 26  1  0
 17 27  1  0
 18 28  1  0
 19 29  1  0
 20 30  1  0
M  END
>  <BioMolTech Lead Finder dG>
-6.566

>  <BioMolTech Lead Finder VSscore>
-8.093

>  <BioMolTech Lead Finder Rank score>
-11.022

>  <BioMolTech Lead Finder LE>
-0.328

>  <BioMolTech Lead Finder Structure Name>
/var/folders/xd/y7jw_xv579q2qqq7kks92xd80000gn/T/LeadFinder_39046_1/Ligand_1.sdf

>  <BioMolTech Lead Finder SDF id>
0

>  <BioMolTech Lead Finder Pose rank>
0

>  <BioMolTech Lead Finder version>
2001 1, 19 January 2019

>  <PUBCHEM_COMPOUND_CID>
5281605

>  <PUBCHEM_COMPOUND_CANONICALIZED>
1

>  <PUBCHEM_CACTVS_COMPLEXITY>
413

>  <PUBCHEM_CACTVS_HBOND_ACCEPTOR>
5

>  <PUBCHEM_CACTVS_HBOND_DONOR>
3

>  <PUBCHEM_CACTVS_ROTATABLE_BOND>
1

>  <PUBCHEM_CACTVS_SUBSKEYS>
AAADccBwOAAAAAAAAAAAAAAAAAAAAAAAAAAwYIAAAAAAAACBQAAAGgAACAAADASAmAAwBoAABgCIAqBSAAACCAAkIAAIiAEGiMgNJzaGNRqCeWGl4BUJuQfK7LzOIQABCAAIQABCAAIQABCAAAAAAAAAAA==

>  <PUBCHEM_IUPAC_OPENEYE_NAME>
5,6,7-trihydroxy-2-phenyl-chromen-4-one

>  <PUBCHEM_IUPAC_CAS_NAME>
5,6,7-trihydroxy-2-phenyl-1-benzopyran-4-one

>  <PUBCHEM_IUPAC_NAME_MARKUP>
5,6,7-trihydroxy-2-phenylchromen-4-one

>  <PUBCHEM_IUPAC_NAME>
5,6,7-trihydroxy-2-phenylchromen-4-one

>  <PUBCHEM_IUPAC_SYSTEMATIC_NAME>
5,6,7-tris(oxidanyl)-2-phenyl-chromen-4-one

>  <PUBCHEM_IUPAC_TRADITIONAL_NAME>
5,6,7-trihydroxy-2-phenyl-chromone

>  <PUBCHEM_IUPAC_INCHI>
InChI=1S/C15H10O5/c16-9-6-11(8-4-2-1-3-5-8)20-12-7-10(17)14(18)15(19)13(9)12/h1-7,17-19H

>  <PUBCHEM_IUPAC_INCHIKEY>
FXNFHKRTJBSTCS-UHFFFAOYSA-N

>  <PUBCHEM_XLOGP3>
1.7

>  <PUBCHEM_EXACT_MASS>
270.052823

>  <PUBCHEM_MOLECULAR_FORMULA>
C15H10O5

>  <PUBCHEM_MOLECULAR_WEIGHT>
270.24

>  <PUBCHEM_OPENEYE_CAN_SMILES>
C1=CC=C(C=C1)C2=CC(=O)C3=C(O2)C=C(C(=C3O)O)O

>  <PUBCHEM_OPENEYE_ISO_SMILES>
C1=CC=C(C=C1)C2=CC(=O)C3=C(O2)C=C(C(=C3O)O)O

>  <PUBCHEM_CACTVS_TPSA>
87

>  <PUBCHEM_MONOISOTOPIC_WEIGHT>
270.052823

>  <PUBCHEM_TOTAL_CHARGE>
0

>  <PUBCHEM_HEAVY_ATOM_COUNT>
20

>  <PUBCHEM_ATOM_DEF_STEREO_COUNT>
0

>  <PUBCHEM_ATOM_UDEF_STEREO_COUNT>
0

>  <PUBCHEM_BOND_DEF_STEREO_COUNT>
0

>  <PUBCHEM_BOND_UDEF_STEREO_COUNT>
0

>  <PUBCHEM_ISOTOPIC_ATOM_COUNT>
0

>  <PUBCHEM_COMPONENT_COUNT>
1

>  <PUBCHEM_CACTVS_TAUTO_COUNT>
-1

>  <PUBCHEM_COORDINATE_TYPE>
1
5
255

>  <PUBCHEM_BONDANNOTATIONS>
1  7  8
1  8  8
10  11  8
12  16  8
12  17  8
13  15  8
14  15  8
16  18  8
17  19  8
18  20  8
19  20  8
6  10  8
6  7  8
6  9  8
7  13  8
8  11  8
9  14  8

>  <LF dG>
-6.566

>  <LF VSscore>
-8.093

>  <LF Rank Score>
-11.022

>  <LF LE>
-0.328

>  <Preferred Pose_cresset>
true

>  <Favorite_cresset>
false

>  <Protein_cresset>
6Y2F_P

>  <MW_cresset>
270.2

>  <#Atoms_cresset>
20

>  <SlogP_cresset>
2.3

>  <TPSA_cresset>
87

>  <Flexibility_cresset>
1.7

>  <#RB_cresset>
4

>  <Rof5_cresset>
0

>  <Filename_cresset>
Baicalein.sdf

>  <Confs_cresset>
0

>  <Poses_cresset>
10

>  <_cresset_fieldpoints>
    -5      13.660430      -2.127790      19.370798     -2.9995
    -5      14.655430      -3.994790      19.389799     -2.6160
    -5       7.351997       0.725661      16.570488    -22.3844
    -5      11.804430       4.911210      17.177799     -7.9110
    -5       9.949430      -6.508790      16.949799     -2.2455
    -6       9.934430      -2.499790      20.574799      2.9495
    -6      15.107430       1.792210      19.269798     10.3140
    -6       9.535430       3.217210      14.267798      6.0690
    -6       9.179430       4.931210      20.236799      7.0540
    -6      10.445430      -5.242790      21.848799      2.9760
    -6      12.708430      -1.867790      15.391799      3.4415
    -6      14.520430      -8.226790      16.528799      2.8085
    -6      13.904430      -4.393790      14.375799      3.0890
    -6      12.710430      -8.602790      20.357800      2.7930
    -7       9.445430      -1.980790      20.172798     -2.5890
    -7       6.846430       0.568210      17.726799     -1.6245
    -7       8.093430       4.310210      17.076799     -1.5250
    -7      12.722430       1.046210      15.298799     -1.8325
    -7      12.004430       5.529210      18.886799     -1.4325
    -7      12.378430      -1.397790      15.270799     -2.6285
    -7      13.894430       2.431210      21.389799     -1.2415
    -7       9.170430       0.652210      14.343799     -1.7810
    -7       9.343430       0.699210      20.801798     -1.8070
    -7      14.146430      -2.049790      19.339798     -2.4505
    -7      13.918430      -4.758790      13.942799     -0.9920
    -7      10.261430      -5.444790      22.160799     -0.9870
    -7      12.737431      -8.926790      20.514799     -0.9675
    -7       9.367430      -5.697790      16.682798     -2.0610
    -7      14.706430      -8.537790      16.460798     -0.9675
    -8      11.136430       1.143210      18.131798      6.5995
    -8      12.276430      -5.106790      18.131798      7.1530
    -8      10.514430      -1.081790      17.523798      5.0115

$$$$
W_Baicalein_D
  xed2sdf_05210316543D
 
 30 32  0  0  0  0  0  0  0  0999 V2000
   10.7667    2.6743   18.2876 O   0  0  0  0  0  0  0  0  0  0  0  0
   12.2567   -1.9347   18.3546 O   0  0  0  0  0  0  0  0  0  0  0  0
   10.2407   -2.5667   16.6696 O   0  0  0  0  0  0  0  0  0  0  0  0
    8.5077   -0.6267   15.7916 O   0  0  0  0  0  0  0  0  0  0  0  0
   13.4687    0.0543   19.7596 O   0  0  0  0  0  0  0  0  0  0  0  0
   11.5787    0.3833   18.3716 C   0  0  0  0  0  0  0  0  0  0  0  0
   10.6887    1.3643   17.9206 C   0  0  0  0  0  0  0  0  0  0  0  0
   11.8067    3.0633   19.0926 C   0  0  0  0  0  0  0  0  0  0  0  0
   11.4167   -0.9457   17.9426 C   0  0  0  0  0  0  0  0  0  0  0  0
   12.6377    0.8163   19.2666 C   0  0  0  0  0  0  0  0  0  0  0  0
   12.7267    2.1923   19.5926 C   0  0  0  0  0  0  0  0  0  0  0  0
   11.8927    4.5073   19.4226 C   0  0  0  0  0  0  0  0  0  0  0  0
    9.6677    1.0053   17.0596 C   0  0  0  0  0  0  0  0  0  0  0  0
   10.3947   -1.2737   17.0866 C   0  0  0  0  0  0  0  0  0  0  0  0
    9.5157   -0.2957   16.6396 C   0  0  0  0  0  0  0  0  0  0  0  0
   13.0237    5.2583   19.1376 C   0  0  0  0  0  0  0  0  0  0  0  0
   10.8137    5.1343   20.0266 C   0  0  0  0  0  0  0  0  0  0  0  0
   13.0737    6.5943   19.4546 C   0  0  0  0  0  0  0  0  0  0  0  0
   10.8677    6.4693   20.3456 C   0  0  0  0  0  0  0  0  0  0  0  0
   11.9977    7.2023   20.0606 C   0  0  0  0  0  0  0  0  0  0  0  0
   13.2057   -1.7647   18.0806 H   0  0  0  0  0  0  0  0  0  0  0  0
   10.0517   -2.6147   15.6826 H   0  0  0  0  0  0  0  0  0  0  0  0
    8.7717   -1.3837   15.1836 H   0  0  0  0  0  0  0  0  0  0  0  0
   13.4607    2.5213   20.1866 H   0  0  0  0  0  0  0  0  0  0  0  0
    9.0307    1.7043   16.7356 H   0  0  0  0  0  0  0  0  0  0  0  0
   13.8097    4.8233   18.6986 H   0  0  0  0  0  0  0  0  0  0  0  0
    9.9877    4.6093   20.2326 H   0  0  0  0  0  0  0  0  0  0  0  0
   13.8937    7.1263   19.2436 H   0  0  0  0  0  0  0  0  0  0  0  0
   10.0847    6.9103   20.7856 H   0  0  0  0  0  0  0  0  0  0  0  0
   12.0367    8.1743   20.2926 H   0  0  0  0  0  0  0  0  0  0  0  0
  1  7  1  0
  1  8  1  0
  2  9  1  0
  3 14  1  0
  4 15  1  0
  5 10  2  0
  6  7  2  0
  6  9  1  0
  6 10  1  0
  7 13  1  0
  8 11  2  0
  8 12  1  0
  9 14  2  0
 10 11  1  0
 12 16  2  0
 12 17  1  0
 13 15  2  0
 14 15  1  0
 16 18  1  0
 17 19  2  0
 18 20  2  0
 19 20  1  0
  2 21  1  0
  3 22  1  0
  4 23  1  0
 11 24  1  0
 13 25  1  0
 16 26  1  0
 17 27  1  0
 18 28  1  0
 19 29  1  0
 20 30  1  0
M  END
>  <BioMolTech Lead Finder dG>
-7.107

>  <BioMolTech Lead Finder VSscore>
-9.129

>  <BioMolTech Lead Finder Rank score>
-11.588

>  <BioMolTech Lead Finder LE>
-0.355

>  <BioMolTech Lead Finder Structure Name>
/var/folders/xd/y7jw_xv579q2qqq7kks92xd80000gn/T/LeadFinder_39840_1/Ligand_1.sdf

>  <BioMolTech Lead Finder SDF id>
0

>  <BioMolTech Lead Finder Pose rank>
0

>  <BioMolTech Lead Finder version>
2001 1, 19 January 2019

>  <PUBCHEM_COMPOUND_CID>
5281605

>  <PUBCHEM_COMPOUND_CANONICALIZED>
1

>  <PUBCHEM_CACTVS_COMPLEXITY>
413

>  <PUBCHEM_CACTVS_HBOND_ACCEPTOR>
5

>  <PUBCHEM_CACTVS_HBOND_DONOR>
3

>  <PUBCHEM_CACTVS_ROTATABLE_BOND>
1

>  <PUBCHEM_CACTVS_SUBSKEYS>
AAADccBwOAAAAAAAAAAAAAAAAAAAAAAAAAAwYIAAAAAAAACBQAAAGgAACAAADASAmAAwBoAABgCIAqBSAAACCAAkIAAIiAEGiMgNJzaGNRqCeWGl4BUJuQfK7LzOIQABCAAIQABCAAIQABCAAAAAAAAAAA==

>  <PUBCHEM_IUPAC_OPENEYE_NAME>
5,6,7-trihydroxy-2-phenyl-chromen-4-one

>  <PUBCHEM_IUPAC_CAS_NAME>
5,6,7-trihydroxy-2-phenyl-1-benzopyran-4-one

>  <PUBCHEM_IUPAC_NAME_MARKUP>
5,6,7-trihydroxy-2-phenylchromen-4-one

>  <PUBCHEM_IUPAC_NAME>
5,6,7-trihydroxy-2-phenylchromen-4-one

>  <PUBCHEM_IUPAC_SYSTEMATIC_NAME>
5,6,7-tris(oxidanyl)-2-phenyl-chromen-4-one

>  <PUBCHEM_IUPAC_TRADITIONAL_NAME>
5,6,7-trihydroxy-2-phenyl-chromone

>  <PUBCHEM_IUPAC_INCHI>
InChI=1S/C15H10O5/c16-9-6-11(8-4-2-1-3-5-8)20-12-7-10(17)14(18)15(19)13(9)12/h1-7,17-19H

>  <PUBCHEM_IUPAC_INCHIKEY>
FXNFHKRTJBSTCS-UHFFFAOYSA-N

>  <PUBCHEM_XLOGP3>
1.7

>  <PUBCHEM_EXACT_MASS>
270.052823

>  <PUBCHEM_MOLECULAR_FORMULA>
C15H10O5

>  <PUBCHEM_MOLECULAR_WEIGHT>
270.24

>  <PUBCHEM_OPENEYE_CAN_SMILES>
C1=CC=C(C=C1)C2=CC(=O)C3=C(O2)C=C(C(=C3O)O)O

>  <PUBCHEM_OPENEYE_ISO_SMILES>
C1=CC=C(C=C1)C2=CC(=O)C3=C(O2)C=C(C(=C3O)O)O

>  <PUBCHEM_CACTVS_TPSA>
87

>  <PUBCHEM_MONOISOTOPIC_WEIGHT>
270.052823

>  <PUBCHEM_TOTAL_CHARGE>
0

>  <PUBCHEM_HEAVY_ATOM_COUNT>
20

>  <PUBCHEM_ATOM_DEF_STEREO_COUNT>
0

>  <PUBCHEM_ATOM_UDEF_STEREO_COUNT>
0

>  <PUBCHEM_BOND_DEF_STEREO_COUNT>
0

>  <PUBCHEM_BOND_UDEF_STEREO_COUNT>
0

>  <PUBCHEM_ISOTOPIC_ATOM_COUNT>
0

>  <PUBCHEM_COMPONENT_COUNT>
1

>  <PUBCHEM_CACTVS_TAUTO_COUNT>
-1

>  <PUBCHEM_COORDINATE_TYPE>
1
5
255

>  <PUBCHEM_BONDANNOTATIONS>
1  7  8
1  8  8
10  11  8
12  16  8
12  17  8
13  15  8
14  15  8
16  18  8
17  19  8
18  20  8
19  20  8
6  10  8
6  7  8
6  9  8
7  13  8
8  11  8
9  14  8

>  <LF dG>
-7.107

>  <LF VSscore>
-9.129

>  <LF Rank Score>
-11.588

>  <LF LE>
-0.355

>  <Preferred Pose_cresset>
true

>  <Favorite_cresset>
false

>  <Protein_cresset>
6Y2F_P

>  <MW_cresset>
270.2

>  <#Atoms_cresset>
20

>  <SlogP_cresset>
2.3

>  <TPSA_cresset>
87

>  <Flexibility_cresset>
1.7

>  <#RB_cresset>
4

>  <Rof5_cresset>
0

>  <Filename_cresset>
Baicalein.sdf

>  <Confs_cresset>
0

>  <Poses_cresset>
10

>  <_cresset_fieldpoints>
    -5      10.771674       6.452342      17.092575     -2.8775
    -5      12.926674      -1.773658      20.375576    -11.9855
    -5      14.668674       0.030342      21.222576     -9.9255
    -5      12.925673       5.237342      22.505577     -2.8740
    -6      15.823673       6.053342      18.130575      3.2235
    -6      14.391674       3.254342      17.303576      2.9070
    -6       8.008674       5.918342      21.291576      2.7425
    -6      14.160674      -1.462658      16.514576      2.8445
    -6       9.561674      -2.414658      14.021576     11.4535
    -6       8.117674       3.414342      15.715576      1.6130
    -6      10.170673       9.372342      21.335575      2.9915
    -6      14.080674       9.520342      19.740576      3.0970
    -7      13.534674       2.767342      16.703575     -2.5760
    -7      12.458673      -3.875658      16.748575     -1.4130
    -7       8.784674      -0.342658      20.209576     -1.8040
    -7      10.661674      -1.420658      13.725576     -1.3760
    -7       7.810674      -3.218658      16.203575     -1.4975
    -7      13.198674       4.088342      22.379576     -2.0210
    -7      14.746674      -0.096658      17.374577     -1.7770
    -7      12.634674      -2.071658      20.790577     -1.6725
    -7      12.679674       0.819342      15.180576     -1.8290
    -7      10.112674       4.450342      16.676577     -2.4200
    -7       9.995674       9.547341      21.493576     -0.9675
    -7       9.989674       1.930342      21.120575     -2.5665
    -7      14.183674       9.788342      19.761576     -0.9675
    -8      11.945674       5.858342      19.743576      7.1525
    -8      10.552673       0.073342      17.520576      6.5995
    -8      11.923674       1.510342      18.845575      5.0150

$$$$
W_Baicalin_D
  xed2sdf_05210316543D
 
 49 52  0  0  1  0  0  0  0  0999 V2000
    9.7795   -0.2712   20.1233 O   0  0  0  0  0  0  0  0  0  0  0  0
   10.3755    0.7368   22.2823 O   0  0  0  0  0  0  0  0  0  0  0  0
   11.3495    3.0728   18.1213 O   0  0  0  0  0  0  0  0  0  0  0  0
   11.1195    3.0778   20.9843 O   0  0  0  0  0  0  0  0  0  0  0  0
    9.6405    1.2138   16.7203 O   0  0  0  0  0  0  0  0  0  0  0  0
   10.0165   -2.1692   18.1913 O   0  5  0  0  0  0  0  0  0  0  0  0
    8.0335   -1.4222   17.3403 O   0  0  0  0  0  0  0  0  0  0  0  0
    9.6815   -3.4882   24.2123 O   0  0  0  0  0  0  0  0  0  0  0  0
    8.0715    1.7398   23.4803 O   0  0  0  0  0  0  0  0  0  0  0  0
    6.5795    0.0888   25.0563 O   0  0  0  0  0  0  0  0  0  0  0  0
    6.2955   -2.2572   26.0623 O   0  0  0  0  0  0  0  0  0  0  0  0
   10.4245    2.2168   18.8073 C   0  0  0  0  0  0  0  0  0  0  0  0
   10.9485    1.8788   20.2153 C   0  0  0  0  0  0  0  0  0  0  0  0
   10.2005    0.9198   18.0093 C   0  0  0  0  0  0  0  0  0  0  0  0
    9.9535    0.9278   20.9123 C   0  0  0  0  0  0  0  0  0  0  0  0
    9.2565   -0.0012   18.8053 C   0  0  0  0  0  0  0  0  0  0  0  0
    9.0885   -1.2982   18.0553 C   0  0  0  0  0  0  0  0  0  0  0  0
    9.6255   -0.0412   23.0653 C   0  0  0  0  0  0  0  0  0  0  0  0
    9.9935   -1.3562   23.2573 C   0  0  0  0  0  0  0  0  0  0  0  0
    8.4665    0.4438   23.6723 C   0  0  0  0  0  0  0  0  0  0  0  0
    9.2495   -2.2062   24.0553 C   0  0  0  0  0  0  0  0  0  0  0  0
    8.0945   -1.7132   24.6633 C   0  0  0  0  0  0  0  0  0  0  0  0
    7.7095   -0.3832   24.4643 C   0  0  0  0  0  0  0  0  0  0  0  0
    7.3265   -2.6172   25.4923 C   0  0  0  0  0  0  0  0  0  0  0  0
    8.9405   -4.3312   25.0033 C   0  0  0  0  0  0  0  0  0  0  0  0
    7.7945   -3.9472   25.6393 C   0  0  0  0  0  0  0  0  0  0  0  0
    9.4545   -5.7172   25.1543 C   0  0  0  0  0  0  0  0  0  0  0  0
   10.0165   -6.1802   26.3353 C   0  0  0  0  0  0  0  0  0  0  0  0
    9.3705   -6.5862   24.0773 C   0  0  0  0  0  0  0  0  0  0  0  0
   10.4815   -7.4702   26.4313 C   0  0  0  0  0  0  0  0  0  0  0  0
    9.8365   -7.8752   24.1743 C   0  0  0  0  0  0  0  0  0  0  0  0
   10.3945   -8.3192   25.3513 C   0  0  0  0  0  0  0  0  0  0  0  0
    9.5525    2.6998   18.8923 H   0  0  0  0  0  0  0  0  0  0  0  0
   11.8375    1.4278   20.1403 H   0  0  0  0  0  0  0  0  0  0  0  0
   11.0775    0.4598   17.8673 H   0  0  0  0  0  0  0  0  0  0  0  0
    9.0345    1.3168   20.9683 H   0  0  0  0  0  0  0  0  0  0  0  0
    8.3745    0.4578   18.9093 H   0  0  0  0  0  0  0  0  0  0  0  0
   12.2905    2.7258   18.1913 H   0  0  0  0  0  0  0  0  0  0  0  0
   10.3725    3.7308   20.8153 H   0  0  0  0  0  0  0  0  0  0  0  0
   10.3485    1.5168   16.0743 H   0  0  0  0  0  0  0  0  0  0  0  0
    7.4645    1.8308   22.6843 H   0  0  0  0  0  0  0  0  0  0  0  0
    5.7535   -0.2942   24.6293 H   0  0  0  0  0  0  0  0  0  0  0  0
   10.8165   -1.7042   22.8093 H   0  0  0  0  0  0  0  0  0  0  0  0
    7.2895   -4.5992   26.2033 H   0  0  0  0  0  0  0  0  0  0  0  0
   10.0835   -5.5702   27.1243 H   0  0  0  0  0  0  0  0  0  0  0  0
    8.9645   -6.2722   23.2193 H   0  0  0  0  0  0  0  0  0  0  0  0
   10.8845   -7.7922   27.2883 H   0  0  0  0  0  0  0  0  0  0  0  0
    9.7715   -8.4902   23.3883 H   0  0  0  0  0  0  0  0  0  0  0  0
   10.7355   -9.2572   25.4223 H   0  0  0  0  0  0  0  0  0  0  0  0
  1 15  1  0
  1 16  1  0
  2 18  1  0
  6 17  1  0
  7 17  2  0
  8 21  1  0
  8 25  1  0
  9 20  1  0
 10 23  1  0
 11 24  2  0
 12  3  1  0
 12 13  1  0
 12 14  1  0
 13  4  1  0
 13 15  1  0
 14  5  1  0
 14 16  1  0
 15  2  1  0
 16 17  1  0
 18 19  2  0
 18 20  1  0
 19 21  1  0
 20 23  2  0
 21 22  2  0
 22 23  1  0
 22 24  1  0
 24 26  1  0
 25 26  2  0
 25 27  1  0
 27 28  2  0
 27 29  1  0
 28 30  1  0
 29 31  2  0
 30 32  2  0
 31 32  1  0
  3 38  1  0
  4 39  1  0
  5 40  1  0
  9 41  1  0
 10 42  1  0
 12 33  1  0
 13 34  1  0
 14 35  1  0
 15 36  1  0
 16 37  1  0
 19 43  1  0
 26 44  1  0
 28 45  1  0
 29 46  1  0
 30 47  1  0
 31 48  1  0
 32 49  1  0
M  CHG  1   6  -1
M  END
>  <BioMolTech Lead Finder dG>
-8.741

>  <BioMolTech Lead Finder VSscore>
-12.329

>  <BioMolTech Lead Finder Rank score>
-12.09

>  <BioMolTech Lead Finder LE>
-0.273

>  <BioMolTech Lead Finder Structure Name>
/var/folders/xd/y7jw_xv579q2qqq7kks92xd80000gn/T/LeadFinder_39840_1/Ligand_1.sdf

>  <BioMolTech Lead Finder SDF id>
0

>  <BioMolTech Lead Finder Pose rank>
0

>  <BioMolTech Lead Finder version>
2001 1, 19 January 2019

>  <PUBCHEM_COMPOUND_CID>
64982

>  <PUBCHEM_COMPOUND_CANONICALIZED>
1

>  <PUBCHEM_CACTVS_COMPLEXITY>
748

>  <PUBCHEM_CACTVS_HBOND_ACCEPTOR>
11

>  <PUBCHEM_CACTVS_HBOND_DONOR>
6

>  <PUBCHEM_CACTVS_ROTATABLE_BOND>
4

>  <PUBCHEM_CACTVS_SUBSKEYS>
AAADceB4PAAAAAAAAAAAAAAAAAAAAAAAAAA0YIEAAAAAAACBQAAAGgAACAAADBSwmAMwDoAABgCIAqDSCAICCAAkIAAIiAFGiMgdNzaGNR6ieWOl4BUPuQfK7LzOIQABCAAIQABCAAIQABCAAAAAAAAAAA==

>  <PUBCHEM_IUPAC_OPENEYE_NAME>
(2S,3S,4S,5R,6S)-6-(5,6-dihydroxy-4-oxo-2-phenyl-chromen-7-yl)oxy-3,4,5-trihydroxy-tetrahydropyran-2-carboxylic acid

>  <PUBCHEM_IUPAC_CAS_NAME>
(2S,3S,4S,5R,6S)-6-[(5,6-dihydroxy-4-oxo-2-phenyl-1-benzopyran-7-yl)oxy]-3,4,5-trihydroxy-2-oxanecarboxylic acid

>  <PUBCHEM_IUPAC_NAME_MARKUP>
(2<I>S</I>,3<I>S</I>,4<I>S</I>,5<I>R</I>,6<I>S</I>)-6-(5,6-dihydroxy-4-oxo-2-phenylchromen-7-yl)oxy-3,4,5-trihydroxyoxane-2-carboxylic acid

>  <PUBCHEM_IUPAC_NAME>
(2S,3S,4S,5R,6S)-6-(5,6-dihydroxy-4-oxo-2-phenylchromen-7-yl)oxy-3,4,5-trihydroxyoxane-2-carboxylic acid

>  <PUBCHEM_IUPAC_SYSTEMATIC_NAME>
(2S,3S,4S,5R,6S)-6-[5,6-bis(oxidanyl)-4-oxidanylidene-2-phenyl-chromen-7-yl]oxy-3,4,5-tris(oxidanyl)oxane-2-carboxylic acid

>  <PUBCHEM_IUPAC_TRADITIONAL_NAME>
(2S,3S,4S,5R,6S)-6-(5,6-dihydroxy-4-keto-2-phenyl-chromen-7-yl)oxy-3,4,5-trihydroxy-tetrahydropyran-2-carboxylic acid

>  <PUBCHEM_IUPAC_INCHI>
InChI=1S/C21H18O11/c22-9-6-10(8-4-2-1-3-5-8)30-11-7-12(14(23)15(24)13(9)11)31-21-18(27)16(25)17(26)19(32-21)20(28)29/h1-7,16-19,21,23-27H,(H,28,29)/t16-,17-,18+,19-,21+/m0/s1

>  <PUBCHEM_IUPAC_INCHIKEY>
IKIIZLYTISPENI-ZFORQUDYSA-N

>  <PUBCHEM_XLOGP3_AA>
1.1

>  <PUBCHEM_EXACT_MASS>
446.084911

>  <PUBCHEM_MOLECULAR_FORMULA>
C21H18O11

>  <PUBCHEM_MOLECULAR_WEIGHT>
446.4

>  <PUBCHEM_OPENEYE_CAN_SMILES>
C1=CC=C(C=C1)C2=CC(=O)C3=C(C(=C(C=C3O2)OC4C(C(C(C(O4)C(=O)O)O)O)O)O)O

>  <PUBCHEM_OPENEYE_ISO_SMILES>
C1=CC=C(C=C1)C2=CC(=O)C3=C(C(=C(C=C3O2)O[C@H]4[C@@H]([C@H]([C@@H]([C@H](O4)C(=O)O)O)O)O)O)O

>  <PUBCHEM_CACTVS_TPSA>
183

>  <PUBCHEM_MONOISOTOPIC_WEIGHT>
446.084911

>  <PUBCHEM_TOTAL_CHARGE>
0

>  <PUBCHEM_HEAVY_ATOM_COUNT>
32

>  <PUBCHEM_ATOM_DEF_STEREO_COUNT>
5

>  <PUBCHEM_ATOM_UDEF_STEREO_COUNT>
0

>  <PUBCHEM_BOND_DEF_STEREO_COUNT>
0

>  <PUBCHEM_BOND_UDEF_STEREO_COUNT>
0

>  <PUBCHEM_ISOTOPIC_ATOM_COUNT>
0

>  <PUBCHEM_COMPONENT_COUNT>
1

>  <PUBCHEM_CACTVS_TAUTO_COUNT>
-1

>  <PUBCHEM_COORDINATE_TYPE>
1
5
255

>  <PUBCHEM_BONDANNOTATIONS>
16  17  5
18  19  8
18  20  8
19  21  8
15  2  5
20  23  8
21  22  8
22  23  8
22  24  8
24  26  8
25  26  8
27  28  8
27  29  8
28  30  8
29  31  8
12  3  5
30  32  8
31  32  8
13  4  6
14  5  6
8  21  8
8  25  8

>  <LF dG>
-8.741

>  <LF VSscore>
-12.329

>  <LF Rank Score>
-12.09

>  <LF LE>
-0.273

>  <Preferred Pose_cresset>
true

>  <Favorite_cresset>
false

>  <Protein_cresset>
6Y2F_P

>  <MW_cresset>
445.4

>  <#Atoms_cresset>
32

>  <SlogP_cresset>
1.1

>  <TPSA_cresset>
186

>  <Flexibility_cresset>
7.6

>  <#RB_cresset>
9

>  <Rof5_cresset>
1

>  <Filename_cresset>
Baicalin.sdf

>  <Confs_cresset>
0

>  <Poses_cresset>
10

>  <_cresset_fieldpoints>
    -5       8.171463      -3.080191      16.577345     -9.8050
    -5      11.094462      -1.895191      19.825344     -8.0980
    -5      11.648462       2.766809      22.815346    -11.2290
    -5       7.937463       0.573809      16.129345     -9.1555
    -5      10.947462       4.705809      17.369345     -6.1415
    -5       6.118463      -0.500191      26.970345    -13.3570
    -5       9.440462      -3.576191      17.148346     -9.5850
    -5      11.846462      -4.364191      23.978344     -4.6590
    -5       5.190463      -2.920191      27.434345    -11.0030
    -5      12.450462      -5.776191      24.233345     -4.5865
    -5       7.282463      -8.105191      26.132345     -3.5495
    -6       7.100462       2.179809      20.947346      9.0065
    -6      13.243463       1.309809      17.845345      8.0275
    -6       8.400462       3.452809      20.820345      8.6535
    -6       7.513463      -4.621191      22.531345      1.3875
    -6      11.097463      -6.658191      29.309345      1.8270
    -6      11.706463     -10.163191      27.491344      2.1185
    -6      10.622462     -10.909191      23.667345      2.0345
    -6       8.732463      -8.280191      21.364346      1.5115
    -7      11.675463      -1.667191      20.195345     -2.9820
    -7       8.827462      -0.384191      15.209345     -1.6385
    -7      12.554462       2.082809      16.067345     -1.5350
    -7       9.767463       3.725809      16.103344     -1.4585
    -7      12.282463       4.783809      19.624344     -1.6275
    -7      13.602463       0.823809      18.318344     -1.6235
    -7       7.410462       2.280809      17.143345     -1.6890
    -7       9.582462       3.501809      22.902346     -2.5975
    -7       7.130463       2.553809      20.069345     -2.0780
    -7       7.333463       0.703809      16.271345     -1.7465
    -7       7.463463      -1.495191      20.962345     -3.0460
    -7       6.671463      -0.276191      27.579346     -1.6635
    -7       5.507463       2.064809      23.959345     -1.5605
    -7      10.542462      -0.216191      26.546345     -1.8445
    -7       7.170463      -4.362191      22.604345     -2.6235
    -7       6.742463      -7.254191      26.239346     -2.0445
    -7      10.154463      -2.818191      27.254345     -2.5935
    -7      11.955462      -4.224191      23.671345     -2.4500
    -7      11.918463      -3.463191      25.479345     -2.3325
    -7      10.834462      -6.277191      29.609344     -0.9900
    -7      11.860462     -10.309191      27.685345     -0.9675
    -7       4.942462      -2.325191      23.715345     -1.7900
    -7      10.672462     -11.069191      23.377344     -0.9670
    -8      10.086463       1.311809      19.293344      5.1625
    -8       8.859463      -0.912191      23.866344      6.6045
    -8       9.920463      -7.022191      25.256344      7.1510
    -8       8.232463      -2.929191      24.990345      5.0280

$$$$
W_DAR_D
  xed2sdf_05210316543D
 
 82 86  0  0  1  0  0  0  0  0999 V2000
    9.4207  -12.2645   30.1573 O   0  0  0  0  0  0  0  0  0  0  0  0
    9.6367  -11.6215   29.1453 C   0  0  0  0  0  0  0  0  0  0  0  0
   10.4387  -10.3385   29.1793 C   0  0  0  0  0  0  0  0  0  0  0  0
   11.1697  -10.0685   27.8623 C   0  0  0  0  0  0  0  0  0  0  0  0
   10.0867  -10.0625   26.7783 C   0  0  0  0  0  0  0  0  0  0  0  0
   10.6817   -9.7235   25.4763 N   0  0  0  0  0  0  0  0  0  0  0  0
   10.2987   -8.5195   24.7193 C   0  0  0  0  0  0  0  0  0  0  0  0
   10.6707   -9.1405   23.3593 C   0  0  0  0  0  0  0  0  0  0  0  0
   10.7157   -8.3725   22.0553 C   0  0  0  0  0  0  0  0  0  0  0  0
    9.9777   -7.2245   22.0463 N   0  0  0  0  0  0  0  0  0  0  0  0
   10.6417   -5.9495   21.7403 C   0  0  0  0  0  0  0  0  0  0  0  0
   11.6687   -5.5945   22.8273 C   0  0  0  0  0  0  0  0  0  0  0  0
   11.0617   -4.5595   23.7843 C   0  0  0  0  0  0  0  0  0  0  0  0
   10.2337   -5.2765   24.8613 C   0  0  0  0  0  0  0  0  0  0  0  0
    9.0317   -4.3935   25.2233 C   0  0  0  0  0  0  0  0  0  0  0  0
    8.3617   -3.8455   23.9533 C   0  0  0  0  0  0  0  0  0  0  0  0
    7.9087   -2.4815   24.2673 N   0  0  0  0  0  0  0  0  0  0  0  0
    8.5967   -1.4135   23.8063 C   0  0  0  0  0  0  0  0  0  0  0  0
    9.5187   -1.5085   22.9993 O   0  0  0  0  0  0  0  0  0  0  0  0
    8.2687   -0.0485   24.3023 C   0  0  0  0  0  0  0  0  0  0  0  0
    7.2487    0.1475   25.2133 C   0  0  0  0  0  0  0  0  0  0  0  0
    6.9727    1.4025   25.6953 C   0  0  0  0  0  0  0  0  0  0  0  0
    7.6507    2.5085   25.3343 N   0  0  0  0  0  0  0  0  0  0  0  0
    8.6387    2.3125   24.4473 C   0  0  0  0  0  0  0  0  0  0  0  0
    8.9777    1.0825   23.9113 C   0  0  0  0  0  0  0  0  0  0  0  0
   10.0137    0.9915   22.9743 N   0  0  0  0  0  0  0  0  0  0  0  0
   10.1477    1.7685   21.8803 C   0  0  0  0  0  0  0  0  0  0  0  0
    9.4437    2.7335   21.6243 O   0  0  0  0  0  0  0  0  0  0  0  0
   11.2847    1.3355   20.9763 C   0  0  0  0  0  0  0  0  0  0  0  0
   10.7597    0.3425   19.9543 C   0  0  0  0  0  0  0  0  0  0  0  0
   10.7697   -1.0065   20.2333 C   0  0  0  0  0  0  0  0  0  0  0  0
   10.2837   -1.9055   19.3113 C   0  0  0  0  0  0  0  0  0  0  0  0
    9.7847   -1.4585   18.1083 C   0  0  0  0  0  0  0  0  0  0  0  0
    9.7737   -0.1105   17.8283 C   0  0  0  0  0  0  0  0  0  0  0  0
    9.1447    0.4585   16.3093 Cl  0  0  0  0  0  0  0  0  0  0  0  0
   10.2597    0.7885   18.7523 C   0  0  0  0  0  0  0  0  0  0  0  0
   11.4287   -8.8565   21.0253 C   0  0  0  0  0  0  0  0  0  0  0  0
   12.1617  -10.1135   21.1743 C   0  0  0  0  0  0  0  0  0  0  0  0
   12.4437  -10.5715   22.3923 C   0  0  0  0  0  0  0  0  0  0  0  0
   12.0177   -9.8185   23.6263 C   0  0  0  0  0  0  0  0  0  0  0  0
   11.6127  -10.5005   24.9003 C   0  0  0  0  0  0  0  0  0  0  0  0
   12.0527  -11.5595   25.3253 O   0  0  0  0  0  0  0  0  0  0  0  0
    9.3427  -11.3795   26.7333 C   0  0  0  0  0  0  0  0  0  0  0  0
    8.9127  -11.8385   25.6883 O   0  0  0  0  0  0  0  0  0  0  0  0
    9.1947  -12.0005   27.9243 N   0  0  0  0  0  0  0  0  0  0  0  0
    9.4107   -9.3615   27.0043 H   0  0  0  0  0  0  0  0  0  0  0  0
    9.8737   -9.6975   23.1263 H   0  0  0  0  0  0  0  0  0  0  0  0
   12.8707   -9.3165   23.7673 H   0  0  0  0  0  0  0  0  0  0  0  0
   11.1117  -10.3985   29.9153 H   0  0  0  0  0  0  0  0  0  0  0  0
    9.7987   -9.5845   29.3293 H   0  0  0  0  0  0  0  0  0  0  0  0
   11.8417  -10.7865   27.6813 H   0  0  0  0  0  0  0  0  0  0  0  0
   11.6677   -9.2025   27.8883 H   0  0  0  0  0  0  0  0  0  0  0  0
   10.8437   -7.7145   24.9513 H   0  0  0  0  0  0  0  0  0  0  0  0
    9.3767   -8.1535   24.8393 H   0  0  0  0  0  0  0  0  0  0  0  0
    9.2367   -7.1995   22.5213 H   0  0  0  0  0  0  0  0  0  0  0  0
    9.9537   -5.2255   21.6863 H   0  0  0  0  0  0  0  0  0  0  0  0
   11.1187   -6.0385   20.8663 H   0  0  0  0  0  0  0  0  0  0  0  0
   12.4907   -5.2165   22.4013 H   0  0  0  0  0  0  0  0  0  0  0  0
   11.9127   -6.4185   23.3393 H   0  0  0  0  0  0  0  0  0  0  0  0
   10.4737   -3.9345   23.2703 H   0  0  0  0  0  0  0  0  0  0  0  0
   11.7957   -4.0415   24.2223 H   0  0  0  0  0  0  0  0  0  0  0  0
   10.7967   -5.4335   25.6723 H   0  0  0  0  0  0  0  0  0  0  0  0
    9.9157   -6.1595   24.5153 H   0  0  0  0  0  0  0  0  0  0  0  0
    9.3417   -3.6295   25.7903 H   0  0  0  0  0  0  0  0  0  0  0  0
    8.3657   -4.9445   25.7253 H   0  0  0  0  0  0  0  0  0  0  0  0
    7.5837   -4.4185   23.6973 H   0  0  0  0  0  0  0  0  0  0  0  0
    8.9997   -3.8415   23.1833 H   0  0  0  0  0  0  0  0  0  0  0  0
    7.2037   -2.3715   24.7833 H   0  0  0  0  0  0  0  0  0  0  0  0
    6.7067   -0.6325   25.5253 H   0  0  0  0  0  0  0  0  0  0  0  0
    6.2237    1.5005   26.3513 H   0  0  0  0  0  0  0  0  0  0  0  0
    9.1667    3.1105   24.1533 H   0  0  0  0  0  0  0  0  0  0  0  0
   10.6207    0.3715   23.1143 H   0  0  0  0  0  0  0  0  0  0  0  0
   12.0047    0.9085   21.5223 H   0  0  0  0  0  0  0  0  0  0  0  0
   11.6597    2.1335   20.5043 H   0  0  0  0  0  0  0  0  0  0  0  0
   11.1307   -1.3335   21.1063 H   0  0  0  0  0  0  0  0  0  0  0  0
   10.2927   -2.8845   19.5153 H   0  0  0  0  0  0  0  0  0  0  0  0
    9.4317   -2.1125   17.4393 H   0  0  0  0  0  0  0  0  0  0  0  0
   10.2497    1.7675   18.5483 H   0  0  0  0  0  0  0  0  0  0  0  0
   11.4587   -8.3585   20.1583 H   0  0  0  0  0  0  0  0  0  0  0  0
   12.4497  -10.6265   20.3653 H   0  0  0  0  0  0  0  0  0  0  0  0
   12.9467  -11.4305   22.4903 H   0  0  0  0  0  0  0  0  0  0  0  0
    8.7527  -12.7615   27.9013 H   0  0  0  0  0  0  0  0  0  0  0  0
  1  2  2  0
  2  3  1  0
  2 45  1  0
  3  4  1  0
  4  5  1  0
  5  6  1  0
  5 43  1  0
  6  7  1  0
  6 41  1  0
  7  8  1  0
  8  9  1  0
  8 40  1  0
  9 10  1  0
  9 37  2  0
 10 11  1  0
 11 12  1  0
 12 13  1  0
 13 14  1  0
 14 15  1  0
 15 16  1  0
 16 17  1  0
 17 18  1  0
 18 19  2  0
 18 20  1  0
 20 21  2  0
 20 25  1  0
 21 22  1  0
 22 23  2  0
 23 24  1  0
 24 25  2  0
 25 26  1  0
 26 27  1  0
 27 28  2  0
 27 29  1  0
 29 30  1  0
 30 31  2  0
 30 36  1  0
 31 32  1  0
 32 33  2  0
 33 34  1  0
 34 35  1  0
 34 36  2  0
 37 38  1  0
 38 39  2  0
 39 40  1  0
 40 41  1  0
 41 42  2  0
 43 44  2  0
 43 45  1  0
  3 49  1  0
  3 50  1  0
  4 51  1  0
  4 52  1  0
  5 46  1  0
  7 53  1  0
  7 54  1  0
  8 47  1  0
 10 55  1  0
 11 56  1  0
 11 57  1  0
 12 58  1  0
 12 59  1  0
 13 60  1  0
 13 61  1  0
 14 62  1  0
 14 63  1  0
 15 64  1  0
 15 65  1  0
 16 66  1  0
 16 67  1  0
 17 68  1  0
 21 69  1  0
 22 70  1  0
 24 71  1  0
 26 72  1  0
 29 73  1  0
 29 74  1  0
 31 75  1  0
 32 76  1  0
 33 77  1  0
 36 78  1  0
 37 79  1  0
 38 80  1  0
 39 81  1  0
 40 48  1  0
 45 82  1  0
M  END
>  <BioMolTech Lead Finder dG>
-9.111

>  <BioMolTech Lead Finder VSscore>
-10.251

>  <BioMolTech Lead Finder Rank score>
-3.386

>  <BioMolTech Lead Finder LE>
-0.202

>  <BioMolTech Lead Finder Structure Name>
/var/folders/xd/y7jw_xv579q2qqq7kks92xd80000gn/T/LeadFinder_39840_1/Ligand_1.sdf

>  <BioMolTech Lead Finder SDF id>
0

>  <BioMolTech Lead Finder Pose rank>
0

>  <BioMolTech Lead Finder version>
2001 1, 19 January 2019

>  <LF dG>
-9.111

>  <LF VSscore>
-10.251

>  <LF Rank Score>
-3.386

>  <LF LE>
-0.202

>  <Preferred Pose_cresset>
true

>  <Favorite_cresset>
false

>  <Protein_cresset>
6Y2F_P

>  <MW_cresset>
633.1

>  <#Atoms_cresset>
45

>  <SlogP_cresset>
2.9

>  <TPSA_cresset>
149.6

>  <Flexibility_cresset>
10.4

>  <#RB_cresset>
13

>  <Rof5_cresset>
2

>  <Filename_cresset>
DAR-DIA-9e4459de-1.mol

>  <Confs_cresset>
0

>  <Poses_cresset>
10

>  <_cresset_fieldpoints>
    -5      13.089725     -12.736519      24.597326    -12.8325
    -5       9.889726     -12.230518      31.883327     -7.9510
    -5       9.777725     -12.251518      24.068327    -11.3645
    -5      14.269726      -8.736518      21.544327     -4.0720
    -5       7.724726       3.362482      21.774326    -10.9345
    -5       6.979726       4.345482      25.566326     -6.9655
    -5       8.992725       3.810482      20.279327    -10.2770
    -5      12.781725      -0.696518      17.406326     -2.9445
    -6       5.887726      -2.531518      26.240326     11.1195
    -6      12.404726      -0.570518      23.204327      8.5310
    -6       8.894726      -7.164518      26.983326     11.3665
    -6       7.733726      -6.898518      23.755327     13.9720
    -6       6.994725     -13.683517      28.004326      3.3455
    -7       8.639726     -10.658518      31.877327     -1.1390
    -7       7.161726     -10.072517      28.384327     -2.0215
    -7       7.300725      -7.009518      24.056326     -2.6950
    -7       7.632726     -10.256517      24.431326     -2.3250
    -7      13.158726      -7.206518      25.534327     -2.9915
    -7      13.932726      -7.669518      21.981327     -2.8905
    -7      11.514726     -13.273518      26.979326     -2.4860
    -7       8.137726      -9.095518      21.033327     -1.8870
    -7       8.732725      -7.881518      19.844326     -1.9280
    -7       7.360725      -8.683518      23.227327     -1.9115
    -7      12.816726      -3.695518      20.380327     -2.1995
    -7       7.790726      -2.249518      27.321327     -2.1735
    -7       9.886725      -6.914518      27.637327     -2.9365
    -7       7.666725      -0.156518      21.055326     -3.5895
    -7      11.984726      -1.574518      23.352327     -3.3910
    -7       9.731726       3.982481      19.625326     -1.9265
    -7      11.280725      -1.542518      24.861326     -3.3320
    -7      12.171725       2.285482      24.068327     -2.0510
    -7      13.263725      -0.632518      17.799326     -1.8635
    -7       9.849726     -12.349518      23.559326     -2.6205
    -7      14.441725     -11.595518      24.818327     -1.6405
    -8      10.339725     -10.261518      28.053326      5.5775
    -8      11.573726      -9.496518      22.344326      7.0625
    -8       9.742725      -4.527518      24.289326      6.3465
    -8      10.794725      -5.301518      23.640326      6.0240
    -8      10.272725      -0.556518      19.034327      7.1895
    -8       8.002726       0.809482      24.698326      5.3715
    -8       9.689726      -0.033518      17.632326      5.6065

$$$$
W_VTRRT_D
  xed2sdf_05210316543D
 
 92 97  0  0  1  0  0  0  0  0999 V2000
    9.3665   -0.9055   16.0554 C   0  0  0  0  0  0  0  0  0  0  0  0
    9.6465    0.1815   16.8514 C   0  0  0  0  0  0  0  0  0  0  0  0
   10.5305    0.0655   17.9024 C   0  0  0  0  0  0  0  0  0  0  0  0
   11.1315   -1.1485   18.1494 C   0  0  0  0  0  0  0  0  0  0  0  0
   10.8535   -2.2375   17.3544 C   0  0  0  0  0  0  0  0  0  0  0  0
    9.9705   -2.1155   16.3064 C   0  0  0  0  0  0  0  0  0  0  0  0
   10.8385    1.2665   18.7864 C   0  0  0  0  0  0  0  0  0  0  0  0
   10.6255    1.0525   20.3024 C   0  0  0  0  0  0  0  0  0  0  0  0
    9.2605    1.5545   20.6914 N   0  3  0  0  0  0  0  0  0  0  0  0
   11.7245    1.7795   21.1134 C   0  0  0  0  0  0  0  0  0  0  0  0
   12.1875    2.9575   20.4314 O   0  0  0  0  0  0  0  0  0  0  0  0
   12.9265    0.8475   21.3874 C   0  0  0  0  0  0  0  0  0  0  0  0
   13.0865    0.5485   22.8934 C   0  0  0  0  0  0  0  0  0  0  0  0
   14.5705    0.6415   23.3084 C   0  0  0  0  0  0  0  0  0  0  0  0
   14.8495    1.2055   24.6944 C   0  0  0  0  0  0  0  0  0  0  0  0
   15.5835    2.3625   24.8314 C   0  0  0  0  0  0  0  0  0  0  0  0
   15.8415    2.8785   26.0814 C   0  0  0  0  0  0  0  0  0  0  0  0
   15.3655    2.2365   27.2014 C   0  0  0  0  0  0  0  0  0  0  0  0
   14.6315    1.0795   27.0694 C   0  0  0  0  0  0  0  0  0  0  0  0
   14.3755    0.5655   25.8194 C   0  0  0  0  0  0  0  0  0  0  0  0
   12.5565   -0.7985   23.1484 N   0  0  0  0  0  0  0  0  0  0  0  0
   11.2625   -0.8445   23.9174 P   0  0  0  0  0  0  0  0  0  0  0  0
   10.3595   -2.0425   23.3374 O   0  0  0  0  0  0  0  0  0  0  0  0
   10.3805    0.4765   23.6454 O   0  0  0  0  0  0  0  0  0  0  0  0
   11.4945   -1.0405   25.3924 O   0  0  0  0  0  0  0  0  0  0  0  0
    9.2955   -2.5535   24.1564 C   0  0  0  0  0  0  0  0  0  0  0  0
    9.1725    0.6675   24.2534 C   0  0  0  0  0  0  0  0  0  0  0  0
    8.1295    1.2945   23.5974 C   0  0  0  0  0  0  0  0  0  0  0  0
    6.9255    1.4835   24.2344 C   0  0  0  0  0  0  0  0  0  0  0  0
    6.7535    1.0475   25.5284 C   0  0  0  0  0  0  0  0  0  0  0  0
    7.7885    0.4225   26.1874 C   0  0  0  0  0  0  0  0  0  0  0  0
    8.9945    0.2365   25.5534 C   0  0  0  0  0  0  0  0  0  0  0  0
    9.8505   -3.4355   25.2894 C   0  0  0  0  0  0  0  0  0  0  0  0
   10.6955   -4.4695   24.7464 O   0  0  0  0  0  0  0  0  0  0  0  0
   10.0675   -5.7645   24.8644 C   0  0  0  0  0  0  0  0  0  0  0  0
    8.6155   -5.4985   25.3204 C   0  0  0  0  0  0  0  0  0  0  0  0
    8.7225   -4.1555   26.0524 C   0  0  0  0  0  0  0  0  0  0  0  0
    7.4765   -3.4415   26.0514 O   0  0  0  0  0  0  0  0  0  0  0  0
    7.7265   -5.3485   24.2014 O   0  0  0  0  0  0  0  0  0  0  0  0
   10.2025   -6.5465   23.5634 C   0  0  0  0  0  0  0  0  0  0  0  0
   10.7825   -6.4995   25.9204 C   0  0  0  0  0  0  0  0  0  0  0  0
   11.3355   -7.0645   26.7354 N   0  0  0  0  0  0  0  0  0  0  0  0
   10.4205   -5.9485   22.3654 N   0  0  0  0  0  0  0  0  0  0  0  0
   10.4775   -6.9655   21.4654 C   0  0  0  0  0  0  0  0  0  0  0  0
   10.3045   -8.1685   22.0694 C   0  0  0  0  0  0  0  0  0  0  0  0
   10.1275   -7.8875   23.4264 C   0  0  0  0  0  0  0  0  0  0  0  0
   10.5715   -4.6485   21.9714 N   0  0  0  0  0  0  0  0  0  0  0  0
   10.7725   -4.4185   20.6944 C   0  0  0  0  0  0  0  0  0  0  0  0
   10.8475   -5.3605   19.7004 N   0  0  0  0  0  0  0  0  0  0  0  0
   10.6975   -6.6305   20.1034 C   0  0  0  0  0  0  0  0  0  0  0  0
   10.7655   -7.6085   19.1394 N   0  0  0  0  0  0  0  0  0  0  0  0
   10.6865    0.0755   20.5074 H   0  0  0  0  0  0  0  0  0  0  0  0
   11.3125    2.0475   21.9844 H   0  0  0  0  0  0  0  0  0  0  0  0
   12.5815    1.2215   23.4354 H   0  0  0  0  0  0  0  0  0  0  0  0
   10.3535   -2.8285   25.9044 H   0  0  0  0  0  0  0  0  0  0  0  0
    8.2525   -6.2475   25.8734 H   0  0  0  0  0  0  0  0  0  0  0  0
    8.9275   -4.2445   27.0264 H   0  0  0  0  0  0  0  0  0  0  0  0
    8.7235   -0.8155   15.2944 H   0  0  0  0  0  0  0  0  0  0  0  0
    9.2055    1.0605   16.6664 H   0  0  0  0  0  0  0  0  0  0  0  0
   11.7735   -1.2405   18.9104 H   0  0  0  0  0  0  0  0  0  0  0  0
   11.2935   -3.1165   17.5384 H   0  0  0  0  0  0  0  0  0  0  0  0
    9.7685   -2.9055   15.7284 H   0  0  0  0  0  0  0  0  0  0  0  0
   10.2525    2.0225   18.4944 H   0  0  0  0  0  0  0  0  0  0  0  0
   11.8155    1.4465   18.6714 H   0  0  0  0  0  0  0  0  0  0  0  0
    8.8645    1.0325   21.3214 H   0  0  0  0  0  0  0  0  0  0  0  0
    8.6905    1.5715   19.9824 H   0  0  0  0  0  0  0  0  0  0  0  0
    9.2925    2.4005   21.0244 H   0  0  0  0  0  0  0  0  0  0  0  0
   12.9805    3.3665   20.8964 H   0  0  0  0  0  0  0  0  0  0  0  0
   13.7605    1.2845   21.0504 H   0  0  0  0  0  0  0  0  0  0  0  0
   12.7625   -0.0185   20.9144 H   0  0  0  0  0  0  0  0  0  0  0  0
   15.0395    1.2205   22.6404 H   0  0  0  0  0  0  0  0  0  0  0  0
   14.8995   -0.3025   23.3344 H   0  0  0  0  0  0  0  0  0  0  0  0
   15.9315    2.8305   24.0184 H   0  0  0  0  0  0  0  0  0  0  0  0
   16.3755    3.7185   26.1754 H   0  0  0  0  0  0  0  0  0  0  0  0
   15.5525    2.6095   28.1094 H   0  0  0  0  0  0  0  0  0  0  0  0
   14.2845    0.6125   27.8834 H   0  0  0  0  0  0  0  0  0  0  0  0
   13.8425   -0.2755   25.7264 H   0  0  0  0  0  0  0  0  0  0  0  0
   12.4815   -1.3325   22.2744 H   0  0  0  0  0  0  0  0  0  0  0  0
    8.6755   -3.0955   23.5894 H   0  0  0  0  0  0  0  0  0  0  0  0
    8.8065   -1.7815   24.5634 H   0  0  0  0  0  0  0  0  0  0  0  0
    8.2505    1.6105   22.6564 H   0  0  0  0  0  0  0  0  0  0  0  0
    6.1745    1.9395   23.7574 H   0  0  0  0  0  0  0  0  0  0  0  0
    5.8765    1.1835   25.9904 H   0  0  0  0  0  0  0  0  0  0  0  0
    7.6635    0.1045   27.1264 H   0  0  0  0  0  0  0  0  0  0  0  0
    9.7455   -0.2135   26.0354 H   0  0  0  0  0  0  0  0  0  0  0  0
    7.2625   -3.0765   26.9644 H   0  0  0  0  0  0  0  0  0  0  0  0
    8.2285   -5.1025   23.3654 H   0  0  0  0  0  0  0  0  0  0  0  0
   10.3045   -9.0685   21.6334 H   0  0  0  0  0  0  0  0  0  0  0  0
    9.9735   -8.5525   24.1574 H   0  0  0  0  0  0  0  0  0  0  0  0
   10.8815   -3.4625   20.4204 H   0  0  0  0  0  0  0  0  0  0  0  0
   10.9025   -7.3855   18.2994 H   0  0  0  0  0  0  0  0  0  0  0  0
   10.6715   -8.4565   19.3574 H   0  0  0  0  0  0  0  0  0  0  0  0
  1  2  2  0
  2  3  1  0
  3  4  2  0
  3  7  1  0
  4  5  1  0
  5  6  2  0
  6  1  1  0
  7  8  1  0
  8  9  1  0
  8 10  1  0
 10 11  1  0
 10 12  1  0
 12 13  1  0
 13 14  1  0
 13 21  1  0
 14 15  1  0
 15 16  2  0
 16 17  1  0
 17 18  2  0
 18 19  1  0
 19 20  2  0
 20 15  1  0
 21 22  1  0
 22 23  1  0
 22 24  1  0
 22 25  2  0
 23 26  1  0
 24 27  1  0
 27 28  2  0
 28 29  1  0
 29 30  2  0
 30 31  1  0
 31 32  2  0
 32 27  1  0
 33 26  1  0
 33 34  1  0
 34 35  1  0
 35 36  1  0
 35 40  1  0
 35 41  1  0
 36 37  1  0
 36 39  1  0
 37 33  1  0
 37 38  1  0
 40 43  1  0
 41 42  3  0
 43 44  1  0
 43 47  1  0
 44 45  2  0
 45 46  1  0
 46 40  2  0
 47 48  2  0
 48 49  1  0
 49 50  2  0
 50 44  1  0
 50 51  1  0
  1 58  1  0
  2 59  1  0
  4 60  1  0
  5 61  1  0
  6 62  1  0
  7 63  1  0
  7 64  1  0
  8 52  1  0
  9 65  1  0
  9 66  1  0
  9 67  1  0
 10 53  1  0
 11 68  1  0
 12 69  1  0
 12 70  1  0
 13 54  1  0
 14 71  1  0
 14 72  1  0
 16 73  1  0
 17 74  1  0
 18 75  1  0
 19 76  1  0
 20 77  1  0
 21 78  1  0
 26 79  1  0
 26 80  1  0
 28 81  1  0
 29 82  1  0
 30 83  1  0
 31 84  1  0
 32 85  1  0
 33 55  1  0
 36 56  1  0
 37 57  1  0
 38 86  1  0
 39 87  1  0
 45 88  1  0
 46 89  1  0
 48 90  1  0
 51 91  1  0
 51 92  1  0
M  CHG  1   9   1
M  END
>  <BioMolTech Lead Finder dG>
-7.626

>  <BioMolTech Lead Finder VSscore>
-13.117

>  <BioMolTech Lead Finder Rank score>
-13.693

>  <BioMolTech Lead Finder LE>
-0.15

>  <BioMolTech Lead Finder Structure Name>
/var/folders/xd/y7jw_xv579q2qqq7kks92xd80000gn/T/LeadFinder_28737_1/Ligand_1.sdf

>  <BioMolTech Lead Finder SDF id>
0

>  <BioMolTech Lead Finder Pose rank>
0

>  <BioMolTech Lead Finder version>
2001 1, 19 January 2019

>  <LF dG>
-7.626

>  <LF VSscore>
-13.117

>  <LF Rank Score>
-13.693

>  <LF LE>
-0.15

>  <Preferred Pose_cresset>
true

>  <Favorite_cresset>
false

>  <Protein_cresset>
6Y2F_P

>  <MW_cresset>
714.7

>  <#Atoms_cresset>
51

>  <SlogP_cresset>
4

>  <TPSA_cresset>
225.1

>  <Flexibility_cresset>
17.1

>  <#RB_cresset>
18

>  <Rof5_cresset>
3

>  <Filename_cresset>
VTRRT-13V2.1.sdf

>  <Confs_cresset>
0

>  <Poses_cresset>
10

>  <_cresset_fieldpoints>
    -5      12.385463      -0.237464      15.438427     -4.1335
    -5       8.266462      -2.170464      18.866426     -4.1130
    -5       9.631463      -4.869464      18.306427     -7.4405
    -5       6.302659      -4.185937      24.734953    -20.9689
    -5      11.600933      -3.674891      23.258038    -17.7102
    -5      12.360463      -5.061464      18.565428     -6.7170
    -5      11.880463       2.240535      25.851427     -4.0240
    -5       8.995462       3.364536      25.873426     -3.3150
    -5      11.292463       4.146536      19.227427    -10.5255
    -5      17.421463       0.103536      26.097427     -4.0800
    -5      12.641463      -7.912464      27.849426    -12.6200
    -5      13.686462      -2.435464      23.925426     -5.8395
    -5       9.533463      -1.978464      21.611427     -6.8675
    -5      12.294463      -1.671464      27.013428     -4.7570
    -6       8.310463      -2.070464      28.178427     11.8515
    -6      12.536463      -2.070464      20.632427     10.0220
    -6      10.456463     -10.290464      19.859426     11.3040
    -6      10.823462      -9.476464      17.745426     10.0865
    -6       8.329463       3.902536      21.875427      4.3790
    -6      14.566463       3.436536      21.935427     12.0245
    -6       7.774463       2.225536      18.342426      5.2615
    -6       8.584463      -8.467464      25.875427      4.1885
    -6       7.629463      -4.468464      21.661427      4.0580
    -7       7.999463      -2.867464      13.644427     -0.9695
    -7       7.858463       2.819535      17.973427     -1.8325
    -7       6.653463       2.709536      20.978428     -1.8985
    -7      14.105463       0.208536      18.496428     -2.4610
    -7      13.306463      -2.368464      20.653427     -3.0165
    -7      12.423463      -5.242464      17.674427     -1.9375
    -7      12.786463       0.048536      15.370427     -1.8515
    -7      10.317463       4.387536      19.754427     -2.1040
    -7      14.010463       2.693536      18.829428     -2.1690
    -7      14.805463       3.715536      21.952427     -2.4920
    -7      13.921463      -2.575464      24.632427     -2.8555
    -7      13.010463       3.813535      23.281427     -3.0295
    -7      16.985462       4.893536      28.567427     -0.9685
    -7      14.410463       1.638536      30.407427     -0.9720
    -7      11.689463       2.467536      25.378428     -3.7585
    -7      11.617463      -0.611464      27.597427     -2.8860
    -7       9.413463      -1.781464      28.151428     -2.4615
    -7      17.759462      -0.156464      25.821426     -1.8400
    -7       3.685463       2.321536      24.816427     -0.9695
    -7       6.186463      -2.155464      24.557426     -3.0465
    -7       9.302463       3.663536      25.892427     -1.7955
    -7       8.898463      -6.467464      28.542427     -1.6390
    -7      11.629463      -4.073464      27.890427     -1.8810
    -7       7.587463      -5.390464      21.383427     -2.5495
    -7      13.062463      -9.052464      20.268427     -1.5190
    -7       8.996463      -1.542464      21.207428     -4.3905
    -7       8.487463      -8.828465      26.202427     -1.8655
    -7      12.496463      -3.872464      23.380426     -3.9240
    -7       9.406463      -5.249464      17.466427     -2.1000
    -7       8.057463      -8.679464      19.550426     -1.5225
    -8      10.250463      -1.022464      17.108427      7.1965
    -8      10.896463       0.203536      18.884426      5.7105
    -8      12.547462       1.110536      21.878428      5.2005
    -8      11.792463       0.808536      20.841427      5.1660
    -8       7.932463       0.851536      24.905428      7.0670
    -8      13.738462       0.943536      22.386427      5.2870
    -8      15.105463       1.718536      25.942427      7.1905
    -8      10.065463      -6.928464      24.562428      4.8145
    -8       9.397463      -5.239464      25.862427      4.6550
    -8       9.159463      -3.136464      25.165428      4.0770
    -8      10.244463      -7.720465      22.706427      4.9330

$$$$
VTRRT_D
  xed2sdf_05210316543D
 
 92 97  0  0  1  0  0  0  0  0999 V2000
    7.7142   -3.0509   25.8118 C   0  0  0  0  0  0  0  0  0  0  0  0
    7.3732   -1.8599   25.2128 C   0  0  0  0  0  0  0  0  0  0  0  0
    8.3502   -0.9589   24.8478 C   0  0  0  0  0  0  0  0  0  0  0  0
    9.6732   -1.2619   25.0878 C   0  0  0  0  0  0  0  0  0  0  0  0
   10.0162   -2.4519   25.6858 C   0  0  0  0  0  0  0  0  0  0  0  0
    9.0372   -3.3479   26.0478 C   0  0  0  0  0  0  0  0  0  0  0  0
    7.9752    0.3601   24.1878 C   0  0  0  0  0  0  0  0  0  0  0  0
    9.1022    1.4161   24.1158 C   0  0  0  0  0  0  0  0  0  0  0  0
    8.6222    2.7021   24.7348 N   0  3  0  0  0  0  0  0  0  0  0  0
    9.5372    1.6471   22.6488 C   0  0  0  0  0  0  0  0  0  0  0  0
    9.0642    0.5961   21.7888 O   0  0  0  0  0  0  0  0  0  0  0  0
   11.0752    1.7441   22.5308 C   0  0  0  0  0  0  0  0  0  0  0  0
   11.5112    3.0261   21.7898 C   0  0  0  0  0  0  0  0  0  0  0  0
   11.1432    4.2791   22.6148 C   0  0  0  0  0  0  0  0  0  0  0  0
   12.0072    4.5561   23.8378 C   0  0  0  0  0  0  0  0  0  0  0  0
   12.5172    5.8191   24.0478 C   0  0  0  0  0  0  0  0  0  0  0  0
   13.3002    6.0781   25.1488 C   0  0  0  0  0  0  0  0  0  0  0  0
   13.5772    5.0731   26.0468 C   0  0  0  0  0  0  0  0  0  0  0  0
   13.0712    3.8101   25.8418 C   0  0  0  0  0  0  0  0  0  0  0  0
   12.2882    3.5531   24.7388 C   0  0  0  0  0  0  0  0  0  0  0  0
   10.8382    3.0471   20.4828 N   0  0  0  0  0  0  0  0  0  0  0  0
   11.7502    3.1971   19.2938 P   0  0  0  0  0  0  0  0  0  0  0  0
   12.0482    4.7611   19.0658 O   0  0  0  0  0  0  0  0  0  0  0  0
   11.0132    2.7381   17.9368 O   0  0  0  0  0  0  0  0  0  0  0  0
   13.0442    2.4481   19.4818 O   0  0  0  0  0  0  0  0  0  0  0  0
   12.9282    5.4301   19.9848 C   0  0  0  0  0  0  0  0  0  0  0  0
   10.5322    1.4701   17.7778 C   0  0  0  0  0  0  0  0  0  0  0  0
    9.3772    1.2251   17.0568 C   0  0  0  0  0  0  0  0  0  0  0  0
    8.9072   -0.0599   16.9208 C   0  0  0  0  0  0  0  0  0  0  0  0
    9.5862   -1.1089   17.4978 C   0  0  0  0  0  0  0  0  0  0  0  0
   10.7362   -0.8709   18.2168 C   0  0  0  0  0  0  0  0  0  0  0  0
   11.2052    0.4131   18.3588 C   0  0  0  0  0  0  0  0  0  0  0  0
   14.3832    5.3861   19.4808 C   0  0  0  0  0  0  0  0  0  0  0  0
   15.0752    4.2641   20.0618 O   0  0  0  0  0  0  0  0  0  0  0  0
   16.0602    4.7051   21.0218 C   0  0  0  0  0  0  0  0  0  0  0  0
   15.8142    6.2171   21.2238 C   0  0  0  0  0  0  0  0  0  0  0  0
   15.1662    6.6431   19.9018 C   0  0  0  0  0  0  0  0  0  0  0  0
   14.3462    7.8121   20.0558 O   0  0  0  0  0  0  0  0  0  0  0  0
   14.8922    6.4671   22.2958 O   0  0  0  0  0  0  0  0  0  0  0  0
   15.9862    3.8651   22.2918 C   0  0  0  0  0  0  0  0  0  0  0  0
   17.3832    4.5041   20.4118 C   0  0  0  0  0  0  0  0  0  0  0  0
   18.4062    4.3491   19.9428 N   0  0  0  0  0  0  0  0  0  0  0  0
   16.5482    4.2531   23.4638 N   0  0  0  0  0  0  0  0  0  0  0  0
   16.2712    3.2521   24.3398 C   0  0  0  0  0  0  0  0  0  0  0  0
   15.5552    2.2621   23.7468 C   0  0  0  0  0  0  0  0  0  0  0  0
   15.3762    2.6681   22.4218 C   0  0  0  0  0  0  0  0  0  0  0  0
   17.2602    5.3531   23.8518 N   0  0  0  0  0  0  0  0  0  0  0  0
   17.6662    5.4071   25.0988 C   0  0  0  0  0  0  0  0  0  0  0  0
   17.4472    4.4601   26.0668 N   0  0  0  0  0  0  0  0  0  0  0  0
   16.7472    3.3871   25.6698 C   0  0  0  0  0  0  0  0  0  0  0  0
   16.5052    2.4121   26.6078 N   0  0  0  0  0  0  0  0  0  0  0  0
    9.8962    1.0841   24.6238 H   0  0  0  0  0  0  0  0  0  0  0  0
    9.1302    2.5131   22.3588 H   0  0  0  0  0  0  0  0  0  0  0  0
   12.5032    3.0321   21.6618 H   0  0  0  0  0  0  0  0  0  0  0  0
   14.3392    5.3211   18.4838 H   0  0  0  0  0  0  0  0  0  0  0  0
   16.6562    6.7071   21.4528 H   0  0  0  0  0  0  0  0  0  0  0  0
   15.8252    6.9241   19.2028 H   0  0  0  0  0  0  0  0  0  0  0  0
    7.0012   -3.6999   26.0758 H   0  0  0  0  0  0  0  0  0  0  0  0
    6.4112   -1.6459   25.0418 H   0  0  0  0  0  0  0  0  0  0  0  0
   10.3872   -0.6119   24.8258 H   0  0  0  0  0  0  0  0  0  0  0  0
   10.9782   -2.6669   25.8568 H   0  0  0  0  0  0  0  0  0  0  0  0
    9.2852   -4.2129   26.4828 H   0  0  0  0  0  0  0  0  0  0  0  0
    7.2122    0.7561   24.7008 H   0  0  0  0  0  0  0  0  0  0  0  0
    7.7502    0.1371   23.2398 H   0  0  0  0  0  0  0  0  0  0  0  0
    8.3062    2.5861   25.5788 H   0  0  0  0  0  0  0  0  0  0  0  0
    7.9422    3.0751   24.2588 H   0  0  0  0  0  0  0  0  0  0  0  0
    9.2852    3.3251   24.7798 H   0  0  0  0  0  0  0  0  0  0  0  0
    8.1442    0.7951   21.4348 H   0  0  0  0  0  0  0  0  0  0  0  0
   11.4142    0.9471   22.0318 H   0  0  0  0  0  0  0  0  0  0  0  0
   11.4572    1.7741   23.4538 H   0  0  0  0  0  0  0  0  0  0  0  0
   10.1982    4.1751   22.9238 H   0  0  0  0  0  0  0  0  0  0  0  0
   11.2922    5.0551   22.0028 H   0  0  0  0  0  0  0  0  0  0  0  0
   12.3172    6.5511   23.3958 H   0  0  0  0  0  0  0  0  0  0  0  0
   13.6672    6.9961   25.2968 H   0  0  0  0  0  0  0  0  0  0  0  0
   14.1462    5.2601   26.8478 H   0  0  0  0  0  0  0  0  0  0  0  0
   13.2722    3.0791   26.4938 H   0  0  0  0  0  0  0  0  0  0  0  0
   11.9222    2.6341   24.5918 H   0  0  0  0  0  0  0  0  0  0  0  0
   10.0962    3.7571   20.4658 H   0  0  0  0  0  0  0  0  0  0  0  0
   12.8742    4.9821   20.8768 H   0  0  0  0  0  0  0  0  0  0  0  0
   12.6452    6.3861   20.0588 H   0  0  0  0  0  0  0  0  0  0  0  0
    8.8832    1.9841   16.6338 H   0  0  0  0  0  0  0  0  0  0  0  0
    8.0712   -0.2329   16.3998 H   0  0  0  0  0  0  0  0  0  0  0  0
    9.2442   -2.0429   17.3958 H   0  0  0  0  0  0  0  0  0  0  0  0
   11.2302   -1.6329   18.6358 H   0  0  0  0  0  0  0  0  0  0  0  0
   12.0382    0.5831   18.8848 H   0  0  0  0  0  0  0  0  0  0  0  0
   13.7682    7.9631   19.2458 H   0  0  0  0  0  0  0  0  0  0  0  0
   15.0192    7.3881   22.6818 H   0  0  0  0  0  0  0  0  0  0  0  0
   15.2252    1.4181   24.1708 H   0  0  0  0  0  0  0  0  0  0  0  0
   14.8892    2.1671   21.7068 H   0  0  0  0  0  0  0  0  0  0  0  0
   18.1852    6.2181   25.3698 H   0  0  0  0  0  0  0  0  0  0  0  0
   16.8062    2.5101   27.4288 H   0  0  0  0  0  0  0  0  0  0  0  0
   16.0492    1.6901   26.3918 H   0  0  0  0  0  0  0  0  0  0  0  0
  1  2  2  0
  2  3  1  0
  3  4  2  0
  3  7  1  0
  4  5  1  0
  5  6  2  0
  6  1  1  0
  7  8  1  0
  8  9  1  0
  8 10  1  0
 10 11  1  0
 10 12  1  0
 12 13  1  0
 13 14  1  0
 13 21  1  0
 14 15  1  0
 15 16  2  0
 16 17  1  0
 17 18  2  0
 18 19  1  0
 19 20  2  0
 20 15  1  0
 21 22  1  0
 22 23  1  0
 22 24  1  0
 22 25  2  0
 23 26  1  0
 24 27  1  0
 27 28  2  0
 28 29  1  0
 29 30  2  0
 30 31  1  0
 31 32  2  0
 32 27  1  0
 33 26  1  0
 33 34  1  0
 34 35  1  0
 35 36  1  0
 35 40  1  0
 35 41  1  0
 36 37  1  0
 36 39  1  0
 37 33  1  0
 37 38  1  0
 40 43  1  0
 41 42  3  0
 43 44  1  0
 43 47  1  0
 44 45  2  0
 45 46  1  0
 46 40  2  0
 47 48  2  0
 48 49  1  0
 49 50  2  0
 50 44  1  0
 50 51  1  0
  1 58  1  0
  2 59  1  0
  4 60  1  0
  5 61  1  0
  6 62  1  0
  7 63  1  0
  7 64  1  0
  8 52  1  0
  9 65  1  0
  9 66  1  0
  9 67  1  0
 10 53  1  0
 11 68  1  0
 12 69  1  0
 12 70  1  0
 13 54  1  0
 14 71  1  0
 14 72  1  0
 16 73  1  0
 17 74  1  0
 18 75  1  0
 19 76  1  0
 20 77  1  0
 21 78  1  0
 26 79  1  0
 26 80  1  0
 28 81  1  0
 29 82  1  0
 30 83  1  0
 31 84  1  0
 32 85  1  0
 33 55  1  0
 36 56  1  0
 37 57  1  0
 38 86  1  0
 39 87  1  0
 45 88  1  0
 46 89  1  0
 48 90  1  0
 51 91  1  0
 51 92  1  0
M  CHG  1   9   1
M  END
>  <BioMolTech Lead Finder dG>
-6.739

>  <BioMolTech Lead Finder VSscore>
-12.988

>  <BioMolTech Lead Finder Rank score>
-12.216

>  <BioMolTech Lead Finder LE>
-0.132

>  <BioMolTech Lead Finder Structure Name>
/var/folders/xd/y7jw_xv579q2qqq7kks92xd80000gn/T/LeadFinder_27152_1/Ligand_1.sdf

>  <BioMolTech Lead Finder SDF id>
0

>  <BioMolTech Lead Finder Pose rank>
0

>  <BioMolTech Lead Finder version>
2001 1, 19 January 2019

>  <LF dG>
-6.739

>  <LF VSscore>
-12.988

>  <LF Rank Score>
-12.216

>  <LF LE>
-0.132

>  <Preferred Pose_cresset>
true

>  <Favorite_cresset>
false

>  <Protein_cresset>
6Y2F_P

>  <MW_cresset>
714.7

>  <#Atoms_cresset>
51

>  <SlogP_cresset>
4

>  <TPSA_cresset>
225.1

>  <Flexibility_cresset>
17.1

>  <#RB_cresset>
18

>  <Rof5_cresset>
3

>  <Filename_cresset>
VTRRT-13V2.1.sdf

>  <Confs_cresset>
0

>  <Poses_cresset>
10

>  <_cresset_fieldpoints>
    -5       9.883188      -1.080878      21.576763    -14.9065
    -5       8.467188      -1.048877      28.035763     -3.2640
    -5      11.065188       3.991122      16.490763     -8.9120
    -5      10.733189       5.887122      26.691763     -2.3035
    -5      11.340188       5.356122      17.389763     -8.4410
    -5      14.938189       2.546122      19.226763    -11.3085
    -5      11.712189       0.121122      15.297764     -4.4305
    -5      14.768188       9.475122      20.903763     -7.4035
    -5      13.510188       7.674123      21.747763     -7.5985
    -5      19.024189       4.779122      22.817764     -6.7100
    -5      20.165188       3.760122      19.468763    -13.3140
    -5      18.453188       4.755122      27.668762     -8.5175
    -6       6.875188       2.068122      26.788763      5.3875
    -6       7.527188      -5.802877      27.168762      2.3495
    -6       6.817188       2.100122      21.882763     11.3895
    -6       8.571188       4.490122      21.180763     10.6370
    -6      12.289188       0.595122      25.255764      8.3960
    -6      14.511189       0.596123      26.071764     12.4845
    -6       7.766188       4.159122      22.507763      8.7955
    -6      14.781188       8.717122      24.038763      8.2235
    -6      13.839189       7.625122      17.430763     10.2185
    -6      10.845188       7.182122      21.626762      4.8135
    -6       6.461188       0.963122      15.495764      2.3490
    -6      17.867188       7.848123      19.893763      3.1180
    -6      18.624187       8.264122      25.588764      1.8240
    -7       4.314188      -3.218878      25.622763     -0.9970
    -7       8.303188       2.587122      19.922764     -3.5230
    -7       6.452188       2.369123      22.132763     -2.1010
    -7      12.798188       0.290123      24.970764     -3.5960
    -7      11.860188      -4.999878      26.977764     -0.9695
    -7      13.557188       0.471123      20.731764     -3.5450
    -7       7.483188      -6.116878      27.257763     -0.9680
    -7       6.257188       1.621122      26.840763     -1.5860
    -7       5.718188       2.605122      25.512764     -1.4705
    -7      10.579188       1.637122      26.926764     -3.0320
    -7       8.052189       5.293122      23.175764     -1.9765
    -7       9.792189       5.250122      26.270763     -2.4420
    -7       8.283188       4.454123      21.031763     -2.5185
    -7      11.008188       7.594123      21.613764     -2.2170
    -7      13.039188       8.230123      21.900763     -3.1160
    -7      16.098188       5.066122      28.336763     -1.9075
    -7      14.748188       3.252122      28.644764     -1.9275
    -7      12.474188       4.835123      16.576763     -2.0415
    -7       9.717188       5.782123      20.063763     -2.7005
    -7      11.865189      -0.121878      14.950764     -1.7105
    -7       6.505188       1.742122      15.329763     -0.9725
    -7       6.957188      -2.702878      16.053764     -0.9680
    -7      10.091188      -1.451877      21.698763     -3.5365
    -7      15.247189       2.136122      19.058764     -3.3185
    -7      16.830189       5.176123      17.324764     -1.7765
    -7      18.464188       7.412123      19.507763     -1.6285
    -7      12.674189       7.173122      17.313763     -1.6900
    -7      19.246189       3.424122      22.843763     -2.4310
    -7      19.089188       6.315123      22.336763     -2.0635
    -7      17.841188       0.210122      25.189764     -1.5445
    -7      15.902188       8.020123      24.503763     -2.1205
    -8       8.948189      -0.059878      24.541763      5.8735
    -8      11.596189       3.372122      23.166763      6.1900
    -8       8.693188      -2.146878      25.446764      7.1940
    -8      10.044188       0.145123      17.635763      7.0250
    -8      12.794188       4.804122      24.932764      7.2360
    -8      15.581188       2.747122      23.157763      4.9895
    -8      14.019188       5.939122      19.878763      4.0760
    -8      16.035189       5.834123      20.328764      4.6390
    -8      18.292189       6.440123      25.492764      1.2500

$$$$
W_Wogonin_D
  xed2sdf_05210316543D
 
 33 35  0  0  0  0  0  0  0  0999 V2000
    9.3906   -0.8372   21.2217 O   0  0  0  0  0  0  0  0  0  0  0  0
    8.6426   -2.5482   23.1756 O   0  0  0  0  0  0  0  0  0  0  0  0
    9.4666    2.7008   24.5257 O   0  0  0  0  0  0  0  0  0  0  0  0
    8.2586   -1.6892   25.7397 O   0  0  0  0  0  0  0  0  0  0  0  0
   10.1156    3.0748   21.9226 O   0  0  0  0  0  0  0  0  0  0  0  0
    9.4656    0.9868   22.8267 C   0  0  0  0  0  0  0  0  0  0  0  0
    9.2476   -0.3542   22.4886 C   0  0  0  0  0  0  0  0  0  0  0  0
    9.7996    0.0238   20.2346 C   0  0  0  0  0  0  0  0  0  0  0  0
    8.8556   -1.2512   23.4757 C   0  0  0  0  0  0  0  0  0  0  0  0
    9.8876    1.8778   21.7596 C   0  0  0  0  0  0  0  0  0  0  0  0
    9.2716    1.4078   24.1516 C   0  0  0  0  0  0  0  0  0  0  0  0
   10.0476    1.3448   20.4566 C   0  0  0  0  0  0  0  0  0  0  0  0
    9.9566   -0.5492   18.8727 C   0  0  0  0  0  0  0  0  0  0  0  0
    8.6586   -0.8192   24.7737 C   0  0  0  0  0  0  0  0  0  0  0  0
    8.8706    0.5088   25.1036 C   0  0  0  0  0  0  0  0  0  0  0  0
    9.1526   -0.0812   17.8456 C   0  0  0  0  0  0  0  0  0  0  0  0
   10.8816   -1.5432   18.5877 C   0  0  0  0  0  0  0  0  0  0  0  0
    9.2736   -0.5832   16.5727 C   0  0  0  0  0  0  0  0  0  0  0  0
   11.0006   -2.0472   17.3157 C   0  0  0  0  0  0  0  0  0  0  0  0
   10.1986   -1.5672   16.3046 C   0  0  0  0  0  0  0  0  0  0  0  0
    9.7236   -3.4692   23.4267 C   0  0  0  0  0  0  0  0  0  0  0  0
    8.6296    3.2468   24.4547 H   0  0  0  0  0  0  0  0  0  0  0  0
    7.5816   -1.2772   26.3587 H   0  0  0  0  0  0  0  0  0  0  0  0
   10.3406    1.9358   19.7047 H   0  0  0  0  0  0  0  0  0  0  0  0
    8.7306    0.8138   26.0457 H   0  0  0  0  0  0  0  0  0  0  0  0
    8.4756    0.6308   18.0326 H   0  0  0  0  0  0  0  0  0  0  0  0
   11.4676   -1.8972   19.3167 H   0  0  0  0  0  0  0  0  0  0  0  0
    8.6886   -0.2342   15.8397 H   0  0  0  0  0  0  0  0  0  0  0  0
   11.6706   -2.7632   17.1227 H   0  0  0  0  0  0  0  0  0  0  0  0
   10.2876   -1.9322   15.3777 H   0  0  0  0  0  0  0  0  0  0  0  0
   10.5006   -2.9652   23.8046 H   0  0  0  0  0  0  0  0  0  0  0  0
    9.4276   -4.1682   24.0777 H   0  0  0  0  0  0  0  0  0  0  0  0
    9.9936   -3.9132   22.5716 H   0  0  0  0  0  0  0  0  0  0  0  0
  1  7  1  0
  1  8  1  0
  2  9  1  0
  2 21  1  0
  3 11  1  0
  4 14  1  0
  5 10  2  0
  6  7  2  0
  6 10  1  0
  6 11  1  0
  7  9  1  0
  8 12  2  0
  8 13  1  0
  9 14  2  0
 10 12  1  0
 11 15  2  0
 13 16  2  0
 13 17  1  0
 14 15  1  0
 16 18  1  0
 17 19  2  0
 18 20  2  0
 19 20  1  0
  3 22  1  0
  4 23  1  0
 12 24  1  0
 15 25  1  0
 16 26  1  0
 17 27  1  0
 18 28  1  0
 19 29  1  0
 20 30  1  0
 21 31  1  0
 21 32  1  0
 21 33  1  0
M  END
>  <BioMolTech Lead Finder dG>
-6.696

>  <BioMolTech Lead Finder VSscore>
-7.453

>  <BioMolTech Lead Finder Rank score>
-10.496

>  <BioMolTech Lead Finder LE>
-0.319

>  <BioMolTech Lead Finder Structure Name>
/var/folders/xd/y7jw_xv579q2qqq7kks92xd80000gn/T/LeadFinder_29777_1/Ligand_1.sdf

>  <BioMolTech Lead Finder SDF id>
0

>  <BioMolTech Lead Finder Pose rank>
0

>  <BioMolTech Lead Finder version>
2001 1, 19 January 2019

>  <PUBCHEM_COMPOUND_CID>
5281703

>  <PUBCHEM_COMPOUND_CANONICALIZED>
1

>  <PUBCHEM_CACTVS_COMPLEXITY>
426

>  <PUBCHEM_CACTVS_HBOND_ACCEPTOR>
5

>  <PUBCHEM_CACTVS_HBOND_DONOR>
2

>  <PUBCHEM_CACTVS_ROTATABLE_BOND>
2

>  <PUBCHEM_CACTVS_SUBSKEYS>
AAADccB4OAAAAAAAAAAAAAAAAAAAAAAAAAAwYIAAAAAAAACBQAAAGgAACAAADASAmAIyBoAABgCIAqBSAAACCAAkIAAIiAEGiMgNJzaGNRqCeWOl4BULuQfK7LzOIQABCAAIQABCAAIQABCAAAAAAAAAAA==

>  <PUBCHEM_IUPAC_OPENEYE_NAME>
5,7-dihydroxy-8-methoxy-2-phenyl-chromen-4-one

>  <PUBCHEM_IUPAC_CAS_NAME>
5,7-dihydroxy-8-methoxy-2-phenyl-1-benzopyran-4-one

>  <PUBCHEM_IUPAC_NAME_MARKUP>
5,7-dihydroxy-8-methoxy-2-phenylchromen-4-one

>  <PUBCHEM_IUPAC_NAME>
5,7-dihydroxy-8-methoxy-2-phenylchromen-4-one

>  <PUBCHEM_IUPAC_SYSTEMATIC_NAME>
8-methoxy-5,7-bis(oxidanyl)-2-phenyl-chromen-4-one

>  <PUBCHEM_IUPAC_TRADITIONAL_NAME>
5,7-dihydroxy-8-methoxy-2-phenyl-chromone

>  <PUBCHEM_IUPAC_INCHI>
InChI=1S/C16H12O5/c1-20-15-12(19)7-10(17)14-11(18)8-13(21-16(14)15)9-5-3-2-4-6-9/h2-8,17,19H,1H3

>  <PUBCHEM_IUPAC_INCHIKEY>
XLTFNNCXVBYBSX-UHFFFAOYSA-N

>  <PUBCHEM_XLOGP3_AA>
3

>  <PUBCHEM_EXACT_MASS>
284.068473

>  <PUBCHEM_MOLECULAR_FORMULA>
C16H12O5

>  <PUBCHEM_MOLECULAR_WEIGHT>
284.26

>  <PUBCHEM_OPENEYE_CAN_SMILES>
COC1=C(C=C(C2=C1OC(=CC2=O)C3=CC=CC=C3)O)O

>  <PUBCHEM_OPENEYE_ISO_SMILES>
COC1=C(C=C(C2=C1OC(=CC2=O)C3=CC=CC=C3)O)O

>  <PUBCHEM_CACTVS_TPSA>
76

>  <PUBCHEM_MONOISOTOPIC_WEIGHT>
284.068473

>  <PUBCHEM_TOTAL_CHARGE>
0

>  <PUBCHEM_HEAVY_ATOM_COUNT>
21

>  <PUBCHEM_ATOM_DEF_STEREO_COUNT>
0

>  <PUBCHEM_ATOM_UDEF_STEREO_COUNT>
0

>  <PUBCHEM_BOND_DEF_STEREO_COUNT>
0

>  <PUBCHEM_BOND_UDEF_STEREO_COUNT>
0

>  <PUBCHEM_ISOTOPIC_ATOM_COUNT>
0

>  <PUBCHEM_COMPONENT_COUNT>
1

>  <PUBCHEM_CACTVS_TAUTO_COUNT>
-1

>  <PUBCHEM_COORDINATE_TYPE>
1
5
255

>  <PUBCHEM_BONDANNOTATIONS>
1  7  8
1  8  8
10  12  8
11  15  8
13  16  8
13  17  8
14  15  8
16  18  8
17  19  8
18  20  8
19  20  8
6  10  8
6  11  8
6  7  8
7  9  8
8  12  8
9  14  8

>  <LF dG>
-6.696

>  <LF VSscore>
-7.453

>  <LF Rank Score>
-10.496

>  <LF LE>
-0.319

>  <Preferred Pose_cresset>
true

>  <Favorite_cresset>
false

>  <Protein_cresset>
6Y2F_P

>  <MW_cresset>
284.3

>  <#Atoms_cresset>
21

>  <SlogP_cresset>
2.6

>  <TPSA_cresset>
76

>  <Flexibility_cresset>
1.7

>  <#RB_cresset>
4

>  <Rof5_cresset>
0

>  <Filename_cresset>
Wogonin.sdf

>  <Confs_cresset>
0

>  <Poses_cresset>
10

>  <_cresset_fieldpoints>
    -5       8.083634      -2.616175      20.713650     -6.1190
    -5      10.804634       3.912825      23.509649    -12.6645
    -5       9.582634      -2.988175      26.586651     -2.7410
    -5      10.918634       4.510825      21.009649    -10.4130
    -5      12.199635       0.926825      16.873650     -2.8860
    -6      13.078634      -3.692175      18.982651      2.9505
    -6       7.037634       3.284825      25.349649      4.8175
    -6       6.981634      -0.036175      27.458651      7.4120
    -6       7.069634       1.525825      16.171650      2.7950
    -6      11.949635      -2.378175      21.430651      3.2130
    -6      11.953634      -3.701175      14.839650      2.8810
    -6       8.894634      -1.103175      13.512650      2.8605
    -7       8.314634      -2.920175      20.411650     -3.0370
    -7       6.895635      -3.624175      25.214649     -1.8265
    -7       8.854634       3.467825      26.808651     -1.2710
    -7       7.633635       3.805825      22.381651     -1.7760
    -7       6.993634       0.975825      20.362650     -2.6125
    -7      10.080634      -3.071175      26.659651     -1.6665
    -7       9.404634      -1.502175      27.919651     -1.2915
    -7      12.027635      -1.661175      21.748650     -2.8965
    -7      12.163634      -0.848175      24.110649     -2.2460
    -7      11.790634       3.481825      23.776649     -1.6390
    -7       8.799634      -1.080175      13.245650     -0.9675
    -7       6.049634       0.786825      22.849649     -1.8585
    -7      12.144634       1.596825      17.703650     -2.0360
    -7      12.061634      -3.890175      14.667650     -0.9675
    -7      11.069634      -6.435174      23.338650     -0.6505
    -8       9.698634       0.829825      21.586651      4.9990
    -8       9.070634       0.107825      23.804649      6.6060
    -8      10.077635      -1.057175      17.586651      7.1525
    -8      10.410634      -3.996175      23.582649      2.5220

$$$$
Untitled
  xed2sdf_05210316543D
 
 33 35  0  0  0  0  0  0  0  0999 V2000
    9.0027   -2.9663   23.9566 O   0  0  0  0  0  0  0  0  0  0  0  0
   10.3887   -4.3313   22.0806 O   0  0  0  0  0  0  0  0  0  0  0  0
    8.3077   -7.1473   26.2976 O   0  0  0  0  0  0  0  0  0  0  0  0
   10.7077   -7.0383   22.2446 O   0  0  0  0  0  0  0  0  0  0  0  0
    7.3947   -4.7633   27.1996 O   0  0  0  0  0  0  0  0  0  0  0  0
    8.6257   -5.0243   25.1956 C   0  0  0  0  0  0  0  0  0  0  0  0
    9.1557   -4.3133   24.1126 C   0  0  0  0  0  0  0  0  0  0  0  0
    8.3257   -2.2683   24.9246 C   0  0  0  0  0  0  0  0  0  0  0  0
    9.8667   -4.9943   23.1306 C   0  0  0  0  0  0  0  0  0  0  0  0
    7.9047   -4.2613   26.1986 C   0  0  0  0  0  0  0  0  0  0  0  0
    8.8077   -6.4153   25.2666 C   0  0  0  0  0  0  0  0  0  0  0  0
    7.7777   -2.8613   26.0236 C   0  0  0  0  0  0  0  0  0  0  0  0
    8.1957   -0.8023   24.7226 C   0  0  0  0  0  0  0  0  0  0  0  0
   10.0277   -6.3643   23.2106 C   0  0  0  0  0  0  0  0  0  0  0  0
    9.4997   -7.0663   24.2806 C   0  0  0  0  0  0  0  0  0  0  0  0
    9.3037   -0.0753   24.3156 C   0  0  0  0  0  0  0  0  0  0  0  0
    7.0007   -0.1273   24.9286 C   0  0  0  0  0  0  0  0  0  0  0  0
    9.2197    1.2807   24.1136 C   0  0  0  0  0  0  0  0  0  0  0  0
    6.9187    1.2287   24.7286 C   0  0  0  0  0  0  0  0  0  0  0  0
    8.0257    1.9357   24.3186 C   0  0  0  0  0  0  0  0  0  0  0  0
   11.7057   -3.7653   22.2456 C   0  0  0  0  0  0  0  0  0  0  0  0
    8.6827   -6.8623   27.1826 H   0  0  0  0  0  0  0  0  0  0  0  0
   10.2097   -7.0453   21.3706 H   0  0  0  0  0  0  0  0  0  0  0  0
    7.2897   -2.3113   26.7006 H   0  0  0  0  0  0  0  0  0  0  0  0
    9.6237   -8.0563   24.3336 H   0  0  0  0  0  0  0  0  0  0  0  0
   10.1747   -0.5433   24.1686 H   0  0  0  0  0  0  0  0  0  0  0  0
    6.1917   -0.6343   25.2266 H   0  0  0  0  0  0  0  0  0  0  0  0
   10.0257    1.7937   23.8176 H   0  0  0  0  0  0  0  0  0  0  0  0
    6.0517    1.7037   24.8796 H   0  0  0  0  0  0  0  0  0  0  0  0
    7.9637    2.9227   24.1706 H   0  0  0  0  0  0  0  0  0  0  0  0
   12.0347   -3.9703   23.1676 H   0  0  0  0  0  0  0  0  0  0  0  0
   12.3297   -4.1583   21.5706 H   0  0  0  0  0  0  0  0  0  0  0  0
   11.6647   -2.7743   22.1136 H   0  0  0  0  0  0  0  0  0  0  0  0
  1  7  1  0
  1  8  1  0
  2  9  1  0
  2 21  1  0
  3 11  1  0
  4 14  1  0
  5 10  2  0
  6  7  2  0
  6 10  1  0
  6 11  1  0
  7  9  1  0
  8 12  2  0
  8 13  1  0
  9 14  2  0
 10 12  1  0
 11 15  2  0
 13 16  2  0
 13 17  1  0
 14 15  1  0
 16 18  1  0
 17 19  2  0
 18 20  2  0
 19 20  1  0
  3 22  1  0
  4 23  1  0
 12 24  1  0
 15 25  1  0
 16 26  1  0
 17 27  1  0
 18 28  1  0
 19 29  1  0
 20 30  1  0
 21 31  1  0
 21 32  1  0
 21 33  1  0
M  END
>  <BioMolTech Lead Finder dG>
-6.345

>  <BioMolTech Lead Finder VSscore>
-7.667

>  <BioMolTech Lead Finder Rank score>
-10.163

>  <BioMolTech Lead Finder LE>
-0.302

>  <BioMolTech Lead Finder Structure Name>
/var/folders/xd/y7jw_xv579q2qqq7kks92xd80000gn/T/LeadFinder_28353_1/Ligand_1.sdf

>  <BioMolTech Lead Finder SDF id>
0

>  <BioMolTech Lead Finder Pose rank>
0

>  <BioMolTech Lead Finder version>
2001 1, 19 January 2019

>  <PUBCHEM_COMPOUND_CID>
5281703

>  <PUBCHEM_COMPOUND_CANONICALIZED>
1

>  <PUBCHEM_CACTVS_COMPLEXITY>
426

>  <PUBCHEM_CACTVS_HBOND_ACCEPTOR>
5

>  <PUBCHEM_CACTVS_HBOND_DONOR>
2

>  <PUBCHEM_CACTVS_ROTATABLE_BOND>
2

>  <PUBCHEM_CACTVS_SUBSKEYS>
AAADccB4OAAAAAAAAAAAAAAAAAAAAAAAAAAwYIAAAAAAAACBQAAAGgAACAAADASAmAIyBoAABgCIAqBSAAACCAAkIAAIiAEGiMgNJzaGNRqCeWOl4BULuQfK7LzOIQABCAAIQABCAAIQABCAAAAAAAAAAA==

>  <PUBCHEM_IUPAC_OPENEYE_NAME>
5,7-dihydroxy-8-methoxy-2-phenyl-chromen-4-one

>  <PUBCHEM_IUPAC_CAS_NAME>
5,7-dihydroxy-8-methoxy-2-phenyl-1-benzopyran-4-one

>  <PUBCHEM_IUPAC_NAME_MARKUP>
5,7-dihydroxy-8-methoxy-2-phenylchromen-4-one

>  <PUBCHEM_IUPAC_NAME>
5,7-dihydroxy-8-methoxy-2-phenylchromen-4-one

>  <PUBCHEM_IUPAC_SYSTEMATIC_NAME>
8-methoxy-5,7-bis(oxidanyl)-2-phenyl-chromen-4-one

>  <PUBCHEM_IUPAC_TRADITIONAL_NAME>
5,7-dihydroxy-8-methoxy-2-phenyl-chromone

>  <PUBCHEM_IUPAC_INCHI>
InChI=1S/C16H12O5/c1-20-15-12(19)7-10(17)14-11(18)8-13(21-16(14)15)9-5-3-2-4-6-9/h2-8,17,19H,1H3

>  <PUBCHEM_IUPAC_INCHIKEY>
XLTFNNCXVBYBSX-UHFFFAOYSA-N

>  <PUBCHEM_XLOGP3_AA>
3

>  <PUBCHEM_EXACT_MASS>
284.068473

>  <PUBCHEM_MOLECULAR_FORMULA>
C16H12O5

>  <PUBCHEM_MOLECULAR_WEIGHT>
284.26

>  <PUBCHEM_OPENEYE_CAN_SMILES>
COC1=C(C=C(C2=C1OC(=CC2=O)C3=CC=CC=C3)O)O

>  <PUBCHEM_OPENEYE_ISO_SMILES>
COC1=C(C=C(C2=C1OC(=CC2=O)C3=CC=CC=C3)O)O

>  <PUBCHEM_CACTVS_TPSA>
76

>  <PUBCHEM_MONOISOTOPIC_WEIGHT>
284.068473

>  <PUBCHEM_TOTAL_CHARGE>
0

>  <PUBCHEM_HEAVY_ATOM_COUNT>
21

>  <PUBCHEM_ATOM_DEF_STEREO_COUNT>
0

>  <PUBCHEM_ATOM_UDEF_STEREO_COUNT>
0

>  <PUBCHEM_BOND_DEF_STEREO_COUNT>
0

>  <PUBCHEM_BOND_UDEF_STEREO_COUNT>
0

>  <PUBCHEM_ISOTOPIC_ATOM_COUNT>
0

>  <PUBCHEM_COMPONENT_COUNT>
1

>  <PUBCHEM_CACTVS_TAUTO_COUNT>
-1

>  <PUBCHEM_COORDINATE_TYPE>
1
5
255

>  <PUBCHEM_BONDANNOTATIONS>
1  7  8
1  8  8
10  12  8
11  15  8
13  16  8
13  17  8
14  15  8
16  18  8
17  19  8
18  20  8
19  20  8
6  10  8
6  11  8
6  7  8
7  9  8
8  12  8
9  14  8

>  <LF dG>
-6.345

>  <LF VSscore>
-7.667

>  <LF Rank Score>
-10.163

>  <LF LE>
-0.302

>  <Preferred Pose_cresset>
true

>  <Favorite_cresset>
false

>  <Protein_cresset>
6Y2F_P

>  <MW_cresset>
284.3

>  <#Atoms_cresset>
21

>  <SlogP_cresset>
2.6

>  <TPSA_cresset>
76

>  <Flexibility_cresset>
1.7

>  <#RB_cresset>
4

>  <Rof5_cresset>
0

>  <Filename_cresset>
Wogonin.sdf

>  <Confs_cresset>
0

>  <Poses_cresset>
10

>  <_cresset_fieldpoints>
    -5       8.690727      -2.358323      21.749588     -4.6170
    -5       6.423727      -6.506323      27.097588    -10.9755
    -5       6.199727      -4.279323      28.581589     -9.3435
    -5      12.622726      -7.624323      22.624588     -3.3340
    -5       8.874727       1.186677      27.340588     -2.4030
    -6       9.424726      -7.454323      19.865587      4.5385
    -6      11.674726      -2.040323      24.741589      4.5060
    -6      10.262727      -6.766323      28.091587      2.4820
    -6      10.039727       4.193677      23.452587      3.2395
    -6       4.088727       0.586677      25.713589      2.9650
    -6       4.956727      -1.131323      26.856588      2.5210
    -6       5.908727       4.191677      24.537588      3.0975
    -7      11.059727      -5.790323      19.767588     -1.7095
    -7      11.375727      -2.465323      25.418589     -2.9460
    -7      12.072727      -4.841323      25.721588     -2.2540
    -7       9.822727      -5.120323      28.325588     -1.7710
    -7      12.199727      -6.502323      20.446589     -1.7065
    -7      13.135727      -6.710323      22.243587     -1.6685
    -7      10.112727      -9.409323      21.826588     -1.2610
    -7       5.924726      -6.758323      26.822588     -1.6835
    -7       6.500727      -5.869323      22.629587     -1.8500
    -7       9.651727      -9.065323      27.103588     -1.2535
    -7       5.931726      -3.360323      23.629587     -2.5250
    -7       5.685727       4.388677      24.549587     -0.9675
    -7       8.843727      -2.015323      21.656588     -2.9835
    -7      10.050727       4.491677      23.365587     -0.9675
    -8       8.109727       0.569677      24.524588      7.1525
    -8       9.320726      -5.703323      24.227589      6.6060
    -8       8.344727      -3.791323      25.334587      5.0025
    -8      12.502727      -3.427323      22.393587      2.5270
    -8       7.611727      -1.372323      25.325588      5.2980

$$$$
W_Wogonoside_D
  xed2sdf_05210316543D
 
 52 55  0  0  1  0  0  0  0  0999 V2000
    9.7831   -0.1343   20.3284 O   0  0  0  0  0  0  0  0  0  0  0  0
   10.4581    1.0037   22.3454 O   0  0  0  0  0  0  0  0  0  0  0  0
   11.8051    2.7027   17.9844 O   0  0  0  0  0  0  0  0  0  0  0  0
   11.4401    3.1497   20.8064 O   0  0  0  0  0  0  0  0  0  0  0  0
    9.9061    0.8907   16.7604 O   0  0  0  0  0  0  0  0  0  0  0  0
    9.6831   -2.3373   18.8724 O   0  5  0  0  0  0  0  0  0  0  0  0
    8.1261   -1.4093   17.4844 O   0  0  0  0  0  0  0  0  0  0  0  0
    9.7561   -3.2203   24.3414 O   0  0  0  0  0  0  0  0  0  0  0  0
   11.2391   -1.5683   22.7754 O   0  0  0  0  0  0  0  0  0  0  0  0
    6.6251    0.3637   25.0134 O   0  0  0  0  0  0  0  0  0  0  0  0
    6.3141   -1.9513   26.0544 O   0  0  0  0  0  0  0  0  0  0  0  0
   10.7511    2.0717   18.7274 C   0  0  0  0  0  0  0  0  0  0  0  0
   11.1831    1.8787   20.1934 C   0  0  0  0  0  0  0  0  0  0  0  0
   10.3941    0.7117   18.0984 C   0  0  0  0  0  0  0  0  0  0  0  0
   10.0721    1.1327   20.9594 C   0  0  0  0  0  0  0  0  0  0  0  0
    9.3281    0.0127   18.9674 C   0  0  0  0  0  0  0  0  0  0  0  0
    9.0201   -1.3493   18.3994 C   0  0  0  0  0  0  0  0  0  0  0  0
    9.7181    0.2037   23.1144 C   0  0  0  0  0  0  0  0  0  0  0  0
   10.0991   -1.1113   23.3314 C   0  0  0  0  0  0  0  0  0  0  0  0
    8.5481    0.6917   23.6784 C   0  0  0  0  0  0  0  0  0  0  0  0
    9.3261   -1.9433   24.1324 C   0  0  0  0  0  0  0  0  0  0  0  0
    8.1531   -1.4413   24.6964 C   0  0  0  0  0  0  0  0  0  0  0  0
    7.7691   -0.1173   24.4614 C   0  0  0  0  0  0  0  0  0  0  0  0
    7.3571   -2.3263   25.5204 C   0  0  0  0  0  0  0  0  0  0  0  0
    8.9781   -4.0543   25.1074 C   0  0  0  0  0  0  0  0  0  0  0  0
    7.8141   -3.6573   25.7004 C   0  0  0  0  0  0  0  0  0  0  0  0
    9.4771   -5.4433   25.2774 C   0  0  0  0  0  0  0  0  0  0  0  0
   12.4661   -1.3423   23.4984 C   0  0  0  0  0  0  0  0  0  0  0  0
    9.4311   -6.3063   24.1924 C   0  0  0  0  0  0  0  0  0  0  0  0
    9.9831   -5.9193   26.4784 C   0  0  0  0  0  0  0  0  0  0  0  0
    9.8791   -7.6003   24.3024 C   0  0  0  0  0  0  0  0  0  0  0  0
   10.4291   -7.2143   26.5864 C   0  0  0  0  0  0  0  0  0  0  0  0
   10.3791   -8.0573   25.4994 C   0  0  0  0  0  0  0  0  0  0  0  0
    9.9431    2.6597   18.7004 H   0  0  0  0  0  0  0  0  0  0  0  0
   12.0241    1.3387   20.2204 H   0  0  0  0  0  0  0  0  0  0  0  0
   11.2141    0.1407   18.0574 H   0  0  0  0  0  0  0  0  0  0  0  0
    9.2201    1.6557   20.9314 H   0  0  0  0  0  0  0  0  0  0  0  0
    8.5051    0.5807   18.9644 H   0  0  0  0  0  0  0  0  0  0  0  0
   12.6971    2.2807   18.1824 H   0  0  0  0  0  0  0  0  0  0  0  0
   12.2701    3.5767   20.4304 H   0  0  0  0  0  0  0  0  0  0  0  0
   10.5721    1.3847   16.1914 H   0  0  0  0  0  0  0  0  0  0  0  0
    5.8151   -0.1143   24.6554 H   0  0  0  0  0  0  0  0  0  0  0  0
    8.2721    1.6387   23.5124 H   0  0  0  0  0  0  0  0  0  0  0  0
    7.2871   -4.2993   26.2564 H   0  0  0  0  0  0  0  0  0  0  0  0
   12.2601   -0.8543   24.3464 H   0  0  0  0  0  0  0  0  0  0  0  0
   12.8991   -2.2193   23.7104 H   0  0  0  0  0  0  0  0  0  0  0  0
   13.0911   -0.7983   22.9394 H   0  0  0  0  0  0  0  0  0  0  0  0
    9.0671   -5.9823   23.3194 H   0  0  0  0  0  0  0  0  0  0  0  0
   10.0231   -5.3143   27.2734 H   0  0  0  0  0  0  0  0  0  0  0  0
    9.8411   -8.2103   23.5104 H   0  0  0  0  0  0  0  0  0  0  0  0
   10.7921   -7.5453   27.4574 H   0  0  0  0  0  0  0  0  0  0  0  0
   10.7051   -8.9993   25.5804 H   0  0  0  0  0  0  0  0  0  0  0  0
  1 15  1  0
  1 16  1  0
  2 18  1  0
  6 17  1  0
  7 17  2  0
  8 21  1  0
  8 25  1  0
  9 19  1  0
  9 28  1  0
 10 23  1  0
 11 24  2  0
 12  3  1  0
 12 13  1  0
 12 14  1  0
 13  4  1  0
 13 15  1  0
 14  5  1  0
 14 16  1  0
 15  2  1  0
 16 17  1  0
 18 19  2  0
 18 20  1  0
 19 21  1  0
 20 23  2  0
 21 22  2  0
 22 23  1  0
 22 24  1  0
 24 26  1  0
 25 26  2  0
 25 27  1  0
 27 29  2  0
 27 30  1  0
 29 31  1  0
 30 32  2  0
 31 33  2  0
 32 33  1  0
  3 39  1  0
  4 40  1  0
  5 41  1  0
 10 42  1  0
 12 34  1  0
 13 35  1  0
 14 36  1  0
 15 37  1  0
 16 38  1  0
 20 43  1  0
 26 44  1  0
 28 45  1  0
 28 46  1  0
 28 47  1  0
 29 48  1  0
 30 49  1  0
 31 50  1  0
 32 51  1  0
 33 52  1  0
M  CHG  1   6  -1
M  END
>  <BioMolTech Lead Finder dG>
-8.054

>  <BioMolTech Lead Finder VSscore>
-11.339

>  <BioMolTech Lead Finder Rank score>
-11.122

>  <BioMolTech Lead Finder LE>
-0.244

>  <BioMolTech Lead Finder Structure Name>
/var/folders/xd/y7jw_xv579q2qqq7kks92xd80000gn/T/LeadFinder_29775_1/Ligand_1.sdf

>  <BioMolTech Lead Finder SDF id>
0

>  <BioMolTech Lead Finder Pose rank>
0

>  <BioMolTech Lead Finder version>
2001 1, 19 January 2019

>  <PUBCHEM_COMPOUND_CID>
3084961

>  <PUBCHEM_COMPOUND_CANONICALIZED>
1

>  <PUBCHEM_CACTVS_COMPLEXITY>
763

>  <PUBCHEM_CACTVS_HBOND_ACCEPTOR>
11

>  <PUBCHEM_CACTVS_HBOND_DONOR>
5

>  <PUBCHEM_CACTVS_ROTATABLE_BOND>
5

>  <PUBCHEM_CACTVS_SUBSKEYS>
AAADceB4PAAAAAAAAAAAAAAAAAAAAAAAAAA0YIEAAAAAAACBQAAAGgAACAAADBSwmAMyDoAABgCIAqDSCAICCAAkIAAIiAFGiMgdNzaGNR6ieWKl4BUPuQfK7LzOIQABCAAIQABCAAIQABCAAAAAAAAAAA==

>  <PUBCHEM_IUPAC_OPENEYE_NAME>
(2S,3S,4S,5R,6S)-3,4,5-trihydroxy-6-(5-hydroxy-8-methoxy-4-oxo-2-phenyl-chromen-7-yl)oxy-tetrahydropyran-2-carboxylic acid

>  <PUBCHEM_IUPAC_CAS_NAME>
(2S,3S,4S,5R,6S)-3,4,5-trihydroxy-6-[(5-hydroxy-8-methoxy-4-oxo-2-phenyl-1-benzopyran-7-yl)oxy]-2-oxanecarboxylic acid

>  <PUBCHEM_IUPAC_NAME_MARKUP>
(2<I>S</I>,3<I>S</I>,4<I>S</I>,5<I>R</I>,6<I>S</I>)-3,4,5-trihydroxy-6-(5-hydroxy-8-methoxy-4-oxo-2-phenylchromen-7-yl)oxyoxane-2-carboxylic acid

>  <PUBCHEM_IUPAC_NAME>
(2S,3S,4S,5R,6S)-3,4,5-trihydroxy-6-(5-hydroxy-8-methoxy-4-oxo-2-phenylchromen-7-yl)oxyoxane-2-carboxylic acid

>  <PUBCHEM_IUPAC_SYSTEMATIC_NAME>
(2S,3S,4S,5R,6S)-6-(8-methoxy-5-oxidanyl-4-oxidanylidene-2-phenyl-chromen-7-yl)oxy-3,4,5-tris(oxidanyl)oxane-2-carboxylic acid

>  <PUBCHEM_IUPAC_TRADITIONAL_NAME>
(2S,3S,4S,5R,6S)-3,4,5-trihydroxy-6-(5-hydroxy-4-keto-8-methoxy-2-phenyl-chromen-7-yl)oxy-tetrahydropyran-2-carboxylic acid

>  <PUBCHEM_IUPAC_INCHI>
InChI=1S/C22H20O11/c1-30-18-13(32-22-17(27)15(25)16(26)20(33-22)21(28)29)8-11(24)14-10(23)7-12(31-19(14)18)9-5-3-2-4-6-9/h2-8,15-17,20,22,24-27H,1H3,(H,28,29)/t15-,16-,17+,20-,22+/m0/s1

>  <PUBCHEM_IUPAC_INCHIKEY>
LNOHXHDWGCMVCO-NTKSAMNMSA-N

>  <PUBCHEM_XLOGP3_AA>
1.4

>  <PUBCHEM_EXACT_MASS>
460.100561

>  <PUBCHEM_MOLECULAR_FORMULA>
C22H20O11

>  <PUBCHEM_MOLECULAR_WEIGHT>
460.4

>  <PUBCHEM_OPENEYE_CAN_SMILES>
COC1=C(C=C(C2=C1OC(=CC2=O)C3=CC=CC=C3)O)OC4C(C(C(C(O4)C(=O)O)O)O)O

>  <PUBCHEM_OPENEYE_ISO_SMILES>
COC1=C(C=C(C2=C1OC(=CC2=O)C3=CC=CC=C3)O)O[C@H]4[C@@H]([C@H]([C@@H]([C@H](O4)C(=O)O)O)O)O

>  <PUBCHEM_CACTVS_TPSA>
172

>  <PUBCHEM_MONOISOTOPIC_WEIGHT>
460.100561

>  <PUBCHEM_TOTAL_CHARGE>
0

>  <PUBCHEM_HEAVY_ATOM_COUNT>
33

>  <PUBCHEM_ATOM_DEF_STEREO_COUNT>
5

>  <PUBCHEM_ATOM_UDEF_STEREO_COUNT>
0

>  <PUBCHEM_BOND_DEF_STEREO_COUNT>
0

>  <PUBCHEM_BOND_UDEF_STEREO_COUNT>
0

>  <PUBCHEM_ISOTOPIC_ATOM_COUNT>
0

>  <PUBCHEM_COMPONENT_COUNT>
1

>  <PUBCHEM_CACTVS_TAUTO_COUNT>
-1

>  <PUBCHEM_COORDINATE_TYPE>
1
5
255

>  <PUBCHEM_BONDANNOTATIONS>
16  17  5
18  19  8
18  20  8
19  21  8
15  2  5
20  23  8
21  22  8
22  23  8
22  24  8
24  26  8
25  26  8
27  29  8
27  30  8
29  31  8
12  3  5
30  32  8
31  33  8
32  33  8
13  4  6
14  5  6
8  21  8
8  25  8

>  <LF dG>
-8.054

>  <LF VSscore>
-11.339

>  <LF Rank Score>
-11.122

>  <LF LE>
-0.244

>  <Preferred Pose_cresset>
true

>  <Favorite_cresset>
false

>  <Protein_cresset>
6Y2F_P

>  <MW_cresset>
459.4

>  <#Atoms_cresset>
33

>  <SlogP_cresset>
1.4

>  <TPSA_cresset>
175

>  <Flexibility_cresset>
7.6

>  <#RB_cresset>
9

>  <Rof5_cresset>
1

>  <Filename_cresset>
Wogonoside.sdf

>  <Confs_cresset>
0

>  <Poses_cresset>
10

>  <_cresset_fieldpoints>
    -5       8.038106      -3.173310      17.035378    -11.3690
    -5      10.674106      -1.988310      20.504377    -14.2220
    -5      11.027105       3.418690      22.632378     -9.3460
    -5       8.162106       0.270690      16.240377    -11.9190
    -5      11.419106       4.327690      17.104378     -5.1540
    -5       6.112106      -0.181310      26.937378    -12.8610
    -5       9.032105      -3.779310      17.961376    -11.2530
    -5       5.124106      -2.655310      27.329376    -10.9645
    -5       7.208106      -7.803310      26.042377     -3.8355
    -6      13.789106       2.753690      19.513376     10.6895
    -6       7.618106       2.627690      19.727377      1.9035
    -6      10.984106      -6.243310      29.448378      2.0480
    -6      11.625106      -9.828310      27.788376      2.1115
    -6      10.761106     -10.742311      24.046377      1.7765
    -7      12.876106       1.921690      22.957376     -2.4110
    -7      12.874105       1.367690      16.114376     -1.5670
    -7       7.839106       2.251690      16.903378     -1.7160
    -7      11.706106       5.081690      18.851377     -1.4345
    -7      14.282106       2.720690      19.720377     -1.3790
    -7      10.001106       3.746690      22.791376     -2.2075
    -7      11.842106      -1.525310      20.171377     -3.6410
    -7      13.731106       0.212690      18.669376     -1.6810
    -7       7.483106       2.900690      19.564377     -1.8995
    -7       7.555106       0.697690      16.320377     -1.7590
    -7       9.502106      -1.023310      15.433376     -1.6185
    -7       7.325106      -4.086310      22.610376     -2.6645
    -7       5.336106       1.827690      23.343376     -1.2895
    -7       6.598105       0.074690      27.522377     -1.6745
    -7      10.828106       0.037690      26.443377     -2.2875
    -7      11.368106      -4.295310      22.630377     -2.8990
    -7       7.565105      -1.515310      21.133377     -3.1300
    -7      10.287106      -6.127310      29.827377     -0.9905
    -7       6.699106      -6.941310      26.231377     -2.0465
    -7       5.053106      -2.124310      23.643377     -1.7965
    -7      11.567106      -2.906310      26.252377     -2.9495
    -7      11.761106     -10.065310      27.866377     -0.9675
    -7      10.701106     -10.803310      23.525377     -0.9670
    -8      10.293106       1.283690      19.312378      5.1490
    -8       8.910106      -0.617310      23.921377      6.6075
    -8       9.925106      -6.753310      25.391376      7.1520
    -8       8.269106      -2.655310      25.044376      5.0175
    -8      13.190105      -1.182310      23.971376      2.5235

$$$$
Untitled
  xed2sdf_05210316543D
 
 52 55  0  0  1  0  0  0  0  0999 V2000
   10.2402    0.6688   19.9833 O   0  0  0  0  0  0  0  0  0  0  0  0
   10.9372    1.1828   22.2353 O   0  0  0  0  0  0  0  0  0  0  0  0
   12.1352    4.1298   18.5473 O   0  0  0  0  0  0  0  0  0  0  0  0
   11.8292    3.7158   21.3813 O   0  0  0  0  0  0  0  0  0  0  0  0
   10.2502    2.7018   16.8753 O   0  0  0  0  0  0  0  0  0  0  0  0
    8.2342   -0.2992   17.6733 O   0  5  0  0  0  0  0  0  0  0  0  0
   10.4602   -0.4792   17.2003 O   0  0  0  0  0  0  0  0  0  0  0  0
    8.9992   -2.5982   24.3013 O   0  0  0  0  0  0  0  0  0  0  0  0
   10.8972   -1.4992   22.6973 O   0  0  0  0  0  0  0  0  0  0  0  0
    7.1292    1.7828   24.9483 O   0  0  0  0  0  0  0  0  0  0  0  0
    6.1362   -0.3132   26.0263 O   0  0  0  0  0  0  0  0  0  0  0  0
   11.1162    3.2768   19.0883 C   0  0  0  0  0  0  0  0  0  0  0  0
   11.5872    2.6738   20.4253 C   0  0  0  0  0  0  0  0  0  0  0  0
   10.7752    2.1518   18.0923 C   0  0  0  0  0  0  0  0  0  0  0  0
   10.5142    1.7028   20.9553 C   0  0  0  0  0  0  0  0  0  0  0  0
    9.7482    1.1968   18.7343 C   0  0  0  0  0  0  0  0  0  0  0  0
    9.4592    0.0528   17.7953 C   0  0  0  0  0  0  0  0  0  0  0  0
    9.9982    0.6578   23.0223 C   0  0  0  0  0  0  0  0  0  0  0  0
    9.9602   -0.7082   23.2573 C   0  0  0  0  0  0  0  0  0  0  0  0
    9.0422    1.4878   23.5913 C   0  0  0  0  0  0  0  0  0  0  0  0
    8.9802   -1.2532   24.0773 C   0  0  0  0  0  0  0  0  0  0  0  0
    8.0252   -0.4082   24.6443 C   0  0  0  0  0  0  0  0  0  0  0  0
    8.0632    0.9668   24.3933 C   0  0  0  0  0  0  0  0  0  0  0  0
    7.0072   -0.9972   25.4893 C   0  0  0  0  0  0  0  0  0  0  0  0
    8.0132   -3.1432   25.0883 C   0  0  0  0  0  0  0  0  0  0  0  0
    7.0362   -2.4002   25.6843 C   0  0  0  0  0  0  0  0  0  0  0  0
    8.0642   -4.6162   25.2733 C   0  0  0  0  0  0  0  0  0  0  0  0
   12.0732   -1.7892   23.4793 C   0  0  0  0  0  0  0  0  0  0  0  0
    7.0212   -5.3872   24.7833 C   0  0  0  0  0  0  0  0  0  0  0  0
    9.1092   -5.2572   25.9233 C   0  0  0  0  0  0  0  0  0  0  0  0
    7.0222   -6.7522   24.9333 C   0  0  0  0  0  0  0  0  0  0  0  0
    9.1092   -6.6222   26.0743 C   0  0  0  0  0  0  0  0  0  0  0  0
    8.0672   -7.3742   25.5793 C   0  0  0  0  0  0  0  0  0  0  0  0
   10.2932    3.8218   19.2493 H   0  0  0  0  0  0  0  0  0  0  0  0
   12.4412    2.1748   20.2783 H   0  0  0  0  0  0  0  0  0  0  0  0
   11.6082    1.6438   17.8713 H   0  0  0  0  0  0  0  0  0  0  0  0
    9.6502    2.1838   21.0973 H   0  0  0  0  0  0  0  0  0  0  0  0
    8.9122    1.7148   18.9123 H   0  0  0  0  0  0  0  0  0  0  0  0
   13.0482    3.7178   18.6443 H   0  0  0  0  0  0  0  0  0  0  0  0
   11.1572    3.6888   22.1293 H   0  0  0  0  0  0  0  0  0  0  0  0
   10.6992    2.3018   16.0683 H   0  0  0  0  0  0  0  0  0  0  0  0
    6.9542    2.5878   24.3703 H   0  0  0  0  0  0  0  0  0  0  0  0
    9.0682    2.4718   23.4133 H   0  0  0  0  0  0  0  0  0  0  0  0
    6.3452   -2.8432   26.2563 H   0  0  0  0  0  0  0  0  0  0  0  0
   11.9982   -1.3282   24.3633 H   0  0  0  0  0  0  0  0  0  0  0  0
   12.1502   -2.7762   23.6193 H   0  0  0  0  0  0  0  0  0  0  0  0
   12.8862   -1.4642   22.9963 H   0  0  0  0  0  0  0  0  0  0  0  0
    6.2572   -4.9432   24.3153 H   0  0  0  0  0  0  0  0  0  0  0  0
    9.8702   -4.7192   26.2863 H   0  0  0  0  0  0  0  0  0  0  0  0
    6.2642   -7.2962   24.5733 H   0  0  0  0  0  0  0  0  0  0  0  0
    9.8682   -7.0722   26.5443 H   0  0  0  0  0  0  0  0  0  0  0  0
    8.0692   -8.3682   25.6893 H   0  0  0  0  0  0  0  0  0  0  0  0
  1 15  1  0
  1 16  1  0
  2 18  1  0
  6 17  1  0
  7 17  2  0
  8 21  1  0
  8 25  1  0
  9 19  1  0
  9 28  1  0
 10 23  1  0
 11 24  2  0
 12  3  1  0
 12 13  1  0
 12 14  1  0
 13  4  1  0
 13 15  1  0
 14  5  1  0
 14 16  1  0
 15  2  1  0
 16 17  1  0
 18 19  2  0
 18 20  1  0
 19 21  1  0
 20 23  2  0
 21 22  2  0
 22 23  1  0
 22 24  1  0
 24 26  1  0
 25 26  2  0
 25 27  1  0
 27 29  2  0
 27 30  1  0
 29 31  1  0
 30 32  2  0
 31 33  2  0
 32 33  1  0
  3 39  1  0
  4 40  1  0
  5 41  1  0
 10 42  1  0
 12 34  1  0
 13 35  1  0
 14 36  1  0
 15 37  1  0
 16 38  1  0
 20 43  1  0
 26 44  1  0
 28 45  1  0
 28 46  1  0
 28 47  1  0
 29 48  1  0
 30 49  1  0
 31 50  1  0
 32 51  1  0
 33 52  1  0
M  CHG  1   6  -1
M  END
>  <BioMolTech Lead Finder dG>
-7.876

>  <BioMolTech Lead Finder VSscore>
-11.416

>  <BioMolTech Lead Finder Rank score>
-12.693

>  <BioMolTech Lead Finder LE>
-0.239

>  <BioMolTech Lead Finder Structure Name>
/var/folders/xd/y7jw_xv579q2qqq7kks92xd80000gn/T/LeadFinder_28351_1/Ligand_1.sdf

>  <BioMolTech Lead Finder SDF id>
0

>  <BioMolTech Lead Finder Pose rank>
0

>  <BioMolTech Lead Finder version>
2001 1, 19 January 2019

>  <PUBCHEM_COMPOUND_CID>
3084961

>  <PUBCHEM_COMPOUND_CANONICALIZED>
1

>  <PUBCHEM_CACTVS_COMPLEXITY>
763

>  <PUBCHEM_CACTVS_HBOND_ACCEPTOR>
11

>  <PUBCHEM_CACTVS_HBOND_DONOR>
5

>  <PUBCHEM_CACTVS_ROTATABLE_BOND>
5

>  <PUBCHEM_CACTVS_SUBSKEYS>
AAADceB4PAAAAAAAAAAAAAAAAAAAAAAAAAA0YIEAAAAAAACBQAAAGgAACAAADBSwmAMyDoAABgCIAqDSCAICCAAkIAAIiAFGiMgdNzaGNR6ieWKl4BUPuQfK7LzOIQABCAAIQABCAAIQABCAAAAAAAAAAA==

>  <PUBCHEM_IUPAC_OPENEYE_NAME>
(2S,3S,4S,5R,6S)-3,4,5-trihydroxy-6-(5-hydroxy-8-methoxy-4-oxo-2-phenyl-chromen-7-yl)oxy-tetrahydropyran-2-carboxylic acid

>  <PUBCHEM_IUPAC_CAS_NAME>
(2S,3S,4S,5R,6S)-3,4,5-trihydroxy-6-[(5-hydroxy-8-methoxy-4-oxo-2-phenyl-1-benzopyran-7-yl)oxy]-2-oxanecarboxylic acid

>  <PUBCHEM_IUPAC_NAME_MARKUP>
(2<I>S</I>,3<I>S</I>,4<I>S</I>,5<I>R</I>,6<I>S</I>)-3,4,5-trihydroxy-6-(5-hydroxy-8-methoxy-4-oxo-2-phenylchromen-7-yl)oxyoxane-2-carboxylic acid

>  <PUBCHEM_IUPAC_NAME>
(2S,3S,4S,5R,6S)-3,4,5-trihydroxy-6-(5-hydroxy-8-methoxy-4-oxo-2-phenylchromen-7-yl)oxyoxane-2-carboxylic acid

>  <PUBCHEM_IUPAC_SYSTEMATIC_NAME>
(2S,3S,4S,5R,6S)-6-(8-methoxy-5-oxidanyl-4-oxidanylidene-2-phenyl-chromen-7-yl)oxy-3,4,5-tris(oxidanyl)oxane-2-carboxylic acid

>  <PUBCHEM_IUPAC_TRADITIONAL_NAME>
(2S,3S,4S,5R,6S)-3,4,5-trihydroxy-6-(5-hydroxy-4-keto-8-methoxy-2-phenyl-chromen-7-yl)oxy-tetrahydropyran-2-carboxylic acid

>  <PUBCHEM_IUPAC_INCHI>
InChI=1S/C22H20O11/c1-30-18-13(32-22-17(27)15(25)16(26)20(33-22)21(28)29)8-11(24)14-10(23)7-12(31-19(14)18)9-5-3-2-4-6-9/h2-8,15-17,20,22,24-27H,1H3,(H,28,29)/t15-,16-,17+,20-,22+/m0/s1

>  <PUBCHEM_IUPAC_INCHIKEY>
LNOHXHDWGCMVCO-NTKSAMNMSA-N

>  <PUBCHEM_XLOGP3_AA>
1.4

>  <PUBCHEM_EXACT_MASS>
460.100561

>  <PUBCHEM_MOLECULAR_FORMULA>
C22H20O11

>  <PUBCHEM_MOLECULAR_WEIGHT>
460.4

>  <PUBCHEM_OPENEYE_CAN_SMILES>
COC1=C(C=C(C2=C1OC(=CC2=O)C3=CC=CC=C3)O)OC4C(C(C(C(O4)C(=O)O)O)O)O

>  <PUBCHEM_OPENEYE_ISO_SMILES>
COC1=C(C=C(C2=C1OC(=CC2=O)C3=CC=CC=C3)O)O[C@H]4[C@@H]([C@H]([C@@H]([C@H](O4)C(=O)O)O)O)O

>  <PUBCHEM_CACTVS_TPSA>
172

>  <PUBCHEM_MONOISOTOPIC_WEIGHT>
460.100561

>  <PUBCHEM_TOTAL_CHARGE>
0

>  <PUBCHEM_HEAVY_ATOM_COUNT>
33

>  <PUBCHEM_ATOM_DEF_STEREO_COUNT>
5

>  <PUBCHEM_ATOM_UDEF_STEREO_COUNT>
0

>  <PUBCHEM_BOND_DEF_STEREO_COUNT>
0

>  <PUBCHEM_BOND_UDEF_STEREO_COUNT>
0

>  <PUBCHEM_ISOTOPIC_ATOM_COUNT>
0

>  <PUBCHEM_COMPONENT_COUNT>
1

>  <PUBCHEM_CACTVS_TAUTO_COUNT>
-1

>  <PUBCHEM_COORDINATE_TYPE>
1
5
255

>  <PUBCHEM_BONDANNOTATIONS>
16  17  5
18  19  8
18  20  8
19  21  8
15  2  5
20  23  8
21  22  8
22  23  8
22  24  8
24  26  8
25  26  8
27  29  8
27  30  8
29  31  8
12  3  5
30  32  8
31  33  8
32  33  8
13  4  6
14  5  6
8  21  8
8  25  8

>  <LF dG>
-7.876

>  <LF VSscore>
-11.416

>  <LF Rank Score>
-12.693

>  <LF LE>
-0.239

>  <Preferred Pose_cresset>
true

>  <Favorite_cresset>
false

>  <Protein_cresset>
6Y2F_P

>  <MW_cresset>
459.4

>  <#Atoms_cresset>
33

>  <SlogP_cresset>
1.4

>  <TPSA_cresset>
175

>  <Flexibility_cresset>
7.6

>  <#RB_cresset>
9

>  <Rof5_cresset>
1

>  <Filename_cresset>
Wogonoside.sdf

>  <Confs_cresset>
0

>  <Poses_cresset>
10

>  <_cresset_fieldpoints>
    -5       8.249194      -1.728230      16.523258     -9.9385
    -5      11.425194       5.177770      17.165257    -11.0145
    -5       9.662194      -1.867230      16.241257     -9.4890
    -5       4.694194      -0.471230      27.207256    -11.9350
    -5      10.637195      -1.332230      20.324257     -9.8325
    -5       5.805194       1.484770      26.432257    -14.1710
    -5       6.653194      -5.832230      28.056257     -3.5395
    -6      13.965195       2.212770      18.383257      5.8015
    -6       9.395194       4.123770      22.293257     10.0075
    -6      12.197194       1.585770      15.485257      4.3685
    -6       7.544194       3.901770      23.153257      8.1485
    -6      11.820194      -5.585230      27.344257      2.5190
    -6      11.109194      -2.865230      26.273258      3.0995
    -6       4.279194      -6.543230      23.615257      1.6790
    -6       6.300194      -9.841230      24.975258      2.0875
    -6       9.981194      -9.486230      26.924257      2.2870
    -7       7.720194      -0.196230      20.756258     -3.0820
    -7      12.029194      -0.896230      20.185257     -3.2295
    -7      13.525194       1.136770      22.716257     -2.3090
    -7      12.621195       2.730770      23.622257     -2.2380
    -7      14.151194       1.698770      18.370256     -1.6335
    -7      12.551194       3.909770      16.140257     -1.5910
    -7       9.078195       4.537770      21.783257     -2.3490
    -7      13.278194       5.437770      20.321257     -1.5195
    -7       7.858194       3.696770      20.375257     -2.1065
    -7       8.071195       2.122770      16.062258     -1.6580
    -7       8.120194       3.901770      17.524258     -1.6655
    -7       9.913195      -4.194230      22.636257     -3.0750
    -7      11.817194       0.404770      15.494257     -1.5100
    -7      10.626194      -2.315230      26.560257     -2.9345
    -7       7.250195       1.402770      27.545258     -1.6470
    -7       8.198195       4.015770      25.733257     -1.2665
    -7       4.805194       1.059770      24.340258     -1.7380
    -7      11.035194       0.192770      26.356258     -2.2945
    -7       6.279194      -2.709230      22.707256     -2.6320
    -7       6.424194      -4.817230      28.112257     -2.0380
    -7       4.218194      -4.169230      25.876257     -1.4885
    -7      10.057195      -9.764231      26.945257     -0.9675
    -7       6.082194     -10.015230      24.782257     -0.9670
    -8      10.686194       2.340770      19.429256      5.1480
    -8       8.991195       0.136770      23.848257      6.6160
    -8       7.772194      -1.595230      25.011257      5.0155
    -8      12.771194      -1.940230      23.990257      2.5245
    -8       8.063194      -5.997230      25.428257      7.1525

$$$$
W_NHC_D
  xed2sdf_05210316543D
 
 31 32  0  0  1  0  0  0  0  0999 V2000
   12.5831    1.6707   20.4136 O   0  0  0  0  0  0  0  0  0  0  0  0
   10.0231    3.5417   21.1916 O   0  0  0  0  0  0  0  0  0  0  0  0
   10.4331    1.9587   23.2996 O   0  0  0  0  0  0  0  0  0  0  0  0
   13.1641    0.8257   23.9746 O   0  0  0  0  0  0  0  0  0  0  0  0
   10.3081    2.8037   17.3236 O   0  0  0  0  0  0  0  0  0  0  0  0
    8.3641   -2.1913   16.2246 O   0  0  0  0  0  0  0  0  0  0  0  0
   10.9311    1.1457   18.7326 N   0  0  0  0  0  0  0  0  0  0  0  0
    9.9271    0.7947   16.5896 N   0  0  0  0  0  0  0  0  0  0  0  0
    9.5581   -1.4403   15.9346 N   0  0  0  0  0  0  0  0  0  0  0  0
   10.2831    2.1717   20.8506 C   0  0  0  0  0  0  0  0  0  0  0  0
   10.9051    1.4407   22.0466 C   0  0  0  0  0  0  0  0  0  0  0  0
   11.3701    2.0977   19.7646 C   0  0  0  0  0  0  0  0  0  0  0  0
   12.3991    1.7067   21.8366 C   0  0  0  0  0  0  0  0  0  0  0  0
   13.2711    0.6657   22.5526 C   0  0  0  0  0  0  0  0  0  0  0  0
   11.0201   -0.1713   18.9636 C   0  0  0  0  0  0  0  0  0  0  0  0
   10.4031    1.5977   17.5776 C   0  0  0  0  0  0  0  0  0  0  0  0
   10.5681   -1.0293   18.0306 C   0  0  0  0  0  0  0  0  0  0  0  0
   10.0011   -0.5343   16.8136 C   0  0  0  0  0  0  0  0  0  0  0  0
    9.4141    1.7717   20.5606 H   0  0  0  0  0  0  0  0  0  0  0  0
   10.6731    0.4687   22.0896 H   0  0  0  0  0  0  0  0  0  0  0  0
   11.5311    2.9777   19.3176 H   0  0  0  0  0  0  0  0  0  0  0  0
   12.6781    2.5857   22.2246 H   0  0  0  0  0  0  0  0  0  0  0  0
    9.6471    4.0487   20.4086 H   0  0  0  0  0  0  0  0  0  0  0  0
    9.4371    2.0977   23.2856 H   0  0  0  0  0  0  0  0  0  0  0  0
   13.1181   -0.0643   24.4406 H   0  0  0  0  0  0  0  0  0  0  0  0
    8.4821   -3.1653   16.0036 H   0  0  0  0  0  0  0  0  0  0  0  0
    9.9921   -1.5813   15.1826 H   0  0  0  0  0  0  0  0  0  0  0  0
   12.9701   -0.2533   22.2986 H   0  0  0  0  0  0  0  0  0  0  0  0
   14.2251    0.7957   22.2806 H   0  0  0  0  0  0  0  0  0  0  0  0
   11.4161   -0.5113   19.8166 H   0  0  0  0  0  0  0  0  0  0  0  0
   10.6281   -2.0153   18.1876 H   0  0  0  0  0  0  0  0  0  0  0  0
  1 12  1  0
  1 13  1  0
  4 14  1  0
  5 16  2  0
  6  9  1  0
  7 15  1  0
  7 16  1  0
  8 16  1  0
  8 18  2  0
  9 18  1  0
 10  2  1  0
 10 11  1  0
 10 12  1  0
 11  3  1  0
 11 13  1  0
 12  7  1  0
 13 14  1  0
 15 17  2  0
 17 18  1  0
  2 23  1  0
  3 24  1  0
  4 25  1  0
  6 26  1  0
  9 27  1  0
 10 19  1  0
 11 20  1  0
 12 21  1  0
 13 22  1  0
 14 28  1  0
 14 29  1  0
 15 30  1  0
 17 31  1  0
M  END
>  <BioMolTech Lead Finder dG>
-6.448

>  <BioMolTech Lead Finder VSscore>
-7.852

>  <BioMolTech Lead Finder Rank score>
-8.574

>  <BioMolTech Lead Finder LE>
-0.358

>  <BioMolTech Lead Finder Structure Name>
/var/folders/xd/y7jw_xv579q2qqq7kks92xd80000gn/T/LeadFinder_29776_1/Ligand_1.sdf

>  <BioMolTech Lead Finder SDF id>
0

>  <BioMolTech Lead Finder Pose rank>
0

>  <BioMolTech Lead Finder version>
2001 1, 19 January 2019

>  <PUBCHEM_COMPOUND_CID>
197020

>  <PUBCHEM_COMPOUND_CANONICALIZED>
1

>  <PUBCHEM_CACTVS_COMPLEXITY>
398

>  <PUBCHEM_CACTVS_HBOND_ACCEPTOR>
6

>  <PUBCHEM_CACTVS_HBOND_DONOR>
5

>  <PUBCHEM_CACTVS_ROTATABLE_BOND>
3

>  <PUBCHEM_CACTVS_SUBSKEYS>
AAADccBzOAAAAAAAAAAAAAAAAAAAASAAAAAgAAAAAAAAAAAAAAAAHgAUCAAACBThgAYBAANQBgCoACJmdACAAAEAAgAoAAAYABCDEAIAgAAOQAAHFgITAADwMAIAAAAAAAAAAAAAAAAAAAAAAAAAAAAAAA==

>  <PUBCHEM_IUPAC_OPENEYE_NAME>
1-[(2R,3R,4S,5R)-3,4-dihydroxy-5-(hydroxymethyl)tetrahydrofuran-2-yl]-4-(hydroxyamino)pyrimidin-2-one

>  <PUBCHEM_IUPAC_CAS_NAME>
1-[(2R,3R,4S,5R)-3,4-dihydroxy-5-(hydroxymethyl)-2-oxolanyl]-4-(hydroxyamino)-2-pyrimidinone

>  <PUBCHEM_IUPAC_NAME_MARKUP>
1-[(2<I>R</I>,3<I>R</I>,4<I>S</I>,5<I>R</I>)-3,4-dihydroxy-5-(hydroxymethyl)oxolan-2-yl]-4-(hydroxyamino)pyrimidin-2-one

>  <PUBCHEM_IUPAC_NAME>
1-[(2R,3R,4S,5R)-3,4-dihydroxy-5-(hydroxymethyl)oxolan-2-yl]-4-(hydroxyamino)pyrimidin-2-one

>  <PUBCHEM_IUPAC_SYSTEMATIC_NAME>
1-[(2R,3R,4S,5R)-5-(hydroxymethyl)-3,4-bis(oxidanyl)oxolan-2-yl]-4-(oxidanylamino)pyrimidin-2-one

>  <PUBCHEM_IUPAC_TRADITIONAL_NAME>
1-[(2R,3R,4S,5R)-3,4-dihydroxy-5-methylol-tetrahydrofuran-2-yl]-4-(hydroxyamino)pyrimidin-2-one

>  <PUBCHEM_IUPAC_INCHI>
InChI=1S/C9H13N3O6/c13-3-4-6(14)7(15)8(18-4)12-2-1-5(11-17)10-9(12)16/h1-2,4,6-8,13-15,17H,3H2,(H,10,11,16)/t4-,6-,7-,8-/m1/s1

>  <PUBCHEM_IUPAC_INCHIKEY>
XCUAIINAJCDIPM-XVFCMESISA-N

>  <PUBCHEM_XLOGP3>
-2.2

>  <PUBCHEM_EXACT_MASS>
259.080435

>  <PUBCHEM_MOLECULAR_FORMULA>
C9H13N3O6

>  <PUBCHEM_MOLECULAR_WEIGHT>
259.22

>  <PUBCHEM_OPENEYE_CAN_SMILES>
C1=CN(C(=O)N=C1NO)C2C(C(C(O2)CO)O)O

>  <PUBCHEM_OPENEYE_ISO_SMILES>
C1=CN(C(=O)N=C1NO)[C@H]2[C@@H]([C@@H]([C@H](O2)CO)O)O

>  <PUBCHEM_CACTVS_TPSA>
135

>  <PUBCHEM_MONOISOTOPIC_WEIGHT>
259.080435

>  <PUBCHEM_TOTAL_CHARGE>
0

>  <PUBCHEM_HEAVY_ATOM_COUNT>
18

>  <PUBCHEM_ATOM_DEF_STEREO_COUNT>
4

>  <PUBCHEM_ATOM_UDEF_STEREO_COUNT>
0

>  <PUBCHEM_BOND_DEF_STEREO_COUNT>
0

>  <PUBCHEM_BOND_UDEF_STEREO_COUNT>
0

>  <PUBCHEM_ISOTOPIC_ATOM_COUNT>
0

>  <PUBCHEM_COMPONENT_COUNT>
1

>  <PUBCHEM_CACTVS_TAUTO_COUNT>
-1

>  <PUBCHEM_COORDINATE_TYPE>
1
5
255

>  <PUBCHEM_BONDANNOTATIONS>
13  14  6
15  17  8
17  18  8
10  2  5
11  3  5
12  7  6
7  15  8
7  16  8
8  16  8
8  18  8

>  <LF dG>
-6.448

>  <LF VSscore>
-7.852

>  <LF Rank Score>
-8.574

>  <LF LE>
-0.358

>  <Preferred Pose_cresset>
true

>  <Favorite_cresset>
false

>  <Protein_cresset>
6Y2F_P

>  <MW_cresset>
259.2

>  <#Atoms_cresset>
18

>  <SlogP_cresset>
-1.3

>  <TPSA_cresset>
134.8

>  <Flexibility_cresset>
5.7

>  <#RB_cresset>
7

>  <Rof5_cresset>
0

>  <Filename_cresset>
?-D-N4-hydroxycytidine (NHC; EIDD-1931).sdf

>  <Confs_cresset>
0

>  <Poses_cresset>
10

>  <_cresset_fieldpoints>
    -5       9.581600       2.915474      15.750342    -17.6766
    -5      14.324121       2.332719      19.599556     -4.9020
    -5      11.836122       2.152719      24.632555    -14.8310
    -5      10.809121       3.936719      23.221556    -11.3935
    -6      11.241121      -1.835281      21.441555      8.9350
    -6       7.934121       3.689719      19.962555      3.1845
    -6       8.097121       0.978719      22.600555      6.4955
    -6      12.879122      -1.836281      24.062555      7.4685
    -6       9.749122      -3.614281      14.785555     11.1365
    -7      11.918121       5.009719      21.290556     -1.9020
    -7      10.860122       4.407719      23.295555     -1.9075
    -7       7.862122       0.478719      22.460556     -1.3015
    -7      10.999122       0.508719      25.114555     -1.8160
    -7       8.704122      -0.786281      20.593555     -2.1385
    -7      11.081121      -2.034281      21.737556     -1.8065
    -7      11.951121       2.622719      25.017555     -1.8115
    -7      15.267121       0.996719      25.104555     -0.9745
    -7       8.323121       3.457719      18.617556     -1.8075
    -7       9.941121       4.859719      18.370556     -1.5760
    -7       8.016121       0.357719      18.963556     -2.2915
    -7      10.640121      -3.823281      16.381556     -1.4565
    -7      13.968122       0.039719      19.345556     -2.3500
    -8      11.065122       1.504719      21.134556      4.2620
    -8      12.027122       0.832719      22.112556      4.0405
    -8      10.615122      -0.865281      18.102556      3.8790

$$$$
NHC_D
  xed2sdf_05210316543D
 
 31 32  0  0  1  0  0  0  0  0999 V2000
    7.6063   -3.6214   24.1330 O   0  0  0  0  0  0  0  0  0  0  0  0
   10.8623   -3.5954   23.9030 O   0  0  0  0  0  0  0  0  0  0  0  0
   10.2953   -5.1364   26.0040 O   0  0  0  0  0  0  0  0  0  0  0  0
    7.3923   -5.2624   27.0730 O   0  0  0  0  0  0  0  0  0  0  0  0
    6.9433   -2.1604   26.0570 O   0  0  0  0  0  0  0  0  0  0  0  0
    7.3933    2.9656   26.7630 O   0  0  0  0  0  0  0  0  0  0  0  0
    8.2013   -1.2954   24.3870 N   0  0  0  0  0  0  0  0  0  0  0  0
    6.8673    0.0046   25.8890 N   0  0  0  0  0  0  0  0  0  0  0  0
    6.8713    2.3416   25.5750 N   0  0  0  0  0  0  0  0  0  0  0  0
    9.8473   -3.0584   24.7630 C   0  0  0  0  0  0  0  0  0  0  0  0
    9.2973   -4.1584   25.6790 C   0  0  0  0  0  0  0  0  0  0  0  0
    8.6273   -2.6264   23.9290 C   0  0  0  0  0  0  0  0  0  0  0  0
    8.1693   -4.7464   24.8230 C   0  0  0  0  0  0  0  0  0  0  0  0
    7.1233   -5.4744   25.6790 C   0  0  0  0  0  0  0  0  0  0  0  0
    8.6253   -0.2024   23.7370 C   0  0  0  0  0  0  0  0  0  0  0  0
    7.3523   -1.1784   25.4280 C   0  0  0  0  0  0  0  0  0  0  0  0
    8.1863    1.0066   24.1370 C   0  0  0  0  0  0  0  0  0  0  0  0
    7.2793    1.1126   25.2380 C   0  0  0  0  0  0  0  0  0  0  0  0
   10.2603   -2.3024   25.2700 H   0  0  0  0  0  0  0  0  0  0  0  0
    8.9913   -3.8254   26.5700 H   0  0  0  0  0  0  0  0  0  0  0  0
    8.8303   -2.5604   22.9520 H   0  0  0  0  0  0  0  0  0  0  0  0
    8.5083   -5.4394   24.1870 H   0  0  0  0  0  0  0  0  0  0  0  0
   10.4643   -4.1774   23.1850 H   0  0  0  0  0  0  0  0  0  0  0  0
    9.9593   -5.7874   26.6940 H   0  0  0  0  0  0  0  0  0  0  0  0
    7.7063   -6.1084   27.5170 H   0  0  0  0  0  0  0  0  0  0  0  0
    6.6793    3.0746   27.4630 H   0  0  0  0  0  0  0  0  0  0  0  0
    6.2853    2.7686   25.0770 H   0  0  0  0  0  0  0  0  0  0  0  0
    6.2123   -5.1254   25.4600 H   0  0  0  0  0  0  0  0  0  0  0  0
    7.1653   -6.4544   25.4830 H   0  0  0  0  0  0  0  0  0  0  0  0
    9.2583   -0.2834   22.9670 H   0  0  0  0  0  0  0  0  0  0  0  0
    8.4943    1.8306   23.6630 H   0  0  0  0  0  0  0  0  0  0  0  0
  1 12  1  0
  1 13  1  0
  4 14  1  0
  5 16  2  0
  6  9  1  0
  7 15  1  0
  7 16  1  0
  8 16  1  0
  8 18  2  0
  9 18  1  0
 10  2  1  0
 10 11  1  0
 10 12  1  0
 11  3  1  0
 11 13  1  0
 12  7  1  0
 13 14  1  0
 15 17  2  0
 17 18  1  0
  2 23  1  0
  3 24  1  0
  4 25  1  0
  6 26  1  0
  9 27  1  0
 10 19  1  0
 11 20  1  0
 12 21  1  0
 13 22  1  0
 14 28  1  0
 14 29  1  0
 15 30  1  0
 17 31  1  0
M  END
>  <BioMolTech Lead Finder dG>
-4.993

>  <BioMolTech Lead Finder VSscore>
-7.051

>  <BioMolTech Lead Finder Rank score>
-7.901

>  <BioMolTech Lead Finder LE>
-0.277

>  <BioMolTech Lead Finder Structure Name>
/var/folders/xd/y7jw_xv579q2qqq7kks92xd80000gn/T/LeadFinder_28352_1/Ligand_1.sdf

>  <BioMolTech Lead Finder SDF id>
0

>  <BioMolTech Lead Finder Pose rank>
0

>  <BioMolTech Lead Finder version>
2001 1, 19 January 2019

>  <PUBCHEM_COMPOUND_CID>
197020

>  <PUBCHEM_COMPOUND_CANONICALIZED>
1

>  <PUBCHEM_CACTVS_COMPLEXITY>
398

>  <PUBCHEM_CACTVS_HBOND_ACCEPTOR>
6

>  <PUBCHEM_CACTVS_HBOND_DONOR>
5

>  <PUBCHEM_CACTVS_ROTATABLE_BOND>
3

>  <PUBCHEM_CACTVS_SUBSKEYS>
AAADccBzOAAAAAAAAAAAAAAAAAAAASAAAAAgAAAAAAAAAAAAAAAAHgAUCAAACBThgAYBAANQBgCoACJmdACAAAEAAgAoAAAYABCDEAIAgAAOQAAHFgITAADwMAIAAAAAAAAAAAAAAAAAAAAAAAAAAAAAAA==

>  <PUBCHEM_IUPAC_OPENEYE_NAME>
1-[(2R,3R,4S,5R)-3,4-dihydroxy-5-(hydroxymethyl)tetrahydrofuran-2-yl]-4-(hydroxyamino)pyrimidin-2-one

>  <PUBCHEM_IUPAC_CAS_NAME>
1-[(2R,3R,4S,5R)-3,4-dihydroxy-5-(hydroxymethyl)-2-oxolanyl]-4-(hydroxyamino)-2-pyrimidinone

>  <PUBCHEM_IUPAC_NAME_MARKUP>
1-[(2<I>R</I>,3<I>R</I>,4<I>S</I>,5<I>R</I>)-3,4-dihydroxy-5-(hydroxymethyl)oxolan-2-yl]-4-(hydroxyamino)pyrimidin-2-one

>  <PUBCHEM_IUPAC_NAME>
1-[(2R,3R,4S,5R)-3,4-dihydroxy-5-(hydroxymethyl)oxolan-2-yl]-4-(hydroxyamino)pyrimidin-2-one

>  <PUBCHEM_IUPAC_SYSTEMATIC_NAME>
1-[(2R,3R,4S,5R)-5-(hydroxymethyl)-3,4-bis(oxidanyl)oxolan-2-yl]-4-(oxidanylamino)pyrimidin-2-one

>  <PUBCHEM_IUPAC_TRADITIONAL_NAME>
1-[(2R,3R,4S,5R)-3,4-dihydroxy-5-methylol-tetrahydrofuran-2-yl]-4-(hydroxyamino)pyrimidin-2-one

>  <PUBCHEM_IUPAC_INCHI>
InChI=1S/C9H13N3O6/c13-3-4-6(14)7(15)8(18-4)12-2-1-5(11-17)10-9(12)16/h1-2,4,6-8,13-15,17H,3H2,(H,10,11,16)/t4-,6-,7-,8-/m1/s1

>  <PUBCHEM_IUPAC_INCHIKEY>
XCUAIINAJCDIPM-XVFCMESISA-N

>  <PUBCHEM_XLOGP3>
-2.2

>  <PUBCHEM_EXACT_MASS>
259.080435

>  <PUBCHEM_MOLECULAR_FORMULA>
C9H13N3O6

>  <PUBCHEM_MOLECULAR_WEIGHT>
259.22

>  <PUBCHEM_OPENEYE_CAN_SMILES>
C1=CN(C(=O)N=C1NO)C2C(C(C(O2)CO)O)O

>  <PUBCHEM_OPENEYE_ISO_SMILES>
C1=CN(C(=O)N=C1NO)[C@H]2[C@@H]([C@@H]([C@H](O2)CO)O)O

>  <PUBCHEM_CACTVS_TPSA>
135

>  <PUBCHEM_MONOISOTOPIC_WEIGHT>
259.080435

>  <PUBCHEM_TOTAL_CHARGE>
0

>  <PUBCHEM_HEAVY_ATOM_COUNT>
18

>  <PUBCHEM_ATOM_DEF_STEREO_COUNT>
4

>  <PUBCHEM_ATOM_UDEF_STEREO_COUNT>
0

>  <PUBCHEM_BOND_DEF_STEREO_COUNT>
0

>  <PUBCHEM_BOND_UDEF_STEREO_COUNT>
0

>  <PUBCHEM_ISOTOPIC_ATOM_COUNT>
0

>  <PUBCHEM_COMPONENT_COUNT>
1

>  <PUBCHEM_CACTVS_TAUTO_COUNT>
-1

>  <PUBCHEM_COORDINATE_TYPE>
1
5
255

>  <PUBCHEM_BONDANNOTATIONS>
13  14  6
15  17  8
17  18  8
10  2  5
11  3  5
12  7  6
7  15  8
7  16  8
8  16  8
8  18  8

>  <LF dG>
-4.993

>  <LF VSscore>
-7.051

>  <LF Rank Score>
-7.901

>  <LF LE>
-0.277

>  <Preferred Pose_cresset>
true

>  <Favorite_cresset>
false

>  <Protein_cresset>
6Y2F_P

>  <MW_cresset>
259.2

>  <#Atoms_cresset>
18

>  <SlogP_cresset>
-1.3

>  <TPSA_cresset>
134.8

>  <Flexibility_cresset>
5.7

>  <#RB_cresset>
7

>  <Rof5_cresset>
0

>  <Filename_cresset>
?-D-N4-hydroxycytidine (NHC; EIDD-1931).sdf

>  <Confs_cresset>
0

>  <Poses_cresset>
9

>  <_cresset_fieldpoints>
    -5       5.921958      -1.728173      27.334038    -21.2581
    -5       6.564825      -3.297685      27.401350    -20.7343
    -5      12.000294      -4.698400      25.173988    -12.6550
    -6       9.466293      -4.543400      21.804989      8.2835
    -6       5.627294       3.592600      23.465988      7.9340
    -6       9.625294      -1.462400      21.186989      6.8095
    -6       8.998293      -7.262400      27.170988      9.9500
    -6       9.360293       1.349600      21.513988      6.4540
    -7       5.327293      -2.924400      24.217987     -2.2540
    -7      11.341293      -1.770400      22.232988     -1.6945
    -7       9.834293      -0.105400      26.555988     -2.3370
    -7       9.879293      -7.511400      25.222988     -1.7270
    -7       9.245294      -5.111400      28.802988     -1.6030
    -7       7.085293      -3.155400      28.139988     -2.0770
    -7       9.083293       3.779600      25.302988     -1.4790
    -7       7.395293       0.855600      28.104988     -1.5705
    -7      11.148293      -6.195400      23.991987     -1.9395
    -7       8.971293      -4.933400      21.629988     -1.6700
    -7       5.896294      -0.981400      22.863989     -1.9395
    -8       8.998293      -3.594400      25.008987      4.0970
    -8       8.189294       0.822600      24.133987      3.8930
    -8       8.286293      -5.116400      25.331987      3.6800
    -8       8.728293      -1.387400      24.099989      2.4615

$$$$
