Site2_Forsythoside_D
  xed2sdf_05210316543D
 
 49 52  0  0  1  0  0  0  0  0999 V2000
  -61.1198  -23.8145    0.3242 O   0  0  0  0  0  0  0  0  0  0  0  0
  -61.8456  -23.3508   -2.0046 O   0  0  0  0  0  0  0  0  0  0  0  0
  -60.2229  -27.8135   -0.7616 O   0  0  0  0  0  0  0  0  0  0  0  0
  -61.6891  -26.0958   -2.5657 O   0  0  0  0  0  0  0  0  0  0  0  0
  -60.3315  -27.0392    2.0274 O   0  0  0  0  0  0  0  0  0  0  0  0
  -61.1853  -23.4370    3.3449 O   0  5  0  0  0  0  0  0  0  0  0  0
  -59.3011  -24.6793    3.0031 O   0  0  0  0  0  0  0  0  0  0  0  0
  -57.9648  -21.6643   -4.0129 O   0  0  0  0  0  0  0  0  0  0  0  0
  -62.1157  -21.0500   -0.4395 O   0  0  0  0  0  0  0  0  0  0  0  0
  -60.2798  -19.0579   -0.7026 O   0  0  0  0  0  0  0  0  0  0  0  0
  -58.1271  -18.2362   -1.8663 O   0  0  0  0  0  0  0  0  0  0  0  0
  -60.9511  -26.6613   -0.3092 C   0  0  0  0  0  0  0  0  0  0  0  0
  -60.9921  -25.5911   -1.4175 C   0  0  0  0  0  0  0  0  0  0  0  0
  -60.3017  -26.0787    0.9607 C   0  0  0  0  0  0  0  0  0  0  0  0
  -61.6802  -24.2987   -0.9219 C   0  0  0  0  0  0  0  0  0  0  0  0
  -61.0424  -24.7962    1.3883 C   0  0  0  0  0  0  0  0  0  0  0  0
  -60.4677  -24.2619    2.6783 C   0  0  0  0  0  0  0  0  0  0  0  0
  -60.9625  -22.3544   -2.0895 C   0  0  0  0  0  0  0  0  0  0  0  0
  -59.9014  -22.4811   -2.9602 C   0  0  0  0  0  0  0  0  0  0  0  0
  -61.0845  -21.1940   -1.3247 C   0  0  0  0  0  0  0  0  0  0  0  0
  -58.9672  -21.4745   -3.1133 C   0  0  0  0  0  0  0  0  0  0  0  0
  -59.0949  -20.3151   -2.3488 C   0  0  0  0  0  0  0  0  0  0  0  0
  -60.1602  -20.1861   -1.4513 C   0  0  0  0  0  0  0  0  0  0  0  0
  -58.1023  -19.2755   -2.5256 C   0  0  0  0  0  0  0  0  0  0  0  0
  -57.0635  -20.6466   -4.2065 C   0  0  0  0  0  0  0  0  0  0  0  0
  -57.0893  -19.4799   -3.4972 C   0  0  0  0  0  0  0  0  0  0  0  0
  -56.0361  -20.8836   -5.2530 C   0  0  0  0  0  0  0  0  0  0  0  0
  -55.1333  -19.8677   -5.5285 C   0  0  0  0  0  0  0  0  0  0  0  0
  -55.9308  -22.0698   -5.9668 C   0  0  0  0  0  0  0  0  0  0  0  0
  -54.1570  -20.0272   -6.4811 C   0  0  0  0  0  0  0  0  0  0  0  0
  -54.9540  -22.2287   -6.9200 C   0  0  0  0  0  0  0  0  0  0  0  0
  -54.0655  -21.2094   -7.1793 C   0  0  0  0  0  0  0  0  0  0  0  0
  -61.8862  -26.9413   -0.0915 H   0  0  0  0  0  0  0  0  0  0  0  0
  -60.0486  -25.3723   -1.6675 H   0  0  0  0  0  0  0  0  0  0  0  0
  -59.3481  -25.8562    0.7576 H   0  0  0  0  0  0  0  0  0  0  0  0
  -62.6213  -24.4982   -0.6486 H   0  0  0  0  0  0  0  0  0  0  0  0
  -61.9965  -25.0316    1.5739 H   0  0  0  0  0  0  0  0  0  0  0  0
  -60.6028  -28.6614   -0.3756 H   0  0  0  0  0  0  0  0  0  0  0  0
  -61.0514  -26.4888   -3.2373 H   0  0  0  0  0  0  0  0  0  0  0  0
  -60.5382  -27.9619    1.6849 H   0  0  0  0  0  0  0  0  0  0  0  0
  -62.9897  -21.3318   -0.8456 H   0  0  0  0  0  0  0  0  0  0  0  0
  -60.9572  -18.4258   -1.0951 H   0  0  0  0  0  0  0  0  0  0  0  0
  -59.8053  -23.3215   -3.4935 H   0  0  0  0  0  0  0  0  0  0  0  0
  -56.3993  -18.7752   -3.6616 H   0  0  0  0  0  0  0  0  0  0  0  0
  -55.1940  -19.0054   -5.0258 H   0  0  0  0  0  0  0  0  0  0  0  0
  -56.5719  -22.8154   -5.7855 H   0  0  0  0  0  0  0  0  0  0  0  0
  -53.5133  -19.2848   -6.6672 H   0  0  0  0  0  0  0  0  0  0  0  0
  -54.8885  -23.0879   -7.4276 H   0  0  0  0  0  0  0  0  0  0  0  0
  -53.3551  -21.3282   -7.8732 H   0  0  0  0  0  0  0  0  0  0  0  0
  1 15  1  0
  1 16  1  0
  2 18  1  0
  6 17  1  0
  7 17  2  0
  8 21  1  0
  8 25  1  0
  9 20  1  0
 10 23  1  0
 11 24  2  0
 12  3  1  0
 12 13  1  0
 12 14  1  0
 13  4  1  0
 13 15  1  0
 14  5  1  0
 14 16  1  0
 15  2  1  0
 16 17  1  0
 18 19  2  0
 18 20  1  0
 19 21  1  0
 20 23  2  0
 21 22  2  0
 22 23  1  0
 22 24  1  0
 24 26  1  0
 25 26  2  0
 25 27  1  0
 27 28  2  0
 27 29  1  0
 28 30  1  0
 29 31  2  0
 30 32  2  0
 31 32  1  0
  3 38  1  0
  4 39  1  0
  5 40  1  0
  9 41  1  0
 10 42  1  0
 12 33  1  0
 13 34  1  0
 14 35  1  0
 15 36  1  0
 16 37  1  0
 19 43  1  0
 26 44  1  0
 28 45  1  0
 29 46  1  0
 30 47  1  0
 31 48  1  0
 32 49  1  0
M  CHG  1   6  -1
M  END
>  <LF dG>
-8.765

>  <LF VSscore>
-12.644

>  <LF Rank Score>
-12.932

>  <LF LE>
-0.274

>  <LF Structure Name>
C:\Users\Odara\AppData\Local\Temp\LeadFinder_8984_1\Ligand_1.sdf

>  <LF SDF id>
0

>  <LF Pose rank>
0

>  <LF version>
2001 1, 19 January 2019

>  <PUBCHEM_COMPOUND_CID>
64982

>  <PUBCHEM_COMPOUND_CANONICALIZED>
1

>  <PUBCHEM_CACTVS_COMPLEXITY>
748

>  <PUBCHEM_CACTVS_HBOND_ACCEPTOR>
11

>  <PUBCHEM_CACTVS_HBOND_DONOR>
6

>  <PUBCHEM_CACTVS_ROTATABLE_BOND>
4

>  <PUBCHEM_CACTVS_SUBSKEYS>
AAADceB4PAAAAAAAAAAAAAAAAAAAAAAAAAA0YIEAAAAAAACBQAAAGgAACAAADBSwmAMwDoAABgCIAqDSCAICCAAkIAAIiAFGiMgdNzaGNR6ieWOl4BUPuQfK7LzOIQABCAAIQABCAAIQABCAAAAAAAAAAA==

>  <PUBCHEM_IUPAC_OPENEYE_NAME>
(2S,3S,4S,5R,6S)-6-(5,6-dihydroxy-4-oxo-2-phenyl-chromen-7-yl)oxy-3,4,5-trihydroxy-tetrahydropyran-2-carboxylic acid

>  <PUBCHEM_IUPAC_CAS_NAME>
(2S,3S,4S,5R,6S)-6-[(5,6-dihydroxy-4-oxo-2-phenyl-1-benzopyran-7-yl)oxy]-3,4,5-trihydroxy-2-oxanecarboxylic acid

>  <PUBCHEM_IUPAC_NAME_MARKUP>
(2<I>S</I>,3<I>S</I>,4<I>S</I>,5<I>R</I>,6<I>S</I>)-6-(5,6-dihydroxy-4-oxo-2-phenylchromen-7-yl)oxy-3,4,5-trihydroxyoxane-2-carboxylic acid

>  <PUBCHEM_IUPAC_NAME>
(2S,3S,4S,5R,6S)-6-(5,6-dihydroxy-4-oxo-2-phenylchromen-7-yl)oxy-3,4,5-trihydroxyoxane-2-carboxylic acid

>  <PUBCHEM_IUPAC_SYSTEMATIC_NAME>
(2S,3S,4S,5R,6S)-6-[5,6-bis(oxidanyl)-4-oxidanylidene-2-phenyl-chromen-7-yl]oxy-3,4,5-tris(oxidanyl)oxane-2-carboxylic acid

>  <PUBCHEM_IUPAC_TRADITIONAL_NAME>
(2S,3S,4S,5R,6S)-6-(5,6-dihydroxy-4-keto-2-phenyl-chromen-7-yl)oxy-3,4,5-trihydroxy-tetrahydropyran-2-carboxylic acid

>  <PUBCHEM_IUPAC_INCHI>
InChI=1S/C21H18O11/c22-9-6-10(8-4-2-1-3-5-8)30-11-7-12(14(23)15(24)13(9)11)31-21-18(27)16(25)17(26)19(32-21)20(28)29/h1-7,16-19,21,23-27H,(H,28,29)/t16-,17-,18+,19-,21+/m0/s1

>  <PUBCHEM_IUPAC_INCHIKEY>
IKIIZLYTISPENI-ZFORQUDYSA-N

>  <PUBCHEM_XLOGP3_AA>
1.1

>  <PUBCHEM_EXACT_MASS>
446.084911

>  <PUBCHEM_MOLECULAR_FORMULA>
C21H18O11

>  <PUBCHEM_MOLECULAR_WEIGHT>
446.4

>  <PUBCHEM_OPENEYE_CAN_SMILES>
C1=CC=C(C=C1)C2=CC(=O)C3=C(C(=C(C=C3O2)OC4C(C(C(C(O4)C(=O)O)O)O)O)O)O

>  <PUBCHEM_OPENEYE_ISO_SMILES>
C1=CC=C(C=C1)C2=CC(=O)C3=C(C(=C(C=C3O2)O[C@H]4[C@@H]([C@H]([C@@H]([C@H](O4)C(=O)O)O)O)O)O)O

>  <PUBCHEM_CACTVS_TPSA>
183

>  <PUBCHEM_MONOISOTOPIC_WEIGHT>
446.084911

>  <PUBCHEM_TOTAL_CHARGE>
0

>  <PUBCHEM_HEAVY_ATOM_COUNT>
32

>  <PUBCHEM_ATOM_DEF_STEREO_COUNT>
5

>  <PUBCHEM_ATOM_UDEF_STEREO_COUNT>
0

>  <PUBCHEM_BOND_DEF_STEREO_COUNT>
0

>  <PUBCHEM_BOND_UDEF_STEREO_COUNT>
0

>  <PUBCHEM_ISOTOPIC_ATOM_COUNT>
0

>  <PUBCHEM_COMPONENT_COUNT>
1

>  <PUBCHEM_CACTVS_TAUTO_COUNT>
-1

>  <PUBCHEM_COORDINATE_TYPE>
1
5
255

>  <PUBCHEM_BONDANNOTATIONS>
16  17  5
18  19  8
18  20  8
19  21  8
15  2  5
20  23  8
21  22  8
22  23  8
22  24  8
24  26  8
25  26  8
27  28  8
27  29  8
28  30  8
29  31  8
12  3  5
30  32  8
31  32  8
13  4  6
14  5  6
8  21  8
8  25  8

>  <Favorite_cresset>
false

>  <MW_cresset>
445.4

>  <#Atoms_cresset>
32

>  <SlogP_cresset>
1.1

>  <TPSA_cresset>
186

>  <Flexibility_cresset>
7.6

>  <#RB_cresset>
9

>  <Rof5_cresset>
1

>  <Filename_cresset>
drag.14_339.sdf

>  <Confs_cresset>
0

>  <Poses_cresset>
0

$$$$
W_Site2_Forsythoside_D
  xed2sdf_05210316543D
 
 49 52  0  0  1  0  0  0  0  0999 V2000
  -58.2325  -21.5672   -1.2846 O   0  0  0  0  0  0  0  0  0  0  0  0
  -59.3538  -23.3577    0.0199 O   0  0  0  0  0  0  0  0  0  0  0  0
  -57.4267  -19.4663    2.3084 O   0  0  0  0  0  0  0  0  0  0  0  0
  -59.2220  -21.7318    2.3033 O   0  0  0  0  0  0  0  0  0  0  0  0
  -57.0824  -18.1697   -0.2588 O   0  0  0  0  0  0  0  0  0  0  0  0
  -55.9496  -20.1111   -2.6876 O   0  5  0  0  0  0  0  0  0  0  0  0
  -57.8240  -19.1121   -3.5230 O   0  0  0  0  0  0  0  0  0  0  0  0
  -63.8852  -24.5433    0.0167 O   0  0  0  0  0  0  0  0  0  0  0  0
  -59.1542  -23.8513   -2.7246 O   0  0  0  0  0  0  0  0  0  0  0  0
  -61.3653  -24.6851   -4.0750 O   0  0  0  0  0  0  0  0  0  0  0  0
  -63.8623  -25.3273   -3.9548 O   0  0  0  0  0  0  0  0  0  0  0  0
  -58.0981  -19.9161    1.1213 C   0  0  0  0  0  0  0  0  0  0  0  0
  -58.3542  -21.4338    1.2000 C   0  0  0  0  0  0  0  0  0  0  0  0
  -57.2589  -19.5885   -0.1284 C   0  0  0  0  0  0  0  0  0  0  0  0
  -58.9826  -21.9638   -0.1095 C   0  0  0  0  0  0  0  0  0  0  0  0
  -57.9503  -20.1487   -1.3871 C   0  0  0  0  0  0  0  0  0  0  0  0
  -57.1799  -19.7623   -2.6270 C   0  0  0  0  0  0  0  0  0  0  0  0
  -60.4074  -23.7808   -0.6805 C   0  0  0  0  0  0  0  0  0  0  0  0
  -61.6028  -23.9818   -0.0244 C   0  0  0  0  0  0  0  0  0  0  0  0
  -60.3316  -24.0235   -2.0522 C   0  0  0  0  0  0  0  0  0  0  0  0
  -62.7370  -24.3943   -0.6974 C   0  0  0  0  0  0  0  0  0  0  0  0
  -62.6571  -24.6328   -2.0690 C   0  0  0  0  0  0  0  0  0  0  0  0
  -61.4432  -24.4467   -2.7392 C   0  0  0  0  0  0  0  0  0  0  0  0
  -63.8587  -25.0663   -2.7514 C   0  0  0  0  0  0  0  0  0  0  0  0
  -65.0268  -24.9030   -0.6558 C   0  0  0  0  0  0  0  0  0  0  0  0
  -65.0521  -25.1768   -1.9935 C   0  0  0  0  0  0  0  0  0  0  0  0
  -66.2631  -24.9786    0.1643 C   0  0  0  0  0  0  0  0  0  0  0  0
  -67.4511  -25.3136   -0.4679 C   0  0  0  0  0  0  0  0  0  0  0  0
  -66.2906  -24.7350    1.5308 C   0  0  0  0  0  0  0  0  0  0  0  0
  -68.6266  -25.4049    0.2356 C   0  0  0  0  0  0  0  0  0  0  0  0
  -67.4674  -24.8259    2.2347 C   0  0  0  0  0  0  0  0  0  0  0  0
  -68.6371  -25.1611    1.5901 C   0  0  0  0  0  0  0  0  0  0  0  0
  -58.9753  -19.4404    1.0523 H   0  0  0  0  0  0  0  0  0  0  0  0
  -57.4728  -21.8870    1.3345 H   0  0  0  0  0  0  0  0  0  0  0  0
  -56.3596  -20.0143   -0.0292 H   0  0  0  0  0  0  0  0  0  0  0  0
  -59.8583  -21.5096   -0.2741 H   0  0  0  0  0  0  0  0  0  0  0  0
  -58.8526  -19.7250   -1.4651 H   0  0  0  0  0  0  0  0  0  0  0  0
  -57.7941  -18.5849    2.6250 H   0  0  0  0  0  0  0  0  0  0  0  0
  -58.7363  -21.6572    3.1810 H   0  0  0  0  0  0  0  0  0  0  0  0
  -57.0515  -17.7194    0.6403 H   0  0  0  0  0  0  0  0  0  0  0  0
  -58.9894  -24.5997   -3.3735 H   0  0  0  0  0  0  0  0  0  0  0  0
  -60.5283  -25.1915   -4.3106 H   0  0  0  0  0  0  0  0  0  0  0  0
  -61.6504  -23.8254    0.9623 H   0  0  0  0  0  0  0  0  0  0  0  0
  -65.9057  -25.4532   -2.4352 H   0  0  0  0  0  0  0  0  0  0  0  0
  -67.4515  -25.4914   -1.4521 H   0  0  0  0  0  0  0  0  0  0  0  0
  -65.4462  -24.4907    2.0073 H   0  0  0  0  0  0  0  0  0  0  0  0
  -69.4745  -25.6484   -0.2356 H   0  0  0  0  0  0  0  0  0  0  0  0
  -67.4744  -24.6480    3.2187 H   0  0  0  0  0  0  0  0  0  0  0  0
  -69.4918  -25.2275    2.1048 H   0  0  0  0  0  0  0  0  0  0  0  0
  1 15  1  0
  1 16  1  0
  2 18  1  0
  6 17  1  0
  7 17  2  0
  8 21  1  0
  8 25  1  0
  9 20  1  0
 10 23  1  0
 11 24  2  0
 12  3  1  0
 12 13  1  0
 12 14  1  0
 13  4  1  0
 13 15  1  0
 14  5  1  0
 14 16  1  0
 15  2  1  0
 16 17  1  0
 18 19  2  0
 18 20  1  0
 19 21  1  0
 20 23  2  0
 21 22  2  0
 22 23  1  0
 22 24  1  0
 24 26  1  0
 25 26  2  0
 25 27  1  0
 27 28  2  0
 27 29  1  0
 28 30  1  0
 29 31  2  0
 30 32  2  0
 31 32  1  0
  3 38  1  0
  4 39  1  0
  5 40  1  0
  9 41  1  0
 10 42  1  0
 12 33  1  0
 13 34  1  0
 14 35  1  0
 15 36  1  0
 16 37  1  0
 19 43  1  0
 26 44  1  0
 28 45  1  0
 29 46  1  0
 30 47  1  0
 31 48  1  0
 32 49  1  0
M  CHG  1   6  -1
M  END
>  <LF dG>
-8.409

>  <LF VSscore>
-12.216

>  <LF Rank Score>
-12.867

>  <LF LE>
-0.263

>  <LF Structure Name>
C:\Users\Odara\AppData\Local\Temp\LeadFinder_10724_1\Ligand_1.sdf

>  <LF SDF id>
0

>  <LF Pose rank>
0

>  <LF version>
2001 1, 19 January 2019

>  <PUBCHEM_COMPOUND_CID>
64982

>  <PUBCHEM_COMPOUND_CANONICALIZED>
1

>  <PUBCHEM_CACTVS_COMPLEXITY>
748

>  <PUBCHEM_CACTVS_HBOND_ACCEPTOR>
11

>  <PUBCHEM_CACTVS_HBOND_DONOR>
6

>  <PUBCHEM_CACTVS_ROTATABLE_BOND>
4

>  <PUBCHEM_CACTVS_SUBSKEYS>
AAADceB4PAAAAAAAAAAAAAAAAAAAAAAAAAA0YIEAAAAAAACBQAAAGgAACAAADBSwmAMwDoAABgCIAqDSCAICCAAkIAAIiAFGiMgdNzaGNR6ieWOl4BUPuQfK7LzOIQABCAAIQABCAAIQABCAAAAAAAAAAA==

>  <PUBCHEM_IUPAC_OPENEYE_NAME>
(2S,3S,4S,5R,6S)-6-(5,6-dihydroxy-4-oxo-2-phenyl-chromen-7-yl)oxy-3,4,5-trihydroxy-tetrahydropyran-2-carboxylic acid

>  <PUBCHEM_IUPAC_CAS_NAME>
(2S,3S,4S,5R,6S)-6-[(5,6-dihydroxy-4-oxo-2-phenyl-1-benzopyran-7-yl)oxy]-3,4,5-trihydroxy-2-oxanecarboxylic acid

>  <PUBCHEM_IUPAC_NAME_MARKUP>
(2<I>S</I>,3<I>S</I>,4<I>S</I>,5<I>R</I>,6<I>S</I>)-6-(5,6-dihydroxy-4-oxo-2-phenylchromen-7-yl)oxy-3,4,5-trihydroxyoxane-2-carboxylic acid

>  <PUBCHEM_IUPAC_NAME>
(2S,3S,4S,5R,6S)-6-(5,6-dihydroxy-4-oxo-2-phenylchromen-7-yl)oxy-3,4,5-trihydroxyoxane-2-carboxylic acid

>  <PUBCHEM_IUPAC_SYSTEMATIC_NAME>
(2S,3S,4S,5R,6S)-6-[5,6-bis(oxidanyl)-4-oxidanylidene-2-phenyl-chromen-7-yl]oxy-3,4,5-tris(oxidanyl)oxane-2-carboxylic acid

>  <PUBCHEM_IUPAC_TRADITIONAL_NAME>
(2S,3S,4S,5R,6S)-6-(5,6-dihydroxy-4-keto-2-phenyl-chromen-7-yl)oxy-3,4,5-trihydroxy-tetrahydropyran-2-carboxylic acid

>  <PUBCHEM_IUPAC_INCHI>
InChI=1S/C21H18O11/c22-9-6-10(8-4-2-1-3-5-8)30-11-7-12(14(23)15(24)13(9)11)31-21-18(27)16(25)17(26)19(32-21)20(28)29/h1-7,16-19,21,23-27H,(H,28,29)/t16-,17-,18+,19-,21+/m0/s1

>  <PUBCHEM_IUPAC_INCHIKEY>
IKIIZLYTISPENI-ZFORQUDYSA-N

>  <PUBCHEM_XLOGP3_AA>
1.1

>  <PUBCHEM_EXACT_MASS>
446.084911

>  <PUBCHEM_MOLECULAR_FORMULA>
C21H18O11

>  <PUBCHEM_MOLECULAR_WEIGHT>
446.4

>  <PUBCHEM_OPENEYE_CAN_SMILES>
C1=CC=C(C=C1)C2=CC(=O)C3=C(C(=C(C=C3O2)OC4C(C(C(C(O4)C(=O)O)O)O)O)O)O

>  <PUBCHEM_OPENEYE_ISO_SMILES>
C1=CC=C(C=C1)C2=CC(=O)C3=C(C(=C(C=C3O2)O[C@H]4[C@@H]([C@H]([C@@H]([C@H](O4)C(=O)O)O)O)O)O)O

>  <PUBCHEM_CACTVS_TPSA>
183

>  <PUBCHEM_MONOISOTOPIC_WEIGHT>
446.084911

>  <PUBCHEM_TOTAL_CHARGE>
0

>  <PUBCHEM_HEAVY_ATOM_COUNT>
32

>  <PUBCHEM_ATOM_DEF_STEREO_COUNT>
5

>  <PUBCHEM_ATOM_UDEF_STEREO_COUNT>
0

>  <PUBCHEM_BOND_DEF_STEREO_COUNT>
0

>  <PUBCHEM_BOND_UDEF_STEREO_COUNT>
0

>  <PUBCHEM_ISOTOPIC_ATOM_COUNT>
0

>  <PUBCHEM_COMPONENT_COUNT>
1

>  <PUBCHEM_CACTVS_TAUTO_COUNT>
-1

>  <PUBCHEM_COORDINATE_TYPE>
1
5
255

>  <PUBCHEM_BONDANNOTATIONS>
16  17  5
18  19  8
18  20  8
19  21  8
15  2  5
20  23  8
21  22  8
22  23  8
22  24  8
24  26  8
25  26  8
27  28  8
27  29  8
28  30  8
29  31  8
12  3  5
30  32  8
31  32  8
13  4  6
14  5  6
8  21  8
8  25  8

>  <Favorite_cresset>
false

>  <MW_cresset>
445.4

>  <#Atoms_cresset>
32

>  <SlogP_cresset>
1.1

>  <TPSA_cresset>
186

>  <Flexibility_cresset>
7.6

>  <#RB_cresset>
9

>  <Rof5_cresset>
1

>  <Filename_cresset>
drag.7_345.sdf

>  <Confs_cresset>
0

>  <Poses_cresset>
0

$$$$
W_Site2_Lopinavir_D
  xed2sdf_05210316543D
 
 94 97  0  0  1  0  0  0  0  0999 V2000
  -61.7447  -22.3609   -0.8698 O   0  0  0  0  0  0  0  0  0  0  0  0
  -64.9884  -23.8900    1.0539 O   0  0  0  0  0  0  0  0  0  0  0  0
  -66.7333  -27.9658    0.2626 O   0  0  0  0  0  0  0  0  0  0  0  0
  -57.6214  -23.1147   -3.0855 O   0  0  0  0  0  0  0  0  0  0  0  0
  -58.4796  -19.8864   -2.5361 O   0  0  0  0  0  0  0  0  0  0  0  0
  -67.2760  -25.8196    0.7119 N   0  0  0  0  0  0  0  0  0  0  0  0
  -64.0359  -25.6019   -0.1005 N   0  0  0  0  0  0  0  0  0  0  0  0
  -59.4671  -22.3610   -1.9787 N   0  0  0  0  0  0  0  0  0  0  0  0
  -68.3389  -27.6173    1.7790 N   0  0  0  0  0  0  0  0  0  0  0  0
  -62.6826  -25.3068    0.3871 C   0  0  0  0  0  0  0  0  0  0  0  0
  -66.3685  -25.3142   -0.3366 C   0  0  0  0  0  0  0  0  0  0  0  0
  -61.8663  -24.8069   -0.8242 C   0  0  0  0  0  0  0  0  0  0  0  0
  -61.0270  -23.5522   -0.5097 C   0  0  0  0  0  0  0  0  0  0  0  0
  -67.0142  -24.2427   -1.2467 C   0  0  0  0  0  0  0  0  0  0  0  0
  -59.6970  -23.6372   -1.2876 C   0  0  0  0  0  0  0  0  0  0  0  0
  -62.1359  -26.6105    1.0057 C   0  0  0  0  0  0  0  0  0  0  0  0
  -65.0709  -24.8412    0.2884 C   0  0  0  0  0  0  0  0  0  0  0  0
  -68.0067  -24.8363    1.5299 C   0  0  0  0  0  0  0  0  0  0  0  0
  -69.4019  -25.3778    1.8530 C   0  0  0  0  0  0  0  0  0  0  0  0
  -58.5005  -23.9459   -0.3648 C   0  0  0  0  0  0  0  0  0  0  0  0
  -67.4254  -27.1576    0.8910 C   0  0  0  0  0  0  0  0  0  0  0  0
  -68.3193  -24.7666   -1.8699 C   0  0  0  0  0  0  0  0  0  0  0  0
  -66.0675  -23.8688   -2.4002 C   0  0  0  0  0  0  0  0  0  0  0  0
  -69.1915  -26.7151    2.5702 C   0  0  0  0  0  0  0  0  0  0  0  0
  -62.6526  -26.9633    2.3912 C   0  0  0  0  0  0  0  0  0  0  0  0
  -58.4364  -25.3829    0.1303 C   0  0  0  0  0  0  0  0  0  0  0  0
  -58.4518  -22.2486   -2.8491 C   0  0  0  0  0  0  0  0  0  0  0  0
  -63.9660  -27.3381    2.5724 C   0  0  0  0  0  0  0  0  0  0  0  0
  -61.8038  -26.9156    3.4749 C   0  0  0  0  0  0  0  0  0  0  0  0
  -58.2277  -25.6495    1.4655 C   0  0  0  0  0  0  0  0  0  0  0  0
  -58.5899  -26.4275   -0.7551 C   0  0  0  0  0  0  0  0  0  0  0  0
  -58.4472  -20.9120   -3.5489 C   0  0  0  0  0  0  0  0  0  0  0  0
  -64.4280  -27.6612    3.8278 C   0  0  0  0  0  0  0  0  0  0  0  0
  -62.2640  -27.2387    4.7310 C   0  0  0  0  0  0  0  0  0  0  0  0
  -63.5766  -27.6115    4.9079 C   0  0  0  0  0  0  0  0  0  0  0  0
  -58.1741  -26.9503    1.9126 C   0  0  0  0  0  0  0  0  0  0  0  0
  -58.5366  -27.7286   -0.3099 C   0  0  0  0  0  0  0  0  0  0  0  0
  -58.3286  -27.9900    1.0249 C   0  0  0  0  0  0  0  0  0  0  0  0
  -59.5794  -19.1249   -2.4549 C   0  0  0  0  0  0  0  0  0  0  0  0
  -60.3381  -19.1440   -1.2907 C   0  0  0  0  0  0  0  0  0  0  0  0
  -59.9988  -18.3343   -3.5206 C   0  0  0  0  0  0  0  0  0  0  0  0
  -61.4741  -18.3762   -1.1916 C   0  0  0  0  0  0  0  0  0  0  0  0
  -61.1379  -17.5726   -3.4028 C   0  0  0  0  0  0  0  0  0  0  0  0
  -59.9736  -19.9819   -0.0741 C   0  0  0  0  0  0  0  0  0  0  0  0
  -59.2867  -18.2367   -4.8615 C   0  0  0  0  0  0  0  0  0  0  0  0
  -61.8761  -17.5888   -2.2436 C   0  0  0  0  0  0  0  0  0  0  0  0
  -62.6446  -24.5972    1.0905 H   0  0  0  0  0  0  0  0  0  0  0  0
  -66.1660  -26.0762   -0.9514 H   0  0  0  0  0  0  0  0  0  0  0  0
  -60.8402  -23.5121    0.4717 H   0  0  0  0  0  0  0  0  0  0  0  0
  -59.7702  -24.3881   -1.9439 H   0  0  0  0  0  0  0  0  0  0  0  0
  -62.7361  -22.4765   -0.7495 H   0  0  0  0  0  0  0  0  0  0  0  0
  -64.1683  -26.2893   -0.6366 H   0  0  0  0  0  0  0  0  0  0  0  0
  -60.0114  -21.6831   -1.8372 H   0  0  0  0  0  0  0  0  0  0  0  0
  -68.4331  -28.4874    1.8766 H   0  0  0  0  0  0  0  0  0  0  0  0
  -62.4980  -24.5918   -1.5691 H   0  0  0  0  0  0  0  0  0  0  0  0
  -61.2294  -25.5355   -1.0761 H   0  0  0  0  0  0  0  0  0  0  0  0
  -67.2004  -23.4443   -0.6742 H   0  0  0  0  0  0  0  0  0  0  0  0
  -61.1406  -26.5304    1.0598 H   0  0  0  0  0  0  0  0  0  0  0  0
  -62.4552  -27.3452    0.4070 H   0  0  0  0  0  0  0  0  0  0  0  0
  -68.0885  -23.9765    1.0261 H   0  0  0  0  0  0  0  0  0  0  0  0
  -67.5078  -24.6744    2.3812 H   0  0  0  0  0  0  0  0  0  0  0  0
  -69.9257  -25.5122    1.0119 H   0  0  0  0  0  0  0  0  0  0  0  0
  -69.9155  -24.7379    2.4248 H   0  0  0  0  0  0  0  0  0  0  0  0
  -58.5536  -23.3416    0.4301 H   0  0  0  0  0  0  0  0  0  0  0  0
  -57.6759  -23.7991   -0.9116 H   0  0  0  0  0  0  0  0  0  0  0  0
  -68.2387  -24.7379   -2.8663 H   0  0  0  0  0  0  0  0  0  0  0  0
  -68.4822  -25.7070   -1.5722 H   0  0  0  0  0  0  0  0  0  0  0  0
  -69.0854  -24.1948   -1.5768 H   0  0  0  0  0  0  0  0  0  0  0  0
  -66.5244  -24.0546   -3.2698 H   0  0  0  0  0  0  0  0  0  0  0  0
  -65.8330  -22.8984   -2.3436 H   0  0  0  0  0  0  0  0  0  0  0  0
  -65.2290  -24.4102   -2.3366 H   0  0  0  0  0  0  0  0  0  0  0  0
  -68.7582  -26.5480    3.4557 H   0  0  0  0  0  0  0  0  0  0  0  0
  -70.0834  -27.1501    2.6924 H   0  0  0  0  0  0  0  0  0  0  0  0
  -64.5861  -27.3753    1.7887 H   0  0  0  0  0  0  0  0  0  0  0  0
  -60.8496  -26.6449    3.3486 H   0  0  0  0  0  0  0  0  0  0  0  0
  -58.1150  -24.8952    2.1125 H   0  0  0  0  0  0  0  0  0  0  0  0
  -58.7406  -26.2395   -1.7257 H   0  0  0  0  0  0  0  0  0  0  0  0
  -57.6205  -20.8185   -4.1042 H   0  0  0  0  0  0  0  0  0  0  0  0
  -59.2395  -20.8319   -4.1536 H   0  0  0  0  0  0  0  0  0  0  0  0
  -65.3820  -27.9323    3.9552 H   0  0  0  0  0  0  0  0  0  0  0  0
  -61.6445  -27.2024    5.5151 H   0  0  0  0  0  0  0  0  0  0  0  0
  -63.9117  -27.8464    5.8203 H   0  0  0  0  0  0  0  0  0  0  0  0
  -58.0227  -27.1395    2.8827 H   0  0  0  0  0  0  0  0  0  0  0  0
  -58.6489  -28.4835   -0.9562 H   0  0  0  0  0  0  0  0  0  0  0  0
  -58.2899  -28.9351    1.3494 H   0  0  0  0  0  0  0  0  0  0  0  0
  -62.0112  -18.3906   -0.3482 H   0  0  0  0  0  0  0  0  0  0  0  0
  -61.4324  -17.0009   -4.1688 H   0  0  0  0  0  0  0  0  0  0  0  0
  -60.6559  -19.8313    0.6412 H   0  0  0  0  0  0  0  0  0  0  0  0
  -59.9554  -20.9502   -0.3239 H   0  0  0  0  0  0  0  0  0  0  0  0
  -59.0696  -19.7150    0.2601 H   0  0  0  0  0  0  0  0  0  0  0  0
  -59.7915  -17.6080   -5.4532 H   0  0  0  0  0  0  0  0  0  0  0  0
  -58.3560  -17.8976   -4.7259 H   0  0  0  0  0  0  0  0  0  0  0  0
  -59.2449  -19.1407   -5.2870 H   0  0  0  0  0  0  0  0  0  0  0  0
  -62.7020  -17.0300   -2.1659 H   0  0  0  0  0  0  0  0  0  0  0  0
  2 17  2  0
  3 21  2  0
  4 27  2  0
  5 32  1  0
  5 39  1  0
  6 11  1  0
  6 18  1  0
  6 21  1  0
  7 17  1  0
  8 27  1  0
  9 21  1  0
  9 24  1  0
 10  7  1  0
 10 12  1  0
 10 16  1  0
 11 14  1  0
 11 17  1  0
 12 13  1  0
 13  1  1  0
 13 15  1  0
 14 22  1  0
 14 23  1  0
 15  8  1  0
 15 20  1  0
 16 25  1  0
 18 19  1  0
 19 24  1  0
 20 26  1  0
 25 28  2  0
 25 29  1  0
 26 30  2  0
 26 31  1  0
 27 32  1  0
 28 33  1  0
 29 34  2  0
 30 36  1  0
 31 37  2  0
 33 35  2  0
 34 35  1  0
 36 38  2  0
 37 38  1  0
 39 40  2  0
 39 41  1  0
 40 42  1  0
 40 44  1  0
 41 43  2  0
 41 45  1  0
 42 46  2  0
 43 46  1  0
  1 51  1  0
  7 52  1  0
  8 53  1  0
  9 54  1  0
 10 47  1  0
 11 48  1  0
 12 55  1  0
 12 56  1  0
 13 49  1  0
 14 57  1  0
 15 50  1  0
 16 58  1  0
 16 59  1  0
 18 60  1  0
 18 61  1  0
 19 62  1  0
 19 63  1  0
 20 64  1  0
 20 65  1  0
 22 66  1  0
 22 67  1  0
 22 68  1  0
 23 69  1  0
 23 70  1  0
 23 71  1  0
 24 72  1  0
 24 73  1  0
 28 74  1  0
 29 75  1  0
 30 76  1  0
 31 77  1  0
 32 78  1  0
 32 79  1  0
 33 80  1  0
 34 81  1  0
 35 82  1  0
 36 83  1  0
 37 84  1  0
 38 85  1  0
 42 86  1  0
 43 87  1  0
 44 88  1  0
 44 89  1  0
 44 90  1  0
 45 91  1  0
 45 92  1  0
 45 93  1  0
 46 94  1  0
M  END
>  <LF dG>
-10.737

>  <LF VSscore>
-13.006

>  <LF Rank Score>
-14.987

>  <LF LE>
-0.233

>  <LF Structure Name>
C:\Users\Odara\AppData\Local\Temp\LeadFinder_396_1\Ligand_1.sdf

>  <LF SDF id>
0

>  <LF Pose rank>
0

>  <LF version>
2001 1, 19 January 2019

>  <PUBCHEM_COMPOUND_CID>
92727

>  <PUBCHEM_COMPOUND_CANONICALIZED>
1

>  <PUBCHEM_CACTVS_COMPLEXITY>
940

>  <PUBCHEM_CACTVS_HBOND_ACCEPTOR>
5

>  <PUBCHEM_CACTVS_HBOND_DONOR>
4

>  <PUBCHEM_CACTVS_ROTATABLE_BOND>
15

>  <PUBCHEM_CACTVS_SUBSKEYS>
AAADcfB/uAAAAAAAAAAAAAAAAAAAAAAAAAA8YMEAAAAAAAABUAAAHgAQCAAADTzhmAYzBoPABgCIAiFSEAICCAAgIAAIiIHMCIiOdjKE8T+XeCCu1hOYqAeQwPAOAAACAAAIAAAAAAQAABAAAAAAAAAAAA==

>  <PUBCHEM_IUPAC_OPENEYE_NAME>
(2S)-N-[(1S,3S,4S)-1-benzyl-4-[[2-(2,6-dimethylphenoxy)acetyl]amino]-3-hydroxy-5-phenyl-pentyl]-3-methyl-2-(2-oxohexahydropyrimidin-1-yl)butanamide

>  <PUBCHEM_IUPAC_CAS_NAME>
(2S)-N-[(2S,4S,5S)-5-[[2-(2,6-dimethylphenoxy)-1-oxoethyl]amino]-4-hydroxy-1,6-diphenylhexan-2-yl]-3-methyl-2-(2-oxo-1,3-diazinan-1-yl)butanamide

>  <PUBCHEM_IUPAC_NAME_MARKUP>
(2<I>S</I>)-<I>N</I>-[(2<I>S</I>,4<I>S</I>,5<I>S</I>)-5-[[2-(2,6-dimethylphenoxy)acetyl]amino]-4-hydroxy-1,6-diphenylhexan-2-yl]-3-methyl-2-(2-oxo-1,3-diazinan-1-yl)butanamide

>  <PUBCHEM_IUPAC_NAME>
(2S)-N-[(2S,4S,5S)-5-[[2-(2,6-dimethylphenoxy)acetyl]amino]-4-hydroxy-1,6-diphenylhexan-2-yl]-3-methyl-2-(2-oxo-1,3-diazinan-1-yl)butanamide

>  <PUBCHEM_IUPAC_SYSTEMATIC_NAME>
(2S)-N-[(2S,4S,5S)-5-[2-(2,6-dimethylphenoxy)ethanoylamino]-4-oxidanyl-1,6-diphenyl-hexan-2-yl]-3-methyl-2-(2-oxidanylidene-1,3-diazinan-1-yl)butanamide

>  <PUBCHEM_IUPAC_TRADITIONAL_NAME>
(2S)-N-[(1S,3S,4S)-1-benzyl-4-[[2-(2,6-dimethylphenoxy)acetyl]amino]-3-hydroxy-5-phenyl-pentyl]-2-(2-ketohexahydropyrimidin-1-yl)-3-methyl-butyramide

>  <PUBCHEM_IUPAC_INCHI>
InChI=1S/C37H48N4O5/c1-25(2)34(41-20-12-19-38-37(41)45)36(44)39-30(21-28-15-7-5-8-16-28)23-32(42)31(22-29-17-9-6-10-18-29)40-33(43)24-46-35-26(3)13-11-14-27(35)4/h5-11,13-18,25,30-32,34,42H,12,19-24H2

>  <PUBCHEM_IUPAC_INCHIKEY>
KJHKTHWMRKYKJE-SUGCFTRWSA-N

>  <PUBCHEM_XLOGP3_AA>
5.9

>  <PUBCHEM_EXACT_MASS>
628.362471

>  <PUBCHEM_MOLECULAR_FORMULA>
C37H48N4O5

>  <PUBCHEM_MOLECULAR_WEIGHT>
628.8

>  <PUBCHEM_OPENEYE_CAN_SMILES>
CC1=C(C(=CC=C1)C)OCC(=O)NC(CC2=CC=CC=C2)C(CC(CC3=CC=CC=C3)NC(=O)C(C(C)C)N4CCCNC4=O)O

>  <PUBCHEM_OPENEYE_ISO_SMILES>
CC1=C(C(=CC=C1)C)OCC(=O)N[C@@H](CC2=CC=CC=C2)[C@H](C[C@H](CC3=CC=CC=C3)NC(=O)[C@H](C(C)C)N4CCCNC4=O)O

>  <PUBCHEM_CACTVS_TPSA>
120

>  <PUBCHEM_MONOISOTOPIC_WEIGHT>
628.362471

>  <PUBCHEM_TOTAL_CHARGE>
0

>  <PUBCHEM_HEAVY_ATOM_COUNT>
46

>  <PUBCHEM_ATOM_DEF_STEREO_COUNT>
4

>  <PUBCHEM_ATOM_UDEF_STEREO_COUNT>
0

>  <PUBCHEM_BOND_DEF_STEREO_COUNT>
0

>  <PUBCHEM_BOND_UDEF_STEREO_COUNT>
0

>  <PUBCHEM_ISOTOPIC_ATOM_COUNT>
0

>  <PUBCHEM_COMPONENT_COUNT>
1

>  <PUBCHEM_CACTVS_TAUTO_COUNT>
-1

>  <PUBCHEM_COORDINATE_TYPE>
1
5
255

>  <PUBCHEM_BONDANNOTATIONS>
13  1  6
11  17  5
25  28  8
25  29  8
26  30  8
26  31  8
28  33  8
29  34  8
30  36  8
31  37  8
33  35  8
34  35  8
36  38  8
37  38  8
39  40  8
39  41  8
40  42  8
41  43  8
42  46  8
43  46  8
10  7  6
15  8  5

>  <Favorite_cresset>
false

>  <MW_cresset>
628.8

>  <#Atoms_cresset>
46

>  <SlogP_cresset>
4.7

>  <TPSA_cresset>
120

>  <Flexibility_cresset>
16.1

>  <#RB_cresset>
16

>  <Rof5_cresset>
1

>  <Filename_cresset>
drag.2_545.sdf

>  <Confs_cresset>
0

>  <Poses_cresset>
0

$$$$
Site2_Lopinavir_D
  xed2sdf_05210316543D
 
 94 97  0  0  1  0  0  0  0  0999 V2000
  -61.1042  -23.0980    2.2901 O   0  0  0  0  0  0  0  0  0  0  0  0
  -64.3565  -23.7603    3.0765 O   0  0  0  0  0  0  0  0  0  0  0  0
  -67.9242  -23.1666    1.1587 O   0  0  0  0  0  0  0  0  0  0  0  0
  -62.0580  -22.1296   -1.2754 O   0  0  0  0  0  0  0  0  0  0  0  0
  -59.8686  -19.6223   -0.7531 O   0  0  0  0  0  0  0  0  0  0  0  0
  -66.5762  -24.9582    0.8872 N   0  0  0  0  0  0  0  0  0  0  0  0
  -64.0684  -25.8246    2.1677 N   0  0  0  0  0  0  0  0  0  0  0  0
  -60.2344  -22.2095    0.0913 N   0  0  0  0  0  0  0  0  0  0  0  0
  -67.5733  -23.8686   -0.9346 N   0  0  0  0  0  0  0  0  0  0  0  0
  -62.6068  -25.7881    2.3049 C   0  0  0  0  0  0  0  0  0  0  0  0
  -66.2843  -25.0234    2.3321 C   0  0  0  0  0  0  0  0  0  0  0  0
  -62.0596  -25.0077    1.0903 C   0  0  0  0  0  0  0  0  0  0  0  0
  -60.7906  -24.1951    1.4171 C   0  0  0  0  0  0  0  0  0  0  0  0
  -66.7889  -26.3218    3.0054 C   0  0  0  0  0  0  0  0  0  0  0  0
  -60.1792  -23.6780    0.0982 C   0  0  0  0  0  0  0  0  0  0  0  0
  -62.1265  -27.2532    2.3660 C   0  0  0  0  0  0  0  0  0  0  0  0
  -64.8074  -24.7799    2.5719 C   0  0  0  0  0  0  0  0  0  0  0  0
  -65.9868  -25.9878    0.0137 C   0  0  0  0  0  0  0  0  0  0  0  0
  -65.6407  -25.3684   -1.3432 C   0  0  0  0  0  0  0  0  0  0  0  0
  -58.7194  -24.1392   -0.0882 C   0  0  0  0  0  0  0  0  0  0  0  0
  -67.3770  -23.9749    0.4012 C   0  0  0  0  0  0  0  0  0  0  0  0
  -68.1491  -26.7472    2.4266 C   0  0  0  0  0  0  0  0  0  0  0  0
  -66.9743  -26.1121    4.5179 C   0  0  0  0  0  0  0  0  0  0  0  0
  -66.9447  -24.7866   -1.8983 C   0  0  0  0  0  0  0  0  0  0  0  0
  -62.5739  -28.0554    3.5774 C   0  0  0  0  0  0  0  0  0  0  0  0
  -58.4698  -25.6023    0.2454 C   0  0  0  0  0  0  0  0  0  0  0  0
  -61.2119  -21.5831   -0.5816 C   0  0  0  0  0  0  0  0  0  0  0  0
  -62.2631  -27.6300    4.8505 C   0  0  0  0  0  0  0  0  0  0  0  0
  -63.3011  -29.2126    3.4062 C   0  0  0  0  0  0  0  0  0  0  0  0
  -58.6806  -26.5777   -0.7044 C   0  0  0  0  0  0  0  0  0  0  0  0
  -58.0280  -25.9603    1.5007 C   0  0  0  0  0  0  0  0  0  0  0  0
  -61.1793  -20.0891   -0.3741 C   0  0  0  0  0  0  0  0  0  0  0  0
  -62.6749  -28.3567    5.9442 C   0  0  0  0  0  0  0  0  0  0  0  0
  -63.7140  -29.9405    4.4987 C   0  0  0  0  0  0  0  0  0  0  0  0
  -63.4006  -29.5126    5.7685 C   0  0  0  0  0  0  0  0  0  0  0  0
  -58.4508  -27.9007   -0.4020 C   0  0  0  0  0  0  0  0  0  0  0  0
  -57.7975  -27.2826    1.8044 C   0  0  0  0  0  0  0  0  0  0  0  0
  -58.0089  -28.2534    0.8526 C   0  0  0  0  0  0  0  0  0  0  0  0
  -59.6741  -19.2832   -2.0348 C   0  0  0  0  0  0  0  0  0  0  0  0
  -58.7519  -19.9918   -2.7954 C   0  0  0  0  0  0  0  0  0  0  0  0
  -60.3526  -18.2172   -2.6179 C   0  0  0  0  0  0  0  0  0  0  0  0
  -58.5322  -19.6539   -4.1099 C   0  0  0  0  0  0  0  0  0  0  0  0
  -60.1198  -17.8937   -3.9342 C   0  0  0  0  0  0  0  0  0  0  0  0
  -57.9499  -21.1645   -2.2504 C   0  0  0  0  0  0  0  0  0  0  0  0
  -61.3650  -17.3368   -1.9010 C   0  0  0  0  0  0  0  0  0  0  0  0
  -59.2144  -18.6076   -4.6829 C   0  0  0  0  0  0  0  0  0  0  0  0
  -62.2827  -25.3271    3.1309 H   0  0  0  0  0  0  0  0  0  0  0  0
  -66.8031  -24.2930    2.7766 H   0  0  0  0  0  0  0  0  0  0  0  0
  -60.1301  -24.7810    1.8868 H   0  0  0  0  0  0  0  0  0  0  0  0
  -60.7116  -24.0567   -0.6588 H   0  0  0  0  0  0  0  0  0  0  0  0
  -60.2721  -22.6675    2.6555 H   0  0  0  0  0  0  0  0  0  0  0  0
  -64.4593  -26.5409    1.8336 H   0  0  0  0  0  0  0  0  0  0  0  0
  -59.6402  -21.7477    0.5486 H   0  0  0  0  0  0  0  0  0  0  0  0
  -68.1055  -23.2349   -1.2349 H   0  0  0  0  0  0  0  0  0  0  0  0
  -62.7682  -24.3802    0.7675 H   0  0  0  0  0  0  0  0  0  0  0  0
  -61.8116  -25.6787    0.3916 H   0  0  0  0  0  0  0  0  0  0  0  0
  -66.1028  -27.0284    2.8317 H   0  0  0  0  0  0  0  0  0  0  0  0
  -61.1266  -27.2489    2.3523 H   0  0  0  0  0  0  0  0  0  0  0  0
  -62.5445  -27.7051    1.5778 H   0  0  0  0  0  0  0  0  0  0  0  0
  -66.6414  -26.7330   -0.1144 H   0  0  0  0  0  0  0  0  0  0  0  0
  -65.1552  -26.3475    0.4365 H   0  0  0  0  0  0  0  0  0  0  0  0
  -65.2791  -26.0663   -1.9616 H   0  0  0  0  0  0  0  0  0  0  0  0
  -64.9400  -24.6611   -1.2503 H   0  0  0  0  0  0  0  0  0  0  0  0
  -58.1361  -23.5788    0.4999 H   0  0  0  0  0  0  0  0  0  0  0  0
  -58.5105  -24.0321   -1.0603 H   0  0  0  0  0  0  0  0  0  0  0  0
  -68.8205  -26.7844    3.1667 H   0  0  0  0  0  0  0  0  0  0  0  0
  -68.4443  -26.0859    1.7368 H   0  0  0  0  0  0  0  0  0  0  0  0
  -68.0663  -27.6476    1.9996 H   0  0  0  0  0  0  0  0  0  0  0  0
  -67.9262  -26.3011    4.7588 H   0  0  0  0  0  0  0  0  0  0  0  0
  -66.3705  -26.7303    5.0212 H   0  0  0  0  0  0  0  0  0  0  0  0
  -66.7463  -25.1681    4.7574 H   0  0  0  0  0  0  0  0  0  0  0  0
  -66.7487  -24.2896   -2.7438 H   0  0  0  0  0  0  0  0  0  0  0  0
  -67.5764  -25.5415   -2.0735 H   0  0  0  0  0  0  0  0  0  0  0  0
  -61.7364  -26.7899    4.9803 H   0  0  0  0  0  0  0  0  0  0  0  0
  -63.5303  -29.5250    2.4843 H   0  0  0  0  0  0  0  0  0  0  0  0
  -59.0020  -26.3236   -1.6166 H   0  0  0  0  0  0  0  0  0  0  0  0
  -57.8740  -25.2562    2.1938 H   0  0  0  0  0  0  0  0  0  0  0  0
  -61.8760  -19.6488   -0.9403 H   0  0  0  0  0  0  0  0  0  0  0  0
  -61.3674  -19.8655    0.5822 H   0  0  0  0  0  0  0  0  0  0  0  0
  -62.4466  -28.0450    6.8665 H   0  0  0  0  0  0  0  0  0  0  0  0
  -64.2416  -30.7801    4.3699 H   0  0  0  0  0  0  0  0  0  0  0  0
  -63.7000  -30.0412    6.5628 H   0  0  0  0  0  0  0  0  0  0  0  0
  -58.6049  -28.6057   -1.0942 H   0  0  0  0  0  0  0  0  0  0  0  0
  -57.4765  -27.5377    2.7164 H   0  0  0  0  0  0  0  0  0  0  0  0
  -57.8415  -29.2145    1.0722 H   0  0  0  0  0  0  0  0  0  0  0  0
  -57.8715  -20.1725   -4.6524 H   0  0  0  0  0  0  0  0  0  0  0  0
  -60.6145  -17.1311   -4.3512 H   0  0  0  0  0  0  0  0  0  0  0  0
  -57.3597  -21.5202   -2.9751 H   0  0  0  0  0  0  0  0  0  0  0  0
  -57.3904  -20.8617   -1.4789 H   0  0  0  0  0  0  0  0  0  0  0  0
  -58.5725  -21.8824   -1.9389 H   0  0  0  0  0  0  0  0  0  0  0  0
  -61.7025  -16.6434   -2.5380 H   0  0  0  0  0  0  0  0  0  0  0  0
  -62.1284  -17.8953   -1.5761 H   0  0  0  0  0  0  0  0  0  0  0  0
  -60.9300  -16.8926   -1.1176 H   0  0  0  0  0  0  0  0  0  0  0  0
  -59.0531  -18.3665   -5.6398 H   0  0  0  0  0  0  0  0  0  0  0  0
  2 17  2  0
  3 21  2  0
  4 27  2  0
  5 32  1  0
  5 39  1  0
  6 11  1  0
  6 18  1  0
  6 21  1  0
  7 17  1  0
  8 27  1  0
  9 21  1  0
  9 24  1  0
 10  7  1  0
 10 12  1  0
 10 16  1  0
 11 14  1  0
 11 17  1  0
 12 13  1  0
 13  1  1  0
 13 15  1  0
 14 22  1  0
 14 23  1  0
 15  8  1  0
 15 20  1  0
 16 25  1  0
 18 19  1  0
 19 24  1  0
 20 26  1  0
 25 28  2  0
 25 29  1  0
 26 30  2  0
 26 31  1  0
 27 32  1  0
 28 33  1  0
 29 34  2  0
 30 36  1  0
 31 37  2  0
 33 35  2  0
 34 35  1  0
 36 38  2  0
 37 38  1  0
 39 40  2  0
 39 41  1  0
 40 42  1  0
 40 44  1  0
 41 43  2  0
 41 45  1  0
 42 46  2  0
 43 46  1  0
  1 51  1  0
  7 52  1  0
  8 53  1  0
  9 54  1  0
 10 47  1  0
 11 48  1  0
 12 55  1  0
 12 56  1  0
 13 49  1  0
 14 57  1  0
 15 50  1  0
 16 58  1  0
 16 59  1  0
 18 60  1  0
 18 61  1  0
 19 62  1  0
 19 63  1  0
 20 64  1  0
 20 65  1  0
 22 66  1  0
 22 67  1  0
 22 68  1  0
 23 69  1  0
 23 70  1  0
 23 71  1  0
 24 72  1  0
 24 73  1  0
 28 74  1  0
 29 75  1  0
 30 76  1  0
 31 77  1  0
 32 78  1  0
 32 79  1  0
 33 80  1  0
 34 81  1  0
 35 82  1  0
 36 83  1  0
 37 84  1  0
 38 85  1  0
 42 86  1  0
 43 87  1  0
 44 88  1  0
 44 89  1  0
 44 90  1  0
 45 91  1  0
 45 92  1  0
 45 93  1  0
 46 94  1  0
M  END
>  <LF dG>
-11.158

>  <LF VSscore>
-13.572

>  <LF Rank Score>
-16.393

>  <LF LE>
-0.243

>  <LF Structure Name>
C:\Users\Odara\AppData\Local\Temp\LeadFinder_16304_1\Ligand_1.sdf

>  <LF SDF id>
0

>  <LF Pose rank>
0

>  <LF version>
2001 1, 19 January 2019

>  <PUBCHEM_COMPOUND_CID>
92727

>  <PUBCHEM_COMPOUND_CANONICALIZED>
1

>  <PUBCHEM_CACTVS_COMPLEXITY>
940

>  <PUBCHEM_CACTVS_HBOND_ACCEPTOR>
5

>  <PUBCHEM_CACTVS_HBOND_DONOR>
4

>  <PUBCHEM_CACTVS_ROTATABLE_BOND>
15

>  <PUBCHEM_CACTVS_SUBSKEYS>
AAADcfB/uAAAAAAAAAAAAAAAAAAAAAAAAAA8YMEAAAAAAAABUAAAHgAQCAAADTzhmAYzBoPABgCIAiFSEAICCAAgIAAIiIHMCIiOdjKE8T+XeCCu1hOYqAeQwPAOAAACAAAIAAAAAAQAABAAAAAAAAAAAA==

>  <PUBCHEM_IUPAC_OPENEYE_NAME>
(2S)-N-[(1S,3S,4S)-1-benzyl-4-[[2-(2,6-dimethylphenoxy)acetyl]amino]-3-hydroxy-5-phenyl-pentyl]-3-methyl-2-(2-oxohexahydropyrimidin-1-yl)butanamide

>  <PUBCHEM_IUPAC_CAS_NAME>
(2S)-N-[(2S,4S,5S)-5-[[2-(2,6-dimethylphenoxy)-1-oxoethyl]amino]-4-hydroxy-1,6-diphenylhexan-2-yl]-3-methyl-2-(2-oxo-1,3-diazinan-1-yl)butanamide

>  <PUBCHEM_IUPAC_NAME_MARKUP>
(2<I>S</I>)-<I>N</I>-[(2<I>S</I>,4<I>S</I>,5<I>S</I>)-5-[[2-(2,6-dimethylphenoxy)acetyl]amino]-4-hydroxy-1,6-diphenylhexan-2-yl]-3-methyl-2-(2-oxo-1,3-diazinan-1-yl)butanamide

>  <PUBCHEM_IUPAC_NAME>
(2S)-N-[(2S,4S,5S)-5-[[2-(2,6-dimethylphenoxy)acetyl]amino]-4-hydroxy-1,6-diphenylhexan-2-yl]-3-methyl-2-(2-oxo-1,3-diazinan-1-yl)butanamide

>  <PUBCHEM_IUPAC_SYSTEMATIC_NAME>
(2S)-N-[(2S,4S,5S)-5-[2-(2,6-dimethylphenoxy)ethanoylamino]-4-oxidanyl-1,6-diphenyl-hexan-2-yl]-3-methyl-2-(2-oxidanylidene-1,3-diazinan-1-yl)butanamide

>  <PUBCHEM_IUPAC_TRADITIONAL_NAME>
(2S)-N-[(1S,3S,4S)-1-benzyl-4-[[2-(2,6-dimethylphenoxy)acetyl]amino]-3-hydroxy-5-phenyl-pentyl]-2-(2-ketohexahydropyrimidin-1-yl)-3-methyl-butyramide

>  <PUBCHEM_IUPAC_INCHI>
InChI=1S/C37H48N4O5/c1-25(2)34(41-20-12-19-38-37(41)45)36(44)39-30(21-28-15-7-5-8-16-28)23-32(42)31(22-29-17-9-6-10-18-29)40-33(43)24-46-35-26(3)13-11-14-27(35)4/h5-11,13-18,25,30-32,34,42H,12,19-24H2

>  <PUBCHEM_IUPAC_INCHIKEY>
KJHKTHWMRKYKJE-SUGCFTRWSA-N

>  <PUBCHEM_XLOGP3_AA>
5.9

>  <PUBCHEM_EXACT_MASS>
628.362471

>  <PUBCHEM_MOLECULAR_FORMULA>
C37H48N4O5

>  <PUBCHEM_MOLECULAR_WEIGHT>
628.8

>  <PUBCHEM_OPENEYE_CAN_SMILES>
CC1=C(C(=CC=C1)C)OCC(=O)NC(CC2=CC=CC=C2)C(CC(CC3=CC=CC=C3)NC(=O)C(C(C)C)N4CCCNC4=O)O

>  <PUBCHEM_OPENEYE_ISO_SMILES>
CC1=C(C(=CC=C1)C)OCC(=O)N[C@@H](CC2=CC=CC=C2)[C@H](C[C@H](CC3=CC=CC=C3)NC(=O)[C@H](C(C)C)N4CCCNC4=O)O

>  <PUBCHEM_CACTVS_TPSA>
120

>  <PUBCHEM_MONOISOTOPIC_WEIGHT>
628.362471

>  <PUBCHEM_TOTAL_CHARGE>
0

>  <PUBCHEM_HEAVY_ATOM_COUNT>
46

>  <PUBCHEM_ATOM_DEF_STEREO_COUNT>
4

>  <PUBCHEM_ATOM_UDEF_STEREO_COUNT>
0

>  <PUBCHEM_BOND_DEF_STEREO_COUNT>
0

>  <PUBCHEM_BOND_UDEF_STEREO_COUNT>
0

>  <PUBCHEM_ISOTOPIC_ATOM_COUNT>
0

>  <PUBCHEM_COMPONENT_COUNT>
1

>  <PUBCHEM_CACTVS_TAUTO_COUNT>
-1

>  <PUBCHEM_COORDINATE_TYPE>
1
5
255

>  <PUBCHEM_BONDANNOTATIONS>
13  1  6
11  17  5
25  28  8
25  29  8
26  30  8
26  31  8
28  33  8
29  34  8
30  36  8
31  37  8
33  35  8
34  35  8
36  38  8
37  38  8
39  40  8
39  41  8
40  42  8
41  43  8
42  46  8
43  46  8
10  7  6
15  8  5

>  <Favorite_cresset>
false

>  <MW_cresset>
628.8

>  <#Atoms_cresset>
46

>  <SlogP_cresset>
4.7

>  <TPSA_cresset>
120

>  <Flexibility_cresset>
16.1

>  <#RB_cresset>
16

>  <Rof5_cresset>
1

>  <Filename_cresset>
drag.6_147.sdf

>  <Confs_cresset>
0

>  <Poses_cresset>
0

$$$$
W_Site2_DAR_D
  xed2sdf_05210316543D
 
 82 86  0  0  1  0  0  0  0  0999 V2000
  -57.9359  -25.8743    0.4902 O   0  0  0  0  0  0  0  0  0  0  0  0
  -58.9864  -25.8787    1.1081 C   0  0  0  0  0  0  0  0  0  0  0  0
  -59.7854  -27.1455    1.3091 C   0  0  0  0  0  0  0  0  0  0  0  0
  -61.2886  -26.8625    1.2944 C   0  0  0  0  0  0  0  0  0  0  0  0
  -61.5357  -25.8748    2.4382 C   0  0  0  0  0  0  0  0  0  0  0  0
  -62.9762  -25.5818    2.4748 N   0  0  0  0  0  0  0  0  0  0  0  0
  -63.6617  -24.8244    1.4139 C   0  0  0  0  0  0  0  0  0  0  0  0
  -65.0482  -25.4119    1.7368 C   0  0  0  0  0  0  0  0  0  0  0  0
  -66.3375  -24.8670    1.1617 C   0  0  0  0  0  0  0  0  0  0  0  0
  -66.1718  -24.1188    0.0329 N   0  0  0  0  0  0  0  0  0  0  0  0
  -66.6566  -24.6363   -1.2538 C   0  0  0  0  0  0  0  0  0  0  0  0
  -65.7222  -24.1885   -2.3918 C   0  0  0  0  0  0  0  0  0  0  0  0
  -64.4614  -25.0691   -2.4179 C   0  0  0  0  0  0  0  0  0  0  0  0
  -63.2123  -24.2344   -2.0832 C   0  0  0  0  0  0  0  0  0  0  0  0
  -61.9796  -24.9016   -2.7167 C   0  0  0  0  0  0  0  0  0  0  0  0
  -61.4979  -24.1496   -3.9704 C   0  0  0  0  0  0  0  0  0  0  0  0
  -61.7600  -22.7356   -3.6652 N   0  0  0  0  0  0  0  0  0  0  0  0
  -60.7277  -21.8996   -3.4281 C   0  0  0  0  0  0  0  0  0  0  0  0
  -59.5507  -22.1908   -3.6314 O   0  0  0  0  0  0  0  0  0  0  0  0
  -60.9936  -20.5780   -2.8128 C   0  0  0  0  0  0  0  0  0  0  0  0
  -61.7268  -20.5318   -1.6459 C   0  0  0  0  0  0  0  0  0  0  0  0
  -62.0287  -19.3272   -1.0663 C   0  0  0  0  0  0  0  0  0  0  0  0
  -61.6454  -18.1385   -1.5722 N   0  0  0  0  0  0  0  0  0  0  0  0
  -60.9181  -18.1978   -2.7003 C   0  0  0  0  0  0  0  0  0  0  0  0
  -60.5649  -19.3699   -3.3474 C   0  0  0  0  0  0  0  0  0  0  0  0
  -59.7563  -19.3314   -4.4901 N   0  0  0  0  0  0  0  0  0  0  0  0
  -58.6611  -18.5625   -4.6540 C   0  0  0  0  0  0  0  0  0  0  0  0
  -58.3438  -17.6301   -3.9312 O   0  0  0  0  0  0  0  0  0  0  0  0
  -57.7961  -18.9991   -5.8173 C   0  0  0  0  0  0  0  0  0  0  0  0
  -56.8858  -20.1783   -5.5238 C   0  0  0  0  0  0  0  0  0  0  0  0
  -55.9775  -20.1264   -4.4893 C   0  0  0  0  0  0  0  0  0  0  0  0
  -55.1746  -21.2113   -4.2190 C   0  0  0  0  0  0  0  0  0  0  0  0
  -55.2793  -22.3527   -4.9804 C   0  0  0  0  0  0  0  0  0  0  0  0
  -56.1870  -22.4081   -6.0144 C   0  0  0  0  0  0  0  0  0  0  0  0
  -56.3291  -23.8508   -6.9748 Cl  0  0  0  0  0  0  0  0  0  0  0  0
  -56.9872  -21.3209   -6.2849 C   0  0  0  0  0  0  0  0  0  0  0  0
  -67.4983  -25.1498    1.7760 C   0  0  0  0  0  0  0  0  0  0  0  0
  -67.4988  -25.9583    2.9961 C   0  0  0  0  0  0  0  0  0  0  0  0
  -66.3792  -26.0763    3.7072 C   0  0  0  0  0  0  0  0  0  0  0  0
  -65.1108  -25.3929    3.2666 C   0  0  0  0  0  0  0  0  0  0  0  0
  -63.7439  -25.9634    3.5069 C   0  0  0  0  0  0  0  0  0  0  0  0
  -63.3991  -26.6407    4.4650 O   0  0  0  0  0  0  0  0  0  0  0  0
  -60.7014  -24.6176    2.3038 C   0  0  0  0  0  0  0  0  0  0  0  0
  -61.0843  -23.5475    2.7446 O   0  0  0  0  0  0  0  0  0  0  0  0
  -59.5218  -24.7659    1.6589 N   0  0  0  0  0  0  0  0  0  0  0  0
  -61.2501  -26.2849    3.3043 H   0  0  0  0  0  0  0  0  0  0  0  0
  -65.0568  -26.2905    1.2592 H   0  0  0  0  0  0  0  0  0  0  0  0
  -65.2193  -24.5580    3.8060 H   0  0  0  0  0  0  0  0  0  0  0  0
  -59.5368  -27.5534    2.1876 H   0  0  0  0  0  0  0  0  0  0  0  0
  -59.5762  -27.7730    0.5591 H   0  0  0  0  0  0  0  0  0  0  0  0
  -61.8052  -27.7061    1.4407 H   0  0  0  0  0  0  0  0  0  0  0  0
  -61.5850  -26.4891    0.4152 H   0  0  0  0  0  0  0  0  0  0  0  0
  -63.3396  -25.0517    0.4947 H   0  0  0  0  0  0  0  0  0  0  0  0
  -63.5618  -23.8297    1.4040 H   0  0  0  0  0  0  0  0  0  0  0  0
  -65.5324  -23.5126    0.0237 H   0  0  0  0  0  0  0  0  0  0  0  0
  -67.5792  -24.2899   -1.4242 H   0  0  0  0  0  0  0  0  0  0  0  0
  -66.6716  -25.6356   -1.2189 H   0  0  0  0  0  0  0  0  0  0  0  0
  -65.4593  -23.2341   -2.2496 H   0  0  0  0  0  0  0  0  0  0  0  0
  -66.2021  -24.2800   -3.2644 H   0  0  0  0  0  0  0  0  0  0  0  0
  -64.3575  -25.4708   -3.3279 H   0  0  0  0  0  0  0  0  0  0  0  0
  -64.5581  -25.7920   -1.7338 H   0  0  0  0  0  0  0  0  0  0  0  0
  -63.0967  -24.1840   -1.0913 H   0  0  0  0  0  0  0  0  0  0  0  0
  -63.3178  -23.3084   -2.4461 H   0  0  0  0  0  0  0  0  0  0  0  0
  -62.2129  -25.8403   -2.9699 H   0  0  0  0  0  0  0  0  0  0  0  0
  -61.2394  -24.8844   -2.0442 H   0  0  0  0  0  0  0  0  0  0  0  0
  -62.0088  -24.4413   -4.7790 H   0  0  0  0  0  0  0  0  0  0  0  0
  -60.5349  -24.3243   -4.1756 H   0  0  0  0  0  0  0  0  0  0  0  0
  -62.5900  -22.4580   -3.5660 H   0  0  0  0  0  0  0  0  0  0  0  0
  -62.0397  -21.3809   -1.2205 H   0  0  0  0  0  0  0  0  0  0  0  0
  -62.5632  -19.3305   -0.2213 H   0  0  0  0  0  0  0  0  0  0  0  0
  -60.6099  -17.3348   -3.1010 H   0  0  0  0  0  0  0  0  0  0  0  0
  -59.9664  -19.8827   -5.1445 H   0  0  0  0  0  0  0  0  0  0  0  0
  -57.2270  -18.2239   -6.0922 H   0  0  0  0  0  0  0  0  0  0  0  0
  -58.4220  -19.2993   -6.5371 H   0  0  0  0  0  0  0  0  0  0  0  0
  -55.9014  -19.2986   -3.9335 H   0  0  0  0  0  0  0  0  0  0  0  0
  -54.5146  -21.1699   -3.4688 H   0  0  0  0  0  0  0  0  0  0  0  0
  -54.6963  -23.1413   -4.7831 H   0  0  0  0  0  0  0  0  0  0  0  0
  -57.6443  -21.3611   -7.0376 H   0  0  0  0  0  0  0  0  0  0  0  0
  -68.3601  -24.8084    1.4005 H   0  0  0  0  0  0  0  0  0  0  0  0
  -68.3348  -26.4193    3.2936 H   0  0  0  0  0  0  0  0  0  0  0  0
  -66.3802  -26.6245    4.5433 H   0  0  0  0  0  0  0  0  0  0  0  0
  -59.0396  -24.0342    1.5785 H   0  0  0  0  0  0  0  0  0  0  0  0
  1  2  2  0
  2  3  1  0
  2 45  1  0
  3  4  1  0
  4  5  1  0
  5  6  1  0
  5 43  1  0
  6  7  1  0
  6 41  1  0
  7  8  1  0
  8  9  1  0
  8 40  1  0
  9 10  1  0
  9 37  2  0
 10 11  1  0
 11 12  1  0
 12 13  1  0
 13 14  1  0
 14 15  1  0
 15 16  1  0
 16 17  1  0
 17 18  1  0
 18 19  2  0
 18 20  1  0
 20 21  2  0
 20 25  1  0
 21 22  1  0
 22 23  2  0
 23 24  1  0
 24 25  2  0
 25 26  1  0
 26 27  1  0
 27 28  2  0
 27 29  1  0
 29 30  1  0
 30 31  2  0
 30 36  1  0
 31 32  1  0
 32 33  2  0
 33 34  1  0
 34 35  1  0
 34 36  2  0
 37 38  1  0
 38 39  2  0
 39 40  1  0
 40 41  1  0
 41 42  2  0
 43 44  2  0
 43 45  1  0
  3 49  1  0
  3 50  1  0
  4 51  1  0
  4 52  1  0
  5 46  1  0
  7 53  1  0
  7 54  1  0
  8 47  1  0
 10 55  1  0
 11 56  1  0
 11 57  1  0
 12 58  1  0
 12 59  1  0
 13 60  1  0
 13 61  1  0
 14 62  1  0
 14 63  1  0
 15 64  1  0
 15 65  1  0
 16 66  1  0
 16 67  1  0
 17 68  1  0
 21 69  1  0
 22 70  1  0
 24 71  1  0
 26 72  1  0
 29 73  1  0
 29 74  1  0
 31 75  1  0
 32 76  1  0
 33 77  1  0
 36 78  1  0
 37 79  1  0
 38 80  1  0
 39 81  1  0
 40 48  1  0
 45 82  1  0
M  END
>  <LF dG>
-11.719

>  <LF VSscore>
-13.43

>  <LF Rank Score>
-6.642

>  <LF LE>
-0.26

>  <LF Structure Name>
C:\Users\Odara\AppData\Local\Temp\LeadFinder_15500_1\Ligand_1.sdf

>  <LF SDF id>
0

>  <LF Pose rank>
0

>  <LF version>
2001 1, 19 January 2019

>  <Favorite_cresset>
false

>  <MW_cresset>
633.1

>  <#Atoms_cresset>
45

>  <SlogP_cresset>
2.9

>  <TPSA_cresset>
149.6

>  <Flexibility_cresset>
10.4

>  <#RB_cresset>
13

>  <Rof5_cresset>
2

>  <Filename_cresset>
drag.45_558.sdf

>  <Confs_cresset>
0

>  <Poses_cresset>
0

$$$$
Site2_DAR_D
  xed2sdf_05210316543D
 
 82 86  0  0  1  0  0  0  0  0999 V2000
  -57.7988  -29.0790    0.8139 O   0  0  0  0  0  0  0  0  0  0  0  0
  -58.3041  -27.9883    0.6126 C   0  0  0  0  0  0  0  0  0  0  0  0
  -59.0583  -27.6842   -0.6611 C   0  0  0  0  0  0  0  0  0  0  0  0
  -58.8546  -26.2314   -1.0939 C   0  0  0  0  0  0  0  0  0  0  0  0
  -59.3750  -25.3765    0.0650 C   0  0  0  0  0  0  0  0  0  0  0  0
  -59.2138  -23.9643   -0.3112 N   0  0  0  0  0  0  0  0  0  0  0  0
  -58.2521  -23.5176   -1.3334 C   0  0  0  0  0  0  0  0  0  0  0  0
  -59.0088  -22.2107   -1.6339 C   0  0  0  0  0  0  0  0  0  0  0  0
  -58.4288  -21.0841   -2.4612 C   0  0  0  0  0  0  0  0  0  0  0  0
  -57.3926  -21.4599   -3.2654 N   0  0  0  0  0  0  0  0  0  0  0  0
  -56.4897  -20.4347   -3.8060 C   0  0  0  0  0  0  0  0  0  0  0  0
  -55.9039  -20.8996   -5.1511 C   0  0  0  0  0  0  0  0  0  0  0  0
  -56.4036  -19.9911   -6.2875 C   0  0  0  0  0  0  0  0  0  0  0  0
  -57.9192  -19.7540   -6.1626 C   0  0  0  0  0  0  0  0  0  0  0  0
  -58.2420  -18.3235   -6.6263 C   0  0  0  0  0  0  0  0  0  0  0  0
  -57.9480  -18.1227   -8.1237 C   0  0  0  0  0  0  0  0  0  0  0  0
  -58.0375  -16.6681   -8.3166 N   0  0  0  0  0  0  0  0  0  0  0  0
  -57.1162  -16.0353   -9.0725 C   0  0  0  0  0  0  0  0  0  0  0  0
  -56.2945  -16.6161   -9.7789 O   0  0  0  0  0  0  0  0  0  0  0  0
  -57.0154  -14.5585   -9.0047 C   0  0  0  0  0  0  0  0  0  0  0  0
  -55.7758  -13.9936   -8.7883 C   0  0  0  0  0  0  0  0  0  0  0  0
  -55.6456  -12.6338   -8.6790 C   0  0  0  0  0  0  0  0  0  0  0  0
  -56.6794  -11.7748   -8.7730 N   0  0  0  0  0  0  0  0  0  0  0  0
  -57.8789  -12.3364   -8.9996 C   0  0  0  0  0  0  0  0  0  0  0  0
  -58.0978  -13.6975   -9.1277 C   0  0  0  0  0  0  0  0  0  0  0  0
  -59.3786  -14.1837   -9.4187 N   0  0  0  0  0  0  0  0  0  0  0  0
  -60.0826  -13.9261  -10.5392 C   0  0  0  0  0  0  0  0  0  0  0  0
  -59.8095  -13.0596  -11.3558 O   0  0  0  0  0  0  0  0  0  0  0  0
  -61.2507  -14.8685  -10.7379 C   0  0  0  0  0  0  0  0  0  0  0  0
  -60.9534  -16.0713  -11.6156 C   0  0  0  0  0  0  0  0  0  0  0  0
  -61.5546  -16.2103  -12.8471 C   0  0  0  0  0  0  0  0  0  0  0  0
  -61.2585  -17.2937  -13.6430 C   0  0  0  0  0  0  0  0  0  0  0  0
  -60.3582  -18.2403  -13.2111 C   0  0  0  0  0  0  0  0  0  0  0  0
  -59.7545  -18.1037  -11.9809 C   0  0  0  0  0  0  0  0  0  0  0  0
  -58.6097  -19.2927  -11.4331 Cl  0  0  0  0  0  0  0  0  0  0  0  0
  -60.0546  -17.0209  -11.1850 C   0  0  0  0  0  0  0  0  0  0  0  0
  -58.9548  -19.8531   -2.3499 C   0  0  0  0  0  0  0  0  0  0  0  0
  -60.0610  -19.6150   -1.4215 C   0  0  0  0  0  0  0  0  0  0  0  0
  -60.2814  -20.4729   -0.4271 C   0  0  0  0  0  0  0  0  0  0  0  0
  -59.4098  -21.6889   -0.2512 C   0  0  0  0  0  0  0  0  0  0  0  0
  -59.9178  -22.9930    0.2897 C   0  0  0  0  0  0  0  0  0  0  0  0
  -60.8008  -23.1373    1.1234 O   0  0  0  0  0  0  0  0  0  0  0  0
  -58.6850  -25.7000    1.3742 C   0  0  0  0  0  0  0  0  0  0  0  0
  -58.5445  -24.8598    2.2461 O   0  0  0  0  0  0  0  0  0  0  0  0
  -58.2339  -26.9691    1.4983 N   0  0  0  0  0  0  0  0  0  0  0  0
  -60.3415  -25.5779    0.2239 H   0  0  0  0  0  0  0  0  0  0  0  0
  -59.7234  -22.4861   -2.2771 H   0  0  0  0  0  0  0  0  0  0  0  0
  -58.7627  -21.2916    0.3995 H   0  0  0  0  0  0  0  0  0  0  0  0
  -60.0334  -27.8485   -0.5113 H   0  0  0  0  0  0  0  0  0  0  0  0
  -58.7093  -28.2798   -1.3845 H   0  0  0  0  0  0  0  0  0  0  0  0
  -59.3684  -26.0398   -1.9303 H   0  0  0  0  0  0  0  0  0  0  0  0
  -57.8940  -26.0368   -1.2925 H   0  0  0  0  0  0  0  0  0  0  0  0
  -58.1968  -24.1330   -2.1199 H   0  0  0  0  0  0  0  0  0  0  0  0
  -57.2869  -23.4558   -1.0790 H   0  0  0  0  0  0  0  0  0  0  0  0
  -57.4520  -22.2288   -3.6913 H   0  0  0  0  0  0  0  0  0  0  0  0
  -55.7463  -20.2718   -3.1572 H   0  0  0  0  0  0  0  0  0  0  0  0
  -57.0044  -19.5894   -3.9496 H   0  0  0  0  0  0  0  0  0  0  0  0
  -56.1870  -21.8420   -5.3288 H   0  0  0  0  0  0  0  0  0  0  0  0
  -54.9061  -20.8492   -5.1083 H   0  0  0  0  0  0  0  0  0  0  0  0
  -56.2073  -20.4244   -7.1672 H   0  0  0  0  0  0  0  0  0  0  0  0
  -55.9340  -19.1104   -6.2270 H   0  0  0  0  0  0  0  0  0  0  0  0
  -58.2012  -19.8725   -5.2107 H   0  0  0  0  0  0  0  0  0  0  0  0
  -58.4122  -20.4118   -6.7323 H   0  0  0  0  0  0  0  0  0  0  0  0
  -57.6902  -17.6788   -6.0971 H   0  0  0  0  0  0  0  0  0  0  0  0
  -59.2183  -18.1645   -6.4803 H   0  0  0  0  0  0  0  0  0  0  0  0
  -58.6230  -18.6001   -8.6864 H   0  0  0  0  0  0  0  0  0  0  0  0
  -57.0573  -18.4899   -8.3919 H   0  0  0  0  0  0  0  0  0  0  0  0
  -58.6473  -16.2074   -7.8787 H   0  0  0  0  0  0  0  0  0  0  0  0
  -54.9687  -14.5789   -8.7105 H   0  0  0  0  0  0  0  0  0  0  0  0
  -54.7325  -12.2582   -8.5211 H   0  0  0  0  0  0  0  0  0  0  0  0
  -58.6685  -11.7285   -9.0819 H   0  0  0  0  0  0  0  0  0  0  0  0
  -59.7393  -14.7312   -8.8301 H   0  0  0  0  0  0  0  0  0  0  0  0
  -62.0005  -14.3538  -11.1539 H   0  0  0  0  0  0  0  0  0  0  0  0
  -61.4790  -15.2296   -9.8336 H   0  0  0  0  0  0  0  0  0  0  0  0
  -62.2078  -15.5225  -13.1638 H   0  0  0  0  0  0  0  0  0  0  0  0
  -61.6979  -17.3929  -14.5358 H   0  0  0  0  0  0  0  0  0  0  0  0
  -60.1419  -19.0269  -13.7899 H   0  0  0  0  0  0  0  0  0  0  0  0
  -59.6175  -16.9238  -10.2909 H   0  0  0  0  0  0  0  0  0  0  0  0
  -58.5915  -19.1011   -2.9000 H   0  0  0  0  0  0  0  0  0  0  0  0
  -60.6477  -18.8129   -1.5333 H   0  0  0  0  0  0  0  0  0  0  0  0
  -61.0340  -20.3078    0.2102 H   0  0  0  0  0  0  0  0  0  0  0  0
  -57.8303  -27.1549    2.2579 H   0  0  0  0  0  0  0  0  0  0  0  0
  1  2  2  0
  2  3  1  0
  2 45  1  0
  3  4  1  0
  4  5  1  0
  5  6  1  0
  5 43  1  0
  6  7  1  0
  6 41  1  0
  7  8  1  0
  8  9  1  0
  8 40  1  0
  9 10  1  0
  9 37  2  0
 10 11  1  0
 11 12  1  0
 12 13  1  0
 13 14  1  0
 14 15  1  0
 15 16  1  0
 16 17  1  0
 17 18  1  0
 18 19  2  0
 18 20  1  0
 20 21  2  0
 20 25  1  0
 21 22  1  0
 22 23  2  0
 23 24  1  0
 24 25  2  0
 25 26  1  0
 26 27  1  0
 27 28  2  0
 27 29  1  0
 29 30  1  0
 30 31  2  0
 30 36  1  0
 31 32  1  0
 32 33  2  0
 33 34  1  0
 34 35  1  0
 34 36  2  0
 37 38  1  0
 38 39  2  0
 39 40  1  0
 40 41  1  0
 41 42  2  0
 43 44  2  0
 43 45  1  0
  3 49  1  0
  3 50  1  0
  4 51  1  0
  4 52  1  0
  5 46  1  0
  7 53  1  0
  7 54  1  0
  8 47  1  0
 10 55  1  0
 11 56  1  0
 11 57  1  0
 12 58  1  0
 12 59  1  0
 13 60  1  0
 13 61  1  0
 14 62  1  0
 14 63  1  0
 15 64  1  0
 15 65  1  0
 16 66  1  0
 16 67  1  0
 17 68  1  0
 21 69  1  0
 22 70  1  0
 24 71  1  0
 26 72  1  0
 29 73  1  0
 29 74  1  0
 31 75  1  0
 32 76  1  0
 33 77  1  0
 36 78  1  0
 37 79  1  0
 38 80  1  0
 39 81  1  0
 40 48  1  0
 45 82  1  0
M  END
>  <LF dG>
-11.462

>  <LF VSscore>
-12.974

>  <LF Rank Score>
-6.398

>  <LF LE>
-0.255

>  <LF Structure Name>
C:\Users\Odara\AppData\Local\Temp\LeadFinder_13168_1\Ligand_1.sdf

>  <LF SDF id>
0

>  <LF Pose rank>
0

>  <LF version>
2001 1, 19 January 2019

>  <Favorite_cresset>
false

>  <MW_cresset>
633.1

>  <#Atoms_cresset>
45

>  <SlogP_cresset>
2.9

>  <TPSA_cresset>
149.6

>  <Flexibility_cresset>
10.4

>  <#RB_cresset>
13

>  <Rof5_cresset>
2

>  <Filename_cresset>
drag.48_409.sdf

>  <Confs_cresset>
0

>  <Poses_cresset>
0

$$$$
W_Site2_Baicalein_D
  xed2sdf_05210316543D
 
 30 32  0  0  0  0  0  0  0  0999 V2000
  -63.7250  -25.1935    0.3643 O   0  0  0  0  0  0  0  0  0  0  0  0
  -67.5908  -24.0598   -2.3206 O   0  0  0  0  0  0  0  0  0  0  0  0
  -69.0472  -23.8391   -0.0577 O   0  0  0  0  0  0  0  0  0  0  0  0
  -67.8851  -24.2887    2.3903 O   0  0  0  0  0  0  0  0  0  0  0  0
  -65.1433  -24.5957   -3.3716 O   0  0  0  0  0  0  0  0  0  0  0  0
  -65.6172  -24.6283   -1.0540 C   0  0  0  0  0  0  0  0  0  0  0  0
  -65.0341  -24.8570    0.1975 C   0  0  0  0  0  0  0  0  0  0  0  0
  -62.9220  -25.2663   -0.7462 C   0  0  0  0  0  0  0  0  0  0  0  0
  -66.9786  -24.2882   -1.1279 C   0  0  0  0  0  0  0  0  0  0  0  0
  -64.7544  -24.7552   -2.2153 C   0  0  0  0  0  0  0  0  0  0  0  0
  -63.3874  -25.0711   -2.0131 C   0  0  0  0  0  0  0  0  0  0  0  0
  -61.4897  -25.5802   -0.5077 C   0  0  0  0  0  0  0  0  0  0  0  0
  -65.8102  -24.7404    1.3362 C   0  0  0  0  0  0  0  0  0  0  0  0
  -67.7243  -24.1763    0.0196 C   0  0  0  0  0  0  0  0  0  0  0  0
  -67.1412  -24.4026    1.2590 C   0  0  0  0  0  0  0  0  0  0  0  0
  -60.5495  -24.6075   -0.1958 C   0  0  0  0  0  0  0  0  0  0  0  0
  -61.0701  -26.8992   -0.5905 C   0  0  0  0  0  0  0  0  0  0  0  0
  -59.2360  -24.9459    0.0227 C   0  0  0  0  0  0  0  0  0  0  0  0
  -59.7565  -27.2365   -0.3728 C   0  0  0  0  0  0  0  0  0  0  0  0
  -58.8364  -26.2601   -0.0653 C   0  0  0  0  0  0  0  0  0  0  0  0
  -68.5686  -23.8662   -2.2142 H   0  0  0  0  0  0  0  0  0  0  0  0
  -69.3834  -23.4639    0.8134 H   0  0  0  0  0  0  0  0  0  0  0  0
  -68.6747  -23.6805    2.2524 H   0  0  0  0  0  0  0  0  0  0  0  0
  -62.7687  -25.1504   -2.7942 H   0  0  0  0  0  0  0  0  0  0  0  0
  -65.3961  -24.9049    2.2315 H   0  0  0  0  0  0  0  0  0  0  0  0
  -60.8313  -23.6505   -0.1294 H   0  0  0  0  0  0  0  0  0  0  0  0
  -61.7328  -27.6147   -0.8117 H   0  0  0  0  0  0  0  0  0  0  0  0
  -58.5686  -24.2355    0.2461 H   0  0  0  0  0  0  0  0  0  0  0  0
  -59.4684  -28.1920   -0.4377 H   0  0  0  0  0  0  0  0  0  0  0  0
  -57.8798  -26.5049    0.0936 H   0  0  0  0  0  0  0  0  0  0  0  0
  1  7  1  0
  1  8  1  0
  2  9  1  0
  3 14  1  0
  4 15  1  0
  5 10  2  0
  6  7  2  0
  6  9  1  0
  6 10  1  0
  7 13  1  0
  8 11  2  0
  8 12  1  0
  9 14  2  0
 10 11  1  0
 12 16  2  0
 12 17  1  0
 13 15  2  0
 14 15  1  0
 16 18  1  0
 17 19  2  0
 18 20  2  0
 19 20  1  0
  2 21  1  0
  3 22  1  0
  4 23  1  0
 11 24  1  0
 13 25  1  0
 16 26  1  0
 17 27  1  0
 18 28  1  0
 19 29  1  0
 20 30  1  0
M  END
>  <LF dG>
-6.698

>  <LF VSscore>
-8.332

>  <LF Rank Score>
-11.228

>  <LF LE>
-0.335

>  <LF Structure Name>
C:\Users\Odara\AppData\Local\Temp\LeadFinder_9508_1\Ligand_1.sdf

>  <LF SDF id>
0

>  <LF Pose rank>
0

>  <LF version>
2001 1, 19 January 2019

>  <PUBCHEM_COMPOUND_CID>
5281605

>  <PUBCHEM_COMPOUND_CANONICALIZED>
1

>  <PUBCHEM_CACTVS_COMPLEXITY>
413

>  <PUBCHEM_CACTVS_HBOND_ACCEPTOR>
5

>  <PUBCHEM_CACTVS_HBOND_DONOR>
3

>  <PUBCHEM_CACTVS_ROTATABLE_BOND>
1

>  <PUBCHEM_CACTVS_SUBSKEYS>
AAADccBwOAAAAAAAAAAAAAAAAAAAAAAAAAAwYIAAAAAAAACBQAAAGgAACAAADASAmAAwBoAABgCIAqBSAAACCAAkIAAIiAEGiMgNJzaGNRqCeWGl4BUJuQfK7LzOIQABCAAIQABCAAIQABCAAAAAAAAAAA==

>  <PUBCHEM_IUPAC_OPENEYE_NAME>
5,6,7-trihydroxy-2-phenyl-chromen-4-one

>  <PUBCHEM_IUPAC_CAS_NAME>
5,6,7-trihydroxy-2-phenyl-1-benzopyran-4-one

>  <PUBCHEM_IUPAC_NAME_MARKUP>
5,6,7-trihydroxy-2-phenylchromen-4-one

>  <PUBCHEM_IUPAC_NAME>
5,6,7-trihydroxy-2-phenylchromen-4-one

>  <PUBCHEM_IUPAC_SYSTEMATIC_NAME>
5,6,7-tris(oxidanyl)-2-phenyl-chromen-4-one

>  <PUBCHEM_IUPAC_TRADITIONAL_NAME>
5,6,7-trihydroxy-2-phenyl-chromone

>  <PUBCHEM_IUPAC_INCHI>
InChI=1S/C15H10O5/c16-9-6-11(8-4-2-1-3-5-8)20-12-7-10(17)14(18)15(19)13(9)12/h1-7,17-19H

>  <PUBCHEM_IUPAC_INCHIKEY>
FXNFHKRTJBSTCS-UHFFFAOYSA-N

>  <PUBCHEM_XLOGP3>
1.7

>  <PUBCHEM_EXACT_MASS>
270.052823

>  <PUBCHEM_MOLECULAR_FORMULA>
C15H10O5

>  <PUBCHEM_MOLECULAR_WEIGHT>
270.24

>  <PUBCHEM_OPENEYE_CAN_SMILES>
C1=CC=C(C=C1)C2=CC(=O)C3=C(O2)C=C(C(=C3O)O)O

>  <PUBCHEM_OPENEYE_ISO_SMILES>
C1=CC=C(C=C1)C2=CC(=O)C3=C(O2)C=C(C(=C3O)O)O

>  <PUBCHEM_CACTVS_TPSA>
87

>  <PUBCHEM_MONOISOTOPIC_WEIGHT>
270.052823

>  <PUBCHEM_TOTAL_CHARGE>
0

>  <PUBCHEM_HEAVY_ATOM_COUNT>
20

>  <PUBCHEM_ATOM_DEF_STEREO_COUNT>
0

>  <PUBCHEM_ATOM_UDEF_STEREO_COUNT>
0

>  <PUBCHEM_BOND_DEF_STEREO_COUNT>
0

>  <PUBCHEM_BOND_UDEF_STEREO_COUNT>
0

>  <PUBCHEM_ISOTOPIC_ATOM_COUNT>
0

>  <PUBCHEM_COMPONENT_COUNT>
1

>  <PUBCHEM_CACTVS_TAUTO_COUNT>
-1

>  <PUBCHEM_COORDINATE_TYPE>
1
5
255

>  <PUBCHEM_BONDANNOTATIONS>
1  7  8
1  8  8
10  11  8
12  16  8
12  17  8
13  15  8
14  15  8
16  18  8
17  19  8
18  20  8
19  20  8
6  10  8
6  7  8
6  9  8
7  13  8
8  11  8
9  14  8

>  <Favorite_cresset>
false

>  <MW_cresset>
270.2

>  <#Atoms_cresset>
20

>  <SlogP_cresset>
2.3

>  <TPSA_cresset>
87

>  <Flexibility_cresset>
1.7

>  <#RB_cresset>
4

>  <Rof5_cresset>
0

>  <Filename_cresset>
drag.53_48.sdf

>  <Confs_cresset>
0

>  <Poses_cresset>
0

$$$$
Site2_Baicalein_D
  xed2sdf_05210316543D
 
 30 32  0  0  0  0  0  0  0  0999 V2000
  -53.6629  -21.8315   -9.9222 O   0  0  0  0  0  0  0  0  0  0  0  0
  -55.1726  -24.7944   -6.4036 O   0  0  0  0  0  0  0  0  0  0  0  0
  -55.1840  -22.6999   -4.6999 O   0  0  0  0  0  0  0  0  0  0  0  0
  -54.4456  -20.2006   -5.5681 O   0  0  0  0  0  0  0  0  0  0  0  0
  -54.6934  -25.6153   -8.9491 O   0  0  0  0  0  0  0  0  0  0  0  0
  -54.4233  -23.3835   -8.2120 C   0  0  0  0  0  0  0  0  0  0  0  0
  -54.0471  -22.1069   -8.6448 C   0  0  0  0  0  0  0  0  0  0  0  0
  -53.6905  -22.8458  -10.8462 C   0  0  0  0  0  0  0  0  0  0  0  0
  -54.8025  -23.5726   -6.8723 C   0  0  0  0  0  0  0  0  0  0  0  0
  -54.4010  -24.4470   -9.2008 C   0  0  0  0  0  0  0  0  0  0  0  0
  -54.0319  -24.1277  -10.5316 C   0  0  0  0  0  0  0  0  0  0  0  0
  -53.3178  -22.4830  -12.2379 C   0  0  0  0  0  0  0  0  0  0  0  0
  -54.0596  -21.0570   -7.7447 C   0  0  0  0  0  0  0  0  0  0  0  0
  -54.8084  -22.5113   -6.0011 C   0  0  0  0  0  0  0  0  0  0  0  0
  -54.4361  -21.2464   -6.4355 C   0  0  0  0  0  0  0  0  0  0  0  0
  -54.0262  -21.5533  -12.9871 C   0  0  0  0  0  0  0  0  0  0  0  0
  -52.2122  -23.0891  -12.8150 C   0  0  0  0  0  0  0  0  0  0  0  0
  -53.6407  -21.2450  -14.2690 C   0  0  0  0  0  0  0  0  0  0  0  0
  -51.8280  -22.7808  -14.0972 C   0  0  0  0  0  0  0  0  0  0  0  0
  -52.5417  -21.8575  -14.8271 C   0  0  0  0  0  0  0  0  0  0  0  0
  -55.7308  -24.7292   -5.5735 H   0  0  0  0  0  0  0  0  0  0  0  0
  -55.7350  -23.5350   -4.5926 H   0  0  0  0  0  0  0  0  0  0  0  0
  -53.5497  -19.7444   -5.5312 H   0  0  0  0  0  0  0  0  0  0  0  0
  -54.0223  -24.8383  -11.2350 H   0  0  0  0  0  0  0  0  0  0  0  0
  -53.7895  -20.1443   -8.0513 H   0  0  0  0  0  0  0  0  0  0  0  0
  -54.8257  -21.1034  -12.5893 H   0  0  0  0  0  0  0  0  0  0  0  0
  -51.6874  -23.7597  -12.2907 H   0  0  0  0  0  0  0  0  0  0  0  0
  -54.1600  -20.5739  -14.7981 H   0  0  0  0  0  0  0  0  0  0  0  0
  -51.0292  -23.2274  -14.5006 H   0  0  0  0  0  0  0  0  0  0  0  0
  -52.2621  -21.6322  -15.7607 H   0  0  0  0  0  0  0  0  0  0  0  0
  1  7  1  0
  1  8  1  0
  2  9  1  0
  3 14  1  0
  4 15  1  0
  5 10  2  0
  6  7  2  0
  6  9  1  0
  6 10  1  0
  7 13  1  0
  8 11  2  0
  8 12  1  0
  9 14  2  0
 10 11  1  0
 12 16  2  0
 12 17  1  0
 13 15  2  0
 14 15  1  0
 16 18  1  0
 17 19  2  0
 18 20  2  0
 19 20  1  0
  2 21  1  0
  3 22  1  0
  4 23  1  0
 11 24  1  0
 13 25  1  0
 16 26  1  0
 17 27  1  0
 18 28  1  0
 19 29  1  0
 20 30  1  0
M  END
>  <LF dG>
-6.657

>  <LF VSscore>
-7.427

>  <LF Rank Score>
-10.887

>  <LF LE>
-0.333

>  <LF Structure Name>
C:\Users\Odara\AppData\Local\Temp\LeadFinder_12816_1\Ligand_1.sdf

>  <LF SDF id>
0

>  <LF Pose rank>
0

>  <LF version>
2001 1, 19 January 2019

>  <PUBCHEM_COMPOUND_CID>
5281605

>  <PUBCHEM_COMPOUND_CANONICALIZED>
1

>  <PUBCHEM_CACTVS_COMPLEXITY>
413

>  <PUBCHEM_CACTVS_HBOND_ACCEPTOR>
5

>  <PUBCHEM_CACTVS_HBOND_DONOR>
3

>  <PUBCHEM_CACTVS_ROTATABLE_BOND>
1

>  <PUBCHEM_CACTVS_SUBSKEYS>
AAADccBwOAAAAAAAAAAAAAAAAAAAAAAAAAAwYIAAAAAAAACBQAAAGgAACAAADASAmAAwBoAABgCIAqBSAAACCAAkIAAIiAEGiMgNJzaGNRqCeWGl4BUJuQfK7LzOIQABCAAIQABCAAIQABCAAAAAAAAAAA==

>  <PUBCHEM_IUPAC_OPENEYE_NAME>
5,6,7-trihydroxy-2-phenyl-chromen-4-one

>  <PUBCHEM_IUPAC_CAS_NAME>
5,6,7-trihydroxy-2-phenyl-1-benzopyran-4-one

>  <PUBCHEM_IUPAC_NAME_MARKUP>
5,6,7-trihydroxy-2-phenylchromen-4-one

>  <PUBCHEM_IUPAC_NAME>
5,6,7-trihydroxy-2-phenylchromen-4-one

>  <PUBCHEM_IUPAC_SYSTEMATIC_NAME>
5,6,7-tris(oxidanyl)-2-phenyl-chromen-4-one

>  <PUBCHEM_IUPAC_TRADITIONAL_NAME>
5,6,7-trihydroxy-2-phenyl-chromone

>  <PUBCHEM_IUPAC_INCHI>
InChI=1S/C15H10O5/c16-9-6-11(8-4-2-1-3-5-8)20-12-7-10(17)14(18)15(19)13(9)12/h1-7,17-19H

>  <PUBCHEM_IUPAC_INCHIKEY>
FXNFHKRTJBSTCS-UHFFFAOYSA-N

>  <PUBCHEM_XLOGP3>
1.7

>  <PUBCHEM_EXACT_MASS>
270.052823

>  <PUBCHEM_MOLECULAR_FORMULA>
C15H10O5

>  <PUBCHEM_MOLECULAR_WEIGHT>
270.24

>  <PUBCHEM_OPENEYE_CAN_SMILES>
C1=CC=C(C=C1)C2=CC(=O)C3=C(O2)C=C(C(=C3O)O)O

>  <PUBCHEM_OPENEYE_ISO_SMILES>
C1=CC=C(C=C1)C2=CC(=O)C3=C(O2)C=C(C(=C3O)O)O

>  <PUBCHEM_CACTVS_TPSA>
87

>  <PUBCHEM_MONOISOTOPIC_WEIGHT>
270.052823

>  <PUBCHEM_TOTAL_CHARGE>
0

>  <PUBCHEM_HEAVY_ATOM_COUNT>
20

>  <PUBCHEM_ATOM_DEF_STEREO_COUNT>
0

>  <PUBCHEM_ATOM_UDEF_STEREO_COUNT>
0

>  <PUBCHEM_BOND_DEF_STEREO_COUNT>
0

>  <PUBCHEM_BOND_UDEF_STEREO_COUNT>
0

>  <PUBCHEM_ISOTOPIC_ATOM_COUNT>
0

>  <PUBCHEM_COMPONENT_COUNT>
1

>  <PUBCHEM_CACTVS_TAUTO_COUNT>
-1

>  <PUBCHEM_COORDINATE_TYPE>
1
5
255

>  <PUBCHEM_BONDANNOTATIONS>
1  7  8
1  8  8
10  11  8
12  16  8
12  17  8
13  15  8
14  15  8
16  18  8
17  19  8
18  20  8
19  20  8
6  10  8
6  7  8
6  9  8
7  13  8
8  11  8
9  14  8

>  <Favorite_cresset>
false

>  <MW_cresset>
270.2

>  <#Atoms_cresset>
20

>  <SlogP_cresset>
2.3

>  <TPSA_cresset>
87

>  <Flexibility_cresset>
1.7

>  <#RB_cresset>
4

>  <Rof5_cresset>
0

>  <Filename_cresset>
drag.57_464.sdf

>  <Confs_cresset>
0

>  <Poses_cresset>
0

$$$$
W_Site2_Baicalin_D
  xed2sdf_05210316543D
 
 49 52  0  0  1  0  0  0  0  0999 V2000
  -58.2325  -21.5672   -1.2846 O   0  0  0  0  0  0  0  0  0  0  0  0
  -59.3538  -23.3577    0.0199 O   0  0  0  0  0  0  0  0  0  0  0  0
  -57.4267  -19.4663    2.3084 O   0  0  0  0  0  0  0  0  0  0  0  0
  -59.2220  -21.7318    2.3033 O   0  0  0  0  0  0  0  0  0  0  0  0
  -57.0824  -18.1697   -0.2588 O   0  0  0  0  0  0  0  0  0  0  0  0
  -55.9496  -20.1111   -2.6876 O   0  5  0  0  0  0  0  0  0  0  0  0
  -57.8240  -19.1121   -3.5230 O   0  0  0  0  0  0  0  0  0  0  0  0
  -63.8852  -24.5433    0.0167 O   0  0  0  0  0  0  0  0  0  0  0  0
  -59.1542  -23.8513   -2.7246 O   0  0  0  0  0  0  0  0  0  0  0  0
  -61.3653  -24.6851   -4.0750 O   0  0  0  0  0  0  0  0  0  0  0  0
  -63.8623  -25.3273   -3.9548 O   0  0  0  0  0  0  0  0  0  0  0  0
  -58.0981  -19.9161    1.1213 C   0  0  0  0  0  0  0  0  0  0  0  0
  -58.3542  -21.4338    1.2000 C   0  0  0  0  0  0  0  0  0  0  0  0
  -57.2589  -19.5885   -0.1284 C   0  0  0  0  0  0  0  0  0  0  0  0
  -58.9826  -21.9638   -0.1095 C   0  0  0  0  0  0  0  0  0  0  0  0
  -57.9503  -20.1487   -1.3871 C   0  0  0  0  0  0  0  0  0  0  0  0
  -57.1799  -19.7623   -2.6270 C   0  0  0  0  0  0  0  0  0  0  0  0
  -60.4074  -23.7808   -0.6805 C   0  0  0  0  0  0  0  0  0  0  0  0
  -61.6028  -23.9818   -0.0244 C   0  0  0  0  0  0  0  0  0  0  0  0
  -60.3316  -24.0235   -2.0522 C   0  0  0  0  0  0  0  0  0  0  0  0
  -62.7370  -24.3943   -0.6974 C   0  0  0  0  0  0  0  0  0  0  0  0
  -62.6571  -24.6328   -2.0690 C   0  0  0  0  0  0  0  0  0  0  0  0
  -61.4432  -24.4467   -2.7392 C   0  0  0  0  0  0  0  0  0  0  0  0
  -63.8587  -25.0663   -2.7514 C   0  0  0  0  0  0  0  0  0  0  0  0
  -65.0268  -24.9030   -0.6558 C   0  0  0  0  0  0  0  0  0  0  0  0
  -65.0521  -25.1768   -1.9935 C   0  0  0  0  0  0  0  0  0  0  0  0
  -66.2631  -24.9786    0.1643 C   0  0  0  0  0  0  0  0  0  0  0  0
  -67.4511  -25.3136   -0.4679 C   0  0  0  0  0  0  0  0  0  0  0  0
  -66.2906  -24.7350    1.5308 C   0  0  0  0  0  0  0  0  0  0  0  0
  -68.6266  -25.4049    0.2356 C   0  0  0  0  0  0  0  0  0  0  0  0
  -67.4674  -24.8259    2.2347 C   0  0  0  0  0  0  0  0  0  0  0  0
  -68.6371  -25.1611    1.5901 C   0  0  0  0  0  0  0  0  0  0  0  0
  -58.9753  -19.4404    1.0523 H   0  0  0  0  0  0  0  0  0  0  0  0
  -57.4728  -21.8870    1.3345 H   0  0  0  0  0  0  0  0  0  0  0  0
  -56.3596  -20.0143   -0.0292 H   0  0  0  0  0  0  0  0  0  0  0  0
  -59.8583  -21.5096   -0.2741 H   0  0  0  0  0  0  0  0  0  0  0  0
  -58.8526  -19.7250   -1.4651 H   0  0  0  0  0  0  0  0  0  0  0  0
  -57.7941  -18.5849    2.6250 H   0  0  0  0  0  0  0  0  0  0  0  0
  -58.7363  -21.6572    3.1810 H   0  0  0  0  0  0  0  0  0  0  0  0
  -57.0515  -17.7194    0.6403 H   0  0  0  0  0  0  0  0  0  0  0  0
  -58.9894  -24.5997   -3.3735 H   0  0  0  0  0  0  0  0  0  0  0  0
  -60.5283  -25.1915   -4.3106 H   0  0  0  0  0  0  0  0  0  0  0  0
  -61.6504  -23.8254    0.9623 H   0  0  0  0  0  0  0  0  0  0  0  0
  -65.9057  -25.4532   -2.4352 H   0  0  0  0  0  0  0  0  0  0  0  0
  -67.4515  -25.4914   -1.4521 H   0  0  0  0  0  0  0  0  0  0  0  0
  -65.4462  -24.4907    2.0073 H   0  0  0  0  0  0  0  0  0  0  0  0
  -69.4745  -25.6484   -0.2356 H   0  0  0  0  0  0  0  0  0  0  0  0
  -67.4744  -24.6480    3.2187 H   0  0  0  0  0  0  0  0  0  0  0  0
  -69.4918  -25.2275    2.1048 H   0  0  0  0  0  0  0  0  0  0  0  0
  1 15  1  0
  1 16  1  0
  2 18  1  0
  6 17  1  0
  7 17  2  0
  8 21  1  0
  8 25  1  0
  9 20  1  0
 10 23  1  0
 11 24  2  0
 12  3  1  0
 12 13  1  0
 12 14  1  0
 13  4  1  0
 13 15  1  0
 14  5  1  0
 14 16  1  0
 15  2  1  0
 16 17  1  0
 18 19  2  0
 18 20  1  0
 19 21  1  0
 20 23  2  0
 21 22  2  0
 22 23  1  0
 22 24  1  0
 24 26  1  0
 25 26  2  0
 25 27  1  0
 27 28  2  0
 27 29  1  0
 28 30  1  0
 29 31  2  0
 30 32  2  0
 31 32  1  0
  3 38  1  0
  4 39  1  0
  5 40  1  0
  9 41  1  0
 10 42  1  0
 12 33  1  0
 13 34  1  0
 14 35  1  0
 15 36  1  0
 16 37  1  0
 19 43  1  0
 26 44  1  0
 28 45  1  0
 29 46  1  0
 30 47  1  0
 31 48  1  0
 32 49  1  0
M  CHG  1   6  -1
M  END
>  <LF dG>
-8.409

>  <LF VSscore>
-12.216

>  <LF Rank Score>
-12.867

>  <LF LE>
-0.263

>  <LF Structure Name>
C:\Users\Odara\AppData\Local\Temp\LeadFinder_10724_1\Ligand_1.sdf

>  <LF SDF id>
0

>  <LF Pose rank>
0

>  <LF version>
2001 1, 19 January 2019

>  <PUBCHEM_COMPOUND_CID>
64982

>  <PUBCHEM_COMPOUND_CANONICALIZED>
1

>  <PUBCHEM_CACTVS_COMPLEXITY>
748

>  <PUBCHEM_CACTVS_HBOND_ACCEPTOR>
11

>  <PUBCHEM_CACTVS_HBOND_DONOR>
6

>  <PUBCHEM_CACTVS_ROTATABLE_BOND>
4

>  <PUBCHEM_CACTVS_SUBSKEYS>
AAADceB4PAAAAAAAAAAAAAAAAAAAAAAAAAA0YIEAAAAAAACBQAAAGgAACAAADBSwmAMwDoAABgCIAqDSCAICCAAkIAAIiAFGiMgdNzaGNR6ieWOl4BUPuQfK7LzOIQABCAAIQABCAAIQABCAAAAAAAAAAA==

>  <PUBCHEM_IUPAC_OPENEYE_NAME>
(2S,3S,4S,5R,6S)-6-(5,6-dihydroxy-4-oxo-2-phenyl-chromen-7-yl)oxy-3,4,5-trihydroxy-tetrahydropyran-2-carboxylic acid

>  <PUBCHEM_IUPAC_CAS_NAME>
(2S,3S,4S,5R,6S)-6-[(5,6-dihydroxy-4-oxo-2-phenyl-1-benzopyran-7-yl)oxy]-3,4,5-trihydroxy-2-oxanecarboxylic acid

>  <PUBCHEM_IUPAC_NAME_MARKUP>
(2<I>S</I>,3<I>S</I>,4<I>S</I>,5<I>R</I>,6<I>S</I>)-6-(5,6-dihydroxy-4-oxo-2-phenylchromen-7-yl)oxy-3,4,5-trihydroxyoxane-2-carboxylic acid

>  <PUBCHEM_IUPAC_NAME>
(2S,3S,4S,5R,6S)-6-(5,6-dihydroxy-4-oxo-2-phenylchromen-7-yl)oxy-3,4,5-trihydroxyoxane-2-carboxylic acid

>  <PUBCHEM_IUPAC_SYSTEMATIC_NAME>
(2S,3S,4S,5R,6S)-6-[5,6-bis(oxidanyl)-4-oxidanylidene-2-phenyl-chromen-7-yl]oxy-3,4,5-tris(oxidanyl)oxane-2-carboxylic acid

>  <PUBCHEM_IUPAC_TRADITIONAL_NAME>
(2S,3S,4S,5R,6S)-6-(5,6-dihydroxy-4-keto-2-phenyl-chromen-7-yl)oxy-3,4,5-trihydroxy-tetrahydropyran-2-carboxylic acid

>  <PUBCHEM_IUPAC_INCHI>
InChI=1S/C21H18O11/c22-9-6-10(8-4-2-1-3-5-8)30-11-7-12(14(23)15(24)13(9)11)31-21-18(27)16(25)17(26)19(32-21)20(28)29/h1-7,16-19,21,23-27H,(H,28,29)/t16-,17-,18+,19-,21+/m0/s1

>  <PUBCHEM_IUPAC_INCHIKEY>
IKIIZLYTISPENI-ZFORQUDYSA-N

>  <PUBCHEM_XLOGP3_AA>
1.1

>  <PUBCHEM_EXACT_MASS>
446.084911

>  <PUBCHEM_MOLECULAR_FORMULA>
C21H18O11

>  <PUBCHEM_MOLECULAR_WEIGHT>
446.4

>  <PUBCHEM_OPENEYE_CAN_SMILES>
C1=CC=C(C=C1)C2=CC(=O)C3=C(C(=C(C=C3O2)OC4C(C(C(C(O4)C(=O)O)O)O)O)O)O

>  <PUBCHEM_OPENEYE_ISO_SMILES>
C1=CC=C(C=C1)C2=CC(=O)C3=C(C(=C(C=C3O2)O[C@H]4[C@@H]([C@H]([C@@H]([C@H](O4)C(=O)O)O)O)O)O)O

>  <PUBCHEM_CACTVS_TPSA>
183

>  <PUBCHEM_MONOISOTOPIC_WEIGHT>
446.084911

>  <PUBCHEM_TOTAL_CHARGE>
0

>  <PUBCHEM_HEAVY_ATOM_COUNT>
32

>  <PUBCHEM_ATOM_DEF_STEREO_COUNT>
5

>  <PUBCHEM_ATOM_UDEF_STEREO_COUNT>
0

>  <PUBCHEM_BOND_DEF_STEREO_COUNT>
0

>  <PUBCHEM_BOND_UDEF_STEREO_COUNT>
0

>  <PUBCHEM_ISOTOPIC_ATOM_COUNT>
0

>  <PUBCHEM_COMPONENT_COUNT>
1

>  <PUBCHEM_CACTVS_TAUTO_COUNT>
-1

>  <PUBCHEM_COORDINATE_TYPE>
1
5
255

>  <PUBCHEM_BONDANNOTATIONS>
16  17  5
18  19  8
18  20  8
19  21  8
15  2  5
20  23  8
21  22  8
22  23  8
22  24  8
24  26  8
25  26  8
27  28  8
27  29  8
28  30  8
29  31  8
12  3  5
30  32  8
31  32  8
13  4  6
14  5  6
8  21  8
8  25  8

>  <Favorite_cresset>
false

>  <MW_cresset>
445.4

>  <#Atoms_cresset>
32

>  <SlogP_cresset>
1.1

>  <TPSA_cresset>
186

>  <Flexibility_cresset>
7.6

>  <#RB_cresset>
9

>  <Rof5_cresset>
1

>  <Filename_cresset>
drag.12_666.sdf

>  <Confs_cresset>
0

>  <Poses_cresset>
0

$$$$
Site2_Baicalin_D
  xed2sdf_05210316543D
 
 49 52  0  0  1  0  0  0  0  0999 V2000
  -61.1198  -23.8145    0.3242 O   0  0  0  0  0  0  0  0  0  0  0  0
  -61.8456  -23.3508   -2.0046 O   0  0  0  0  0  0  0  0  0  0  0  0
  -60.2229  -27.8135   -0.7616 O   0  0  0  0  0  0  0  0  0  0  0  0
  -61.6891  -26.0958   -2.5657 O   0  0  0  0  0  0  0  0  0  0  0  0
  -60.3315  -27.0392    2.0274 O   0  0  0  0  0  0  0  0  0  0  0  0
  -61.1853  -23.4370    3.3449 O   0  5  0  0  0  0  0  0  0  0  0  0
  -59.3011  -24.6793    3.0031 O   0  0  0  0  0  0  0  0  0  0  0  0
  -57.9648  -21.6643   -4.0129 O   0  0  0  0  0  0  0  0  0  0  0  0
  -62.1157  -21.0500   -0.4395 O   0  0  0  0  0  0  0  0  0  0  0  0
  -60.2798  -19.0579   -0.7026 O   0  0  0  0  0  0  0  0  0  0  0  0
  -58.1271  -18.2362   -1.8663 O   0  0  0  0  0  0  0  0  0  0  0  0
  -60.9511  -26.6613   -0.3092 C   0  0  0  0  0  0  0  0  0  0  0  0
  -60.9921  -25.5911   -1.4175 C   0  0  0  0  0  0  0  0  0  0  0  0
  -60.3017  -26.0787    0.9607 C   0  0  0  0  0  0  0  0  0  0  0  0
  -61.6802  -24.2987   -0.9219 C   0  0  0  0  0  0  0  0  0  0  0  0
  -61.0424  -24.7962    1.3883 C   0  0  0  0  0  0  0  0  0  0  0  0
  -60.4677  -24.2619    2.6783 C   0  0  0  0  0  0  0  0  0  0  0  0
  -60.9625  -22.3544   -2.0895 C   0  0  0  0  0  0  0  0  0  0  0  0
  -59.9014  -22.4811   -2.9602 C   0  0  0  0  0  0  0  0  0  0  0  0
  -61.0845  -21.1940   -1.3247 C   0  0  0  0  0  0  0  0  0  0  0  0
  -58.9672  -21.4745   -3.1133 C   0  0  0  0  0  0  0  0  0  0  0  0
  -59.0949  -20.3151   -2.3488 C   0  0  0  0  0  0  0  0  0  0  0  0
  -60.1602  -20.1861   -1.4513 C   0  0  0  0  0  0  0  0  0  0  0  0
  -58.1023  -19.2755   -2.5256 C   0  0  0  0  0  0  0  0  0  0  0  0
  -57.0635  -20.6466   -4.2065 C   0  0  0  0  0  0  0  0  0  0  0  0
  -57.0893  -19.4799   -3.4972 C   0  0  0  0  0  0  0  0  0  0  0  0
  -56.0361  -20.8836   -5.2530 C   0  0  0  0  0  0  0  0  0  0  0  0
  -55.1333  -19.8677   -5.5285 C   0  0  0  0  0  0  0  0  0  0  0  0
  -55.9308  -22.0698   -5.9668 C   0  0  0  0  0  0  0  0  0  0  0  0
  -54.1570  -20.0272   -6.4811 C   0  0  0  0  0  0  0  0  0  0  0  0
  -54.9540  -22.2287   -6.9200 C   0  0  0  0  0  0  0  0  0  0  0  0
  -54.0655  -21.2094   -7.1793 C   0  0  0  0  0  0  0  0  0  0  0  0
  -61.8862  -26.9413   -0.0915 H   0  0  0  0  0  0  0  0  0  0  0  0
  -60.0486  -25.3723   -1.6675 H   0  0  0  0  0  0  0  0  0  0  0  0
  -59.3481  -25.8562    0.7576 H   0  0  0  0  0  0  0  0  0  0  0  0
  -62.6213  -24.4982   -0.6486 H   0  0  0  0  0  0  0  0  0  0  0  0
  -61.9965  -25.0316    1.5739 H   0  0  0  0  0  0  0  0  0  0  0  0
  -60.6028  -28.6614   -0.3756 H   0  0  0  0  0  0  0  0  0  0  0  0
  -61.0514  -26.4888   -3.2373 H   0  0  0  0  0  0  0  0  0  0  0  0
  -60.5382  -27.9619    1.6849 H   0  0  0  0  0  0  0  0  0  0  0  0
  -62.9897  -21.3318   -0.8456 H   0  0  0  0  0  0  0  0  0  0  0  0
  -60.9572  -18.4258   -1.0951 H   0  0  0  0  0  0  0  0  0  0  0  0
  -59.8053  -23.3215   -3.4935 H   0  0  0  0  0  0  0  0  0  0  0  0
  -56.3993  -18.7752   -3.6616 H   0  0  0  0  0  0  0  0  0  0  0  0
  -55.1940  -19.0054   -5.0258 H   0  0  0  0  0  0  0  0  0  0  0  0
  -56.5719  -22.8154   -5.7855 H   0  0  0  0  0  0  0  0  0  0  0  0
  -53.5133  -19.2848   -6.6672 H   0  0  0  0  0  0  0  0  0  0  0  0
  -54.8885  -23.0879   -7.4276 H   0  0  0  0  0  0  0  0  0  0  0  0
  -53.3551  -21.3282   -7.8732 H   0  0  0  0  0  0  0  0  0  0  0  0
  1 15  1  0
  1 16  1  0
  2 18  1  0
  6 17  1  0
  7 17  2  0
  8 21  1  0
  8 25  1  0
  9 20  1  0
 10 23  1  0
 11 24  2  0
 12  3  1  0
 12 13  1  0
 12 14  1  0
 13  4  1  0
 13 15  1  0
 14  5  1  0
 14 16  1  0
 15  2  1  0
 16 17  1  0
 18 19  2  0
 18 20  1  0
 19 21  1  0
 20 23  2  0
 21 22  2  0
 22 23  1  0
 22 24  1  0
 24 26  1  0
 25 26  2  0
 25 27  1  0
 27 28  2  0
 27 29  1  0
 28 30  1  0
 29 31  2  0
 30 32  2  0
 31 32  1  0
  3 38  1  0
  4 39  1  0
  5 40  1  0
  9 41  1  0
 10 42  1  0
 12 33  1  0
 13 34  1  0
 14 35  1  0
 15 36  1  0
 16 37  1  0
 19 43  1  0
 26 44  1  0
 28 45  1  0
 29 46  1  0
 30 47  1  0
 31 48  1  0
 32 49  1  0
M  CHG  1   6  -1
M  END
>  <LF dG>
-8.765

>  <LF VSscore>
-12.644

>  <LF Rank Score>
-12.932

>  <LF LE>
-0.274

>  <LF Structure Name>
C:\Users\Odara\AppData\Local\Temp\LeadFinder_8984_1\Ligand_1.sdf

>  <LF SDF id>
0

>  <LF Pose rank>
0

>  <LF version>
2001 1, 19 January 2019

>  <PUBCHEM_COMPOUND_CID>
64982

>  <PUBCHEM_COMPOUND_CANONICALIZED>
1

>  <PUBCHEM_CACTVS_COMPLEXITY>
748

>  <PUBCHEM_CACTVS_HBOND_ACCEPTOR>
11

>  <PUBCHEM_CACTVS_HBOND_DONOR>
6

>  <PUBCHEM_CACTVS_ROTATABLE_BOND>
4

>  <PUBCHEM_CACTVS_SUBSKEYS>
AAADceB4PAAAAAAAAAAAAAAAAAAAAAAAAAA0YIEAAAAAAACBQAAAGgAACAAADBSwmAMwDoAABgCIAqDSCAICCAAkIAAIiAFGiMgdNzaGNR6ieWOl4BUPuQfK7LzOIQABCAAIQABCAAIQABCAAAAAAAAAAA==

>  <PUBCHEM_IUPAC_OPENEYE_NAME>
(2S,3S,4S,5R,6S)-6-(5,6-dihydroxy-4-oxo-2-phenyl-chromen-7-yl)oxy-3,4,5-trihydroxy-tetrahydropyran-2-carboxylic acid

>  <PUBCHEM_IUPAC_CAS_NAME>
(2S,3S,4S,5R,6S)-6-[(5,6-dihydroxy-4-oxo-2-phenyl-1-benzopyran-7-yl)oxy]-3,4,5-trihydroxy-2-oxanecarboxylic acid

>  <PUBCHEM_IUPAC_NAME_MARKUP>
(2<I>S</I>,3<I>S</I>,4<I>S</I>,5<I>R</I>,6<I>S</I>)-6-(5,6-dihydroxy-4-oxo-2-phenylchromen-7-yl)oxy-3,4,5-trihydroxyoxane-2-carboxylic acid

>  <PUBCHEM_IUPAC_NAME>
(2S,3S,4S,5R,6S)-6-(5,6-dihydroxy-4-oxo-2-phenylchromen-7-yl)oxy-3,4,5-trihydroxyoxane-2-carboxylic acid

>  <PUBCHEM_IUPAC_SYSTEMATIC_NAME>
(2S,3S,4S,5R,6S)-6-[5,6-bis(oxidanyl)-4-oxidanylidene-2-phenyl-chromen-7-yl]oxy-3,4,5-tris(oxidanyl)oxane-2-carboxylic acid

>  <PUBCHEM_IUPAC_TRADITIONAL_NAME>
(2S,3S,4S,5R,6S)-6-(5,6-dihydroxy-4-keto-2-phenyl-chromen-7-yl)oxy-3,4,5-trihydroxy-tetrahydropyran-2-carboxylic acid

>  <PUBCHEM_IUPAC_INCHI>
InChI=1S/C21H18O11/c22-9-6-10(8-4-2-1-3-5-8)30-11-7-12(14(23)15(24)13(9)11)31-21-18(27)16(25)17(26)19(32-21)20(28)29/h1-7,16-19,21,23-27H,(H,28,29)/t16-,17-,18+,19-,21+/m0/s1

>  <PUBCHEM_IUPAC_INCHIKEY>
IKIIZLYTISPENI-ZFORQUDYSA-N

>  <PUBCHEM_XLOGP3_AA>
1.1

>  <PUBCHEM_EXACT_MASS>
446.084911

>  <PUBCHEM_MOLECULAR_FORMULA>
C21H18O11

>  <PUBCHEM_MOLECULAR_WEIGHT>
446.4

>  <PUBCHEM_OPENEYE_CAN_SMILES>
C1=CC=C(C=C1)C2=CC(=O)C3=C(C(=C(C=C3O2)OC4C(C(C(C(O4)C(=O)O)O)O)O)O)O

>  <PUBCHEM_OPENEYE_ISO_SMILES>
C1=CC=C(C=C1)C2=CC(=O)C3=C(C(=C(C=C3O2)O[C@H]4[C@@H]([C@H]([C@@H]([C@H](O4)C(=O)O)O)O)O)O)O

>  <PUBCHEM_CACTVS_TPSA>
183

>  <PUBCHEM_MONOISOTOPIC_WEIGHT>
446.084911

>  <PUBCHEM_TOTAL_CHARGE>
0

>  <PUBCHEM_HEAVY_ATOM_COUNT>
32

>  <PUBCHEM_ATOM_DEF_STEREO_COUNT>
5

>  <PUBCHEM_ATOM_UDEF_STEREO_COUNT>
0

>  <PUBCHEM_BOND_DEF_STEREO_COUNT>
0

>  <PUBCHEM_BOND_UDEF_STEREO_COUNT>
0

>  <PUBCHEM_ISOTOPIC_ATOM_COUNT>
0

>  <PUBCHEM_COMPONENT_COUNT>
1

>  <PUBCHEM_CACTVS_TAUTO_COUNT>
-1

>  <PUBCHEM_COORDINATE_TYPE>
1
5
255

>  <PUBCHEM_BONDANNOTATIONS>
16  17  5
18  19  8
18  20  8
19  21  8
15  2  5
20  23  8
21  22  8
22  23  8
22  24  8
24  26  8
25  26  8
27  28  8
27  29  8
28  30  8
29  31  8
12  3  5
30  32  8
31  32  8
13  4  6
14  5  6
8  21  8
8  25  8

>  <Favorite_cresset>
false

>  <MW_cresset>
445.4

>  <#Atoms_cresset>
32

>  <SlogP_cresset>
1.1

>  <TPSA_cresset>
186

>  <Flexibility_cresset>
7.6

>  <#RB_cresset>
9

>  <Rof5_cresset>
1

>  <Filename_cresset>
drag.47_238.sdf

>  <Confs_cresset>
0

>  <Poses_cresset>
0

$$$$
W_Site2_Wogonin_D
  xed2sdf_05210316543D
 
 33 35  0  0  0  0  0  0  0  0999 V2000
  -62.7720  -25.7221    0.4758 O   0  0  0  0  0  0  0  0  0  0  0  0
  -64.6422  -25.1060    2.3181 O   0  0  0  0  0  0  0  0  0  0  0  0
  -65.8612  -24.2845   -2.9623 O   0  0  0  0  0  0  0  0  0  0  0  0
  -67.0779  -24.1053    1.5857 O   0  0  0  0  0  0  0  0  0  0  0  0
  -63.3752  -25.2408   -3.4881 O   0  0  0  0  0  0  0  0  0  0  0  0
  -64.2638  -25.0155   -1.3067 C   0  0  0  0  0  0  0  0  0  0  0  0
  -63.9623  -25.2175    0.0448 C   0  0  0  0  0  0  0  0  0  0  0  0
  -61.8043  -26.0096   -0.4529 C   0  0  0  0  0  0  0  0  0  0  0  0
  -64.9087  -24.9044    1.0123 C   0  0  0  0  0  0  0  0  0  0  0  0
  -63.2335  -25.3587   -2.2717 C   0  0  0  0  0  0  0  0  0  0  0  0
  -65.5212  -24.5005   -1.6639 C   0  0  0  0  0  0  0  0  0  0  0  0
  -61.9933  -25.8516   -1.7939 C   0  0  0  0  0  0  0  0  0  0  0  0
  -60.5116  -26.5113    0.0810 C   0  0  0  0  0  0  0  0  0  0  0  0
  -66.1434  -24.4057    0.6443 C   0  0  0  0  0  0  0  0  0  0  0  0
  -66.4405  -24.2042   -0.6930 C   0  0  0  0  0  0  0  0  0  0  0  0
  -59.4881  -26.7854   -0.8142 C   0  0  0  0  0  0  0  0  0  0  0  0
  -60.2772  -26.7210    1.4334 C   0  0  0  0  0  0  0  0  0  0  0  0
  -58.2734  -27.2540   -0.3770 C   0  0  0  0  0  0  0  0  0  0  0  0
  -59.0619  -27.1893    1.8700 C   0  0  0  0  0  0  0  0  0  0  0  0
  -58.0582  -27.4569    0.9671 C   0  0  0  0  0  0  0  0  0  0  0  0
  -65.0247  -26.3754    2.8854 C   0  0  0  0  0  0  0  0  0  0  0  0
  -65.2134  -23.6784   -3.4288 H   0  0  0  0  0  0  0  0  0  0  0  0
  -67.0707  -23.1285    1.8232 H   0  0  0  0  0  0  0  0  0  0  0  0
  -61.2621  -26.0819   -2.4359 H   0  0  0  0  0  0  0  0  0  0  0  0
  -67.3344  -23.8386   -0.9522 H   0  0  0  0  0  0  0  0  0  0  0  0
  -59.6370  -26.6400   -1.7923 H   0  0  0  0  0  0  0  0  0  0  0  0
  -61.0007  -26.5291    2.0964 H   0  0  0  0  0  0  0  0  0  0  0  0
  -57.5457  -27.4475   -1.0351 H   0  0  0  0  0  0  0  0  0  0  0  0
  -58.9058  -27.3364    2.8468 H   0  0  0  0  0  0  0  0  0  0  0  0
  -57.1741  -27.7981    1.2868 H   0  0  0  0  0  0  0  0  0  0  0  0
  -65.4517  -26.9343    2.1747 H   0  0  0  0  0  0  0  0  0  0  0  0
  -64.2162  -26.8436    3.2416 H   0  0  0  0  0  0  0  0  0  0  0  0
  -65.6718  -26.2283    3.6336 H   0  0  0  0  0  0  0  0  0  0  0  0
  1  7  1  0
  1  8  1  0
  2  9  1  0
  2 21  1  0
  3 11  1  0
  4 14  1  0
  5 10  2  0
  6  7  2  0
  6 10  1  0
  6 11  1  0
  7  9  1  0
  8 12  2  0
  8 13  1  0
  9 14  2  0
 10 12  1  0
 11 15  2  0
 13 16  2  0
 13 17  1  0
 14 15  1  0
 16 18  1  0
 17 19  2  0
 18 20  2  0
 19 20  1  0
  3 22  1  0
  4 23  1  0
 12 24  1  0
 15 25  1  0
 16 26  1  0
 17 27  1  0
 18 28  1  0
 19 29  1  0
 20 30  1  0
 21 31  1  0
 21 32  1  0
 21 33  1  0
M  END
>  <LF dG>
-7.522

>  <LF VSscore>
-8.719

>  <LF Rank Score>
-11.305

>  <LF LE>
-0.358

>  <LF Structure Name>
C:\Users\Odara\AppData\Local\Temp\LeadFinder_13008_1\Ligand_1.sdf

>  <LF SDF id>
0

>  <LF Pose rank>
0

>  <LF version>
2001 1, 19 January 2019

>  <PUBCHEM_COMPOUND_CID>
5281703

>  <PUBCHEM_COMPOUND_CANONICALIZED>
1

>  <PUBCHEM_CACTVS_COMPLEXITY>
426

>  <PUBCHEM_CACTVS_HBOND_ACCEPTOR>
5

>  <PUBCHEM_CACTVS_HBOND_DONOR>
2

>  <PUBCHEM_CACTVS_ROTATABLE_BOND>
2

>  <PUBCHEM_CACTVS_SUBSKEYS>
AAADccB4OAAAAAAAAAAAAAAAAAAAAAAAAAAwYIAAAAAAAACBQAAAGgAACAAADASAmAIyBoAABgCIAqBSAAACCAAkIAAIiAEGiMgNJzaGNRqCeWOl4BULuQfK7LzOIQABCAAIQABCAAIQABCAAAAAAAAAAA==

>  <PUBCHEM_IUPAC_OPENEYE_NAME>
5,7-dihydroxy-8-methoxy-2-phenyl-chromen-4-one

>  <PUBCHEM_IUPAC_CAS_NAME>
5,7-dihydroxy-8-methoxy-2-phenyl-1-benzopyran-4-one

>  <PUBCHEM_IUPAC_NAME_MARKUP>
5,7-dihydroxy-8-methoxy-2-phenylchromen-4-one

>  <PUBCHEM_IUPAC_NAME>
5,7-dihydroxy-8-methoxy-2-phenylchromen-4-one

>  <PUBCHEM_IUPAC_SYSTEMATIC_NAME>
8-methoxy-5,7-bis(oxidanyl)-2-phenyl-chromen-4-one

>  <PUBCHEM_IUPAC_TRADITIONAL_NAME>
5,7-dihydroxy-8-methoxy-2-phenyl-chromone

>  <PUBCHEM_IUPAC_INCHI>
InChI=1S/C16H12O5/c1-20-15-12(19)7-10(17)14-11(18)8-13(21-16(14)15)9-5-3-2-4-6-9/h2-8,17,19H,1H3

>  <PUBCHEM_IUPAC_INCHIKEY>
XLTFNNCXVBYBSX-UHFFFAOYSA-N

>  <PUBCHEM_XLOGP3_AA>
3

>  <PUBCHEM_EXACT_MASS>
284.068473

>  <PUBCHEM_MOLECULAR_FORMULA>
C16H12O5

>  <PUBCHEM_MOLECULAR_WEIGHT>
284.26

>  <PUBCHEM_OPENEYE_CAN_SMILES>
COC1=C(C=C(C2=C1OC(=CC2=O)C3=CC=CC=C3)O)O

>  <PUBCHEM_OPENEYE_ISO_SMILES>
COC1=C(C=C(C2=C1OC(=CC2=O)C3=CC=CC=C3)O)O

>  <PUBCHEM_CACTVS_TPSA>
76

>  <PUBCHEM_MONOISOTOPIC_WEIGHT>
284.068473

>  <PUBCHEM_TOTAL_CHARGE>
0

>  <PUBCHEM_HEAVY_ATOM_COUNT>
21

>  <PUBCHEM_ATOM_DEF_STEREO_COUNT>
0

>  <PUBCHEM_ATOM_UDEF_STEREO_COUNT>
0

>  <PUBCHEM_BOND_DEF_STEREO_COUNT>
0

>  <PUBCHEM_BOND_UDEF_STEREO_COUNT>
0

>  <PUBCHEM_ISOTOPIC_ATOM_COUNT>
0

>  <PUBCHEM_COMPONENT_COUNT>
1

>  <PUBCHEM_CACTVS_TAUTO_COUNT>
-1

>  <PUBCHEM_COORDINATE_TYPE>
1
5
255

>  <PUBCHEM_BONDANNOTATIONS>
1  7  8
1  8  8
10  12  8
11  15  8
13  16  8
13  17  8
14  15  8
16  18  8
17  19  8
18  20  8
19  20  8
6  10  8
6  11  8
6  7  8
7  9  8
8  12  8
9  14  8

>  <Favorite_cresset>
false

>  <MW_cresset>
284.3

>  <#Atoms_cresset>
21

>  <SlogP_cresset>
2.6

>  <TPSA_cresset>
76

>  <Flexibility_cresset>
1.7

>  <#RB_cresset>
4

>  <Rof5_cresset>
0

>  <Filename_cresset>
drag.34_975.sdf

>  <Confs_cresset>
0

>  <Poses_cresset>
0

$$$$
Site2_Wogonin_D
  xed2sdf_05210316543D
 
 33 35  0  0  0  0  0  0  0  0999 V2000
  -62.6737  -25.7905    0.2661 O   0  0  0  0  0  0  0  0  0  0  0  0
  -64.6110  -25.2366    2.0580 O   0  0  0  0  0  0  0  0  0  0  0  0
  -65.6334  -24.2306   -3.2321 O   0  0  0  0  0  0  0  0  0  0  0  0
  -67.0179  -24.2082    1.2711 O   0  0  0  0  0  0  0  0  0  0  0  0
  -63.1296  -25.1711   -3.6984 O   0  0  0  0  0  0  0  0  0  0  0  0
  -64.0985  -25.0206   -1.5449 C   0  0  0  0  0  0  0  0  0  0  0  0
  -63.8472  -25.2698   -0.1910 C   0  0  0  0  0  0  0  0  0  0  0  0
  -61.6722  -26.0467   -0.6356 C   0  0  0  0  0  0  0  0  0  0  0  0
  -64.8290  -24.9894    0.7511 C   0  0  0  0  0  0  0  0  0  0  0  0
  -63.0331  -25.3313   -2.4824 C   0  0  0  0  0  0  0  0  0  0  0  0
  -65.3419  -24.4921   -1.9303 C   0  0  0  0  0  0  0  0  0  0  0  0
  -61.8113  -25.8420   -1.9764 C   0  0  0  0  0  0  0  0  0  0  0  0
  -60.4001  -26.5681   -0.0719 C   0  0  0  0  0  0  0  0  0  0  0  0
  -66.0491  -24.4768    0.3551 C   0  0  0  0  0  0  0  0  0  0  0  0
  -66.2965  -24.2286   -0.9845 C   0  0  0  0  0  0  0  0  0  0  0  0
  -60.3080  -26.7444    1.3006 C   0  0  0  0  0  0  0  0  0  0  0  0
  -59.2966  -26.8870   -0.8524 C   0  0  0  0  0  0  0  0  0  0  0  0
  -59.1557  -27.2208    1.8764 C   0  0  0  0  0  0  0  0  0  0  0  0
  -58.1444  -27.3636   -0.2759 C   0  0  0  0  0  0  0  0  0  0  0  0
  -58.0710  -27.5314    1.0884 C   0  0  0  0  0  0  0  0  0  0  0  0
  -64.9878  -26.5349    2.5600 C   0  0  0  0  0  0  0  0  0  0  0  0
  -64.9262  -23.6763   -3.6760 H   0  0  0  0  0  0  0  0  0  0  0  0
  -67.0198  -23.2402    1.5425 H   0  0  0  0  0  0  0  0  0  0  0  0
  -61.0569  -26.0507   -2.5984 H   0  0  0  0  0  0  0  0  0  0  0  0
  -67.1802  -23.8532   -1.2638 H   0  0  0  0  0  0  0  0  0  0  0  0
  -61.0922  -26.5215    1.8796 H   0  0  0  0  0  0  0  0  0  0  0  0
  -59.3412  -26.7684   -1.8444 H   0  0  0  0  0  0  0  0  0  0  0  0
  -59.1049  -27.3418    2.8678 H   0  0  0  0  0  0  0  0  0  0  0  0
  -57.3566  -27.5895   -0.8491 H   0  0  0  0  0  0  0  0  0  0  0  0
  -57.2310  -27.8782    1.5059 H   0  0  0  0  0  0  0  0  0  0  0  0
  -65.3732  -27.0741    1.8113 H   0  0  0  0  0  0  0  0  0  0  0  0
  -64.1841  -26.9998    2.9310 H   0  0  0  0  0  0  0  0  0  0  0  0
  -65.6677  -26.4307    3.2860 H   0  0  0  0  0  0  0  0  0  0  0  0
  1  7  1  0
  1  8  1  0
  2  9  1  0
  2 21  1  0
  3 11  1  0
  4 14  1  0
  5 10  2  0
  6  7  2  0
  6 10  1  0
  6 11  1  0
  7  9  1  0
  8 12  2  0
  8 13  1  0
  9 14  2  0
 10 12  1  0
 11 15  2  0
 13 16  2  0
 13 17  1  0
 14 15  1  0
 16 18  1  0
 17 19  2  0
 18 20  2  0
 19 20  1  0
  3 22  1  0
  4 23  1  0
 12 24  1  0
 15 25  1  0
 16 26  1  0
 17 27  1  0
 18 28  1  0
 19 29  1  0
 20 30  1  0
 21 31  1  0
 21 32  1  0
 21 33  1  0
M  END
>  <LF dG>
-7.461

>  <LF VSscore>
-8.619

>  <LF Rank Score>
-11.517

>  <LF LE>
-0.355

>  <LF Structure Name>
C:\Users\Odara\AppData\Local\Temp\LeadFinder_11240_1\Ligand_1.sdf

>  <LF SDF id>
0

>  <LF Pose rank>
0

>  <LF version>
2001 1, 19 January 2019

>  <PUBCHEM_COMPOUND_CID>
5281703

>  <PUBCHEM_COMPOUND_CANONICALIZED>
1

>  <PUBCHEM_CACTVS_COMPLEXITY>
426

>  <PUBCHEM_CACTVS_HBOND_ACCEPTOR>
5

>  <PUBCHEM_CACTVS_HBOND_DONOR>
2

>  <PUBCHEM_CACTVS_ROTATABLE_BOND>
2

>  <PUBCHEM_CACTVS_SUBSKEYS>
AAADccB4OAAAAAAAAAAAAAAAAAAAAAAAAAAwYIAAAAAAAACBQAAAGgAACAAADASAmAIyBoAABgCIAqBSAAACCAAkIAAIiAEGiMgNJzaGNRqCeWOl4BULuQfK7LzOIQABCAAIQABCAAIQABCAAAAAAAAAAA==

>  <PUBCHEM_IUPAC_OPENEYE_NAME>
5,7-dihydroxy-8-methoxy-2-phenyl-chromen-4-one

>  <PUBCHEM_IUPAC_CAS_NAME>
5,7-dihydroxy-8-methoxy-2-phenyl-1-benzopyran-4-one

>  <PUBCHEM_IUPAC_NAME_MARKUP>
5,7-dihydroxy-8-methoxy-2-phenylchromen-4-one

>  <PUBCHEM_IUPAC_NAME>
5,7-dihydroxy-8-methoxy-2-phenylchromen-4-one

>  <PUBCHEM_IUPAC_SYSTEMATIC_NAME>
8-methoxy-5,7-bis(oxidanyl)-2-phenyl-chromen-4-one

>  <PUBCHEM_IUPAC_TRADITIONAL_NAME>
5,7-dihydroxy-8-methoxy-2-phenyl-chromone

>  <PUBCHEM_IUPAC_INCHI>
InChI=1S/C16H12O5/c1-20-15-12(19)7-10(17)14-11(18)8-13(21-16(14)15)9-5-3-2-4-6-9/h2-8,17,19H,1H3

>  <PUBCHEM_IUPAC_INCHIKEY>
XLTFNNCXVBYBSX-UHFFFAOYSA-N

>  <PUBCHEM_XLOGP3_AA>
3

>  <PUBCHEM_EXACT_MASS>
284.068473

>  <PUBCHEM_MOLECULAR_FORMULA>
C16H12O5

>  <PUBCHEM_MOLECULAR_WEIGHT>
284.26

>  <PUBCHEM_OPENEYE_CAN_SMILES>
COC1=C(C=C(C2=C1OC(=CC2=O)C3=CC=CC=C3)O)O

>  <PUBCHEM_OPENEYE_ISO_SMILES>
COC1=C(C=C(C2=C1OC(=CC2=O)C3=CC=CC=C3)O)O

>  <PUBCHEM_CACTVS_TPSA>
76

>  <PUBCHEM_MONOISOTOPIC_WEIGHT>
284.068473

>  <PUBCHEM_TOTAL_CHARGE>
0

>  <PUBCHEM_HEAVY_ATOM_COUNT>
21

>  <PUBCHEM_ATOM_DEF_STEREO_COUNT>
0

>  <PUBCHEM_ATOM_UDEF_STEREO_COUNT>
0

>  <PUBCHEM_BOND_DEF_STEREO_COUNT>
0

>  <PUBCHEM_BOND_UDEF_STEREO_COUNT>
0

>  <PUBCHEM_ISOTOPIC_ATOM_COUNT>
0

>  <PUBCHEM_COMPONENT_COUNT>
1

>  <PUBCHEM_CACTVS_TAUTO_COUNT>
-1

>  <PUBCHEM_COORDINATE_TYPE>
1
5
255

>  <PUBCHEM_BONDANNOTATIONS>
1  7  8
1  8  8
10  12  8
11  15  8
13  16  8
13  17  8
14  15  8
16  18  8
17  19  8
18  20  8
19  20  8
6  10  8
6  11  8
6  7  8
7  9  8
8  12  8
9  14  8

>  <Favorite_cresset>
false

>  <MW_cresset>
284.3

>  <#Atoms_cresset>
21

>  <SlogP_cresset>
2.6

>  <TPSA_cresset>
76

>  <Flexibility_cresset>
1.7

>  <#RB_cresset>
4

>  <Rof5_cresset>
0

>  <Filename_cresset>
drag.37_759.sdf

>  <Confs_cresset>
0

>  <Poses_cresset>
0

$$$$
W_Site2_Wogonoside_D
  xed2sdf_05210316543D
 
 52 55  0  0  1  0  0  0  0  0999 V2000
  -58.0437  -21.3787   -1.5810 O   0  0  0  0  0  0  0  0  0  0  0  0
  -59.1928  -23.3161   -0.6301 O   0  0  0  0  0  0  0  0  0  0  0  0
  -57.4401  -19.8338    2.2694 O   0  0  0  0  0  0  0  0  0  0  0  0
  -59.1417  -22.1139    1.8807 O   0  0  0  0  0  0  0  0  0  0  0  0
  -57.0451  -18.1513   -0.0228 O   0  0  0  0  0  0  0  0  0  0  0  0
  -55.9350  -20.1129   -2.8829 O   0  5  0  0  0  0  0  0  0  0  0  0
  -57.5403  -18.5868   -3.4288 O   0  0  0  0  0  0  0  0  0  0  0  0
  -63.4904  -24.8623    0.4850 O   0  0  0  0  0  0  0  0  0  0  0  0
  -61.0015  -24.0459    1.1940 O   0  0  0  0  0  0  0  0  0  0  0  0
  -62.2705  -24.2888   -4.1264 O   0  0  0  0  0  0  0  0  0  0  0  0
  -64.5719  -25.1694   -3.4029 O   0  0  0  0  0  0  0  0  0  0  0  0
  -58.0600  -20.1088    1.0048 C   0  0  0  0  0  0  0  0  0  0  0  0
  -58.2840  -21.6226    0.8402 C   0  0  0  0  0  0  0  0  0  0  0  0
  -57.1878  -19.5745   -0.1461 C   0  0  0  0  0  0  0  0  0  0  0  0
  -58.9047  -21.9011   -0.5433 C   0  0  0  0  0  0  0  0  0  0  0  0
  -57.8533  -19.9502   -1.4886 C   0  0  0  0  0  0  0  0  0  0  0  0
  -57.0511  -19.5150   -2.6935 C   0  0  0  0  0  0  0  0  0  0  0  0
  -60.3944  -23.7286   -1.0570 C   0  0  0  0  0  0  0  0  0  0  0  0
  -61.3303  -24.1141   -0.1122 C   0  0  0  0  0  0  0  0  0  0  0  0
  -60.7268  -23.7902   -2.4068 C   0  0  0  0  0  0  0  0  0  0  0  0
  -62.5984  -24.5366   -0.4926 C   0  0  0  0  0  0  0  0  0  0  0  0
  -62.9115  -24.6016   -1.8499 C   0  0  0  0  0  0  0  0  0  0  0  0
  -61.9625  -24.2258   -2.8052 C   0  0  0  0  0  0  0  0  0  0  0  0
  -64.2337  -25.0571   -2.2245 C   0  0  0  0  0  0  0  0  0  0  0  0
  -64.7542  -25.2524    0.1144 C   0  0  0  0  0  0  0  0  0  0  0  0
  -65.1482  -25.3695   -1.1874 C   0  0  0  0  0  0  0  0  0  0  0  0
  -65.6991  -25.5445    1.2239 C   0  0  0  0  0  0  0  0  0  0  0  0
  -60.5321  -25.2546    1.8260 C   0  0  0  0  0  0  0  0  0  0  0  0
  -65.2441  -25.4280    2.5287 C   0  0  0  0  0  0  0  0  0  0  0  0
  -67.0189  -25.9238    1.0191 C   0  0  0  0  0  0  0  0  0  0  0  0
  -66.0757  -25.6784    3.5929 C   0  0  0  0  0  0  0  0  0  0  0  0
  -67.8503  -26.1742    2.0842 C   0  0  0  0  0  0  0  0  0  0  0  0
  -67.3819  -26.0519    3.3726 C   0  0  0  0  0  0  0  0  0  0  0  0
  -58.9463  -19.6465    0.9768 H   0  0  0  0  0  0  0  0  0  0  0  0
  -57.4054  -22.0960    0.9073 H   0  0  0  0  0  0  0  0  0  0  0  0
  -56.2754  -19.9821   -0.1100 H   0  0  0  0  0  0  0  0  0  0  0  0
  -59.7748  -21.4257   -0.6737 H   0  0  0  0  0  0  0  0  0  0  0  0
  -58.7288  -19.4673   -1.4967 H   0  0  0  0  0  0  0  0  0  0  0  0
  -57.7139  -18.9324    2.6224 H   0  0  0  0  0  0  0  0  0  0  0  0
  -58.8614  -23.0306    2.1852 H   0  0  0  0  0  0  0  0  0  0  0  0
  -57.1854  -17.8463    0.9250 H   0  0  0  0  0  0  0  0  0  0  0  0
  -63.0461  -23.6891   -4.3527 H   0  0  0  0  0  0  0  0  0  0  0  0
  -60.0553  -23.5131   -3.0941 H   0  0  0  0  0  0  0  0  0  0  0  0
  -66.0750  -25.6734   -1.4078 H   0  0  0  0  0  0  0  0  0  0  0  0
  -60.5261  -25.9931    1.1517 H   0  0  0  0  0  0  0  0  0  0  0  0
  -59.6074  -25.1139    2.1794 H   0  0  0  0  0  0  0  0  0  0  0  0
  -61.1376  -25.4947    2.5845 H   0  0  0  0  0  0  0  0  0  0  0  0
  -64.2965  -25.1574    2.6974 H   0  0  0  0  0  0  0  0  0  0  0  0
  -67.3682  -26.0159    0.0867 H   0  0  0  0  0  0  0  0  0  0  0  0
  -65.7319  -25.5892    4.5277 H   0  0  0  0  0  0  0  0  0  0  0  0
  -68.7987  -26.4466    1.9225 H   0  0  0  0  0  0  0  0  0  0  0  0
  -67.9887  -26.2339    4.1462 H   0  0  0  0  0  0  0  0  0  0  0  0
  1 15  1  0
  1 16  1  0
  2 18  1  0
  6 17  1  0
  7 17  2  0
  8 21  1  0
  8 25  1  0
  9 19  1  0
  9 28  1  0
 10 23  1  0
 11 24  2  0
 12  3  1  0
 12 13  1  0
 12 14  1  0
 13  4  1  0
 13 15  1  0
 14  5  1  0
 14 16  1  0
 15  2  1  0
 16 17  1  0
 18 19  2  0
 18 20  1  0
 19 21  1  0
 20 23  2  0
 21 22  2  0
 22 23  1  0
 22 24  1  0
 24 26  1  0
 25 26  2  0
 25 27  1  0
 27 29  2  0
 27 30  1  0
 29 31  1  0
 30 32  2  0
 31 33  2  0
 32 33  1  0
  3 39  1  0
  4 40  1  0
  5 41  1  0
 10 42  1  0
 12 34  1  0
 13 35  1  0
 14 36  1  0
 15 37  1  0
 16 38  1  0
 20 43  1  0
 26 44  1  0
 28 45  1  0
 28 46  1  0
 28 47  1  0
 29 48  1  0
 30 49  1  0
 31 50  1  0
 32 51  1  0
 33 52  1  0
M  CHG  1   6  -1
M  END
>  <LF dG>
-8.745

>  <LF VSscore>
-11.854

>  <LF Rank Score>
-12.194

>  <LF LE>
-0.265

>  <LF Structure Name>
C:\Users\Odara\AppData\Local\Temp\LeadFinder_13756_1\Ligand_1.sdf

>  <LF SDF id>
0

>  <LF Pose rank>
0

>  <LF version>
2001 1, 19 January 2019

>  <PUBCHEM_COMPOUND_CID>
3084961

>  <PUBCHEM_COMPOUND_CANONICALIZED>
1

>  <PUBCHEM_CACTVS_COMPLEXITY>
763

>  <PUBCHEM_CACTVS_HBOND_ACCEPTOR>
11

>  <PUBCHEM_CACTVS_HBOND_DONOR>
5

>  <PUBCHEM_CACTVS_ROTATABLE_BOND>
5

>  <PUBCHEM_CACTVS_SUBSKEYS>
AAADceB4PAAAAAAAAAAAAAAAAAAAAAAAAAA0YIEAAAAAAACBQAAAGgAACAAADBSwmAMyDoAABgCIAqDSCAICCAAkIAAIiAFGiMgdNzaGNR6ieWKl4BUPuQfK7LzOIQABCAAIQABCAAIQABCAAAAAAAAAAA==

>  <PUBCHEM_IUPAC_OPENEYE_NAME>
(2S,3S,4S,5R,6S)-3,4,5-trihydroxy-6-(5-hydroxy-8-methoxy-4-oxo-2-phenyl-chromen-7-yl)oxy-tetrahydropyran-2-carboxylic acid

>  <PUBCHEM_IUPAC_CAS_NAME>
(2S,3S,4S,5R,6S)-3,4,5-trihydroxy-6-[(5-hydroxy-8-methoxy-4-oxo-2-phenyl-1-benzopyran-7-yl)oxy]-2-oxanecarboxylic acid

>  <PUBCHEM_IUPAC_NAME_MARKUP>
(2<I>S</I>,3<I>S</I>,4<I>S</I>,5<I>R</I>,6<I>S</I>)-3,4,5-trihydroxy-6-(5-hydroxy-8-methoxy-4-oxo-2-phenylchromen-7-yl)oxyoxane-2-carboxylic acid

>  <PUBCHEM_IUPAC_NAME>
(2S,3S,4S,5R,6S)-3,4,5-trihydroxy-6-(5-hydroxy-8-methoxy-4-oxo-2-phenylchromen-7-yl)oxyoxane-2-carboxylic acid

>  <PUBCHEM_IUPAC_SYSTEMATIC_NAME>
(2S,3S,4S,5R,6S)-6-(8-methoxy-5-oxidanyl-4-oxidanylidene-2-phenyl-chromen-7-yl)oxy-3,4,5-tris(oxidanyl)oxane-2-carboxylic acid

>  <PUBCHEM_IUPAC_TRADITIONAL_NAME>
(2S,3S,4S,5R,6S)-3,4,5-trihydroxy-6-(5-hydroxy-4-keto-8-methoxy-2-phenyl-chromen-7-yl)oxy-tetrahydropyran-2-carboxylic acid

>  <PUBCHEM_IUPAC_INCHI>
InChI=1S/C22H20O11/c1-30-18-13(32-22-17(27)15(25)16(26)20(33-22)21(28)29)8-11(24)14-10(23)7-12(31-19(14)18)9-5-3-2-4-6-9/h2-8,15-17,20,22,24-27H,1H3,(H,28,29)/t15-,16-,17+,20-,22+/m0/s1

>  <PUBCHEM_IUPAC_INCHIKEY>
LNOHXHDWGCMVCO-NTKSAMNMSA-N

>  <PUBCHEM_XLOGP3_AA>
1.4

>  <PUBCHEM_EXACT_MASS>
460.100561

>  <PUBCHEM_MOLECULAR_FORMULA>
C22H20O11

>  <PUBCHEM_MOLECULAR_WEIGHT>
460.4

>  <PUBCHEM_OPENEYE_CAN_SMILES>
COC1=C(C=C(C2=C1OC(=CC2=O)C3=CC=CC=C3)O)OC4C(C(C(C(O4)C(=O)O)O)O)O

>  <PUBCHEM_OPENEYE_ISO_SMILES>
COC1=C(C=C(C2=C1OC(=CC2=O)C3=CC=CC=C3)O)O[C@H]4[C@@H]([C@H]([C@@H]([C@H](O4)C(=O)O)O)O)O

>  <PUBCHEM_CACTVS_TPSA>
172

>  <PUBCHEM_MONOISOTOPIC_WEIGHT>
460.100561

>  <PUBCHEM_TOTAL_CHARGE>
0

>  <PUBCHEM_HEAVY_ATOM_COUNT>
33

>  <PUBCHEM_ATOM_DEF_STEREO_COUNT>
5

>  <PUBCHEM_ATOM_UDEF_STEREO_COUNT>
0

>  <PUBCHEM_BOND_DEF_STEREO_COUNT>
0

>  <PUBCHEM_BOND_UDEF_STEREO_COUNT>
0

>  <PUBCHEM_ISOTOPIC_ATOM_COUNT>
0

>  <PUBCHEM_COMPONENT_COUNT>
1

>  <PUBCHEM_CACTVS_TAUTO_COUNT>
-1

>  <PUBCHEM_COORDINATE_TYPE>
1
5
255

>  <PUBCHEM_BONDANNOTATIONS>
16  17  5
18  19  8
18  20  8
19  21  8
15  2  5
20  23  8
21  22  8
22  23  8
22  24  8
24  26  8
25  26  8
27  29  8
27  30  8
29  31  8
12  3  5
30  32  8
31  33  8
32  33  8
13  4  6
14  5  6
8  21  8
8  25  8

>  <Favorite_cresset>
false

>  <MW_cresset>
459.4

>  <#Atoms_cresset>
33

>  <SlogP_cresset>
1.4

>  <TPSA_cresset>
175

>  <Flexibility_cresset>
7.6

>  <#RB_cresset>
9

>  <Rof5_cresset>
1

>  <Filename_cresset>
drag.9_263.sdf

>  <Confs_cresset>
0

>  <Poses_cresset>
0

$$$$
Site2_Wogonoside_D
  xed2sdf_05210316543D
 
 52 55  0  0  1  0  0  0  0  0999 V2000
  -57.8965  -20.4144   -1.5514 O   0  0  0  0  0  0  0  0  0  0  0  0
  -58.6515  -21.6978    0.3879 O   0  0  0  0  0  0  0  0  0  0  0  0
  -61.4404  -18.1764   -1.4634 O   0  0  0  0  0  0  0  0  0  0  0  0
  -61.1544  -20.4911    0.2119 O   0  0  0  0  0  0  0  0  0  0  0  0
  -59.7486  -18.0815   -3.7806 O   0  0  0  0  0  0  0  0  0  0  0  0
  -56.0112  -20.0933   -3.3827 O   0  5  0  0  0  0  0  0  0  0  0  0
  -57.1031  -18.2535   -4.1744 O   0  0  0  0  0  0  0  0  0  0  0  0
  -60.4450  -25.6540    2.1869 O   0  0  0  0  0  0  0  0  0  0  0  0
  -60.3255  -22.9461    2.0525 O   0  0  0  0  0  0  0  0  0  0  0  0
  -56.9581  -25.8848   -1.1100 O   0  0  0  0  0  0  0  0  0  0  0  0
  -57.9791  -27.9775   -0.0266 O   0  0  0  0  0  0  0  0  0  0  0  0
  -60.5108  -19.2246   -1.7731 C   0  0  0  0  0  0  0  0  0  0  0  0
  -60.0375  -19.9146   -0.4811 C   0  0  0  0  0  0  0  0  0  0  0  0
  -59.3037  -18.6589   -2.5436 C   0  0  0  0  0  0  0  0  0  0  0  0
  -59.0036  -21.0036   -0.8316 C   0  0  0  0  0  0  0  0  0  0  0  0
  -58.2965  -19.8025   -2.7967 C   0  0  0  0  0  0  0  0  0  0  0  0
  -57.0431  -19.3459   -3.5075 C   0  0  0  0  0  0  0  0  0  0  0  0
  -58.6389  -23.0378    0.4143 C   0  0  0  0  0  0  0  0  0  0  0  0
  -59.5014  -23.6856    1.2824 C   0  0  0  0  0  0  0  0  0  0  0  0
  -57.7892  -23.7926   -0.3883 C   0  0  0  0  0  0  0  0  0  0  0  0
  -59.5451  -25.0733    1.3440 C   0  0  0  0  0  0  0  0  0  0  0  0
  -58.6798  -25.8142    0.5398 C   0  0  0  0  0  0  0  0  0  0  0  0
  -57.7990  -25.1607   -0.3270 C   0  0  0  0  0  0  0  0  0  0  0  0
  -58.7327  -27.2582    0.6296 C   0  0  0  0  0  0  0  0  0  0  0  0
  -60.5118  -27.0253    2.2294 C   0  0  0  0  0  0  0  0  0  0  0  0
  -59.6920  -27.8360    1.4987 C   0  0  0  0  0  0  0  0  0  0  0  0
  -61.5470  -27.6010    3.1272 C   0  0  0  0  0  0  0  0  0  0  0  0
  -59.9423  -22.7378    3.4275 C   0  0  0  0  0  0  0  0  0  0  0  0
  -62.3674  -26.7341    3.8330 C   0  0  0  0  0  0  0  0  0  0  0  0
  -61.7378  -28.9664    3.2909 C   0  0  0  0  0  0  0  0  0  0  0  0
  -63.3457  -27.2105    4.6713 C   0  0  0  0  0  0  0  0  0  0  0  0
  -62.7166  -29.4424    4.1297 C   0  0  0  0  0  0  0  0  0  0  0  0
  -63.5229  -28.5669    4.8211 C   0  0  0  0  0  0  0  0  0  0  0  0
  -60.9716  -19.8996   -2.3495 H   0  0  0  0  0  0  0  0  0  0  0  0
  -59.6110  -19.2374    0.1184 H   0  0  0  0  0  0  0  0  0  0  0  0
  -58.8547  -17.9421   -2.0104 H   0  0  0  0  0  0  0  0  0  0  0  0
  -59.3721  -21.6934   -1.4547 H   0  0  0  0  0  0  0  0  0  0  0  0
  -58.7760  -20.4555   -3.3832 H   0  0  0  0  0  0  0  0  0  0  0  0
  -61.0628  -17.2729   -1.6933 H   0  0  0  0  0  0  0  0  0  0  0  0
  -61.9699  -20.5314   -0.3760 H   0  0  0  0  0  0  0  0  0  0  0  0
  -59.6707  -17.0790   -3.7698 H   0  0  0  0  0  0  0  0  0  0  0  0
  -56.6655  -25.3618   -1.9183 H   0  0  0  0  0  0  0  0  0  0  0  0
  -57.1639  -23.3308   -1.0174 H   0  0  0  0  0  0  0  0  0  0  0  0
  -59.7676  -28.8301    1.5759 H   0  0  0  0  0  0  0  0  0  0  0  0
  -59.0742  -23.2041    3.5977 H   0  0  0  0  0  0  0  0  0  0  0  0
  -59.8393  -21.7591    3.6048 H   0  0  0  0  0  0  0  0  0  0  0  0
  -60.6480  -23.1059    4.0328 H   0  0  0  0  0  0  0  0  0  0  0  0
  -62.2452  -25.7468    3.7301 H   0  0  0  0  0  0  0  0  0  0  0  0
  -61.1568  -29.6103    2.7931 H   0  0  0  0  0  0  0  0  0  0  0  0
  -63.9293  -26.5716    5.1725 H   0  0  0  0  0  0  0  0  0  0  0  0
  -62.8433  -30.4286    4.2382 H   0  0  0  0  0  0  0  0  0  0  0  0
  -64.2350  -28.9156    5.4303 H   0  0  0  0  0  0  0  0  0  0  0  0
  1 15  1  0
  1 16  1  0
  2 18  1  0
  6 17  1  0
  7 17  2  0
  8 21  1  0
  8 25  1  0
  9 19  1  0
  9 28  1  0
 10 23  1  0
 11 24  2  0
 12  3  1  0
 12 13  1  0
 12 14  1  0
 13  4  1  0
 13 15  1  0
 14  5  1  0
 14 16  1  0
 15  2  1  0
 16 17  1  0
 18 19  2  0
 18 20  1  0
 19 21  1  0
 20 23  2  0
 21 22  2  0
 22 23  1  0
 22 24  1  0
 24 26  1  0
 25 26  2  0
 25 27  1  0
 27 29  2  0
 27 30  1  0
 29 31  1  0
 30 32  2  0
 31 33  2  0
 32 33  1  0
  3 39  1  0
  4 40  1  0
  5 41  1  0
 10 42  1  0
 12 34  1  0
 13 35  1  0
 14 36  1  0
 15 37  1  0
 16 38  1  0
 20 43  1  0
 26 44  1  0
 28 45  1  0
 28 46  1  0
 28 47  1  0
 29 48  1  0
 30 49  1  0
 31 50  1  0
 32 51  1  0
 33 52  1  0
M  CHG  1   6  -1
M  END
>  <LF dG>
-8.705

>  <LF VSscore>
-12.104

>  <LF Rank Score>
-12.164

>  <LF LE>
-0.264

>  <LF Structure Name>
C:\Users\Odara\AppData\Local\Temp\LeadFinder_14660_1\Ligand_1.sdf

>  <LF SDF id>
0

>  <LF Pose rank>
0

>  <LF version>
2001 1, 19 January 2019

>  <PUBCHEM_COMPOUND_CID>
3084961

>  <PUBCHEM_COMPOUND_CANONICALIZED>
1

>  <PUBCHEM_CACTVS_COMPLEXITY>
763

>  <PUBCHEM_CACTVS_HBOND_ACCEPTOR>
11

>  <PUBCHEM_CACTVS_HBOND_DONOR>
5

>  <PUBCHEM_CACTVS_ROTATABLE_BOND>
5

>  <PUBCHEM_CACTVS_SUBSKEYS>
AAADceB4PAAAAAAAAAAAAAAAAAAAAAAAAAA0YIEAAAAAAACBQAAAGgAACAAADBSwmAMyDoAABgCIAqDSCAICCAAkIAAIiAFGiMgdNzaGNR6ieWKl4BUPuQfK7LzOIQABCAAIQABCAAIQABCAAAAAAAAAAA==

>  <PUBCHEM_IUPAC_OPENEYE_NAME>
(2S,3S,4S,5R,6S)-3,4,5-trihydroxy-6-(5-hydroxy-8-methoxy-4-oxo-2-phenyl-chromen-7-yl)oxy-tetrahydropyran-2-carboxylic acid

>  <PUBCHEM_IUPAC_CAS_NAME>
(2S,3S,4S,5R,6S)-3,4,5-trihydroxy-6-[(5-hydroxy-8-methoxy-4-oxo-2-phenyl-1-benzopyran-7-yl)oxy]-2-oxanecarboxylic acid

>  <PUBCHEM_IUPAC_NAME_MARKUP>
(2<I>S</I>,3<I>S</I>,4<I>S</I>,5<I>R</I>,6<I>S</I>)-3,4,5-trihydroxy-6-(5-hydroxy-8-methoxy-4-oxo-2-phenylchromen-7-yl)oxyoxane-2-carboxylic acid

>  <PUBCHEM_IUPAC_NAME>
(2S,3S,4S,5R,6S)-3,4,5-trihydroxy-6-(5-hydroxy-8-methoxy-4-oxo-2-phenylchromen-7-yl)oxyoxane-2-carboxylic acid

>  <PUBCHEM_IUPAC_SYSTEMATIC_NAME>
(2S,3S,4S,5R,6S)-6-(8-methoxy-5-oxidanyl-4-oxidanylidene-2-phenyl-chromen-7-yl)oxy-3,4,5-tris(oxidanyl)oxane-2-carboxylic acid

>  <PUBCHEM_IUPAC_TRADITIONAL_NAME>
(2S,3S,4S,5R,6S)-3,4,5-trihydroxy-6-(5-hydroxy-4-keto-8-methoxy-2-phenyl-chromen-7-yl)oxy-tetrahydropyran-2-carboxylic acid

>  <PUBCHEM_IUPAC_INCHI>
InChI=1S/C22H20O11/c1-30-18-13(32-22-17(27)15(25)16(26)20(33-22)21(28)29)8-11(24)14-10(23)7-12(31-19(14)18)9-5-3-2-4-6-9/h2-8,15-17,20,22,24-27H,1H3,(H,28,29)/t15-,16-,17+,20-,22+/m0/s1

>  <PUBCHEM_IUPAC_INCHIKEY>
LNOHXHDWGCMVCO-NTKSAMNMSA-N

>  <PUBCHEM_XLOGP3_AA>
1.4

>  <PUBCHEM_EXACT_MASS>
460.100561

>  <PUBCHEM_MOLECULAR_FORMULA>
C22H20O11

>  <PUBCHEM_MOLECULAR_WEIGHT>
460.4

>  <PUBCHEM_OPENEYE_CAN_SMILES>
COC1=C(C=C(C2=C1OC(=CC2=O)C3=CC=CC=C3)O)OC4C(C(C(C(O4)C(=O)O)O)O)O

>  <PUBCHEM_OPENEYE_ISO_SMILES>
COC1=C(C=C(C2=C1OC(=CC2=O)C3=CC=CC=C3)O)O[C@H]4[C@@H]([C@H]([C@@H]([C@H](O4)C(=O)O)O)O)O

>  <PUBCHEM_CACTVS_TPSA>
172

>  <PUBCHEM_MONOISOTOPIC_WEIGHT>
460.100561

>  <PUBCHEM_TOTAL_CHARGE>
0

>  <PUBCHEM_HEAVY_ATOM_COUNT>
33

>  <PUBCHEM_ATOM_DEF_STEREO_COUNT>
5

>  <PUBCHEM_ATOM_UDEF_STEREO_COUNT>
0

>  <PUBCHEM_BOND_DEF_STEREO_COUNT>
0

>  <PUBCHEM_BOND_UDEF_STEREO_COUNT>
0

>  <PUBCHEM_ISOTOPIC_ATOM_COUNT>
0

>  <PUBCHEM_COMPONENT_COUNT>
1

>  <PUBCHEM_CACTVS_TAUTO_COUNT>
-1

>  <PUBCHEM_COORDINATE_TYPE>
1
5
255

>  <PUBCHEM_BONDANNOTATIONS>
16  17  5
18  19  8
18  20  8
19  21  8
15  2  5
20  23  8
21  22  8
22  23  8
22  24  8
24  26  8
25  26  8
27  29  8
27  30  8
29  31  8
12  3  5
30  32  8
31  33  8
32  33  8
13  4  6
14  5  6
8  21  8
8  25  8

>  <Favorite_cresset>
false

>  <MW_cresset>
459.4

>  <#Atoms_cresset>
33

>  <SlogP_cresset>
1.4

>  <TPSA_cresset>
175

>  <Flexibility_cresset>
7.6

>  <#RB_cresset>
9

>  <Rof5_cresset>
1

>  <Filename_cresset>
drag.12_800.sdf

>  <Confs_cresset>
0

>  <Poses_cresset>
0

$$$$
W_Site2_VTRRT_D
  xed2sdf_05210316543D
 
 92 97  0  0  1  0  0  0  0  0999 V2000
  -66.3264  -24.6288    1.4551 C   0  0  0  0  0  0  0  0  0  0  0  0
  -65.4749  -24.8386    0.3941 C   0  0  0  0  0  0  0  0  0  0  0  0
  -65.9407  -24.7505   -0.8997 C   0  0  0  0  0  0  0  0  0  0  0  0
  -67.2669  -24.4487   -1.1225 C   0  0  0  0  0  0  0  0  0  0  0  0
  -68.1196  -24.2381   -0.0632 C   0  0  0  0  0  0  0  0  0  0  0  0
  -67.6494  -24.3277    1.2267 C   0  0  0  0  0  0  0  0  0  0  0  0
  -65.0004  -24.9802   -2.0744 C   0  0  0  0  0  0  0  0  0  0  0  0
  -63.6520  -24.2281   -1.9946 C   0  0  0  0  0  0  0  0  0  0  0  0
  -63.7968  -22.8974   -2.6833 N   0  3  0  0  0  0  0  0  0  0  0  0
  -62.5089  -25.0603   -2.6275 C   0  0  0  0  0  0  0  0  0  0  0  0
  -63.0290  -26.2421   -3.2585 O   0  0  0  0  0  0  0  0  0  0  0  0
  -61.4576  -25.4469   -1.5579 C   0  0  0  0  0  0  0  0  0  0  0  0
  -60.6992  -24.2635   -0.9061 C   0  0  0  0  0  0  0  0  0  0  0  0
  -60.1488  -24.6171    0.4961 C   0  0  0  0  0  0  0  0  0  0  0  0
  -59.3650  -25.9202    0.5729 C   0  0  0  0  0  0  0  0  0  0  0  0
  -58.5086  -26.2761   -0.4463 C   0  0  0  0  0  0  0  0  0  0  0  0
  -57.7953  -27.4512   -0.3768 C   0  0  0  0  0  0  0  0  0  0  0  0
  -57.9355  -28.2781    0.7140 C   0  0  0  0  0  0  0  0  0  0  0  0
  -58.7896  -27.9277    1.7341 C   0  0  0  0  0  0  0  0  0  0  0  0
  -59.5023  -26.7522    1.6629 C   0  0  0  0  0  0  0  0  0  0  0  0
  -59.6243  -23.7201   -1.7523 N   0  0  0  0  0  0  0  0  0  0  0  0
  -59.1408  -22.3542   -1.3387 P   0  0  0  0  0  0  0  0  0  0  0  0
  -58.4324  -21.6250   -2.5861 O   0  0  0  0  0  0  0  0  0  0  0  0
  -60.3731  -21.3740   -1.0031 O   0  0  0  0  0  0  0  0  0  0  0  0
  -58.1806  -22.4421   -0.1804 O   0  0  0  0  0  0  0  0  0  0  0  0
  -58.4865  -22.2580   -3.8749 C   0  0  0  0  0  0  0  0  0  0  0  0
  -60.6381  -20.2943   -1.7914 C   0  0  0  0  0  0  0  0  0  0  0  0
  -61.4127  -20.4475   -2.9245 C   0  0  0  0  0  0  0  0  0  0  0  0
  -61.6866  -19.3632   -3.7241 C   0  0  0  0  0  0  0  0  0  0  0  0
  -61.1929  -18.1210   -3.3934 C   0  0  0  0  0  0  0  0  0  0  0  0
  -60.4236  -17.9631   -2.2622 C   0  0  0  0  0  0  0  0  0  0  0  0
  -60.1449  -19.0462   -1.4628 C   0  0  0  0  0  0  0  0  0  0  0  0
  -57.6576  -21.4761   -4.9102 C   0  0  0  0  0  0  0  0  0  0  0  0
  -57.6662  -22.1082   -6.1991 O   0  0  0  0  0  0  0  0  0  0  0  0
  -56.4741  -21.7527   -6.9287 C   0  0  0  0  0  0  0  0  0  0  0  0
  -55.5237  -21.0889   -5.9005 C   0  0  0  0  0  0  0  0  0  0  0  0
  -56.1731  -21.3598   -4.5370 C   0  0  0  0  0  0  0  0  0  0  0  0
  -55.6694  -22.5919   -3.9977 O   0  0  0  0  0  0  0  0  0  0  0  0
  -54.1843  -21.6067   -5.9456 O   0  0  0  0  0  0  0  0  0  0  0  0
  -55.9287  -22.9966   -7.6248 C   0  0  0  0  0  0  0  0  0  0  0  0
  -56.8418  -20.7621   -7.9503 C   0  0  0  0  0  0  0  0  0  0  0  0
  -57.1255  -19.9956   -8.7396 N   0  0  0  0  0  0  0  0  0  0  0  0
  -54.9969  -22.9328   -8.6091 N   0  0  0  0  0  0  0  0  0  0  0  0
  -54.7779  -24.2227   -8.9763 C   0  0  0  0  0  0  0  0  0  0  0  0
  -55.5393  -25.0788   -8.2482 C   0  0  0  0  0  0  0  0  0  0  0  0
  -56.2810  -24.2759   -7.3775 C   0  0  0  0  0  0  0  0  0  0  0  0
  -54.3280  -21.9060   -9.2132 N   0  0  0  0  0  0  0  0  0  0  0  0
  -53.4715  -22.2089  -10.1605 C   0  0  0  0  0  0  0  0  0  0  0  0
  -53.1742  -23.4687  -10.6149 N   0  0  0  0  0  0  0  0  0  0  0  0
  -53.8375  -24.4653  -10.0116 C   0  0  0  0  0  0  0  0  0  0  0  0
  -53.5724  -25.7449  -10.4382 N   0  0  0  0  0  0  0  0  0  0  0  0
  -63.4110  -24.0818   -1.0354 H   0  0  0  0  0  0  0  0  0  0  0  0
  -62.0649  -24.4963   -3.3238 H   0  0  0  0  0  0  0  0  0  0  0  0
  -61.3868  -23.5451   -0.8034 H   0  0  0  0  0  0  0  0  0  0  0  0
  -58.0933  -20.5762   -4.9286 H   0  0  0  0  0  0  0  0  0  0  0  0
  -55.4181  -20.1139   -6.0961 H   0  0  0  0  0  0  0  0  0  0  0  0
  -55.9956  -20.6634   -3.8414 H   0  0  0  0  0  0  0  0  0  0  0  0
  -65.9833  -24.6954    2.3920 H   0  0  0  0  0  0  0  0  0  0  0  0
  -64.5135  -25.0559    0.5630 H   0  0  0  0  0  0  0  0  0  0  0  0
  -67.6115  -24.3827   -2.0589 H   0  0  0  0  0  0  0  0  0  0  0  0
  -69.0811  -24.0196   -0.2307 H   0  0  0  0  0  0  0  0  0  0  0  0
  -68.2679  -24.1745    1.9971 H   0  0  0  0  0  0  0  0  0  0  0  0
  -65.4696  -24.6916   -2.9091 H   0  0  0  0  0  0  0  0  0  0  0  0
  -64.7743  -25.9543   -2.0626 H   0  0  0  0  0  0  0  0  0  0  0  0
  -64.1339  -22.9878   -3.5235 H   0  0  0  0  0  0  0  0  0  0  0  0
  -62.9981  -22.4686   -2.7637 H   0  0  0  0  0  0  0  0  0  0  0  0
  -63.3744  -26.9006   -2.5815 H   0  0  0  0  0  0  0  0  0  0  0  0
  -60.7840  -26.0469   -1.9894 H   0  0  0  0  0  0  0  0  0  0  0  0
  -61.9690  -25.8833   -0.8176 H   0  0  0  0  0  0  0  0  0  0  0  0
  -60.9221  -24.6803    1.1268 H   0  0  0  0  0  0  0  0  0  0  0  0
  -59.5032  -23.8910    0.7325 H   0  0  0  0  0  0  0  0  0  0  0  0
  -58.4047  -25.6775   -1.2406 H   0  0  0  0  0  0  0  0  0  0  0  0
  -57.1751  -27.7038   -1.1192 H   0  0  0  0  0  0  0  0  0  0  0  0
  -57.4178  -29.1321    0.7651 H   0  0  0  0  0  0  0  0  0  0  0  0
  -58.8928  -28.5272    2.5277 H   0  0  0  0  0  0  0  0  0  0  0  0
  -60.1222  -26.5007    2.4058 H   0  0  0  0  0  0  0  0  0  0  0  0
  -58.8361  -24.3765   -1.7988 H   0  0  0  0  0  0  0  0  0  0  0  0
  -59.4379  -22.3013   -4.1797 H   0  0  0  0  0  0  0  0  0  0  0  0
  -58.1047  -23.1787   -3.7933 H   0  0  0  0  0  0  0  0  0  0  0  0
  -61.7746  -21.3484   -3.1640 H   0  0  0  0  0  0  0  0  0  0  0  0
  -62.2449  -19.4764   -4.5460 H   0  0  0  0  0  0  0  0  0  0  0  0
  -61.3933  -17.3328   -3.9752 H   0  0  0  0  0  0  0  0  0  0  0  0
  -60.0675  -17.0600   -2.0223 H   0  0  0  0  0  0  0  0  0  0  0  0
  -59.5843  -18.9309   -0.6427 H   0  0  0  0  0  0  0  0  0  0  0  0
  -56.2167  -23.3773   -4.3064 H   0  0  0  0  0  0  0  0  0  0  0  0
  -54.1754  -22.6066   -5.8369 H   0  0  0  0  0  0  0  0  0  0  0  0
  -55.5644  -26.0760   -8.3200 H   0  0  0  0  0  0  0  0  0  0  0  0
  -56.9462  -24.5895   -6.6999 H   0  0  0  0  0  0  0  0  0  0  0  0
  -52.9886  -21.4473  -10.5930 H   0  0  0  0  0  0  0  0  0  0  0  0
  -52.9879  -25.8788  -11.0821 H   0  0  0  0  0  0  0  0  0  0  0  0
  -53.9851  -26.4314  -10.0719 H   0  0  0  0  0  0  0  0  0  0  0  0
  -64.4668  -22.2783   -2.1052 H   0  0  0  0  0  0  0  0  0  0  0  0
  1  2  2  0
  2  3  1  0
  3  4  2  0
  3  7  1  0
  4  5  1  0
  5  6  2  0
  6  1  1  0
  7  8  1  0
  8  9  1  0
  8 10  1  0
 10 11  1  0
 10 12  1  0
 12 13  1  0
 13 14  1  0
 13 21  1  0
 14 15  1  0
 15 16  2  0
 16 17  1  0
 17 18  2  0
 18 19  1  0
 19 20  2  0
 20 15  1  0
 21 22  1  0
 22 23  1  0
 22 24  1  0
 22 25  2  0
 23 26  1  0
 24 27  1  0
 27 28  2  0
 28 29  1  0
 29 30  2  0
 30 31  1  0
 31 32  2  0
 32 27  1  0
 33 26  1  0
 33 34  1  0
 34 35  1  0
 35 36  1  0
 35 40  1  0
 35 41  1  0
 36 37  1  0
 36 39  1  0
 37 33  1  0
 37 38  1  0
 40 43  1  0
 41 42  3  0
 43 44  1  0
 43 47  1  0
 44 45  2  0
 45 46  1  0
 46 40  2  0
 47 48  2  0
 48 49  1  0
 49 50  2  0
 50 44  1  0
 50 51  1  0
  1 58  1  0
  2 59  1  0
  4 60  1  0
  5 61  1  0
  6 62  1  0
  7 63  1  0
  7 64  1  0
  8 52  1  0
  9 65  1  0
  9 66  1  0
  9 92  1  0
 10 53  1  0
 11 67  1  0
 12 68  1  0
 12 69  1  0
 13 54  1  0
 14 70  1  0
 14 71  1  0
 16 72  1  0
 17 73  1  0
 18 74  1  0
 19 75  1  0
 20 76  1  0
 21 77  1  0
 26 78  1  0
 26 79  1  0
 28 80  1  0
 29 81  1  0
 30 82  1  0
 31 83  1  0
 32 84  1  0
 33 55  1  0
 36 56  1  0
 37 57  1  0
 38 85  1  0
 39 86  1  0
 45 87  1  0
 46 88  1  0
 48 89  1  0
 51 90  1  0
 51 91  1  0
M  CHG  1   9   1
M  END
>  <LF dG>
-9.637

>  <LF VSscore>
-16.07

>  <LF Rank Score>
-17.032

>  <LF LE>
-0.189

>  <LF Structure Name>
C:\Users\Odara\AppData\Local\Temp\LeadFinder_9508_1\Ligand_1.sdf

>  <LF SDF id>
0

>  <LF Pose rank>
0

>  <LF version>
2001 1, 19 January 2019

>  <Favorite_cresset>
false

>  <MW_cresset>
714.7

>  <#Atoms_cresset>
51

>  <SlogP_cresset>
4

>  <TPSA_cresset>
225.1

>  <Flexibility_cresset>
17.1

>  <#RB_cresset>
18

>  <Rof5_cresset>
3

>  <Filename_cresset>
drag.55_610.sdf

>  <Confs_cresset>
0

>  <Poses_cresset>
0

$$$$
Site2_VTRRT_D
  xed2sdf_05210316543D
 
 92 97  0  0  1  0  0  0  0  0999 V2000
  -69.3890  -24.6065   -0.5765 C   0  0  0  0  0  0  0  0  0  0  0  0
  -68.2521  -24.8465   -1.3145 C   0  0  0  0  0  0  0  0  0  0  0  0
  -67.1654  -25.4661   -0.7363 C   0  0  0  0  0  0  0  0  0  0  0  0
  -67.2273  -25.8451    0.5873 C   0  0  0  0  0  0  0  0  0  0  0  0
  -68.3634  -25.6068    1.3263 C   0  0  0  0  0  0  0  0  0  0  0  0
  -69.4453  -24.9872    0.7444 C   0  0  0  0  0  0  0  0  0  0  0  0
  -65.9078  -25.7340   -1.5510 C   0  0  0  0  0  0  0  0  0  0  0  0
  -64.8163  -24.6435   -1.4538 C   0  0  0  0  0  0  0  0  0  0  0  0
  -64.1996  -24.4511   -2.8133 N   0  3  0  0  0  0  0  0  0  0  0  0
  -63.7415  -25.0199   -0.4037 C   0  0  0  0  0  0  0  0  0  0  0  0
  -63.5919  -23.9728    0.5691 O   0  0  0  0  0  0  0  0  0  0  0  0
  -62.3831  -25.3063   -1.0904 C   0  0  0  0  0  0  0  0  0  0  0  0
  -61.2879  -24.2305   -0.8822 C   0  0  0  0  0  0  0  0  0  0  0  0
  -59.8903  -24.7175   -1.3341 C   0  0  0  0  0  0  0  0  0  0  0  0
  -59.2183  -25.7118   -0.3972 C   0  0  0  0  0  0  0  0  0  0  0  0
  -58.7784  -25.3070    0.8445 C   0  0  0  0  0  0  0  0  0  0  0  0
  -58.1750  -26.2051    1.6953 C   0  0  0  0  0  0  0  0  0  0  0  0
  -58.0074  -27.5146    1.3079 C   0  0  0  0  0  0  0  0  0  0  0  0
  -58.4443  -27.9238    0.0689 C   0  0  0  0  0  0  0  0  0  0  0  0
  -59.0477  -27.0243   -0.7804 C   0  0  0  0  0  0  0  0  0  0  0  0
  -61.6063  -22.9406   -1.5157 N   0  0  0  0  0  0  0  0  0  0  0  0
  -61.1034  -21.7381   -0.7596 P   0  0  0  0  0  0  0  0  0  0  0  0
  -59.9821  -20.9773   -1.6275 O   0  0  0  0  0  0  0  0  0  0  0  0
  -62.2534  -20.6224   -0.6031 O   0  0  0  0  0  0  0  0  0  0  0  0
  -60.5377  -22.1324    0.5804 O   0  0  0  0  0  0  0  0  0  0  0  0
  -59.8797  -21.2721   -3.0302 C   0  0  0  0  0  0  0  0  0  0  0  0
  -62.2647  -19.5176   -1.4011 C   0  0  0  0  0  0  0  0  0  0  0  0
  -63.0269  -19.5127   -2.5528 C   0  0  0  0  0  0  0  0  0  0  0  0
  -63.0456  -18.4016   -3.3623 C   0  0  0  0  0  0  0  0  0  0  0  0
  -62.3075  -17.2896   -3.0233 C   0  0  0  0  0  0  0  0  0  0  0  0
  -61.5495  -17.2889   -1.8737 C   0  0  0  0  0  0  0  0  0  0  0  0
  -61.5259  -18.3998   -1.0641 C   0  0  0  0  0  0  0  0  0  0  0  0
  -58.7238  -20.4877   -3.6772 C   0  0  0  0  0  0  0  0  0  0  0  0
  -58.5540  -20.8195   -5.0636 O   0  0  0  0  0  0  0  0  0  0  0  0
  -57.1880  -20.5838   -5.4615 C   0  0  0  0  0  0  0  0  0  0  0  0
  -56.3900  -20.3697   -4.1506 C   0  0  0  0  0  0  0  0  0  0  0  0
  -57.3602  -20.7737   -3.0326 C   0  0  0  0  0  0  0  0  0  0  0  0
  -57.2020  -22.1701   -2.7364 O   0  0  0  0  0  0  0  0  0  0  0  0
  -55.1801  -21.1419   -4.0874 O   0  0  0  0  0  0  0  0  0  0  0  0
  -56.7194  -21.7422   -6.3379 C   0  0  0  0  0  0  0  0  0  0  0  0
  -57.1496  -19.3463   -6.2534 C   0  0  0  0  0  0  0  0  0  0  0  0
  -57.1192  -18.3893   -6.8649 N   0  0  0  0  0  0  0  0  0  0  0  0
  -55.5996  -21.6736   -7.1011 N   0  0  0  0  0  0  0  0  0  0  0  0
  -55.5238  -22.8752   -7.7311 C   0  0  0  0  0  0  0  0  0  0  0  0
  -56.5560  -23.6832   -7.3780 C   0  0  0  0  0  0  0  0  0  0  0  0
  -57.3244  -22.9408   -6.4772 C   0  0  0  0  0  0  0  0  0  0  0  0
  -54.6550  -20.7089   -7.3099 N   0  0  0  0  0  0  0  0  0  0  0  0
  -53.6766  -20.9822   -8.1409 C   0  0  0  0  0  0  0  0  0  0  0  0
  -53.5015  -22.1535   -8.8332 N   0  0  0  0  0  0  0  0  0  0  0  0
  -54.4356  -23.0903   -8.6169 C   0  0  0  0  0  0  0  0  0  0  0  0
  -54.3010  -24.2796   -9.2931 N   0  0  0  0  0  0  0  0  0  0  0  0
  -65.2319  -23.7853   -1.1526 H   0  0  0  0  0  0  0  0  0  0  0  0
  -64.0446  -25.8497    0.0648 H   0  0  0  0  0  0  0  0  0  0  0  0
  -61.2643  -24.0777    0.1055 H   0  0  0  0  0  0  0  0  0  0  0  0
  -58.9871  -19.5318   -3.5477 H   0  0  0  0  0  0  0  0  0  0  0  0
  -56.0816  -19.4212   -4.0765 H   0  0  0  0  0  0  0  0  0  0  0  0
  -57.2260  -20.2928   -2.1661 H   0  0  0  0  0  0  0  0  0  0  0  0
  -70.1742  -24.1553   -1.0006 H   0  0  0  0  0  0  0  0  0  0  0  0
  -68.2145  -24.5698   -2.2748 H   0  0  0  0  0  0  0  0  0  0  0  0
  -66.4425  -26.2957    1.0129 H   0  0  0  0  0  0  0  0  0  0  0  0
  -68.4028  -25.8836    2.2865 H   0  0  0  0  0  0  0  0  0  0  0  0
  -70.2712  -24.8141    1.2805 H   0  0  0  0  0  0  0  0  0  0  0  0
  -66.1730  -25.8251   -2.5109 H   0  0  0  0  0  0  0  0  0  0  0  0
  -65.5024  -26.5652   -1.1706 H   0  0  0  0  0  0  0  0  0  0  0  0
  -63.8831  -25.2335   -3.1532 H   0  0  0  0  0  0  0  0  0  0  0  0
  -63.4987  -23.8710   -2.7888 H   0  0  0  0  0  0  0  0  0  0  0  0
  -64.0069  -23.1130    0.2533 H   0  0  0  0  0  0  0  0  0  0  0  0
  -62.5465  -25.3964   -2.0727 H   0  0  0  0  0  0  0  0  0  0  0  0
  -62.0313  -26.1392   -0.6632 H   0  0  0  0  0  0  0  0  0  0  0  0
  -59.2952  -23.9183   -1.4203 H   0  0  0  0  0  0  0  0  0  0  0  0
  -60.0304  -25.2020   -2.1977 H   0  0  0  0  0  0  0  0  0  0  0  0
  -58.8982  -24.3558    1.1290 H   0  0  0  0  0  0  0  0  0  0  0  0
  -57.8584  -25.9056    2.5954 H   0  0  0  0  0  0  0  0  0  0  0  0
  -57.5691  -28.1677    1.9254 H   0  0  0  0  0  0  0  0  0  0  0  0
  -58.3235  -28.8750   -0.2145 H   0  0  0  0  0  0  0  0  0  0  0  0
  -59.3635  -27.3250   -1.6804 H   0  0  0  0  0  0  0  0  0  0  0  0
  -62.6166  -22.8599   -1.6792 H   0  0  0  0  0  0  0  0  0  0  0  0
  -60.7377  -21.0257   -3.4809 H   0  0  0  0  0  0  0  0  0  0  0  0
  -59.6984  -22.2497   -3.1372 H   0  0  0  0  0  0  0  0  0  0  0  0
  -63.5659  -20.3184   -2.7984 H   0  0  0  0  0  0  0  0  0  0  0  0
  -63.5954  -18.4009   -4.1976 H   0  0  0  0  0  0  0  0  0  0  0  0
  -62.3224  -16.4818   -3.6124 H   0  0  0  0  0  0  0  0  0  0  0  0
  -61.0158  -16.4798   -1.6279 H   0  0  0  0  0  0  0  0  0  0  0  0
  -60.9733  -18.3990   -0.2306 H   0  0  0  0  0  0  0  0  0  0  0  0
  -57.3168  -22.7344   -3.5613 H   0  0  0  0  0  0  0  0  0  0  0  0
  -55.3683  -22.1247   -4.1901 H   0  0  0  0  0  0  0  0  0  0  0  0
  -56.7303  -24.6152   -7.6961 H   0  0  0  0  0  0  0  0  0  0  0  0
  -58.1629  -23.2406   -6.0223 H   0  0  0  0  0  0  0  0  0  0  0  0
  -52.9920  -20.2671   -8.2832 H   0  0  0  0  0  0  0  0  0  0  0  0
  -53.6217  -24.3971   -9.8399 H   0  0  0  0  0  0  0  0  0  0  0  0
  -54.8912  -24.9241   -9.1835 H   0  0  0  0  0  0  0  0  0  0  0  0
  -64.9510  -24.0601   -3.4834 H   0  0  0  0  0  0  0  0  0  0  0  0
  1  2  2  0
  2  3  1  0
  3  4  2  0
  3  7  1  0
  4  5  1  0
  5  6  2  0
  6  1  1  0
  7  8  1  0
  8  9  1  0
  8 10  1  0
 10 11  1  0
 10 12  1  0
 12 13  1  0
 13 14  1  0
 13 21  1  0
 14 15  1  0
 15 16  2  0
 16 17  1  0
 17 18  2  0
 18 19  1  0
 19 20  2  0
 20 15  1  0
 21 22  1  0
 22 23  1  0
 22 24  1  0
 22 25  2  0
 23 26  1  0
 24 27  1  0
 27 28  2  0
 28 29  1  0
 29 30  2  0
 30 31  1  0
 31 32  2  0
 32 27  1  0
 33 26  1  0
 33 34  1  0
 34 35  1  0
 35 36  1  0
 35 40  1  0
 35 41  1  0
 36 37  1  0
 36 39  1  0
 37 33  1  0
 37 38  1  0
 40 43  1  0
 41 42  3  0
 43 44  1  0
 43 47  1  0
 44 45  2  0
 45 46  1  0
 46 40  2  0
 47 48  2  0
 48 49  1  0
 49 50  2  0
 50 44  1  0
 50 51  1  0
  1 58  1  0
  2 59  1  0
  4 60  1  0
  5 61  1  0
  6 62  1  0
  7 63  1  0
  7 64  1  0
  8 52  1  0
  9 65  1  0
  9 66  1  0
  9 92  1  0
 10 53  1  0
 11 67  1  0
 12 68  1  0
 12 69  1  0
 13 54  1  0
 14 70  1  0
 14 71  1  0
 16 72  1  0
 17 73  1  0
 18 74  1  0
 19 75  1  0
 20 76  1  0
 21 77  1  0
 26 78  1  0
 26 79  1  0
 28 80  1  0
 29 81  1  0
 30 82  1  0
 31 83  1  0
 32 84  1  0
 33 55  1  0
 36 56  1  0
 37 57  1  0
 38 85  1  0
 39 86  1  0
 45 87  1  0
 46 88  1  0
 48 89  1  0
 51 90  1  0
 51 91  1  0
M  CHG  1   9   1
M  END
>  <LF dG>
-8.002

>  <LF VSscore>
-14.218

>  <LF Rank Score>
-15.953

>  <LF LE>
-0.157

>  <LF Structure Name>
C:\Users\Odara\AppData\Local\Temp\LeadFinder_12816_1\Ligand_1.sdf

>  <LF SDF id>
0

>  <LF Pose rank>
0

>  <LF version>
2001 1, 19 January 2019

>  <Favorite_cresset>
false

>  <MW_cresset>
714.7

>  <#Atoms_cresset>
51

>  <SlogP_cresset>
4

>  <TPSA_cresset>
225.1

>  <Flexibility_cresset>
17.1

>  <#RB_cresset>
18

>  <Rof5_cresset>
3

>  <Filename_cresset>
drag.59_302.sdf

>  <Confs_cresset>
0

>  <Poses_cresset>
0

$$$$
