5320315
  RxDock  02242113093D
librxdock.so/0.1.0
 23 25  0  0  0  0  0  0  0  0999 V2000
  -52.0325   -4.5846   14.6441 O   0  0  0  0  0  0
  -48.6627   -0.2076   14.6983 O   0  0  0  0  0  0
  -50.6475   -0.3613   16.5653 O   0  0  0  0  0  0
  -48.3534   -2.2132   12.8212 O   0  0  0  0  0  0
  -52.6609   -1.7402   17.4925 O   0  0  0  0  0  0
  -51.3796   -2.4702   15.6461 C   0  0  0  0  0  0
  -51.2211   -3.4796   14.6980 C   0  0  0  0  0  0
  -53.0485   -4.7039   15.5800 C   0  0  0  0  0  0
  -50.5234   -1.3666   15.6530 C   0  0  0  0  0  0
  -52.4624   -2.5890   16.6344 C   0  0  0  0  0  0
  -50.2026   -3.3906   13.7487 C   0  0  0  0  0  0
  -49.5053   -1.2805   14.7026 C   0  0  0  0  0  0
  -53.3056   -3.7975   16.5365 C   0  0  0  0  0  0
  -53.8635   -5.9260   15.4282 C   0  0  0  0  0  0
  -49.3451   -2.2900   13.7524 C   0  0  0  0  0  0
  -53.6579   -7.0167   16.2767 C   0  0  0  0  0  0
  -54.8440   -5.9970   14.4354 C   0  0  0  0  0  0
  -54.4278   -8.1711   16.1332 C   0  0  0  0  0  0
  -55.6140   -7.1513   14.2921 C   0  0  0  0  0  0
  -55.4058   -8.2384   15.1410 C   0  0  0  0  0  0
  -47.3791   -0.3917   15.2900 C   0  0  0  0  0  0
  -51.3971   -0.5247   17.1572 H   0  0  0  0  0  0
  -48.7599   -2.1785   11.9384 H   0  0  0  0  0  0
  1  7  1  0  0  0
  1  8  1  0  0  0
  2 12  1  0  0  0
  2 21  1  0  0  0
  3  9  1  0  0  0
  3 22  1  0  0  0
  4 15  1  0  0  0
  4 23  1  0  0  0
  5 10  2  0  0  0
  6  7  2  0  0  0
  6  9  1  0  0  0
  6 10  1  0  0  0
  7 11  1  0  0  0
  8 13  2  0  0  0
  8 14  1  0  0  0
  9 12  2  0  0  0
 10 13  1  0  0  0
 11 15  2  0  0  0
 12 15  1  0  0  0
 14 16  2  0  0  0
 14 17  1  0  0  0
 16 18  1  0  0  0
 17 19  2  0  0  0
 18 20  2  0  0  0
 19 20  1  0  0  0
M  END
>  <CHROM.0>
177.71816387,62.67893623,55.87562622

>  <CHROM.1>
100.38786332,-1.22082075,62.06989013,102.06438994,-51.73161840,-3.56561590
15.24099592,-2.60452782,0.65403134,0.71077825

>  <Name>
5320315

>  <PUBCHEM_ATOM_DEF_STEREO_COUNT>
0

>  <PUBCHEM_ATOM_UDEF_STEREO_COUNT>
0

>  <PUBCHEM_BOND_DEF_STEREO_COUNT>
0

>  <PUBCHEM_BOND_UDEF_STEREO_COUNT>
0

>  <PUBCHEM_CACTVS_TAUTO_COUNT>
12

>  <PUBCHEM_COMPONENT_COUNT>
1

>  <PUBCHEM_COMPOUND_CID>
5320315

>  <PUBCHEM_CONFORMER_DIVERSEORDER>
1
2

>  <PUBCHEM_CONFORMER_ID>
00512E7B00000001

>  <PUBCHEM_CONFORMER_RMSD>
0.6

>  <PUBCHEM_COORDINATE_TYPE>
2
5
10

>  <PUBCHEM_EFFECTIVE_ROTOR_COUNT>
2

>  <PUBCHEM_FEATURE_SELFOVERLAP>
40.625

>  <PUBCHEM_HEAVY_ATOM_COUNT>
21

>  <PUBCHEM_ISOTOPIC_ATOM_COUNT>
0

>  <PUBCHEM_MMFF94_ENERGY>
75.473

>  <PUBCHEM_MMFF94_PARTIAL_CHARGES>
30
1 -0.16
10 0.47
11 -0.15
12 0.08
13 -0.14
14 0.03
15 0.08
16 -0.15
17 -0.15
18 -0.15
19 -0.15
2 -0.36
20 -0.15
21 0.28
22 0.15
23 0.15
24 0.15
25 0.15
26 0.15
27 0.15
28 0.45
29 0.15
3 -0.53
30 0.45
4 -0.53
5 -0.57
6 0.09
7 0.08
8 0.05
9 0.08

>  <PUBCHEM_PHARMACOPHORE_FEATURES>
8
1 1 acceptor
1 2 acceptor
1 3 donor
1 4 donor
1 5 acceptor
6 1 6 7 8 10 13 rings
6 14 16 17 18 19 20 rings
6 6 7 9 11 12 15 rings

>  <PUBCHEM_SHAPE_FINGERPRINT>
10319926 262 18339623639079927362
10411042 1 17689153838918189787
10493431 412 18412550899190905579
10498660 4 18336259038155622404
10608611 8 18341890844582710312
10646746 165 18410291411290866772
11578080 2 16807560661564956135
11595378 159 17603851292036568784
12107183 9 17685765831707532056
12173636 292 18409724054157661710
12236239 1 17385443219831120436
12390115 104 18199200502985526313
12403259 415 18412259523903711936
12596602 18 16588026844156286080
12788726 201 16955089051946383770
12916748 109 18408608050066549664
13081056 2 18413107251663356708
13140716 1 18192439782443455073
13544592 145 18342466902818679814
14341114 176 18411986857957503992
14787075 74 18272365395410613289
14790565 3 18411707556044776401
15042514 8 18191310575201304571
15196674 1 18337952290330464676
18186145 218 18201441354958650840
19784866 170 18335424534979148177
200 152 16988561303619401118
20510252 161 18342457062362639976
20645477 56 18410292536303305356
20645477 70 17274831216770011254
21033648 29 18340193137957187080
21065198 57 18411697734118468002
21236236 1 18342175626547569519
21267235 1 18408613555934976822
21279426 13 18196936574442069094
221357 26 18131628967727941912
22224240 67 18410863166280868131
23175994 123 17346884463726178344
23227448 37 18341047531658640252
23402539 116 18341044211337930942
23559900 14 18343301483852294606
3004659 81 18335425609365050694
335352 9 18411419509941474878
350125 39 18409453600294457093
3545911 37 18413390938949086460
4214541 1 18411417306802742604
474 4 16879355726359951084
474229 33 18409449189436474875
495365 180 17346305034600225762
5104073 3 18189619332838080865
542803 24 17346600768087715024
59755656 215 18338238167506508630
633830 44 18200024032683160908
69090 78 18343298189095660934
77779 3 18412262839955658820
9709674 26 18341898523942401550

>  <PUBCHEM_SHAPE_MULTIPOLES>
402.82
11.67
2.31
0.72
5.74
0.44
-0.06
-3.53
-0.92
-1.26
0.03
-0.06
-0.08
0.71

>  <PUBCHEM_SHAPE_SELFOVERLAP>
895.866

>  <PUBCHEM_SHAPE_VOLUME>
214

>  <RI>
-3.80493e+08

>  <Rbt.Current_Directory>
/root/miniconda3/envs/rdock/share/rxdock-2013.1.1_148c5bd1-0/data/ligands/prepped_ligands/Oryxylin_A

>  <Rbt.Executable>
rbdock/0.1.0

>  <Rbt.Library>
librxdock.so/0.1.0

>  <Rbt.Parameter_File>
/root/miniconda3/envs/rdock/share/rxdock-2013.1.1_148c5bd1-0/data/scripts/dock.prm

>  <Rbt.Receptor>
def.prm

>  <SCORE>
-14.0165

>  <SCORE.INTER>
-15.7054

>  <SCORE.INTER.CONST>
1

>  <SCORE.INTER.POLAR>
-1.3445

>  <SCORE.INTER.REPUL>
0.172464

>  <SCORE.INTER.ROT>
2

>  <SCORE.INTER.VDW>
-19.3964

>  <SCORE.INTER.norm>
-0.747877

>  <SCORE.INTRA>
2.62243

>  <SCORE.INTRA.DIHEDRAL>
6.95149

>  <SCORE.INTRA.DIHEDRAL.0>
6.0475

>  <SCORE.INTRA.POLAR>
0.0243237

>  <SCORE.INTRA.POLAR.0>
-0.0243237

>  <SCORE.INTRA.REPUL>
0

>  <SCORE.INTRA.REPUL.0>
0

>  <SCORE.INTRA.VDW>
-0.936015

>  <SCORE.INTRA.VDW.0>
0.255107

>  <SCORE.INTRA.norm>
0.124878

>  <SCORE.RESTR>
0.0465774

>  <SCORE.RESTR.CAVITY>
0.0465774

>  <SCORE.RESTR.norm>
0.00221797

>  <SCORE.SYSTEM>
-0.980096

>  <SCORE.SYSTEM.CONST>
0

>  <SCORE.SYSTEM.DIHEDRAL>
0.0952164

>  <SCORE.SYSTEM.VDW>
-1.0277

>  <SCORE.SYSTEM.norm>
-0.0466712

>  <SCORE.heavy>
21

>  <SCORE.norm>
-0.667452

$$$$
5320315
  RxDock  02242113093D
librxdock.so/0.1.0
 23 25  0  0  0  0  0  0  0  0999 V2000
  -50.9056   -1.1115   13.7536 O   0  0  0  0  0  0
  -53.0375   -4.7528   17.3189 O   0  0  0  0  0  0
  -51.0857   -3.0534   18.1855 O   0  0  0  0  0  0
  -53.9243   -4.6425   14.7030 O   0  0  0  0  0  0
  -49.4572   -1.1107   17.5616 O   0  0  0  0  0  0
  -50.9550   -2.0498   15.9936 C   0  0  0  0  0  0
  -51.4043   -1.9971   14.6752 C   0  0  0  0  0  0
  -49.9177   -0.2259   14.1563 C   0  0  0  0  0  0
  -51.4991   -2.9736   16.8890 C   0  0  0  0  0  0
  -49.9004   -1.1182   16.4215 C   0  0  0  0  0  0
  -52.4029   -2.8705   14.2435 C   0  0  0  0  0  0
  -52.4982   -3.8456   16.4545 C   0  0  0  0  0  0
  -49.3993   -0.1833   15.3940 C   0  0  0  0  0  0
  -49.4494    0.6776   13.0861 C   0  0  0  0  0  0
  -52.9491   -3.7944   15.1347 C   0  0  0  0  0  0
  -50.2511    1.7415   12.6649 C   0  0  0  0  0  0
  -48.2025    0.4727   12.4900 C   0  0  0  0  0  0
  -49.8087    2.5949   11.6540 C   0  0  0  0  0  0
  -47.7601    1.3263   11.4792 C   0  0  0  0  0  0
  -48.5633    2.3873   11.0612 C   0  0  0  0  0  0
  -52.7782   -6.1295   17.0559 C   0  0  0  0  0  0
  -51.5097   -3.7990   18.6363 H   0  0  0  0  0  0
  -54.1484   -4.4144   13.7846 H   0  0  0  0  0  0
  1  7  1  0  0  0
  1  8  1  0  0  0
  2 12  1  0  0  0
  2 21  1  0  0  0
  3  9  1  0  0  0
  3 22  1  0  0  0
  4 15  1  0  0  0
  4 23  1  0  0  0
  5 10  2  0  0  0
  6  7  2  0  0  0
  6  9  1  0  0  0
  6 10  1  0  0  0
  7 11  1  0  0  0
  8 13  2  0  0  0
  8 14  1  0  0  0
  9 12  2  0  0  0
 10 13  1  0  0  0
 11 15  2  0  0  0
 12 15  1  0  0  0
 14 16  2  0  0  0
 14 17  1  0  0  0
 16 18  1  0  0  0
 17 19  2  0  0  0
 18 20  2  0  0  0
 19 20  1  0  0  0
M  END
>  <CHROM.0>
-60.40386893,178.13634056,57.04470243

>  <CHROM.1>
-113.17080279,-174.79447198,-4.08062762,74.26912811,-50.83718312,-1.57618818
14.86983363,0.91424065,-0.77035624,-1.14296356

>  <Name>
5320315

>  <PUBCHEM_ATOM_DEF_STEREO_COUNT>
0

>  <PUBCHEM_ATOM_UDEF_STEREO_COUNT>
0

>  <PUBCHEM_BOND_DEF_STEREO_COUNT>
0

>  <PUBCHEM_BOND_UDEF_STEREO_COUNT>
0

>  <PUBCHEM_CACTVS_TAUTO_COUNT>
12

>  <PUBCHEM_COMPONENT_COUNT>
1

>  <PUBCHEM_COMPOUND_CID>
5320315

>  <PUBCHEM_CONFORMER_DIVERSEORDER>
1
2

>  <PUBCHEM_CONFORMER_ID>
00512E7B00000001

>  <PUBCHEM_CONFORMER_RMSD>
0.6

>  <PUBCHEM_COORDINATE_TYPE>
2
5
10

>  <PUBCHEM_EFFECTIVE_ROTOR_COUNT>
2

>  <PUBCHEM_FEATURE_SELFOVERLAP>
40.625

>  <PUBCHEM_HEAVY_ATOM_COUNT>
21

>  <PUBCHEM_ISOTOPIC_ATOM_COUNT>
0

>  <PUBCHEM_MMFF94_ENERGY>
75.473

>  <PUBCHEM_MMFF94_PARTIAL_CHARGES>
30
1 -0.16
10 0.47
11 -0.15
12 0.08
13 -0.14
14 0.03
15 0.08
16 -0.15
17 -0.15
18 -0.15
19 -0.15
2 -0.36
20 -0.15
21 0.28
22 0.15
23 0.15
24 0.15
25 0.15
26 0.15
27 0.15
28 0.45
29 0.15
3 -0.53
30 0.45
4 -0.53
5 -0.57
6 0.09
7 0.08
8 0.05
9 0.08

>  <PUBCHEM_PHARMACOPHORE_FEATURES>
8
1 1 acceptor
1 2 acceptor
1 3 donor
1 4 donor
1 5 acceptor
6 1 6 7 8 10 13 rings
6 14 16 17 18 19 20 rings
6 6 7 9 11 12 15 rings

>  <PUBCHEM_SHAPE_FINGERPRINT>
10319926 262 18339623639079927362
10411042 1 17689153838918189787
10493431 412 18412550899190905579
10498660 4 18336259038155622404
10608611 8 18341890844582710312
10646746 165 18410291411290866772
11578080 2 16807560661564956135
11595378 159 17603851292036568784
12107183 9 17685765831707532056
12173636 292 18409724054157661710
12236239 1 17385443219831120436
12390115 104 18199200502985526313
12403259 415 18412259523903711936
12596602 18 16588026844156286080
12788726 201 16955089051946383770
12916748 109 18408608050066549664
13081056 2 18413107251663356708
13140716 1 18192439782443455073
13544592 145 18342466902818679814
14341114 176 18411986857957503992
14787075 74 18272365395410613289
14790565 3 18411707556044776401
15042514 8 18191310575201304571
15196674 1 18337952290330464676
18186145 218 18201441354958650840
19784866 170 18335424534979148177
200 152 16988561303619401118
20510252 161 18342457062362639976
20645477 56 18410292536303305356
20645477 70 17274831216770011254
21033648 29 18340193137957187080
21065198 57 18411697734118468002
21236236 1 18342175626547569519
21267235 1 18408613555934976822
21279426 13 18196936574442069094
221357 26 18131628967727941912
22224240 67 18410863166280868131
23175994 123 17346884463726178344
23227448 37 18341047531658640252
23402539 116 18341044211337930942
23559900 14 18343301483852294606
3004659 81 18335425609365050694
335352 9 18411419509941474878
350125 39 18409453600294457093
3545911 37 18413390938949086460
4214541 1 18411417306802742604
474 4 16879355726359951084
474229 33 18409449189436474875
495365 180 17346305034600225762
5104073 3 18189619332838080865
542803 24 17346600768087715024
59755656 215 18338238167506508630
633830 44 18200024032683160908
69090 78 18343298189095660934
77779 3 18412262839955658820
9709674 26 18341898523942401550

>  <PUBCHEM_SHAPE_MULTIPOLES>
402.82
11.67
2.31
0.72
5.74
0.44
-0.06
-3.53
-0.92
-1.26
0.03
-0.06
-0.08
0.71

>  <PUBCHEM_SHAPE_SELFOVERLAP>
895.866

>  <PUBCHEM_SHAPE_VOLUME>
214

>  <RI>
-3.80493e+08

>  <Rbt.Current_Directory>
/root/miniconda3/envs/rdock/share/rxdock-2013.1.1_148c5bd1-0/data/ligands/prepped_ligands/Oryxylin_A

>  <Rbt.Executable>
rbdock/0.1.0

>  <Rbt.Library>
librxdock.so/0.1.0

>  <Rbt.Parameter_File>
/root/miniconda3/envs/rdock/share/rxdock-2013.1.1_148c5bd1-0/data/scripts/dock.prm

>  <Rbt.Receptor>
def.prm

>  <SCORE>
-14.7492

>  <SCORE.INTER>
-14.5602

>  <SCORE.INTER.CONST>
1

>  <SCORE.INTER.POLAR>
0

>  <SCORE.INTER.REPUL>
0.023188

>  <SCORE.INTER.ROT>
2

>  <SCORE.INTER.VDW>
-22.0761

>  <SCORE.INTER.norm>
-0.693343

>  <SCORE.INTRA>
0.880468

>  <SCORE.INTRA.DIHEDRAL>
2.49847

>  <SCORE.INTRA.DIHEDRAL.0>
6.0475

>  <SCORE.INTRA.POLAR>
-0.0687841

>  <SCORE.INTRA.POLAR.0>
-0.0243237

>  <SCORE.INTRA.REPUL>
0

>  <SCORE.INTRA.REPUL.0>
0

>  <SCORE.INTRA.VDW>
-0.134903

>  <SCORE.INTRA.VDW.0>
0.255107

>  <SCORE.INTRA.norm>
0.041927

>  <SCORE.RESTR>
0

>  <SCORE.RESTR.CAVITY>
0

>  <SCORE.RESTR.norm>
0

>  <SCORE.SYSTEM>
-1.06945

>  <SCORE.SYSTEM.CONST>
0

>  <SCORE.SYSTEM.DIHEDRAL>
0.0419342

>  <SCORE.SYSTEM.VDW>
-1.09042

>  <SCORE.SYSTEM.norm>
-0.0509262

>  <SCORE.heavy>
21

>  <SCORE.norm>
-0.702342

$$$$
5320315
  RxDock  02242113093D
librxdock.so/0.1.0
 23 25  0  0  0  0  0  0  0  0999 V2000
  -49.7985   -1.5305   13.5532 O   0  0  0  0  0  0
  -49.7120   -6.2230   16.4667 O   0  0  0  0  0  0
  -47.5484   -4.5635   16.5835 O   0  0  0  0  0  0
  -51.9014   -5.5555   14.9167 O   0  0  0  0  0  0
  -46.4749   -2.3270   15.7708 O   0  0  0  0  0  0
  -48.6252   -3.0167   15.0747 C   0  0  0  0  0  0
  -49.7306   -2.6833   14.2940 C   0  0  0  0  0  0
  -48.7225   -0.6569   13.5913 C   0  0  0  0  0  0
  -48.6110   -4.2052   15.8084 C   0  0  0  0  0  0
  -47.4782   -2.0967   15.1099 C   0  0  0  0  0  0
  -50.8312   -3.5391   14.2422 C   0  0  0  0  0  0
  -49.7135   -5.0590   15.7551 C   0  0  0  0  0  0
  -47.6012   -0.8690   14.2986 C   0  0  0  0  0  0
  -48.8977    0.5476   12.7550 C   0  0  0  0  0  0
  -50.8211   -4.7270   14.9738 C   0  0  0  0  0  0
  -50.0633    1.3108   12.8589 C   0  0  0  0  0  0
  -47.8986    0.9295   11.8561 C   0  0  0  0  0  0
  -50.2287    2.4485   12.0689 C   0  0  0  0  0  0
  -48.0640    2.0674   11.0663 C   0  0  0  0  0  0
  -49.2291    2.8268   11.1727 C   0  0  0  0  0  0
  -49.9915   -6.1283   17.8612 C   0  0  0  0  0  0
  -46.9065   -3.8400   16.6426 H   0  0  0  0  0  0
  -51.6185   -6.4507   15.1705 H   0  0  0  0  0  0
  1  7  1  0  0  0
  1  8  1  0  0  0
  2 12  1  0  0  0
  2 21  1  0  0  0
  3  9  1  0  0  0
  3 22  1  0  0  0
  4 15  1  0  0  0
  4 23  1  0  0  0
  5 10  2  0  0  0
  6  7  2  0  0  0
  6  9  1  0  0  0
  6 10  1  0  0  0
  7 11  1  0  0  0
  8 13  2  0  0  0
  8 14  1  0  0  0
  9 12  2  0  0  0
 10 13  1  0  0  0
 11 15  2  0  0  0
 12 15  1  0  0  0
 14 16  2  0  0  0
 14 17  1  0  0  0
 16 18  1  0  0  0
 17 19  2  0  0  0
 18 20  2  0  0  0
 19 20  1  0  0  0
M  END
>  <CHROM.0>
179.48676597,179.10867777,-59.22018680

>  <CHROM.1>
78.76061672,8.17190113,158.10309177,50.23461887,-49.14608858,-2.18570170
14.37671118,1.47073927,-0.34729809,-0.57833931

>  <Name>
5320315

>  <PUBCHEM_ATOM_DEF_STEREO_COUNT>
0

>  <PUBCHEM_ATOM_UDEF_STEREO_COUNT>
0

>  <PUBCHEM_BOND_DEF_STEREO_COUNT>
0

>  <PUBCHEM_BOND_UDEF_STEREO_COUNT>
0

>  <PUBCHEM_CACTVS_TAUTO_COUNT>
12

>  <PUBCHEM_COMPONENT_COUNT>
1

>  <PUBCHEM_COMPOUND_CID>
5320315

>  <PUBCHEM_CONFORMER_DIVERSEORDER>
1
2

>  <PUBCHEM_CONFORMER_ID>
00512E7B00000001

>  <PUBCHEM_CONFORMER_RMSD>
0.6

>  <PUBCHEM_COORDINATE_TYPE>
2
5
10

>  <PUBCHEM_EFFECTIVE_ROTOR_COUNT>
2

>  <PUBCHEM_FEATURE_SELFOVERLAP>
40.625

>  <PUBCHEM_HEAVY_ATOM_COUNT>
21

>  <PUBCHEM_ISOTOPIC_ATOM_COUNT>
0

>  <PUBCHEM_MMFF94_ENERGY>
75.473

>  <PUBCHEM_MMFF94_PARTIAL_CHARGES>
30
1 -0.16
10 0.47
11 -0.15
12 0.08
13 -0.14
14 0.03
15 0.08
16 -0.15
17 -0.15
18 -0.15
19 -0.15
2 -0.36
20 -0.15
21 0.28
22 0.15
23 0.15
24 0.15
25 0.15
26 0.15
27 0.15
28 0.45
29 0.15
3 -0.53
30 0.45
4 -0.53
5 -0.57
6 0.09
7 0.08
8 0.05
9 0.08

>  <PUBCHEM_PHARMACOPHORE_FEATURES>
8
1 1 acceptor
1 2 acceptor
1 3 donor
1 4 donor
1 5 acceptor
6 1 6 7 8 10 13 rings
6 14 16 17 18 19 20 rings
6 6 7 9 11 12 15 rings

>  <PUBCHEM_SHAPE_FINGERPRINT>
10319926 262 18339623639079927362
10411042 1 17689153838918189787
10493431 412 18412550899190905579
10498660 4 18336259038155622404
10608611 8 18341890844582710312
10646746 165 18410291411290866772
11578080 2 16807560661564956135
11595378 159 17603851292036568784
12107183 9 17685765831707532056
12173636 292 18409724054157661710
12236239 1 17385443219831120436
12390115 104 18199200502985526313
12403259 415 18412259523903711936
12596602 18 16588026844156286080
12788726 201 16955089051946383770
12916748 109 18408608050066549664
13081056 2 18413107251663356708
13140716 1 18192439782443455073
13544592 145 18342466902818679814
14341114 176 18411986857957503992
14787075 74 18272365395410613289
14790565 3 18411707556044776401
15042514 8 18191310575201304571
15196674 1 18337952290330464676
18186145 218 18201441354958650840
19784866 170 18335424534979148177
200 152 16988561303619401118
20510252 161 18342457062362639976
20645477 56 18410292536303305356
20645477 70 17274831216770011254
21033648 29 18340193137957187080
21065198 57 18411697734118468002
21236236 1 18342175626547569519
21267235 1 18408613555934976822
21279426 13 18196936574442069094
221357 26 18131628967727941912
22224240 67 18410863166280868131
23175994 123 17346884463726178344
23227448 37 18341047531658640252
23402539 116 18341044211337930942
23559900 14 18343301483852294606
3004659 81 18335425609365050694
335352 9 18411419509941474878
350125 39 18409453600294457093
3545911 37 18413390938949086460
4214541 1 18411417306802742604
474 4 16879355726359951084
474229 33 18409449189436474875
495365 180 17346305034600225762
5104073 3 18189619332838080865
542803 24 17346600768087715024
59755656 215 18338238167506508630
633830 44 18200024032683160908
69090 78 18343298189095660934
77779 3 18412262839955658820
9709674 26 18341898523942401550

>  <PUBCHEM_SHAPE_MULTIPOLES>
402.82
11.67
2.31
0.72
5.74
0.44
-0.06
-3.53
-0.92
-1.26
0.03
-0.06
-0.08
0.71

>  <PUBCHEM_SHAPE_SELFOVERLAP>
895.866

>  <PUBCHEM_SHAPE_VOLUME>
214

>  <RI>
-3.80493e+08

>  <Rbt.Current_Directory>
/root/miniconda3/envs/rdock/share/rxdock-2013.1.1_148c5bd1-0/data/ligands/prepped_ligands/Oryxylin_A

>  <Rbt.Executable>
rbdock/0.1.0

>  <Rbt.Library>
librxdock.so/0.1.0

>  <Rbt.Parameter_File>
/root/miniconda3/envs/rdock/share/rxdock-2013.1.1_148c5bd1-0/data/scripts/dock.prm

>  <Rbt.Receptor>
def.prm

>  <SCORE>
-17.1704

>  <SCORE.INTER>
-16.5824

>  <SCORE.INTER.CONST>
1

>  <SCORE.INTER.POLAR>
-0.848528

>  <SCORE.INTER.REPUL>
0

>  <SCORE.INTER.ROT>
2

>  <SCORE.INTER.VDW>
-21.0975

>  <SCORE.INTER.norm>
-0.78964

>  <SCORE.INTRA>
0.475913

>  <SCORE.INTRA.DIHEDRAL>
2.13233

>  <SCORE.INTRA.DIHEDRAL.0>
6.0475

>  <SCORE.INTRA.POLAR>
-0.0147016

>  <SCORE.INTRA.POLAR.0>
-0.0243237

>  <SCORE.INTRA.REPUL>
0

>  <SCORE.INTRA.REPUL.0>
0

>  <SCORE.INTRA.VDW>
-0.540266

>  <SCORE.INTRA.VDW.0>
0.255107

>  <SCORE.INTRA.norm>
0.0226625

>  <SCORE.RESTR>
0

>  <SCORE.RESTR.CAVITY>
0

>  <SCORE.RESTR.norm>
0

>  <SCORE.SYSTEM>
-1.06388

>  <SCORE.SYSTEM.CONST>
0

>  <SCORE.SYSTEM.DIHEDRAL>
0.0060143

>  <SCORE.SYSTEM.POLAR>
-0.00275247

>  <SCORE.SYSTEM.VDW>
-1.05753

>  <SCORE.SYSTEM.norm>
-0.0506609

>  <SCORE.heavy>
21

>  <SCORE.norm>
-0.817639

$$$$
5320315
  RxDock  02242113093D
librxdock.so/0.1.0
 23 25  0  0  0  0  0  0  0  0999 V2000
  -52.9099   -4.1713   14.9613 O   0  0  0  0  0  0
  -49.8678    0.2697   16.2019 O   0  0  0  0  0  0
  -50.9487   -1.1931   18.2368 O   0  0  0  0  0  0
  -50.2933   -0.4692   13.5723 O   0  0  0  0  0  0
  -52.4071   -3.2545   18.8990 O   0  0  0  0  0  0
  -51.9493   -2.7085   16.6459 C   0  0  0  0  0  0
  -52.1621   -3.0781   15.3189 C   0  0  0  0  0  0
  -53.4703   -4.9452   15.9661 C   0  0  0  0  0  0
  -51.1790   -1.5840   16.9513 C   0  0  0  0  0  0
  -52.5503   -3.5218   17.7139 C   0  0  0  0  0  0
  -51.6042   -2.3230   14.2869 C   0  0  0  0  0  0
  -50.6219   -0.8310   15.9170 C   0  0  0  0  0  0
  -53.3429   -4.6890   17.2777 C   0  0  0  0  0  0
  -54.2582   -6.0920   15.4711 C   0  0  0  0  0  0
  -50.8340   -1.1993   14.5878 C   0  0  0  0  0  0
  -54.2997   -7.2825   16.2011 C   0  0  0  0  0  0
  -54.9658   -5.9917   14.2705 C   0  0  0  0  0  0
  -55.0440   -8.3657   15.7336 C   0  0  0  0  0  0
  -55.7101   -7.0749   13.8031 C   0  0  0  0  0  0
  -55.7492   -8.2619   14.5346 C   0  0  0  0  0  0
  -48.6509    0.0533   16.9117 C   0  0  0  0  0  0
  -51.5008   -1.6968   18.8535 H   0  0  0  0  0  0
  -49.8678    0.3193   13.9506 H   0  0  0  0  0  0
  1  7  1  0  0  0
  1  8  1  0  0  0
  2 12  1  0  0  0
  2 21  1  0  0  0
  3  9  1  0  0  0
  3 22  1  0  0  0
  4 15  1  0  0  0
  4 23  1  0  0  0
  5 10  2  0  0  0
  6  7  2  0  0  0
  6  9  1  0  0  0
  6 10  1  0  0  0
  7 11  1  0  0  0
  8 13  2  0  0  0
  8 14  1  0  0  0
  9 12  2  0  0  0
 10 13  1  0  0  0
 11 15  2  0  0  0
 12 15  1  0  0  0
 14 16  2  0  0  0
 14 17  1  0  0  0
 16 18  1  0  0  0
 17 19  2  0  0  0
 18 20  2  0  0  0
 19 20  1  0  0  0
M  END
>  <CHROM.0>
63.01626946,-61.40040283,-176.26165216

>  <CHROM.1>
64.05222236,-9.55872417,174.40224698,146.94054297,-52.42128495,-3.52532303
15.91070942,-3.07785272,0.94561457,1.65331859

>  <Name>
5320315

>  <PUBCHEM_ATOM_DEF_STEREO_COUNT>
0

>  <PUBCHEM_ATOM_UDEF_STEREO_COUNT>
0

>  <PUBCHEM_BOND_DEF_STEREO_COUNT>
0

>  <PUBCHEM_BOND_UDEF_STEREO_COUNT>
0

>  <PUBCHEM_CACTVS_TAUTO_COUNT>
12

>  <PUBCHEM_COMPONENT_COUNT>
1

>  <PUBCHEM_COMPOUND_CID>
5320315

>  <PUBCHEM_CONFORMER_DIVERSEORDER>
1
2

>  <PUBCHEM_CONFORMER_ID>
00512E7B00000001

>  <PUBCHEM_CONFORMER_RMSD>
0.6

>  <PUBCHEM_COORDINATE_TYPE>
2
5
10

>  <PUBCHEM_EFFECTIVE_ROTOR_COUNT>
2

>  <PUBCHEM_FEATURE_SELFOVERLAP>
40.625

>  <PUBCHEM_HEAVY_ATOM_COUNT>
21

>  <PUBCHEM_ISOTOPIC_ATOM_COUNT>
0

>  <PUBCHEM_MMFF94_ENERGY>
75.473

>  <PUBCHEM_MMFF94_PARTIAL_CHARGES>
30
1 -0.16
10 0.47
11 -0.15
12 0.08
13 -0.14
14 0.03
15 0.08
16 -0.15
17 -0.15
18 -0.15
19 -0.15
2 -0.36
20 -0.15
21 0.28
22 0.15
23 0.15
24 0.15
25 0.15
26 0.15
27 0.15
28 0.45
29 0.15
3 -0.53
30 0.45
4 -0.53
5 -0.57
6 0.09
7 0.08
8 0.05
9 0.08

>  <PUBCHEM_PHARMACOPHORE_FEATURES>
8
1 1 acceptor
1 2 acceptor
1 3 donor
1 4 donor
1 5 acceptor
6 1 6 7 8 10 13 rings
6 14 16 17 18 19 20 rings
6 6 7 9 11 12 15 rings

>  <PUBCHEM_SHAPE_FINGERPRINT>
10319926 262 18339623639079927362
10411042 1 17689153838918189787
10493431 412 18412550899190905579
10498660 4 18336259038155622404
10608611 8 18341890844582710312
10646746 165 18410291411290866772
11578080 2 16807560661564956135
11595378 159 17603851292036568784
12107183 9 17685765831707532056
12173636 292 18409724054157661710
12236239 1 17385443219831120436
12390115 104 18199200502985526313
12403259 415 18412259523903711936
12596602 18 16588026844156286080
12788726 201 16955089051946383770
12916748 109 18408608050066549664
13081056 2 18413107251663356708
13140716 1 18192439782443455073
13544592 145 18342466902818679814
14341114 176 18411986857957503992
14787075 74 18272365395410613289
14790565 3 18411707556044776401
15042514 8 18191310575201304571
15196674 1 18337952290330464676
18186145 218 18201441354958650840
19784866 170 18335424534979148177
200 152 16988561303619401118
20510252 161 18342457062362639976
20645477 56 18410292536303305356
20645477 70 17274831216770011254
21033648 29 18340193137957187080
21065198 57 18411697734118468002
21236236 1 18342175626547569519
21267235 1 18408613555934976822
21279426 13 18196936574442069094
221357 26 18131628967727941912
22224240 67 18410863166280868131
23175994 123 17346884463726178344
23227448 37 18341047531658640252
23402539 116 18341044211337930942
23559900 14 18343301483852294606
3004659 81 18335425609365050694
335352 9 18411419509941474878
350125 39 18409453600294457093
3545911 37 18413390938949086460
4214541 1 18411417306802742604
474 4 16879355726359951084
474229 33 18409449189436474875
495365 180 17346305034600225762
5104073 3 18189619332838080865
542803 24 17346600768087715024
59755656 215 18338238167506508630
633830 44 18200024032683160908
69090 78 18343298189095660934
77779 3 18412262839955658820
9709674 26 18341898523942401550

>  <PUBCHEM_SHAPE_MULTIPOLES>
402.82
11.67
2.31
0.72
5.74
0.44
-0.06
-3.53
-0.92
-1.26
0.03
-0.06
-0.08
0.71

>  <PUBCHEM_SHAPE_SELFOVERLAP>
895.866

>  <PUBCHEM_SHAPE_VOLUME>
214

>  <RI>
-3.80493e+08

>  <Rbt.Current_Directory>
/root/miniconda3/envs/rdock/share/rxdock-2013.1.1_148c5bd1-0/data/ligands/prepped_ligands/Oryxylin_A

>  <Rbt.Executable>
rbdock/0.1.0

>  <Rbt.Library>
librxdock.so/0.1.0

>  <Rbt.Parameter_File>
/root/miniconda3/envs/rdock/share/rxdock-2013.1.1_148c5bd1-0/data/scripts/dock.prm

>  <Rbt.Receptor>
def.prm

>  <SCORE>
-17.9328

>  <SCORE.INTER>
-16.7907

>  <SCORE.INTER.CONST>
1

>  <SCORE.INTER.POLAR>
-1.25944

>  <SCORE.INTER.REPUL>
0

>  <SCORE.INTER.ROT>
2

>  <SCORE.INTER.VDW>
-19.9085

>  <SCORE.INTER.norm>
-0.799555

>  <SCORE.INTRA>
-0.0909966

>  <SCORE.INTRA.DIHEDRAL>
-0.525849

>  <SCORE.INTRA.DIHEDRAL.0>
6.0475

>  <SCORE.INTRA.POLAR>
-0.0930963

>  <SCORE.INTRA.POLAR.0>
-0.0243237

>  <SCORE.INTRA.REPUL>
0

>  <SCORE.INTRA.REPUL.0>
0

>  <SCORE.INTRA.VDW>
0.488455

>  <SCORE.INTRA.VDW.0>
0.255107

>  <SCORE.INTRA.norm>
-0.00433317

>  <SCORE.RESTR>
0

>  <SCORE.RESTR.CAVITY>
0

>  <SCORE.RESTR.norm>
0

>  <SCORE.SYSTEM>
-1.05117

>  <SCORE.SYSTEM.CONST>
0

>  <SCORE.SYSTEM.DIHEDRAL>
0.0613956

>  <SCORE.SYSTEM.POLAR>
-0.0100588

>  <SCORE.SYSTEM.VDW>
-1.04767

>  <SCORE.SYSTEM.norm>
-0.0500556

>  <SCORE.heavy>
21

>  <SCORE.norm>
-0.853944

$$$$
5320315
  RxDock  02242113093D
librxdock.so/0.1.0
 23 25  0  0  0  0  0  0  0  0999 V2000
  -50.7711   -3.9423   15.3056 O   0  0  0  0  0  0
  -45.8436   -1.4755   15.6943 O   0  0  0  0  0  0
  -46.4623   -3.4612   17.4616 O   0  0  0  0  0  0
  -47.6573   -0.7232   13.7486 O   0  0  0  0  0  0
  -48.2457   -5.1991   18.2453 O   0  0  0  0  0  0
  -48.6238   -3.7423   16.4235 C   0  0  0  0  0  0
  -49.5361   -3.3603   15.4414 C   0  0  0  0  0  0
  -51.1209   -4.9603   16.1795 C   0  0  0  0  0  0
  -47.3799   -3.1135   16.5153 C   0  0  0  0  0  0
  -48.9955   -4.8153   17.3581 C   0  0  0  0  0  0
  -49.2088   -2.3443   14.5431 C   0  0  0  0  0  0
  -47.0550   -2.0979   15.6151 C   0  0  0  0  0  0
  -50.3332   -5.4115   17.1686 C   0  0  0  0  0  0
  -52.4712   -5.5117   15.9484 C   0  0  0  0  0  0
  -47.9672   -1.7139   14.6312 C   0  0  0  0  0  0
  -52.8743   -6.6786   16.6024 C   0  0  0  0  0  0
  -53.3519   -4.8689   15.0746 C   0  0  0  0  0  0
  -54.1499   -7.1993   16.3841 C   0  0  0  0  0  0
  -54.6275   -5.3897   14.8565 C   0  0  0  0  0  0
  -55.0264   -6.5549   15.5112 C   0  0  0  0  0  0
  -44.8044   -1.9750   14.8562 C   0  0  0  0  0  0
  -46.5482   -4.3974   17.6962 H   0  0  0  0  0  0
  -46.8177   -0.9486   13.3127 H   0  0  0  0  0  0
  1  7  1  0  0  0
  1  8  1  0  0  0
  2 12  1  0  0  0
  2 21  1  0  0  0
  3  9  1  0  0  0
  3 22  1  0  0  0
  4 15  1  0  0  0
  4 23  1  0  0  0
  5 10  2  0  0  0
  6  7  2  0  0  0
  6  9  1  0  0  0
  6 10  1  0  0  0
  7 11  1  0  0  0
  8 13  2  0  0  0
  8 14  1  0  0  0
  9 12  2  0  0  0
 10 13  1  0  0  0
 11 15  2  0  0  0
 12 15  1  0  0  0
 14 16  2  0  0  0
 14 17  1  0  0  0
 16 18  1  0  0  0
 17 19  2  0  0  0
 18 20  2  0  0  0
 19 20  1  0  0  0
M  END
>  <CHROM.0>
-59.61339267,-63.75196274,57.86065489

>  <CHROM.1>
94.96439785,30.05433430,-125.44870839,169.56609830,-49.68833759,-3.95589445
15.88122815,2.76839692,0.36291848,2.31869635

>  <Name>
5320315

>  <PUBCHEM_ATOM_DEF_STEREO_COUNT>
0

>  <PUBCHEM_ATOM_UDEF_STEREO_COUNT>
0

>  <PUBCHEM_BOND_DEF_STEREO_COUNT>
0

>  <PUBCHEM_BOND_UDEF_STEREO_COUNT>
0

>  <PUBCHEM_CACTVS_TAUTO_COUNT>
12

>  <PUBCHEM_COMPONENT_COUNT>
1

>  <PUBCHEM_COMPOUND_CID>
5320315

>  <PUBCHEM_CONFORMER_DIVERSEORDER>
1
2

>  <PUBCHEM_CONFORMER_ID>
00512E7B00000001

>  <PUBCHEM_CONFORMER_RMSD>
0.6

>  <PUBCHEM_COORDINATE_TYPE>
2
5
10

>  <PUBCHEM_EFFECTIVE_ROTOR_COUNT>
2

>  <PUBCHEM_FEATURE_SELFOVERLAP>
40.625

>  <PUBCHEM_HEAVY_ATOM_COUNT>
21

>  <PUBCHEM_ISOTOPIC_ATOM_COUNT>
0

>  <PUBCHEM_MMFF94_ENERGY>
75.473

>  <PUBCHEM_MMFF94_PARTIAL_CHARGES>
30
1 -0.16
10 0.47
11 -0.15
12 0.08
13 -0.14
14 0.03
15 0.08
16 -0.15
17 -0.15
18 -0.15
19 -0.15
2 -0.36
20 -0.15
21 0.28
22 0.15
23 0.15
24 0.15
25 0.15
26 0.15
27 0.15
28 0.45
29 0.15
3 -0.53
30 0.45
4 -0.53
5 -0.57
6 0.09
7 0.08
8 0.05
9 0.08

>  <PUBCHEM_PHARMACOPHORE_FEATURES>
8
1 1 acceptor
1 2 acceptor
1 3 donor
1 4 donor
1 5 acceptor
6 1 6 7 8 10 13 rings
6 14 16 17 18 19 20 rings
6 6 7 9 11 12 15 rings

>  <PUBCHEM_SHAPE_FINGERPRINT>
10319926 262 18339623639079927362
10411042 1 17689153838918189787
10493431 412 18412550899190905579
10498660 4 18336259038155622404
10608611 8 18341890844582710312
10646746 165 18410291411290866772
11578080 2 16807560661564956135
11595378 159 17603851292036568784
12107183 9 17685765831707532056
12173636 292 18409724054157661710
12236239 1 17385443219831120436
12390115 104 18199200502985526313
12403259 415 18412259523903711936
12596602 18 16588026844156286080
12788726 201 16955089051946383770
12916748 109 18408608050066549664
13081056 2 18413107251663356708
13140716 1 18192439782443455073
13544592 145 18342466902818679814
14341114 176 18411986857957503992
14787075 74 18272365395410613289
14790565 3 18411707556044776401
15042514 8 18191310575201304571
15196674 1 18337952290330464676
18186145 218 18201441354958650840
19784866 170 18335424534979148177
200 152 16988561303619401118
20510252 161 18342457062362639976
20645477 56 18410292536303305356
20645477 70 17274831216770011254
21033648 29 18340193137957187080
21065198 57 18411697734118468002
21236236 1 18342175626547569519
21267235 1 18408613555934976822
21279426 13 18196936574442069094
221357 26 18131628967727941912
22224240 67 18410863166280868131
23175994 123 17346884463726178344
23227448 37 18341047531658640252
23402539 116 18341044211337930942
23559900 14 18343301483852294606
3004659 81 18335425609365050694
335352 9 18411419509941474878
350125 39 18409453600294457093
3545911 37 18413390938949086460
4214541 1 18411417306802742604
474 4 16879355726359951084
474229 33 18409449189436474875
495365 180 17346305034600225762
5104073 3 18189619332838080865
542803 24 17346600768087715024
59755656 215 18338238167506508630
633830 44 18200024032683160908
69090 78 18343298189095660934
77779 3 18412262839955658820
9709674 26 18341898523942401550

>  <PUBCHEM_SHAPE_MULTIPOLES>
402.82
11.67
2.31
0.72
5.74
0.44
-0.06
-3.53
-0.92
-1.26
0.03
-0.06
-0.08
0.71

>  <PUBCHEM_SHAPE_SELFOVERLAP>
895.866

>  <PUBCHEM_SHAPE_VOLUME>
214

>  <RI>
-3.80493e+08

>  <Rbt.Current_Directory>
/root/miniconda3/envs/rdock/share/rxdock-2013.1.1_148c5bd1-0/data/ligands/prepped_ligands/Oryxylin_A

>  <Rbt.Executable>
rbdock/0.1.0

>  <Rbt.Library>
librxdock.so/0.1.0

>  <Rbt.Parameter_File>
/root/miniconda3/envs/rdock/share/rxdock-2013.1.1_148c5bd1-0/data/scripts/dock.prm

>  <Rbt.Receptor>
def.prm

>  <SCORE>
-14.2738

>  <SCORE.INTER>
-14.8615

>  <SCORE.INTER.CONST>
1

>  <SCORE.INTER.POLAR>
-1.536

>  <SCORE.INTER.REPUL>
0

>  <SCORE.INTER.ROT>
2

>  <SCORE.INTER.VDW>
-17.0391

>  <SCORE.INTER.norm>
-0.707691

>  <SCORE.INTRA>
1.64762

>  <SCORE.INTRA.DIHEDRAL>
3.2804

>  <SCORE.INTRA.DIHEDRAL.0>
6.0475

>  <SCORE.INTRA.POLAR>
0.0243237

>  <SCORE.INTRA.POLAR.0>
-0.0243237

>  <SCORE.INTRA.REPUL>
0

>  <SCORE.INTRA.REPUL.0>
0

>  <SCORE.INTRA.VDW>
-0.0752803

>  <SCORE.INTRA.VDW.0>
0.255107

>  <SCORE.INTRA.norm>
0.0784581

>  <SCORE.RESTR>
0

>  <SCORE.RESTR.CAVITY>
0

>  <SCORE.RESTR.norm>
0

>  <SCORE.SYSTEM>
-1.05995

>  <SCORE.SYSTEM.CONST>
0

>  <SCORE.SYSTEM.DIHEDRAL>
0.0825507

>  <SCORE.SYSTEM.VDW>
-1.10123

>  <SCORE.SYSTEM.norm>
-0.0504738

>  <SCORE.heavy>
21

>  <SCORE.norm>
-0.679707

$$$$
5320315
  RxDock  02242113093D
librxdock.so/0.1.0
 23 25  0  0  0  0  0  0  0  0999 V2000
  -51.0792   -3.1080   14.8942 O   0  0  0  0  0  0
  -47.7264    0.8644   13.0246 O   0  0  0  0  0  0
  -46.6400   -1.2468   14.3703 O   0  0  0  0  0  0
  -50.4561    0.9998   12.6095 O   0  0  0  0  0  0
  -47.0881   -3.4979   15.6141 O   0  0  0  0  0  0
  -48.8309   -2.2187   14.6598 C   0  0  0  0  0  0
  -50.2068   -2.1472   14.4489 C   0  0  0  0  0  0
  -50.5660   -4.2008   15.5760 C   0  0  0  0  0  0
  -47.9898   -1.2101   14.1840 C   0  0  0  0  0  0
  -48.2843   -3.3719   15.3910 C   0  0  0  0  0  0
  -50.7511   -1.0634   13.7593 C   0  0  0  0  0  0
  -48.5369   -0.1275   13.4941 C   0  0  0  0  0  0
  -49.2632   -4.3795   15.8463 C   0  0  0  0  0  0
  -51.5907   -5.1697   16.0142 C   0  0  0  0  0  0
  -49.9144   -0.0540   13.2822 C   0  0  0  0  0  0
  -51.2592   -6.1806   16.9197 C   0  0  0  0  0  0
  -52.8965   -5.0798   15.5252 C   0  0  0  0  0  0
  -52.2273   -7.0958   17.3336 C   0  0  0  0  0  0
  -53.8645   -5.9949   15.9393 C   0  0  0  0  0  0
  -53.5298   -7.0030   16.8434 C   0  0  0  0  0  0
  -47.8129    1.1658   11.6342 C   0  0  0  0  0  0
  -46.1735   -1.0279   13.5497 H   0  0  0  0  0  0
  -51.3812    0.7885   12.3967 H   0  0  0  0  0  0
  1  7  1  0  0  0
  1  8  1  0  0  0
  2 12  1  0  0  0
  2 21  1  0  0  0
  3  9  1  0  0  0
  3 22  1  0  0  0
  4 15  1  0  0  0
  4 23  1  0  0  0
  5 10  2  0  0  0
  6  7  2  0  0  0
  6  9  1  0  0  0
  6 10  1  0  0  0
  7 11  1  0  0  0
  8 13  2  0  0  0
  8 14  1  0  0  0
  9 12  2  0  0  0
 10 13  1  0  0  0
 11 15  2  0  0  0
 12 15  1  0  0  0
 14 16  2  0  0  0
 14 17  1  0  0  0
 16 18  1  0  0  0
 17 19  2  0  0  0
 18 20  2  0  0  0
 19 20  1  0  0  0
M  END
>  <CHROM.0>
-60.20813986,66.08772449,-179.08728816

>  <CHROM.1>
125.04357224,134.27188123,-11.86942764,-167.99071413,-49.94033040,-2.74312062
14.75864683,2.09474117,0.12749318,2.57429984

>  <Name>
5320315

>  <PUBCHEM_ATOM_DEF_STEREO_COUNT>
0

>  <PUBCHEM_ATOM_UDEF_STEREO_COUNT>
0

>  <PUBCHEM_BOND_DEF_STEREO_COUNT>
0

>  <PUBCHEM_BOND_UDEF_STEREO_COUNT>
0

>  <PUBCHEM_CACTVS_TAUTO_COUNT>
12

>  <PUBCHEM_COMPONENT_COUNT>
1

>  <PUBCHEM_COMPOUND_CID>
5320315

>  <PUBCHEM_CONFORMER_DIVERSEORDER>
1
2

>  <PUBCHEM_CONFORMER_ID>
00512E7B00000001

>  <PUBCHEM_CONFORMER_RMSD>
0.6

>  <PUBCHEM_COORDINATE_TYPE>
2
5
10

>  <PUBCHEM_EFFECTIVE_ROTOR_COUNT>
2

>  <PUBCHEM_FEATURE_SELFOVERLAP>
40.625

>  <PUBCHEM_HEAVY_ATOM_COUNT>
21

>  <PUBCHEM_ISOTOPIC_ATOM_COUNT>
0

>  <PUBCHEM_MMFF94_ENERGY>
75.473

>  <PUBCHEM_MMFF94_PARTIAL_CHARGES>
30
1 -0.16
10 0.47
11 -0.15
12 0.08
13 -0.14
14 0.03
15 0.08
16 -0.15
17 -0.15
18 -0.15
19 -0.15
2 -0.36
20 -0.15
21 0.28
22 0.15
23 0.15
24 0.15
25 0.15
26 0.15
27 0.15
28 0.45
29 0.15
3 -0.53
30 0.45
4 -0.53
5 -0.57
6 0.09
7 0.08
8 0.05
9 0.08

>  <PUBCHEM_PHARMACOPHORE_FEATURES>
8
1 1 acceptor
1 2 acceptor
1 3 donor
1 4 donor
1 5 acceptor
6 1 6 7 8 10 13 rings
6 14 16 17 18 19 20 rings
6 6 7 9 11 12 15 rings

>  <PUBCHEM_SHAPE_FINGERPRINT>
10319926 262 18339623639079927362
10411042 1 17689153838918189787
10493431 412 18412550899190905579
10498660 4 18336259038155622404
10608611 8 18341890844582710312
10646746 165 18410291411290866772
11578080 2 16807560661564956135
11595378 159 17603851292036568784
12107183 9 17685765831707532056
12173636 292 18409724054157661710
12236239 1 17385443219831120436
12390115 104 18199200502985526313
12403259 415 18412259523903711936
12596602 18 16588026844156286080
12788726 201 16955089051946383770
12916748 109 18408608050066549664
13081056 2 18413107251663356708
13140716 1 18192439782443455073
13544592 145 18342466902818679814
14341114 176 18411986857957503992
14787075 74 18272365395410613289
14790565 3 18411707556044776401
15042514 8 18191310575201304571
15196674 1 18337952290330464676
18186145 218 18201441354958650840
19784866 170 18335424534979148177
200 152 16988561303619401118
20510252 161 18342457062362639976
20645477 56 18410292536303305356
20645477 70 17274831216770011254
21033648 29 18340193137957187080
21065198 57 18411697734118468002
21236236 1 18342175626547569519
21267235 1 18408613555934976822
21279426 13 18196936574442069094
221357 26 18131628967727941912
22224240 67 18410863166280868131
23175994 123 17346884463726178344
23227448 37 18341047531658640252
23402539 116 18341044211337930942
23559900 14 18343301483852294606
3004659 81 18335425609365050694
335352 9 18411419509941474878
350125 39 18409453600294457093
3545911 37 18413390938949086460
4214541 1 18411417306802742604
474 4 16879355726359951084
474229 33 18409449189436474875
495365 180 17346305034600225762
5104073 3 18189619332838080865
542803 24 17346600768087715024
59755656 215 18338238167506508630
633830 44 18200024032683160908
69090 78 18343298189095660934
77779 3 18412262839955658820
9709674 26 18341898523942401550

>  <PUBCHEM_SHAPE_MULTIPOLES>
402.82
11.67
2.31
0.72
5.74
0.44
-0.06
-3.53
-0.92
-1.26
0.03
-0.06
-0.08
0.71

>  <PUBCHEM_SHAPE_SELFOVERLAP>
895.866

>  <PUBCHEM_SHAPE_VOLUME>
214

>  <RI>
-3.80493e+08

>  <Rbt.Current_Directory>
/root/miniconda3/envs/rdock/share/rxdock-2013.1.1_148c5bd1-0/data/ligands/prepped_ligands/Oryxylin_A

>  <Rbt.Executable>
rbdock/0.1.0

>  <Rbt.Library>
librxdock.so/0.1.0

>  <Rbt.Parameter_File>
/root/miniconda3/envs/rdock/share/rxdock-2013.1.1_148c5bd1-0/data/scripts/dock.prm

>  <Rbt.Receptor>
def.prm

>  <SCORE>
-16.7574

>  <SCORE.INTER>
-17.5136

>  <SCORE.INTER.CONST>
1

>  <SCORE.INTER.POLAR>
-2.4236

>  <SCORE.INTER.REPUL>
0.0282521

>  <SCORE.INTER.ROT>
2

>  <SCORE.INTER.VDW>
-16.8146

>  <SCORE.INTER.norm>
-0.833981

>  <SCORE.INTRA>
1.74906

>  <SCORE.INTRA.DIHEDRAL>
0.0252189

>  <SCORE.INTRA.DIHEDRAL.0>
6.0475

>  <SCORE.INTRA.POLAR>
0.0243237

>  <SCORE.INTRA.POLAR.0>
-0.0243237

>  <SCORE.INTRA.REPUL>
0

>  <SCORE.INTRA.REPUL.0>
0

>  <SCORE.INTRA.VDW>
1.65375

>  <SCORE.INTRA.VDW.0>
0.255107

>  <SCORE.INTRA.norm>
0.0832884

>  <SCORE.RESTR>
0.0416762

>  <SCORE.RESTR.CAVITY>
0.0416762

>  <SCORE.RESTR.norm>
0.00198458

>  <SCORE.SYSTEM>
-1.0345

>  <SCORE.SYSTEM.CONST>
0

>  <SCORE.SYSTEM.DIHEDRAL>
0.183115

>  <SCORE.SYSTEM.POLAR>
-0.00420568

>  <SCORE.SYSTEM.VDW>
-1.11175

>  <SCORE.SYSTEM.norm>
-0.0492618

>  <SCORE.heavy>
21

>  <SCORE.norm>
-0.79797

$$$$
5320315
  RxDock  02242113093D
librxdock.so/0.1.0
 23 25  0  0  0  0  0  0  0  0999 V2000
  -50.4440   -0.5315   13.2544 O   0  0  0  0  0  0
  -50.5036   -5.4202   15.8260 O   0  0  0  0  0  0
  -48.1435   -4.0623   15.6391 O   0  0  0  0  0  0
  -52.8154   -4.3569   14.7460 O   0  0  0  0  0  0
  -46.9280   -1.9202   14.7738 O   0  0  0  0  0  0
  -49.2414   -2.2735   14.4459 C   0  0  0  0  0  0
  -50.4088   -1.7404   13.9022 C   0  0  0  0  0  0
  -49.2670    0.1932   13.1447 C   0  0  0  0  0  0
  -49.2647   -3.5104   15.0945 C   0  0  0  0  0  0
  -47.9893   -1.5117   14.3229 C   0  0  0  0  0  0
  -51.6096   -2.4433   14.0041 C   0  0  0  0  0  0
  -50.4674   -4.2110   15.1954 C   0  0  0  0  0  0
  -48.0801   -0.2160   13.6204 C   0  0  0  0  0  0
  -49.4163    1.4746   12.4259 C   0  0  0  0  0  0
  -51.6373   -3.6789   14.6514 C   0  0  0  0  0  0
  -50.6043    2.2026   12.5283 C   0  0  0  0  0  0
  -48.3700    1.9648   11.6403 C   0  0  0  0  0  0
  -50.7452    3.4130   11.8493 C   0  0  0  0  0  0
  -48.5110    3.1753   10.9615 C   0  0  0  0  0  0
  -49.6986    3.8993   11.0660 C   0  0  0  0  0  0
  -50.9985   -5.4374   17.1626 C   0  0  0  0  0  0
  -47.4427   -4.1433   14.9748 H   0  0  0  0  0  0
  -52.6209   -5.2895   14.9412 H   0  0  0  0  0  0
  1  7  1  0  0  0
  1  8  1  0  0  0
  2 12  1  0  0  0
  2 21  1  0  0  0
  3  9  1  0  0  0
  3 22  1  0  0  0
  4 15  1  0  0  0
  4 23  1  0  0  0
  5 10  2  0  0  0
  6  7  2  0  0  0
  6  9  1  0  0  0
  6 10  1  0  0  0
  7 11  1  0  0  0
  8 13  2  0  0  0
  8 14  1  0  0  0
  9 12  2  0  0  0
 10 13  1  0  0  0
 11 15  2  0  0  0
 12 15  1  0  0  0
 14 16  2  0  0  0
 14 17  1  0  0  0
 16 18  1  0  0  0
 17 19  2  0  0  0
 18 20  2  0  0  0
 19 20  1  0  0  0
M  END
>  <CHROM.0>
58.03469469,-65.24693013,176.41678599

>  <CHROM.1>
100.89825114,-55.89107456,161.25608904,33.42223072,-49.78086856,-1.33325028
13.89795622,1.43360866,-0.11656173,-0.50966969

>  <Name>
5320315

>  <PUBCHEM_ATOM_DEF_STEREO_COUNT>
0

>  <PUBCHEM_ATOM_UDEF_STEREO_COUNT>
0

>  <PUBCHEM_BOND_DEF_STEREO_COUNT>
0

>  <PUBCHEM_BOND_UDEF_STEREO_COUNT>
0

>  <PUBCHEM_CACTVS_TAUTO_COUNT>
12

>  <PUBCHEM_COMPONENT_COUNT>
1

>  <PUBCHEM_COMPOUND_CID>
5320315

>  <PUBCHEM_CONFORMER_DIVERSEORDER>
1
2

>  <PUBCHEM_CONFORMER_ID>
00512E7B00000001

>  <PUBCHEM_CONFORMER_RMSD>
0.6

>  <PUBCHEM_COORDINATE_TYPE>
2
5
10

>  <PUBCHEM_EFFECTIVE_ROTOR_COUNT>
2

>  <PUBCHEM_FEATURE_SELFOVERLAP>
40.625

>  <PUBCHEM_HEAVY_ATOM_COUNT>
21

>  <PUBCHEM_ISOTOPIC_ATOM_COUNT>
0

>  <PUBCHEM_MMFF94_ENERGY>
75.473

>  <PUBCHEM_MMFF94_PARTIAL_CHARGES>
30
1 -0.16
10 0.47
11 -0.15
12 0.08
13 -0.14
14 0.03
15 0.08
16 -0.15
17 -0.15
18 -0.15
19 -0.15
2 -0.36
20 -0.15
21 0.28
22 0.15
23 0.15
24 0.15
25 0.15
26 0.15
27 0.15
28 0.45
29 0.15
3 -0.53
30 0.45
4 -0.53
5 -0.57
6 0.09
7 0.08
8 0.05
9 0.08

>  <PUBCHEM_PHARMACOPHORE_FEATURES>
8
1 1 acceptor
1 2 acceptor
1 3 donor
1 4 donor
1 5 acceptor
6 1 6 7 8 10 13 rings
6 14 16 17 18 19 20 rings
6 6 7 9 11 12 15 rings

>  <PUBCHEM_SHAPE_FINGERPRINT>
10319926 262 18339623639079927362
10411042 1 17689153838918189787
10493431 412 18412550899190905579
10498660 4 18336259038155622404
10608611 8 18341890844582710312
10646746 165 18410291411290866772
11578080 2 16807560661564956135
11595378 159 17603851292036568784
12107183 9 17685765831707532056
12173636 292 18409724054157661710
12236239 1 17385443219831120436
12390115 104 18199200502985526313
12403259 415 18412259523903711936
12596602 18 16588026844156286080
12788726 201 16955089051946383770
12916748 109 18408608050066549664
13081056 2 18413107251663356708
13140716 1 18192439782443455073
13544592 145 18342466902818679814
14341114 176 18411986857957503992
14787075 74 18272365395410613289
14790565 3 18411707556044776401
15042514 8 18191310575201304571
15196674 1 18337952290330464676
18186145 218 18201441354958650840
19784866 170 18335424534979148177
200 152 16988561303619401118
20510252 161 18342457062362639976
20645477 56 18410292536303305356
20645477 70 17274831216770011254
21033648 29 18340193137957187080
21065198 57 18411697734118468002
21236236 1 18342175626547569519
21267235 1 18408613555934976822
21279426 13 18196936574442069094
221357 26 18131628967727941912
22224240 67 18410863166280868131
23175994 123 17346884463726178344
23227448 37 18341047531658640252
23402539 116 18341044211337930942
23559900 14 18343301483852294606
3004659 81 18335425609365050694
335352 9 18411419509941474878
350125 39 18409453600294457093
3545911 37 18413390938949086460
4214541 1 18411417306802742604
474 4 16879355726359951084
474229 33 18409449189436474875
495365 180 17346305034600225762
5104073 3 18189619332838080865
542803 24 17346600768087715024
59755656 215 18338238167506508630
633830 44 18200024032683160908
69090 78 18343298189095660934
77779 3 18412262839955658820
9709674 26 18341898523942401550

>  <PUBCHEM_SHAPE_MULTIPOLES>
402.82
11.67
2.31
0.72
5.74
0.44
-0.06
-3.53
-0.92
-1.26
0.03
-0.06
-0.08
0.71

>  <PUBCHEM_SHAPE_SELFOVERLAP>
895.866

>  <PUBCHEM_SHAPE_VOLUME>
214

>  <RI>
-3.80493e+08

>  <Rbt.Current_Directory>
/root/miniconda3/envs/rdock/share/rxdock-2013.1.1_148c5bd1-0/data/ligands/prepped_ligands/Oryxylin_A

>  <Rbt.Executable>
rbdock/0.1.0

>  <Rbt.Library>
librxdock.so/0.1.0

>  <Rbt.Parameter_File>
/root/miniconda3/envs/rdock/share/rxdock-2013.1.1_148c5bd1-0/data/scripts/dock.prm

>  <Rbt.Receptor>
def.prm

>  <SCORE>
-17.0192

>  <SCORE.INTER>
-17.475

>  <SCORE.INTER.CONST>
1

>  <SCORE.INTER.POLAR>
-1.12809

>  <SCORE.INTER.REPUL>
0.201658

>  <SCORE.INTER.ROT>
2

>  <SCORE.INTER.VDW>
-22.0477

>  <SCORE.INTER.norm>
-0.832141

>  <SCORE.INTRA>
1.50092

>  <SCORE.INTRA.DIHEDRAL>
3.78554

>  <SCORE.INTRA.DIHEDRAL.0>
6.0475

>  <SCORE.INTRA.POLAR>
0.0209571

>  <SCORE.INTRA.POLAR.0>
-0.0243237

>  <SCORE.INTRA.REPUL>
0

>  <SCORE.INTRA.REPUL.0>
0

>  <SCORE.INTRA.VDW>
-0.463106

>  <SCORE.INTRA.VDW.0>
0.255107

>  <SCORE.INTRA.norm>
0.0714722

>  <SCORE.RESTR>
0

>  <SCORE.RESTR.CAVITY>
0

>  <SCORE.RESTR.norm>
0

>  <SCORE.SYSTEM>
-1.04516

>  <SCORE.SYSTEM.CONST>
0

>  <SCORE.SYSTEM.DIHEDRAL>
0.180667

>  <SCORE.SYSTEM.VDW>
-1.1355

>  <SCORE.SYSTEM.norm>
-0.0497697

>  <SCORE.heavy>
21

>  <SCORE.norm>
-0.810439

$$$$
5320315
  RxDock  02242113093D
librxdock.so/0.1.0
 23 25  0  0  0  0  0  0  0  0999 V2000
  -50.9293   -1.1033   13.6863 O   0  0  0  0  0  0
  -53.1307   -4.7459   17.2079 O   0  0  0  0  0  0
  -51.2295   -3.0156   18.1246 O   0  0  0  0  0  0
  -53.9329   -4.6657   14.5638 O   0  0  0  0  0  0
  -49.6060   -1.0568   17.5394 O   0  0  0  0  0  0
  -51.0400   -2.0262   15.9306 C   0  0  0  0  0  0
  -51.4466   -1.9886   14.5979 C   0  0  0  0  0  0
  -49.9661   -0.2024   14.1142 C   0  0  0  0  0  0
  -51.6014   -2.9504   16.8148 C   0  0  0  0  0  0
  -50.0117   -1.0782   16.3855 C   0  0  0  0  0  0
  -52.4196   -2.8777   14.1406 C   0  0  0  0  0  0
  -52.5748   -3.8382   16.3546 C   0  0  0  0  0  0
  -49.4890   -0.1443   15.3678 C   0  0  0  0  0  0
  -49.4746    0.6994   13.0531 C   0  0  0  0  0  0
  -52.9830   -3.8022   15.0206 C   0  0  0  0  0  0
  -48.2154    0.4930   12.4841 C   0  0  0  0  0  0
  -50.2666    1.7630   12.6132 C   0  0  0  0  0  0
  -47.7512    1.3448   11.4817 C   0  0  0  0  0  0
  -49.8024    2.6147   11.6107 C   0  0  0  0  0  0
  -48.5446    2.4056   11.0450 C   0  0  0  0  0  0
  -52.3921   -5.9404   17.4515 C   0  0  0  0  0  0
  -50.4267   -2.4958   18.2804 H   0  0  0  0  0  0
  -54.3397   -5.1103   15.3271 H   0  0  0  0  0  0
  1  7  1  0  0  0
  1  8  1  0  0  0
  2 12  1  0  0  0
  2 21  1  0  0  0
  3  9  1  0  0  0
  3 22  1  0  0  0
  4 15  1  0  0  0
  4 23  1  0  0  0
  5 10  2  0  0  0
  6  7  2  0  0  0
  6  9  1  0  0  0
  6 10  1  0  0  0
  7 11  1  0  0  0
  8 13  2  0  0  0
  8 14  1  0  0  0
  9 12  2  0  0  0
 10 13  1  0  0  0
 11 15  2  0  0  0
 12 15  1  0  0  0
 14 16  2  0  0  0
 14 17  1  0  0  0
 16 18  1  0  0  0
 17 19  2  0  0  0
 18 20  2  0  0  0
 19 20  1  0  0  0
M  END
>  <CHROM.0>
52.99142145,-176.68562093,-59.58605144

>  <CHROM.1>
-81.65733137,-12.36483277,-168.91555074,-104.68650372,-50.86393716,-1.54743725
14.83845457,0.91365247,-0.77919491,-1.15457387

>  <Name>
5320315

>  <PUBCHEM_ATOM_DEF_STEREO_COUNT>
0

>  <PUBCHEM_ATOM_UDEF_STEREO_COUNT>
0

>  <PUBCHEM_BOND_DEF_STEREO_COUNT>
0

>  <PUBCHEM_BOND_UDEF_STEREO_COUNT>
0

>  <PUBCHEM_CACTVS_TAUTO_COUNT>
12

>  <PUBCHEM_COMPONENT_COUNT>
1

>  <PUBCHEM_COMPOUND_CID>
5320315

>  <PUBCHEM_CONFORMER_DIVERSEORDER>
1
2

>  <PUBCHEM_CONFORMER_ID>
00512E7B00000001

>  <PUBCHEM_CONFORMER_RMSD>
0.6

>  <PUBCHEM_COORDINATE_TYPE>
2
5
10

>  <PUBCHEM_EFFECTIVE_ROTOR_COUNT>
2

>  <PUBCHEM_FEATURE_SELFOVERLAP>
40.625

>  <PUBCHEM_HEAVY_ATOM_COUNT>
21

>  <PUBCHEM_ISOTOPIC_ATOM_COUNT>
0

>  <PUBCHEM_MMFF94_ENERGY>
75.473

>  <PUBCHEM_MMFF94_PARTIAL_CHARGES>
30
1 -0.16
10 0.47
11 -0.15
12 0.08
13 -0.14
14 0.03
15 0.08
16 -0.15
17 -0.15
18 -0.15
19 -0.15
2 -0.36
20 -0.15
21 0.28
22 0.15
23 0.15
24 0.15
25 0.15
26 0.15
27 0.15
28 0.45
29 0.15
3 -0.53
30 0.45
4 -0.53
5 -0.57
6 0.09
7 0.08
8 0.05
9 0.08

>  <PUBCHEM_PHARMACOPHORE_FEATURES>
8
1 1 acceptor
1 2 acceptor
1 3 donor
1 4 donor
1 5 acceptor
6 1 6 7 8 10 13 rings
6 14 16 17 18 19 20 rings
6 6 7 9 11 12 15 rings

>  <PUBCHEM_SHAPE_FINGERPRINT>
10319926 262 18339623639079927362
10411042 1 17689153838918189787
10493431 412 18412550899190905579
10498660 4 18336259038155622404
10608611 8 18341890844582710312
10646746 165 18410291411290866772
11578080 2 16807560661564956135
11595378 159 17603851292036568784
12107183 9 17685765831707532056
12173636 292 18409724054157661710
12236239 1 17385443219831120436
12390115 104 18199200502985526313
12403259 415 18412259523903711936
12596602 18 16588026844156286080
12788726 201 16955089051946383770
12916748 109 18408608050066549664
13081056 2 18413107251663356708
13140716 1 18192439782443455073
13544592 145 18342466902818679814
14341114 176 18411986857957503992
14787075 74 18272365395410613289
14790565 3 18411707556044776401
15042514 8 18191310575201304571
15196674 1 18337952290330464676
18186145 218 18201441354958650840
19784866 170 18335424534979148177
200 152 16988561303619401118
20510252 161 18342457062362639976
20645477 56 18410292536303305356
20645477 70 17274831216770011254
21033648 29 18340193137957187080
21065198 57 18411697734118468002
21236236 1 18342175626547569519
21267235 1 18408613555934976822
21279426 13 18196936574442069094
221357 26 18131628967727941912
22224240 67 18410863166280868131
23175994 123 17346884463726178344
23227448 37 18341047531658640252
23402539 116 18341044211337930942
23559900 14 18343301483852294606
3004659 81 18335425609365050694
335352 9 18411419509941474878
350125 39 18409453600294457093
3545911 37 18413390938949086460
4214541 1 18411417306802742604
474 4 16879355726359951084
474229 33 18409449189436474875
495365 180 17346305034600225762
5104073 3 18189619332838080865
542803 24 17346600768087715024
59755656 215 18338238167506508630
633830 44 18200024032683160908
69090 78 18343298189095660934
77779 3 18412262839955658820
9709674 26 18341898523942401550

>  <PUBCHEM_SHAPE_MULTIPOLES>
402.82
11.67
2.31
0.72
5.74
0.44
-0.06
-3.53
-0.92
-1.26
0.03
-0.06
-0.08
0.71

>  <PUBCHEM_SHAPE_SELFOVERLAP>
895.866

>  <PUBCHEM_SHAPE_VOLUME>
214

>  <RI>
-3.80493e+08

>  <Rbt.Current_Directory>
/root/miniconda3/envs/rdock/share/rxdock-2013.1.1_148c5bd1-0/data/ligands/prepped_ligands/Oryxylin_A

>  <Rbt.Executable>
rbdock/0.1.0

>  <Rbt.Library>
librxdock.so/0.1.0

>  <Rbt.Parameter_File>
/root/miniconda3/envs/rdock/share/rxdock-2013.1.1_148c5bd1-0/data/scripts/dock.prm

>  <Rbt.Receptor>
def.prm

>  <SCORE>
-14.3825

>  <SCORE.INTER>
-14.1842

>  <SCORE.INTER.CONST>
1

>  <SCORE.INTER.POLAR>
0

>  <SCORE.INTER.REPUL>
0.000620276

>  <SCORE.INTER.ROT>
2

>  <SCORE.INTER.VDW>
-21.5873

>  <SCORE.INTER.norm>
-0.675439

>  <SCORE.INTRA>
0.775745

>  <SCORE.INTRA.DIHEDRAL>
3.51954

>  <SCORE.INTRA.DIHEDRAL.0>
6.0475

>  <SCORE.INTRA.POLAR>
-0.0315115

>  <SCORE.INTRA.POLAR.0>
-0.0243237

>  <SCORE.INTRA.REPUL>
0

>  <SCORE.INTRA.REPUL.0>
0

>  <SCORE.INTRA.VDW>
-0.876887

>  <SCORE.INTRA.VDW.0>
0.255107

>  <SCORE.INTRA.norm>
0.0369402

>  <SCORE.RESTR>
0

>  <SCORE.RESTR.CAVITY>
0

>  <SCORE.RESTR.norm>
0

>  <SCORE.SYSTEM>
-0.97404

>  <SCORE.SYSTEM.CONST>
0

>  <SCORE.SYSTEM.DIHEDRAL>
0.179264

>  <SCORE.SYSTEM.POLAR>
-0.00183358

>  <SCORE.SYSTEM.VDW>
-1.05744

>  <SCORE.SYSTEM.norm>
-0.0463829

>  <SCORE.heavy>
21

>  <SCORE.norm>
-0.684882

$$$$
5320315
  RxDock  02242113093D
librxdock.so/0.1.0
 23 25  0  0  0  0  0  0  0  0999 V2000
  -46.7956   -4.2798   17.5997 O   0  0  0  0  0  0
  -50.6500   -8.2138   17.1712 O   0  0  0  0  0  0
  -50.8723   -5.9813   15.6171 O   0  0  0  0  0  0
  -48.5289   -8.4903   18.9222 O   0  0  0  0  0  0
  -49.8400   -3.6751   14.9606 O   0  0  0  0  0  0
  -48.8443   -5.0862   16.5735 C   0  0  0  0  0  0
  -47.7763   -5.2287   17.4577 C   0  0  0  0  0  0
  -46.8683   -3.1338   16.8226 C   0  0  0  0  0  0
  -49.8149   -6.0855   16.4711 C   0  0  0  0  0  0
  -48.9295   -3.8675   15.7546 C   0  0  0  0  0  0
  -47.6726   -6.3745   18.2468 C   0  0  0  0  0  0
  -49.7084   -7.2307   17.2614 C   0  0  0  0  0  0
  -47.8489   -2.8786   15.9419 C   0  0  0  0  0  0
  -45.7675   -2.1781   17.0586 C   0  0  0  0  0  0
  -48.6398   -7.3751   18.1473 C   0  0  0  0  0  0
  -44.5046   -2.6413   17.4359 C   0  0  0  0  0  0
  -45.9839   -0.8063   16.9054 C   0  0  0  0  0  0
  -43.4648   -1.7385   17.6588 C   0  0  0  0  0  0
  -44.9440    0.0964   17.1282 C   0  0  0  0  0  0
  -43.6845   -0.3697   17.5049 C   0  0  0  0  0  0
  -51.7827   -8.1045   18.0294 C   0  0  0  0  0  0
  -51.3379   -6.8277   15.5415 H   0  0  0  0  0  0
  -47.6716   -8.4646   19.3807 H   0  0  0  0  0  0
  1  7  1  0  0  0
  1  8  1  0  0  0
  2 12  1  0  0  0
  2 21  1  0  0  0
  3  9  1  0  0  0
  3 22  1  0  0  0
  4 15  1  0  0  0
  4 23  1  0  0  0
  5 10  2  0  0  0
  6  7  2  0  0  0
  6  9  1  0  0  0
  6 10  1  0  0  0
  7 11  1  0  0  0
  8 13  2  0  0  0
  8 14  1  0  0  0
  9 12  2  0  0  0
 10 13  1  0  0  0
 11 15  2  0  0  0
 12 15  1  0  0  0
 14 16  2  0  0  0
 14 17  1  0  0  0
 16 18  1  0  0  0
 17 19  2  0  0  0
 18 20  2  0  0  0
 19 20  1  0  0  0
M  END
>  <CHROM.0>
-164.62891668,-63.25720471,-64.38704627

>  <CHROM.1>
-89.26475431,168.35695192,-7.34477694,31.04330290,-47.86672340,-4.57914414
17.08096354,-0.72450159,0.50651558,2.61247449

>  <Name>
5320315

>  <PUBCHEM_ATOM_DEF_STEREO_COUNT>
0

>  <PUBCHEM_ATOM_UDEF_STEREO_COUNT>
0

>  <PUBCHEM_BOND_DEF_STEREO_COUNT>
0

>  <PUBCHEM_BOND_UDEF_STEREO_COUNT>
0

>  <PUBCHEM_CACTVS_TAUTO_COUNT>
12

>  <PUBCHEM_COMPONENT_COUNT>
1

>  <PUBCHEM_COMPOUND_CID>
5320315

>  <PUBCHEM_CONFORMER_DIVERSEORDER>
1
2

>  <PUBCHEM_CONFORMER_ID>
00512E7B00000001

>  <PUBCHEM_CONFORMER_RMSD>
0.6

>  <PUBCHEM_COORDINATE_TYPE>
2
5
10

>  <PUBCHEM_EFFECTIVE_ROTOR_COUNT>
2

>  <PUBCHEM_FEATURE_SELFOVERLAP>
40.625

>  <PUBCHEM_HEAVY_ATOM_COUNT>
21

>  <PUBCHEM_ISOTOPIC_ATOM_COUNT>
0

>  <PUBCHEM_MMFF94_ENERGY>
75.473

>  <PUBCHEM_MMFF94_PARTIAL_CHARGES>
30
1 -0.16
10 0.47
11 -0.15
12 0.08
13 -0.14
14 0.03
15 0.08
16 -0.15
17 -0.15
18 -0.15
19 -0.15
2 -0.36
20 -0.15
21 0.28
22 0.15
23 0.15
24 0.15
25 0.15
26 0.15
27 0.15
28 0.45
29 0.15
3 -0.53
30 0.45
4 -0.53
5 -0.57
6 0.09
7 0.08
8 0.05
9 0.08

>  <PUBCHEM_PHARMACOPHORE_FEATURES>
8
1 1 acceptor
1 2 acceptor
1 3 donor
1 4 donor
1 5 acceptor
6 1 6 7 8 10 13 rings
6 14 16 17 18 19 20 rings
6 6 7 9 11 12 15 rings

>  <PUBCHEM_SHAPE_FINGERPRINT>
10319926 262 18339623639079927362
10411042 1 17689153838918189787
10493431 412 18412550899190905579
10498660 4 18336259038155622404
10608611 8 18341890844582710312
10646746 165 18410291411290866772
11578080 2 16807560661564956135
11595378 159 17603851292036568784
12107183 9 17685765831707532056
12173636 292 18409724054157661710
12236239 1 17385443219831120436
12390115 104 18199200502985526313
12403259 415 18412259523903711936
12596602 18 16588026844156286080
12788726 201 16955089051946383770
12916748 109 18408608050066549664
13081056 2 18413107251663356708
13140716 1 18192439782443455073
13544592 145 18342466902818679814
14341114 176 18411986857957503992
14787075 74 18272365395410613289
14790565 3 18411707556044776401
15042514 8 18191310575201304571
15196674 1 18337952290330464676
18186145 218 18201441354958650840
19784866 170 18335424534979148177
200 152 16988561303619401118
20510252 161 18342457062362639976
20645477 56 18410292536303305356
20645477 70 17274831216770011254
21033648 29 18340193137957187080
21065198 57 18411697734118468002
21236236 1 18342175626547569519
21267235 1 18408613555934976822
21279426 13 18196936574442069094
221357 26 18131628967727941912
22224240 67 18410863166280868131
23175994 123 17346884463726178344
23227448 37 18341047531658640252
23402539 116 18341044211337930942
23559900 14 18343301483852294606
3004659 81 18335425609365050694
335352 9 18411419509941474878
350125 39 18409453600294457093
3545911 37 18413390938949086460
4214541 1 18411417306802742604
474 4 16879355726359951084
474229 33 18409449189436474875
495365 180 17346305034600225762
5104073 3 18189619332838080865
542803 24 17346600768087715024
59755656 215 18338238167506508630
633830 44 18200024032683160908
69090 78 18343298189095660934
77779 3 18412262839955658820
9709674 26 18341898523942401550

>  <PUBCHEM_SHAPE_MULTIPOLES>
402.82
11.67
2.31
0.72
5.74
0.44
-0.06
-3.53
-0.92
-1.26
0.03
-0.06
-0.08
0.71

>  <PUBCHEM_SHAPE_SELFOVERLAP>
895.866

>  <PUBCHEM_SHAPE_VOLUME>
214

>  <RI>
-3.80493e+08

>  <Rbt.Current_Directory>
/root/miniconda3/envs/rdock/share/rxdock-2013.1.1_148c5bd1-0/data/ligands/prepped_ligands/Oryxylin_A

>  <Rbt.Executable>
rbdock/0.1.0

>  <Rbt.Library>
librxdock.so/0.1.0

>  <Rbt.Parameter_File>
/root/miniconda3/envs/rdock/share/rxdock-2013.1.1_148c5bd1-0/data/scripts/dock.prm

>  <Rbt.Receptor>
def.prm

>  <SCORE>
-13.7247

>  <SCORE.INTER>
-13.2611

>  <SCORE.INTER.CONST>
1

>  <SCORE.INTER.POLAR>
-1.1308

>  <SCORE.INTER.REPUL>
0

>  <SCORE.INTER.ROT>
2

>  <SCORE.INTER.VDW>
-16.8164

>  <SCORE.INTER.norm>
-0.631483

>  <SCORE.INTRA>
0.237727

>  <SCORE.INTRA.DIHEDRAL>
0.266494

>  <SCORE.INTRA.DIHEDRAL.0>
6.0475

>  <SCORE.INTRA.POLAR>
-0.00420281

>  <SCORE.INTRA.POLAR.0>
-0.0243237

>  <SCORE.INTRA.REPUL>
0

>  <SCORE.INTRA.REPUL.0>
0

>  <SCORE.INTRA.VDW>
0.11877

>  <SCORE.INTRA.VDW.0>
0.255107

>  <SCORE.INTRA.norm>
0.0113203

>  <SCORE.RESTR>
0

>  <SCORE.RESTR.CAVITY>
0

>  <SCORE.RESTR.norm>
0

>  <SCORE.SYSTEM>
-0.70132

>  <SCORE.SYSTEM.CONST>
0

>  <SCORE.SYSTEM.DIHEDRAL>
0.645228

>  <SCORE.SYSTEM.VDW>
-1.02393

>  <SCORE.SYSTEM.norm>
-0.0333962

>  <SCORE.heavy>
21

>  <SCORE.norm>
-0.653559

$$$$
5320315
  RxDock  02242113093D
librxdock.so/0.1.0
 23 25  0  0  0  0  0  0  0  0999 V2000
  -49.6388   -4.1162   15.8405 O   0  0  0  0  0  0
  -54.3198   -6.9942   16.4083 O   0  0  0  0  0  0
  -52.0855   -7.8460   17.7241 O   0  0  0  0  0  0
  -54.2295   -4.7299   14.8252 O   0  0  0  0  0  0
  -49.5571   -7.4238   18.2179 O   0  0  0  0  0  0
  -50.8189   -6.0041   16.8121 C   0  0  0  0  0  0
  -50.7768   -4.8630   16.0128 C   0  0  0  0  0  0
  -48.4839   -4.5116   16.4980 C   0  0  0  0  0  0
  -52.0064   -6.7264   16.9504 C   0  0  0  0  0  0
  -49.5931   -6.4316   17.5034 C   0  0  0  0  0  0
  -51.9253   -4.4366   15.3452 C   0  0  0  0  0  0
  -53.1537   -6.2973   16.2819 C   0  0  0  0  0  0
  -48.3965   -5.5932   17.2884 C   0  0  0  0  0  0
  -47.3187   -3.6420   16.2392 C   0  0  0  0  0  0
  -53.1135   -5.1552   15.4810 C   0  0  0  0  0  0
  -46.3014   -3.5299   17.1901 C   0  0  0  0  0  0
  -47.2283   -2.9274   15.0419 C   0  0  0  0  0  0
  -45.2008   -2.7085   16.9455 C   0  0  0  0  0  0
  -46.1275   -2.1062   14.7973 C   0  0  0  0  0  0
  -45.1139   -1.9967   15.7491 C   0  0  0  0  0  0
  -54.6179   -7.9454   15.3895 C   0  0  0  0  0  0
  -51.2047   -8.1253   18.0158 H   0  0  0  0  0  0
  -53.9975   -3.9492   14.2936 H   0  0  0  0  0  0
  1  7  1  0  0  0
  1  8  1  0  0  0
  2 12  1  0  0  0
  2 21  1  0  0  0
  3  9  1  0  0  0
  3 22  1  0  0  0
  4 15  1  0  0  0
  4 23  1  0  0  0
  5 10  2  0  0  0
  6  7  2  0  0  0
  6  9  1  0  0  0
  6 10  1  0  0  0
  7 11  1  0  0  0
  8 13  2  0  0  0
  8 14  1  0  0  0
  9 12  2  0  0  0
 10 13  1  0  0  0
 11 15  2  0  0  0
 12 15  1  0  0  0
 14 16  2  0  0  0
 14 17  1  0  0  0
 16 18  1  0  0  0
 17 19  2  0  0  0
 18 20  2  0  0  0
 19 20  1  0  0  0
M  END
>  <CHROM.0>
-65.24999812,177.28679935,53.90579975

>  <CHROM.1>
-96.09594686,-9.37619546,2.40640711,152.74439595,-50.13594431,-5.12455508
16.31459921,0.37249157,-0.30660131,-0.66597962

>  <Name>
5320315

>  <PUBCHEM_ATOM_DEF_STEREO_COUNT>
0

>  <PUBCHEM_ATOM_UDEF_STEREO_COUNT>
0

>  <PUBCHEM_BOND_DEF_STEREO_COUNT>
0

>  <PUBCHEM_BOND_UDEF_STEREO_COUNT>
0

>  <PUBCHEM_CACTVS_TAUTO_COUNT>
12

>  <PUBCHEM_COMPONENT_COUNT>
1

>  <PUBCHEM_COMPOUND_CID>
5320315

>  <PUBCHEM_CONFORMER_DIVERSEORDER>
1
2

>  <PUBCHEM_CONFORMER_ID>
00512E7B00000001

>  <PUBCHEM_CONFORMER_RMSD>
0.6

>  <PUBCHEM_COORDINATE_TYPE>
2
5
10

>  <PUBCHEM_EFFECTIVE_ROTOR_COUNT>
2

>  <PUBCHEM_FEATURE_SELFOVERLAP>
40.625

>  <PUBCHEM_HEAVY_ATOM_COUNT>
21

>  <PUBCHEM_ISOTOPIC_ATOM_COUNT>
0

>  <PUBCHEM_MMFF94_ENERGY>
75.473

>  <PUBCHEM_MMFF94_PARTIAL_CHARGES>
30
1 -0.16
10 0.47
11 -0.15
12 0.08
13 -0.14
14 0.03
15 0.08
16 -0.15
17 -0.15
18 -0.15
19 -0.15
2 -0.36
20 -0.15
21 0.28
22 0.15
23 0.15
24 0.15
25 0.15
26 0.15
27 0.15
28 0.45
29 0.15
3 -0.53
30 0.45
4 -0.53
5 -0.57
6 0.09
7 0.08
8 0.05
9 0.08

>  <PUBCHEM_PHARMACOPHORE_FEATURES>
8
1 1 acceptor
1 2 acceptor
1 3 donor
1 4 donor
1 5 acceptor
6 1 6 7 8 10 13 rings
6 14 16 17 18 19 20 rings
6 6 7 9 11 12 15 rings

>  <PUBCHEM_SHAPE_FINGERPRINT>
10319926 262 18339623639079927362
10411042 1 17689153838918189787
10493431 412 18412550899190905579
10498660 4 18336259038155622404
10608611 8 18341890844582710312
10646746 165 18410291411290866772
11578080 2 16807560661564956135
11595378 159 17603851292036568784
12107183 9 17685765831707532056
12173636 292 18409724054157661710
12236239 1 17385443219831120436
12390115 104 18199200502985526313
12403259 415 18412259523903711936
12596602 18 16588026844156286080
12788726 201 16955089051946383770
12916748 109 18408608050066549664
13081056 2 18413107251663356708
13140716 1 18192439782443455073
13544592 145 18342466902818679814
14341114 176 18411986857957503992
14787075 74 18272365395410613289
14790565 3 18411707556044776401
15042514 8 18191310575201304571
15196674 1 18337952290330464676
18186145 218 18201441354958650840
19784866 170 18335424534979148177
200 152 16988561303619401118
20510252 161 18342457062362639976
20645477 56 18410292536303305356
20645477 70 17274831216770011254
21033648 29 18340193137957187080
21065198 57 18411697734118468002
21236236 1 18342175626547569519
21267235 1 18408613555934976822
21279426 13 18196936574442069094
221357 26 18131628967727941912
22224240 67 18410863166280868131
23175994 123 17346884463726178344
23227448 37 18341047531658640252
23402539 116 18341044211337930942
23559900 14 18343301483852294606
3004659 81 18335425609365050694
335352 9 18411419509941474878
350125 39 18409453600294457093
3545911 37 18413390938949086460
4214541 1 18411417306802742604
474 4 16879355726359951084
474229 33 18409449189436474875
495365 180 17346305034600225762
5104073 3 18189619332838080865
542803 24 17346600768087715024
59755656 215 18338238167506508630
633830 44 18200024032683160908
69090 78 18343298189095660934
77779 3 18412262839955658820
9709674 26 18341898523942401550

>  <PUBCHEM_SHAPE_MULTIPOLES>
402.82
11.67
2.31
0.72
5.74
0.44
-0.06
-3.53
-0.92
-1.26
0.03
-0.06
-0.08
0.71

>  <PUBCHEM_SHAPE_SELFOVERLAP>
895.866

>  <PUBCHEM_SHAPE_VOLUME>
214

>  <RI>
-3.80493e+08

>  <Rbt.Current_Directory>
/root/miniconda3/envs/rdock/share/rxdock-2013.1.1_148c5bd1-0/data/ligands/prepped_ligands/Oryxylin_A

>  <Rbt.Executable>
rbdock/0.1.0

>  <Rbt.Library>
librxdock.so/0.1.0

>  <Rbt.Parameter_File>
/root/miniconda3/envs/rdock/share/rxdock-2013.1.1_148c5bd1-0/data/scripts/dock.prm

>  <Rbt.Receptor>
def.prm

>  <SCORE>
-12.165

>  <SCORE.INTER>
-11.518

>  <SCORE.INTER.CONST>
1

>  <SCORE.INTER.POLAR>
-0.133478

>  <SCORE.INTER.REPUL>
0

>  <SCORE.INTER.ROT>
2

>  <SCORE.INTER.VDW>
-18.4642

>  <SCORE.INTER.norm>
-0.548475

>  <SCORE.INTRA>
0.335739

>  <SCORE.INTRA.DIHEDRAL>
-0.127835

>  <SCORE.INTRA.DIHEDRAL.0>
6.0475

>  <SCORE.INTRA.POLAR>
0.0243237

>  <SCORE.INTRA.POLAR.0>
-0.0243237

>  <SCORE.INTRA.REPUL>
0

>  <SCORE.INTRA.REPUL.0>
0

>  <SCORE.INTRA.VDW>
0.316956

>  <SCORE.INTRA.VDW.0>
0.255107

>  <SCORE.INTRA.norm>
0.0159876

>  <SCORE.RESTR>
0

>  <SCORE.RESTR.CAVITY>
0

>  <SCORE.RESTR.norm>
0

>  <SCORE.SYSTEM>
-0.982763

>  <SCORE.SYSTEM.CONST>
0

>  <SCORE.SYSTEM.DIHEDRAL>
0.20362

>  <SCORE.SYSTEM.VDW>
-1.08457

>  <SCORE.SYSTEM.norm>
-0.0467982

>  <SCORE.heavy>
21

>  <SCORE.norm>
-0.579286

$$$$
