5320315
  RxDock  02242101313D
librxdock.so/0.1.0
 23 25  0  0  0  0  0  0  0  0999 V2000
  -50.5640   -0.4586   13.2459 O   0  0  0  0  0  0
  -50.7970   -5.3654   15.7730 O   0  0  0  0  0  0
  -48.3767   -4.1290   15.5239 O   0  0  0  0  0  0
  -53.0831   -4.1726   14.7765 O   0  0  0  0  0  0
  -47.0792   -2.0432   14.6403 O   0  0  0  0  0  0
  -49.4169   -2.2732   14.3826 C   0  0  0  0  0  0
  -50.5714   -1.6747   13.8811 C   0  0  0  0  0  0
  -49.3550    0.2055   13.1056 C   0  0  0  0  0  0
  -49.4842   -3.5142   15.0202 C   0  0  0  0  0  0
  -48.1314   -1.5757   14.2270 C   0  0  0  0  0  0
  -51.8033   -2.3158   14.0145 C   0  0  0  0  0  0
  -50.7178   -4.1528   15.1527 C   0  0  0  0  0  0
  -48.1767   -0.2694   13.5397 C   0  0  0  0  0  0
  -49.4599    1.5007   12.4039 C   0  0  0  0  0  0
  -51.8749   -3.5553   14.6510 C   0  0  0  0  0  0
  -48.3872    1.9776   11.6465 C   0  0  0  0  0  0
  -50.6326    2.2549   12.4940 C   0  0  0  0  0  0
  -48.4864    3.2010   10.9837 C   0  0  0  0  0  0
  -50.7318    3.4782   11.8310 C   0  0  0  0  0  0
  -49.6586    3.9512   11.0759 C   0  0  0  0  0  0
  -50.4905   -5.4006   17.1645 C   0  0  0  0  0  0
  -47.5763   -3.6284   15.3055 H   0  0  0  0  0  0
  -52.9557   -5.0065   15.2604 H   0  0  0  0  0  0
  1  7  1  0  0  0
  1  8  1  0  0  0
  2 12  1  0  0  0
  2 21  1  0  0  0
  3  9  1  0  0  0
  3 22  1  0  0  0
  4 15  1  0  0  0
  4 23  1  0  0  0
  5 10  2  0  0  0
  6  7  2  0  0  0
  6  9  1  0  0  0
  6 10  1  0  0  0
  7 11  1  0  0  0
  8 13  2  0  0  0
  8 14  1  0  0  0
  9 12  2  0  0  0
 10 13  1  0  0  0
 11 15  2  0  0  0
 12 15  1  0  0  0
 14 16  2  0  0  0
 14 17  1  0  0  0
 16 18  1  0  0  0
 17 19  2  0  0  0
 18 20  2  0  0  0
 19 20  1  0  0  0
M  END
>  <CHROM.0>
-173.49318192,-66.98968083,58.01944136

>  <CHROM.1>
66.02323617,-4.91311993,-178.52465520,-149.94209625,-49.88318100,-1.29945804
13.86558041,1.42567759,-0.09040833,-0.50607164

>  <Name>
5320315

>  <PUBCHEM_ATOM_DEF_STEREO_COUNT>
0

>  <PUBCHEM_ATOM_UDEF_STEREO_COUNT>
0

>  <PUBCHEM_BOND_DEF_STEREO_COUNT>
0

>  <PUBCHEM_BOND_UDEF_STEREO_COUNT>
0

>  <PUBCHEM_CACTVS_TAUTO_COUNT>
12

>  <PUBCHEM_COMPONENT_COUNT>
1

>  <PUBCHEM_COMPOUND_CID>
5320315

>  <PUBCHEM_CONFORMER_DIVERSEORDER>
1
2

>  <PUBCHEM_CONFORMER_ID>
00512E7B00000001

>  <PUBCHEM_CONFORMER_RMSD>
0.6

>  <PUBCHEM_COORDINATE_TYPE>
2
5
10

>  <PUBCHEM_EFFECTIVE_ROTOR_COUNT>
2

>  <PUBCHEM_FEATURE_SELFOVERLAP>
40.625

>  <PUBCHEM_HEAVY_ATOM_COUNT>
21

>  <PUBCHEM_ISOTOPIC_ATOM_COUNT>
0

>  <PUBCHEM_MMFF94_ENERGY>
75.473

>  <PUBCHEM_MMFF94_PARTIAL_CHARGES>
30
1 -0.16
10 0.47
11 -0.15
12 0.08
13 -0.14
14 0.03
15 0.08
16 -0.15
17 -0.15
18 -0.15
19 -0.15
2 -0.36
20 -0.15
21 0.28
22 0.15
23 0.15
24 0.15
25 0.15
26 0.15
27 0.15
28 0.45
29 0.15
3 -0.53
30 0.45
4 -0.53
5 -0.57
6 0.09
7 0.08
8 0.05
9 0.08

>  <PUBCHEM_PHARMACOPHORE_FEATURES>
8
1 1 acceptor
1 2 acceptor
1 3 donor
1 4 donor
1 5 acceptor
6 1 6 7 8 10 13 rings
6 14 16 17 18 19 20 rings
6 6 7 9 11 12 15 rings

>  <PUBCHEM_SHAPE_FINGERPRINT>
10319926 262 18339623639079927362
10411042 1 17689153838918189787
10493431 412 18412550899190905579
10498660 4 18336259038155622404
10608611 8 18341890844582710312
10646746 165 18410291411290866772
11578080 2 16807560661564956135
11595378 159 17603851292036568784
12107183 9 17685765831707532056
12173636 292 18409724054157661710
12236239 1 17385443219831120436
12390115 104 18199200502985526313
12403259 415 18412259523903711936
12596602 18 16588026844156286080
12788726 201 16955089051946383770
12916748 109 18408608050066549664
13081056 2 18413107251663356708
13140716 1 18192439782443455073
13544592 145 18342466902818679814
14341114 176 18411986857957503992
14787075 74 18272365395410613289
14790565 3 18411707556044776401
15042514 8 18191310575201304571
15196674 1 18337952290330464676
18186145 218 18201441354958650840
19784866 170 18335424534979148177
200 152 16988561303619401118
20510252 161 18342457062362639976
20645477 56 18410292536303305356
20645477 70 17274831216770011254
21033648 29 18340193137957187080
21065198 57 18411697734118468002
21236236 1 18342175626547569519
21267235 1 18408613555934976822
21279426 13 18196936574442069094
221357 26 18131628967727941912
22224240 67 18410863166280868131
23175994 123 17346884463726178344
23227448 37 18341047531658640252
23402539 116 18341044211337930942
23559900 14 18343301483852294606
3004659 81 18335425609365050694
335352 9 18411419509941474878
350125 39 18409453600294457093
3545911 37 18413390938949086460
4214541 1 18411417306802742604
474 4 16879355726359951084
474229 33 18409449189436474875
495365 180 17346305034600225762
5104073 3 18189619332838080865
542803 24 17346600768087715024
59755656 215 18338238167506508630
633830 44 18200024032683160908
69090 78 18343298189095660934
77779 3 18412262839955658820
9709674 26 18341898523942401550

>  <PUBCHEM_SHAPE_MULTIPOLES>
402.82
11.67
2.31
0.72
5.74
0.44
-0.06
-3.53
-0.92
-1.26
0.03
-0.06
-0.08
0.71

>  <PUBCHEM_SHAPE_SELFOVERLAP>
895.866

>  <PUBCHEM_SHAPE_VOLUME>
214

>  <RI>
-9.52859e+08

>  <Rbt.Current_Directory>
/root/miniconda3/envs/rdock/share/rxdock-2013.1.1_148c5bd1-0/data/ligands/prepped_ligands/Oryxylin_A

>  <Rbt.Executable>
rbdock/0.1.0

>  <Rbt.Library>
librxdock.so/0.1.0

>  <Rbt.Parameter_File>
/root/miniconda3/envs/rdock/share/rxdock-2013.1.1_148c5bd1-0/data/scripts/dock.prm

>  <Rbt.Receptor>
def.prm

>  <SCORE>
-16.9966

>  <SCORE.INTER>
-15.8586

>  <SCORE.INTER.CONST>
1

>  <SCORE.INTER.POLAR>
-0.824621

>  <SCORE.INTER.REPUL>
0.420888

>  <SCORE.INTER.ROT>
2

>  <SCORE.INTER.VDW>
-22.5593

>  <SCORE.INTER.norm>
-0.755171

>  <SCORE.INTRA>
-0.203711

>  <SCORE.INTRA.DIHEDRAL>
-0.833366

>  <SCORE.INTRA.DIHEDRAL.0>
6.0475

>  <SCORE.INTRA.POLAR>
-0.0813563

>  <SCORE.INTRA.POLAR.0>
-0.0243237

>  <SCORE.INTRA.REPUL>
0

>  <SCORE.INTRA.REPUL.0>
0

>  <SCORE.INTRA.VDW>
0.489583

>  <SCORE.INTRA.VDW.0>
0.255107

>  <SCORE.INTRA.norm>
-0.00970054

>  <SCORE.RESTR>
0

>  <SCORE.RESTR.CAVITY>
0

>  <SCORE.RESTR.norm>
0

>  <SCORE.SYSTEM>
-0.934339

>  <SCORE.SYSTEM.CONST>
0

>  <SCORE.SYSTEM.DIHEDRAL>
0.348635

>  <SCORE.SYSTEM.VDW>
-1.10866

>  <SCORE.SYSTEM.norm>
-0.0444923

>  <SCORE.heavy>
21

>  <SCORE.norm>
-0.809363

$$$$
5320315
  RxDock  02242101313D
librxdock.so/0.1.0
 23 25  0  0  0  0  0  0  0  0999 V2000
  -52.0334   -4.5864   14.6522 O   0  0  0  0  0  0
  -48.6447   -0.2238   14.6922 O   0  0  0  0  0  0
  -50.6082   -0.3802   16.5814 O   0  0  0  0  0  0
  -48.3660   -2.2197   12.7999 O   0  0  0  0  0  0
  -52.6164   -1.7561   17.5242 O   0  0  0  0  0  0
  -51.3599   -2.4807   15.6586 C   0  0  0  0  0  0
  -51.2167   -3.4851   14.7029 C   0  0  0  0  0  0
  -53.0389   -4.7069   15.5993 C   0  0  0  0  0  0
  -50.4991   -1.3806   15.6619 C   0  0  0  0  0  0
  -52.4315   -2.6007   16.6589 C   0  0  0  0  0  0
  -50.2091   -3.3948   13.7422 C   0  0  0  0  0  0
  -49.4918   -1.2932   14.7001 C   0  0  0  0  0  0
  -53.2809   -3.8051   16.5639 C   0  0  0  0  0  0
  -53.8608   -5.9247   15.4500 C   0  0  0  0  0  0
  -49.3470   -2.2978   13.7423 C   0  0  0  0  0  0
  -54.8722   -5.9753   14.4876 C   0  0  0  0  0  0
  -53.6305   -7.0319   16.2705 C   0  0  0  0  0  0
  -55.6485   -7.1258   14.3467 C   0  0  0  0  0  0
  -54.4067   -8.1823   16.1294 C   0  0  0  0  0  0
  -55.4157   -8.2292   15.1675 C   0  0  0  0  0  0
  -47.5279   -0.2775   15.5761 C   0  0  0  0  0  0
  -51.3135   -0.5730   17.2173 H   0  0  0  0  0  0
  -47.7537   -1.5063   13.0491 H   0  0  0  0  0  0
  1  7  1  0  0  0
  1  8  1  0  0  0
  2 12  1  0  0  0
  2 21  1  0  0  0
  3  9  1  0  0  0
  3 22  1  0  0  0
  4 15  1  0  0  0
  4 23  1  0  0  0
  5 10  2  0  0  0
  6  7  2  0  0  0
  6  9  1  0  0  0
  6 10  1  0  0  0
  7 11  1  0  0  0
  8 13  2  0  0  0
  8 14  1  0  0  0
  9 12  2  0  0  0
 10 13  1  0  0  0
 11 15  2  0  0  0
 12 15  1  0  0  0
 14 16  2  0  0  0
 14 17  1  0  0  0
 16 18  1  0  0  0
 17 19  2  0  0  0
 18 20  2  0  0  0
 19 20  1  0  0  0
M  END
>  <CHROM.0>
-178.71807822,-59.96708577,59.53755459

>  <CHROM.1>
83.18756169,2.56949355,-168.49133030,-79.31642526,-51.72655153,-3.56256386
15.27183871,-2.60936408,0.66074009,0.72899147

>  <Name>
5320315

>  <PUBCHEM_ATOM_DEF_STEREO_COUNT>
0

>  <PUBCHEM_ATOM_UDEF_STEREO_COUNT>
0

>  <PUBCHEM_BOND_DEF_STEREO_COUNT>
0

>  <PUBCHEM_BOND_UDEF_STEREO_COUNT>
0

>  <PUBCHEM_CACTVS_TAUTO_COUNT>
12

>  <PUBCHEM_COMPONENT_COUNT>
1

>  <PUBCHEM_COMPOUND_CID>
5320315

>  <PUBCHEM_CONFORMER_DIVERSEORDER>
1
2

>  <PUBCHEM_CONFORMER_ID>
00512E7B00000001

>  <PUBCHEM_CONFORMER_RMSD>
0.6

>  <PUBCHEM_COORDINATE_TYPE>
2
5
10

>  <PUBCHEM_EFFECTIVE_ROTOR_COUNT>
2

>  <PUBCHEM_FEATURE_SELFOVERLAP>
40.625

>  <PUBCHEM_HEAVY_ATOM_COUNT>
21

>  <PUBCHEM_ISOTOPIC_ATOM_COUNT>
0

>  <PUBCHEM_MMFF94_ENERGY>
75.473

>  <PUBCHEM_MMFF94_PARTIAL_CHARGES>
30
1 -0.16
10 0.47
11 -0.15
12 0.08
13 -0.14
14 0.03
15 0.08
16 -0.15
17 -0.15
18 -0.15
19 -0.15
2 -0.36
20 -0.15
21 0.28
22 0.15
23 0.15
24 0.15
25 0.15
26 0.15
27 0.15
28 0.45
29 0.15
3 -0.53
30 0.45
4 -0.53
5 -0.57
6 0.09
7 0.08
8 0.05
9 0.08

>  <PUBCHEM_PHARMACOPHORE_FEATURES>
8
1 1 acceptor
1 2 acceptor
1 3 donor
1 4 donor
1 5 acceptor
6 1 6 7 8 10 13 rings
6 14 16 17 18 19 20 rings
6 6 7 9 11 12 15 rings

>  <PUBCHEM_SHAPE_FINGERPRINT>
10319926 262 18339623639079927362
10411042 1 17689153838918189787
10493431 412 18412550899190905579
10498660 4 18336259038155622404
10608611 8 18341890844582710312
10646746 165 18410291411290866772
11578080 2 16807560661564956135
11595378 159 17603851292036568784
12107183 9 17685765831707532056
12173636 292 18409724054157661710
12236239 1 17385443219831120436
12390115 104 18199200502985526313
12403259 415 18412259523903711936
12596602 18 16588026844156286080
12788726 201 16955089051946383770
12916748 109 18408608050066549664
13081056 2 18413107251663356708
13140716 1 18192439782443455073
13544592 145 18342466902818679814
14341114 176 18411986857957503992
14787075 74 18272365395410613289
14790565 3 18411707556044776401
15042514 8 18191310575201304571
15196674 1 18337952290330464676
18186145 218 18201441354958650840
19784866 170 18335424534979148177
200 152 16988561303619401118
20510252 161 18342457062362639976
20645477 56 18410292536303305356
20645477 70 17274831216770011254
21033648 29 18340193137957187080
21065198 57 18411697734118468002
21236236 1 18342175626547569519
21267235 1 18408613555934976822
21279426 13 18196936574442069094
221357 26 18131628967727941912
22224240 67 18410863166280868131
23175994 123 17346884463726178344
23227448 37 18341047531658640252
23402539 116 18341044211337930942
23559900 14 18343301483852294606
3004659 81 18335425609365050694
335352 9 18411419509941474878
350125 39 18409453600294457093
3545911 37 18413390938949086460
4214541 1 18411417306802742604
474 4 16879355726359951084
474229 33 18409449189436474875
495365 180 17346305034600225762
5104073 3 18189619332838080865
542803 24 17346600768087715024
59755656 215 18338238167506508630
633830 44 18200024032683160908
69090 78 18343298189095660934
77779 3 18412262839955658820
9709674 26 18341898523942401550

>  <PUBCHEM_SHAPE_MULTIPOLES>
402.82
11.67
2.31
0.72
5.74
0.44
-0.06
-3.53
-0.92
-1.26
0.03
-0.06
-0.08
0.71

>  <PUBCHEM_SHAPE_SELFOVERLAP>
895.866

>  <PUBCHEM_SHAPE_VOLUME>
214

>  <RI>
-9.52859e+08

>  <Rbt.Current_Directory>
/root/miniconda3/envs/rdock/share/rxdock-2013.1.1_148c5bd1-0/data/ligands/prepped_ligands/Oryxylin_A

>  <Rbt.Executable>
rbdock/0.1.0

>  <Rbt.Library>
librxdock.so/0.1.0

>  <Rbt.Parameter_File>
/root/miniconda3/envs/rdock/share/rxdock-2013.1.1_148c5bd1-0/data/scripts/dock.prm

>  <Rbt.Receptor>
def.prm

>  <SCORE>
-12.9702

>  <SCORE.INTER>
-12.9467

>  <SCORE.INTER.CONST>
1

>  <SCORE.INTER.POLAR>
-0.527602

>  <SCORE.INTER.REPUL>
0.0929177

>  <SCORE.INTER.ROT>
2

>  <SCORE.INTER.VDW>
-19.0174

>  <SCORE.INTER.norm>
-0.616508

>  <SCORE.INTRA>
0.983356

>  <SCORE.INTRA.DIHEDRAL>
3.53417

>  <SCORE.INTRA.DIHEDRAL.0>
6.0475

>  <SCORE.INTRA.POLAR>
0.00202722

>  <SCORE.INTRA.POLAR.0>
-0.0243237

>  <SCORE.INTRA.REPUL>
0

>  <SCORE.INTRA.REPUL.0>
0

>  <SCORE.INTRA.VDW>
-0.79062

>  <SCORE.INTRA.VDW.0>
0.255107

>  <SCORE.INTRA.norm>
0.0468265

>  <SCORE.RESTR>
0.0340141

>  <SCORE.RESTR.CAVITY>
0.0340141

>  <SCORE.RESTR.norm>
0.00161972

>  <SCORE.SYSTEM>
-1.04089

>  <SCORE.SYSTEM.CONST>
0

>  <SCORE.SYSTEM.DIHEDRAL>
0.00421733

>  <SCORE.SYSTEM.VDW>
-1.043

>  <SCORE.SYSTEM.norm>
-0.0495661

>  <SCORE.heavy>
21

>  <SCORE.norm>
-0.617628

$$$$
5320315
  RxDock  02242101313D
librxdock.so/0.1.0
 23 25  0  0  0  0  0  0  0  0999 V2000
  -49.6447   -4.0637   15.8434 O   0  0  0  0  0  0
  -54.2823   -7.0029   16.4518 O   0  0  0  0  0  0
  -52.0214   -7.8348   17.7343 O   0  0  0  0  0  0
  -54.2399   -4.7282   14.8816 O   0  0  0  0  0  0
  -49.4924   -7.3843   18.1992 O   0  0  0  0  0  0
  -50.7891   -5.9719   16.8180 C   0  0  0  0  0  0
  -50.7712   -4.8255   16.0253 C   0  0  0  0  0  0
  -48.4768   -4.4486   16.4841 C   0  0  0  0  0  0
  -51.9658   -6.7097   16.9666 C   0  0  0  0  0  0
  -49.5496   -6.3882   17.4913 C   0  0  0  0  0  0
  -51.9331   -4.4095   15.3748 C   0  0  0  0  0  0
  -53.1266   -6.2909   16.3151 C   0  0  0  0  0  0
  -48.3662   -5.5338   17.2666 C   0  0  0  0  0  0
  -47.3258   -3.5631   16.2161 C   0  0  0  0  0  0
  -53.1105   -5.1435   15.5209 C   0  0  0  0  0  0
  -46.2737   -3.4829   17.1317 C   0  0  0  0  0  0
  -47.2837   -2.8014   15.0455 C   0  0  0  0  0  0
  -45.1865   -2.6464   16.8785 C   0  0  0  0  0  0
  -46.1964   -1.9650   14.7922 C   0  0  0  0  0  0
  -45.1478   -1.8875   15.7088 C   0  0  0  0  0  0
  -54.7121   -7.7601   15.3233 C   0  0  0  0  0  0
  -51.1328   -8.1101   18.0057 H   0  0  0  0  0  0
  -54.0102   -3.9828   14.3006 H   0  0  0  0  0  0
  1  7  1  0  0  0
  1  8  1  0  0  0
  2 12  1  0  0  0
  2 21  1  0  0  0
  3  9  1  0  0  0
  3 22  1  0  0  0
  4 15  1  0  0  0
  4 23  1  0  0  0
  5 10  2  0  0  0
  6  7  2  0  0  0
  6  9  1  0  0  0
  6 10  1  0  0  0
  7 11  1  0  0  0
  8 13  2  0  0  0
  8 14  1  0  0  0
  9 12  2  0  0  0
 10 13  1  0  0  0
 11 15  2  0  0  0
 12 15  1  0  0  0
 14 16  2  0  0  0
 14 17  1  0  0  0
 16 18  1  0  0  0
 17 19  2  0  0  0
 18 20  2  0  0  0
 19 20  1  0  0  0
M  END
>  <CHROM.0>
55.67834395,176.96335337,54.83917449

>  <CHROM.1>
-107.64430923,-9.95653324,6.60029242,155.18471860,-50.13025832,-5.07096354
16.31155570,0.38216620,-0.30348976,-0.65710421

>  <Name>
5320315

>  <PUBCHEM_ATOM_DEF_STEREO_COUNT>
0

>  <PUBCHEM_ATOM_UDEF_STEREO_COUNT>
0

>  <PUBCHEM_BOND_DEF_STEREO_COUNT>
0

>  <PUBCHEM_BOND_UDEF_STEREO_COUNT>
0

>  <PUBCHEM_CACTVS_TAUTO_COUNT>
12

>  <PUBCHEM_COMPONENT_COUNT>
1

>  <PUBCHEM_COMPOUND_CID>
5320315

>  <PUBCHEM_CONFORMER_DIVERSEORDER>
1
2

>  <PUBCHEM_CONFORMER_ID>
00512E7B00000001

>  <PUBCHEM_CONFORMER_RMSD>
0.6

>  <PUBCHEM_COORDINATE_TYPE>
2
5
10

>  <PUBCHEM_EFFECTIVE_ROTOR_COUNT>
2

>  <PUBCHEM_FEATURE_SELFOVERLAP>
40.625

>  <PUBCHEM_HEAVY_ATOM_COUNT>
21

>  <PUBCHEM_ISOTOPIC_ATOM_COUNT>
0

>  <PUBCHEM_MMFF94_ENERGY>
75.473

>  <PUBCHEM_MMFF94_PARTIAL_CHARGES>
30
1 -0.16
10 0.47
11 -0.15
12 0.08
13 -0.14
14 0.03
15 0.08
16 -0.15
17 -0.15
18 -0.15
19 -0.15
2 -0.36
20 -0.15
21 0.28
22 0.15
23 0.15
24 0.15
25 0.15
26 0.15
27 0.15
28 0.45
29 0.15
3 -0.53
30 0.45
4 -0.53
5 -0.57
6 0.09
7 0.08
8 0.05
9 0.08

>  <PUBCHEM_PHARMACOPHORE_FEATURES>
8
1 1 acceptor
1 2 acceptor
1 3 donor
1 4 donor
1 5 acceptor
6 1 6 7 8 10 13 rings
6 14 16 17 18 19 20 rings
6 6 7 9 11 12 15 rings

>  <PUBCHEM_SHAPE_FINGERPRINT>
10319926 262 18339623639079927362
10411042 1 17689153838918189787
10493431 412 18412550899190905579
10498660 4 18336259038155622404
10608611 8 18341890844582710312
10646746 165 18410291411290866772
11578080 2 16807560661564956135
11595378 159 17603851292036568784
12107183 9 17685765831707532056
12173636 292 18409724054157661710
12236239 1 17385443219831120436
12390115 104 18199200502985526313
12403259 415 18412259523903711936
12596602 18 16588026844156286080
12788726 201 16955089051946383770
12916748 109 18408608050066549664
13081056 2 18413107251663356708
13140716 1 18192439782443455073
13544592 145 18342466902818679814
14341114 176 18411986857957503992
14787075 74 18272365395410613289
14790565 3 18411707556044776401
15042514 8 18191310575201304571
15196674 1 18337952290330464676
18186145 218 18201441354958650840
19784866 170 18335424534979148177
200 152 16988561303619401118
20510252 161 18342457062362639976
20645477 56 18410292536303305356
20645477 70 17274831216770011254
21033648 29 18340193137957187080
21065198 57 18411697734118468002
21236236 1 18342175626547569519
21267235 1 18408613555934976822
21279426 13 18196936574442069094
221357 26 18131628967727941912
22224240 67 18410863166280868131
23175994 123 17346884463726178344
23227448 37 18341047531658640252
23402539 116 18341044211337930942
23559900 14 18343301483852294606
3004659 81 18335425609365050694
335352 9 18411419509941474878
350125 39 18409453600294457093
3545911 37 18413390938949086460
4214541 1 18411417306802742604
474 4 16879355726359951084
474229 33 18409449189436474875
495365 180 17346305034600225762
5104073 3 18189619332838080865
542803 24 17346600768087715024
59755656 215 18338238167506508630
633830 44 18200024032683160908
69090 78 18343298189095660934
77779 3 18412262839955658820
9709674 26 18341898523942401550

>  <PUBCHEM_SHAPE_MULTIPOLES>
402.82
11.67
2.31
0.72
5.74
0.44
-0.06
-3.53
-0.92
-1.26
0.03
-0.06
-0.08
0.71

>  <PUBCHEM_SHAPE_SELFOVERLAP>
895.866

>  <PUBCHEM_SHAPE_VOLUME>
214

>  <RI>
-9.52859e+08

>  <Rbt.Current_Directory>
/root/miniconda3/envs/rdock/share/rxdock-2013.1.1_148c5bd1-0/data/ligands/prepped_ligands/Oryxylin_A

>  <Rbt.Executable>
rbdock/0.1.0

>  <Rbt.Library>
librxdock.so/0.1.0

>  <Rbt.Parameter_File>
/root/miniconda3/envs/rdock/share/rxdock-2013.1.1_148c5bd1-0/data/scripts/dock.prm

>  <Rbt.Receptor>
def.prm

>  <SCORE>
-12.1859

>  <SCORE.INTER>
-11.5751

>  <SCORE.INTER.CONST>
1

>  <SCORE.INTER.POLAR>
-0.127466

>  <SCORE.INTER.REPUL>
0

>  <SCORE.INTER.ROT>
2

>  <SCORE.INTER.VDW>
-18.5417

>  <SCORE.INTER.norm>
-0.551195

>  <SCORE.INTRA>
0.384253

>  <SCORE.INTRA.DIHEDRAL>
-0.607667

>  <SCORE.INTRA.DIHEDRAL.0>
6.0475

>  <SCORE.INTRA.POLAR>
0.0243237

>  <SCORE.INTRA.POLAR.0>
-0.0243237

>  <SCORE.INTRA.REPUL>
0

>  <SCORE.INTRA.REPUL.0>
0

>  <SCORE.INTRA.VDW>
0.605386

>  <SCORE.INTRA.VDW.0>
0.255107

>  <SCORE.INTRA.norm>
0.0182978

>  <SCORE.RESTR>
0

>  <SCORE.RESTR.CAVITY>
0

>  <SCORE.RESTR.norm>
0

>  <SCORE.SYSTEM>
-0.995107

>  <SCORE.SYSTEM.CONST>
0

>  <SCORE.SYSTEM.DIHEDRAL>
0.164134

>  <SCORE.SYSTEM.VDW>
-1.07717

>  <SCORE.SYSTEM.norm>
-0.047386

>  <SCORE.heavy>
21

>  <SCORE.norm>
-0.580283

$$$$
5320315
  RxDock  02242101313D
librxdock.so/0.1.0
 23 25  0  0  0  0  0  0  0  0999 V2000
  -49.3423   -1.1586   17.3573 O   0  0  0  0  0  0
  -53.0986   -4.5652   15.1659 O   0  0  0  0  0  0
  -52.0771   -5.1451   17.6295 O   0  0  0  0  0  0
  -52.2621   -2.3101   13.8033 O   0  0  0  0  0  0
  -50.4366   -4.4275   19.5291 O   0  0  0  0  0  0
  -50.6920   -3.1695   17.5450 C   0  0  0  0  0  0
  -50.2722   -2.0335   16.8551 C   0  0  0  0  0  0
  -48.8045   -1.4138   18.6096 C   0  0  0  0  0  0
  -51.6421   -4.0260   16.9839 C   0  0  0  0  0  0
  -50.1165   -3.4482   18.8695 C   0  0  0  0  0  0
  -50.8016   -1.7468   15.5966 C   0  0  0  0  0  0
  -52.1702   -3.7365   15.7251 C   0  0  0  0  0  0
  -49.1228   -2.4756   19.3670 C   0  0  0  0  0  0
  -47.8113   -0.4140   19.0510 C   0  0  0  0  0  0
  -51.7510   -2.5996   15.0328 C   0  0  0  0  0  0
  -47.1735   -0.5559   20.2858 C   0  0  0  0  0  0
  -47.5049    0.6784   18.2356 C   0  0  0  0  0  0
  -46.2353    0.3885   20.7026 C   0  0  0  0  0  0
  -46.5666    1.6228   18.6524 C   0  0  0  0  0  0
  -45.9319    1.4778   19.8859 C   0  0  0  0  0  0
  -54.3175   -4.7468   15.8820 C   0  0  0  0  0  0
  -51.7176   -5.1851   18.5284 H   0  0  0  0  0  0
  -53.0783   -2.8240   13.6786 H   0  0  0  0  0  0
  1  7  1  0  0  0
  1  8  1  0  0  0
  2 12  1  0  0  0
  2 21  1  0  0  0
  3  9  1  0  0  0
  3 22  1  0  0  0
  4 15  1  0  0  0
  4 23  1  0  0  0
  5 10  2  0  0  0
  6  7  2  0  0  0
  6  9  1  0  0  0
  6 10  1  0  0  0
  7 11  1  0  0  0
  8 13  2  0  0  0
  8 14  1  0  0  0
  9 12  2  0  0  0
 10 13  1  0  0  0
 11 15  2  0  0  0
 12 15  1  0  0  0
 14 16  2  0  0  0
 14 17  1  0  0  0
 16 18  1  0  0  0
 17 19  2  0  0  0
 18 20  2  0  0  0
 19 20  1  0  0  0
M  END
>  <CHROM.0>
-175.26270479,-63.62278263,61.70426468

>  <CHROM.1>
60.20467944,6.35920331,-162.92717876,-179.07910994,-50.02613906,-2.17897182
17.59075475,-0.02618489,-0.79170190,-0.90344922

>  <Name>
5320315

>  <PUBCHEM_ATOM_DEF_STEREO_COUNT>
0

>  <PUBCHEM_ATOM_UDEF_STEREO_COUNT>
0

>  <PUBCHEM_BOND_DEF_STEREO_COUNT>
0

>  <PUBCHEM_BOND_UDEF_STEREO_COUNT>
0

>  <PUBCHEM_CACTVS_TAUTO_COUNT>
12

>  <PUBCHEM_COMPONENT_COUNT>
1

>  <PUBCHEM_COMPOUND_CID>
5320315

>  <PUBCHEM_CONFORMER_DIVERSEORDER>
1
2

>  <PUBCHEM_CONFORMER_ID>
00512E7B00000001

>  <PUBCHEM_CONFORMER_RMSD>
0.6

>  <PUBCHEM_COORDINATE_TYPE>
2
5
10

>  <PUBCHEM_EFFECTIVE_ROTOR_COUNT>
2

>  <PUBCHEM_FEATURE_SELFOVERLAP>
40.625

>  <PUBCHEM_HEAVY_ATOM_COUNT>
21

>  <PUBCHEM_ISOTOPIC_ATOM_COUNT>
0

>  <PUBCHEM_MMFF94_ENERGY>
75.473

>  <PUBCHEM_MMFF94_PARTIAL_CHARGES>
30
1 -0.16
10 0.47
11 -0.15
12 0.08
13 -0.14
14 0.03
15 0.08
16 -0.15
17 -0.15
18 -0.15
19 -0.15
2 -0.36
20 -0.15
21 0.28
22 0.15
23 0.15
24 0.15
25 0.15
26 0.15
27 0.15
28 0.45
29 0.15
3 -0.53
30 0.45
4 -0.53
5 -0.57
6 0.09
7 0.08
8 0.05
9 0.08

>  <PUBCHEM_PHARMACOPHORE_FEATURES>
8
1 1 acceptor
1 2 acceptor
1 3 donor
1 4 donor
1 5 acceptor
6 1 6 7 8 10 13 rings
6 14 16 17 18 19 20 rings
6 6 7 9 11 12 15 rings

>  <PUBCHEM_SHAPE_FINGERPRINT>
10319926 262 18339623639079927362
10411042 1 17689153838918189787
10493431 412 18412550899190905579
10498660 4 18336259038155622404
10608611 8 18341890844582710312
10646746 165 18410291411290866772
11578080 2 16807560661564956135
11595378 159 17603851292036568784
12107183 9 17685765831707532056
12173636 292 18409724054157661710
12236239 1 17385443219831120436
12390115 104 18199200502985526313
12403259 415 18412259523903711936
12596602 18 16588026844156286080
12788726 201 16955089051946383770
12916748 109 18408608050066549664
13081056 2 18413107251663356708
13140716 1 18192439782443455073
13544592 145 18342466902818679814
14341114 176 18411986857957503992
14787075 74 18272365395410613289
14790565 3 18411707556044776401
15042514 8 18191310575201304571
15196674 1 18337952290330464676
18186145 218 18201441354958650840
19784866 170 18335424534979148177
200 152 16988561303619401118
20510252 161 18342457062362639976
20645477 56 18410292536303305356
20645477 70 17274831216770011254
21033648 29 18340193137957187080
21065198 57 18411697734118468002
21236236 1 18342175626547569519
21267235 1 18408613555934976822
21279426 13 18196936574442069094
221357 26 18131628967727941912
22224240 67 18410863166280868131
23175994 123 17346884463726178344
23227448 37 18341047531658640252
23402539 116 18341044211337930942
23559900 14 18343301483852294606
3004659 81 18335425609365050694
335352 9 18411419509941474878
350125 39 18409453600294457093
3545911 37 18413390938949086460
4214541 1 18411417306802742604
474 4 16879355726359951084
474229 33 18409449189436474875
495365 180 17346305034600225762
5104073 3 18189619332838080865
542803 24 17346600768087715024
59755656 215 18338238167506508630
633830 44 18200024032683160908
69090 78 18343298189095660934
77779 3 18412262839955658820
9709674 26 18341898523942401550

>  <PUBCHEM_SHAPE_MULTIPOLES>
402.82
11.67
2.31
0.72
5.74
0.44
-0.06
-3.53
-0.92
-1.26
0.03
-0.06
-0.08
0.71

>  <PUBCHEM_SHAPE_SELFOVERLAP>
895.866

>  <PUBCHEM_SHAPE_VOLUME>
214

>  <RI>
-9.52859e+08

>  <Rbt.Current_Directory>
/root/miniconda3/envs/rdock/share/rxdock-2013.1.1_148c5bd1-0/data/ligands/prepped_ligands/Oryxylin_A

>  <Rbt.Executable>
rbdock/0.1.0

>  <Rbt.Library>
librxdock.so/0.1.0

>  <Rbt.Parameter_File>
/root/miniconda3/envs/rdock/share/rxdock-2013.1.1_148c5bd1-0/data/scripts/dock.prm

>  <Rbt.Receptor>
def.prm

>  <SCORE>
-8.74888

>  <SCORE.INTER>
-8.0048

>  <SCORE.INTER.CONST>
1

>  <SCORE.INTER.POLAR>
-1.0198

>  <SCORE.INTER.REPUL>
0.013308

>  <SCORE.INTER.ROT>
2

>  <SCORE.INTER.VDW>
-12.004

>  <SCORE.INTER.norm>
-0.381181

>  <SCORE.INTRA>
0.193753

>  <SCORE.INTRA.DIHEDRAL>
-1.96062

>  <SCORE.INTRA.DIHEDRAL.0>
6.0475

>  <SCORE.INTRA.POLAR>
-0.0390981

>  <SCORE.INTRA.POLAR.0>
-0.0243237

>  <SCORE.INTRA.REPUL>
0

>  <SCORE.INTRA.REPUL.0>
0

>  <SCORE.INTRA.VDW>
1.307

>  <SCORE.INTRA.VDW.0>
0.255107

>  <SCORE.INTRA.norm>
0.00922632

>  <SCORE.RESTR>
0.0634745

>  <SCORE.RESTR.CAVITY>
0.0634745

>  <SCORE.RESTR.norm>
0.0030226

>  <SCORE.SYSTEM>
-1.0013

>  <SCORE.SYSTEM.CONST>
0

>  <SCORE.SYSTEM.DIHEDRAL>
0.122169

>  <SCORE.SYSTEM.POLAR>
-0.00494102

>  <SCORE.SYSTEM.VDW>
-1.04559

>  <SCORE.SYSTEM.norm>
-0.047681

>  <SCORE.heavy>
21

>  <SCORE.norm>
-0.416613

$$$$
5320315
  RxDock  02242101313D
librxdock.so/0.1.0
 23 25  0  0  0  0  0  0  0  0999 V2000
  -49.6584   -4.1228   15.8521 O   0  0  0  0  0  0
  -54.2737   -7.0890   16.4978 O   0  0  0  0  0  0
  -52.0037   -7.8939   17.7816 O   0  0  0  0  0  0
  -54.2512   -4.8277   14.9079 O   0  0  0  0  0  0
  -49.4768   -7.4217   18.2361 O   0  0  0  0  0  0
  -50.7869   -6.0304   16.8460 C   0  0  0  0  0  0
  -50.7790   -4.8909   16.0434 C   0  0  0  0  0  0
  -48.4862   -4.4940   16.4930 C   0  0  0  0  0  0
  -51.9580   -6.7752   17.0041 C   0  0  0  0  0  0
  -49.5428   -6.4323   17.5197 C   0  0  0  0  0  0
  -51.9455   -4.4887   15.3923 C   0  0  0  0  0  0
  -53.1234   -6.3702   16.3520 C   0  0  0  0  0  0
  -48.3660   -5.5716   17.2846 C   0  0  0  0  0  0
  -47.3421   -3.6028   16.2144 C   0  0  0  0  0  0
  -53.1173   -5.2296   15.5478 C   0  0  0  0  0  0
  -47.3068   -2.8534   15.0359 C   0  0  0  0  0  0
  -46.2897   -3.5050   17.1282 C   0  0  0  0  0  0
  -46.2260   -2.0116   14.7728 C   0  0  0  0  0  0
  -45.2090   -2.6630   16.8651 C   0  0  0  0  0  0
  -45.1772   -1.9164   15.6874 C   0  0  0  0  0  0
  -54.6407   -7.9467   15.4202 C   0  0  0  0  0  0
  -51.1172   -8.1352   18.0894 H   0  0  0  0  0  0
  -54.0282   -4.0862   14.3196 H   0  0  0  0  0  0
  1  7  1  0  0  0
  1  8  1  0  0  0
  2 12  1  0  0  0
  2 21  1  0  0  0
  3  9  1  0  0  0
  3 22  1  0  0  0
  4 15  1  0  0  0
  4 23  1  0  0  0
  5 10  2  0  0  0
  6  7  2  0  0  0
  6  9  1  0  0  0
  6 10  1  0  0  0
  7 11  1  0  0  0
  8 13  2  0  0  0
  8 14  1  0  0  0
  9 12  2  0  0  0
 10 13  1  0  0  0
 11 15  2  0  0  0
 12 15  1  0  0  0
 14 16  2  0  0  0
 14 17  1  0  0  0
 16 18  1  0  0  0
 17 19  2  0  0  0
 18 20  2  0  0  0
 19 20  1  0  0  0
M  END
>  <CHROM.0>
174.86296560,-64.22020750,179.25847182

>  <CHROM.1>
-102.46218061,-7.14173759,6.62983344,-24.96379494,-50.13248195,-5.13392132
16.33263480,0.39362225,-0.30587996,-0.66135561

>  <Name>
5320315

>  <PUBCHEM_ATOM_DEF_STEREO_COUNT>
0

>  <PUBCHEM_ATOM_UDEF_STEREO_COUNT>
0

>  <PUBCHEM_BOND_DEF_STEREO_COUNT>
0

>  <PUBCHEM_BOND_UDEF_STEREO_COUNT>
0

>  <PUBCHEM_CACTVS_TAUTO_COUNT>
12

>  <PUBCHEM_COMPONENT_COUNT>
1

>  <PUBCHEM_COMPOUND_CID>
5320315

>  <PUBCHEM_CONFORMER_DIVERSEORDER>
1
2

>  <PUBCHEM_CONFORMER_ID>
00512E7B00000001

>  <PUBCHEM_CONFORMER_RMSD>
0.6

>  <PUBCHEM_COORDINATE_TYPE>
2
5
10

>  <PUBCHEM_EFFECTIVE_ROTOR_COUNT>
2

>  <PUBCHEM_FEATURE_SELFOVERLAP>
40.625

>  <PUBCHEM_HEAVY_ATOM_COUNT>
21

>  <PUBCHEM_ISOTOPIC_ATOM_COUNT>
0

>  <PUBCHEM_MMFF94_ENERGY>
75.473

>  <PUBCHEM_MMFF94_PARTIAL_CHARGES>
30
1 -0.16
10 0.47
11 -0.15
12 0.08
13 -0.14
14 0.03
15 0.08
16 -0.15
17 -0.15
18 -0.15
19 -0.15
2 -0.36
20 -0.15
21 0.28
22 0.15
23 0.15
24 0.15
25 0.15
26 0.15
27 0.15
28 0.45
29 0.15
3 -0.53
30 0.45
4 -0.53
5 -0.57
6 0.09
7 0.08
8 0.05
9 0.08

>  <PUBCHEM_PHARMACOPHORE_FEATURES>
8
1 1 acceptor
1 2 acceptor
1 3 donor
1 4 donor
1 5 acceptor
6 1 6 7 8 10 13 rings
6 14 16 17 18 19 20 rings
6 6 7 9 11 12 15 rings

>  <PUBCHEM_SHAPE_FINGERPRINT>
10319926 262 18339623639079927362
10411042 1 17689153838918189787
10493431 412 18412550899190905579
10498660 4 18336259038155622404
10608611 8 18341890844582710312
10646746 165 18410291411290866772
11578080 2 16807560661564956135
11595378 159 17603851292036568784
12107183 9 17685765831707532056
12173636 292 18409724054157661710
12236239 1 17385443219831120436
12390115 104 18199200502985526313
12403259 415 18412259523903711936
12596602 18 16588026844156286080
12788726 201 16955089051946383770
12916748 109 18408608050066549664
13081056 2 18413107251663356708
13140716 1 18192439782443455073
13544592 145 18342466902818679814
14341114 176 18411986857957503992
14787075 74 18272365395410613289
14790565 3 18411707556044776401
15042514 8 18191310575201304571
15196674 1 18337952290330464676
18186145 218 18201441354958650840
19784866 170 18335424534979148177
200 152 16988561303619401118
20510252 161 18342457062362639976
20645477 56 18410292536303305356
20645477 70 17274831216770011254
21033648 29 18340193137957187080
21065198 57 18411697734118468002
21236236 1 18342175626547569519
21267235 1 18408613555934976822
21279426 13 18196936574442069094
221357 26 18131628967727941912
22224240 67 18410863166280868131
23175994 123 17346884463726178344
23227448 37 18341047531658640252
23402539 116 18341044211337930942
23559900 14 18343301483852294606
3004659 81 18335425609365050694
335352 9 18411419509941474878
350125 39 18409453600294457093
3545911 37 18413390938949086460
4214541 1 18411417306802742604
474 4 16879355726359951084
474229 33 18409449189436474875
495365 180 17346305034600225762
5104073 3 18189619332838080865
542803 24 17346600768087715024
59755656 215 18338238167506508630
633830 44 18200024032683160908
69090 78 18343298189095660934
77779 3 18412262839955658820
9709674 26 18341898523942401550

>  <PUBCHEM_SHAPE_MULTIPOLES>
402.82
11.67
2.31
0.72
5.74
0.44
-0.06
-3.53
-0.92
-1.26
0.03
-0.06
-0.08
0.71

>  <PUBCHEM_SHAPE_SELFOVERLAP>
895.866

>  <PUBCHEM_SHAPE_VOLUME>
214

>  <RI>
-9.52859e+08

>  <Rbt.Current_Directory>
/root/miniconda3/envs/rdock/share/rxdock-2013.1.1_148c5bd1-0/data/ligands/prepped_ligands/Oryxylin_A

>  <Rbt.Executable>
rbdock/0.1.0

>  <Rbt.Library>
librxdock.so/0.1.0

>  <Rbt.Parameter_File>
/root/miniconda3/envs/rdock/share/rxdock-2013.1.1_148c5bd1-0/data/scripts/dock.prm

>  <Rbt.Receptor>
def.prm

>  <SCORE>
-12.2666

>  <SCORE.INTER>
-11.5742

>  <SCORE.INTER.CONST>
1

>  <SCORE.INTER.POLAR>
-0.0950622

>  <SCORE.INTER.REPUL>
0

>  <SCORE.INTER.ROT>
2

>  <SCORE.INTER.VDW>
-18.651

>  <SCORE.INTER.norm>
-0.551153

>  <SCORE.INTRA>
0.333119

>  <SCORE.INTRA.DIHEDRAL>
-0.448753

>  <SCORE.INTRA.DIHEDRAL.0>
6.0475

>  <SCORE.INTRA.POLAR>
0.0243237

>  <SCORE.INTRA.POLAR.0>
-0.0243237

>  <SCORE.INTRA.REPUL>
0

>  <SCORE.INTRA.REPUL.0>
0

>  <SCORE.INTRA.VDW>
0.474795

>  <SCORE.INTRA.VDW.0>
0.255107

>  <SCORE.INTRA.norm>
0.0158628

>  <SCORE.RESTR>
0

>  <SCORE.RESTR.CAVITY>
0

>  <SCORE.RESTR.norm>
0

>  <SCORE.SYSTEM>
-1.02548

>  <SCORE.SYSTEM.CONST>
0

>  <SCORE.SYSTEM.DIHEDRAL>
0.158164

>  <SCORE.SYSTEM.POLAR>
-8.7974e-05

>  <SCORE.SYSTEM.VDW>
-1.10426

>  <SCORE.SYSTEM.norm>
-0.0488324

>  <SCORE.heavy>
21

>  <SCORE.norm>
-0.584123

$$$$
5320315
  RxDock  02242101313D
librxdock.so/0.1.0
 23 25  0  0  0  0  0  0  0  0999 V2000
  -46.0297   -2.7171   17.6307 O   0  0  0  0  0  0
  -42.5223    1.3575   18.9001 O   0  0  0  0  0  0
  -45.0988    1.9924   18.2618 O   0  0  0  0  0  0
  -41.6958   -1.2804   18.9096 O   0  0  0  0  0  0
  -47.4485    1.1013   17.5550 O   0  0  0  0  0  0
  -45.6166   -0.3427   17.9336 C   0  0  0  0  0  0
  -45.1965   -1.6717   17.9391 C   0  0  0  0  0  0
  -47.3488   -2.4371   17.3080 C   0  0  0  0  0  0
  -44.7235    0.6820   18.2556 C   0  0  0  0  0  0
  -47.0127   -0.0414   17.5825 C   0  0  0  0  0  0
  -43.8771   -1.9844   18.2674 C   0  0  0  0  0  0
  -43.4045    0.3661   18.5840 C   0  0  0  0  0  0
  -47.8696   -1.2006   17.2619 C   0  0  0  0  0  0
  -48.1549   -3.6325   16.9885 C   0  0  0  0  0  0
  -42.9820   -0.9640   18.5899 C   0  0  0  0  0  0
  -47.8044   -4.8773   17.5170 C   0  0  0  0  0  0
  -49.2719   -3.5239   16.1562 C   0  0  0  0  0  0
  -48.5660   -6.0064   17.2151 C   0  0  0  0  0  0
  -50.0335   -4.6530   15.8545 C   0  0  0  0  0  0
  -49.6805   -5.8942   16.3839 C   0  0  0  0  0  0
  -42.4801    1.7751   20.2622 C   0  0  0  0  0  0
  -46.0267    2.0856   17.9987 H   0  0  0  0  0  0
  -41.4980   -2.1649   18.5571 H   0  0  0  0  0  0
  1  7  1  0  0  0
  1  8  1  0  0  0
  2 12  1  0  0  0
  2 21  1  0  0  0
  3  9  1  0  0  0
  3 22  1  0  0  0
  4 15  1  0  0  0
  4 23  1  0  0  0
  5 10  2  0  0  0
  6  7  2  0  0  0
  6  9  1  0  0  0
  6 10  1  0  0  0
  7 11  1  0  0  0
  8 13  2  0  0  0
  8 14  1  0  0  0
  9 12  2  0  0  0
 10 13  1  0  0  0
 11 15  2  0  0  0
 12 15  1  0  0  0
 14 16  2  0  0  0
 14 17  1  0  0  0
 16 18  1  0  0  0
 17 19  2  0  0  0
 18 20  2  0  0  0
 19 20  1  0  0  0
M  END
>  <CHROM.0>
-176.66194528,63.33834906,-174.90469959

>  <CHROM.1>
86.97493338,-1.37775991,20.43307092,25.89173731,-45.93368451,-1.50935961
17.82143727,-2.40588997,-0.32113710,0.06477709

>  <Name>
5320315

>  <PUBCHEM_ATOM_DEF_STEREO_COUNT>
0

>  <PUBCHEM_ATOM_UDEF_STEREO_COUNT>
0

>  <PUBCHEM_BOND_DEF_STEREO_COUNT>
0

>  <PUBCHEM_BOND_UDEF_STEREO_COUNT>
0

>  <PUBCHEM_CACTVS_TAUTO_COUNT>
12

>  <PUBCHEM_COMPONENT_COUNT>
1

>  <PUBCHEM_COMPOUND_CID>
5320315

>  <PUBCHEM_CONFORMER_DIVERSEORDER>
1
2

>  <PUBCHEM_CONFORMER_ID>
00512E7B00000001

>  <PUBCHEM_CONFORMER_RMSD>
0.6

>  <PUBCHEM_COORDINATE_TYPE>
2
5
10

>  <PUBCHEM_EFFECTIVE_ROTOR_COUNT>
2

>  <PUBCHEM_FEATURE_SELFOVERLAP>
40.625

>  <PUBCHEM_HEAVY_ATOM_COUNT>
21

>  <PUBCHEM_ISOTOPIC_ATOM_COUNT>
0

>  <PUBCHEM_MMFF94_ENERGY>
75.473

>  <PUBCHEM_MMFF94_PARTIAL_CHARGES>
30
1 -0.16
10 0.47
11 -0.15
12 0.08
13 -0.14
14 0.03
15 0.08
16 -0.15
17 -0.15
18 -0.15
19 -0.15
2 -0.36
20 -0.15
21 0.28
22 0.15
23 0.15
24 0.15
25 0.15
26 0.15
27 0.15
28 0.45
29 0.15
3 -0.53
30 0.45
4 -0.53
5 -0.57
6 0.09
7 0.08
8 0.05
9 0.08

>  <PUBCHEM_PHARMACOPHORE_FEATURES>
8
1 1 acceptor
1 2 acceptor
1 3 donor
1 4 donor
1 5 acceptor
6 1 6 7 8 10 13 rings
6 14 16 17 18 19 20 rings
6 6 7 9 11 12 15 rings

>  <PUBCHEM_SHAPE_FINGERPRINT>
10319926 262 18339623639079927362
10411042 1 17689153838918189787
10493431 412 18412550899190905579
10498660 4 18336259038155622404
10608611 8 18341890844582710312
10646746 165 18410291411290866772
11578080 2 16807560661564956135
11595378 159 17603851292036568784
12107183 9 17685765831707532056
12173636 292 18409724054157661710
12236239 1 17385443219831120436
12390115 104 18199200502985526313
12403259 415 18412259523903711936
12596602 18 16588026844156286080
12788726 201 16955089051946383770
12916748 109 18408608050066549664
13081056 2 18413107251663356708
13140716 1 18192439782443455073
13544592 145 18342466902818679814
14341114 176 18411986857957503992
14787075 74 18272365395410613289
14790565 3 18411707556044776401
15042514 8 18191310575201304571
15196674 1 18337952290330464676
18186145 218 18201441354958650840
19784866 170 18335424534979148177
200 152 16988561303619401118
20510252 161 18342457062362639976
20645477 56 18410292536303305356
20645477 70 17274831216770011254
21033648 29 18340193137957187080
21065198 57 18411697734118468002
21236236 1 18342175626547569519
21267235 1 18408613555934976822
21279426 13 18196936574442069094
221357 26 18131628967727941912
22224240 67 18410863166280868131
23175994 123 17346884463726178344
23227448 37 18341047531658640252
23402539 116 18341044211337930942
23559900 14 18343301483852294606
3004659 81 18335425609365050694
335352 9 18411419509941474878
350125 39 18409453600294457093
3545911 37 18413390938949086460
4214541 1 18411417306802742604
474 4 16879355726359951084
474229 33 18409449189436474875
495365 180 17346305034600225762
5104073 3 18189619332838080865
542803 24 17346600768087715024
59755656 215 18338238167506508630
633830 44 18200024032683160908
69090 78 18343298189095660934
77779 3 18412262839955658820
9709674 26 18341898523942401550

>  <PUBCHEM_SHAPE_MULTIPOLES>
402.82
11.67
2.31
0.72
5.74
0.44
-0.06
-3.53
-0.92
-1.26
0.03
-0.06
-0.08
0.71

>  <PUBCHEM_SHAPE_SELFOVERLAP>
895.866

>  <PUBCHEM_SHAPE_VOLUME>
214

>  <RI>
-9.52859e+08

>  <Rbt.Current_Directory>
/root/miniconda3/envs/rdock/share/rxdock-2013.1.1_148c5bd1-0/data/ligands/prepped_ligands/Oryxylin_A

>  <Rbt.Executable>
rbdock/0.1.0

>  <Rbt.Library>
librxdock.so/0.1.0

>  <Rbt.Parameter_File>
/root/miniconda3/envs/rdock/share/rxdock-2013.1.1_148c5bd1-0/data/scripts/dock.prm

>  <Rbt.Receptor>
def.prm

>  <SCORE>
-13.0032

>  <SCORE.INTER>
-12.4835

>  <SCORE.INTER.CONST>
1

>  <SCORE.INTER.POLAR>
-1.24022

>  <SCORE.INTER.REPUL>
0

>  <SCORE.INTER.ROT>
2

>  <SCORE.INTER.VDW>
-15.6667

>  <SCORE.INTER.norm>
-0.594452

>  <SCORE.INTRA>
0.468164

>  <SCORE.INTRA.DIHEDRAL>
0.210846

>  <SCORE.INTRA.DIHEDRAL.0>
6.0475

>  <SCORE.INTRA.POLAR>
0.0243237

>  <SCORE.INTRA.POLAR.0>
-0.0243237

>  <SCORE.INTRA.REPUL>
0

>  <SCORE.INTRA.REPUL.0>
0

>  <SCORE.INTRA.VDW>
0.280041

>  <SCORE.INTRA.VDW.0>
0.255107

>  <SCORE.INTRA.norm>
0.0222935

>  <SCORE.RESTR>
0

>  <SCORE.RESTR.CAVITY>
0

>  <SCORE.RESTR.norm>
0

>  <SCORE.SYSTEM>
-0.987876

>  <SCORE.SYSTEM.CONST>
0

>  <SCORE.SYSTEM.DIHEDRAL>
0.139594

>  <SCORE.SYSTEM.POLAR>
-0.012352

>  <SCORE.SYSTEM.VDW>
-1.01568

>  <SCORE.SYSTEM.norm>
-0.0470417

>  <SCORE.heavy>
21

>  <SCORE.norm>
-0.619201

$$$$
5320315
  RxDock  02242101313D
librxdock.so/0.1.0
 23 25  0  0  0  0  0  0  0  0999 V2000
  -52.8632   -4.3790   14.8550 O   0  0  0  0  0  0
  -49.8662    0.1507   15.8634 O   0  0  0  0  0  0
  -50.9976   -1.1716   17.9658 O   0  0  0  0  0  0
  -50.2193   -0.7712   13.2813 O   0  0  0  0  0  0
  -52.4682   -3.1882   18.7312 O   0  0  0  0  0  0
  -51.9516   -2.7983   16.4584 C   0  0  0  0  0  0
  -52.1279   -3.2603   15.1553 C   0  0  0  0  0  0
  -53.4484   -5.0835   15.8960 C   0  0  0  0  0  0
  -51.1924   -1.6520   16.7051 C   0  0  0  0  0  0
  -52.5789   -3.5379   17.5642 C   0  0  0  0  0  0
  -51.5444   -2.5765   14.0883 C   0  0  0  0  0  0
  -50.6097   -0.9704   15.6360 C   0  0  0  0  0  0
  -53.3568   -4.7360   17.1895 C   0  0  0  0  0  0
  -54.2199   -6.2653   15.4615 C   0  0  0  0  0  0
  -50.7852   -1.4313   14.3305 C   0  0  0  0  0  0
  -55.0296   -6.1961   14.3251 C   0  0  0  0  0  0
  -54.1436   -7.4582   16.1849 C   0  0  0  0  0  0
  -55.7584   -7.3125   13.9147 C   0  0  0  0  0  0
  -54.8723   -8.5747   15.7744 C   0  0  0  0  0  0
  -55.6797   -8.5017   14.6393 C   0  0  0  0  0  0
  -48.6161   -0.0261   16.5247 C   0  0  0  0  0  0
  -51.6971   -1.4778   18.5624 H   0  0  0  0  0  0
  -49.9653   -1.4234   12.6061 H   0  0  0  0  0  0
  1  7  1  0  0  0
  1  8  1  0  0  0
  2 12  1  0  0  0
  2 21  1  0  0  0
  3  9  1  0  0  0
  3 22  1  0  0  0
  4 15  1  0  0  0
  4 23  1  0  0  0
  5 10  2  0  0  0
  6  7  2  0  0  0
  6  9  1  0  0  0
  6 10  1  0  0  0
  7 11  1  0  0  0
  8 13  2  0  0  0
  8 14  1  0  0  0
  9 12  2  0  0  0
 10 13  1  0  0  0
 11 15  2  0  0  0
 12 15  1  0  0  0
 14 16  2  0  0  0
 14 17  1  0  0  0
 16 18  1  0  0  0
 17 19  2  0  0  0
 18 20  2  0  0  0
 19 20  1  0  0  0
M  END
>  <CHROM.0>
-61.97381758,-61.79904007,-178.25770765

>  <CHROM.1>
68.94576488,-22.74133757,-34.05152383,-41.09400255,-52.39993320,-3.67188577
15.76104320,-3.03438391,0.94811349,1.54703192

>  <Name>
5320315

>  <PUBCHEM_ATOM_DEF_STEREO_COUNT>
0

>  <PUBCHEM_ATOM_UDEF_STEREO_COUNT>
0

>  <PUBCHEM_BOND_DEF_STEREO_COUNT>
0

>  <PUBCHEM_BOND_UDEF_STEREO_COUNT>
0

>  <PUBCHEM_CACTVS_TAUTO_COUNT>
12

>  <PUBCHEM_COMPONENT_COUNT>
1

>  <PUBCHEM_COMPOUND_CID>
5320315

>  <PUBCHEM_CONFORMER_DIVERSEORDER>
1
2

>  <PUBCHEM_CONFORMER_ID>
00512E7B00000001

>  <PUBCHEM_CONFORMER_RMSD>
0.6

>  <PUBCHEM_COORDINATE_TYPE>
2
5
10

>  <PUBCHEM_EFFECTIVE_ROTOR_COUNT>
2

>  <PUBCHEM_FEATURE_SELFOVERLAP>
40.625

>  <PUBCHEM_HEAVY_ATOM_COUNT>
21

>  <PUBCHEM_ISOTOPIC_ATOM_COUNT>
0

>  <PUBCHEM_MMFF94_ENERGY>
75.473

>  <PUBCHEM_MMFF94_PARTIAL_CHARGES>
30
1 -0.16
10 0.47
11 -0.15
12 0.08
13 -0.14
14 0.03
15 0.08
16 -0.15
17 -0.15
18 -0.15
19 -0.15
2 -0.36
20 -0.15
21 0.28
22 0.15
23 0.15
24 0.15
25 0.15
26 0.15
27 0.15
28 0.45
29 0.15
3 -0.53
30 0.45
4 -0.53
5 -0.57
6 0.09
7 0.08
8 0.05
9 0.08

>  <PUBCHEM_PHARMACOPHORE_FEATURES>
8
1 1 acceptor
1 2 acceptor
1 3 donor
1 4 donor
1 5 acceptor
6 1 6 7 8 10 13 rings
6 14 16 17 18 19 20 rings
6 6 7 9 11 12 15 rings

>  <PUBCHEM_SHAPE_FINGERPRINT>
10319926 262 18339623639079927362
10411042 1 17689153838918189787
10493431 412 18412550899190905579
10498660 4 18336259038155622404
10608611 8 18341890844582710312
10646746 165 18410291411290866772
11578080 2 16807560661564956135
11595378 159 17603851292036568784
12107183 9 17685765831707532056
12173636 292 18409724054157661710
12236239 1 17385443219831120436
12390115 104 18199200502985526313
12403259 415 18412259523903711936
12596602 18 16588026844156286080
12788726 201 16955089051946383770
12916748 109 18408608050066549664
13081056 2 18413107251663356708
13140716 1 18192439782443455073
13544592 145 18342466902818679814
14341114 176 18411986857957503992
14787075 74 18272365395410613289
14790565 3 18411707556044776401
15042514 8 18191310575201304571
15196674 1 18337952290330464676
18186145 218 18201441354958650840
19784866 170 18335424534979148177
200 152 16988561303619401118
20510252 161 18342457062362639976
20645477 56 18410292536303305356
20645477 70 17274831216770011254
21033648 29 18340193137957187080
21065198 57 18411697734118468002
21236236 1 18342175626547569519
21267235 1 18408613555934976822
21279426 13 18196936574442069094
221357 26 18131628967727941912
22224240 67 18410863166280868131
23175994 123 17346884463726178344
23227448 37 18341047531658640252
23402539 116 18341044211337930942
23559900 14 18343301483852294606
3004659 81 18335425609365050694
335352 9 18411419509941474878
350125 39 18409453600294457093
3545911 37 18413390938949086460
4214541 1 18411417306802742604
474 4 16879355726359951084
474229 33 18409449189436474875
495365 180 17346305034600225762
5104073 3 18189619332838080865
542803 24 17346600768087715024
59755656 215 18338238167506508630
633830 44 18200024032683160908
69090 78 18343298189095660934
77779 3 18412262839955658820
9709674 26 18341898523942401550

>  <PUBCHEM_SHAPE_MULTIPOLES>
402.82
11.67
2.31
0.72
5.74
0.44
-0.06
-3.53
-0.92
-1.26
0.03
-0.06
-0.08
0.71

>  <PUBCHEM_SHAPE_SELFOVERLAP>
895.866

>  <PUBCHEM_SHAPE_VOLUME>
214

>  <RI>
-9.52859e+08

>  <Rbt.Current_Directory>
/root/miniconda3/envs/rdock/share/rxdock-2013.1.1_148c5bd1-0/data/ligands/prepped_ligands/Oryxylin_A

>  <Rbt.Executable>
rbdock/0.1.0

>  <Rbt.Library>
librxdock.so/0.1.0

>  <Rbt.Parameter_File>
/root/miniconda3/envs/rdock/share/rxdock-2013.1.1_148c5bd1-0/data/scripts/dock.prm

>  <Rbt.Receptor>
def.prm

>  <SCORE>
-16.3432

>  <SCORE.INTER>
-16.5458

>  <SCORE.INTER.CONST>
1

>  <SCORE.INTER.POLAR>
-1.26635

>  <SCORE.INTER.REPUL>
0

>  <SCORE.INTER.ROT>
2

>  <SCORE.INTER.VDW>
-19.6402

>  <SCORE.INTER.norm>
-0.787897

>  <SCORE.INTRA>
1.30215

>  <SCORE.INTRA.DIHEDRAL>
2.46555

>  <SCORE.INTRA.DIHEDRAL.0>
6.0475

>  <SCORE.INTRA.POLAR>
0.0243237

>  <SCORE.INTRA.POLAR.0>
-0.0243237

>  <SCORE.INTRA.REPUL>
0

>  <SCORE.INTRA.REPUL.0>
0

>  <SCORE.INTRA.VDW>
-0.0133261

>  <SCORE.INTRA.VDW.0>
0.255107

>  <SCORE.INTRA.norm>
0.0620072

>  <SCORE.RESTR>
0

>  <SCORE.RESTR.CAVITY>
0

>  <SCORE.RESTR.norm>
0

>  <SCORE.SYSTEM>
-1.09951

>  <SCORE.SYSTEM.CONST>
0

>  <SCORE.SYSTEM.DIHEDRAL>
0.0332865

>  <SCORE.SYSTEM.POLAR>
-0.00607716

>  <SCORE.SYSTEM.VDW>
-1.0955

>  <SCORE.SYSTEM.norm>
-0.0523578

>  <SCORE.heavy>
21

>  <SCORE.norm>
-0.778247

$$$$
5320315
  RxDock  02242101313D
librxdock.so/0.1.0
 23 25  0  0  0  0  0  0  0  0999 V2000
  -49.9133   -3.9405   15.8352 O   0  0  0  0  0  0
  -45.1677   -1.3873   17.0505 O   0  0  0  0  0  0
  -47.1042   -1.5438   18.9673 O   0  0  0  0  0  0
  -45.5849   -2.4922   14.5511 O   0  0  0  0  0  0
  -49.5016   -2.3788   19.5756 O   0  0  0  0  0  0
  -48.5454   -2.7419   17.4454 C   0  0  0  0  0  0
  -48.7525   -3.2976   16.1840 C   0  0  0  0  0  0
  -50.9192   -4.0478   16.7834 C   0  0  0  0  0  0
  -47.3426   -2.0978   17.7448 C   0  0  0  0  0  0
  -49.6141   -2.8456   18.4505 C   0  0  0  0  0  0
  -47.7553   -3.2120   15.2121 C   0  0  0  0  0  0
  -46.3468   -2.0141   16.7709 C   0  0  0  0  0  0
  -50.8417   -3.5491   18.0275 C   0  0  0  0  0  0
  -52.1247   -4.7521   16.3021 C   0  0  0  0  0  0
  -46.5524   -2.5698   15.5073 C   0  0  0  0  0  0
  -52.5458   -5.9292   16.9257 C   0  0  0  0  0  0
  -52.8496   -4.2444   15.2210 C   0  0  0  0  0  0
  -53.6845   -6.5945   16.4710 C   0  0  0  0  0  0
  -53.9884   -4.9096   14.7664 C   0  0  0  0  0  0
  -54.4057   -6.0847   15.3914 C   0  0  0  0  0  0
  -44.1368   -2.1802   17.6337 C   0  0  0  0  0  0
  -47.9250   -1.2095   19.3592 H   0  0  0  0  0  0
  -46.0055   -2.2714   13.7025 H   0  0  0  0  0  0
  1  7  1  0  0  0
  1  8  1  0  0  0
  2 12  1  0  0  0
  2 21  1  0  0  0
  3  9  1  0  0  0
  3 22  1  0  0  0
  4 15  1  0  0  0
  4 23  1  0  0  0
  5 10  2  0  0  0
  6  7  2  0  0  0
  6  9  1  0  0  0
  6 10  1  0  0  0
  7 11  1  0  0  0
  8 13  2  0  0  0
  8 14  1  0  0  0
  9 12  2  0  0  0
 10 13  1  0  0  0
 11 15  2  0  0  0
 12 15  1  0  0  0
 14 16  2  0  0  0
 14 17  1  0  0  0
 16 18  1  0  0  0
 17 19  2  0  0  0
 18 20  2  0  0  0
 19 20  1  0  0  0
M  END
>  <CHROM.0>
46.59602981,-61.18384984,173.70379590

>  <CHROM.1>
87.76613135,-32.08068427,42.54234850,119.16255429,-49.27382693,-3.39919811
16.73114141,-2.90296379,0.38203340,1.29309242

>  <Name>
5320315

>  <PUBCHEM_ATOM_DEF_STEREO_COUNT>
0

>  <PUBCHEM_ATOM_UDEF_STEREO_COUNT>
0

>  <PUBCHEM_BOND_DEF_STEREO_COUNT>
0

>  <PUBCHEM_BOND_UDEF_STEREO_COUNT>
0

>  <PUBCHEM_CACTVS_TAUTO_COUNT>
12

>  <PUBCHEM_COMPONENT_COUNT>
1

>  <PUBCHEM_COMPOUND_CID>
5320315

>  <PUBCHEM_CONFORMER_DIVERSEORDER>
1
2

>  <PUBCHEM_CONFORMER_ID>
00512E7B00000001

>  <PUBCHEM_CONFORMER_RMSD>
0.6

>  <PUBCHEM_COORDINATE_TYPE>
2
5
10

>  <PUBCHEM_EFFECTIVE_ROTOR_COUNT>
2

>  <PUBCHEM_FEATURE_SELFOVERLAP>
40.625

>  <PUBCHEM_HEAVY_ATOM_COUNT>
21

>  <PUBCHEM_ISOTOPIC_ATOM_COUNT>
0

>  <PUBCHEM_MMFF94_ENERGY>
75.473

>  <PUBCHEM_MMFF94_PARTIAL_CHARGES>
30
1 -0.16
10 0.47
11 -0.15
12 0.08
13 -0.14
14 0.03
15 0.08
16 -0.15
17 -0.15
18 -0.15
19 -0.15
2 -0.36
20 -0.15
21 0.28
22 0.15
23 0.15
24 0.15
25 0.15
26 0.15
27 0.15
28 0.45
29 0.15
3 -0.53
30 0.45
4 -0.53
5 -0.57
6 0.09
7 0.08
8 0.05
9 0.08

>  <PUBCHEM_PHARMACOPHORE_FEATURES>
8
1 1 acceptor
1 2 acceptor
1 3 donor
1 4 donor
1 5 acceptor
6 1 6 7 8 10 13 rings
6 14 16 17 18 19 20 rings
6 6 7 9 11 12 15 rings

>  <PUBCHEM_SHAPE_FINGERPRINT>
10319926 262 18339623639079927362
10411042 1 17689153838918189787
10493431 412 18412550899190905579
10498660 4 18336259038155622404
10608611 8 18341890844582710312
10646746 165 18410291411290866772
11578080 2 16807560661564956135
11595378 159 17603851292036568784
12107183 9 17685765831707532056
12173636 292 18409724054157661710
12236239 1 17385443219831120436
12390115 104 18199200502985526313
12403259 415 18412259523903711936
12596602 18 16588026844156286080
12788726 201 16955089051946383770
12916748 109 18408608050066549664
13081056 2 18413107251663356708
13140716 1 18192439782443455073
13544592 145 18342466902818679814
14341114 176 18411986857957503992
14787075 74 18272365395410613289
14790565 3 18411707556044776401
15042514 8 18191310575201304571
15196674 1 18337952290330464676
18186145 218 18201441354958650840
19784866 170 18335424534979148177
200 152 16988561303619401118
20510252 161 18342457062362639976
20645477 56 18410292536303305356
20645477 70 17274831216770011254
21033648 29 18340193137957187080
21065198 57 18411697734118468002
21236236 1 18342175626547569519
21267235 1 18408613555934976822
21279426 13 18196936574442069094
221357 26 18131628967727941912
22224240 67 18410863166280868131
23175994 123 17346884463726178344
23227448 37 18341047531658640252
23402539 116 18341044211337930942
23559900 14 18343301483852294606
3004659 81 18335425609365050694
335352 9 18411419509941474878
350125 39 18409453600294457093
3545911 37 18413390938949086460
4214541 1 18411417306802742604
474 4 16879355726359951084
474229 33 18409449189436474875
495365 180 17346305034600225762
5104073 3 18189619332838080865
542803 24 17346600768087715024
59755656 215 18338238167506508630
633830 44 18200024032683160908
69090 78 18343298189095660934
77779 3 18412262839955658820
9709674 26 18341898523942401550

>  <PUBCHEM_SHAPE_MULTIPOLES>
402.82
11.67
2.31
0.72
5.74
0.44
-0.06
-3.53
-0.92
-1.26
0.03
-0.06
-0.08
0.71

>  <PUBCHEM_SHAPE_SELFOVERLAP>
895.866

>  <PUBCHEM_SHAPE_VOLUME>
214

>  <RI>
-9.52859e+08

>  <Rbt.Current_Directory>
/root/miniconda3/envs/rdock/share/rxdock-2013.1.1_148c5bd1-0/data/ligands/prepped_ligands/Oryxylin_A

>  <Rbt.Executable>
rbdock/0.1.0

>  <Rbt.Library>
librxdock.so/0.1.0

>  <Rbt.Parameter_File>
/root/miniconda3/envs/rdock/share/rxdock-2013.1.1_148c5bd1-0/data/scripts/dock.prm

>  <Rbt.Receptor>
def.prm

>  <SCORE>
-9.66937

>  <SCORE.INTER>
-10.9829

>  <SCORE.INTER.CONST>
1

>  <SCORE.INTER.POLAR>
-1.25296

>  <SCORE.INTER.REPUL>
0

>  <SCORE.INTER.ROT>
2

>  <SCORE.INTER.VDW>
-14.1228

>  <SCORE.INTER.norm>
-0.522995

>  <SCORE.INTRA>
2.07283

>  <SCORE.INTRA.DIHEDRAL>
5.98381

>  <SCORE.INTRA.DIHEDRAL.0>
6.0475

>  <SCORE.INTRA.POLAR>
0.0243237

>  <SCORE.INTRA.POLAR.0>
-0.0243237

>  <SCORE.INTRA.REPUL>
0

>  <SCORE.INTRA.REPUL.0>
0

>  <SCORE.INTRA.VDW>
-1.00178

>  <SCORE.INTRA.VDW.0>
0.255107

>  <SCORE.INTRA.norm>
0.0987062

>  <SCORE.RESTR>
0

>  <SCORE.RESTR.CAVITY>
0

>  <SCORE.RESTR.norm>
0

>  <SCORE.SYSTEM>
-0.759299

>  <SCORE.SYSTEM.CONST>
0

>  <SCORE.SYSTEM.DIHEDRAL>
0.543584

>  <SCORE.SYSTEM.VDW>
-1.03109

>  <SCORE.SYSTEM.norm>
-0.0361571

>  <SCORE.heavy>
21

>  <SCORE.norm>
-0.460446

$$$$
5320315
  RxDock  02242101313D
librxdock.so/0.1.0
 23 25  0  0  0  0  0  0  0  0999 V2000
  -50.5228   -0.4642   13.2503 O   0  0  0  0  0  0
  -50.6674   -5.3596   15.8056 O   0  0  0  0  0  0
  -48.2768   -4.0611   15.5875 O   0  0  0  0  0  0
  -52.9675   -4.2341   14.7645 O   0  0  0  0  0  0
  -47.0205   -1.9471   14.7112 O   0  0  0  0  0  0
  -49.3468   -2.2406   14.4173 C   0  0  0  0  0  0
  -50.5085   -1.6761   13.8933 C   0  0  0  0  0  0
  -49.3296    0.2309   13.1252 C   0  0  0  0  0  0
  -49.3917   -3.4790   15.0619 C   0  0  0  0  0  0
  -48.0778   -1.5103   14.2779 C   0  0  0  0  0  0
  -51.7250   -2.3487   14.0111 C   0  0  0  0  0  0
  -50.6101   -4.1493   15.1787 C   0  0  0  0  0  0
  -48.1464   -0.2099   13.5814 C   0  0  0  0  0  0
  -49.4572    1.5185   12.4132 C   0  0  0  0  0  0
  -51.7742   -3.5857   14.6544 C   0  0  0  0  0  0
  -48.3880    2.0151   11.6637 C   0  0  0  0  0  0
  -50.6479    2.2458   12.4860 C   0  0  0  0  0  0
  -48.5086    3.2313   10.9912 C   0  0  0  0  0  0
  -50.7686    3.4619   11.8134 C   0  0  0  0  0  0
  -49.6989    3.9547   11.0661 C   0  0  0  0  0  0
  -51.4986   -5.4508   16.9599 C   0  0  0  0  0  0
  -47.5185   -3.4599   15.5366 H   0  0  0  0  0  0
  -53.6600   -3.6768   14.3699 H   0  0  0  0  0  0
  1  7  1  0  0  0
  1  8  1  0  0  0
  2 12  1  0  0  0
  2 21  1  0  0  0
  3  9  1  0  0  0
  3 22  1  0  0  0
  4 15  1  0  0  0
  4 23  1  0  0  0
  5 10  2  0  0  0
  6  7  2  0  0  0
  6  9  1  0  0  0
  6 10  1  0  0  0
  7 11  1  0  0  0
  8 13  2  0  0  0
  8 14  1  0  0  0
  9 12  2  0  0  0
 10 13  1  0  0  0
 11 15  2  0  0  0
 12 15  1  0  0  0
 14 16  2  0  0  0
 14 17  1  0  0  0
 16 18  1  0  0  0
 17 19  2  0  0  0
 18 20  2  0  0  0
 19 20  1  0  0  0
M  END
>  <CHROM.0>
-179.98251800,-68.20558690,55.64891603

>  <CHROM.1>
119.55021457,6.50569575,-1.85419345,-149.55974559,-49.89227404,-1.28144929
13.87102388,1.40707582,-0.09266095,-0.50470175

>  <Name>
5320315

>  <PUBCHEM_ATOM_DEF_STEREO_COUNT>
0

>  <PUBCHEM_ATOM_UDEF_STEREO_COUNT>
0

>  <PUBCHEM_BOND_DEF_STEREO_COUNT>
0

>  <PUBCHEM_BOND_UDEF_STEREO_COUNT>
0

>  <PUBCHEM_CACTVS_TAUTO_COUNT>
12

>  <PUBCHEM_COMPONENT_COUNT>
1

>  <PUBCHEM_COMPOUND_CID>
5320315

>  <PUBCHEM_CONFORMER_DIVERSEORDER>
1
2

>  <PUBCHEM_CONFORMER_ID>
00512E7B00000001

>  <PUBCHEM_CONFORMER_RMSD>
0.6

>  <PUBCHEM_COORDINATE_TYPE>
2
5
10

>  <PUBCHEM_EFFECTIVE_ROTOR_COUNT>
2

>  <PUBCHEM_FEATURE_SELFOVERLAP>
40.625

>  <PUBCHEM_HEAVY_ATOM_COUNT>
21

>  <PUBCHEM_ISOTOPIC_ATOM_COUNT>
0

>  <PUBCHEM_MMFF94_ENERGY>
75.473

>  <PUBCHEM_MMFF94_PARTIAL_CHARGES>
30
1 -0.16
10 0.47
11 -0.15
12 0.08
13 -0.14
14 0.03
15 0.08
16 -0.15
17 -0.15
18 -0.15
19 -0.15
2 -0.36
20 -0.15
21 0.28
22 0.15
23 0.15
24 0.15
25 0.15
26 0.15
27 0.15
28 0.45
29 0.15
3 -0.53
30 0.45
4 -0.53
5 -0.57
6 0.09
7 0.08
8 0.05
9 0.08

>  <PUBCHEM_PHARMACOPHORE_FEATURES>
8
1 1 acceptor
1 2 acceptor
1 3 donor
1 4 donor
1 5 acceptor
6 1 6 7 8 10 13 rings
6 14 16 17 18 19 20 rings
6 6 7 9 11 12 15 rings

>  <PUBCHEM_SHAPE_FINGERPRINT>
10319926 262 18339623639079927362
10411042 1 17689153838918189787
10493431 412 18412550899190905579
10498660 4 18336259038155622404
10608611 8 18341890844582710312
10646746 165 18410291411290866772
11578080 2 16807560661564956135
11595378 159 17603851292036568784
12107183 9 17685765831707532056
12173636 292 18409724054157661710
12236239 1 17385443219831120436
12390115 104 18199200502985526313
12403259 415 18412259523903711936
12596602 18 16588026844156286080
12788726 201 16955089051946383770
12916748 109 18408608050066549664
13081056 2 18413107251663356708
13140716 1 18192439782443455073
13544592 145 18342466902818679814
14341114 176 18411986857957503992
14787075 74 18272365395410613289
14790565 3 18411707556044776401
15042514 8 18191310575201304571
15196674 1 18337952290330464676
18186145 218 18201441354958650840
19784866 170 18335424534979148177
200 152 16988561303619401118
20510252 161 18342457062362639976
20645477 56 18410292536303305356
20645477 70 17274831216770011254
21033648 29 18340193137957187080
21065198 57 18411697734118468002
21236236 1 18342175626547569519
21267235 1 18408613555934976822
21279426 13 18196936574442069094
221357 26 18131628967727941912
22224240 67 18410863166280868131
23175994 123 17346884463726178344
23227448 37 18341047531658640252
23402539 116 18341044211337930942
23559900 14 18343301483852294606
3004659 81 18335425609365050694
335352 9 18411419509941474878
350125 39 18409453600294457093
3545911 37 18413390938949086460
4214541 1 18411417306802742604
474 4 16879355726359951084
474229 33 18409449189436474875
495365 180 17346305034600225762
5104073 3 18189619332838080865
542803 24 17346600768087715024
59755656 215 18338238167506508630
633830 44 18200024032683160908
69090 78 18343298189095660934
77779 3 18412262839955658820
9709674 26 18341898523942401550

>  <PUBCHEM_SHAPE_MULTIPOLES>
402.82
11.67
2.31
0.72
5.74
0.44
-0.06
-3.53
-0.92
-1.26
0.03
-0.06
-0.08
0.71

>  <PUBCHEM_SHAPE_SELFOVERLAP>
895.866

>  <PUBCHEM_SHAPE_VOLUME>
214

>  <RI>
-9.52859e+08

>  <Rbt.Current_Directory>
/root/miniconda3/envs/rdock/share/rxdock-2013.1.1_148c5bd1-0/data/ligands/prepped_ligands/Oryxylin_A

>  <Rbt.Executable>
rbdock/0.1.0

>  <Rbt.Library>
librxdock.so/0.1.0

>  <Rbt.Parameter_File>
/root/miniconda3/envs/rdock/share/rxdock-2013.1.1_148c5bd1-0/data/scripts/dock.prm

>  <Rbt.Receptor>
def.prm

>  <SCORE>
-19.5687

>  <SCORE.INTER>
-19.3233

>  <SCORE.INTER.CONST>
1

>  <SCORE.INTER.POLAR>
-1.35109

>  <SCORE.INTER.REPUL>
0.130293

>  <SCORE.INTER.ROT>
2

>  <SCORE.INTER.VDW>
-22.7811

>  <SCORE.INTER.norm>
-0.920157

>  <SCORE.INTRA>
0.704147

>  <SCORE.INTRA.DIHEDRAL>
-1.14832

>  <SCORE.INTRA.DIHEDRAL.0>
6.0475

>  <SCORE.INTRA.POLAR>
0.0243237

>  <SCORE.INTRA.POLAR.0>
-0.0243237

>  <SCORE.INTRA.REPUL>
0

>  <SCORE.INTRA.REPUL.0>
0

>  <SCORE.INTRA.VDW>
1.19561

>  <SCORE.INTRA.VDW.0>
0.255107

>  <SCORE.INTRA.norm>
0.0335308

>  <SCORE.RESTR>
0

>  <SCORE.RESTR.CAVITY>
0

>  <SCORE.RESTR.norm>
0

>  <SCORE.SYSTEM>
-0.949581

>  <SCORE.SYSTEM.CONST>
0

>  <SCORE.SYSTEM.DIHEDRAL>
0.377404

>  <SCORE.SYSTEM.VDW>
-1.13828

>  <SCORE.SYSTEM.norm>
-0.0452181

>  <SCORE.heavy>
21

>  <SCORE.norm>
-0.931845

$$$$
5320315
  RxDock  02242101313D
librxdock.so/0.1.0
 23 25  0  0  0  0  0  0  0  0999 V2000
  -50.8733   -4.3529   16.1511 O   0  0  0  0  0  0
  -46.6213   -0.8282   16.2674 O   0  0  0  0  0  0
  -48.8116   -0.1962   14.7668 O   0  0  0  0  0  0
  -46.5452   -3.1910   17.7002 O   0  0  0  0  0  0
  -51.1864   -0.9280   13.9669 O   0  0  0  0  0  0
  -49.8852   -2.2558   15.4256 C   0  0  0  0  0  0
  -49.8433   -3.4465   16.1490 C   0  0  0  0  0  0
  -52.0073   -4.0654   15.4069 C   0  0  0  0  0  0
  -48.8058   -1.3699   15.4601 C   0  0  0  0  0  0
  -51.0828   -1.9523   14.6276 C   0  0  0  0  0  0
  -48.7186   -3.7589   16.9130 C   0  0  0  0  0  0
  -47.6823   -1.6848   16.2256 C   0  0  0  0  0  0
  -52.1641   -2.9573   14.6654 C   0  0  0  0  0  0
  -53.0502   -5.1088   15.4754 C   0  0  0  0  0  0
  -47.6386   -2.8766   16.9504 C   0  0  0  0  0  0
  -52.8980   -6.1979   16.3370 C   0  0  0  0  0  0
  -54.1939   -5.0114   14.6787 C   0  0  0  0  0  0
  -53.8832   -7.1834   16.4016 C   0  0  0  0  0  0
  -55.1791   -5.9969   14.7435 C   0  0  0  0  0  0
  -55.0236   -7.0829   15.6049 C   0  0  0  0  0  0
  -46.5227    0.0233   17.4063 C   0  0  0  0  0  0
  -47.9394    0.2249   14.7962 H   0  0  0  0  0  0
  -46.4237   -4.1557   17.6807 H   0  0  0  0  0  0
  1  7  1  0  0  0
  1  8  1  0  0  0
  2 12  1  0  0  0
  2 21  1  0  0  0
  3  9  1  0  0  0
  3 22  1  0  0  0
  4 15  1  0  0  0
  4 23  1  0  0  0
  5 10  2  0  0  0
  6  7  2  0  0  0
  6  9  1  0  0  0
  6 10  1  0  0  0
  7 11  1  0  0  0
  8 13  2  0  0  0
  8 14  1  0  0  0
  9 12  2  0  0  0
 10 13  1  0  0  0
 11 15  2  0  0  0
 12 15  1  0  0  0
 14 16  2  0  0  0
 14 17  1  0  0  0
 16 18  1  0  0  0
 17 19  2  0  0  0
 18 20  2  0  0  0
 19 20  1  0  0  0
M  END
>  <CHROM.0>
-55.77309267,-67.19706233,-59.78639344

>  <CHROM.1>
99.84944098,-171.40226988,33.75634639,5.91495141,-50.47065024,-3.25780875
15.79353099,-2.69572708,-0.45482829,-0.53589515

>  <Name>
5320315

>  <PUBCHEM_ATOM_DEF_STEREO_COUNT>
0

>  <PUBCHEM_ATOM_UDEF_STEREO_COUNT>
0

>  <PUBCHEM_BOND_DEF_STEREO_COUNT>
0

>  <PUBCHEM_BOND_UDEF_STEREO_COUNT>
0

>  <PUBCHEM_CACTVS_TAUTO_COUNT>
12

>  <PUBCHEM_COMPONENT_COUNT>
1

>  <PUBCHEM_COMPOUND_CID>
5320315

>  <PUBCHEM_CONFORMER_DIVERSEORDER>
1
2

>  <PUBCHEM_CONFORMER_ID>
00512E7B00000001

>  <PUBCHEM_CONFORMER_RMSD>
0.6

>  <PUBCHEM_COORDINATE_TYPE>
2
5
10

>  <PUBCHEM_EFFECTIVE_ROTOR_COUNT>
2

>  <PUBCHEM_FEATURE_SELFOVERLAP>
40.625

>  <PUBCHEM_HEAVY_ATOM_COUNT>
21

>  <PUBCHEM_ISOTOPIC_ATOM_COUNT>
0

>  <PUBCHEM_MMFF94_ENERGY>
75.473

>  <PUBCHEM_MMFF94_PARTIAL_CHARGES>
30
1 -0.16
10 0.47
11 -0.15
12 0.08
13 -0.14
14 0.03
15 0.08
16 -0.15
17 -0.15
18 -0.15
19 -0.15
2 -0.36
20 -0.15
21 0.28
22 0.15
23 0.15
24 0.15
25 0.15
26 0.15
27 0.15
28 0.45
29 0.15
3 -0.53
30 0.45
4 -0.53
5 -0.57
6 0.09
7 0.08
8 0.05
9 0.08

>  <PUBCHEM_PHARMACOPHORE_FEATURES>
8
1 1 acceptor
1 2 acceptor
1 3 donor
1 4 donor
1 5 acceptor
6 1 6 7 8 10 13 rings
6 14 16 17 18 19 20 rings
6 6 7 9 11 12 15 rings

>  <PUBCHEM_SHAPE_FINGERPRINT>
10319926 262 18339623639079927362
10411042 1 17689153838918189787
10493431 412 18412550899190905579
10498660 4 18336259038155622404
10608611 8 18341890844582710312
10646746 165 18410291411290866772
11578080 2 16807560661564956135
11595378 159 17603851292036568784
12107183 9 17685765831707532056
12173636 292 18409724054157661710
12236239 1 17385443219831120436
12390115 104 18199200502985526313
12403259 415 18412259523903711936
12596602 18 16588026844156286080
12788726 201 16955089051946383770
12916748 109 18408608050066549664
13081056 2 18413107251663356708
13140716 1 18192439782443455073
13544592 145 18342466902818679814
14341114 176 18411986857957503992
14787075 74 18272365395410613289
14790565 3 18411707556044776401
15042514 8 18191310575201304571
15196674 1 18337952290330464676
18186145 218 18201441354958650840
19784866 170 18335424534979148177
200 152 16988561303619401118
20510252 161 18342457062362639976
20645477 56 18410292536303305356
20645477 70 17274831216770011254
21033648 29 18340193137957187080
21065198 57 18411697734118468002
21236236 1 18342175626547569519
21267235 1 18408613555934976822
21279426 13 18196936574442069094
221357 26 18131628967727941912
22224240 67 18410863166280868131
23175994 123 17346884463726178344
23227448 37 18341047531658640252
23402539 116 18341044211337930942
23559900 14 18343301483852294606
3004659 81 18335425609365050694
335352 9 18411419509941474878
350125 39 18409453600294457093
3545911 37 18413390938949086460
4214541 1 18411417306802742604
474 4 16879355726359951084
474229 33 18409449189436474875
495365 180 17346305034600225762
5104073 3 18189619332838080865
542803 24 17346600768087715024
59755656 215 18338238167506508630
633830 44 18200024032683160908
69090 78 18343298189095660934
77779 3 18412262839955658820
9709674 26 18341898523942401550

>  <PUBCHEM_SHAPE_MULTIPOLES>
402.82
11.67
2.31
0.72
5.74
0.44
-0.06
-3.53
-0.92
-1.26
0.03
-0.06
-0.08
0.71

>  <PUBCHEM_SHAPE_SELFOVERLAP>
895.866

>  <PUBCHEM_SHAPE_VOLUME>
214

>  <RI>
-9.52859e+08

>  <Rbt.Current_Directory>
/root/miniconda3/envs/rdock/share/rxdock-2013.1.1_148c5bd1-0/data/ligands/prepped_ligands/Oryxylin_A

>  <Rbt.Executable>
rbdock/0.1.0

>  <Rbt.Library>
librxdock.so/0.1.0

>  <Rbt.Parameter_File>
/root/miniconda3/envs/rdock/share/rxdock-2013.1.1_148c5bd1-0/data/scripts/dock.prm

>  <Rbt.Receptor>
def.prm

>  <SCORE>
-14.2758

>  <SCORE.INTER>
-13.6309

>  <SCORE.INTER.CONST>
1

>  <SCORE.INTER.POLAR>
-1.26449

>  <SCORE.INTER.REPUL>
0.0293716

>  <SCORE.INTER.ROT>
2

>  <SCORE.INTER.VDW>
-16.8785

>  <SCORE.INTER.norm>
-0.64909

>  <SCORE.INTRA>
0.339423

>  <SCORE.INTRA.DIHEDRAL>
0.245843

>  <SCORE.INTRA.DIHEDRAL.0>
6.0475

>  <SCORE.INTRA.POLAR>
-0.0374006

>  <SCORE.INTRA.POLAR.0>
-0.0243237

>  <SCORE.INTRA.REPUL>
0

>  <SCORE.INTRA.REPUL.0>
0

>  <SCORE.INTRA.VDW>
0.343663

>  <SCORE.INTRA.VDW.0>
0.255107

>  <SCORE.INTRA.norm>
0.016163

>  <SCORE.RESTR>
0

>  <SCORE.RESTR.CAVITY>
0

>  <SCORE.RESTR.norm>
0

>  <SCORE.SYSTEM>
-0.984297

>  <SCORE.SYSTEM.CONST>
0

>  <SCORE.SYSTEM.DIHEDRAL>
0.293544

>  <SCORE.SYSTEM.POLAR>
-0.00132299

>  <SCORE.SYSTEM.VDW>
-1.12657

>  <SCORE.SYSTEM.norm>
-0.0468713

>  <SCORE.heavy>
21

>  <SCORE.norm>
-0.679799

$$$$
