5320315
  RxDock  02242109593D
librxdock.so/0.1.0
 23 25  0  0  0  0  0  0  0  0999 V2000
  -52.9775   -3.7445   14.7258 O   0  0  0  0  0  0
  -49.1625    0.1376   15.6700 O   0  0  0  0  0  0
  -50.2060   -1.2234   17.7931 O   0  0  0  0  0  0
  -50.0061   -0.4270   13.0988 O   0  0  0  0  0  0
  -51.8752   -3.0661   18.5890 O   0  0  0  0  0  0
  -51.6099   -2.5087   16.3079 C   0  0  0  0  0  0
  -52.0332   -2.7907   15.0102 C   0  0  0  0  0  0
  -53.5269   -4.4635   15.7764 C   0  0  0  0  0  0
  -50.6449   -1.5255   16.5383 C   0  0  0  0  0  0
  -52.1976   -3.2630   17.4254 C   0  0  0  0  0  0
  -51.4925   -2.0889   13.9325 C   0  0  0  0  0  0
  -50.1054   -0.8254   15.4584 C   0  0  0  0  0  0
  -53.2066   -4.2800   17.0672 C   0  0  0  0  0  0
  -54.5350   -5.4589   15.3597 C   0  0  0  0  0  0
  -50.5282   -1.1062   14.1584 C   0  0  0  0  0  0
  -55.8502   -5.3614   15.8209 C   0  0  0  0  0  0
  -54.1782   -6.5028   14.5023 C   0  0  0  0  0  0
  -56.8024   -6.3017   15.4272 C   0  0  0  0  0  0
  -55.1306   -7.4430   14.1086 C   0  0  0  0  0  0
  -56.4426   -7.3424   14.5711 C   0  0  0  0  0  0
  -47.9045   -0.2917   16.1845 C   0  0  0  0  0  0
  -50.5656   -1.8464   18.4424 H   0  0  0  0  0  0
  -49.4112    0.2640   13.4369 H   0  0  0  0  0  0
  1  7  1  0  0  0
  1  8  1  0  0  0
  2 12  1  0  0  0
  2 21  1  0  0  0
  3  9  1  0  0  0
  3 22  1  0  0  0
  4 15  1  0  0  0
  4 23  1  0  0  0
  5 10  2  0  0  0
  6  7  2  0  0  0
  6  9  1  0  0  0
  6 10  1  0  0  0
  7 11  1  0  0  0
  8 13  2  0  0  0
  8 14  1  0  0  0
  9 12  2  0  0  0
 10 13  1  0  0  0
 11 15  2  0  0  0
 12 15  1  0  0  0
 14 16  2  0  0  0
 14 17  1  0  0  0
 16 18  1  0  0  0
 17 19  2  0  0  0
 18 20  2  0  0  0
 19 20  1  0  0  0
M  END
>  <CHROM.0>
-174.68217559,-58.34652356,89.90458643

>  <CHROM.1>
65.76909908,7.13669827,175.31581538,-118.98076725,-52.28448720,-3.21737300
15.61845620,-3.09924552,0.77250481,1.61581171

>  <Name>
5320315

>  <PUBCHEM_ATOM_DEF_STEREO_COUNT>
0

>  <PUBCHEM_ATOM_UDEF_STEREO_COUNT>
0

>  <PUBCHEM_BOND_DEF_STEREO_COUNT>
0

>  <PUBCHEM_BOND_UDEF_STEREO_COUNT>
0

>  <PUBCHEM_CACTVS_TAUTO_COUNT>
12

>  <PUBCHEM_COMPONENT_COUNT>
1

>  <PUBCHEM_COMPOUND_CID>
5320315

>  <PUBCHEM_CONFORMER_DIVERSEORDER>
1
2

>  <PUBCHEM_CONFORMER_ID>
00512E7B00000001

>  <PUBCHEM_CONFORMER_RMSD>
0.6

>  <PUBCHEM_COORDINATE_TYPE>
2
5
10

>  <PUBCHEM_EFFECTIVE_ROTOR_COUNT>
2

>  <PUBCHEM_FEATURE_SELFOVERLAP>
40.625

>  <PUBCHEM_HEAVY_ATOM_COUNT>
21

>  <PUBCHEM_ISOTOPIC_ATOM_COUNT>
0

>  <PUBCHEM_MMFF94_ENERGY>
75.473

>  <PUBCHEM_MMFF94_PARTIAL_CHARGES>
30
1 -0.16
10 0.47
11 -0.15
12 0.08
13 -0.14
14 0.03
15 0.08
16 -0.15
17 -0.15
18 -0.15
19 -0.15
2 -0.36
20 -0.15
21 0.28
22 0.15
23 0.15
24 0.15
25 0.15
26 0.15
27 0.15
28 0.45
29 0.15
3 -0.53
30 0.45
4 -0.53
5 -0.57
6 0.09
7 0.08
8 0.05
9 0.08

>  <PUBCHEM_PHARMACOPHORE_FEATURES>
8
1 1 acceptor
1 2 acceptor
1 3 donor
1 4 donor
1 5 acceptor
6 1 6 7 8 10 13 rings
6 14 16 17 18 19 20 rings
6 6 7 9 11 12 15 rings

>  <PUBCHEM_SHAPE_FINGERPRINT>
10319926 262 18339623639079927362
10411042 1 17689153838918189787
10493431 412 18412550899190905579
10498660 4 18336259038155622404
10608611 8 18341890844582710312
10646746 165 18410291411290866772
11578080 2 16807560661564956135
11595378 159 17603851292036568784
12107183 9 17685765831707532056
12173636 292 18409724054157661710
12236239 1 17385443219831120436
12390115 104 18199200502985526313
12403259 415 18412259523903711936
12596602 18 16588026844156286080
12788726 201 16955089051946383770
12916748 109 18408608050066549664
13081056 2 18413107251663356708
13140716 1 18192439782443455073
13544592 145 18342466902818679814
14341114 176 18411986857957503992
14787075 74 18272365395410613289
14790565 3 18411707556044776401
15042514 8 18191310575201304571
15196674 1 18337952290330464676
18186145 218 18201441354958650840
19784866 170 18335424534979148177
200 152 16988561303619401118
20510252 161 18342457062362639976
20645477 56 18410292536303305356
20645477 70 17274831216770011254
21033648 29 18340193137957187080
21065198 57 18411697734118468002
21236236 1 18342175626547569519
21267235 1 18408613555934976822
21279426 13 18196936574442069094
221357 26 18131628967727941912
22224240 67 18410863166280868131
23175994 123 17346884463726178344
23227448 37 18341047531658640252
23402539 116 18341044211337930942
23559900 14 18343301483852294606
3004659 81 18335425609365050694
335352 9 18411419509941474878
350125 39 18409453600294457093
3545911 37 18413390938949086460
4214541 1 18411417306802742604
474 4 16879355726359951084
474229 33 18409449189436474875
495365 180 17346305034600225762
5104073 3 18189619332838080865
542803 24 17346600768087715024
59755656 215 18338238167506508630
633830 44 18200024032683160908
69090 78 18343298189095660934
77779 3 18412262839955658820
9709674 26 18341898523942401550

>  <PUBCHEM_SHAPE_MULTIPOLES>
402.82
11.67
2.31
0.72
5.74
0.44
-0.06
-3.53
-0.92
-1.26
0.03
-0.06
-0.08
0.71

>  <PUBCHEM_SHAPE_SELFOVERLAP>
895.866

>  <PUBCHEM_SHAPE_VOLUME>
214

>  <RI>
-1.24554e+08

>  <Rbt.Current_Directory>
/root/miniconda3/envs/rdock/share/rxdock-2013.1.1_148c5bd1-0/data/ligands/prepped_ligands/Oryxylin_A

>  <Rbt.Executable>
rbdock/0.1.0

>  <Rbt.Library>
librxdock.so/0.1.0

>  <Rbt.Parameter_File>
/root/miniconda3/envs/rdock/share/rxdock-2013.1.1_148c5bd1-0/data/scripts/dock.prm

>  <Rbt.Receptor>
def.prm

>  <SCORE>
-14.1225

>  <SCORE.INTER>
-14.8553

>  <SCORE.INTER.CONST>
1

>  <SCORE.INTER.POLAR>
-0.824621

>  <SCORE.INTER.REPUL>
0

>  <SCORE.INTER.ROT>
2

>  <SCORE.INTER.VDW>
-19.4515

>  <SCORE.INTER.norm>
-0.707393

>  <SCORE.INTRA>
0.413336

>  <SCORE.INTRA.DIHEDRAL>
1.68886

>  <SCORE.INTRA.DIHEDRAL.0>
6.0475

>  <SCORE.INTRA.POLAR>
-0.0877773

>  <SCORE.INTRA.POLAR.0>
-0.0243237

>  <SCORE.INTRA.REPUL>
0

>  <SCORE.INTRA.REPUL.0>
0

>  <SCORE.INTRA.VDW>
-0.132652

>  <SCORE.INTRA.VDW.0>
0.255107

>  <SCORE.INTRA.norm>
0.0196827

>  <SCORE.RESTR>
0

>  <SCORE.RESTR.CAVITY>
0

>  <SCORE.RESTR.norm>
0

>  <SCORE.SYSTEM>
0.319396

>  <SCORE.SYSTEM.CONST>
0

>  <SCORE.SYSTEM.DIHEDRAL>
1.85445

>  <SCORE.SYSTEM.POLAR>
-0.0110331

>  <SCORE.SYSTEM.VDW>
-0.570315

>  <SCORE.SYSTEM.norm>
0.0152093

>  <SCORE.heavy>
21

>  <SCORE.norm>
-0.672501

$$$$
5320315
  RxDock  02242109593D
librxdock.so/0.1.0
 23 25  0  0  0  0  0  0  0  0999 V2000
  -52.2356   -4.1674   16.7989 O   0  0  0  0  0  0
  -49.0355    0.2304   17.7660 O   0  0  0  0  0  0
  -50.1567   -0.0611   15.2949 O   0  0  0  0  0  0
  -49.5021   -1.6466   19.7410 O   0  0  0  0  0  0
  -51.6740   -1.5215   13.7521 O   0  0  0  0  0  0
  -51.2165   -2.1149   15.9933 C   0  0  0  0  0  0
  -51.4494   -3.0596   16.9913 C   0  0  0  0  0  0
  -52.8296   -4.3482   15.5592 C   0  0  0  0  0  0
  -50.4059   -1.0056   16.2457 C   0  0  0  0  0  0
  -51.8374   -2.3086   14.6742 C   0  0  0  0  0  0
  -50.8714   -2.8999   18.2509 C   0  0  0  0  0  0
  -49.8295   -0.8483   17.5067 C   0  0  0  0  0  0
  -52.6765   -3.5139   14.5186 C   0  0  0  0  0  0
  -53.6486   -5.5730   15.4594 C   0  0  0  0  0  0
  -50.0614   -1.7933   18.5072 C   0  0  0  0  0  0
  -53.4307   -6.6368   16.3384 C   0  0  0  0  0  0
  -54.6453   -5.6735   14.4853 C   0  0  0  0  0  0
  -54.2045   -7.7936   16.2440 C   0  0  0  0  0  0
  -55.4190   -6.8304   14.3911 C   0  0  0  0  0  0
  -55.1986   -7.8904   15.2704 C   0  0  0  0  0  0
  -49.6208    1.3015   18.5020 C   0  0  0  0  0  0
  -49.4444    0.5319   15.5776 H   0  0  0  0  0  0
  -49.7670   -2.4025   20.2927 H   0  0  0  0  0  0
  1  7  1  0  0  0
  1  8  1  0  0  0
  2 12  1  0  0  0
  2 21  1  0  0  0
  3  9  1  0  0  0
  3 22  1  0  0  0
  4 15  1  0  0  0
  4 23  1  0  0  0
  5 10  2  0  0  0
  6  7  2  0  0  0
  6  9  1  0  0  0
  6 10  1  0  0  0
  7 11  1  0  0  0
  8 13  2  0  0  0
  8 14  1  0  0  0
  9 12  2  0  0  0
 10 13  1  0  0  0
 11 15  2  0  0  0
 12 15  1  0  0  0
 14 16  2  0  0  0
 14 17  1  0  0  0
 16 18  1  0  0  0
 17 19  2  0  0  0
 18 20  2  0  0  0
 19 20  1  0  0  0
M  END
>  <CHROM.0>
-178.38329447,-70.57768396,-58.43364245

>  <CHROM.1>
101.55081108,-168.62388352,0.72950163,-21.66842013,-51.81140864,-3.11923936
16.34431010,-2.95586250,-0.95301095,-0.97570046

>  <Name>
5320315

>  <PUBCHEM_ATOM_DEF_STEREO_COUNT>
0

>  <PUBCHEM_ATOM_UDEF_STEREO_COUNT>
0

>  <PUBCHEM_BOND_DEF_STEREO_COUNT>
0

>  <PUBCHEM_BOND_UDEF_STEREO_COUNT>
0

>  <PUBCHEM_CACTVS_TAUTO_COUNT>
12

>  <PUBCHEM_COMPONENT_COUNT>
1

>  <PUBCHEM_COMPOUND_CID>
5320315

>  <PUBCHEM_CONFORMER_DIVERSEORDER>
1
2

>  <PUBCHEM_CONFORMER_ID>
00512E7B00000001

>  <PUBCHEM_CONFORMER_RMSD>
0.6

>  <PUBCHEM_COORDINATE_TYPE>
2
5
10

>  <PUBCHEM_EFFECTIVE_ROTOR_COUNT>
2

>  <PUBCHEM_FEATURE_SELFOVERLAP>
40.625

>  <PUBCHEM_HEAVY_ATOM_COUNT>
21

>  <PUBCHEM_ISOTOPIC_ATOM_COUNT>
0

>  <PUBCHEM_MMFF94_ENERGY>
75.473

>  <PUBCHEM_MMFF94_PARTIAL_CHARGES>
30
1 -0.16
10 0.47
11 -0.15
12 0.08
13 -0.14
14 0.03
15 0.08
16 -0.15
17 -0.15
18 -0.15
19 -0.15
2 -0.36
20 -0.15
21 0.28
22 0.15
23 0.15
24 0.15
25 0.15
26 0.15
27 0.15
28 0.45
29 0.15
3 -0.53
30 0.45
4 -0.53
5 -0.57
6 0.09
7 0.08
8 0.05
9 0.08

>  <PUBCHEM_PHARMACOPHORE_FEATURES>
8
1 1 acceptor
1 2 acceptor
1 3 donor
1 4 donor
1 5 acceptor
6 1 6 7 8 10 13 rings
6 14 16 17 18 19 20 rings
6 6 7 9 11 12 15 rings

>  <PUBCHEM_SHAPE_FINGERPRINT>
10319926 262 18339623639079927362
10411042 1 17689153838918189787
10493431 412 18412550899190905579
10498660 4 18336259038155622404
10608611 8 18341890844582710312
10646746 165 18410291411290866772
11578080 2 16807560661564956135
11595378 159 17603851292036568784
12107183 9 17685765831707532056
12173636 292 18409724054157661710
12236239 1 17385443219831120436
12390115 104 18199200502985526313
12403259 415 18412259523903711936
12596602 18 16588026844156286080
12788726 201 16955089051946383770
12916748 109 18408608050066549664
13081056 2 18413107251663356708
13140716 1 18192439782443455073
13544592 145 18342466902818679814
14341114 176 18411986857957503992
14787075 74 18272365395410613289
14790565 3 18411707556044776401
15042514 8 18191310575201304571
15196674 1 18337952290330464676
18186145 218 18201441354958650840
19784866 170 18335424534979148177
200 152 16988561303619401118
20510252 161 18342457062362639976
20645477 56 18410292536303305356
20645477 70 17274831216770011254
21033648 29 18340193137957187080
21065198 57 18411697734118468002
21236236 1 18342175626547569519
21267235 1 18408613555934976822
21279426 13 18196936574442069094
221357 26 18131628967727941912
22224240 67 18410863166280868131
23175994 123 17346884463726178344
23227448 37 18341047531658640252
23402539 116 18341044211337930942
23559900 14 18343301483852294606
3004659 81 18335425609365050694
335352 9 18411419509941474878
350125 39 18409453600294457093
3545911 37 18413390938949086460
4214541 1 18411417306802742604
474 4 16879355726359951084
474229 33 18409449189436474875
495365 180 17346305034600225762
5104073 3 18189619332838080865
542803 24 17346600768087715024
59755656 215 18338238167506508630
633830 44 18200024032683160908
69090 78 18343298189095660934
77779 3 18412262839955658820
9709674 26 18341898523942401550

>  <PUBCHEM_SHAPE_MULTIPOLES>
402.82
11.67
2.31
0.72
5.74
0.44
-0.06
-3.53
-0.92
-1.26
0.03
-0.06
-0.08
0.71

>  <PUBCHEM_SHAPE_SELFOVERLAP>
895.866

>  <PUBCHEM_SHAPE_VOLUME>
214

>  <RI>
-1.24554e+08

>  <Rbt.Current_Directory>
/root/miniconda3/envs/rdock/share/rxdock-2013.1.1_148c5bd1-0/data/ligands/prepped_ligands/Oryxylin_A

>  <Rbt.Executable>
rbdock/0.1.0

>  <Rbt.Library>
librxdock.so/0.1.0

>  <Rbt.Parameter_File>
/root/miniconda3/envs/rdock/share/rxdock-2013.1.1_148c5bd1-0/data/scripts/dock.prm

>  <Rbt.Receptor>
def.prm

>  <SCORE>
-12.9901

>  <SCORE.INTER>
-12.044

>  <SCORE.INTER.CONST>
1

>  <SCORE.INTER.POLAR>
-0.698959

>  <SCORE.INTER.REPUL>
0

>  <SCORE.INTER.ROT>
2

>  <SCORE.INTER.VDW>
-17.0675

>  <SCORE.INTER.norm>
-0.573523

>  <SCORE.INTRA>
-0.0620429

>  <SCORE.INTRA.DIHEDRAL>
-0.56857

>  <SCORE.INTRA.DIHEDRAL.0>
6.0475

>  <SCORE.INTRA.POLAR>
-0.0399915

>  <SCORE.INTRA.POLAR.0>
-0.0243237

>  <SCORE.INTRA.REPUL>
0

>  <SCORE.INTRA.REPUL.0>
0

>  <SCORE.INTRA.VDW>
0.358213

>  <SCORE.INTRA.VDW.0>
0.255107

>  <SCORE.INTRA.norm>
-0.00295442

>  <SCORE.RESTR>
0

>  <SCORE.RESTR.CAVITY>
0

>  <SCORE.RESTR.norm>
0

>  <SCORE.SYSTEM>
-0.884057

>  <SCORE.SYSTEM.CONST>
0

>  <SCORE.SYSTEM.DIHEDRAL>
0.548398

>  <SCORE.SYSTEM.POLAR>
-0.0046196

>  <SCORE.SYSTEM.VDW>
-1.14255

>  <SCORE.SYSTEM.norm>
-0.0420979

>  <SCORE.heavy>
21

>  <SCORE.norm>
-0.618576

$$$$
5320315
  RxDock  02242109593D
librxdock.so/0.1.0
 23 25  0  0  0  0  0  0  0  0999 V2000
  -50.5468   -0.4561   13.2240 O   0  0  0  0  0  0
  -50.7049   -5.3557   15.7705 O   0  0  0  0  0  0
  -48.3082   -4.0705   15.5412 O   0  0  0  0  0  0
  -53.0045   -4.2149   14.7448 O   0  0  0  0  0  0
  -47.0449   -1.9620   14.6618 O   0  0  0  0  0  0
  -49.3745   -2.2416   14.3807 C   0  0  0  0  0  0
  -50.5358   -1.6693   13.8645 C   0  0  0  0  0  0
  -49.3504    0.2324   13.0934 C   0  0  0  0  0  0
  -49.4228   -3.4810   15.0232 C   0  0  0  0  0  0
  -48.1021   -1.5183   14.2355 C   0  0  0  0  0  0
  -51.7555   -2.3352   13.9879 C   0  0  0  0  0  0
  -50.6443   -4.1445   15.1456 C   0  0  0  0  0  0
  -48.1672   -0.2161   13.5419 C   0  0  0  0  0  0
  -49.4747    1.5221   12.3847 C   0  0  0  0  0  0
  -51.8081   -3.5732   14.6291 C   0  0  0  0  0  0
  -48.4117    2.0077   11.6193 C   0  0  0  0  0  0
  -50.6561    2.2625   12.4765 C   0  0  0  0  0  0
  -48.5292    3.2260   10.9499 C   0  0  0  0  0  0
  -50.7736    3.4806   11.8070 C   0  0  0  0  0  0
  -49.7101    3.9623   11.0438 C   0  0  0  0  0  0
  -51.5747   -5.4600   16.8948 C   0  0  0  0  0  0
  -47.5995   -4.1054   14.8813 H   0  0  0  0  0  0
  -53.6993   -3.6431   14.3758 H   0  0  0  0  0  0
  1  7  1  0  0  0
  1  8  1  0  0  0
  2 12  1  0  0  0
  2 21  1  0  0  0
  3  9  1  0  0  0
  3 22  1  0  0  0
  4 15  1  0  0  0
  4 23  1  0  0  0
  5 10  2  0  0  0
  6  7  2  0  0  0
  6  9  1  0  0  0
  6 10  1  0  0  0
  7 11  1  0  0  0
  8 13  2  0  0  0
  8 14  1  0  0  0
  9 12  2  0  0  0
 10 13  1  0  0  0
 11 15  2  0  0  0
 12 15  1  0  0  0
 14 16  2  0  0  0
 14 17  1  0  0  0
 16 18  1  0  0  0
 17 19  2  0  0  0
 18 20  2  0  0  0
 19 20  1  0  0  0
M  END
>  <CHROM.0>
-60.52012002,-66.17570637,-174.77873306

>  <CHROM.1>
122.18932482,-51.38544737,-3.28261838,-148.92618559,-49.92007340,-1.28122834
13.83558031,1.40379475,-0.07968663,-0.50057849

>  <Name>
5320315

>  <PUBCHEM_ATOM_DEF_STEREO_COUNT>
0

>  <PUBCHEM_ATOM_UDEF_STEREO_COUNT>
0

>  <PUBCHEM_BOND_DEF_STEREO_COUNT>
0

>  <PUBCHEM_BOND_UDEF_STEREO_COUNT>
0

>  <PUBCHEM_CACTVS_TAUTO_COUNT>
12

>  <PUBCHEM_COMPONENT_COUNT>
1

>  <PUBCHEM_COMPOUND_CID>
5320315

>  <PUBCHEM_CONFORMER_DIVERSEORDER>
1
2

>  <PUBCHEM_CONFORMER_ID>
00512E7B00000001

>  <PUBCHEM_CONFORMER_RMSD>
0.6

>  <PUBCHEM_COORDINATE_TYPE>
2
5
10

>  <PUBCHEM_EFFECTIVE_ROTOR_COUNT>
2

>  <PUBCHEM_FEATURE_SELFOVERLAP>
40.625

>  <PUBCHEM_HEAVY_ATOM_COUNT>
21

>  <PUBCHEM_ISOTOPIC_ATOM_COUNT>
0

>  <PUBCHEM_MMFF94_ENERGY>
75.473

>  <PUBCHEM_MMFF94_PARTIAL_CHARGES>
30
1 -0.16
10 0.47
11 -0.15
12 0.08
13 -0.14
14 0.03
15 0.08
16 -0.15
17 -0.15
18 -0.15
19 -0.15
2 -0.36
20 -0.15
21 0.28
22 0.15
23 0.15
24 0.15
25 0.15
26 0.15
27 0.15
28 0.45
29 0.15
3 -0.53
30 0.45
4 -0.53
5 -0.57
6 0.09
7 0.08
8 0.05
9 0.08

>  <PUBCHEM_PHARMACOPHORE_FEATURES>
8
1 1 acceptor
1 2 acceptor
1 3 donor
1 4 donor
1 5 acceptor
6 1 6 7 8 10 13 rings
6 14 16 17 18 19 20 rings
6 6 7 9 11 12 15 rings

>  <PUBCHEM_SHAPE_FINGERPRINT>
10319926 262 18339623639079927362
10411042 1 17689153838918189787
10493431 412 18412550899190905579
10498660 4 18336259038155622404
10608611 8 18341890844582710312
10646746 165 18410291411290866772
11578080 2 16807560661564956135
11595378 159 17603851292036568784
12107183 9 17685765831707532056
12173636 292 18409724054157661710
12236239 1 17385443219831120436
12390115 104 18199200502985526313
12403259 415 18412259523903711936
12596602 18 16588026844156286080
12788726 201 16955089051946383770
12916748 109 18408608050066549664
13081056 2 18413107251663356708
13140716 1 18192439782443455073
13544592 145 18342466902818679814
14341114 176 18411986857957503992
14787075 74 18272365395410613289
14790565 3 18411707556044776401
15042514 8 18191310575201304571
15196674 1 18337952290330464676
18186145 218 18201441354958650840
19784866 170 18335424534979148177
200 152 16988561303619401118
20510252 161 18342457062362639976
20645477 56 18410292536303305356
20645477 70 17274831216770011254
21033648 29 18340193137957187080
21065198 57 18411697734118468002
21236236 1 18342175626547569519
21267235 1 18408613555934976822
21279426 13 18196936574442069094
221357 26 18131628967727941912
22224240 67 18410863166280868131
23175994 123 17346884463726178344
23227448 37 18341047531658640252
23402539 116 18341044211337930942
23559900 14 18343301483852294606
3004659 81 18335425609365050694
335352 9 18411419509941474878
350125 39 18409453600294457093
3545911 37 18413390938949086460
4214541 1 18411417306802742604
474 4 16879355726359951084
474229 33 18409449189436474875
495365 180 17346305034600225762
5104073 3 18189619332838080865
542803 24 17346600768087715024
59755656 215 18338238167506508630
633830 44 18200024032683160908
69090 78 18343298189095660934
77779 3 18412262839955658820
9709674 26 18341898523942401550

>  <PUBCHEM_SHAPE_MULTIPOLES>
402.82
11.67
2.31
0.72
5.74
0.44
-0.06
-3.53
-0.92
-1.26
0.03
-0.06
-0.08
0.71

>  <PUBCHEM_SHAPE_SELFOVERLAP>
895.866

>  <PUBCHEM_SHAPE_VOLUME>
214

>  <RI>
-1.24554e+08

>  <Rbt.Current_Directory>
/root/miniconda3/envs/rdock/share/rxdock-2013.1.1_148c5bd1-0/data/ligands/prepped_ligands/Oryxylin_A

>  <Rbt.Executable>
rbdock/0.1.0

>  <Rbt.Library>
librxdock.so/0.1.0

>  <Rbt.Parameter_File>
/root/miniconda3/envs/rdock/share/rxdock-2013.1.1_148c5bd1-0/data/scripts/dock.prm

>  <Rbt.Receptor>
def.prm

>  <SCORE>
-19.7971

>  <SCORE.INTER>
-20.6144

>  <SCORE.INTER.CONST>
1

>  <SCORE.INTER.POLAR>
-1.6329

>  <SCORE.INTER.REPUL>
0.120478

>  <SCORE.INTER.ROT>
2

>  <SCORE.INTER.VDW>
-23.0649

>  <SCORE.INTER.norm>
-0.981637

>  <SCORE.INTRA>
1.83737

>  <SCORE.INTRA.DIHEDRAL>
1.57943

>  <SCORE.INTRA.DIHEDRAL.0>
6.0475

>  <SCORE.INTRA.POLAR>
0.0243237

>  <SCORE.INTRA.POLAR.0>
-0.0243237

>  <SCORE.INTRA.REPUL>
0

>  <SCORE.INTRA.REPUL.0>
0

>  <SCORE.INTRA.VDW>
0.964956

>  <SCORE.INTRA.VDW.0>
0.255107

>  <SCORE.INTRA.norm>
0.0874938

>  <SCORE.RESTR>
0

>  <SCORE.RESTR.CAVITY>
0

>  <SCORE.RESTR.norm>
0

>  <SCORE.SYSTEM>
-1.02005

>  <SCORE.SYSTEM.CONST>
0

>  <SCORE.SYSTEM.DIHEDRAL>
0.250466

>  <SCORE.SYSTEM.POLAR>
-0.0125482

>  <SCORE.SYSTEM.VDW>
-1.10262

>  <SCORE.SYSTEM.norm>
-0.0485737

>  <SCORE.heavy>
21

>  <SCORE.norm>
-0.942717

$$$$
5320315
  RxDock  02242109593D
librxdock.so/0.1.0
 23 25  0  0  0  0  0  0  0  0999 V2000
  -52.9150   -4.1597   14.9384 O   0  0  0  0  0  0
  -49.8752    0.2786   16.1944 O   0  0  0  0  0  0
  -50.9148   -1.2198   18.2249 O   0  0  0  0  0  0
  -50.3404   -0.4238   13.5615 O   0  0  0  0  0  0
  -52.3518   -3.2983   18.8805 O   0  0  0  0  0  0
  -51.9341   -2.7168   16.6285 C   0  0  0  0  0  0
  -52.1669   -3.0679   15.2998 C   0  0  0  0  0  0
  -53.4548   -4.9513   15.9407 C   0  0  0  0  0  0
  -51.1644   -1.5929   16.9378 C   0  0  0  0  0  0
  -52.5132   -3.5489   17.6941 C   0  0  0  0  0  0
  -51.6300   -2.2948   14.2701 C   0  0  0  0  0  0
  -50.6283   -0.8218   15.9057 C   0  0  0  0  0  0
  -53.3071   -4.7137   17.2538 C   0  0  0  0  0  0
  -54.2450   -6.0948   15.4419 C   0  0  0  0  0  0
  -50.8605   -1.1717   14.5748 C   0  0  0  0  0  0
  -54.2929   -7.2859   16.1704 C   0  0  0  0  0  0
  -54.9485   -5.9906   14.2392 C   0  0  0  0  0  0
  -55.0394   -8.3661   15.6991 C   0  0  0  0  0  0
  -55.6950   -7.0707   13.7681 C   0  0  0  0  0  0
  -55.7404   -8.2584   14.4981 C   0  0  0  0  0  0
  -48.5287    0.0511   16.6028 C   0  0  0  0  0  0
  -50.6067   -0.3018   18.2632 H   0  0  0  0  0  0
  -50.9679   -0.4302   12.8185 H   0  0  0  0  0  0
  1  7  1  0  0  0
  1  8  1  0  0  0
  2 12  1  0  0  0
  2 21  1  0  0  0
  3  9  1  0  0  0
  3 22  1  0  0  0
  4 15  1  0  0  0
  4 23  1  0  0  0
  5 10  2  0  0  0
  6  7  2  0  0  0
  6  9  1  0  0  0
  6 10  1  0  0  0
  7 11  1  0  0  0
  8 13  2  0  0  0
  8 14  1  0  0  0
  9 12  2  0  0  0
 10 13  1  0  0  0
 11 15  2  0  0  0
 12 15  1  0  0  0
 14 16  2  0  0  0
 14 17  1  0  0  0
 16 18  1  0  0  0
 17 19  2  0  0  0
 18 20  2  0  0  0
 19 20  1  0  0  0
M  END
>  <CHROM.0>
-62.65039827,65.72461476,50.99484122

>  <CHROM.1>
77.68640033,-162.98161485,34.14060772,148.39526491,-52.40857704,-3.52328835
15.86838888,-3.10673726,0.94636016,1.68184742

>  <Name>
5320315

>  <PUBCHEM_ATOM_DEF_STEREO_COUNT>
0

>  <PUBCHEM_ATOM_UDEF_STEREO_COUNT>
0

>  <PUBCHEM_BOND_DEF_STEREO_COUNT>
0

>  <PUBCHEM_BOND_UDEF_STEREO_COUNT>
0

>  <PUBCHEM_CACTVS_TAUTO_COUNT>
12

>  <PUBCHEM_COMPONENT_COUNT>
1

>  <PUBCHEM_COMPOUND_CID>
5320315

>  <PUBCHEM_CONFORMER_DIVERSEORDER>
1
2

>  <PUBCHEM_CONFORMER_ID>
00512E7B00000001

>  <PUBCHEM_CONFORMER_RMSD>
0.6

>  <PUBCHEM_COORDINATE_TYPE>
2
5
10

>  <PUBCHEM_EFFECTIVE_ROTOR_COUNT>
2

>  <PUBCHEM_FEATURE_SELFOVERLAP>
40.625

>  <PUBCHEM_HEAVY_ATOM_COUNT>
21

>  <PUBCHEM_ISOTOPIC_ATOM_COUNT>
0

>  <PUBCHEM_MMFF94_ENERGY>
75.473

>  <PUBCHEM_MMFF94_PARTIAL_CHARGES>
30
1 -0.16
10 0.47
11 -0.15
12 0.08
13 -0.14
14 0.03
15 0.08
16 -0.15
17 -0.15
18 -0.15
19 -0.15
2 -0.36
20 -0.15
21 0.28
22 0.15
23 0.15
24 0.15
25 0.15
26 0.15
27 0.15
28 0.45
29 0.15
3 -0.53
30 0.45
4 -0.53
5 -0.57
6 0.09
7 0.08
8 0.05
9 0.08

>  <PUBCHEM_PHARMACOPHORE_FEATURES>
8
1 1 acceptor
1 2 acceptor
1 3 donor
1 4 donor
1 5 acceptor
6 1 6 7 8 10 13 rings
6 14 16 17 18 19 20 rings
6 6 7 9 11 12 15 rings

>  <PUBCHEM_SHAPE_FINGERPRINT>
10319926 262 18339623639079927362
10411042 1 17689153838918189787
10493431 412 18412550899190905579
10498660 4 18336259038155622404
10608611 8 18341890844582710312
10646746 165 18410291411290866772
11578080 2 16807560661564956135
11595378 159 17603851292036568784
12107183 9 17685765831707532056
12173636 292 18409724054157661710
12236239 1 17385443219831120436
12390115 104 18199200502985526313
12403259 415 18412259523903711936
12596602 18 16588026844156286080
12788726 201 16955089051946383770
12916748 109 18408608050066549664
13081056 2 18413107251663356708
13140716 1 18192439782443455073
13544592 145 18342466902818679814
14341114 176 18411986857957503992
14787075 74 18272365395410613289
14790565 3 18411707556044776401
15042514 8 18191310575201304571
15196674 1 18337952290330464676
18186145 218 18201441354958650840
19784866 170 18335424534979148177
200 152 16988561303619401118
20510252 161 18342457062362639976
20645477 56 18410292536303305356
20645477 70 17274831216770011254
21033648 29 18340193137957187080
21065198 57 18411697734118468002
21236236 1 18342175626547569519
21267235 1 18408613555934976822
21279426 13 18196936574442069094
221357 26 18131628967727941912
22224240 67 18410863166280868131
23175994 123 17346884463726178344
23227448 37 18341047531658640252
23402539 116 18341044211337930942
23559900 14 18343301483852294606
3004659 81 18335425609365050694
335352 9 18411419509941474878
350125 39 18409453600294457093
3545911 37 18413390938949086460
4214541 1 18411417306802742604
474 4 16879355726359951084
474229 33 18409449189436474875
495365 180 17346305034600225762
5104073 3 18189619332838080865
542803 24 17346600768087715024
59755656 215 18338238167506508630
633830 44 18200024032683160908
69090 78 18343298189095660934
77779 3 18412262839955658820
9709674 26 18341898523942401550

>  <PUBCHEM_SHAPE_MULTIPOLES>
402.82
11.67
2.31
0.72
5.74
0.44
-0.06
-3.53
-0.92
-1.26
0.03
-0.06
-0.08
0.71

>  <PUBCHEM_SHAPE_SELFOVERLAP>
895.866

>  <PUBCHEM_SHAPE_VOLUME>
214

>  <RI>
-1.24554e+08

>  <Rbt.Current_Directory>
/root/miniconda3/envs/rdock/share/rxdock-2013.1.1_148c5bd1-0/data/ligands/prepped_ligands/Oryxylin_A

>  <Rbt.Executable>
rbdock/0.1.0

>  <Rbt.Library>
librxdock.so/0.1.0

>  <Rbt.Parameter_File>
/root/miniconda3/envs/rdock/share/rxdock-2013.1.1_148c5bd1-0/data/scripts/dock.prm

>  <Rbt.Receptor>
def.prm

>  <SCORE>
-16.0648

>  <SCORE.INTER>
-16.2379

>  <SCORE.INTER.CONST>
1

>  <SCORE.INTER.POLAR>
-1.35542

>  <SCORE.INTER.REPUL>
0

>  <SCORE.INTER.ROT>
2

>  <SCORE.INTER.VDW>
-19.0294

>  <SCORE.INTER.norm>
-0.773231

>  <SCORE.INTRA>
1.07833

>  <SCORE.INTRA.DIHEDRAL>
1.81151

>  <SCORE.INTRA.DIHEDRAL.0>
6.0475

>  <SCORE.INTRA.POLAR>
0.0243237

>  <SCORE.INTRA.POLAR.0>
-0.0243237

>  <SCORE.INTRA.REPUL>
0

>  <SCORE.INTRA.REPUL.0>
0

>  <SCORE.INTRA.VDW>
0.089878

>  <SCORE.INTRA.VDW.0>
0.255107

>  <SCORE.INTRA.norm>
0.0513493

>  <SCORE.RESTR>
0

>  <SCORE.RESTR.CAVITY>
0

>  <SCORE.RESTR.norm>
0

>  <SCORE.SYSTEM>
-0.905233

>  <SCORE.SYSTEM.CONST>
0

>  <SCORE.SYSTEM.DIHEDRAL>
0.383442

>  <SCORE.SYSTEM.VDW>
-1.09695

>  <SCORE.SYSTEM.norm>
-0.0431063

>  <SCORE.heavy>
21

>  <SCORE.norm>
-0.764988

$$$$
5320315
  RxDock  02242109593D
librxdock.so/0.1.0
 23 25  0  0  0  0  0  0  0  0999 V2000
  -48.1541   -0.6780   14.4340 O   0  0  0  0  0  0
  -48.1142   -4.8395   18.0668 O   0  0  0  0  0  0
  -50.4174   -4.3080   16.7025 O   0  0  0  0  0  0
  -45.8488   -3.3172   17.6282 O   0  0  0  0  0  0
  -51.5988   -2.7957   14.9326 O   0  0  0  0  0  0
  -49.3369   -2.4867   15.5431 C   0  0  0  0  0  0
  -48.1930   -1.7210   15.3246 C   0  0  0  0  0  0
  -49.3019   -0.3804   13.7154 C   0  0  0  0  0  0
  -49.3187   -3.5373   16.4635 C   0  0  0  0  0  0
  -50.5589   -2.1676   14.7894 C   0  0  0  0  0  0
  -47.0211   -2.0021   16.0274 C   0  0  0  0  0  0
  -48.1450   -3.8165   17.1647 C   0  0  0  0  0  0
  -50.4649   -1.0390   13.8415 C   0  0  0  0  0  0
  -49.1516    0.7614   12.7909 C   0  0  0  0  0  0
  -46.9987   -3.0507   16.9474 C   0  0  0  0  0  0
  -50.1472    1.7385   12.7146 C   0  0  0  0  0  0
  -48.0131    0.8696   11.9883 C   0  0  0  0  0  0
  -50.0051    2.8170   11.8413 C   0  0  0  0  0  0
  -47.8710    1.9482   11.1151 C   0  0  0  0  0  0
  -48.8671    2.9218   11.0416 C   0  0  0  0  0  0
  -48.2693   -6.1597   17.5522 C   0  0  0  0  0  0
  -51.1477   -4.0565   16.1173 H   0  0  0  0  0  0
  -45.6537   -4.2664   17.5463 H   0  0  0  0  0  0
  1  7  1  0  0  0
  1  8  1  0  0  0
  2 12  1  0  0  0
  2 21  1  0  0  0
  3  9  1  0  0  0
  3 22  1  0  0  0
  4 15  1  0  0  0
  4 23  1  0  0  0
  5 10  2  0  0  0
  6  7  2  0  0  0
  6  9  1  0  0  0
  6 10  1  0  0  0
  7 11  1  0  0  0
  8 13  2  0  0  0
  8 14  1  0  0  0
  9 12  2  0  0  0
 10 13  1  0  0  0
 11 15  2  0  0  0
 12 15  1  0  0  0
 14 16  2  0  0  0
 14 17  1  0  0  0
 16 18  1  0  0  0
 17 19  2  0  0  0
 18 20  2  0  0  0
 19 20  1  0  0  0
M  END
>  <CHROM.0>
-65.25236474,-64.03123026,176.79286723

>  <CHROM.1>
65.90361968,3.66092403,-129.47492276,-135.57736401,-48.83829485,-1.61303242
14.89195983,-1.68351533,0.21776884,2.45264561

>  <Name>
5320315

>  <PUBCHEM_ATOM_DEF_STEREO_COUNT>
0

>  <PUBCHEM_ATOM_UDEF_STEREO_COUNT>
0

>  <PUBCHEM_BOND_DEF_STEREO_COUNT>
0

>  <PUBCHEM_BOND_UDEF_STEREO_COUNT>
0

>  <PUBCHEM_CACTVS_TAUTO_COUNT>
12

>  <PUBCHEM_COMPONENT_COUNT>
1

>  <PUBCHEM_COMPOUND_CID>
5320315

>  <PUBCHEM_CONFORMER_DIVERSEORDER>
1
2

>  <PUBCHEM_CONFORMER_ID>
00512E7B00000001

>  <PUBCHEM_CONFORMER_RMSD>
0.6

>  <PUBCHEM_COORDINATE_TYPE>
2
5
10

>  <PUBCHEM_EFFECTIVE_ROTOR_COUNT>
2

>  <PUBCHEM_FEATURE_SELFOVERLAP>
40.625

>  <PUBCHEM_HEAVY_ATOM_COUNT>
21

>  <PUBCHEM_ISOTOPIC_ATOM_COUNT>
0

>  <PUBCHEM_MMFF94_ENERGY>
75.473

>  <PUBCHEM_MMFF94_PARTIAL_CHARGES>
30
1 -0.16
10 0.47
11 -0.15
12 0.08
13 -0.14
14 0.03
15 0.08
16 -0.15
17 -0.15
18 -0.15
19 -0.15
2 -0.36
20 -0.15
21 0.28
22 0.15
23 0.15
24 0.15
25 0.15
26 0.15
27 0.15
28 0.45
29 0.15
3 -0.53
30 0.45
4 -0.53
5 -0.57
6 0.09
7 0.08
8 0.05
9 0.08

>  <PUBCHEM_PHARMACOPHORE_FEATURES>
8
1 1 acceptor
1 2 acceptor
1 3 donor
1 4 donor
1 5 acceptor
6 1 6 7 8 10 13 rings
6 14 16 17 18 19 20 rings
6 6 7 9 11 12 15 rings

>  <PUBCHEM_SHAPE_FINGERPRINT>
10319926 262 18339623639079927362
10411042 1 17689153838918189787
10493431 412 18412550899190905579
10498660 4 18336259038155622404
10608611 8 18341890844582710312
10646746 165 18410291411290866772
11578080 2 16807560661564956135
11595378 159 17603851292036568784
12107183 9 17685765831707532056
12173636 292 18409724054157661710
12236239 1 17385443219831120436
12390115 104 18199200502985526313
12403259 415 18412259523903711936
12596602 18 16588026844156286080
12788726 201 16955089051946383770
12916748 109 18408608050066549664
13081056 2 18413107251663356708
13140716 1 18192439782443455073
13544592 145 18342466902818679814
14341114 176 18411986857957503992
14787075 74 18272365395410613289
14790565 3 18411707556044776401
15042514 8 18191310575201304571
15196674 1 18337952290330464676
18186145 218 18201441354958650840
19784866 170 18335424534979148177
200 152 16988561303619401118
20510252 161 18342457062362639976
20645477 56 18410292536303305356
20645477 70 17274831216770011254
21033648 29 18340193137957187080
21065198 57 18411697734118468002
21236236 1 18342175626547569519
21267235 1 18408613555934976822
21279426 13 18196936574442069094
221357 26 18131628967727941912
22224240 67 18410863166280868131
23175994 123 17346884463726178344
23227448 37 18341047531658640252
23402539 116 18341044211337930942
23559900 14 18343301483852294606
3004659 81 18335425609365050694
335352 9 18411419509941474878
350125 39 18409453600294457093
3545911 37 18413390938949086460
4214541 1 18411417306802742604
474 4 16879355726359951084
474229 33 18409449189436474875
495365 180 17346305034600225762
5104073 3 18189619332838080865
542803 24 17346600768087715024
59755656 215 18338238167506508630
633830 44 18200024032683160908
69090 78 18343298189095660934
77779 3 18412262839955658820
9709674 26 18341898523942401550

>  <PUBCHEM_SHAPE_MULTIPOLES>
402.82
11.67
2.31
0.72
5.74
0.44
-0.06
-3.53
-0.92
-1.26
0.03
-0.06
-0.08
0.71

>  <PUBCHEM_SHAPE_SELFOVERLAP>
895.866

>  <PUBCHEM_SHAPE_VOLUME>
214

>  <RI>
-1.24554e+08

>  <Rbt.Current_Directory>
/root/miniconda3/envs/rdock/share/rxdock-2013.1.1_148c5bd1-0/data/ligands/prepped_ligands/Oryxylin_A

>  <Rbt.Executable>
rbdock/0.1.0

>  <Rbt.Library>
librxdock.so/0.1.0

>  <Rbt.Parameter_File>
/root/miniconda3/envs/rdock/share/rxdock-2013.1.1_148c5bd1-0/data/scripts/dock.prm

>  <Rbt.Receptor>
def.prm

>  <SCORE>
-13.7191

>  <SCORE.INTER>
-14.2835

>  <SCORE.INTER.CONST>
1

>  <SCORE.INTER.POLAR>
-0.473733

>  <SCORE.INTER.REPUL>
0.0603546

>  <SCORE.INTER.ROT>
2

>  <SCORE.INTER.VDW>
-20.3745

>  <SCORE.INTER.norm>
-0.680164

>  <SCORE.INTRA>
1.59811

>  <SCORE.INTRA.DIHEDRAL>
3.1426

>  <SCORE.INTRA.DIHEDRAL.0>
6.0475

>  <SCORE.INTRA.POLAR>
0.0243237

>  <SCORE.INTRA.POLAR.0>
-0.0243237

>  <SCORE.INTRA.REPUL>
0

>  <SCORE.INTRA.REPUL.0>
0

>  <SCORE.INTRA.VDW>
-0.0558918

>  <SCORE.INTRA.VDW.0>
0.255107

>  <SCORE.INTRA.norm>
0.0761003

>  <SCORE.RESTR>
0

>  <SCORE.RESTR.CAVITY>
0

>  <SCORE.RESTR.norm>
0

>  <SCORE.SYSTEM>
-1.03373

>  <SCORE.SYSTEM.CONST>
0

>  <SCORE.SYSTEM.DIHEDRAL>
0.179491

>  <SCORE.SYSTEM.VDW>
-1.12348

>  <SCORE.SYSTEM.norm>
-0.0492254

>  <SCORE.heavy>
21

>  <SCORE.norm>
-0.65329

$$$$
5320315
  RxDock  02242109593D
librxdock.so/0.1.0
 23 25  0  0  0  0  0  0  0  0999 V2000
  -50.1801   -4.2455   15.7537 O   0  0  0  0  0  0
  -54.7849   -7.2437   16.3224 O   0  0  0  0  0  0
  -52.5242   -8.0476   17.6230 O   0  0  0  0  0  0
  -54.7584   -4.9676   14.7538 O   0  0  0  0  0  0
  -50.0050   -7.5653   18.1089 O   0  0  0  0  0  0
  -51.3082   -6.1686   16.7178 C   0  0  0  0  0  0
  -51.2982   -5.0217   15.9259 C   0  0  0  0  0  0
  -49.0127   -4.6159   16.4037 C   0  0  0  0  0  0
  -52.4766   -6.9214   16.8564 C   0  0  0  0  0  0
  -50.0690   -6.5697   17.4011 C   0  0  0  0  0  0
  -52.4600   -4.6200   15.2661 C   0  0  0  0  0  0
  -53.6372   -6.5170   16.1956 C   0  0  0  0  0  0
  -48.8948   -5.7001   17.1866 C   0  0  0  0  0  0
  -47.8709   -3.7157   16.1457 C   0  0  0  0  0  0
  -53.6292   -5.3690   15.4021 C   0  0  0  0  0  0
  -47.8542   -2.9130   15.0024 C   0  0  0  0  0  0
  -46.8019   -3.6627   17.0438 C   0  0  0  0  0  0
  -46.7756   -2.0627   14.7587 C   0  0  0  0  0  0
  -45.7233   -2.8122   16.8002 C   0  0  0  0  0  0
  -45.7102   -2.0123   15.6576 C   0  0  0  0  0  0
  -54.8253   -8.5077   15.6649 C   0  0  0  0  0  0
  -51.6372   -8.4182   17.7451 H   0  0  0  0  0  0
  -55.4705   -5.5993   14.9527 H   0  0  0  0  0  0
  1  7  1  0  0  0
  1  8  1  0  0  0
  2 12  1  0  0  0
  2 21  1  0  0  0
  3  9  1  0  0  0
  3 22  1  0  0  0
  4 15  1  0  0  0
  4 23  1  0  0  0
  5 10  2  0  0  0
  6  7  2  0  0  0
  6  9  1  0  0  0
  6 10  1  0  0  0
  7 11  1  0  0  0
  8 13  2  0  0  0
  8 14  1  0  0  0
  9 12  2  0  0  0
 10 13  1  0  0  0
 11 15  2  0  0  0
 12 15  1  0  0  0
 14 16  2  0  0  0
 14 17  1  0  0  0
 16 18  1  0  0  0
 17 19  2  0  0  0
 18 20  2  0  0  0
 19 20  1  0  0  0
M  END
>  <CHROM.0>
179.34299191,-58.43236143,-178.14949556

>  <CHROM.1>
-71.69321883,-21.94914807,179.72365239,-22.24641401,-50.64037077,-5.29094754
16.24470645,0.41854491,-0.30820304,-0.63050276

>  <Name>
5320315

>  <PUBCHEM_ATOM_DEF_STEREO_COUNT>
0

>  <PUBCHEM_ATOM_UDEF_STEREO_COUNT>
0

>  <PUBCHEM_BOND_DEF_STEREO_COUNT>
0

>  <PUBCHEM_BOND_UDEF_STEREO_COUNT>
0

>  <PUBCHEM_CACTVS_TAUTO_COUNT>
12

>  <PUBCHEM_COMPONENT_COUNT>
1

>  <PUBCHEM_COMPOUND_CID>
5320315

>  <PUBCHEM_CONFORMER_DIVERSEORDER>
1
2

>  <PUBCHEM_CONFORMER_ID>
00512E7B00000001

>  <PUBCHEM_CONFORMER_RMSD>
0.6

>  <PUBCHEM_COORDINATE_TYPE>
2
5
10

>  <PUBCHEM_EFFECTIVE_ROTOR_COUNT>
2

>  <PUBCHEM_FEATURE_SELFOVERLAP>
40.625

>  <PUBCHEM_HEAVY_ATOM_COUNT>
21

>  <PUBCHEM_ISOTOPIC_ATOM_COUNT>
0

>  <PUBCHEM_MMFF94_ENERGY>
75.473

>  <PUBCHEM_MMFF94_PARTIAL_CHARGES>
30
1 -0.16
10 0.47
11 -0.15
12 0.08
13 -0.14
14 0.03
15 0.08
16 -0.15
17 -0.15
18 -0.15
19 -0.15
2 -0.36
20 -0.15
21 0.28
22 0.15
23 0.15
24 0.15
25 0.15
26 0.15
27 0.15
28 0.45
29 0.15
3 -0.53
30 0.45
4 -0.53
5 -0.57
6 0.09
7 0.08
8 0.05
9 0.08

>  <PUBCHEM_PHARMACOPHORE_FEATURES>
8
1 1 acceptor
1 2 acceptor
1 3 donor
1 4 donor
1 5 acceptor
6 1 6 7 8 10 13 rings
6 14 16 17 18 19 20 rings
6 6 7 9 11 12 15 rings

>  <PUBCHEM_SHAPE_FINGERPRINT>
10319926 262 18339623639079927362
10411042 1 17689153838918189787
10493431 412 18412550899190905579
10498660 4 18336259038155622404
10608611 8 18341890844582710312
10646746 165 18410291411290866772
11578080 2 16807560661564956135
11595378 159 17603851292036568784
12107183 9 17685765831707532056
12173636 292 18409724054157661710
12236239 1 17385443219831120436
12390115 104 18199200502985526313
12403259 415 18412259523903711936
12596602 18 16588026844156286080
12788726 201 16955089051946383770
12916748 109 18408608050066549664
13081056 2 18413107251663356708
13140716 1 18192439782443455073
13544592 145 18342466902818679814
14341114 176 18411986857957503992
14787075 74 18272365395410613289
14790565 3 18411707556044776401
15042514 8 18191310575201304571
15196674 1 18337952290330464676
18186145 218 18201441354958650840
19784866 170 18335424534979148177
200 152 16988561303619401118
20510252 161 18342457062362639976
20645477 56 18410292536303305356
20645477 70 17274831216770011254
21033648 29 18340193137957187080
21065198 57 18411697734118468002
21236236 1 18342175626547569519
21267235 1 18408613555934976822
21279426 13 18196936574442069094
221357 26 18131628967727941912
22224240 67 18410863166280868131
23175994 123 17346884463726178344
23227448 37 18341047531658640252
23402539 116 18341044211337930942
23559900 14 18343301483852294606
3004659 81 18335425609365050694
335352 9 18411419509941474878
350125 39 18409453600294457093
3545911 37 18413390938949086460
4214541 1 18411417306802742604
474 4 16879355726359951084
474229 33 18409449189436474875
495365 180 17346305034600225762
5104073 3 18189619332838080865
542803 24 17346600768087715024
59755656 215 18338238167506508630
633830 44 18200024032683160908
69090 78 18343298189095660934
77779 3 18412262839955658820
9709674 26 18341898523942401550

>  <PUBCHEM_SHAPE_MULTIPOLES>
402.82
11.67
2.31
0.72
5.74
0.44
-0.06
-3.53
-0.92
-1.26
0.03
-0.06
-0.08
0.71

>  <PUBCHEM_SHAPE_SELFOVERLAP>
895.866

>  <PUBCHEM_SHAPE_VOLUME>
214

>  <RI>
-1.24554e+08

>  <Rbt.Current_Directory>
/root/miniconda3/envs/rdock/share/rxdock-2013.1.1_148c5bd1-0/data/ligands/prepped_ligands/Oryxylin_A

>  <Rbt.Executable>
rbdock/0.1.0

>  <Rbt.Library>
librxdock.so/0.1.0

>  <Rbt.Parameter_File>
/root/miniconda3/envs/rdock/share/rxdock-2013.1.1_148c5bd1-0/data/scripts/dock.prm

>  <Rbt.Receptor>
def.prm

>  <SCORE>
-12.6344

>  <SCORE.INTER>
-11.3848

>  <SCORE.INTER.CONST>
1

>  <SCORE.INTER.POLAR>
0

>  <SCORE.INTER.REPUL>
0

>  <SCORE.INTER.ROT>
2

>  <SCORE.INTER.VDW>
-18.7848

>  <SCORE.INTER.norm>
-0.542132

>  <SCORE.INTRA>
-0.191799

>  <SCORE.INTRA.DIHEDRAL>
-0.335125

>  <SCORE.INTRA.DIHEDRAL.0>
6.0475

>  <SCORE.INTRA.POLAR>
-0.0631589

>  <SCORE.INTRA.POLAR.0>
-0.0243237

>  <SCORE.INTRA.REPUL>
0

>  <SCORE.INTRA.REPUL.0>
0

>  <SCORE.INTRA.VDW>
0.190504

>  <SCORE.INTRA.VDW.0>
0.255107

>  <SCORE.INTRA.norm>
-0.00913328

>  <SCORE.RESTR>
0

>  <SCORE.RESTR.CAVITY>
0

>  <SCORE.RESTR.norm>
0

>  <SCORE.SYSTEM>
-1.05785

>  <SCORE.SYSTEM.CONST>
0

>  <SCORE.SYSTEM.DIHEDRAL>
0.0208072

>  <SCORE.SYSTEM.POLAR>
-0.00631184

>  <SCORE.SYSTEM.VDW>
-1.04679

>  <SCORE.SYSTEM.norm>
-0.0503738

>  <SCORE.heavy>
21

>  <SCORE.norm>
-0.601639

$$$$
5320315
  RxDock  02242109593D
librxdock.so/0.1.0
 23 25  0  0  0  0  0  0  0  0999 V2000
  -50.7635   -4.2965   16.0556 O   0  0  0  0  0  0
  -46.4393   -0.8605   15.9474 O   0  0  0  0  0  0
  -48.6481   -0.2402   14.4692 O   0  0  0  0  0  0
  -46.3803   -3.1679   17.4685 O   0  0  0  0  0  0
  -51.0539   -0.9517   13.7476 O   0  0  0  0  0  0
  -49.7488   -2.2500   15.2292 C   0  0  0  0  0  0
  -49.7156   -3.4128   15.9971 C   0  0  0  0  0  0
  -51.9072   -4.0138   15.3245 C   0  0  0  0  0  0
  -48.6512   -1.3864   15.2071 C   0  0  0  0  0  0
  -50.9569   -1.9520   14.4451 C   0  0  0  0  0  0
  -48.5813   -3.7195   16.7491 C   0  0  0  0  0  0
  -47.5181   -1.6955   15.9607 C   0  0  0  0  0  0
  -52.0574   -2.9318   14.5441 C   0  0  0  0  0  0
  -52.9693   -5.0315   15.4549 C   0  0  0  0  0  0
  -47.4830   -2.8593   16.7300 C   0  0  0  0  0  0
  -54.1723   -4.8837   14.7600 C   0  0  0  0  0  0
  -52.7760   -6.1470   16.2737 C   0  0  0  0  0  0
  -55.1755   -5.8451   14.8832 C   0  0  0  0  0  0
  -53.7792   -7.1085   16.3967 C   0  0  0  0  0  0
  -54.9789   -6.9574   15.7015 C   0  0  0  0  0  0
  -45.3971   -1.1659   15.0243 C   0  0  0  0  0  0
  -47.7593    0.1443   14.4349 H   0  0  0  0  0  0
  -45.7615   -2.4187   17.4286 H   0  0  0  0  0  0
  1  7  1  0  0  0
  1  8  1  0  0  0
  2 12  1  0  0  0
  2 21  1  0  0  0
  3  9  1  0  0  0
  3 22  1  0  0  0
  4 15  1  0  0  0
  4 23  1  0  0  0
  5 10  2  0  0  0
  6  7  2  0  0  0
  6  9  1  0  0  0
  6 10  1  0  0  0
  7 11  1  0  0  0
  8 13  2  0  0  0
  8 14  1  0  0  0
  9 12  2  0  0  0
 10 13  1  0  0  0
 11 15  2  0  0  0
 12 15  1  0  0  0
 14 16  2  0  0  0
 14 17  1  0  0  0
 16 18  1  0  0  0
 17 19  2  0  0  0
 18 20  2  0  0  0
 19 20  1  0  0  0
M  END
>  <CHROM.0>
-174.09906311,-60.71338206,-62.40227546

>  <CHROM.1>
-94.77109809,-169.14407931,-173.12965520,-179.24096974,-50.29687071,-3.28198992
15.54024487,-2.70117938,-0.35927350,-0.58276288

>  <Name>
5320315

>  <PUBCHEM_ATOM_DEF_STEREO_COUNT>
0

>  <PUBCHEM_ATOM_UDEF_STEREO_COUNT>
0

>  <PUBCHEM_BOND_DEF_STEREO_COUNT>
0

>  <PUBCHEM_BOND_UDEF_STEREO_COUNT>
0

>  <PUBCHEM_CACTVS_TAUTO_COUNT>
12

>  <PUBCHEM_COMPONENT_COUNT>
1

>  <PUBCHEM_COMPOUND_CID>
5320315

>  <PUBCHEM_CONFORMER_DIVERSEORDER>
1
2

>  <PUBCHEM_CONFORMER_ID>
00512E7B00000001

>  <PUBCHEM_CONFORMER_RMSD>
0.6

>  <PUBCHEM_COORDINATE_TYPE>
2
5
10

>  <PUBCHEM_EFFECTIVE_ROTOR_COUNT>
2

>  <PUBCHEM_FEATURE_SELFOVERLAP>
40.625

>  <PUBCHEM_HEAVY_ATOM_COUNT>
21

>  <PUBCHEM_ISOTOPIC_ATOM_COUNT>
0

>  <PUBCHEM_MMFF94_ENERGY>
75.473

>  <PUBCHEM_MMFF94_PARTIAL_CHARGES>
30
1 -0.16
10 0.47
11 -0.15
12 0.08
13 -0.14
14 0.03
15 0.08
16 -0.15
17 -0.15
18 -0.15
19 -0.15
2 -0.36
20 -0.15
21 0.28
22 0.15
23 0.15
24 0.15
25 0.15
26 0.15
27 0.15
28 0.45
29 0.15
3 -0.53
30 0.45
4 -0.53
5 -0.57
6 0.09
7 0.08
8 0.05
9 0.08

>  <PUBCHEM_PHARMACOPHORE_FEATURES>
8
1 1 acceptor
1 2 acceptor
1 3 donor
1 4 donor
1 5 acceptor
6 1 6 7 8 10 13 rings
6 14 16 17 18 19 20 rings
6 6 7 9 11 12 15 rings

>  <PUBCHEM_SHAPE_FINGERPRINT>
10319926 262 18339623639079927362
10411042 1 17689153838918189787
10493431 412 18412550899190905579
10498660 4 18336259038155622404
10608611 8 18341890844582710312
10646746 165 18410291411290866772
11578080 2 16807560661564956135
11595378 159 17603851292036568784
12107183 9 17685765831707532056
12173636 292 18409724054157661710
12236239 1 17385443219831120436
12390115 104 18199200502985526313
12403259 415 18412259523903711936
12596602 18 16588026844156286080
12788726 201 16955089051946383770
12916748 109 18408608050066549664
13081056 2 18413107251663356708
13140716 1 18192439782443455073
13544592 145 18342466902818679814
14341114 176 18411986857957503992
14787075 74 18272365395410613289
14790565 3 18411707556044776401
15042514 8 18191310575201304571
15196674 1 18337952290330464676
18186145 218 18201441354958650840
19784866 170 18335424534979148177
200 152 16988561303619401118
20510252 161 18342457062362639976
20645477 56 18410292536303305356
20645477 70 17274831216770011254
21033648 29 18340193137957187080
21065198 57 18411697734118468002
21236236 1 18342175626547569519
21267235 1 18408613555934976822
21279426 13 18196936574442069094
221357 26 18131628967727941912
22224240 67 18410863166280868131
23175994 123 17346884463726178344
23227448 37 18341047531658640252
23402539 116 18341044211337930942
23559900 14 18343301483852294606
3004659 81 18335425609365050694
335352 9 18411419509941474878
350125 39 18409453600294457093
3545911 37 18413390938949086460
4214541 1 18411417306802742604
474 4 16879355726359951084
474229 33 18409449189436474875
495365 180 17346305034600225762
5104073 3 18189619332838080865
542803 24 17346600768087715024
59755656 215 18338238167506508630
633830 44 18200024032683160908
69090 78 18343298189095660934
77779 3 18412262839955658820
9709674 26 18341898523942401550

>  <PUBCHEM_SHAPE_MULTIPOLES>
402.82
11.67
2.31
0.72
5.74
0.44
-0.06
-3.53
-0.92
-1.26
0.03
-0.06
-0.08
0.71

>  <PUBCHEM_SHAPE_SELFOVERLAP>
895.866

>  <PUBCHEM_SHAPE_VOLUME>
214

>  <RI>
-1.24554e+08

>  <Rbt.Current_Directory>
/root/miniconda3/envs/rdock/share/rxdock-2013.1.1_148c5bd1-0/data/ligands/prepped_ligands/Oryxylin_A

>  <Rbt.Executable>
rbdock/0.1.0

>  <Rbt.Library>
librxdock.so/0.1.0

>  <Rbt.Parameter_File>
/root/miniconda3/envs/rdock/share/rxdock-2013.1.1_148c5bd1-0/data/scripts/dock.prm

>  <Rbt.Receptor>
def.prm

>  <SCORE>
-16.0378

>  <SCORE.INTER>
-14.9228

>  <SCORE.INTER.CONST>
1

>  <SCORE.INTER.POLAR>
-1.29122

>  <SCORE.INTER.REPUL>
0

>  <SCORE.INTER.ROT>
2

>  <SCORE.INTER.VDW>
-17.9326

>  <SCORE.INTER.norm>
-0.710608

>  <SCORE.INTRA>
-0.102235

>  <SCORE.INTRA.DIHEDRAL>
-1.04064

>  <SCORE.INTRA.DIHEDRAL.0>
6.0475

>  <SCORE.INTRA.POLAR>
-0.00584138

>  <SCORE.INTRA.POLAR.0>
-0.0243237

>  <SCORE.INTRA.REPUL>
0

>  <SCORE.INTRA.REPUL.0>
0

>  <SCORE.INTRA.VDW>
0.437946

>  <SCORE.INTRA.VDW.0>
0.255107

>  <SCORE.INTRA.norm>
-0.00486835

>  <SCORE.RESTR>
0

>  <SCORE.RESTR.CAVITY>
0

>  <SCORE.RESTR.norm>
0

>  <SCORE.SYSTEM>
-1.01282

>  <SCORE.SYSTEM.CONST>
0

>  <SCORE.SYSTEM.DIHEDRAL>
0.0998252

>  <SCORE.SYSTEM.VDW>
-1.06274

>  <SCORE.SYSTEM.norm>
-0.0482297

>  <SCORE.heavy>
21

>  <SCORE.norm>
-0.763706

$$$$
5320315
  RxDock  02242109593D
librxdock.so/0.1.0
 23 25  0  0  0  0  0  0  0  0999 V2000
  -48.1538   -0.5841   14.0310 O   0  0  0  0  0  0
  -47.6841   -5.1785   17.0621 O   0  0  0  0  0  0
  -49.9776   -4.7711   15.6399 O   0  0  0  0  0  0
  -45.6400   -3.3195   16.9774 O   0  0  0  0  0  0
  -51.2826   -3.1936   14.0202 O   0  0  0  0  0  0
  -49.1161   -2.6747   14.8082 C   0  0  0  0  0  0
  -48.0835   -1.7393   14.7680 C   0  0  0  0  0  0
  -49.2996   -0.3434   13.2884 C   0  0  0  0  0  0
  -48.9896   -3.8339   15.5773 C   0  0  0  0  0  0
  -50.3368   -2.4178   14.0291 C   0  0  0  0  0  0
  -46.9155   -1.9583   15.4987 C   0  0  0  0  0  0
  -47.8200   -4.0506   16.3068 C   0  0  0  0  0  0
  -50.3622   -1.1632   13.2506 C   0  0  0  0  0  0
  -49.2722    0.9284   12.5383 C   0  0  0  0  0  0
  -46.7851   -3.1150   16.2679 C   0  0  0  0  0  0
  -50.3560    1.8073   12.6069 C   0  0  0  0  0  0
  -48.1622    1.2585   11.7566 C   0  0  0  0  0  0
  -50.3300    3.0086   11.8983 C   0  0  0  0  0  0
  -48.1362    2.4599   11.0482 C   0  0  0  0  0  0
  -49.2201    3.3349   11.1190 C   0  0  0  0  0  0
  -48.6703   -5.4069   18.0656 C   0  0  0  0  0  0
  -50.5678   -4.7001   14.8747 H   0  0  0  0  0  0
  -45.7198   -4.1612   17.4578 H   0  0  0  0  0  0
  1  7  1  0  0  0
  1  8  1  0  0  0
  2 12  1  0  0  0
  2 21  1  0  0  0
  3  9  1  0  0  0
  3 22  1  0  0  0
  4 15  1  0  0  0
  4 23  1  0  0  0
  5 10  2  0  0  0
  6  7  2  0  0  0
  6  9  1  0  0  0
  6 10  1  0  0  0
  7 11  1  0  0  0
  8 13  2  0  0  0
  8 14  1  0  0  0
  9 12  2  0  0  0
 10 13  1  0  0  0
 11 15  2  0  0  0
 12 15  1  0  0  0
 14 16  2  0  0  0
 14 17  1  0  0  0
 16 18  1  0  0  0
 17 19  2  0  0  0
 18 20  2  0  0  0
 19 20  1  0  0  0
M  END
>  <CHROM.0>
68.63167785,65.38225320,-175.27515417

>  <CHROM.1>
-57.51060307,21.24644571,179.51258231,-131.15300340,-48.77421043,-1.60491925
14.40582760,-1.73927596,0.33423686,2.55522185

>  <Name>
5320315

>  <PUBCHEM_ATOM_DEF_STEREO_COUNT>
0

>  <PUBCHEM_ATOM_UDEF_STEREO_COUNT>
0

>  <PUBCHEM_BOND_DEF_STEREO_COUNT>
0

>  <PUBCHEM_BOND_UDEF_STEREO_COUNT>
0

>  <PUBCHEM_CACTVS_TAUTO_COUNT>
12

>  <PUBCHEM_COMPONENT_COUNT>
1

>  <PUBCHEM_COMPOUND_CID>
5320315

>  <PUBCHEM_CONFORMER_DIVERSEORDER>
1
2

>  <PUBCHEM_CONFORMER_ID>
00512E7B00000001

>  <PUBCHEM_CONFORMER_RMSD>
0.6

>  <PUBCHEM_COORDINATE_TYPE>
2
5
10

>  <PUBCHEM_EFFECTIVE_ROTOR_COUNT>
2

>  <PUBCHEM_FEATURE_SELFOVERLAP>
40.625

>  <PUBCHEM_HEAVY_ATOM_COUNT>
21

>  <PUBCHEM_ISOTOPIC_ATOM_COUNT>
0

>  <PUBCHEM_MMFF94_ENERGY>
75.473

>  <PUBCHEM_MMFF94_PARTIAL_CHARGES>
30
1 -0.16
10 0.47
11 -0.15
12 0.08
13 -0.14
14 0.03
15 0.08
16 -0.15
17 -0.15
18 -0.15
19 -0.15
2 -0.36
20 -0.15
21 0.28
22 0.15
23 0.15
24 0.15
25 0.15
26 0.15
27 0.15
28 0.45
29 0.15
3 -0.53
30 0.45
4 -0.53
5 -0.57
6 0.09
7 0.08
8 0.05
9 0.08

>  <PUBCHEM_PHARMACOPHORE_FEATURES>
8
1 1 acceptor
1 2 acceptor
1 3 donor
1 4 donor
1 5 acceptor
6 1 6 7 8 10 13 rings
6 14 16 17 18 19 20 rings
6 6 7 9 11 12 15 rings

>  <PUBCHEM_SHAPE_FINGERPRINT>
10319926 262 18339623639079927362
10411042 1 17689153838918189787
10493431 412 18412550899190905579
10498660 4 18336259038155622404
10608611 8 18341890844582710312
10646746 165 18410291411290866772
11578080 2 16807560661564956135
11595378 159 17603851292036568784
12107183 9 17685765831707532056
12173636 292 18409724054157661710
12236239 1 17385443219831120436
12390115 104 18199200502985526313
12403259 415 18412259523903711936
12596602 18 16588026844156286080
12788726 201 16955089051946383770
12916748 109 18408608050066549664
13081056 2 18413107251663356708
13140716 1 18192439782443455073
13544592 145 18342466902818679814
14341114 176 18411986857957503992
14787075 74 18272365395410613289
14790565 3 18411707556044776401
15042514 8 18191310575201304571
15196674 1 18337952290330464676
18186145 218 18201441354958650840
19784866 170 18335424534979148177
200 152 16988561303619401118
20510252 161 18342457062362639976
20645477 56 18410292536303305356
20645477 70 17274831216770011254
21033648 29 18340193137957187080
21065198 57 18411697734118468002
21236236 1 18342175626547569519
21267235 1 18408613555934976822
21279426 13 18196936574442069094
221357 26 18131628967727941912
22224240 67 18410863166280868131
23175994 123 17346884463726178344
23227448 37 18341047531658640252
23402539 116 18341044211337930942
23559900 14 18343301483852294606
3004659 81 18335425609365050694
335352 9 18411419509941474878
350125 39 18409453600294457093
3545911 37 18413390938949086460
4214541 1 18411417306802742604
474 4 16879355726359951084
474229 33 18409449189436474875
495365 180 17346305034600225762
5104073 3 18189619332838080865
542803 24 17346600768087715024
59755656 215 18338238167506508630
633830 44 18200024032683160908
69090 78 18343298189095660934
77779 3 18412262839955658820
9709674 26 18341898523942401550

>  <PUBCHEM_SHAPE_MULTIPOLES>
402.82
11.67
2.31
0.72
5.74
0.44
-0.06
-3.53
-0.92
-1.26
0.03
-0.06
-0.08
0.71

>  <PUBCHEM_SHAPE_SELFOVERLAP>
895.866

>  <PUBCHEM_SHAPE_VOLUME>
214

>  <RI>
-1.24554e+08

>  <Rbt.Current_Directory>
/root/miniconda3/envs/rdock/share/rxdock-2013.1.1_148c5bd1-0/data/ligands/prepped_ligands/Oryxylin_A

>  <Rbt.Executable>
rbdock/0.1.0

>  <Rbt.Library>
librxdock.so/0.1.0

>  <Rbt.Parameter_File>
/root/miniconda3/envs/rdock/share/rxdock-2013.1.1_148c5bd1-0/data/scripts/dock.prm

>  <Rbt.Receptor>
def.prm

>  <SCORE>
-14.3516

>  <SCORE.INTER>
-14.0543

>  <SCORE.INTER.CONST>
1

>  <SCORE.INTER.POLAR>
0

>  <SCORE.INTER.REPUL>
0.228045

>  <SCORE.INTER.ROT>
2

>  <SCORE.INTER.VDW>
-22.5946

>  <SCORE.INTER.norm>
-0.669254

>  <SCORE.INTRA>
0.574287

>  <SCORE.INTRA.DIHEDRAL>
0.683888

>  <SCORE.INTRA.DIHEDRAL.0>
6.0475

>  <SCORE.INTRA.POLAR>
-0.112621

>  <SCORE.INTRA.POLAR.0>
-0.0243237

>  <SCORE.INTRA.REPUL>
0

>  <SCORE.INTRA.REPUL.0>
0

>  <SCORE.INTRA.VDW>
0.615254

>  <SCORE.INTRA.VDW.0>
0.255107

>  <SCORE.INTRA.norm>
0.027347

>  <SCORE.RESTR>
0

>  <SCORE.RESTR.CAVITY>
0

>  <SCORE.RESTR.norm>
0

>  <SCORE.SYSTEM>
-0.871606

>  <SCORE.SYSTEM.CONST>
0

>  <SCORE.SYSTEM.DIHEDRAL>
0.36775

>  <SCORE.SYSTEM.POLAR>
-0.0117587

>  <SCORE.SYSTEM.VDW>
-1.0155

>  <SCORE.SYSTEM.norm>
-0.041505

>  <SCORE.heavy>
21

>  <SCORE.norm>
-0.683412

$$$$
5320315
  RxDock  02242109593D
librxdock.so/0.1.0
 23 25  0  0  0  0  0  0  0  0999 V2000
  -52.8946   -3.8649   17.0992 O   0  0  0  0  0  0
  -49.6539    0.5367   17.8988 O   0  0  0  0  0  0
  -50.2265   -0.2266   15.3418 O   0  0  0  0  0  0
  -50.6847   -0.8742   20.0408 O   0  0  0  0  0  0
  -51.4777   -1.9277   13.8070 O   0  0  0  0  0  0
  -51.5686   -2.0569   16.1648 C   0  0  0  0  0  0
  -52.0865   -2.7661   17.2471 C   0  0  0  0  0  0
  -53.2153   -4.2807   15.8159 C   0  0  0  0  0  0
  -50.7498   -0.9450   16.3753 C   0  0  0  0  0  0
  -51.8991   -2.5009   14.8021 C   0  0  0  0  0  0
  -51.7874   -2.3665   18.5499 C   0  0  0  0  0  0
  -50.4527   -0.5473   17.6795 C   0  0  0  0  0  0
  -52.7743   -3.6857   14.6961 C   0  0  0  0  0  0
  -54.0847   -5.4736   15.7714 C   0  0  0  0  0  0
  -50.9701   -1.2563   18.7645 C   0  0  0  0  0  0
  -53.5758   -6.7266   16.1218 C   0  0  0  0  0  0
  -55.4203   -5.3545   15.3787 C   0  0  0  0  0  0
  -54.3971   -7.8533   16.0797 C   0  0  0  0  0  0
  -56.2416   -6.4813   15.3369 C   0  0  0  0  0  0
  -55.7300   -7.7306   15.6873 C   0  0  0  0  0  0
  -50.2670    1.6842   18.4809 C   0  0  0  0  0  0
  -49.5200    0.3590   15.6530 H   0  0  0  0  0  0
  -51.0913   -1.5112   20.6529 H   0  0  0  0  0  0
  1  7  1  0  0  0
  1  8  1  0  0  0
  2 12  1  0  0  0
  2 21  1  0  0  0
  3  9  1  0  0  0
  3 22  1  0  0  0
  4 15  1  0  0  0
  4 23  1  0  0  0
  5 10  2  0  0  0
  6  7  2  0  0  0
  6  9  1  0  0  0
  6 10  1  0  0  0
  7 11  1  0  0  0
  8 13  2  0  0  0
  8 14  1  0  0  0
  9 12  2  0  0  0
 10 13  1  0  0  0
 11 15  2  0  0  0
 12 15  1  0  0  0
 14 16  2  0  0  0
 14 17  1  0  0  0
 16 18  1  0  0  0
 17 19  2  0  0  0
 18 20  2  0  0  0
 19 20  1  0  0  0
M  END
>  <CHROM.0>
-176.17706376,-179.61978198,-175.74027413

>  <CHROM.1>
112.27350084,-165.89010985,2.99400918,-71.43342913,-52.29966466,-2.95150399
16.57055721,2.90391372,-0.97090930,-1.53318449

>  <Name>
5320315

>  <PUBCHEM_ATOM_DEF_STEREO_COUNT>
0

>  <PUBCHEM_ATOM_UDEF_STEREO_COUNT>
0

>  <PUBCHEM_BOND_DEF_STEREO_COUNT>
0

>  <PUBCHEM_BOND_UDEF_STEREO_COUNT>
0

>  <PUBCHEM_CACTVS_TAUTO_COUNT>
12

>  <PUBCHEM_COMPONENT_COUNT>
1

>  <PUBCHEM_COMPOUND_CID>
5320315

>  <PUBCHEM_CONFORMER_DIVERSEORDER>
1
2

>  <PUBCHEM_CONFORMER_ID>
00512E7B00000001

>  <PUBCHEM_CONFORMER_RMSD>
0.6

>  <PUBCHEM_COORDINATE_TYPE>
2
5
10

>  <PUBCHEM_EFFECTIVE_ROTOR_COUNT>
2

>  <PUBCHEM_FEATURE_SELFOVERLAP>
40.625

>  <PUBCHEM_HEAVY_ATOM_COUNT>
21

>  <PUBCHEM_ISOTOPIC_ATOM_COUNT>
0

>  <PUBCHEM_MMFF94_ENERGY>
75.473

>  <PUBCHEM_MMFF94_PARTIAL_CHARGES>
30
1 -0.16
10 0.47
11 -0.15
12 0.08
13 -0.14
14 0.03
15 0.08
16 -0.15
17 -0.15
18 -0.15
19 -0.15
2 -0.36
20 -0.15
21 0.28
22 0.15
23 0.15
24 0.15
25 0.15
26 0.15
27 0.15
28 0.45
29 0.15
3 -0.53
30 0.45
4 -0.53
5 -0.57
6 0.09
7 0.08
8 0.05
9 0.08

>  <PUBCHEM_PHARMACOPHORE_FEATURES>
8
1 1 acceptor
1 2 acceptor
1 3 donor
1 4 donor
1 5 acceptor
6 1 6 7 8 10 13 rings
6 14 16 17 18 19 20 rings
6 6 7 9 11 12 15 rings

>  <PUBCHEM_SHAPE_FINGERPRINT>
10319926 262 18339623639079927362
10411042 1 17689153838918189787
10493431 412 18412550899190905579
10498660 4 18336259038155622404
10608611 8 18341890844582710312
10646746 165 18410291411290866772
11578080 2 16807560661564956135
11595378 159 17603851292036568784
12107183 9 17685765831707532056
12173636 292 18409724054157661710
12236239 1 17385443219831120436
12390115 104 18199200502985526313
12403259 415 18412259523903711936
12596602 18 16588026844156286080
12788726 201 16955089051946383770
12916748 109 18408608050066549664
13081056 2 18413107251663356708
13140716 1 18192439782443455073
13544592 145 18342466902818679814
14341114 176 18411986857957503992
14787075 74 18272365395410613289
14790565 3 18411707556044776401
15042514 8 18191310575201304571
15196674 1 18337952290330464676
18186145 218 18201441354958650840
19784866 170 18335424534979148177
200 152 16988561303619401118
20510252 161 18342457062362639976
20645477 56 18410292536303305356
20645477 70 17274831216770011254
21033648 29 18340193137957187080
21065198 57 18411697734118468002
21236236 1 18342175626547569519
21267235 1 18408613555934976822
21279426 13 18196936574442069094
221357 26 18131628967727941912
22224240 67 18410863166280868131
23175994 123 17346884463726178344
23227448 37 18341047531658640252
23402539 116 18341044211337930942
23559900 14 18343301483852294606
3004659 81 18335425609365050694
335352 9 18411419509941474878
350125 39 18409453600294457093
3545911 37 18413390938949086460
4214541 1 18411417306802742604
474 4 16879355726359951084
474229 33 18409449189436474875
495365 180 17346305034600225762
5104073 3 18189619332838080865
542803 24 17346600768087715024
59755656 215 18338238167506508630
633830 44 18200024032683160908
69090 78 18343298189095660934
77779 3 18412262839955658820
9709674 26 18341898523942401550

>  <PUBCHEM_SHAPE_MULTIPOLES>
402.82
11.67
2.31
0.72
5.74
0.44
-0.06
-3.53
-0.92
-1.26
0.03
-0.06
-0.08
0.71

>  <PUBCHEM_SHAPE_SELFOVERLAP>
895.866

>  <PUBCHEM_SHAPE_VOLUME>
214

>  <RI>
-1.24554e+08

>  <Rbt.Current_Directory>
/root/miniconda3/envs/rdock/share/rxdock-2013.1.1_148c5bd1-0/data/ligands/prepped_ligands/Oryxylin_A

>  <Rbt.Executable>
rbdock/0.1.0

>  <Rbt.Library>
librxdock.so/0.1.0

>  <Rbt.Parameter_File>
/root/miniconda3/envs/rdock/share/rxdock-2013.1.1_148c5bd1-0/data/scripts/dock.prm

>  <Rbt.Receptor>
def.prm

>  <SCORE>
-11.4726

>  <SCORE.INTER>
-11.352

>  <SCORE.INTER.CONST>
1

>  <SCORE.INTER.POLAR>
-0.00712212

>  <SCORE.INTER.REPUL>
0

>  <SCORE.INTER.ROT>
2

>  <SCORE.INTER.VDW>
-18.7277

>  <SCORE.INTER.norm>
-0.54057

>  <SCORE.INTRA>
0.92625

>  <SCORE.INTRA.DIHEDRAL>
2.70059

>  <SCORE.INTRA.DIHEDRAL.0>
6.0475

>  <SCORE.INTRA.POLAR>
-0.0622011

>  <SCORE.INTRA.POLAR.0>
-0.0243237

>  <SCORE.INTRA.REPUL>
0

>  <SCORE.INTRA.REPUL.0>
0

>  <SCORE.INTRA.VDW>
-0.21256

>  <SCORE.INTRA.VDW.0>
0.255107

>  <SCORE.INTRA.norm>
0.0441072

>  <SCORE.RESTR>
0

>  <SCORE.RESTR.CAVITY>
0

>  <SCORE.RESTR.norm>
0

>  <SCORE.SYSTEM>
-1.04684

>  <SCORE.SYSTEM.CONST>
0

>  <SCORE.SYSTEM.DIHEDRAL>
0.0751843

>  <SCORE.SYSTEM.POLAR>
-0.010979

>  <SCORE.SYSTEM.VDW>
-1.0471

>  <SCORE.SYSTEM.norm>
-0.0498494

>  <SCORE.heavy>
21

>  <SCORE.norm>
-0.546312

$$$$
5320315
  RxDock  02242109593D
librxdock.so/0.1.0
 23 25  0  0  0  0  0  0  0  0999 V2000
  -50.9096   -1.0564   13.6905 O   0  0  0  0  0  0
  -53.1418   -4.6764   17.2160 O   0  0  0  0  0  0
  -51.3032   -2.8910   18.1542 O   0  0  0  0  0  0
  -53.8669   -4.6619   14.5485 O   0  0  0  0  0  0
  -49.7021   -0.9109   17.5790 O   0  0  0  0  0  0
  -51.0684   -1.9391   15.9480 C   0  0  0  0  0  0
  -51.4361   -1.9348   14.6035 C   0  0  0  0  0  0
  -49.9775   -0.1282   14.1289 C   0  0  0  0  0  0
  -51.6374   -2.8578   16.8331 C   0  0  0  0  0  0
  -50.0729   -0.9621   16.4143 C   0  0  0  0  0  0
  -52.3774   -2.8519   14.1352 C   0  0  0  0  0  0
  -52.5790   -3.7737   16.3619 C   0  0  0  0  0  0
  -49.5390   -0.0370   15.3945 C   0  0  0  0  0  0
  -49.4727    0.7633   13.0654 C   0  0  0  0  0  0
  -52.9482   -3.7709   15.0161 C   0  0  0  0  0  0
  -48.2437    0.5017   12.4547 C   0  0  0  0  0  0
  -50.2219    1.8726   12.6649 C   0  0  0  0  0  0
  -47.7670    1.3439   11.4500 C   0  0  0  0  0  0
  -49.7452    2.7146   11.6601 C   0  0  0  0  0  0
  -48.5177    2.4503   11.0528 C   0  0  0  0  0  0
  -52.3126   -5.7453   17.6650 C   0  0  0  0  0  0
  -50.8049   -2.0979   18.4028 H   0  0  0  0  0  0
  -54.1252   -5.2515   15.2776 H   0  0  0  0  0  0
  1  7  1  0  0  0
  1  8  1  0  0  0
  2 12  1  0  0  0
  2 21  1  0  0  0
  3  9  1  0  0  0
  3 22  1  0  0  0
  4 15  1  0  0  0
  4 23  1  0  0  0
  5 10  2  0  0  0
  6  7  2  0  0  0
  6  9  1  0  0  0
  6 10  1  0  0  0
  7 11  1  0  0  0
  8 13  2  0  0  0
  8 14  1  0  0  0
  9 12  2  0  0  0
 10 13  1  0  0  0
 11 15  2  0  0  0
 12 15  1  0  0  0
 14 16  2  0  0  0
 14 17  1  0  0  0
 16 18  1  0  0  0
 17 19  2  0  0  0
 18 20  2  0  0  0
 19 20  1  0  0  0
M  END
>  <CHROM.0>
-179.63788471,59.65669193,55.30375171

>  <CHROM.1>
-72.33427708,12.69860000,177.14748953,-99.00726073,-50.86611967,-1.47146589
14.86112760,0.88352781,-0.81744888,-1.20508180

>  <Name>
5320315

>  <PUBCHEM_ATOM_DEF_STEREO_COUNT>
0

>  <PUBCHEM_ATOM_UDEF_STEREO_COUNT>
0

>  <PUBCHEM_BOND_DEF_STEREO_COUNT>
0

>  <PUBCHEM_BOND_UDEF_STEREO_COUNT>
0

>  <PUBCHEM_CACTVS_TAUTO_COUNT>
12

>  <PUBCHEM_COMPONENT_COUNT>
1

>  <PUBCHEM_COMPOUND_CID>
5320315

>  <PUBCHEM_CONFORMER_DIVERSEORDER>
1
2

>  <PUBCHEM_CONFORMER_ID>
00512E7B00000001

>  <PUBCHEM_CONFORMER_RMSD>
0.6

>  <PUBCHEM_COORDINATE_TYPE>
2
5
10

>  <PUBCHEM_EFFECTIVE_ROTOR_COUNT>
2

>  <PUBCHEM_FEATURE_SELFOVERLAP>
40.625

>  <PUBCHEM_HEAVY_ATOM_COUNT>
21

>  <PUBCHEM_ISOTOPIC_ATOM_COUNT>
0

>  <PUBCHEM_MMFF94_ENERGY>
75.473

>  <PUBCHEM_MMFF94_PARTIAL_CHARGES>
30
1 -0.16
10 0.47
11 -0.15
12 0.08
13 -0.14
14 0.03
15 0.08
16 -0.15
17 -0.15
18 -0.15
19 -0.15
2 -0.36
20 -0.15
21 0.28
22 0.15
23 0.15
24 0.15
25 0.15
26 0.15
27 0.15
28 0.45
29 0.15
3 -0.53
30 0.45
4 -0.53
5 -0.57
6 0.09
7 0.08
8 0.05
9 0.08

>  <PUBCHEM_PHARMACOPHORE_FEATURES>
8
1 1 acceptor
1 2 acceptor
1 3 donor
1 4 donor
1 5 acceptor
6 1 6 7 8 10 13 rings
6 14 16 17 18 19 20 rings
6 6 7 9 11 12 15 rings

>  <PUBCHEM_SHAPE_FINGERPRINT>
10319926 262 18339623639079927362
10411042 1 17689153838918189787
10493431 412 18412550899190905579
10498660 4 18336259038155622404
10608611 8 18341890844582710312
10646746 165 18410291411290866772
11578080 2 16807560661564956135
11595378 159 17603851292036568784
12107183 9 17685765831707532056
12173636 292 18409724054157661710
12236239 1 17385443219831120436
12390115 104 18199200502985526313
12403259 415 18412259523903711936
12596602 18 16588026844156286080
12788726 201 16955089051946383770
12916748 109 18408608050066549664
13081056 2 18413107251663356708
13140716 1 18192439782443455073
13544592 145 18342466902818679814
14341114 176 18411986857957503992
14787075 74 18272365395410613289
14790565 3 18411707556044776401
15042514 8 18191310575201304571
15196674 1 18337952290330464676
18186145 218 18201441354958650840
19784866 170 18335424534979148177
200 152 16988561303619401118
20510252 161 18342457062362639976
20645477 56 18410292536303305356
20645477 70 17274831216770011254
21033648 29 18340193137957187080
21065198 57 18411697734118468002
21236236 1 18342175626547569519
21267235 1 18408613555934976822
21279426 13 18196936574442069094
221357 26 18131628967727941912
22224240 67 18410863166280868131
23175994 123 17346884463726178344
23227448 37 18341047531658640252
23402539 116 18341044211337930942
23559900 14 18343301483852294606
3004659 81 18335425609365050694
335352 9 18411419509941474878
350125 39 18409453600294457093
3545911 37 18413390938949086460
4214541 1 18411417306802742604
474 4 16879355726359951084
474229 33 18409449189436474875
495365 180 17346305034600225762
5104073 3 18189619332838080865
542803 24 17346600768087715024
59755656 215 18338238167506508630
633830 44 18200024032683160908
69090 78 18343298189095660934
77779 3 18412262839955658820
9709674 26 18341898523942401550

>  <PUBCHEM_SHAPE_MULTIPOLES>
402.82
11.67
2.31
0.72
5.74
0.44
-0.06
-3.53
-0.92
-1.26
0.03
-0.06
-0.08
0.71

>  <PUBCHEM_SHAPE_SELFOVERLAP>
895.866

>  <PUBCHEM_SHAPE_VOLUME>
214

>  <RI>
-1.24554e+08

>  <Rbt.Current_Directory>
/root/miniconda3/envs/rdock/share/rxdock-2013.1.1_148c5bd1-0/data/ligands/prepped_ligands/Oryxylin_A

>  <Rbt.Executable>
rbdock/0.1.0

>  <Rbt.Library>
librxdock.so/0.1.0

>  <Rbt.Parameter_File>
/root/miniconda3/envs/rdock/share/rxdock-2013.1.1_148c5bd1-0/data/scripts/dock.prm

>  <Rbt.Receptor>
def.prm

>  <SCORE>
-14.3346

>  <SCORE.INTER>
-14.1602

>  <SCORE.INTER.CONST>
1

>  <SCORE.INTER.POLAR>
0

>  <SCORE.INTER.REPUL>
0

>  <SCORE.INTER.ROT>
2

>  <SCORE.INTER.VDW>
-21.5602

>  <SCORE.INTER.norm>
-0.674293

>  <SCORE.INTRA>
0.766475

>  <SCORE.INTRA.DIHEDRAL>
3.22613

>  <SCORE.INTRA.DIHEDRAL.0>
6.0475

>  <SCORE.INTRA.POLAR>
-0.055929

>  <SCORE.INTRA.POLAR.0>
-0.0243237

>  <SCORE.INTRA.REPUL>
0

>  <SCORE.INTRA.REPUL.0>
0

>  <SCORE.INTRA.VDW>
-0.656433

>  <SCORE.INTRA.VDW.0>
0.255107

>  <SCORE.INTRA.norm>
0.0364988

>  <SCORE.RESTR>
0

>  <SCORE.RESTR.CAVITY>
0

>  <SCORE.RESTR.norm>
0

>  <SCORE.SYSTEM>
-0.940938

>  <SCORE.SYSTEM.CONST>
0

>  <SCORE.SYSTEM.DIHEDRAL>
0.0587712

>  <SCORE.SYSTEM.VDW>
-0.970323

>  <SCORE.SYSTEM.norm>
-0.0448066

>  <SCORE.heavy>
21

>  <SCORE.norm>
-0.682601

$$$$
