5320315
  RxDock  02242112033D
librxdock.so/0.1.0
 23 25  0  0  0  0  0  0  0  0999 V2000
  -50.4296   -4.1157   16.0873 O   0  0  0  0  0  0
  -45.8298   -1.0988   15.5810 O   0  0  0  0  0  0
  -47.9423   -0.5598   13.9393 O   0  0  0  0  0  0
  -46.0021   -3.1188   17.4603 O   0  0  0  0  0  0
  -50.3816   -1.1884   13.2539 O   0  0  0  0  0  0
  -49.2265   -2.3218   14.9759 C   0  0  0  0  0  0
  -49.3099   -3.3398   15.9244 C   0  0  0  0  0  0
  -51.5276   -3.8687   15.2773 C   0  0  0  0  0  0
  -48.0598   -1.5635   14.8541 C   0  0  0  0  0  0
  -50.3860   -2.0634   14.1088 C   0  0  0  0  0  0
  -48.2238   -3.6061   16.7586 C   0  0  0  0  0  0
  -46.9752   -1.8318   15.6902 C   0  0  0  0  0  0
  -51.5672   -2.9229   14.3253 C   0  0  0  0  0  0
  -52.6745   -4.7632   15.5324 C   0  0  0  0  0  0
  -47.0568   -2.8508   16.6403 C   0  0  0  0  0  0
  -53.9108   -4.5077   14.9339 C   0  0  0  0  0  0
  -52.5286   -5.8694   16.3734 C   0  0  0  0  0  0
  -54.9941   -5.3527   15.1749 C   0  0  0  0  0  0
  -53.6119   -6.7145   16.6142 C   0  0  0  0  0  0
  -54.8447   -6.4561   16.0150 C   0  0  0  0  0  0
  -44.7118   -1.7344   14.9665 C   0  0  0  0  0  0
  -47.1047   -0.6301   13.4572 H   0  0  0  0  0  0
  -45.5824   -3.9448   17.1647 H   0  0  0  0  0  0
  1  7  1  0  0  0
  1  8  1  0  0  0
  2 12  1  0  0  0
  2 21  1  0  0  0
  3  9  1  0  0  0
  3 22  1  0  0  0
  4 15  1  0  0  0
  4 23  1  0  0  0
  5 10  2  0  0  0
  6  7  2  0  0  0
  6  9  1  0  0  0
  6 10  1  0  0  0
  7 11  1  0  0  0
  8 13  2  0  0  0
  8 14  1  0  0  0
  9 12  2  0  0  0
 10 13  1  0  0  0
 11 15  2  0  0  0
 12 15  1  0  0  0
 14 16  2  0  0  0
 14 17  1  0  0  0
 16 18  1  0  0  0
 17 19  2  0  0  0
 18 20  2  0  0  0
 19 20  1  0  0  0
M  END
>  <CHROM.0>
-172.48069225,-63.01243577,-58.38425026

>  <CHROM.1>
-105.78514424,-132.72955562,73.91549031,170.59333269,-49.86371642,-3.25297329
15.43965620,-2.78746977,-0.31920293,-0.74837270

>  <Name>
5320315

>  <PUBCHEM_ATOM_DEF_STEREO_COUNT>
0

>  <PUBCHEM_ATOM_UDEF_STEREO_COUNT>
0

>  <PUBCHEM_BOND_DEF_STEREO_COUNT>
0

>  <PUBCHEM_BOND_UDEF_STEREO_COUNT>
0

>  <PUBCHEM_CACTVS_TAUTO_COUNT>
12

>  <PUBCHEM_COMPONENT_COUNT>
1

>  <PUBCHEM_COMPOUND_CID>
5320315

>  <PUBCHEM_CONFORMER_DIVERSEORDER>
1
2

>  <PUBCHEM_CONFORMER_ID>
00512E7B00000001

>  <PUBCHEM_CONFORMER_RMSD>
0.6

>  <PUBCHEM_COORDINATE_TYPE>
2
5
10

>  <PUBCHEM_EFFECTIVE_ROTOR_COUNT>
2

>  <PUBCHEM_FEATURE_SELFOVERLAP>
40.625

>  <PUBCHEM_HEAVY_ATOM_COUNT>
21

>  <PUBCHEM_ISOTOPIC_ATOM_COUNT>
0

>  <PUBCHEM_MMFF94_ENERGY>
75.473

>  <PUBCHEM_MMFF94_PARTIAL_CHARGES>
30
1 -0.16
10 0.47
11 -0.15
12 0.08
13 -0.14
14 0.03
15 0.08
16 -0.15
17 -0.15
18 -0.15
19 -0.15
2 -0.36
20 -0.15
21 0.28
22 0.15
23 0.15
24 0.15
25 0.15
26 0.15
27 0.15
28 0.45
29 0.15
3 -0.53
30 0.45
4 -0.53
5 -0.57
6 0.09
7 0.08
8 0.05
9 0.08

>  <PUBCHEM_PHARMACOPHORE_FEATURES>
8
1 1 acceptor
1 2 acceptor
1 3 donor
1 4 donor
1 5 acceptor
6 1 6 7 8 10 13 rings
6 14 16 17 18 19 20 rings
6 6 7 9 11 12 15 rings

>  <PUBCHEM_SHAPE_FINGERPRINT>
10319926 262 18339623639079927362
10411042 1 17689153838918189787
10493431 412 18412550899190905579
10498660 4 18336259038155622404
10608611 8 18341890844582710312
10646746 165 18410291411290866772
11578080 2 16807560661564956135
11595378 159 17603851292036568784
12107183 9 17685765831707532056
12173636 292 18409724054157661710
12236239 1 17385443219831120436
12390115 104 18199200502985526313
12403259 415 18412259523903711936
12596602 18 16588026844156286080
12788726 201 16955089051946383770
12916748 109 18408608050066549664
13081056 2 18413107251663356708
13140716 1 18192439782443455073
13544592 145 18342466902818679814
14341114 176 18411986857957503992
14787075 74 18272365395410613289
14790565 3 18411707556044776401
15042514 8 18191310575201304571
15196674 1 18337952290330464676
18186145 218 18201441354958650840
19784866 170 18335424534979148177
200 152 16988561303619401118
20510252 161 18342457062362639976
20645477 56 18410292536303305356
20645477 70 17274831216770011254
21033648 29 18340193137957187080
21065198 57 18411697734118468002
21236236 1 18342175626547569519
21267235 1 18408613555934976822
21279426 13 18196936574442069094
221357 26 18131628967727941912
22224240 67 18410863166280868131
23175994 123 17346884463726178344
23227448 37 18341047531658640252
23402539 116 18341044211337930942
23559900 14 18343301483852294606
3004659 81 18335425609365050694
335352 9 18411419509941474878
350125 39 18409453600294457093
3545911 37 18413390938949086460
4214541 1 18411417306802742604
474 4 16879355726359951084
474229 33 18409449189436474875
495365 180 17346305034600225762
5104073 3 18189619332838080865
542803 24 17346600768087715024
59755656 215 18338238167506508630
633830 44 18200024032683160908
69090 78 18343298189095660934
77779 3 18412262839955658820
9709674 26 18341898523942401550

>  <PUBCHEM_SHAPE_MULTIPOLES>
402.82
11.67
2.31
0.72
5.74
0.44
-0.06
-3.53
-0.92
-1.26
0.03
-0.06
-0.08
0.71

>  <PUBCHEM_SHAPE_SELFOVERLAP>
895.866

>  <PUBCHEM_SHAPE_VOLUME>
214

>  <RI>
-2.16472e+08

>  <Rbt.Current_Directory>
/root/miniconda3/envs/rdock/share/rxdock-2013.1.1_148c5bd1-0/data/ligands/prepped_ligands/Oryxylin_A

>  <Rbt.Executable>
rbdock/0.1.0

>  <Rbt.Library>
librxdock.so/0.1.0

>  <Rbt.Parameter_File>
/root/miniconda3/envs/rdock/share/rxdock-2013.1.1_148c5bd1-0/data/scripts/dock.prm

>  <Rbt.Receptor>
def.prm

>  <SCORE>
-16.4498

>  <SCORE.INTER>
-18.1719

>  <SCORE.INTER.CONST>
1

>  <SCORE.INTER.POLAR>
-2.2105

>  <SCORE.INTER.REPUL>
0.0139315

>  <SCORE.INTER.ROT>
2

>  <SCORE.INTER.VDW>
-18.1259

>  <SCORE.INTER.norm>
-0.86533

>  <SCORE.INTRA>
2.70747

>  <SCORE.INTRA.DIHEDRAL>
5.56217

>  <SCORE.INTRA.DIHEDRAL.0>
6.0475

>  <SCORE.INTRA.POLAR>
0.0243237

>  <SCORE.INTRA.POLAR.0>
-0.0243237

>  <SCORE.INTRA.REPUL>
0

>  <SCORE.INTRA.REPUL.0>
0

>  <SCORE.INTRA.VDW>
-0.156317

>  <SCORE.INTRA.VDW.0>
0.255107

>  <SCORE.INTRA.norm>
0.128927

>  <SCORE.RESTR>
0

>  <SCORE.RESTR.CAVITY>
0

>  <SCORE.RESTR.norm>
0

>  <SCORE.SYSTEM>
-0.985384

>  <SCORE.SYSTEM.CONST>
0

>  <SCORE.SYSTEM.DIHEDRAL>
0.182303

>  <SCORE.SYSTEM.POLAR>
-0.00473303

>  <SCORE.SYSTEM.VDW>
-1.06044

>  <SCORE.SYSTEM.norm>
-0.0469231

>  <SCORE.heavy>
21

>  <SCORE.norm>
-0.783326

$$$$
5320315
  RxDock  02242112033D
librxdock.so/0.1.0
 23 25  0  0  0  0  0  0  0  0999 V2000
  -50.5415   -0.4174   13.2670 O   0  0  0  0  0  0
  -50.6982   -5.3372   15.7745 O   0  0  0  0  0  0
  -48.3041   -4.0433   15.5674 O   0  0  0  0  0  0
  -52.9959   -4.1950   14.7460 O   0  0  0  0  0  0
  -47.0425   -1.9244   14.7109 O   0  0  0  0  0  0
  -49.3698   -2.2085   14.4158 C   0  0  0  0  0  0
  -50.5302   -1.6356   13.8981 C   0  0  0  0  0  0
  -49.3465    0.2755   13.1478 C   0  0  0  0  0  0
  -49.4177   -3.4529   15.0483 C   0  0  0  0  0  0
  -48.0988   -1.4804   14.2826 C   0  0  0  0  0  0
  -51.7486   -2.3059   14.0101 C   0  0  0  0  0  0
  -50.6379   -4.1209   15.1593 C   0  0  0  0  0  0
  -48.1642   -0.1731   13.5988 C   0  0  0  0  0  0
  -49.4709    1.5703   12.4485 C   0  0  0  0  0  0
  -51.8008   -3.5490   14.6414 C   0  0  0  0  0  0
  -50.6437    2.3206   12.5642 C   0  0  0  0  0  0
  -48.4163    2.0509   11.6681 C   0  0  0  0  0  0
  -50.7612    3.5437   11.9036 C   0  0  0  0  0  0
  -48.5338    3.2740   11.0078 C   0  0  0  0  0  0
  -49.7062    4.0203   11.1255 C   0  0  0  0  0  0
  -51.5874   -5.4579   16.8819 C   0  0  0  0  0  0
  -47.5031   -3.5815   15.2771 H   0  0  0  0  0  0
  -53.6815   -3.6473   14.3268 H   0  0  0  0  0  0
  1  7  1  0  0  0
  1  8  1  0  0  0
  2 12  1  0  0  0
  2 21  1  0  0  0
  3  9  1  0  0  0
  3 22  1  0  0  0
  4 15  1  0  0  0
  4 23  1  0  0  0
  5 10  2  0  0  0
  6  7  2  0  0  0
  6  9  1  0  0  0
  6 10  1  0  0  0
  7 11  1  0  0  0
  8 13  2  0  0  0
  8 14  1  0  0  0
  9 12  2  0  0  0
 10 13  1  0  0  0
 11 15  2  0  0  0
 12 15  1  0  0  0
 14 16  2  0  0  0
 14 17  1  0  0  0
 16 18  1  0  0  0
 17 19  2  0  0  0
 18 20  2  0  0  0
 19 20  1  0  0  0
M  END
>  <CHROM.0>
-60.47501191,-60.25042112,-60.58163487

>  <CHROM.1>
123.04687565,-11.51737306,0.29695685,32.49990970,-49.91576334,-1.24409764
13.87581138,1.40331807,-0.08643685,-0.49315567

>  <Name>
5320315

>  <PUBCHEM_ATOM_DEF_STEREO_COUNT>
0

>  <PUBCHEM_ATOM_UDEF_STEREO_COUNT>
0

>  <PUBCHEM_BOND_DEF_STEREO_COUNT>
0

>  <PUBCHEM_BOND_UDEF_STEREO_COUNT>
0

>  <PUBCHEM_CACTVS_TAUTO_COUNT>
12

>  <PUBCHEM_COMPONENT_COUNT>
1

>  <PUBCHEM_COMPOUND_CID>
5320315

>  <PUBCHEM_CONFORMER_DIVERSEORDER>
1
2

>  <PUBCHEM_CONFORMER_ID>
00512E7B00000001

>  <PUBCHEM_CONFORMER_RMSD>
0.6

>  <PUBCHEM_COORDINATE_TYPE>
2
5
10

>  <PUBCHEM_EFFECTIVE_ROTOR_COUNT>
2

>  <PUBCHEM_FEATURE_SELFOVERLAP>
40.625

>  <PUBCHEM_HEAVY_ATOM_COUNT>
21

>  <PUBCHEM_ISOTOPIC_ATOM_COUNT>
0

>  <PUBCHEM_MMFF94_ENERGY>
75.473

>  <PUBCHEM_MMFF94_PARTIAL_CHARGES>
30
1 -0.16
10 0.47
11 -0.15
12 0.08
13 -0.14
14 0.03
15 0.08
16 -0.15
17 -0.15
18 -0.15
19 -0.15
2 -0.36
20 -0.15
21 0.28
22 0.15
23 0.15
24 0.15
25 0.15
26 0.15
27 0.15
28 0.45
29 0.15
3 -0.53
30 0.45
4 -0.53
5 -0.57
6 0.09
7 0.08
8 0.05
9 0.08

>  <PUBCHEM_PHARMACOPHORE_FEATURES>
8
1 1 acceptor
1 2 acceptor
1 3 donor
1 4 donor
1 5 acceptor
6 1 6 7 8 10 13 rings
6 14 16 17 18 19 20 rings
6 6 7 9 11 12 15 rings

>  <PUBCHEM_SHAPE_FINGERPRINT>
10319926 262 18339623639079927362
10411042 1 17689153838918189787
10493431 412 18412550899190905579
10498660 4 18336259038155622404
10608611 8 18341890844582710312
10646746 165 18410291411290866772
11578080 2 16807560661564956135
11595378 159 17603851292036568784
12107183 9 17685765831707532056
12173636 292 18409724054157661710
12236239 1 17385443219831120436
12390115 104 18199200502985526313
12403259 415 18412259523903711936
12596602 18 16588026844156286080
12788726 201 16955089051946383770
12916748 109 18408608050066549664
13081056 2 18413107251663356708
13140716 1 18192439782443455073
13544592 145 18342466902818679814
14341114 176 18411986857957503992
14787075 74 18272365395410613289
14790565 3 18411707556044776401
15042514 8 18191310575201304571
15196674 1 18337952290330464676
18186145 218 18201441354958650840
19784866 170 18335424534979148177
200 152 16988561303619401118
20510252 161 18342457062362639976
20645477 56 18410292536303305356
20645477 70 17274831216770011254
21033648 29 18340193137957187080
21065198 57 18411697734118468002
21236236 1 18342175626547569519
21267235 1 18408613555934976822
21279426 13 18196936574442069094
221357 26 18131628967727941912
22224240 67 18410863166280868131
23175994 123 17346884463726178344
23227448 37 18341047531658640252
23402539 116 18341044211337930942
23559900 14 18343301483852294606
3004659 81 18335425609365050694
335352 9 18411419509941474878
350125 39 18409453600294457093
3545911 37 18413390938949086460
4214541 1 18411417306802742604
474 4 16879355726359951084
474229 33 18409449189436474875
495365 180 17346305034600225762
5104073 3 18189619332838080865
542803 24 17346600768087715024
59755656 215 18338238167506508630
633830 44 18200024032683160908
69090 78 18343298189095660934
77779 3 18412262839955658820
9709674 26 18341898523942401550

>  <PUBCHEM_SHAPE_MULTIPOLES>
402.82
11.67
2.31
0.72
5.74
0.44
-0.06
-3.53
-0.92
-1.26
0.03
-0.06
-0.08
0.71

>  <PUBCHEM_SHAPE_SELFOVERLAP>
895.866

>  <PUBCHEM_SHAPE_VOLUME>
214

>  <RI>
-2.16472e+08

>  <Rbt.Current_Directory>
/root/miniconda3/envs/rdock/share/rxdock-2013.1.1_148c5bd1-0/data/ligands/prepped_ligands/Oryxylin_A

>  <Rbt.Executable>
rbdock/0.1.0

>  <Rbt.Library>
librxdock.so/0.1.0

>  <Rbt.Parameter_File>
/root/miniconda3/envs/rdock/share/rxdock-2013.1.1_148c5bd1-0/data/scripts/dock.prm

>  <Rbt.Receptor>
def.prm

>  <SCORE>
-19.6467

>  <SCORE.INTER>
-19.5245

>  <SCORE.INTER.CONST>
1

>  <SCORE.INTER.POLAR>
-1.36376

>  <SCORE.INTER.REPUL>
0.108382

>  <SCORE.INTER.ROT>
2

>  <SCORE.INTER.VDW>
-22.8296

>  <SCORE.INTER.norm>
-0.929736

>  <SCORE.INTRA>
0.945348

>  <SCORE.INTRA.DIHEDRAL>
-1.13284

>  <SCORE.INTRA.DIHEDRAL.0>
6.0475

>  <SCORE.INTRA.POLAR>
0.0243237

>  <SCORE.INTRA.POLAR.0>
-0.0243237

>  <SCORE.INTRA.REPUL>
0

>  <SCORE.INTRA.REPUL.0>
0

>  <SCORE.INTRA.VDW>
1.42907

>  <SCORE.INTRA.VDW.0>
0.255107

>  <SCORE.INTRA.norm>
0.0450166

>  <SCORE.RESTR>
0

>  <SCORE.RESTR.CAVITY>
0

>  <SCORE.RESTR.norm>
0

>  <SCORE.SYSTEM>
-1.06758

>  <SCORE.SYSTEM.CONST>
0

>  <SCORE.SYSTEM.DIHEDRAL>
0.00272716

>  <SCORE.SYSTEM.VDW>
-1.06894

>  <SCORE.SYSTEM.norm>
-0.050837

>  <SCORE.heavy>
21

>  <SCORE.norm>
-0.935556

$$$$
5320315
  RxDock  02242112033D
librxdock.so/0.1.0
 23 25  0  0  0  0  0  0  0  0999 V2000
  -50.3347   -0.5930   14.8093 O   0  0  0  0  0  0
  -51.9490   -4.7849   18.0246 O   0  0  0  0  0  0
  -50.6275   -5.3428   15.7028 O   0  0  0  0  0  0
  -52.4623   -2.1656   18.7440 O   0  0  0  0  0  0
  -49.4813   -4.3776   13.5651 O   0  0  0  0  0  0
  -50.4542   -2.9860   15.2087 C   0  0  0  0  0  0
  -50.7149   -1.6665   15.5743 C   0  0  0  0  0  0
  -49.6543   -0.8339   13.6254 C   0  0  0  0  0  0
  -50.8658   -4.0405   16.0272 C   0  0  0  0  0  0
  -49.7410   -3.2454   13.9489 C   0  0  0  0  0  0
  -51.3908   -1.3932   16.7638 C   0  0  0  0  0  0
  -51.5413   -3.7641   17.2166 C   0  0  0  0  0  0
  -49.3507   -2.0573   13.1634 C   0  0  0  0  0  0
  -49.2978    0.3894   12.8788 C   0  0  0  0  0  0
  -51.8034   -2.4435   17.5842 C   0  0  0  0  0  0
  -50.1820    1.4702   12.8390 C   0  0  0  0  0  0
  -48.0744    0.4714   12.2088 C   0  0  0  0  0  0
  -49.8452    2.6257   12.1337 C   0  0  0  0  0  0
  -47.7376    1.6269   11.5037 C   0  0  0  0  0  0
  -48.6230    2.7040   11.4662 C   0  0  0  0  0  0
  -51.2879   -4.9186   19.2803 C   0  0  0  0  0  0
  -51.0527   -5.9387   16.3377 H   0  0  0  0  0  0
  -52.5254   -1.1999   18.8403 H   0  0  0  0  0  0
  1  7  1  0  0  0
  1  8  1  0  0  0
  2 12  1  0  0  0
  2 21  1  0  0  0
  3  9  1  0  0  0
  3 22  1  0  0  0
  4 15  1  0  0  0
  4 23  1  0  0  0
  5 10  2  0  0  0
  6  7  2  0  0  0
  6  9  1  0  0  0
  6 10  1  0  0  0
  7 11  1  0  0  0
  8 13  2  0  0  0
  8 14  1  0  0  0
  9 12  2  0  0  0
 10 13  1  0  0  0
 11 15  2  0  0  0
 12 15  1  0  0  0
 14 16  2  0  0  0
 14 17  1  0  0  0
 16 18  1  0  0  0
 17 19  2  0  0  0
 18 20  2  0  0  0
 19 20  1  0  0  0
M  END
>  <CHROM.0>
62.65289446,-177.00745614,-60.96453450

>  <CHROM.1>
111.32806303,-174.69038083,-1.73955124,-37.73692568,-50.30647529,-1.79313145
14.97762143,0.89818240,1.04073788,-0.18547468

>  <Name>
5320315

>  <PUBCHEM_ATOM_DEF_STEREO_COUNT>
0

>  <PUBCHEM_ATOM_UDEF_STEREO_COUNT>
0

>  <PUBCHEM_BOND_DEF_STEREO_COUNT>
0

>  <PUBCHEM_BOND_UDEF_STEREO_COUNT>
0

>  <PUBCHEM_CACTVS_TAUTO_COUNT>
12

>  <PUBCHEM_COMPONENT_COUNT>
1

>  <PUBCHEM_COMPOUND_CID>
5320315

>  <PUBCHEM_CONFORMER_DIVERSEORDER>
1
2

>  <PUBCHEM_CONFORMER_ID>
00512E7B00000001

>  <PUBCHEM_CONFORMER_RMSD>
0.6

>  <PUBCHEM_COORDINATE_TYPE>
2
5
10

>  <PUBCHEM_EFFECTIVE_ROTOR_COUNT>
2

>  <PUBCHEM_FEATURE_SELFOVERLAP>
40.625

>  <PUBCHEM_HEAVY_ATOM_COUNT>
21

>  <PUBCHEM_ISOTOPIC_ATOM_COUNT>
0

>  <PUBCHEM_MMFF94_ENERGY>
75.473

>  <PUBCHEM_MMFF94_PARTIAL_CHARGES>
30
1 -0.16
10 0.47
11 -0.15
12 0.08
13 -0.14
14 0.03
15 0.08
16 -0.15
17 -0.15
18 -0.15
19 -0.15
2 -0.36
20 -0.15
21 0.28
22 0.15
23 0.15
24 0.15
25 0.15
26 0.15
27 0.15
28 0.45
29 0.15
3 -0.53
30 0.45
4 -0.53
5 -0.57
6 0.09
7 0.08
8 0.05
9 0.08

>  <PUBCHEM_PHARMACOPHORE_FEATURES>
8
1 1 acceptor
1 2 acceptor
1 3 donor
1 4 donor
1 5 acceptor
6 1 6 7 8 10 13 rings
6 14 16 17 18 19 20 rings
6 6 7 9 11 12 15 rings

>  <PUBCHEM_SHAPE_FINGERPRINT>
10319926 262 18339623639079927362
10411042 1 17689153838918189787
10493431 412 18412550899190905579
10498660 4 18336259038155622404
10608611 8 18341890844582710312
10646746 165 18410291411290866772
11578080 2 16807560661564956135
11595378 159 17603851292036568784
12107183 9 17685765831707532056
12173636 292 18409724054157661710
12236239 1 17385443219831120436
12390115 104 18199200502985526313
12403259 415 18412259523903711936
12596602 18 16588026844156286080
12788726 201 16955089051946383770
12916748 109 18408608050066549664
13081056 2 18413107251663356708
13140716 1 18192439782443455073
13544592 145 18342466902818679814
14341114 176 18411986857957503992
14787075 74 18272365395410613289
14790565 3 18411707556044776401
15042514 8 18191310575201304571
15196674 1 18337952290330464676
18186145 218 18201441354958650840
19784866 170 18335424534979148177
200 152 16988561303619401118
20510252 161 18342457062362639976
20645477 56 18410292536303305356
20645477 70 17274831216770011254
21033648 29 18340193137957187080
21065198 57 18411697734118468002
21236236 1 18342175626547569519
21267235 1 18408613555934976822
21279426 13 18196936574442069094
221357 26 18131628967727941912
22224240 67 18410863166280868131
23175994 123 17346884463726178344
23227448 37 18341047531658640252
23402539 116 18341044211337930942
23559900 14 18343301483852294606
3004659 81 18335425609365050694
335352 9 18411419509941474878
350125 39 18409453600294457093
3545911 37 18413390938949086460
4214541 1 18411417306802742604
474 4 16879355726359951084
474229 33 18409449189436474875
495365 180 17346305034600225762
5104073 3 18189619332838080865
542803 24 17346600768087715024
59755656 215 18338238167506508630
633830 44 18200024032683160908
69090 78 18343298189095660934
77779 3 18412262839955658820
9709674 26 18341898523942401550

>  <PUBCHEM_SHAPE_MULTIPOLES>
402.82
11.67
2.31
0.72
5.74
0.44
-0.06
-3.53
-0.92
-1.26
0.03
-0.06
-0.08
0.71

>  <PUBCHEM_SHAPE_SELFOVERLAP>
895.866

>  <PUBCHEM_SHAPE_VOLUME>
214

>  <RI>
-2.16472e+08

>  <Rbt.Current_Directory>
/root/miniconda3/envs/rdock/share/rxdock-2013.1.1_148c5bd1-0/data/ligands/prepped_ligands/Oryxylin_A

>  <Rbt.Executable>
rbdock/0.1.0

>  <Rbt.Library>
librxdock.so/0.1.0

>  <Rbt.Parameter_File>
/root/miniconda3/envs/rdock/share/rxdock-2013.1.1_148c5bd1-0/data/scripts/dock.prm

>  <Rbt.Receptor>
def.prm

>  <SCORE>
-11.3523

>  <SCORE.INTER>
-10.3668

>  <SCORE.INTER.CONST>
1

>  <SCORE.INTER.POLAR>
0

>  <SCORE.INTER.REPUL>
0.00858986

>  <SCORE.INTER.ROT>
2

>  <SCORE.INTER.VDW>
-17.8097

>  <SCORE.INTER.norm>
-0.493655

>  <SCORE.INTRA>
0.0571211

>  <SCORE.INTRA.DIHEDRAL>
0.00133989

>  <SCORE.INTRA.DIHEDRAL.0>
6.0475

>  <SCORE.INTRA.POLAR>
-0.0766358

>  <SCORE.INTRA.POLAR.0>
-0.0243237

>  <SCORE.INTRA.REPUL>
0

>  <SCORE.INTRA.REPUL.0>
0

>  <SCORE.INTRA.VDW>
0.317013

>  <SCORE.INTRA.VDW.0>
0.255107

>  <SCORE.INTRA.norm>
0.00272005

>  <SCORE.RESTR>
0

>  <SCORE.RESTR.CAVITY>
0

>  <SCORE.RESTR.norm>
0

>  <SCORE.SYSTEM>
-1.04266

>  <SCORE.SYSTEM.CONST>
0

>  <SCORE.SYSTEM.DIHEDRAL>
0.0627665

>  <SCORE.SYSTEM.VDW>
-1.07405

>  <SCORE.SYSTEM.norm>
-0.0496506

>  <SCORE.heavy>
21

>  <SCORE.norm>
-0.540586

$$$$
5320315
  RxDock  02242112033D
librxdock.so/0.1.0
 23 25  0  0  0  0  0  0  0  0999 V2000
  -49.9520    0.0872   15.0435 O   0  0  0  0  0  0
  -51.2481   -3.6601   18.8898 O   0  0  0  0  0  0
  -50.7670   -4.5062   16.3400 O   0  0  0  0  0  0
  -51.0844   -0.9744   19.5237 O   0  0  0  0  0  0
  -50.1423   -3.8187   13.9003 O   0  0  0  0  0  0
  -50.3509   -2.2334   15.6403 C   0  0  0  0  0  0
  -50.2695   -0.8800   15.9633 C   0  0  0  0  0  0
  -49.6931   -0.3025   13.7383 C   0  0  0  0  0  0
  -50.6793   -3.1747   16.6186 C   0  0  0  0  0  0
  -50.0862   -2.6491   14.2546 C   0  0  0  0  0  0
  -50.5170   -0.4590   17.2702 C   0  0  0  0  0  0
  -50.9259   -2.7508   17.9251 C   0  0  0  0  0  0
  -49.7458   -1.5717   13.3037 C   0  0  0  0  0  0
  -49.3675    0.8166   12.8314 C   0  0  0  0  0  0
  -50.8451   -1.3961   18.2503 C   0  0  0  0  0  0
  -48.1858    0.7955   12.0866 C   0  0  0  0  0  0
  -50.2400    1.9016   12.7140 C   0  0  0  0  0  0
  -47.8783    1.8527   11.2300 C   0  0  0  0  0  0
  -49.9325    2.9587   11.8573 C   0  0  0  0  0  0
  -48.7517    2.9342   11.1153 C   0  0  0  0  0  0
  -50.2011   -4.5090   19.3532 C   0  0  0  0  0  0
  -50.4695   -4.6887   15.4360 H   0  0  0  0  0  0
  -51.4022   -1.7310   20.0456 H   0  0  0  0  0  0
  1  7  1  0  0  0
  1  8  1  0  0  0
  2 12  1  0  0  0
  2 21  1  0  0  0
  3  9  1  0  0  0
  3 22  1  0  0  0
  4 15  1  0  0  0
  4 23  1  0  0  0
  5 10  2  0  0  0
  6  7  2  0  0  0
  6  9  1  0  0  0
  6 10  1  0  0  0
  7 11  1  0  0  0
  8 13  2  0  0  0
  8 14  1  0  0  0
  9 12  2  0  0  0
 10 13  1  0  0  0
 11 15  2  0  0  0
 12 15  1  0  0  0
 14 16  2  0  0  0
 14 17  1  0  0  0
 16 18  1  0  0  0
 17 19  2  0  0  0
 18 20  2  0  0  0
 19 20  1  0  0  0
M  END
>  <CHROM.0>
-61.21344326,-179.91803817,-177.41342578

>  <CHROM.1>
72.36982881,6.96030710,173.13569662,125.59782551,-50.07324298,-1.13160301
15.25349337,0.53080857,1.32139639,0.12400768

>  <Name>
5320315

>  <PUBCHEM_ATOM_DEF_STEREO_COUNT>
0

>  <PUBCHEM_ATOM_UDEF_STEREO_COUNT>
0

>  <PUBCHEM_BOND_DEF_STEREO_COUNT>
0

>  <PUBCHEM_BOND_UDEF_STEREO_COUNT>
0

>  <PUBCHEM_CACTVS_TAUTO_COUNT>
12

>  <PUBCHEM_COMPONENT_COUNT>
1

>  <PUBCHEM_COMPOUND_CID>
5320315

>  <PUBCHEM_CONFORMER_DIVERSEORDER>
1
2

>  <PUBCHEM_CONFORMER_ID>
00512E7B00000001

>  <PUBCHEM_CONFORMER_RMSD>
0.6

>  <PUBCHEM_COORDINATE_TYPE>
2
5
10

>  <PUBCHEM_EFFECTIVE_ROTOR_COUNT>
2

>  <PUBCHEM_FEATURE_SELFOVERLAP>
40.625

>  <PUBCHEM_HEAVY_ATOM_COUNT>
21

>  <PUBCHEM_ISOTOPIC_ATOM_COUNT>
0

>  <PUBCHEM_MMFF94_ENERGY>
75.473

>  <PUBCHEM_MMFF94_PARTIAL_CHARGES>
30
1 -0.16
10 0.47
11 -0.15
12 0.08
13 -0.14
14 0.03
15 0.08
16 -0.15
17 -0.15
18 -0.15
19 -0.15
2 -0.36
20 -0.15
21 0.28
22 0.15
23 0.15
24 0.15
25 0.15
26 0.15
27 0.15
28 0.45
29 0.15
3 -0.53
30 0.45
4 -0.53
5 -0.57
6 0.09
7 0.08
8 0.05
9 0.08

>  <PUBCHEM_PHARMACOPHORE_FEATURES>
8
1 1 acceptor
1 2 acceptor
1 3 donor
1 4 donor
1 5 acceptor
6 1 6 7 8 10 13 rings
6 14 16 17 18 19 20 rings
6 6 7 9 11 12 15 rings

>  <PUBCHEM_SHAPE_FINGERPRINT>
10319926 262 18339623639079927362
10411042 1 17689153838918189787
10493431 412 18412550899190905579
10498660 4 18336259038155622404
10608611 8 18341890844582710312
10646746 165 18410291411290866772
11578080 2 16807560661564956135
11595378 159 17603851292036568784
12107183 9 17685765831707532056
12173636 292 18409724054157661710
12236239 1 17385443219831120436
12390115 104 18199200502985526313
12403259 415 18412259523903711936
12596602 18 16588026844156286080
12788726 201 16955089051946383770
12916748 109 18408608050066549664
13081056 2 18413107251663356708
13140716 1 18192439782443455073
13544592 145 18342466902818679814
14341114 176 18411986857957503992
14787075 74 18272365395410613289
14790565 3 18411707556044776401
15042514 8 18191310575201304571
15196674 1 18337952290330464676
18186145 218 18201441354958650840
19784866 170 18335424534979148177
200 152 16988561303619401118
20510252 161 18342457062362639976
20645477 56 18410292536303305356
20645477 70 17274831216770011254
21033648 29 18340193137957187080
21065198 57 18411697734118468002
21236236 1 18342175626547569519
21267235 1 18408613555934976822
21279426 13 18196936574442069094
221357 26 18131628967727941912
22224240 67 18410863166280868131
23175994 123 17346884463726178344
23227448 37 18341047531658640252
23402539 116 18341044211337930942
23559900 14 18343301483852294606
3004659 81 18335425609365050694
335352 9 18411419509941474878
350125 39 18409453600294457093
3545911 37 18413390938949086460
4214541 1 18411417306802742604
474 4 16879355726359951084
474229 33 18409449189436474875
495365 180 17346305034600225762
5104073 3 18189619332838080865
542803 24 17346600768087715024
59755656 215 18338238167506508630
633830 44 18200024032683160908
69090 78 18343298189095660934
77779 3 18412262839955658820
9709674 26 18341898523942401550

>  <PUBCHEM_SHAPE_MULTIPOLES>
402.82
11.67
2.31
0.72
5.74
0.44
-0.06
-3.53
-0.92
-1.26
0.03
-0.06
-0.08
0.71

>  <PUBCHEM_SHAPE_SELFOVERLAP>
895.866

>  <PUBCHEM_SHAPE_VOLUME>
214

>  <RI>
-2.16472e+08

>  <Rbt.Current_Directory>
/root/miniconda3/envs/rdock/share/rxdock-2013.1.1_148c5bd1-0/data/ligands/prepped_ligands/Oryxylin_A

>  <Rbt.Executable>
rbdock/0.1.0

>  <Rbt.Library>
librxdock.so/0.1.0

>  <Rbt.Parameter_File>
/root/miniconda3/envs/rdock/share/rxdock-2013.1.1_148c5bd1-0/data/scripts/dock.prm

>  <Rbt.Receptor>
def.prm

>  <SCORE>
-11.6466

>  <SCORE.INTER>
-10.796

>  <SCORE.INTER.CONST>
1

>  <SCORE.INTER.POLAR>
-0.0205869

>  <SCORE.INTER.REPUL>
0.00472535

>  <SCORE.INTER.ROT>
2

>  <SCORE.INTER.VDW>
-18.1497

>  <SCORE.INTER.norm>
-0.514096

>  <SCORE.INTRA>
0.233763

>  <SCORE.INTRA.DIHEDRAL>
1.66192

>  <SCORE.INTRA.DIHEDRAL.0>
6.0475

>  <SCORE.INTRA.POLAR>
-0.0646159

>  <SCORE.INTRA.POLAR.0>
-0.0243237

>  <SCORE.INTRA.REPUL>
0

>  <SCORE.INTRA.REPUL.0>
0

>  <SCORE.INTRA.VDW>
-0.377502

>  <SCORE.INTRA.VDW.0>
0.255107

>  <SCORE.INTRA.norm>
0.0111316

>  <SCORE.RESTR>
0

>  <SCORE.RESTR.CAVITY>
0

>  <SCORE.RESTR.norm>
0

>  <SCORE.SYSTEM>
-1.08431

>  <SCORE.SYSTEM.CONST>
0

>  <SCORE.SYSTEM.DIHEDRAL>
0.0191406

>  <SCORE.SYSTEM.POLAR>
-0.00785069

>  <SCORE.SYSTEM.VDW>
-1.06719

>  <SCORE.SYSTEM.norm>
-0.051634

>  <SCORE.heavy>
21

>  <SCORE.norm>
-0.554599

$$$$
5320315
  RxDock  02242112033D
librxdock.so/0.1.0
 23 25  0  0  0  0  0  0  0  0999 V2000
  -48.0387   -0.7490   14.2931 O   0  0  0  0  0  0
  -47.5692   -5.3045   17.3822 O   0  0  0  0  0  0
  -49.7201   -5.0596   15.7202 O   0  0  0  0  0  0
  -45.6662   -3.3034   17.5068 O   0  0  0  0  0  0
  -50.9534   -3.5762   13.9614 O   0  0  0  0  0  0
  -48.9267   -2.9050   14.9742 C   0  0  0  0  0  0
  -47.9654   -1.8977   15.0396 C   0  0  0  0  0  0
  -49.1126   -0.5895   13.4306 C   0  0  0  0  0  0
  -48.8008   -4.0538   15.7587 C   0  0  0  0  0  0
  -50.0720   -2.7346   14.0673 C   0  0  0  0  0  0
  -46.8698   -2.0340   15.8925 C   0  0  0  0  0  0
  -47.7036   -4.1876   16.6105 C   0  0  0  0  0  0
  -50.1035   -1.4833   13.2837 C   0  0  0  0  0  0
  -49.0960    0.6827   12.6808 C   0  0  0  0  0  0
  -46.7403   -3.1801   16.6775 C   0  0  0  0  0  0
  -48.0221    0.9888   11.8414 C   0  0  0  0  0  0
  -50.1544    1.5860   12.8076 C   0  0  0  0  0  0
  -48.0065    2.1905   11.1332 C   0  0  0  0  0  0
  -50.1388    2.7877   12.0992 C   0  0  0  0  0  0
  -49.0648    3.0899   11.2621 C   0  0  0  0  0  0
  -48.6561   -5.6280   18.2458 C   0  0  0  0  0  0
  -50.3004   -4.9657   14.9499 H   0  0  0  0  0  0
  -45.1486   -2.4810   17.4671 H   0  0  0  0  0  0
  1  7  1  0  0  0
  1  8  1  0  0  0
  2 12  1  0  0  0
  2 21  1  0  0  0
  3  9  1  0  0  0
  3 22  1  0  0  0
  4 15  1  0  0  0
  4 23  1  0  0  0
  5 10  2  0  0  0
  6  7  2  0  0  0
  6  9  1  0  0  0
  6 10  1  0  0  0
  7 11  1  0  0  0
  8 13  2  0  0  0
  8 14  1  0  0  0
  9 12  2  0  0  0
 10 13  1  0  0  0
 11 15  2  0  0  0
 12 15  1  0  0  0
 14 16  2  0  0  0
 14 17  1  0  0  0
 16 18  1  0  0  0
 17 19  2  0  0  0
 18 20  2  0  0  0
 19 20  1  0  0  0
M  END
>  <CHROM.0>
-42.40503656,62.08412158,-179.26232333

>  <CHROM.1>
-55.64725089,14.26624871,4.32025505,59.53963924,-48.62027295,-1.80754336
14.60163759,-1.73764313,0.46793502,2.55466316

>  <Name>
5320315

>  <PUBCHEM_ATOM_DEF_STEREO_COUNT>
0

>  <PUBCHEM_ATOM_UDEF_STEREO_COUNT>
0

>  <PUBCHEM_BOND_DEF_STEREO_COUNT>
0

>  <PUBCHEM_BOND_UDEF_STEREO_COUNT>
0

>  <PUBCHEM_CACTVS_TAUTO_COUNT>
12

>  <PUBCHEM_COMPONENT_COUNT>
1

>  <PUBCHEM_COMPOUND_CID>
5320315

>  <PUBCHEM_CONFORMER_DIVERSEORDER>
1
2

>  <PUBCHEM_CONFORMER_ID>
00512E7B00000001

>  <PUBCHEM_CONFORMER_RMSD>
0.6

>  <PUBCHEM_COORDINATE_TYPE>
2
5
10

>  <PUBCHEM_EFFECTIVE_ROTOR_COUNT>
2

>  <PUBCHEM_FEATURE_SELFOVERLAP>
40.625

>  <PUBCHEM_HEAVY_ATOM_COUNT>
21

>  <PUBCHEM_ISOTOPIC_ATOM_COUNT>
0

>  <PUBCHEM_MMFF94_ENERGY>
75.473

>  <PUBCHEM_MMFF94_PARTIAL_CHARGES>
30
1 -0.16
10 0.47
11 -0.15
12 0.08
13 -0.14
14 0.03
15 0.08
16 -0.15
17 -0.15
18 -0.15
19 -0.15
2 -0.36
20 -0.15
21 0.28
22 0.15
23 0.15
24 0.15
25 0.15
26 0.15
27 0.15
28 0.45
29 0.15
3 -0.53
30 0.45
4 -0.53
5 -0.57
6 0.09
7 0.08
8 0.05
9 0.08

>  <PUBCHEM_PHARMACOPHORE_FEATURES>
8
1 1 acceptor
1 2 acceptor
1 3 donor
1 4 donor
1 5 acceptor
6 1 6 7 8 10 13 rings
6 14 16 17 18 19 20 rings
6 6 7 9 11 12 15 rings

>  <PUBCHEM_SHAPE_FINGERPRINT>
10319926 262 18339623639079927362
10411042 1 17689153838918189787
10493431 412 18412550899190905579
10498660 4 18336259038155622404
10608611 8 18341890844582710312
10646746 165 18410291411290866772
11578080 2 16807560661564956135
11595378 159 17603851292036568784
12107183 9 17685765831707532056
12173636 292 18409724054157661710
12236239 1 17385443219831120436
12390115 104 18199200502985526313
12403259 415 18412259523903711936
12596602 18 16588026844156286080
12788726 201 16955089051946383770
12916748 109 18408608050066549664
13081056 2 18413107251663356708
13140716 1 18192439782443455073
13544592 145 18342466902818679814
14341114 176 18411986857957503992
14787075 74 18272365395410613289
14790565 3 18411707556044776401
15042514 8 18191310575201304571
15196674 1 18337952290330464676
18186145 218 18201441354958650840
19784866 170 18335424534979148177
200 152 16988561303619401118
20510252 161 18342457062362639976
20645477 56 18410292536303305356
20645477 70 17274831216770011254
21033648 29 18340193137957187080
21065198 57 18411697734118468002
21236236 1 18342175626547569519
21267235 1 18408613555934976822
21279426 13 18196936574442069094
221357 26 18131628967727941912
22224240 67 18410863166280868131
23175994 123 17346884463726178344
23227448 37 18341047531658640252
23402539 116 18341044211337930942
23559900 14 18343301483852294606
3004659 81 18335425609365050694
335352 9 18411419509941474878
350125 39 18409453600294457093
3545911 37 18413390938949086460
4214541 1 18411417306802742604
474 4 16879355726359951084
474229 33 18409449189436474875
495365 180 17346305034600225762
5104073 3 18189619332838080865
542803 24 17346600768087715024
59755656 215 18338238167506508630
633830 44 18200024032683160908
69090 78 18343298189095660934
77779 3 18412262839955658820
9709674 26 18341898523942401550

>  <PUBCHEM_SHAPE_MULTIPOLES>
402.82
11.67
2.31
0.72
5.74
0.44
-0.06
-3.53
-0.92
-1.26
0.03
-0.06
-0.08
0.71

>  <PUBCHEM_SHAPE_SELFOVERLAP>
895.866

>  <PUBCHEM_SHAPE_VOLUME>
214

>  <RI>
-2.16472e+08

>  <Rbt.Current_Directory>
/root/miniconda3/envs/rdock/share/rxdock-2013.1.1_148c5bd1-0/data/ligands/prepped_ligands/Oryxylin_A

>  <Rbt.Executable>
rbdock/0.1.0

>  <Rbt.Library>
librxdock.so/0.1.0

>  <Rbt.Parameter_File>
/root/miniconda3/envs/rdock/share/rxdock-2013.1.1_148c5bd1-0/data/scripts/dock.prm

>  <Rbt.Receptor>
def.prm

>  <SCORE>
-14.9169

>  <SCORE.INTER>
-16.0601

>  <SCORE.INTER.CONST>
1

>  <SCORE.INTER.POLAR>
-0.464517

>  <SCORE.INTER.REPUL>
0.0434159

>  <SCORE.INTER.ROT>
2

>  <SCORE.INTER.VDW>
-22.0978

>  <SCORE.INTER.norm>
-0.764766

>  <SCORE.INTRA>
1.7199

>  <SCORE.INTRA.DIHEDRAL>
1.07734

>  <SCORE.INTRA.DIHEDRAL.0>
6.0475

>  <SCORE.INTRA.POLAR>
0.0243237

>  <SCORE.INTRA.POLAR.0>
-0.0243237

>  <SCORE.INTRA.REPUL>
0

>  <SCORE.INTRA.REPUL.0>
0

>  <SCORE.INTRA.VDW>
1.09853

>  <SCORE.INTRA.VDW.0>
0.255107

>  <SCORE.INTRA.norm>
0.0818998

>  <SCORE.RESTR>
0

>  <SCORE.RESTR.CAVITY>
0

>  <SCORE.RESTR.norm>
0

>  <SCORE.SYSTEM>
-0.576697

>  <SCORE.SYSTEM.CONST>
0

>  <SCORE.SYSTEM.DIHEDRAL>
0.722422

>  <SCORE.SYSTEM.POLAR>
-0.00379442

>  <SCORE.SYSTEM.VDW>
-0.925006

>  <SCORE.SYSTEM.norm>
-0.0274617

>  <SCORE.heavy>
21

>  <SCORE.norm>
-0.710328

$$$$
5320315
  RxDock  02242112033D
librxdock.so/0.1.0
 23 25  0  0  0  0  0  0  0  0999 V2000
  -52.6942   -4.3095   14.9316 O   0  0  0  0  0  0
  -49.6297    0.1611   15.9985 O   0  0  0  0  0  0
  -51.0458   -0.9780   18.0346 O   0  0  0  0  0  0
  -49.7338   -0.9135   13.4537 O   0  0  0  0  0  0
  -52.6808   -2.8840   18.7482 O   0  0  0  0  0  0
  -51.8975   -2.6628   16.5297 C   0  0  0  0  0  0
  -51.9479   -3.2019   15.2453 C   0  0  0  0  0  0
  -53.4225   -4.9223   15.9399 C   0  0  0  0  0  0
  -51.1203   -1.5321   16.7913 C   0  0  0  0  0  0
  -52.6763   -3.3047   17.5995 C   0  0  0  0  0  0
  -51.2195   -2.6114   14.2123 C   0  0  0  0  0  0
  -50.3924   -0.9439   15.7562 C   0  0  0  0  0  0
  -53.4601   -4.4948   17.2120 C   0  0  0  0  0  0
  -54.1927   -6.1003   15.4927 C   0  0  0  0  0  0
  -50.4418   -1.4821   14.4695 C   0  0  0  0  0  0
  -54.1241   -7.2973   16.2098 C   0  0  0  0  0  0
  -54.9935   -6.0230   14.3504 C   0  0  0  0  0  0
  -54.8516   -8.4100   15.7873 C   0  0  0  0  0  0
  -55.7212   -7.1357   13.9281 C   0  0  0  0  0  0
  -55.6502   -8.3292   14.6465 C   0  0  0  0  0  0
  -48.2740   -0.0601   16.3791 C   0  0  0  0  0  0
  -50.5817   -0.1279   18.0050 H   0  0  0  0  0  0
  -49.8829   -1.4319   12.6445 H   0  0  0  0  0  0
  1  7  1  0  0  0
  1  8  1  0  0  0
  2 12  1  0  0  0
  2 21  1  0  0  0
  3  9  1  0  0  0
  3 22  1  0  0  0
  4 15  1  0  0  0
  4 23  1  0  0  0
  5 10  2  0  0  0
  6  7  2  0  0  0
  6  9  1  0  0  0
  6 10  1  0  0  0
  7 11  1  0  0  0
  8 13  2  0  0  0
  8 14  1  0  0  0
  9 12  2  0  0  0
 10 13  1  0  0  0
 11 15  2  0  0  0
 12 15  1  0  0  0
 14 16  2  0  0  0
 14 17  1  0  0  0
 16 18  1  0  0  0
 17 19  2  0  0  0
 18 20  2  0  0  0
 19 20  1  0  0  0
M  END
>  <CHROM.0>
-62.57746653,-60.21669701,-60.42909757

>  <CHROM.1>
90.40026444,-170.95413336,-0.82369845,131.35500801,-52.29066045,-3.56027614
15.81456785,-2.86418159,0.88886294,1.33535452

>  <Name>
5320315

>  <PUBCHEM_ATOM_DEF_STEREO_COUNT>
0

>  <PUBCHEM_ATOM_UDEF_STEREO_COUNT>
0

>  <PUBCHEM_BOND_DEF_STEREO_COUNT>
0

>  <PUBCHEM_BOND_UDEF_STEREO_COUNT>
0

>  <PUBCHEM_CACTVS_TAUTO_COUNT>
12

>  <PUBCHEM_COMPONENT_COUNT>
1

>  <PUBCHEM_COMPOUND_CID>
5320315

>  <PUBCHEM_CONFORMER_DIVERSEORDER>
1
2

>  <PUBCHEM_CONFORMER_ID>
00512E7B00000001

>  <PUBCHEM_CONFORMER_RMSD>
0.6

>  <PUBCHEM_COORDINATE_TYPE>
2
5
10

>  <PUBCHEM_EFFECTIVE_ROTOR_COUNT>
2

>  <PUBCHEM_FEATURE_SELFOVERLAP>
40.625

>  <PUBCHEM_HEAVY_ATOM_COUNT>
21

>  <PUBCHEM_ISOTOPIC_ATOM_COUNT>
0

>  <PUBCHEM_MMFF94_ENERGY>
75.473

>  <PUBCHEM_MMFF94_PARTIAL_CHARGES>
30
1 -0.16
10 0.47
11 -0.15
12 0.08
13 -0.14
14 0.03
15 0.08
16 -0.15
17 -0.15
18 -0.15
19 -0.15
2 -0.36
20 -0.15
21 0.28
22 0.15
23 0.15
24 0.15
25 0.15
26 0.15
27 0.15
28 0.45
29 0.15
3 -0.53
30 0.45
4 -0.53
5 -0.57
6 0.09
7 0.08
8 0.05
9 0.08

>  <PUBCHEM_PHARMACOPHORE_FEATURES>
8
1 1 acceptor
1 2 acceptor
1 3 donor
1 4 donor
1 5 acceptor
6 1 6 7 8 10 13 rings
6 14 16 17 18 19 20 rings
6 6 7 9 11 12 15 rings

>  <PUBCHEM_SHAPE_FINGERPRINT>
10319926 262 18339623639079927362
10411042 1 17689153838918189787
10493431 412 18412550899190905579
10498660 4 18336259038155622404
10608611 8 18341890844582710312
10646746 165 18410291411290866772
11578080 2 16807560661564956135
11595378 159 17603851292036568784
12107183 9 17685765831707532056
12173636 292 18409724054157661710
12236239 1 17385443219831120436
12390115 104 18199200502985526313
12403259 415 18412259523903711936
12596602 18 16588026844156286080
12788726 201 16955089051946383770
12916748 109 18408608050066549664
13081056 2 18413107251663356708
13140716 1 18192439782443455073
13544592 145 18342466902818679814
14341114 176 18411986857957503992
14787075 74 18272365395410613289
14790565 3 18411707556044776401
15042514 8 18191310575201304571
15196674 1 18337952290330464676
18186145 218 18201441354958650840
19784866 170 18335424534979148177
200 152 16988561303619401118
20510252 161 18342457062362639976
20645477 56 18410292536303305356
20645477 70 17274831216770011254
21033648 29 18340193137957187080
21065198 57 18411697734118468002
21236236 1 18342175626547569519
21267235 1 18408613555934976822
21279426 13 18196936574442069094
221357 26 18131628967727941912
22224240 67 18410863166280868131
23175994 123 17346884463726178344
23227448 37 18341047531658640252
23402539 116 18341044211337930942
23559900 14 18343301483852294606
3004659 81 18335425609365050694
335352 9 18411419509941474878
350125 39 18409453600294457093
3545911 37 18413390938949086460
4214541 1 18411417306802742604
474 4 16879355726359951084
474229 33 18409449189436474875
495365 180 17346305034600225762
5104073 3 18189619332838080865
542803 24 17346600768087715024
59755656 215 18338238167506508630
633830 44 18200024032683160908
69090 78 18343298189095660934
77779 3 18412262839955658820
9709674 26 18341898523942401550

>  <PUBCHEM_SHAPE_MULTIPOLES>
402.82
11.67
2.31
0.72
5.74
0.44
-0.06
-3.53
-0.92
-1.26
0.03
-0.06
-0.08
0.71

>  <PUBCHEM_SHAPE_SELFOVERLAP>
895.866

>  <PUBCHEM_SHAPE_VOLUME>
214

>  <RI>
-2.16472e+08

>  <Rbt.Current_Directory>
/root/miniconda3/envs/rdock/share/rxdock-2013.1.1_148c5bd1-0/data/ligands/prepped_ligands/Oryxylin_A

>  <Rbt.Executable>
rbdock/0.1.0

>  <Rbt.Library>
librxdock.so/0.1.0

>  <Rbt.Parameter_File>
/root/miniconda3/envs/rdock/share/rxdock-2013.1.1_148c5bd1-0/data/scripts/dock.prm

>  <Rbt.Receptor>
def.prm

>  <SCORE>
-14.8195

>  <SCORE.INTER>
-14.2908

>  <SCORE.INTER.CONST>
1

>  <SCORE.INTER.POLAR>
-0.539479

>  <SCORE.INTER.REPUL>
0

>  <SCORE.INTER.ROT>
2

>  <SCORE.INTER.VDW>
-19.8566

>  <SCORE.INTER.norm>
-0.680514

>  <SCORE.INTRA>
0.526656

>  <SCORE.INTRA.DIHEDRAL>
1.61657

>  <SCORE.INTRA.DIHEDRAL.0>
6.0475

>  <SCORE.INTRA.POLAR>
-0.00701062

>  <SCORE.INTRA.POLAR.0>
-0.0243237

>  <SCORE.INTRA.REPUL>
0

>  <SCORE.INTRA.REPUL.0>
0

>  <SCORE.INTRA.VDW>
-0.257795

>  <SCORE.INTRA.VDW.0>
0.255107

>  <SCORE.INTRA.norm>
0.0250789

>  <SCORE.RESTR>
0

>  <SCORE.RESTR.CAVITY>
0

>  <SCORE.RESTR.norm>
0

>  <SCORE.SYSTEM>
-1.05537

>  <SCORE.SYSTEM.CONST>
0

>  <SCORE.SYSTEM.DIHEDRAL>
0.0195024

>  <SCORE.SYSTEM.VDW>
-1.06512

>  <SCORE.SYSTEM.norm>
-0.0502558

>  <SCORE.heavy>
21

>  <SCORE.norm>
-0.705691

$$$$
5320315
  RxDock  02242112033D
librxdock.so/0.1.0
 23 25  0  0  0  0  0  0  0  0999 V2000
  -52.8682   -4.3757   14.8501 O   0  0  0  0  0  0
  -49.9089    0.1767   15.8672 O   0  0  0  0  0  0
  -51.0848   -1.1213   17.9603 O   0  0  0  0  0  0
  -50.1993   -0.7806   13.2902 O   0  0  0  0  0  0
  -52.5668   -3.1323   18.7182 O   0  0  0  0  0  0
  -51.9988   -2.7710   16.4531 C   0  0  0  0  0  0
  -52.1434   -3.2507   15.1524 C   0  0  0  0  0  0
  -53.4753   -5.0682   15.8866 C   0  0  0  0  0  0
  -51.2489   -1.6190   16.7019 C   0  0  0  0  0  0
  -52.6494   -3.4979   17.5538 C   0  0  0  0  0  0
  -51.5374   -2.5792   14.0902 C   0  0  0  0  0  0
  -50.6436   -0.9497   15.6376 C   0  0  0  0  0  0
  -53.4148   -4.7033   17.1772 C   0  0  0  0  0  0
  -54.2331   -6.2582   15.4502 C   0  0  0  0  0  0
  -50.7874   -1.4285   14.3346 C   0  0  0  0  0  0
  -54.1300   -7.4560   16.1618 C   0  0  0  0  0  0
  -55.0567   -6.1917   14.3235 C   0  0  0  0  0  0
  -54.8459   -8.5801   15.7495 C   0  0  0  0  0  0
  -55.7727   -7.3157   13.9113 C   0  0  0  0  0  0
  -55.6671   -8.5099   14.6243 C   0  0  0  0  0  0
  -48.6878    0.0167   16.5848 C   0  0  0  0  0  0
  -51.4973   -1.7027   18.6166 H   0  0  0  0  0  0
  -49.9630   -1.4368   12.6124 H   0  0  0  0  0  0
  1  7  1  0  0  0
  1  8  1  0  0  0
  2 12  1  0  0  0
  2 21  1  0  0  0
  3  9  1  0  0  0
  3 22  1  0  0  0
  4 15  1  0  0  0
  4 23  1  0  0  0
  5 10  2  0  0  0
  6  7  2  0  0  0
  6  9  1  0  0  0
  6 10  1  0  0  0
  7 11  1  0  0  0
  8 13  2  0  0  0
  8 14  1  0  0  0
  9 12  2  0  0  0
 10 13  1  0  0  0
 11 15  2  0  0  0
 12 15  1  0  0  0
 14 16  2  0  0  0
 14 17  1  0  0  0
 16 18  1  0  0  0
 17 19  2  0  0  0
 18 20  2  0  0  0
 19 20  1  0  0  0
M  END
>  <CHROM.0>
-62.12028623,-60.78253205,54.04006625

>  <CHROM.1>
67.63429951,3.87051883,-31.59338676,136.44823056,-52.42808574,-3.65588205
15.75869249,-2.99903777,0.95074662,1.50825093

>  <Name>
5320315

>  <PUBCHEM_ATOM_DEF_STEREO_COUNT>
0

>  <PUBCHEM_ATOM_UDEF_STEREO_COUNT>
0

>  <PUBCHEM_BOND_DEF_STEREO_COUNT>
0

>  <PUBCHEM_BOND_UDEF_STEREO_COUNT>
0

>  <PUBCHEM_CACTVS_TAUTO_COUNT>
12

>  <PUBCHEM_COMPONENT_COUNT>
1

>  <PUBCHEM_COMPOUND_CID>
5320315

>  <PUBCHEM_CONFORMER_DIVERSEORDER>
1
2

>  <PUBCHEM_CONFORMER_ID>
00512E7B00000001

>  <PUBCHEM_CONFORMER_RMSD>
0.6

>  <PUBCHEM_COORDINATE_TYPE>
2
5
10

>  <PUBCHEM_EFFECTIVE_ROTOR_COUNT>
2

>  <PUBCHEM_FEATURE_SELFOVERLAP>
40.625

>  <PUBCHEM_HEAVY_ATOM_COUNT>
21

>  <PUBCHEM_ISOTOPIC_ATOM_COUNT>
0

>  <PUBCHEM_MMFF94_ENERGY>
75.473

>  <PUBCHEM_MMFF94_PARTIAL_CHARGES>
30
1 -0.16
10 0.47
11 -0.15
12 0.08
13 -0.14
14 0.03
15 0.08
16 -0.15
17 -0.15
18 -0.15
19 -0.15
2 -0.36
20 -0.15
21 0.28
22 0.15
23 0.15
24 0.15
25 0.15
26 0.15
27 0.15
28 0.45
29 0.15
3 -0.53
30 0.45
4 -0.53
5 -0.57
6 0.09
7 0.08
8 0.05
9 0.08

>  <PUBCHEM_PHARMACOPHORE_FEATURES>
8
1 1 acceptor
1 2 acceptor
1 3 donor
1 4 donor
1 5 acceptor
6 1 6 7 8 10 13 rings
6 14 16 17 18 19 20 rings
6 6 7 9 11 12 15 rings

>  <PUBCHEM_SHAPE_FINGERPRINT>
10319926 262 18339623639079927362
10411042 1 17689153838918189787
10493431 412 18412550899190905579
10498660 4 18336259038155622404
10608611 8 18341890844582710312
10646746 165 18410291411290866772
11578080 2 16807560661564956135
11595378 159 17603851292036568784
12107183 9 17685765831707532056
12173636 292 18409724054157661710
12236239 1 17385443219831120436
12390115 104 18199200502985526313
12403259 415 18412259523903711936
12596602 18 16588026844156286080
12788726 201 16955089051946383770
12916748 109 18408608050066549664
13081056 2 18413107251663356708
13140716 1 18192439782443455073
13544592 145 18342466902818679814
14341114 176 18411986857957503992
14787075 74 18272365395410613289
14790565 3 18411707556044776401
15042514 8 18191310575201304571
15196674 1 18337952290330464676
18186145 218 18201441354958650840
19784866 170 18335424534979148177
200 152 16988561303619401118
20510252 161 18342457062362639976
20645477 56 18410292536303305356
20645477 70 17274831216770011254
21033648 29 18340193137957187080
21065198 57 18411697734118468002
21236236 1 18342175626547569519
21267235 1 18408613555934976822
21279426 13 18196936574442069094
221357 26 18131628967727941912
22224240 67 18410863166280868131
23175994 123 17346884463726178344
23227448 37 18341047531658640252
23402539 116 18341044211337930942
23559900 14 18343301483852294606
3004659 81 18335425609365050694
335352 9 18411419509941474878
350125 39 18409453600294457093
3545911 37 18413390938949086460
4214541 1 18411417306802742604
474 4 16879355726359951084
474229 33 18409449189436474875
495365 180 17346305034600225762
5104073 3 18189619332838080865
542803 24 17346600768087715024
59755656 215 18338238167506508630
633830 44 18200024032683160908
69090 78 18343298189095660934
77779 3 18412262839955658820
9709674 26 18341898523942401550

>  <PUBCHEM_SHAPE_MULTIPOLES>
402.82
11.67
2.31
0.72
5.74
0.44
-0.06
-3.53
-0.92
-1.26
0.03
-0.06
-0.08
0.71

>  <PUBCHEM_SHAPE_SELFOVERLAP>
895.866

>  <PUBCHEM_SHAPE_VOLUME>
214

>  <RI>
-2.16472e+08

>  <Rbt.Current_Directory>
/root/miniconda3/envs/rdock/share/rxdock-2013.1.1_148c5bd1-0/data/ligands/prepped_ligands/Oryxylin_A

>  <Rbt.Executable>
rbdock/0.1.0

>  <Rbt.Library>
librxdock.so/0.1.0

>  <Rbt.Parameter_File>
/root/miniconda3/envs/rdock/share/rxdock-2013.1.1_148c5bd1-0/data/scripts/dock.prm

>  <Rbt.Receptor>
def.prm

>  <SCORE>
-16.4876

>  <SCORE.INTER>
-16.6087

>  <SCORE.INTER.CONST>
1

>  <SCORE.INTER.POLAR>
-1.27537

>  <SCORE.INTER.REPUL>
0

>  <SCORE.INTER.ROT>
2

>  <SCORE.INTER.VDW>
-19.6724

>  <SCORE.INTER.norm>
-0.790891

>  <SCORE.INTRA>
1.14699

>  <SCORE.INTRA.DIHEDRAL>
1.71468

>  <SCORE.INTRA.DIHEDRAL.0>
6.0475

>  <SCORE.INTRA.POLAR>
0.0243237

>  <SCORE.INTRA.POLAR.0>
-0.0243237

>  <SCORE.INTRA.REPUL>
0

>  <SCORE.INTRA.REPUL.0>
0

>  <SCORE.INTRA.VDW>
0.206953

>  <SCORE.INTRA.VDW.0>
0.255107

>  <SCORE.INTRA.norm>
0.0546187

>  <SCORE.RESTR>
0

>  <SCORE.RESTR.CAVITY>
0

>  <SCORE.RESTR.norm>
0

>  <SCORE.SYSTEM>
-1.0259

>  <SCORE.SYSTEM.CONST>
0

>  <SCORE.SYSTEM.DIHEDRAL>
0.107579

>  <SCORE.SYSTEM.VDW>
-1.07968

>  <SCORE.SYSTEM.norm>
-0.0488521

>  <SCORE.heavy>
21

>  <SCORE.norm>
-0.785125

$$$$
5320315
  RxDock  02242112033D
librxdock.so/0.1.0
 23 25  0  0  0  0  0  0  0  0999 V2000
  -49.1806   -4.7448   15.9651 O   0  0  0  0  0  0
  -49.5452   -9.5162   18.7250 O   0  0  0  0  0  0
  -51.8133   -8.4413   17.6531 O   0  0  0  0  0  0
  -47.1156   -8.2320   18.4262 O   0  0  0  0  0  0
  -52.8558   -6.4725   16.2922 O   0  0  0  0  0  0
  -50.5479   -6.5756   16.7893 C   0  0  0  0  0  0
  -49.3213   -5.9305   16.6408 C   0  0  0  0  0  0
  -50.3082   -4.1696   15.3992 C   0  0  0  0  0  0
  -50.6318   -7.7818   17.4887 C   0  0  0  0  0  0
  -51.7475   -5.9633   16.1984 C   0  0  0  0  0  0
  -48.1683   -6.4896   17.1926 C   0  0  0  0  0  0
  -49.4768   -8.3388   18.0392 C   0  0  0  0  0  0
  -51.5433   -4.6898   15.4791 C   0  0  0  0  0  0
  -50.0454   -2.8949   14.7013 C   0  0  0  0  0  0
  -48.2477   -7.6943   17.8917 C   0  0  0  0  0  0
  -48.7340   -2.4424   14.5362 C   0  0  0  0  0  0
  -51.1072   -2.1357   14.2029 C   0  0  0  0  0  0
  -48.4859   -1.2384   13.8770 C   0  0  0  0  0  0
  -50.8590   -0.9317   13.5435 C   0  0  0  0  0  0
  -49.5483   -0.4831   13.3806 C   0  0  0  0  0  0
  -49.6962   -9.4322   20.1398 C   0  0  0  0  0  0
  -52.3823   -8.3261   16.8773 H   0  0  0  0  0  0
  -46.4138   -7.5590   18.4054 H   0  0  0  0  0  0
  1  7  1  0  0  0
  1  8  1  0  0  0
  2 12  1  0  0  0
  2 21  1  0  0  0
  3  9  1  0  0  0
  3 22  1  0  0  0
  4 15  1  0  0  0
  4 23  1  0  0  0
  5 10  2  0  0  0
  6  7  2  0  0  0
  6  9  1  0  0  0
  6 10  1  0  0  0
  7 11  1  0  0  0
  8 13  2  0  0  0
  8 14  1  0  0  0
  9 12  2  0  0  0
 10 13  1  0  0  0
 11 15  2  0  0  0
 12 15  1  0  0  0
 14 16  2  0  0  0
 14 17  1  0  0  0
 16 18  1  0  0  0
 17 19  2  0  0  0
 18 20  2  0  0  0
 19 20  1  0  0  0
M  END
>  <CHROM.0>
179.96759265,177.19628326,55.87685211

>  <CHROM.1>
-93.94408887,34.08244538,13.00860362,6.56056045,-49.95102884,-5.58883847
16.39731349,-1.61684710,0.16078230,2.57553378

>  <Name>
5320315

>  <PUBCHEM_ATOM_DEF_STEREO_COUNT>
0

>  <PUBCHEM_ATOM_UDEF_STEREO_COUNT>
0

>  <PUBCHEM_BOND_DEF_STEREO_COUNT>
0

>  <PUBCHEM_BOND_UDEF_STEREO_COUNT>
0

>  <PUBCHEM_CACTVS_TAUTO_COUNT>
12

>  <PUBCHEM_COMPONENT_COUNT>
1

>  <PUBCHEM_COMPOUND_CID>
5320315

>  <PUBCHEM_CONFORMER_DIVERSEORDER>
1
2

>  <PUBCHEM_CONFORMER_ID>
00512E7B00000001

>  <PUBCHEM_CONFORMER_RMSD>
0.6

>  <PUBCHEM_COORDINATE_TYPE>
2
5
10

>  <PUBCHEM_EFFECTIVE_ROTOR_COUNT>
2

>  <PUBCHEM_FEATURE_SELFOVERLAP>
40.625

>  <PUBCHEM_HEAVY_ATOM_COUNT>
21

>  <PUBCHEM_ISOTOPIC_ATOM_COUNT>
0

>  <PUBCHEM_MMFF94_ENERGY>
75.473

>  <PUBCHEM_MMFF94_PARTIAL_CHARGES>
30
1 -0.16
10 0.47
11 -0.15
12 0.08
13 -0.14
14 0.03
15 0.08
16 -0.15
17 -0.15
18 -0.15
19 -0.15
2 -0.36
20 -0.15
21 0.28
22 0.15
23 0.15
24 0.15
25 0.15
26 0.15
27 0.15
28 0.45
29 0.15
3 -0.53
30 0.45
4 -0.53
5 -0.57
6 0.09
7 0.08
8 0.05
9 0.08

>  <PUBCHEM_PHARMACOPHORE_FEATURES>
8
1 1 acceptor
1 2 acceptor
1 3 donor
1 4 donor
1 5 acceptor
6 1 6 7 8 10 13 rings
6 14 16 17 18 19 20 rings
6 6 7 9 11 12 15 rings

>  <PUBCHEM_SHAPE_FINGERPRINT>
10319926 262 18339623639079927362
10411042 1 17689153838918189787
10493431 412 18412550899190905579
10498660 4 18336259038155622404
10608611 8 18341890844582710312
10646746 165 18410291411290866772
11578080 2 16807560661564956135
11595378 159 17603851292036568784
12107183 9 17685765831707532056
12173636 292 18409724054157661710
12236239 1 17385443219831120436
12390115 104 18199200502985526313
12403259 415 18412259523903711936
12596602 18 16588026844156286080
12788726 201 16955089051946383770
12916748 109 18408608050066549664
13081056 2 18413107251663356708
13140716 1 18192439782443455073
13544592 145 18342466902818679814
14341114 176 18411986857957503992
14787075 74 18272365395410613289
14790565 3 18411707556044776401
15042514 8 18191310575201304571
15196674 1 18337952290330464676
18186145 218 18201441354958650840
19784866 170 18335424534979148177
200 152 16988561303619401118
20510252 161 18342457062362639976
20645477 56 18410292536303305356
20645477 70 17274831216770011254
21033648 29 18340193137957187080
21065198 57 18411697734118468002
21236236 1 18342175626547569519
21267235 1 18408613555934976822
21279426 13 18196936574442069094
221357 26 18131628967727941912
22224240 67 18410863166280868131
23175994 123 17346884463726178344
23227448 37 18341047531658640252
23402539 116 18341044211337930942
23559900 14 18343301483852294606
3004659 81 18335425609365050694
335352 9 18411419509941474878
350125 39 18409453600294457093
3545911 37 18413390938949086460
4214541 1 18411417306802742604
474 4 16879355726359951084
474229 33 18409449189436474875
495365 180 17346305034600225762
5104073 3 18189619332838080865
542803 24 17346600768087715024
59755656 215 18338238167506508630
633830 44 18200024032683160908
69090 78 18343298189095660934
77779 3 18412262839955658820
9709674 26 18341898523942401550

>  <PUBCHEM_SHAPE_MULTIPOLES>
402.82
11.67
2.31
0.72
5.74
0.44
-0.06
-3.53
-0.92
-1.26
0.03
-0.06
-0.08
0.71

>  <PUBCHEM_SHAPE_SELFOVERLAP>
895.866

>  <PUBCHEM_SHAPE_VOLUME>
214

>  <RI>
-2.16472e+08

>  <Rbt.Current_Directory>
/root/miniconda3/envs/rdock/share/rxdock-2013.1.1_148c5bd1-0/data/ligands/prepped_ligands/Oryxylin_A

>  <Rbt.Executable>
rbdock/0.1.0

>  <Rbt.Library>
librxdock.so/0.1.0

>  <Rbt.Parameter_File>
/root/miniconda3/envs/rdock/share/rxdock-2013.1.1_148c5bd1-0/data/scripts/dock.prm

>  <Rbt.Receptor>
def.prm

>  <SCORE>
-11.7254

>  <SCORE.INTER>
-11.3726

>  <SCORE.INTER.CONST>
1

>  <SCORE.INTER.POLAR>
-0.278715

>  <SCORE.INTER.REPUL>
0

>  <SCORE.INTER.ROT>
2

>  <SCORE.INTER.VDW>
-17.8249

>  <SCORE.INTER.norm>
-0.541551

>  <SCORE.INTRA>
0.685693

>  <SCORE.INTRA.DIHEDRAL>
0.536912

>  <SCORE.INTRA.DIHEDRAL.0>
6.0475

>  <SCORE.INTRA.POLAR>
0.0243237

>  <SCORE.INTRA.POLAR.0>
-0.0243237

>  <SCORE.INTRA.REPUL>
0

>  <SCORE.INTRA.REPUL.0>
0

>  <SCORE.INTRA.VDW>
0.334537

>  <SCORE.INTRA.VDW.0>
0.255107

>  <SCORE.INTRA.norm>
0.0326521

>  <SCORE.RESTR>
0

>  <SCORE.RESTR.CAVITY>
0

>  <SCORE.RESTR.norm>
0

>  <SCORE.SYSTEM>
-1.03853

>  <SCORE.SYSTEM.CONST>
0

>  <SCORE.SYSTEM.DIHEDRAL>
0.0840678

>  <SCORE.SYSTEM.VDW>
-1.08057

>  <SCORE.SYSTEM.norm>
-0.0494539

>  <SCORE.heavy>
21

>  <SCORE.norm>
-0.558353

$$$$
5320315
  RxDock  02242112033D
librxdock.so/0.1.0
 23 25  0  0  0  0  0  0  0  0999 V2000
  -48.2642    0.5283   13.5119 O   0  0  0  0  0  0
  -46.8722   -4.0991   16.1887 O   0  0  0  0  0  0
  -49.4465   -3.7995   15.3333 O   0  0  0  0  0  0
  -45.0044   -2.1168   15.7162 O   0  0  0  0  0  0
  -51.1678   -2.2671   14.1070 O   0  0  0  0  0  0
  -48.9107   -1.6351   14.4075 C   0  0  0  0  0  0
  -47.9665   -0.6375   14.1711 C   0  0  0  0  0  0
  -49.5597    0.7159   13.0547 C   0  0  0  0  0  0
  -48.5508   -2.8023   15.0852 C   0  0  0  0  0  0
  -50.2881   -1.4352   13.9321 C   0  0  0  0  0  0
  -46.6533   -0.8017   14.6126 C   0  0  0  0  0  0
  -47.2364   -2.9641   15.5252 C   0  0  0  0  0  0
  -50.5570   -0.1664   13.2260 C   0  0  0  0  0  0
  -49.7718    2.0044   12.3650 C   0  0  0  0  0  0
  -46.2897   -1.9662   15.2897 C   0  0  0  0  0  0
  -51.0602    2.5301   12.2403 C   0  0  0  0  0  0
  -48.6850    2.7036   11.8341 C   0  0  0  0  0  0
  -51.2605    3.7472   11.5889 C   0  0  0  0  0  0
  -48.8853    3.9209   11.1828 C   0  0  0  0  0  0
  -50.1730    4.4426   11.0602 C   0  0  0  0  0  0
  -47.5928   -4.4120   17.3780 C   0  0  0  0  0  0
  -50.2860   -3.6280   14.8808 H   0  0  0  0  0  0
  -44.9154   -2.9937   16.1271 H   0  0  0  0  0  0
  1  7  1  0  0  0
  1  8  1  0  0  0
  2 12  1  0  0  0
  2 21  1  0  0  0
  3  9  1  0  0  0
  3 22  1  0  0  0
  4 15  1  0  0  0
  4 23  1  0  0  0
  5 10  2  0  0  0
  6  7  2  0  0  0
  6  9  1  0  0  0
  6 10  1  0  0  0
  7 11  1  0  0  0
  8 13  2  0  0  0
  8 14  1  0  0  0
  9 12  2  0  0  0
 10 13  1  0  0  0
 11 15  2  0  0  0
 12 15  1  0  0  0
 14 16  2  0  0  0
 14 17  1  0  0  0
 16 18  1  0  0  0
 17 19  2  0  0  0
 18 20  2  0  0  0
 19 20  1  0  0  0
M  END
>  <CHROM.0>
59.58822734,62.10546619,55.80126255

>  <CHROM.1>
-57.45241767,7.53311101,-177.38161682,-159.05416103,-48.72772163,-0.53685063
13.97878934,-1.91747402,0.19857665,2.63905597

>  <Name>
5320315

>  <PUBCHEM_ATOM_DEF_STEREO_COUNT>
0

>  <PUBCHEM_ATOM_UDEF_STEREO_COUNT>
0

>  <PUBCHEM_BOND_DEF_STEREO_COUNT>
0

>  <PUBCHEM_BOND_UDEF_STEREO_COUNT>
0

>  <PUBCHEM_CACTVS_TAUTO_COUNT>
12

>  <PUBCHEM_COMPONENT_COUNT>
1

>  <PUBCHEM_COMPOUND_CID>
5320315

>  <PUBCHEM_CONFORMER_DIVERSEORDER>
1
2

>  <PUBCHEM_CONFORMER_ID>
00512E7B00000001

>  <PUBCHEM_CONFORMER_RMSD>
0.6

>  <PUBCHEM_COORDINATE_TYPE>
2
5
10

>  <PUBCHEM_EFFECTIVE_ROTOR_COUNT>
2

>  <PUBCHEM_FEATURE_SELFOVERLAP>
40.625

>  <PUBCHEM_HEAVY_ATOM_COUNT>
21

>  <PUBCHEM_ISOTOPIC_ATOM_COUNT>
0

>  <PUBCHEM_MMFF94_ENERGY>
75.473

>  <PUBCHEM_MMFF94_PARTIAL_CHARGES>
30
1 -0.16
10 0.47
11 -0.15
12 0.08
13 -0.14
14 0.03
15 0.08
16 -0.15
17 -0.15
18 -0.15
19 -0.15
2 -0.36
20 -0.15
21 0.28
22 0.15
23 0.15
24 0.15
25 0.15
26 0.15
27 0.15
28 0.45
29 0.15
3 -0.53
30 0.45
4 -0.53
5 -0.57
6 0.09
7 0.08
8 0.05
9 0.08

>  <PUBCHEM_PHARMACOPHORE_FEATURES>
8
1 1 acceptor
1 2 acceptor
1 3 donor
1 4 donor
1 5 acceptor
6 1 6 7 8 10 13 rings
6 14 16 17 18 19 20 rings
6 6 7 9 11 12 15 rings

>  <PUBCHEM_SHAPE_FINGERPRINT>
10319926 262 18339623639079927362
10411042 1 17689153838918189787
10493431 412 18412550899190905579
10498660 4 18336259038155622404
10608611 8 18341890844582710312
10646746 165 18410291411290866772
11578080 2 16807560661564956135
11595378 159 17603851292036568784
12107183 9 17685765831707532056
12173636 292 18409724054157661710
12236239 1 17385443219831120436
12390115 104 18199200502985526313
12403259 415 18412259523903711936
12596602 18 16588026844156286080
12788726 201 16955089051946383770
12916748 109 18408608050066549664
13081056 2 18413107251663356708
13140716 1 18192439782443455073
13544592 145 18342466902818679814
14341114 176 18411986857957503992
14787075 74 18272365395410613289
14790565 3 18411707556044776401
15042514 8 18191310575201304571
15196674 1 18337952290330464676
18186145 218 18201441354958650840
19784866 170 18335424534979148177
200 152 16988561303619401118
20510252 161 18342457062362639976
20645477 56 18410292536303305356
20645477 70 17274831216770011254
21033648 29 18340193137957187080
21065198 57 18411697734118468002
21236236 1 18342175626547569519
21267235 1 18408613555934976822
21279426 13 18196936574442069094
221357 26 18131628967727941912
22224240 67 18410863166280868131
23175994 123 17346884463726178344
23227448 37 18341047531658640252
23402539 116 18341044211337930942
23559900 14 18343301483852294606
3004659 81 18335425609365050694
335352 9 18411419509941474878
350125 39 18409453600294457093
3545911 37 18413390938949086460
4214541 1 18411417306802742604
474 4 16879355726359951084
474229 33 18409449189436474875
495365 180 17346305034600225762
5104073 3 18189619332838080865
542803 24 17346600768087715024
59755656 215 18338238167506508630
633830 44 18200024032683160908
69090 78 18343298189095660934
77779 3 18412262839955658820
9709674 26 18341898523942401550

>  <PUBCHEM_SHAPE_MULTIPOLES>
402.82
11.67
2.31
0.72
5.74
0.44
-0.06
-3.53
-0.92
-1.26
0.03
-0.06
-0.08
0.71

>  <PUBCHEM_SHAPE_SELFOVERLAP>
895.866

>  <PUBCHEM_SHAPE_VOLUME>
214

>  <RI>
-2.16472e+08

>  <Rbt.Current_Directory>
/root/miniconda3/envs/rdock/share/rxdock-2013.1.1_148c5bd1-0/data/ligands/prepped_ligands/Oryxylin_A

>  <Rbt.Executable>
rbdock/0.1.0

>  <Rbt.Library>
librxdock.so/0.1.0

>  <Rbt.Parameter_File>
/root/miniconda3/envs/rdock/share/rxdock-2013.1.1_148c5bd1-0/data/scripts/dock.prm

>  <Rbt.Receptor>
def.prm

>  <SCORE>
-14.1353

>  <SCORE.INTER>
-13.1626

>  <SCORE.INTER.CONST>
1

>  <SCORE.INTER.POLAR>
-0.378276

>  <SCORE.INTER.REPUL>
0.128029

>  <SCORE.INTER.ROT>
2

>  <SCORE.INTER.VDW>
-19.9166

>  <SCORE.INTER.norm>
-0.62679

>  <SCORE.INTRA>
0.0136233

>  <SCORE.INTRA.DIHEDRAL>
-1.95451

>  <SCORE.INTRA.DIHEDRAL.0>
6.0475

>  <SCORE.INTRA.POLAR>
-0.115744

>  <SCORE.INTRA.POLAR.0>
-0.0243237

>  <SCORE.INTRA.REPUL>
0

>  <SCORE.INTRA.REPUL.0>
0

>  <SCORE.INTRA.VDW>
1.38441

>  <SCORE.INTRA.VDW.0>
0.255107

>  <SCORE.INTRA.norm>
0.000648726

>  <SCORE.RESTR>
0

>  <SCORE.RESTR.CAVITY>
0

>  <SCORE.RESTR.norm>
0

>  <SCORE.SYSTEM>
-0.986347

>  <SCORE.SYSTEM.CONST>
0

>  <SCORE.SYSTEM.DIHEDRAL>
0.0694956

>  <SCORE.SYSTEM.VDW>
-1.02109

>  <SCORE.SYSTEM.norm>
-0.0469689

>  <SCORE.heavy>
21

>  <SCORE.norm>
-0.67311

$$$$
5320315
  RxDock  02242112033D
librxdock.so/0.1.0
 23 25  0  0  0  0  0  0  0  0999 V2000
  -50.2266   -4.2066   15.9005 O   0  0  0  0  0  0
  -45.6137   -1.2586   15.1617 O   0  0  0  0  0  0
  -47.8478   -0.5794   13.7488 O   0  0  0  0  0  0
  -45.6717   -3.3837   16.9286 O   0  0  0  0  0  0
  -50.3531   -1.1163   13.2485 O   0  0  0  0  0  0
  -49.0805   -2.3741   14.7921 C   0  0  0  0  0  0
  -49.1062   -3.4452   15.6836 C   0  0  0  0  0  0
  -51.3848   -3.8893   15.2073 C   0  0  0  0  0  0
  -47.9100   -1.6336   14.6108 C   0  0  0  0  0  0
  -50.3047   -2.0408   14.0482 C   0  0  0  0  0  0
  -47.9582   -3.7830   16.4008 C   0  0  0  0  0  0
  -46.7634   -1.9735   15.3299 C   0  0  0  0  0  0
  -51.4838   -2.8876   14.3191 C   0  0  0  0  0  0
  -52.5274   -4.7742   15.5114 C   0  0  0  0  0  0
  -46.7871   -3.0458   16.2228 C   0  0  0  0  0  0
  -53.7730   -4.5391   14.9241 C   0  0  0  0  0  0
  -52.3679   -5.8506   16.3878 C   0  0  0  0  0  0
  -54.8523   -5.3750   15.2114 C   0  0  0  0  0  0
  -53.4471   -6.6865   16.6749 C   0  0  0  0  0  0
  -54.6892   -6.4486   16.0867 C   0  0  0  0  0  0
  -44.4970   -1.9511   14.6094 C   0  0  0  0  0  0
  -47.0454   -0.6248   13.2074 H   0  0  0  0  0  0
  -45.9273   -4.0031   17.6335 H   0  0  0  0  0  0
  1  7  1  0  0  0
  1  8  1  0  0  0
  2 12  1  0  0  0
  2 21  1  0  0  0
  3  9  1  0  0  0
  3 22  1  0  0  0
  4 15  1  0  0  0
  4 23  1  0  0  0
  5 10  2  0  0  0
  6  7  2  0  0  0
  6  9  1  0  0  0
  6 10  1  0  0  0
  7 11  1  0  0  0
  8 13  2  0  0  0
  8 14  1  0  0  0
  9 12  2  0  0  0
 10 13  1  0  0  0
 11 15  2  0  0  0
 12 15  1  0  0  0
 14 16  2  0  0  0
 14 17  1  0  0  0
 16 18  1  0  0  0
 17 19  2  0  0  0
 18 20  2  0  0  0
 19 20  1  0  0  0
M  END
>  <CHROM.0>
176.69315586,-63.19332994,-64.46114199

>  <CHROM.1>
-115.75541038,-134.27565579,-12.90873009,177.51636309,-49.69630644,-3.32139219
15.27026698,-2.75481688,-0.24722510,-0.69234234

>  <Name>
5320315

>  <PUBCHEM_ATOM_DEF_STEREO_COUNT>
0

>  <PUBCHEM_ATOM_UDEF_STEREO_COUNT>
0

>  <PUBCHEM_BOND_DEF_STEREO_COUNT>
0

>  <PUBCHEM_BOND_UDEF_STEREO_COUNT>
0

>  <PUBCHEM_CACTVS_TAUTO_COUNT>
12

>  <PUBCHEM_COMPONENT_COUNT>
1

>  <PUBCHEM_COMPOUND_CID>
5320315

>  <PUBCHEM_CONFORMER_DIVERSEORDER>
1
2

>  <PUBCHEM_CONFORMER_ID>
00512E7B00000001

>  <PUBCHEM_CONFORMER_RMSD>
0.6

>  <PUBCHEM_COORDINATE_TYPE>
2
5
10

>  <PUBCHEM_EFFECTIVE_ROTOR_COUNT>
2

>  <PUBCHEM_FEATURE_SELFOVERLAP>
40.625

>  <PUBCHEM_HEAVY_ATOM_COUNT>
21

>  <PUBCHEM_ISOTOPIC_ATOM_COUNT>
0

>  <PUBCHEM_MMFF94_ENERGY>
75.473

>  <PUBCHEM_MMFF94_PARTIAL_CHARGES>
30
1 -0.16
10 0.47
11 -0.15
12 0.08
13 -0.14
14 0.03
15 0.08
16 -0.15
17 -0.15
18 -0.15
19 -0.15
2 -0.36
20 -0.15
21 0.28
22 0.15
23 0.15
24 0.15
25 0.15
26 0.15
27 0.15
28 0.45
29 0.15
3 -0.53
30 0.45
4 -0.53
5 -0.57
6 0.09
7 0.08
8 0.05
9 0.08

>  <PUBCHEM_PHARMACOPHORE_FEATURES>
8
1 1 acceptor
1 2 acceptor
1 3 donor
1 4 donor
1 5 acceptor
6 1 6 7 8 10 13 rings
6 14 16 17 18 19 20 rings
6 6 7 9 11 12 15 rings

>  <PUBCHEM_SHAPE_FINGERPRINT>
10319926 262 18339623639079927362
10411042 1 17689153838918189787
10493431 412 18412550899190905579
10498660 4 18336259038155622404
10608611 8 18341890844582710312
10646746 165 18410291411290866772
11578080 2 16807560661564956135
11595378 159 17603851292036568784
12107183 9 17685765831707532056
12173636 292 18409724054157661710
12236239 1 17385443219831120436
12390115 104 18199200502985526313
12403259 415 18412259523903711936
12596602 18 16588026844156286080
12788726 201 16955089051946383770
12916748 109 18408608050066549664
13081056 2 18413107251663356708
13140716 1 18192439782443455073
13544592 145 18342466902818679814
14341114 176 18411986857957503992
14787075 74 18272365395410613289
14790565 3 18411707556044776401
15042514 8 18191310575201304571
15196674 1 18337952290330464676
18186145 218 18201441354958650840
19784866 170 18335424534979148177
200 152 16988561303619401118
20510252 161 18342457062362639976
20645477 56 18410292536303305356
20645477 70 17274831216770011254
21033648 29 18340193137957187080
21065198 57 18411697734118468002
21236236 1 18342175626547569519
21267235 1 18408613555934976822
21279426 13 18196936574442069094
221357 26 18131628967727941912
22224240 67 18410863166280868131
23175994 123 17346884463726178344
23227448 37 18341047531658640252
23402539 116 18341044211337930942
23559900 14 18343301483852294606
3004659 81 18335425609365050694
335352 9 18411419509941474878
350125 39 18409453600294457093
3545911 37 18413390938949086460
4214541 1 18411417306802742604
474 4 16879355726359951084
474229 33 18409449189436474875
495365 180 17346305034600225762
5104073 3 18189619332838080865
542803 24 17346600768087715024
59755656 215 18338238167506508630
633830 44 18200024032683160908
69090 78 18343298189095660934
77779 3 18412262839955658820
9709674 26 18341898523942401550

>  <PUBCHEM_SHAPE_MULTIPOLES>
402.82
11.67
2.31
0.72
5.74
0.44
-0.06
-3.53
-0.92
-1.26
0.03
-0.06
-0.08
0.71

>  <PUBCHEM_SHAPE_SELFOVERLAP>
895.866

>  <PUBCHEM_SHAPE_VOLUME>
214

>  <RI>
-2.16472e+08

>  <Rbt.Current_Directory>
/root/miniconda3/envs/rdock/share/rxdock-2013.1.1_148c5bd1-0/data/ligands/prepped_ligands/Oryxylin_A

>  <Rbt.Executable>
rbdock/0.1.0

>  <Rbt.Library>
librxdock.so/0.1.0

>  <Rbt.Parameter_File>
/root/miniconda3/envs/rdock/share/rxdock-2013.1.1_148c5bd1-0/data/scripts/dock.prm

>  <Rbt.Receptor>
def.prm

>  <SCORE>
-17.6052

>  <SCORE.INTER>
-17.862

>  <SCORE.INTER.CONST>
1

>  <SCORE.INTER.POLAR>
-1.76191

>  <SCORE.INTER.REPUL>
0.0037168

>  <SCORE.INTER.ROT>
2

>  <SCORE.INTER.VDW>
-19.2901

>  <SCORE.INTER.norm>
-0.850573

>  <SCORE.INTRA>
1.2863

>  <SCORE.INTRA.DIHEDRAL>
0.561285

>  <SCORE.INTRA.DIHEDRAL.0>
6.0475

>  <SCORE.INTRA.POLAR>
0.0243237

>  <SCORE.INTRA.POLAR.0>
-0.0243237

>  <SCORE.INTRA.REPUL>
0

>  <SCORE.INTRA.REPUL.0>
0

>  <SCORE.INTRA.VDW>
0.922956

>  <SCORE.INTRA.VDW.0>
0.255107

>  <SCORE.INTRA.norm>
0.0612523

>  <SCORE.RESTR>
0

>  <SCORE.RESTR.CAVITY>
0

>  <SCORE.RESTR.norm>
0

>  <SCORE.SYSTEM>
-1.0295

>  <SCORE.SYSTEM.CONST>
0

>  <SCORE.SYSTEM.DIHEDRAL>
0.132236

>  <SCORE.SYSTEM.VDW>
-1.09562

>  <SCORE.SYSTEM.norm>
-0.0490239

>  <SCORE.heavy>
21

>  <SCORE.norm>
-0.838345

$$$$
