Site3m_Forsythoside_D
  xed2sdf_05210316543D
 
 62 64  0  0  1  0  0  0  0  0999 V2000
  -51.0702    1.3940   13.2654 O   0  0  0  0  0  0  0  0  0  0  0  0
  -53.4992    2.3280   12.3324 O   0  0  0  0  0  0  0  0  0  0  0  0
  -55.8012    1.8690   12.2054 O   0  0  0  0  0  0  0  0  0  0  0  0
  -50.4752    4.7250   11.7064 O   0  0  0  0  0  0  0  0  0  0  0  0
  -49.5432   -0.4810   13.6124 O   0  0  0  0  0  0  0  0  0  0  0  0
  -48.2072    3.2410   10.8054 O   0  0  0  0  0  0  0  0  0  0  0  0
  -47.5102    0.9080   12.3314 O   0  0  0  0  0  0  0  0  0  0  0  0
  -56.1932    3.7220   10.1354 O   0  0  0  0  0  0  0  0  0  0  0  0
  -54.7252    2.2640    8.1904 O   0  0  0  0  0  0  0  0  0  0  0  0
  -55.2302   -0.3980    9.3124 O   0  0  0  0  0  0  0  0  0  0  0  0
  -44.7862   -2.4140   14.4124 O   0  0  0  0  0  0  0  0  0  0  0  0
  -43.9912   -0.4830   16.2064 O   0  0  0  0  0  0  0  0  0  0  0  0
  -51.1662    2.8280   13.1224 C   0  0  0  0  0  0  0  0  0  0  0  0
  -50.4082    3.2980   11.8614 C   0  0  0  0  0  0  0  0  0  0  0  0
  -48.9382    2.8590   11.9804 C   0  0  0  0  0  0  0  0  0  0  0  0
  -48.8712    1.3340   12.1744 C   0  0  0  0  0  0  0  0  0  0  0  0
  -54.8802    3.2190   10.4264 C   0  0  0  0  0  0  0  0  0  0  0  0
  -54.7862    2.8580   11.9274 C   0  0  0  0  0  0  0  0  0  0  0  0
  -54.6072    1.9540    9.5874 C   0  0  0  0  0  0  0  0  0  0  0  0
  -55.5822    0.8230    9.9824 C   0  0  0  0  0  0  0  0  0  0  0  0
  -49.7042    0.9360   13.4084 C   0  0  0  0  0  0  0  0  0  0  0  0
  -52.6452    3.2580   13.0344 C   0  0  0  0  0  0  0  0  0  0  0  0
  -55.5662    0.6230   11.5144 C   0  0  0  0  0  0  0  0  0  0  0  0
  -56.6442   -0.3980   11.9074 C   0  0  0  0  0  0  0  0  0  0  0  0
  -50.3302   -0.9790   14.7064 C   0  0  0  0  0  0  0  0  0  0  0  0
  -49.4432   -1.8410   15.6244 C   0  0  0  0  0  0  0  0  0  0  0  0
  -47.9932   -1.4220   15.8124 C   0  0  0  0  0  0  0  0  0  0  0  0
  -47.0492   -2.0740   15.0474 C   0  0  0  0  0  0  0  0  0  0  0  0
  -47.5892   -0.4470   16.6984 C   0  0  0  0  0  0  0  0  0  0  0  0
  -45.7132   -1.7640   15.1714 C   0  0  0  0  0  0  0  0  0  0  0  0
  -46.2542   -0.1320   16.8304 C   0  0  0  0  0  0  0  0  0  0  0  0
  -45.3132   -0.7890   16.0714 C   0  0  0  0  0  0  0  0  0  0  0  0
  -50.7492    3.2530   13.9254 H   0  0  0  0  0  0  0  0  0  0  0  0
  -50.8352    2.8860   11.0574 H   0  0  0  0  0  0  0  0  0  0  0  0
  -48.5242    3.3100   12.7704 H   0  0  0  0  0  0  0  0  0  0  0  0
  -49.2482    0.8840   11.3644 H   0  0  0  0  0  0  0  0  0  0  0  0
  -54.2052    3.9210   10.2024 H   0  0  0  0  0  0  0  0  0  0  0  0
  -54.9132    3.7050   12.4444 H   0  0  0  0  0  0  0  0  0  0  0  0
  -53.6762    1.6370    9.7694 H   0  0  0  0  0  0  0  0  0  0  0  0
  -56.5072    1.0810    9.7014 H   0  0  0  0  0  0  0  0  0  0  0  0
  -49.3832    1.3860   14.2424 H   0  0  0  0  0  0  0  0  0  0  0  0
  -54.6632    0.2860   11.7794 H   0  0  0  0  0  0  0  0  0  0  0  0
  -50.0782    5.2000   12.4984 H   0  0  0  0  0  0  0  0  0  0  0  0
  -47.2272    3.3520   11.0044 H   0  0  0  0  0  0  0  0  0  0  0  0
  -47.4062   -0.0710   12.1214 H   0  0  0  0  0  0  0  0  0  0  0  0
  -56.9072    3.1330   10.5314 H   0  0  0  0  0  0  0  0  0  0  0  0
  -54.3452    1.5300    7.6174 H   0  0  0  0  0  0  0  0  0  0  0  0
  -54.5192   -0.2450    8.6184 H   0  0  0  0  0  0  0  0  0  0  0  0
  -44.9722   -2.3030   13.4294 H   0  0  0  0  0  0  0  0  0  0  0  0
  -43.4112   -1.2960   16.0864 H   0  0  0  0  0  0  0  0  0  0  0  0
  -52.9972    3.3660   13.9644 H   0  0  0  0  0  0  0  0  0  0  0  0
  -52.6622    4.1100   12.5114 H   0  0  0  0  0  0  0  0  0  0  0  0
  -57.1172   -0.7060   11.0824 H   0  0  0  0  0  0  0  0  0  0  0  0
  -56.2182   -1.1800   12.3634 H   0  0  0  0  0  0  0  0  0  0  0  0
  -57.2982    0.0270   12.5324 H   0  0  0  0  0  0  0  0  0  0  0  0
  -51.0842   -1.5320   14.3514 H   0  0  0  0  0  0  0  0  0  0  0  0
  -50.7022   -0.2110   15.2284 H   0  0  0  0  0  0  0  0  0  0  0  0
  -49.4412   -2.7690   15.2524 H   0  0  0  0  0  0  0  0  0  0  0  0
  -49.8512   -1.7400   16.5314 H   0  0  0  0  0  0  0  0  0  0  0  0
  -47.3372   -2.7780   14.3984 H   0  0  0  0  0  0  0  0  0  0  0  0
  -48.2702    0.0350   17.2504 H   0  0  0  0  0  0  0  0  0  0  0  0
  -45.9692    0.5750   17.4774 H   0  0  0  0  0  0  0  0  0  0  0  0
  1 13  1  0
  1 21  1  0
  2 22  1  0
  3 18  1  0
  3 23  1  0
  5 25  1  0
 11 30  1  0
 12 32  1  0
 13 14  1  0
 13 22  1  0
 14  4  1  0
 14 15  1  0
 15  6  1  0
 15 16  1  0
 16  7  1  0
 16 21  1  0
 17  8  1  0
 17 18  1  0
 17 19  1  0
 18  2  1  0
 19  9  1  0
 19 20  1  0
 20 10  1  0
 20 23  1  0
 21  5  1  0
 23 24  1  0
 25 26  1  0
 26 27  1  0
 27 28  2  0
 27 29  1  0
 28 30  1  0
 29 31  2  0
 30 32  2  0
 31 32  1  0
  4 43  1  0
  6 44  1  0
  7 45  1  0
  8 46  1  0
  9 47  1  0
 10 48  1  0
 11 49  1  0
 12 50  1  0
 13 33  1  0
 14 34  1  0
 15 35  1  0
 16 36  1  0
 17 37  1  0
 18 38  1  0
 19 39  1  0
 20 40  1  0
 21 41  1  0
 22 51  1  0
 22 52  1  0
 23 42  1  0
 24 53  1  0
 24 54  1  0
 24 55  1  0
 25 56  1  0
 25 57  1  0
 26 58  1  0
 26 59  1  0
 28 60  1  0
 29 61  1  0
 31 62  1  0
M  END
>  <LF dG>
-4.071

>  <LF VSscore>
-10.014

>  <LF Rank Score>
-7.283

>  <LF LE>
-0.127

>  <LF Structure Name>
C:\Users\Odara\AppData\Local\Temp\LeadFinder_10248_1\Ligand_1.sdf

>  <LF SDF id>
0

>  <LF Pose rank>
0

>  <LF version>
2001 1, 19 January 2019

>  <PUBCHEM_COMPOUND_CID>
69634125

>  <PUBCHEM_COMPOUND_CANONICALIZED>
1

>  <PUBCHEM_CACTVS_COMPLEXITY>
581

>  <PUBCHEM_CACTVS_HBOND_ACCEPTOR>
12

>  <PUBCHEM_CACTVS_HBOND_DONOR>
8

>  <PUBCHEM_CACTVS_ROTATABLE_BOND>
7

>  <PUBCHEM_CACTVS_SUBSKEYS>
AAADceB4PAAAAAAAAAAAAAAAAAAAAAAAAAA0SIAAAAAAAAABAAAAGgAACAAADBSwmAMyDoAABgCAAiBCAAACAAAgIAAIiAAGiIgZNiKCERKicAElwBEPmAfA4LwOIAABAAAAQABAAAIAAACAAAAAAAAAAA==

>  <PUBCHEM_IUPAC_OPENEYE_NAME>
(2R,3R,4R,5R,6S)-2-[[(2R,3S,4S,5R,6R)-6-[2-(3,4-dihydroxyphenyl)ethoxy]-3,4,5-trihydroxy-tetrahydropyran-2-yl]methoxy]-6-methyl-tetrahydropyran-3,4,5-triol

>  <PUBCHEM_IUPAC_CAS_NAME>
(2R,3R,4R,5R,6S)-2-[[(2R,3S,4S,5R,6R)-6-[2-(3,4-dihydroxyphenyl)ethoxy]-3,4,5-trihydroxy-2-oxanyl]methoxy]-6-methyloxane-3,4,5-triol

>  <PUBCHEM_IUPAC_NAME_MARKUP>
(2<I>R</I>,3<I>R</I>,4<I>R</I>,5<I>R</I>,6<I>S</I>)-2-[[(2<I>R</I>,3<I>S</I>,4<I>S</I>,5<I>R</I>,6<I>R</I>)-6-[2-(3,4-dihydroxyphenyl)ethoxy]-3,4,5-trihydroxyoxan-2-yl]methoxy]-6-methyloxane-3,4,5-tri

>  <PUBCHEM_IUPAC_NAME>
(2R,3R,4R,5R,6S)-2-[[(2R,3S,4S,5R,6R)-6-[2-(3,4-dihydroxyphenyl)ethoxy]-3,4,5-trihydroxyoxan-2-yl]methoxy]-6-methyloxane-3,4,5-triol

>  <PUBCHEM_IUPAC_SYSTEMATIC_NAME>
(2R,3R,4R,5R,6S)-2-[[(2R,3S,4S,5R,6R)-6-[2-[3,4-bis(oxidanyl)phenyl]ethoxy]-3,4,5-tris(oxidanyl)oxan-2-yl]methoxy]-6-methyl-oxane-3,4,5-triol

>  <PUBCHEM_IUPAC_TRADITIONAL_NAME>
(2R,3R,4R,5R,6S)-2-[[(2R,3S,4S,5R,6R)-6-[2-(3,4-dihydroxyphenyl)ethoxy]-3,4,5-trihydroxy-tetrahydropyran-2-yl]methoxy]-6-methyl-tetrahydropyran-3,4,5-triol

>  <PUBCHEM_IUPAC_INCHI>
InChI=1S/C20H30O12/c1-8-13(23)15(25)17(27)20(31-8)30-7-12-14(24)16(26)18(28)19(32-12)29-5-4-9-2-3-10(21)11(22)6-9/h2-3,6,8,12-28H,4-5,7H2,1H3/t8-,12+,13-,14+,15+,16-,17+,18+,19+,20+/m0/s1

>  <PUBCHEM_IUPAC_INCHIKEY>
QIMGUQIHCNDUKU-OJJLXHDHSA-N

>  <PUBCHEM_XLOGP3_AA>
-2.5

>  <PUBCHEM_EXACT_MASS>
462.173726

>  <PUBCHEM_MOLECULAR_FORMULA>
C20H30O12

>  <PUBCHEM_MOLECULAR_WEIGHT>
462.4

>  <PUBCHEM_OPENEYE_CAN_SMILES>
CC1C(C(C(C(O1)OCC2C(C(C(C(O2)OCCC3=CC(=C(C=C3)O)O)O)O)O)O)O)O

>  <PUBCHEM_OPENEYE_ISO_SMILES>
C[C@H]1[C@@H]([C@H]([C@H]([C@@H](O1)OC[C@@H]2[C@H]([C@@H]([C@H]([C@@H](O2)OCCC3=CC(=C(C=C3)O)O)O)O)O)O)O)O

>  <PUBCHEM_CACTVS_TPSA>
199

>  <PUBCHEM_MONOISOTOPIC_WEIGHT>
462.173726

>  <PUBCHEM_TOTAL_CHARGE>
0

>  <PUBCHEM_HEAVY_ATOM_COUNT>
32

>  <PUBCHEM_ATOM_DEF_STEREO_COUNT>
10

>  <PUBCHEM_ATOM_UDEF_STEREO_COUNT>
0

>  <PUBCHEM_BOND_DEF_STEREO_COUNT>
0

>  <PUBCHEM_BOND_UDEF_STEREO_COUNT>
0

>  <PUBCHEM_ISOTOPIC_ATOM_COUNT>
0

>  <PUBCHEM_COMPONENT_COUNT>
1

>  <PUBCHEM_CACTVS_TAUTO_COUNT>
-1

>  <PUBCHEM_COORDINATE_TYPE>
1
5
255

>  <PUBCHEM_BONDANNOTATIONS>
20  10  5
13  22  5
18  2  5
23  24  6
27  28  8
27  29  8
28  30  8
29  31  8
30  32  8
31  32  8
14  4  6
21  5  5
15  6  5
16  7  6
17  8  6
19  9  6

>  <Preferred Pose_cresset>
true

>  <Favorite_cresset>
false

>  <MW_cresset>
462.4

>  <#Atoms_cresset>
32

>  <SlogP_cresset>
-0.4

>  <TPSA_cresset>
198.8

>  <Flexibility_cresset>
15.9

>  <#RB_cresset>
15

>  <Rof5_cresset>
2

>  <Filename_cresset>
Forsythoside E no water site 3 monomer.sdf

>  <Confs_cresset>
0

>  <Poses_cresset>
10

>  <_cresset_fieldpoints>
    -5     -52.688957       0.614654      12.605034    -13.6859
    -5     -55.998974       3.691774       8.231239    -20.0034
    -5     -56.456772       1.852655      14.003519     -7.5692
    -5     -49.265068       4.694180      10.145807    -17.3932
    -5     -49.872353      -1.664148      12.144242     -5.3191
    -5     -46.511623       1.250492      13.928018    -12.2150
    -5     -56.008911      -2.138666       9.480297    -11.0057
    -5     -44.287464      -4.127311      15.105953     -5.7833
    -5     -43.498596       1.290652      15.681190     -8.5016
    -5     -46.435646      -3.116126      17.978315     -3.6197
    -6     -46.180595      -1.540853      12.155914     14.0703
    -6     -53.178608       0.127610       7.431441     16.5796
    -6     -46.367432       4.440105      12.323689      7.4746
    -6     -58.497253       2.068839      10.574639      6.6320
    -6     -41.845333      -2.372484      16.321247      6.2194
    -6     -49.380985       4.990043      14.253450     12.4103
    -7     -53.169052       0.231655      13.793745     -3.3872
    -7     -48.392796       5.764199      10.838537     -1.6078
    -7     -51.307289       5.975513      14.181232     -1.6729
    -7     -49.080017       5.052854      14.605234     -1.7843
    -7     -51.920727       3.757104       8.953508     -2.0809
    -7     -48.566193      -2.038857      12.129364     -2.8404
    -7     -46.432213       1.349881      10.163340     -1.5917
    -7     -49.543839       2.004916       8.887676     -1.6627
    -7     -58.083588       2.627043      12.317366     -2.2195
    -7     -56.122681       0.298143       6.921863     -1.5726
    -7     -57.236233       3.068174       8.049665     -1.8831
    -7     -52.145981       0.337930      11.349119     -4.2041
    -7     -42.759125      -1.096148      13.827513     -1.4776
    -7     -45.599663      -4.560556      13.274679     -1.2936
    -7     -42.911064      -3.488117      15.569824     -1.2624
    -7     -46.613674      -3.414812      18.220161     -1.8281
    -7     -52.245689       5.483263      10.334810     -2.1802
    -7     -57.108139      -1.715667       8.666067     -1.4604
    -7     -50.058762       1.898987      16.587387     -2.5555
    -7     -46.603516       1.927275      14.310410     -3.0884
    -7     -43.114220      -0.958874      18.488541     -1.1889
    -8     -49.728302       2.375681      12.550037      5.1888
    -8     -51.479782       3.411201      12.750699      4.1122
    -8     -54.974358       1.736792      10.553401      4.7808
    -8     -53.765419       3.757088      12.471251      2.4150
    -8     -56.196938       0.127810      11.108654      4.4945
    -8     -46.712677      -1.099075      15.953804      6.9219

$$$$
W_Site3m_Forsythoside_D
  xed2sdf_05210316543D
 
 62 64  0  0  1  0  0  0  0  0999 V2000
  -47.3801   -2.0945   15.5681 O   0  0  0  0  0  0  0  0  0  0  0  0
  -45.6361    0.2095   16.2651 O   0  0  0  0  0  0  0  0  0  0  0  0
  -47.2061   -0.3295   17.9301 O   0  0  0  0  0  0  0  0  0  0  0  0
  -46.9421    0.5765   13.0071 O   0  0  0  0  0  0  0  0  0  0  0  0
  -49.2681   -3.5855   15.9851 O   0  0  0  0  0  0  0  0  0  0  0  0
  -49.7661    0.1585   12.9441 O   0  0  0  0  0  0  0  0  0  0  0  0
  -50.7171   -2.3545   13.9631 O   0  0  0  0  0  0  0  0  0  0  0  0
  -45.2401   -0.4875   19.9241 O   0  0  0  0  0  0  0  0  0  0  0  0
  -44.6301    2.2865   19.9161 O   0  0  0  0  0  0  0  0  0  0  0  0
  -47.2791    3.2115   19.0641 O   0  0  0  0  0  0  0  0  0  0  0  0
  -46.7871   -8.0355   17.7231 O   0  0  0  0  0  0  0  0  0  0  0  0
  -49.1601   -9.4215   17.5551 O   0  0  0  0  0  0  0  0  0  0  0  0
  -46.6871   -1.3165   14.5671 C   0  0  0  0  0  0  0  0  0  0  0  0
  -47.6031   -0.2015   14.0181 C   0  0  0  0  0  0  0  0  0  0  0  0
  -48.8671   -0.8505   13.4281 C   0  0  0  0  0  0  0  0  0  0  0  0
  -49.5581   -1.7045   14.5051 C   0  0  0  0  0  0  0  0  0  0  0  0
  -44.9801    0.2075   18.6951 C   0  0  0  0  0  0  0  0  0  0  0  0
  -45.8141   -0.4245   17.5571 C   0  0  0  0  0  0  0  0  0  0  0  0
  -45.3721    1.6915   18.8401 C   0  0  0  0  0  0  0  0  0  0  0  0
  -46.8911    1.8285   19.0811 C   0  0  0  0  0  0  0  0  0  0  0  0
  -48.5631   -2.7475   15.0501 C   0  0  0  0  0  0  0  0  0  0  0  0
  -45.4061   -0.6965   15.1631 C   0  0  0  0  0  0  0  0  0  0  0  0
  -47.6691    1.0355   18.0061 C   0  0  0  0  0  0  0  0  0  0  0  0
  -49.1681    1.0565   18.3421 C   0  0  0  0  0  0  0  0  0  0  0  0
  -49.5381   -2.9245   17.2321 C   0  0  0  0  0  0  0  0  0  0  0  0
  -49.1111   -3.8365   18.3971 C   0  0  0  0  0  0  0  0  0  0  0  0
  -49.1861   -5.3415   18.1891 C   0  0  0  0  0  0  0  0  0  0  0  0
  -47.9911   -6.0155   18.0591 C   0  0  0  0  0  0  0  0  0  0  0  0
  -50.3701   -6.0445   18.1161 C   0  0  0  0  0  0  0  0  0  0  0  0
  -47.9741   -7.3765   17.8511 C   0  0  0  0  0  0  0  0  0  0  0  0
  -50.3621   -7.4055   17.9061 C   0  0  0  0  0  0  0  0  0  0  0  0
  -49.1671   -8.0755   17.7701 C   0  0  0  0  0  0  0  0  0  0  0  0
  -46.4351   -1.9255   13.8151 H   0  0  0  0  0  0  0  0  0  0  0  0
  -47.8411    0.4165   14.7671 H   0  0  0  0  0  0  0  0  0  0  0  0
  -48.6071   -1.4355   12.6601 H   0  0  0  0  0  0  0  0  0  0  0  0
  -49.8551   -1.1105   15.2531 H   0  0  0  0  0  0  0  0  0  0  0  0
  -44.0061    0.1385   18.4801 H   0  0  0  0  0  0  0  0  0  0  0  0
  -45.5021   -1.3685   17.4491 H   0  0  0  0  0  0  0  0  0  0  0  0
  -45.1491    2.1725   17.9921 H   0  0  0  0  0  0  0  0  0  0  0  0
  -47.1111    1.4515   19.9811 H   0  0  0  0  0  0  0  0  0  0  0  0
  -48.2131   -3.3485   14.3321 H   0  0  0  0  0  0  0  0  0  0  0  0
  -47.5121    1.4685   17.1191 H   0  0  0  0  0  0  0  0  0  0  0  0
  -46.6611    0.0045   12.2291 H   0  0  0  0  0  0  0  0  0  0  0  0
  -50.4561   -0.2325   12.3251 H   0  0  0  0  0  0  0  0  0  0  0  0
  -50.7051   -2.3455   12.9571 H   0  0  0  0  0  0  0  0  0  0  0  0
  -44.7521   -0.0625   20.6941 H   0  0  0  0  0  0  0  0  0  0  0  0
  -45.0331    2.0625   20.8091 H   0  0  0  0  0  0  0  0  0  0  0  0
  -46.8481    3.7055   18.3011 H   0  0  0  0  0  0  0  0  0  0  0  0
  -46.8551   -8.7895   17.0601 H   0  0  0  0  0  0  0  0  0  0  0  0
  -48.3481   -9.7065   17.0331 H   0  0  0  0  0  0  0  0  0  0  0  0
  -44.8171   -1.4385   15.4851 H   0  0  0  0  0  0  0  0  0  0  0  0
  -44.9871   -0.1555   14.4341 H   0  0  0  0  0  0  0  0  0  0  0  0
  -49.3061    1.5805   19.1831 H   0  0  0  0  0  0  0  0  0  0  0  0
  -49.6761    1.4825   17.5931 H   0  0  0  0  0  0  0  0  0  0  0  0
  -49.4981    0.1215   18.4681 H   0  0  0  0  0  0  0  0  0  0  0  0
  -50.5161   -2.7255   17.3021 H   0  0  0  0  0  0  0  0  0  0  0  0
  -49.0231   -2.0675   17.2751 H   0  0  0  0  0  0  0  0  0  0  0  0
  -49.6931   -3.6135   19.1801 H   0  0  0  0  0  0  0  0  0  0  0  0
  -48.1361   -3.6505   18.5171 H   0  0  0  0  0  0  0  0  0  0  0  0
  -47.1291   -5.5115   18.1171 H   0  0  0  0  0  0  0  0  0  0  0  0
  -51.2411   -5.5625   18.2161 H   0  0  0  0  0  0  0  0  0  0  0  0
  -51.2261   -7.9075   17.8521 H   0  0  0  0  0  0  0  0  0  0  0  0
  1 13  1  0
  1 21  1  0
  2 22  1  0
  3 18  1  0
  3 23  1  0
  5 25  1  0
 11 30  1  0
 12 32  1  0
 13 14  1  0
 13 22  1  0
 14  4  1  0
 14 15  1  0
 15  6  1  0
 15 16  1  0
 16  7  1  0
 16 21  1  0
 17  8  1  0
 17 18  1  0
 17 19  1  0
 18  2  1  0
 19  9  1  0
 19 20  1  0
 20 10  1  0
 20 23  1  0
 21  5  1  0
 23 24  1  0
 25 26  1  0
 26 27  1  0
 27 28  2  0
 27 29  1  0
 28 30  1  0
 29 31  2  0
 30 32  2  0
 31 32  1  0
  4 43  1  0
  6 44  1  0
  7 45  1  0
  8 46  1  0
  9 47  1  0
 10 48  1  0
 11 49  1  0
 12 50  1  0
 13 33  1  0
 14 34  1  0
 15 35  1  0
 16 36  1  0
 17 37  1  0
 18 38  1  0
 19 39  1  0
 20 40  1  0
 21 41  1  0
 22 51  1  0
 22 52  1  0
 23 42  1  0
 24 53  1  0
 24 54  1  0
 24 55  1  0
 25 56  1  0
 25 57  1  0
 26 58  1  0
 26 59  1  0
 28 60  1  0
 29 61  1  0
 31 62  1  0
M  END
>  <LF dG>
-4.858

>  <LF VSscore>
-9.735

>  <LF Rank Score>
-7.494

>  <LF LE>
-0.152

>  <LF Structure Name>
C:\Users\Odara\AppData\Local\Temp\LeadFinder_12700_1\Ligand_1.sdf

>  <LF SDF id>
0

>  <LF Pose rank>
0

>  <LF version>
2001 1, 19 January 2019

>  <PUBCHEM_COMPOUND_CID>
69634125

>  <PUBCHEM_COMPOUND_CANONICALIZED>
1

>  <PUBCHEM_CACTVS_COMPLEXITY>
581

>  <PUBCHEM_CACTVS_HBOND_ACCEPTOR>
12

>  <PUBCHEM_CACTVS_HBOND_DONOR>
8

>  <PUBCHEM_CACTVS_ROTATABLE_BOND>
7

>  <PUBCHEM_CACTVS_SUBSKEYS>
AAADceB4PAAAAAAAAAAAAAAAAAAAAAAAAAA0SIAAAAAAAAABAAAAGgAACAAADBSwmAMyDoAABgCAAiBCAAACAAAgIAAIiAAGiIgZNiKCERKicAElwBEPmAfA4LwOIAABAAAAQABAAAIAAACAAAAAAAAAAA==

>  <PUBCHEM_IUPAC_OPENEYE_NAME>
(2R,3R,4R,5R,6S)-2-[[(2R,3S,4S,5R,6R)-6-[2-(3,4-dihydroxyphenyl)ethoxy]-3,4,5-trihydroxy-tetrahydropyran-2-yl]methoxy]-6-methyl-tetrahydropyran-3,4,5-triol

>  <PUBCHEM_IUPAC_CAS_NAME>
(2R,3R,4R,5R,6S)-2-[[(2R,3S,4S,5R,6R)-6-[2-(3,4-dihydroxyphenyl)ethoxy]-3,4,5-trihydroxy-2-oxanyl]methoxy]-6-methyloxane-3,4,5-triol

>  <PUBCHEM_IUPAC_NAME_MARKUP>
(2<I>R</I>,3<I>R</I>,4<I>R</I>,5<I>R</I>,6<I>S</I>)-2-[[(2<I>R</I>,3<I>S</I>,4<I>S</I>,5<I>R</I>,6<I>R</I>)-6-[2-(3,4-dihydroxyphenyl)ethoxy]-3,4,5-trihydroxyoxan-2-yl]methoxy]-6-methyloxane-3,4,5-tri

>  <PUBCHEM_IUPAC_NAME>
(2R,3R,4R,5R,6S)-2-[[(2R,3S,4S,5R,6R)-6-[2-(3,4-dihydroxyphenyl)ethoxy]-3,4,5-trihydroxyoxan-2-yl]methoxy]-6-methyloxane-3,4,5-triol

>  <PUBCHEM_IUPAC_SYSTEMATIC_NAME>
(2R,3R,4R,5R,6S)-2-[[(2R,3S,4S,5R,6R)-6-[2-[3,4-bis(oxidanyl)phenyl]ethoxy]-3,4,5-tris(oxidanyl)oxan-2-yl]methoxy]-6-methyl-oxane-3,4,5-triol

>  <PUBCHEM_IUPAC_TRADITIONAL_NAME>
(2R,3R,4R,5R,6S)-2-[[(2R,3S,4S,5R,6R)-6-[2-(3,4-dihydroxyphenyl)ethoxy]-3,4,5-trihydroxy-tetrahydropyran-2-yl]methoxy]-6-methyl-tetrahydropyran-3,4,5-triol

>  <PUBCHEM_IUPAC_INCHI>
InChI=1S/C20H30O12/c1-8-13(23)15(25)17(27)20(31-8)30-7-12-14(24)16(26)18(28)19(32-12)29-5-4-9-2-3-10(21)11(22)6-9/h2-3,6,8,12-28H,4-5,7H2,1H3/t8-,12+,13-,14+,15+,16-,17+,18+,19+,20+/m0/s1

>  <PUBCHEM_IUPAC_INCHIKEY>
QIMGUQIHCNDUKU-OJJLXHDHSA-N

>  <PUBCHEM_XLOGP3_AA>
-2.5

>  <PUBCHEM_EXACT_MASS>
462.173726

>  <PUBCHEM_MOLECULAR_FORMULA>
C20H30O12

>  <PUBCHEM_MOLECULAR_WEIGHT>
462.4

>  <PUBCHEM_OPENEYE_CAN_SMILES>
CC1C(C(C(C(O1)OCC2C(C(C(C(O2)OCCC3=CC(=C(C=C3)O)O)O)O)O)O)O)O

>  <PUBCHEM_OPENEYE_ISO_SMILES>
C[C@H]1[C@@H]([C@H]([C@H]([C@@H](O1)OC[C@@H]2[C@H]([C@@H]([C@H]([C@@H](O2)OCCC3=CC(=C(C=C3)O)O)O)O)O)O)O)O

>  <PUBCHEM_CACTVS_TPSA>
199

>  <PUBCHEM_MONOISOTOPIC_WEIGHT>
462.173726

>  <PUBCHEM_TOTAL_CHARGE>
0

>  <PUBCHEM_HEAVY_ATOM_COUNT>
32

>  <PUBCHEM_ATOM_DEF_STEREO_COUNT>
10

>  <PUBCHEM_ATOM_UDEF_STEREO_COUNT>
0

>  <PUBCHEM_BOND_DEF_STEREO_COUNT>
0

>  <PUBCHEM_BOND_UDEF_STEREO_COUNT>
0

>  <PUBCHEM_ISOTOPIC_ATOM_COUNT>
0

>  <PUBCHEM_COMPONENT_COUNT>
1

>  <PUBCHEM_CACTVS_TAUTO_COUNT>
-1

>  <PUBCHEM_COORDINATE_TYPE>
1
5
255

>  <PUBCHEM_BONDANNOTATIONS>
20  10  5
13  22  5
18  2  5
23  24  6
27  28  8
27  29  8
28  30  8
29  31  8
30  32  8
31  32  8
14  4  6
21  5  5
15  6  5
16  7  6
17  8  6
19  9  6

>  <Preferred Pose_cresset>
true

>  <Favorite_cresset>
false

>  <MW_cresset>
462.4

>  <#Atoms_cresset>
32

>  <SlogP_cresset>
-0.4

>  <TPSA_cresset>
198.8

>  <Flexibility_cresset>
15.9

>  <#RB_cresset>
15

>  <Rof5_cresset>
2

>  <Filename_cresset>
Forsythoside E with water site 3 monomer.sdf

>  <Confs_cresset>
0

>  <Poses_cresset>
10

>  <_cresset_fieldpoints>
    -5     -50.954567      -3.900949      15.066034    -17.7380
    -5     -48.576096       1.626104      12.634521    -17.0954
    -5     -43.213943       3.530191      19.581039    -10.9016
    -5     -46.974976      -1.275460      19.738926    -16.3227
    -5     -46.570648      -3.391764      16.720009     -7.7390
    -5     -48.517448       3.937715      20.311249    -11.9784
    -5     -45.635910      -7.905525      19.247688     -7.8160
    -5     -50.016117     -10.458523      18.917534     -7.7634
    -5     -48.897217      -7.336528      20.761515     -5.1051
    -6     -46.669464      -1.790233      11.562450     13.4460
    -6     -50.470497      -1.791630      11.214296     18.0398
    -6     -46.089348       4.012383      16.678053      7.9527
    -6     -44.935078       0.961134      22.301346     14.6187
    -6     -46.989403     -10.182004      15.886862     16.3717
    -6     -43.054619      -1.652601      16.929783      3.4027
    -6     -51.238068      -1.518253      19.307283      1.8904
    -6     -53.395782      -6.553113      18.326023      1.3451
    -6     -52.225716      -3.655898      19.015818      1.9892
    -7     -45.948479       2.445708      15.436310     -3.0703
    -7     -43.587837       1.747430      15.995644     -2.1053
    -7     -50.181675       1.594721      15.106134     -2.4352
    -7     -46.508041      -2.084369      11.264927     -1.7616
    -7     -44.780750      -1.147469      11.873104     -1.6246
    -7     -48.402908       1.307814      11.146013     -1.5848
    -7     -50.375641      -1.956506      10.749744     -1.2921
    -7     -47.229198      -3.468476      11.910704     -1.8305
    -7     -51.003838      -4.884795      15.034637     -2.8186
    -7     -51.671333      -0.386102      16.848766     -2.1098
    -7     -49.328270      -3.923955      12.003887     -1.7448
    -7     -52.302933      -0.440229      13.628088     -1.5929
    -7     -52.394608      -3.479093      19.043434     -1.7772
    -7     -42.806679       1.130930      20.970291     -1.5520
    -7     -45.668758       4.495665      20.438705     -1.6127
    -7     -48.517551       3.945155      16.806442     -1.8268
    -7     -47.620358      -1.464326      20.049633     -3.5918
    -7     -49.090691      -6.920321      21.223148     -1.8186
    -7     -47.744576      -8.888411      14.862508     -1.3893
    -7     -46.948288     -10.451947      18.726068     -1.4898
    -7     -49.496338      -5.786302      14.854017     -2.9175
    -7     -46.053024      -3.730370      16.742493     -3.7206
    -7     -42.765442      -1.760856      17.061943     -1.5684
    -7     -51.105965      -1.439953      19.720577     -1.8093
    -8     -48.252525      -1.368141      14.162693      5.2141
    -8     -46.326790      -0.752381      14.342506      4.0105
    -8     -46.146172       1.120387      18.406199      4.7618
    -8     -48.211357       1.374280      18.628628      4.5153
    -8     -49.204659      -6.656220      17.991169      6.9171

$$$$
Site3m_Lopinavir_D
  xed2sdf_05210316543D
 
 94 97  0  0  1  0  0  0  0  0999 V2000
  -47.9777   -2.7704   12.9473 O   0  0  0  0  0  0  0  0  0  0  0  0
  -52.7617   -0.3564   15.1203 O   0  0  0  0  0  0  0  0  0  0  0  0
  -51.8467   -1.8074   18.2103 O   0  0  0  0  0  0  0  0  0  0  0  0
  -45.1667   -1.9754   15.2023 O   0  0  0  0  0  0  0  0  0  0  0  0
  -43.9447   -0.1484   16.7943 O   0  0  0  0  0  0  0  0  0  0  0  0
  -50.7807    0.1666   17.9483 N   0  0  0  0  0  0  0  0  0  0  0  0
  -50.5987    0.3446   15.1033 N   0  0  0  0  0  0  0  0  0  0  0  0
  -47.2147   -1.3024   15.9493 N   0  0  0  0  0  0  0  0  0  0  0  0
  -49.9377   -1.5284   19.3383 N   0  0  0  0  0  0  0  0  0  0  0  0
  -50.3307   -0.2344   13.7783 C   0  0  0  0  0  0  0  0  0  0  0  0
  -51.8667    0.6906   17.0963 C   0  0  0  0  0  0  0  0  0  0  0  0
  -49.9407   -1.7194   13.9283 C   0  0  0  0  0  0  0  0  0  0  0  0
  -48.4067   -1.8754   13.9853 C   0  0  0  0  0  0  0  0  0  0  0  0
  -52.0027    2.2336   17.0503 C   0  0  0  0  0  0  0  0  0  0  0  0
  -47.9297   -2.4324   15.3403 C   0  0  0  0  0  0  0  0  0  0  0  0
  -49.2047    0.5706   13.0983 C   0  0  0  0  0  0  0  0  0  0  0  0
  -51.8057    0.1726   15.6703 C   0  0  0  0  0  0  0  0  0  0  0  0
  -49.6167    1.0316   18.2173 C   0  0  0  0  0  0  0  0  0  0  0  0
  -48.3757    0.1966   18.5473 C   0  0  0  0  0  0  0  0  0  0  0  0
  -49.1127   -2.8634   16.2393 C   0  0  0  0  0  0  0  0  0  0  0  0
  -50.8897   -1.0764   18.4873 C   0  0  0  0  0  0  0  0  0  0  0  0
  -52.9447    2.7026   15.9273 C   0  0  0  0  0  0  0  0  0  0  0  0
  -52.5027    2.8326   18.3763 C   0  0  0  0  0  0  0  0  0  0  0  0
  -48.7687   -0.7164   19.7113 C   0  0  0  0  0  0  0  0  0  0  0  0
  -49.6417    1.8896   12.4803 C   0  0  0  0  0  0  0  0  0  0  0  0
  -49.1837   -4.3154   16.6953 C   0  0  0  0  0  0  0  0  0  0  0  0
  -45.8837   -1.1954   15.8143 C   0  0  0  0  0  0  0  0  0  0  0  0
  -50.9297    2.3486   12.6513 C   0  0  0  0  0  0  0  0  0  0  0  0
  -48.7477    2.6336   11.7433 C   0  0  0  0  0  0  0  0  0  0  0  0
  -48.0287   -4.8854   17.1833 C   0  0  0  0  0  0  0  0  0  0  0  0
  -50.3357   -5.0714   16.6443 C   0  0  0  0  0  0  0  0  0  0  0  0
  -45.3497    0.0246   16.5223 C   0  0  0  0  0  0  0  0  0  0  0  0
  -51.3207    3.5426   12.0873 C   0  0  0  0  0  0  0  0  0  0  0  0
  -49.1367    3.8286   11.1813 C   0  0  0  0  0  0  0  0  0  0  0  0
  -50.4237    4.2826   11.3523 C   0  0  0  0  0  0  0  0  0  0  0  0
  -48.0217   -6.1924   17.6123 C   0  0  0  0  0  0  0  0  0  0  0  0
  -50.3317   -6.3794   17.0703 C   0  0  0  0  0  0  0  0  0  0  0  0
  -49.1737   -6.9414   17.5563 C   0  0  0  0  0  0  0  0  0  0  0  0
  -43.5877   -0.2384   18.0813 C   0  0  0  0  0  0  0  0  0  0  0  0
  -43.4597    0.9096   18.8543 C   0  0  0  0  0  0  0  0  0  0  0  0
  -43.3527   -1.4784   18.6633 C   0  0  0  0  0  0  0  0  0  0  0  0
  -43.0907    0.8116   20.1753 C   0  0  0  0  0  0  0  0  0  0  0  0
  -42.9837   -1.5574   19.9853 C   0  0  0  0  0  0  0  0  0  0  0  0
  -43.7047    2.3066   18.3053 C   0  0  0  0  0  0  0  0  0  0  0  0
  -43.4737   -2.7914   17.9043 C   0  0  0  0  0  0  0  0  0  0  0  0
  -42.8517   -0.4184   20.7433 C   0  0  0  0  0  0  0  0  0  0  0  0
  -51.1507   -0.1854   13.2073 H   0  0  0  0  0  0  0  0  0  0  0  0
  -52.6797    0.3376   17.5593 H   0  0  0  0  0  0  0  0  0  0  0  0
  -48.0077   -0.9674   13.8613 H   0  0  0  0  0  0  0  0  0  0  0  0
  -47.3657   -3.2504   15.2303 H   0  0  0  0  0  0  0  0  0  0  0  0
  -48.1617   -2.3884   12.0343 H   0  0  0  0  0  0  0  0  0  0  0  0
  -49.9587    0.7816   15.5193 H   0  0  0  0  0  0  0  0  0  0  0  0
  -47.6657   -0.6914   16.3953 H   0  0  0  0  0  0  0  0  0  0  0  0
  -50.0307   -2.3284   19.6923 H   0  0  0  0  0  0  0  0  0  0  0  0
  -50.2967   -2.2344   13.1483 H   0  0  0  0  0  0  0  0  0  0  0  0
  -50.3307   -2.0704   14.7793 H   0  0  0  0  0  0  0  0  0  0  0  0
  -51.0757    2.5636   16.8733 H   0  0  0  0  0  0  0  0  0  0  0  0
  -48.8077    0.0026   12.3773 H   0  0  0  0  0  0  0  0  0  0  0  0
  -48.5527    0.8026   13.8203 H   0  0  0  0  0  0  0  0  0  0  0  0
  -49.8247    1.6316   18.9903 H   0  0  0  0  0  0  0  0  0  0  0  0
  -49.4257    1.5726   17.3983 H   0  0  0  0  0  0  0  0  0  0  0  0
  -47.6157    0.7906   18.8113 H   0  0  0  0  0  0  0  0  0  0  0  0
  -48.0747   -0.3354   17.7563 H   0  0  0  0  0  0  0  0  0  0  0  0
  -49.9547   -2.6664   15.7363 H   0  0  0  0  0  0  0  0  0  0  0  0
  -48.9797   -2.3474   17.0853 H   0  0  0  0  0  0  0  0  0  0  0  0
  -53.6567    3.2836   16.3213 H   0  0  0  0  0  0  0  0  0  0  0  0
  -52.4267    3.2196   15.2463 H   0  0  0  0  0  0  0  0  0  0  0  0
  -53.3617    1.9086   15.4853 H   0  0  0  0  0  0  0  0  0  0  0  0
  -53.3187    3.3836   18.1983 H   0  0  0  0  0  0  0  0  0  0  0  0
  -52.7257    2.0976   19.0163 H   0  0  0  0  0  0  0  0  0  0  0  0
  -51.7887    3.4076   18.7763 H   0  0  0  0  0  0  0  0  0  0  0  0
  -48.0037   -1.3194   19.9373 H   0  0  0  0  0  0  0  0  0  0  0  0
  -48.9977   -0.1544   20.5063 H   0  0  0  0  0  0  0  0  0  0  0  0
  -51.5837    1.8136   13.1863 H   0  0  0  0  0  0  0  0  0  0  0  0
  -47.8117    2.3046   11.6163 H   0  0  0  0  0  0  0  0  0  0  0  0
  -47.1887   -4.3434   17.2263 H   0  0  0  0  0  0  0  0  0  0  0  0
  -51.1807   -4.6654   16.2943 H   0  0  0  0  0  0  0  0  0  0  0  0
  -45.4807    0.8306   15.9463 H   0  0  0  0  0  0  0  0  0  0  0  0
  -45.8407    0.1486   17.3843 H   0  0  0  0  0  0  0  0  0  0  0  0
  -52.2567    3.8716   12.2123 H   0  0  0  0  0  0  0  0  0  0  0  0
  -48.4827    4.3666   10.6483 H   0  0  0  0  0  0  0  0  0  0  0  0
  -50.7067    5.1496   10.9433 H   0  0  0  0  0  0  0  0  0  0  0  0
  -47.1787   -6.5984   17.9653 H   0  0  0  0  0  0  0  0  0  0  0  0
  -51.1707   -6.9224   17.0283 H   0  0  0  0  0  0  0  0  0  0  0  0
  -49.1697   -7.8924   17.8663 H   0  0  0  0  0  0  0  0  0  0  0  0
  -42.9947    1.6396   20.7273 H   0  0  0  0  0  0  0  0  0  0  0  0
  -42.8117   -2.4514   20.3993 H   0  0  0  0  0  0  0  0  0  0  0  0
  -43.5497    2.9746   19.0333 H   0  0  0  0  0  0  0  0  0  0  0  0
  -43.0787    2.4846   17.5453 H   0  0  0  0  0  0  0  0  0  0  0  0
  -44.6457    2.3786   17.9753 H   0  0  0  0  0  0  0  0  0  0  0  0
  -43.2547   -3.5454   18.5233 H   0  0  0  0  0  0  0  0  0  0  0  0
  -44.4077   -2.8974   17.5613 H   0  0  0  0  0  0  0  0  0  0  0  0
  -42.8397   -2.7934   17.1313 H   0  0  0  0  0  0  0  0  0  0  0  0
  -42.5827   -0.4824   21.7043 H   0  0  0  0  0  0  0  0  0  0  0  0
  2 17  2  0
  3 21  2  0
  4 27  2  0
  5 32  1  0
  5 39  1  0
  6 11  1  0
  6 18  1  0
  6 21  1  0
  7 17  1  0
  8 27  1  0
  9 21  1  0
  9 24  1  0
 10  7  1  0
 10 12  1  0
 10 16  1  0
 11 14  1  0
 11 17  1  0
 12 13  1  0
 13  1  1  0
 13 15  1  0
 14 22  1  0
 14 23  1  0
 15  8  1  0
 15 20  1  0
 16 25  1  0
 18 19  1  0
 19 24  1  0
 20 26  1  0
 25 28  2  0
 25 29  1  0
 26 30  2  0
 26 31  1  0
 27 32  1  0
 28 33  1  0
 29 34  2  0
 30 36  1  0
 31 37  2  0
 33 35  2  0
 34 35  1  0
 36 38  2  0
 37 38  1  0
 39 40  2  0
 39 41  1  0
 40 42  1  0
 40 44  1  0
 41 43  2  0
 41 45  1  0
 42 46  2  0
 43 46  1  0
  1 51  1  0
  7 52  1  0
  8 53  1  0
  9 54  1  0
 10 47  1  0
 11 48  1  0
 12 55  1  0
 12 56  1  0
 13 49  1  0
 14 57  1  0
 15 50  1  0
 16 58  1  0
 16 59  1  0
 18 60  1  0
 18 61  1  0
 19 62  1  0
 19 63  1  0
 20 64  1  0
 20 65  1  0
 22 66  1  0
 22 67  1  0
 22 68  1  0
 23 69  1  0
 23 70  1  0
 23 71  1  0
 24 72  1  0
 24 73  1  0
 28 74  1  0
 29 75  1  0
 30 76  1  0
 31 77  1  0
 32 78  1  0
 32 79  1  0
 33 80  1  0
 34 81  1  0
 35 82  1  0
 36 83  1  0
 37 84  1  0
 38 85  1  0
 42 86  1  0
 43 87  1  0
 44 88  1  0
 44 89  1  0
 44 90  1  0
 45 91  1  0
 45 92  1  0
 45 93  1  0
 46 94  1  0
M  END
>  <LF dG>
-5.178

>  <LF VSscore>
-8.035

>  <LF Rank Score>
-8.458

>  <LF LE>
-0.113

>  <LF Structure Name>
C:\Users\Odara\AppData\Local\Temp\LeadFinder_5296_1\Ligand_1.sdf

>  <LF SDF id>
0

>  <LF Pose rank>
0

>  <LF version>
2001 1, 19 January 2019

>  <PUBCHEM_COMPOUND_CID>
92727

>  <PUBCHEM_COMPOUND_CANONICALIZED>
1

>  <PUBCHEM_CACTVS_COMPLEXITY>
940

>  <PUBCHEM_CACTVS_HBOND_ACCEPTOR>
5

>  <PUBCHEM_CACTVS_HBOND_DONOR>
4

>  <PUBCHEM_CACTVS_ROTATABLE_BOND>
15

>  <PUBCHEM_CACTVS_SUBSKEYS>
AAADcfB/uAAAAAAAAAAAAAAAAAAAAAAAAAA8YMEAAAAAAAABUAAAHgAQCAAADTzhmAYzBoPABgCIAiFSEAICCAAgIAAIiIHMCIiOdjKE8T+XeCCu1hOYqAeQwPAOAAACAAAIAAAAAAQAABAAAAAAAAAAAA==

>  <PUBCHEM_IUPAC_OPENEYE_NAME>
(2S)-N-[(1S,3S,4S)-1-benzyl-4-[[2-(2,6-dimethylphenoxy)acetyl]amino]-3-hydroxy-5-phenyl-pentyl]-3-methyl-2-(2-oxohexahydropyrimidin-1-yl)butanamide

>  <PUBCHEM_IUPAC_CAS_NAME>
(2S)-N-[(2S,4S,5S)-5-[[2-(2,6-dimethylphenoxy)-1-oxoethyl]amino]-4-hydroxy-1,6-diphenylhexan-2-yl]-3-methyl-2-(2-oxo-1,3-diazinan-1-yl)butanamide

>  <PUBCHEM_IUPAC_NAME_MARKUP>
(2<I>S</I>)-<I>N</I>-[(2<I>S</I>,4<I>S</I>,5<I>S</I>)-5-[[2-(2,6-dimethylphenoxy)acetyl]amino]-4-hydroxy-1,6-diphenylhexan-2-yl]-3-methyl-2-(2-oxo-1,3-diazinan-1-yl)butanamide

>  <PUBCHEM_IUPAC_NAME>
(2S)-N-[(2S,4S,5S)-5-[[2-(2,6-dimethylphenoxy)acetyl]amino]-4-hydroxy-1,6-diphenylhexan-2-yl]-3-methyl-2-(2-oxo-1,3-diazinan-1-yl)butanamide

>  <PUBCHEM_IUPAC_SYSTEMATIC_NAME>
(2S)-N-[(2S,4S,5S)-5-[2-(2,6-dimethylphenoxy)ethanoylamino]-4-oxidanyl-1,6-diphenyl-hexan-2-yl]-3-methyl-2-(2-oxidanylidene-1,3-diazinan-1-yl)butanamide

>  <PUBCHEM_IUPAC_TRADITIONAL_NAME>
(2S)-N-[(1S,3S,4S)-1-benzyl-4-[[2-(2,6-dimethylphenoxy)acetyl]amino]-3-hydroxy-5-phenyl-pentyl]-2-(2-ketohexahydropyrimidin-1-yl)-3-methyl-butyramide

>  <PUBCHEM_IUPAC_INCHI>
InChI=1S/C37H48N4O5/c1-25(2)34(41-20-12-19-38-37(41)45)36(44)39-30(21-28-15-7-5-8-16-28)23-32(42)31(22-29-17-9-6-10-18-29)40-33(43)24-46-35-26(3)13-11-14-27(35)4/h5-11,13-18,25,30-32,34,42H,12,19-24H2

>  <PUBCHEM_IUPAC_INCHIKEY>
KJHKTHWMRKYKJE-SUGCFTRWSA-N

>  <PUBCHEM_XLOGP3_AA>
5.9

>  <PUBCHEM_EXACT_MASS>
628.362471

>  <PUBCHEM_MOLECULAR_FORMULA>
C37H48N4O5

>  <PUBCHEM_MOLECULAR_WEIGHT>
628.8

>  <PUBCHEM_OPENEYE_CAN_SMILES>
CC1=C(C(=CC=C1)C)OCC(=O)NC(CC2=CC=CC=C2)C(CC(CC3=CC=CC=C3)NC(=O)C(C(C)C)N4CCCNC4=O)O

>  <PUBCHEM_OPENEYE_ISO_SMILES>
CC1=C(C(=CC=C1)C)OCC(=O)N[C@@H](CC2=CC=CC=C2)[C@H](C[C@H](CC3=CC=CC=C3)NC(=O)[C@H](C(C)C)N4CCCNC4=O)O

>  <PUBCHEM_CACTVS_TPSA>
120

>  <PUBCHEM_MONOISOTOPIC_WEIGHT>
628.362471

>  <PUBCHEM_TOTAL_CHARGE>
0

>  <PUBCHEM_HEAVY_ATOM_COUNT>
46

>  <PUBCHEM_ATOM_DEF_STEREO_COUNT>
4

>  <PUBCHEM_ATOM_UDEF_STEREO_COUNT>
0

>  <PUBCHEM_BOND_DEF_STEREO_COUNT>
0

>  <PUBCHEM_BOND_UDEF_STEREO_COUNT>
0

>  <PUBCHEM_ISOTOPIC_ATOM_COUNT>
0

>  <PUBCHEM_COMPONENT_COUNT>
1

>  <PUBCHEM_CACTVS_TAUTO_COUNT>
-1

>  <PUBCHEM_COORDINATE_TYPE>
1
5
255

>  <PUBCHEM_BONDANNOTATIONS>
13  1  6
11  17  5
25  28  8
25  29  8
26  30  8
26  31  8
28  33  8
29  34  8
30  36  8
31  37  8
33  35  8
34  35  8
36  38  8
37  38  8
39  40  8
39  41  8
40  42  8
41  43  8
42  46  8
43  46  8
10  7  6
15  8  5

>  <Preferred Pose_cresset>
true

>  <Favorite_cresset>
false

>  <MW_cresset>
628.8

>  <#Atoms_cresset>
46

>  <SlogP_cresset>
4.7

>  <TPSA_cresset>
120

>  <Flexibility_cresset>
16.1

>  <#RB_cresset>
16

>  <Rof5_cresset>
1

>  <Filename_cresset>
lopinavir no water site 3 monomer.sdf

>  <Confs_cresset>
0

>  <Poses_cresset>
10

>  <_cresset_fieldpoints>
    -5     -45.697212      -2.978174      13.660692    -18.7675
    -5     -53.030201      -1.907197      16.708874    -22.1171
    -5     -43.428810      -1.668189      15.001646    -19.8178
    -5     -52.620037      -3.366316      18.381550    -18.6682
    -5     -50.955986       1.841020       9.527349     -3.3441
    -5     -49.341949       4.824532      14.080921     -2.1308
    -6     -53.866455       4.503016      13.435623      2.8043
    -6     -49.002930      -3.385580      20.968369      4.8194
    -6     -45.396996      -4.986730      18.897705      2.8393
    -6     -49.195145      -1.496938      10.795458     10.7585
    -6     -46.589737       0.409959      12.088392      5.2035
    -6     -46.506042      -2.062312      18.544239      5.5966
    -6     -42.985416      -4.502294      20.806030      2.8089
    -6     -47.985741       1.193582      15.907591     17.7300
    -6     -43.678562       3.572815      21.344154      3.5343
    -7     -46.018597       0.552795      13.285107     -3.0040
    -7     -55.203323       1.053204      17.586048     -1.9513
    -7     -52.517975      -2.587092      16.098112     -3.7751
    -7     -54.930088      -0.030431      16.228865     -1.9693
    -7     -51.630852       0.584069      20.758320     -2.7688
    -7     -45.149605      -4.355247      15.565382     -2.9204
    -7     -42.852463      -1.581026      14.805260     -2.3427
    -7     -42.803501       1.604273      15.094857     -1.9353
    -7     -46.165100       0.535196      20.997917     -2.7384
    -7     -46.538841      -2.422120      18.447426     -4.5974
    -7     -53.683937       0.640795      13.221434     -2.8068
    -7     -45.941544       3.450946      10.049351     -1.0008
    -7     -50.666496      -0.790746      10.563560     -2.3382
    -7     -47.723473       2.064172      15.698092     -4.0164
    -7     -49.058208       6.759803       9.469584     -0.9684
    -7     -49.120163       3.150950      15.411959     -3.8798
    -7     -49.035622      -5.001772      13.465853     -2.9869
    -7     -51.846008      -3.965492      19.261724     -2.2954
    -7     -49.795784      -4.723243      20.167526     -2.3120
    -7     -48.161774      -3.934206      20.250252     -2.3756
    -7     -51.359482      -9.530018      17.823219     -0.9682
    -7     -46.957420      -9.151930      18.892422     -0.9702
    -7     -42.761223       1.736960      23.388735     -1.0037
    -7     -40.206940      -0.096879      18.293980     -1.9884
    -7     -45.600395      -5.407630      19.873337     -1.5173
    -7     -42.314240      -2.940385      22.983288     -1.0044
    -8     -49.127083      -2.238523      14.980713      5.8643
    -8     -49.178154      -5.621888      17.123669      7.1968
    -8     -49.299423      -0.744349      13.572067      5.9770
    -8     -48.464794      -3.667858      16.379272      5.7433
    -8     -52.489441       2.208905      17.120321      5.9353
    -8     -50.131996       1.105747      12.950689      5.7511
    -8     -48.768600       0.370147      18.957886      5.0089
    -8     -46.166840       0.017004      16.542803      2.9822
    -8     -50.033195       3.080781      11.919111      7.2003
    -8     -43.217621      -0.331049      19.445414      7.0818

$$$$
W_Site3m_Lopinavir_D
  xed2sdf_05210316543D
 
 94 97  0  0  1  0  0  0  0  0999 V2000
  -49.7684    0.2089   12.6844 O   0  0  0  0  0  0  0  0  0  0  0  0
  -51.3064   -2.1441   17.6724 O   0  0  0  0  0  0  0  0  0  0  0  0
  -48.8324    2.2429   18.4714 O   0  0  0  0  0  0  0  0  0  0  0  0
  -45.8904   -0.1521   14.5134 O   0  0  0  0  0  0  0  0  0  0  0  0
  -44.9384    0.4429   16.9484 O   0  0  0  0  0  0  0  0  0  0  0  0
  -50.5984    0.8999   18.8964 N   0  0  0  0  0  0  0  0  0  0  0  0
  -51.1284   -0.4271   16.1924 N   0  0  0  0  0  0  0  0  0  0  0  0
  -47.8983   -0.8351   15.3514 N   0  0  0  0  0  0  0  0  0  0  0  0
  -50.5124    3.1209   19.6554 N   0  0  0  0  0  0  0  0  0  0  0  0
  -51.8954   -1.1291   15.1524 C   0  0  0  0  0  0  0  0  0  0  0  0
  -49.9333   -0.2511   18.2514 C   0  0  0  0  0  0  0  0  0  0  0  0
  -50.9704   -1.4731   13.9674 C   0  0  0  0  0  0  0  0  0  0  0  0
  -49.7614   -0.5151   13.9244 C   0  0  0  0  0  0  0  0  0  0  0  0
  -49.2134   -1.2361   19.2074 C   0  0  0  0  0  0  0  0  0  0  0  0
  -48.4214   -1.2661   14.0474 C   0  0  0  0  0  0  0  0  0  0  0  0
  -53.0654   -0.2321   14.7024 C   0  0  0  0  0  0  0  0  0  0  0  0
  -50.8654   -1.0471   17.3554 C   0  0  0  0  0  0  0  0  0  0  0  0
  -51.9494    0.7109   19.4554 C   0  0  0  0  0  0  0  0  0  0  0  0
  -52.7134    2.0379   19.5064 C   0  0  0  0  0  0  0  0  0  0  0  0
  -48.6124   -2.8011   14.0284 C   0  0  0  0  0  0  0  0  0  0  0  0
  -49.9434    2.0879   18.9894 C   0  0  0  0  0  0  0  0  0  0  0  0
  -47.8904   -0.6641   19.7444 C   0  0  0  0  0  0  0  0  0  0  0  0
  -50.0804   -1.6501   20.4094 C   0  0  0  0  0  0  0  0  0  0  0  0
  -51.8334    3.0109   20.2944 C   0  0  0  0  0  0  0  0  0  0  0  0
  -52.8514    1.2579   14.9164 C   0  0  0  0  0  0  0  0  0  0  0  0
  -48.6504   -3.5421   15.3594 C   0  0  0  0  0  0  0  0  0  0  0  0
  -46.6644   -0.3181   15.4454 C   0  0  0  0  0  0  0  0  0  0  0  0
  -53.3374    1.8799   16.0464 C   0  0  0  0  0  0  0  0  0  0  0  0
  -52.1674    1.9969   13.9764 C   0  0  0  0  0  0  0  0  0  0  0  0
  -49.8054   -4.2201   15.6754 C   0  0  0  0  0  0  0  0  0  0  0  0
  -47.5934   -3.5651   16.2444 C   0  0  0  0  0  0  0  0  0  0  0  0
  -46.3214    0.0469   16.8694 C   0  0  0  0  0  0  0  0  0  0  0  0
  -53.1424    3.2289   16.2344 C   0  0  0  0  0  0  0  0  0  0  0  0
  -51.9694    3.3459   14.1634 C   0  0  0  0  0  0  0  0  0  0  0  0
  -52.4574    3.9629   15.2924 C   0  0  0  0  0  0  0  0  0  0  0  0
  -49.9084   -4.9111   16.8624 C   0  0  0  0  0  0  0  0  0  0  0  0
  -47.6924   -4.2531   17.4324 C   0  0  0  0  0  0  0  0  0  0  0  0
  -48.8514   -4.9271   17.7424 C   0  0  0  0  0  0  0  0  0  0  0  0
  -44.2374   -0.0241   17.9894 C   0  0  0  0  0  0  0  0  0  0  0  0
  -44.2304    0.6659   19.1954 C   0  0  0  0  0  0  0  0  0  0  0  0
  -43.5194   -1.2091   17.8804 C   0  0  0  0  0  0  0  0  0  0  0  0
  -43.5074    0.1829   20.2594 C   0  0  0  0  0  0  0  0  0  0  0  0
  -42.8014   -1.6771   18.9564 C   0  0  0  0  0  0  0  0  0  0  0  0
  -44.9924    1.9649   19.4074 C   0  0  0  0  0  0  0  0  0  0  0  0
  -43.4704   -2.0401   16.6084 C   0  0  0  0  0  0  0  0  0  0  0  0
  -42.7924   -0.9861   20.1444 C   0  0  0  0  0  0  0  0  0  0  0  0
  -52.2663   -1.9841   15.5144 H   0  0  0  0  0  0  0  0  0  0  0  0
  -49.2274    0.1989   17.7054 H   0  0  0  0  0  0  0  0  0  0  0  0
  -49.8454    0.1069   14.7024 H   0  0  0  0  0  0  0  0  0  0  0  0
  -47.8083   -1.0621   13.2844 H   0  0  0  0  0  0  0  0  0  0  0  0
  -50.6034    0.0219   12.1554 H   0  0  0  0  0  0  0  0  0  0  0  0
  -50.8334    0.3869   16.0344 H   0  0  0  0  0  0  0  0  0  0  0  0
  -48.4044   -0.9111   16.0694 H   0  0  0  0  0  0  0  0  0  0  0  0
  -50.0684    3.8779   19.7214 H   0  0  0  0  0  0  0  0  0  0  0  0
  -51.4844   -1.3951   13.1134 H   0  0  0  0  0  0  0  0  0  0  0  0
  -50.6343   -2.4081   14.0814 H   0  0  0  0  0  0  0  0  0  0  0  0
  -49.0294   -2.0431   18.6454 H   0  0  0  0  0  0  0  0  0  0  0  0
  -53.8824   -0.5071   15.2094 H   0  0  0  0  0  0  0  0  0  0  0  0
  -53.1534   -0.3621   13.7144 H   0  0  0  0  0  0  0  0  0  0  0  0
  -51.8744    0.3389   20.3804 H   0  0  0  0  0  0  0  0  0  0  0  0
  -52.4524    0.0779   18.8664 H   0  0  0  0  0  0  0  0  0  0  0  0
  -53.5944    1.9149   19.9644 H   0  0  0  0  0  0  0  0  0  0  0  0
  -52.9024    2.3839   18.5874 H   0  0  0  0  0  0  0  0  0  0  0  0
  -47.8604   -3.1871   13.4934 H   0  0  0  0  0  0  0  0  0  0  0  0
  -49.5284   -2.9301   13.6504 H   0  0  0  0  0  0  0  0  0  0  0  0
  -47.9044   -0.6951   20.7434 H   0  0  0  0  0  0  0  0  0  0  0  0
  -47.1234   -1.2061   19.4004 H   0  0  0  0  0  0  0  0  0  0  0  0
  -47.7834    0.2819   19.4374 H   0  0  0  0  0  0  0  0  0  0  0  0
  -49.5824   -1.4511   21.2534 H   0  0  0  0  0  0  0  0  0  0  0  0
  -50.9404   -1.1401   20.3974 H   0  0  0  0  0  0  0  0  0  0  0  0
  -50.2814   -2.6281   20.3584 H   0  0  0  0  0  0  0  0  0  0  0  0
  -52.2674    3.9109   20.3174 H   0  0  0  0  0  0  0  0  0  0  0  0
  -51.7194    2.6689   21.2274 H   0  0  0  0  0  0  0  0  0  0  0  0
  -53.8344    1.3479   16.7324 H   0  0  0  0  0  0  0  0  0  0  0  0
  -51.8134    1.5509   13.1544 H   0  0  0  0  0  0  0  0  0  0  0  0
  -50.5764   -4.2111   15.0394 H   0  0  0  0  0  0  0  0  0  0  0  0
  -46.7484   -3.0781   16.0224 H   0  0  0  0  0  0  0  0  0  0  0  0
  -46.9024    0.8019   17.1704 H   0  0  0  0  0  0  0  0  0  0  0  0
  -46.4734   -0.7461   17.4594 H   0  0  0  0  0  0  0  0  0  0  0  0
  -53.4974    3.6769   17.0544 H   0  0  0  0  0  0  0  0  0  0  0  0
  -51.4704    3.8779   13.4794 H   0  0  0  0  0  0  0  0  0  0  0  0
  -52.3154    4.9429   15.4284 H   0  0  0  0  0  0  0  0  0  0  0  0
  -50.7514   -5.4011   17.0834 H   0  0  0  0  0  0  0  0  0  0  0  0
  -46.9224   -4.2631   18.0704 H   0  0  0  0  0  0  0  0  0  0  0  0
  -48.9244   -5.4281   18.6044 H   0  0  0  0  0  0  0  0  0  0  0  0
  -43.5014    0.6849   21.1244 H   0  0  0  0  0  0  0  0  0  0  0  0
  -42.2824   -2.5281   18.8734 H   0  0  0  0  0  0  0  0  0  0  0  0
  -44.8394    2.2829   20.3424 H   0  0  0  0  0  0  0  0  0  0  0  0
  -44.6704    2.6559   18.7594 H   0  0  0  0  0  0  0  0  0  0  0  0
  -45.9694    1.8109   19.2584 H   0  0  0  0  0  0  0  0  0  0  0  0
  -42.8913   -2.8411   16.7644 H   0  0  0  0  0  0  0  0  0  0  0  0
  -44.3934   -2.3351   16.3614 H   0  0  0  0  0  0  0  0  0  0  0  0
  -43.0934   -1.4921   15.8624 H   0  0  0  0  0  0  0  0  0  0  0  0
  -42.2674   -1.3321   20.9224 H   0  0  0  0  0  0  0  0  0  0  0  0
  2 17  2  0
  3 21  2  0
  4 27  2  0
  5 32  1  0
  5 39  1  0
  6 11  1  0
  6 18  1  0
  6 21  1  0
  7 17  1  0
  8 27  1  0
  9 21  1  0
  9 24  1  0
 10  7  1  0
 10 12  1  0
 10 16  1  0
 11 14  1  0
 11 17  1  0
 12 13  1  0
 13  1  1  0
 13 15  1  0
 14 22  1  0
 14 23  1  0
 15  8  1  0
 15 20  1  0
 16 25  1  0
 18 19  1  0
 19 24  1  0
 20 26  1  0
 25 28  2  0
 25 29  1  0
 26 30  2  0
 26 31  1  0
 27 32  1  0
 28 33  1  0
 29 34  2  0
 30 36  1  0
 31 37  2  0
 33 35  2  0
 34 35  1  0
 36 38  2  0
 37 38  1  0
 39 40  2  0
 39 41  1  0
 40 42  1  0
 40 44  1  0
 41 43  2  0
 41 45  1  0
 42 46  2  0
 43 46  1  0
  1 51  1  0
  7 52  1  0
  8 53  1  0
  9 54  1  0
 10 47  1  0
 11 48  1  0
 12 55  1  0
 12 56  1  0
 13 49  1  0
 14 57  1  0
 15 50  1  0
 16 58  1  0
 16 59  1  0
 18 60  1  0
 18 61  1  0
 19 62  1  0
 19 63  1  0
 20 64  1  0
 20 65  1  0
 22 66  1  0
 22 67  1  0
 22 68  1  0
 23 69  1  0
 23 70  1  0
 23 71  1  0
 24 72  1  0
 24 73  1  0
 28 74  1  0
 29 75  1  0
 30 76  1  0
 31 77  1  0
 32 78  1  0
 32 79  1  0
 33 80  1  0
 34 81  1  0
 35 82  1  0
 36 83  1  0
 37 84  1  0
 38 85  1  0
 42 86  1  0
 43 87  1  0
 44 88  1  0
 44 89  1  0
 44 90  1  0
 45 91  1  0
 45 92  1  0
 45 93  1  0
 46 94  1  0
M  END
>  <LF dG>
-7.05

>  <LF VSscore>
-9.284

>  <LF Rank Score>
-8.572

>  <LF LE>
-0.153

>  <LF Structure Name>
C:\Users\Odara\AppData\Local\Temp\LeadFinder_12016_1\Ligand_1.sdf

>  <LF SDF id>
0

>  <LF Pose rank>
0

>  <LF version>
2001 1, 19 January 2019

>  <PUBCHEM_COMPOUND_CID>
92727

>  <PUBCHEM_COMPOUND_CANONICALIZED>
1

>  <PUBCHEM_CACTVS_COMPLEXITY>
940

>  <PUBCHEM_CACTVS_HBOND_ACCEPTOR>
5

>  <PUBCHEM_CACTVS_HBOND_DONOR>
4

>  <PUBCHEM_CACTVS_ROTATABLE_BOND>
15

>  <PUBCHEM_CACTVS_SUBSKEYS>
AAADcfB/uAAAAAAAAAAAAAAAAAAAAAAAAAA8YMEAAAAAAAABUAAAHgAQCAAADTzhmAYzBoPABgCIAiFSEAICCAAgIAAIiIHMCIiOdjKE8T+XeCCu1hOYqAeQwPAOAAACAAAIAAAAAAQAABAAAAAAAAAAAA==

>  <PUBCHEM_IUPAC_OPENEYE_NAME>
(2S)-N-[(1S,3S,4S)-1-benzyl-4-[[2-(2,6-dimethylphenoxy)acetyl]amino]-3-hydroxy-5-phenyl-pentyl]-3-methyl-2-(2-oxohexahydropyrimidin-1-yl)butanamide

>  <PUBCHEM_IUPAC_CAS_NAME>
(2S)-N-[(2S,4S,5S)-5-[[2-(2,6-dimethylphenoxy)-1-oxoethyl]amino]-4-hydroxy-1,6-diphenylhexan-2-yl]-3-methyl-2-(2-oxo-1,3-diazinan-1-yl)butanamide

>  <PUBCHEM_IUPAC_NAME_MARKUP>
(2<I>S</I>)-<I>N</I>-[(2<I>S</I>,4<I>S</I>,5<I>S</I>)-5-[[2-(2,6-dimethylphenoxy)acetyl]amino]-4-hydroxy-1,6-diphenylhexan-2-yl]-3-methyl-2-(2-oxo-1,3-diazinan-1-yl)butanamide

>  <PUBCHEM_IUPAC_NAME>
(2S)-N-[(2S,4S,5S)-5-[[2-(2,6-dimethylphenoxy)acetyl]amino]-4-hydroxy-1,6-diphenylhexan-2-yl]-3-methyl-2-(2-oxo-1,3-diazinan-1-yl)butanamide

>  <PUBCHEM_IUPAC_SYSTEMATIC_NAME>
(2S)-N-[(2S,4S,5S)-5-[2-(2,6-dimethylphenoxy)ethanoylamino]-4-oxidanyl-1,6-diphenyl-hexan-2-yl]-3-methyl-2-(2-oxidanylidene-1,3-diazinan-1-yl)butanamide

>  <PUBCHEM_IUPAC_TRADITIONAL_NAME>
(2S)-N-[(1S,3S,4S)-1-benzyl-4-[[2-(2,6-dimethylphenoxy)acetyl]amino]-3-hydroxy-5-phenyl-pentyl]-2-(2-ketohexahydropyrimidin-1-yl)-3-methyl-butyramide

>  <PUBCHEM_IUPAC_INCHI>
InChI=1S/C37H48N4O5/c1-25(2)34(41-20-12-19-38-37(41)45)36(44)39-30(21-28-15-7-5-8-16-28)23-32(42)31(22-29-17-9-6-10-18-29)40-33(43)24-46-35-26(3)13-11-14-27(35)4/h5-11,13-18,25,30-32,34,42H,12,19-24H2

>  <PUBCHEM_IUPAC_INCHIKEY>
KJHKTHWMRKYKJE-SUGCFTRWSA-N

>  <PUBCHEM_XLOGP3_AA>
5.9

>  <PUBCHEM_EXACT_MASS>
628.362471

>  <PUBCHEM_MOLECULAR_FORMULA>
C37H48N4O5

>  <PUBCHEM_MOLECULAR_WEIGHT>
628.8

>  <PUBCHEM_OPENEYE_CAN_SMILES>
CC1=C(C(=CC=C1)C)OCC(=O)NC(CC2=CC=CC=C2)C(CC(CC3=CC=CC=C3)NC(=O)C(C(C)C)N4CCCNC4=O)O

>  <PUBCHEM_OPENEYE_ISO_SMILES>
CC1=C(C(=CC=C1)C)OCC(=O)N[C@@H](CC2=CC=CC=C2)[C@H](C[C@H](CC3=CC=CC=C3)NC(=O)[C@H](C(C)C)N4CCCNC4=O)O

>  <PUBCHEM_CACTVS_TPSA>
120

>  <PUBCHEM_MONOISOTOPIC_WEIGHT>
628.362471

>  <PUBCHEM_TOTAL_CHARGE>
0

>  <PUBCHEM_HEAVY_ATOM_COUNT>
46

>  <PUBCHEM_ATOM_DEF_STEREO_COUNT>
4

>  <PUBCHEM_ATOM_UDEF_STEREO_COUNT>
0

>  <PUBCHEM_BOND_DEF_STEREO_COUNT>
0

>  <PUBCHEM_BOND_UDEF_STEREO_COUNT>
0

>  <PUBCHEM_ISOTOPIC_ATOM_COUNT>
0

>  <PUBCHEM_COMPONENT_COUNT>
1

>  <PUBCHEM_CACTVS_TAUTO_COUNT>
-1

>  <PUBCHEM_COORDINATE_TYPE>
1
5
255

>  <PUBCHEM_BONDANNOTATIONS>
13  1  6
11  17  5
25  28  8
25  29  8
26  30  8
26  31  8
28  33  8
29  34  8
30  36  8
31  37  8
33  35  8
34  35  8
36  38  8
37  38  8
39  40  8
39  41  8
40  42  8
41  43  8
42  46  8
43  46  8
10  7  6
15  8  5

>  <Preferred Pose_cresset>
true

>  <Favorite_cresset>
false

>  <MW_cresset>
628.8

>  <#Atoms_cresset>
46

>  <SlogP_cresset>
4.7

>  <TPSA_cresset>
120

>  <Flexibility_cresset>
16.1

>  <#RB_cresset>
16

>  <Rof5_cresset>
1

>  <Filename_cresset>
lopinavir with water site 3 monomer.sdf

>  <Confs_cresset>
0

>  <Poses_cresset>
10

>  <_cresset_fieldpoints>
    -5     -48.249233       1.365417      12.546134    -14.2137
    -5     -44.328285       0.659249      14.770908    -21.8339
    -5     -51.788898      -3.517937      18.725412    -14.5481
    -5     -47.669113       3.492856      18.022995    -16.3700
    -5     -55.082932       3.250884      13.772373     -3.3002
    -5     -45.310246      -2.359530      20.681702     -2.4662
    -5     -47.712265      -6.550888      15.311279     -4.0166
    -6     -54.849876       0.466570      18.307446      5.6286
    -6     -50.288811       5.652307      20.423367      5.3462
    -6     -53.201614       1.073978      22.251194      5.0149
    -6     -52.152710      -3.980932      13.552896      6.3973
    -6     -45.921661      -3.298586      19.597815      2.9184
    -6     -44.790195      -4.388626      18.247778      2.9142
    -6     -43.939560       2.020610      22.673849      2.4542
    -6     -48.362659      -0.776629      23.198463      1.2882
    -6     -52.342373      -0.085254      11.559204     12.8689
    -6     -54.266808       4.415341      18.915855      5.5333
    -6     -41.715424      -4.445332      18.225498      2.5928
    -7     -49.659435      -1.860456      10.991982     -2.2671
    -7     -43.684620       0.720389      14.604460     -2.3570
    -7     -52.971539      -3.639700      17.274496     -2.5120
    -7     -53.006531      -2.451362      19.132843     -2.6836
    -7     -47.139782       3.282143      17.282982     -2.3961
    -7     -47.975731       2.318375      21.034332     -2.8615
    -7     -45.314072      -2.462302      13.942671     -3.3422
    -7     -51.329163       5.312060      18.080238     -2.2846
    -7     -52.765388      -4.129827      13.984681     -2.2660
    -7     -51.481522      -4.435765      12.734439     -2.1869
    -7     -52.634567       0.080456      11.263062     -2.3025
    -7     -54.588036       4.625771      19.004761     -1.8243
    -7     -55.727722       2.257591      18.318871     -1.8356
    -7     -53.813850      -1.554481      17.681107     -3.1525
    -7     -47.558899      -6.720744      14.834337     -1.8531
    -7     -47.445816      -3.696855      20.683701     -2.6042
    -7     -45.626717      -3.103796      19.760294     -3.3967
    -7     -46.205528       0.703089      22.171030     -2.2082
    -7     -44.590363      -4.401811      18.616009     -2.4038
    -7     -55.472275       2.940364      13.525160     -1.8394
    -7     -49.106949       2.098467      16.032829     -4.9295
    -7     -52.182800      -3.744938      18.977219     -2.6082
    -7     -49.522934       1.259737      21.759335     -3.3853
    -7     -45.516392       3.066835      16.286716     -2.0589
    -7     -41.100006       1.252335      17.858318     -1.9895
    -8     -49.586227      -1.817267      14.072632      5.9753
    -8     -48.750603      -4.223593      16.553560      7.2356
    -8     -49.127121      -1.045973      19.695004      5.8343
    -8     -51.999260      -0.760176      14.245146      5.4193
    -8     -52.352913       1.840842      19.962963      4.9877
    -8     -50.875900      -1.153848      14.277903      5.1569
    -8     -52.649261       2.603134      15.108293      7.2179
    -8     -48.731934      -3.533342      15.332037      5.7700
    -8     -47.112717      -0.292096      16.938326      3.0868
    -8     -43.505737      -0.520981      19.094933      7.0919
    -8     -44.220741       0.707122      19.365635      5.4989

$$$$
W_Site3m_DAR_D
  xed2sdf_05210316543D
 
 82 86  0  0  1  0  0  0  0  0999 V2000
  -56.0001   -3.1671    7.7951 O   0  0  0  0  0  0  0  0  0  0  0  0
  -56.1551   -2.0021    8.1191 C   0  0  0  0  0  0  0  0  0  0  0  0
  -56.5051   -0.9341    7.1091 C   0  0  0  0  0  0  0  0  0  0  0  0
  -55.8481    0.4009    7.4611 C   0  0  0  0  0  0  0  0  0  0  0  0
  -56.3751    0.7699    8.8501 C   0  0  0  0  0  0  0  0  0  0  0  0
  -55.7921    2.0689    9.2191 N   0  0  0  0  0  0  0  0  0  0  0  0
  -54.5151    2.2269    9.9371 C   0  0  0  0  0  0  0  0  0  0  0  0
  -54.2431    3.6519    9.4251 C   0  0  0  0  0  0  0  0  0  0  0  0
  -53.2181    4.5579   10.0671 C   0  0  0  0  0  0  0  0  0  0  0  0
  -52.2861    3.8889   10.7991 N   0  0  0  0  0  0  0  0  0  0  0  0
  -52.3011    3.9929   12.2611 C   0  0  0  0  0  0  0  0  0  0  0  0
  -52.4631    2.5379   12.7261 C   0  0  0  0  0  0  0  0  0  0  0  0
  -51.6131    2.2729   13.9791 C   0  0  0  0  0  0  0  0  0  0  0  0
  -51.4811    0.7619   14.2501 C   0  0  0  0  0  0  0  0  0  0  0  0
  -50.0251    0.3529   14.5471 C   0  0  0  0  0  0  0  0  0  0  0  0
  -49.6991   -0.9911   13.8761 C   0  0  0  0  0  0  0  0  0  0  0  0
  -49.5361   -2.0211   14.9131 N   0  0  0  0  0  0  0  0  0  0  0  0
  -49.7041   -3.3251   14.6141 C   0  0  0  0  0  0  0  0  0  0  0  0
  -50.0601   -3.7431   13.5141 O   0  0  0  0  0  0  0  0  0  0  0  0
  -49.4781   -4.3311   15.6781 C   0  0  0  0  0  0  0  0  0  0  0  0
  -50.4611   -5.2591   15.9501 C   0  0  0  0  0  0  0  0  0  0  0  0
  -50.2771   -6.1791   16.9491 C   0  0  0  0  0  0  0  0  0  0  0  0
  -49.1651   -6.2491   17.7071 N   0  0  0  0  0  0  0  0  0  0  0  0
  -48.2091   -5.3481   17.4211 C   0  0  0  0  0  0  0  0  0  0  0  0
  -48.3111   -4.3851   16.4311 C   0  0  0  0  0  0  0  0  0  0  0  0
  -47.2471   -3.5111   16.1651 N   0  0  0  0  0  0  0  0  0  0  0  0
  -46.7281   -2.5861   16.9981 C   0  0  0  0  0  0  0  0  0  0  0  0
  -47.2211   -2.2641   18.0691 O   0  0  0  0  0  0  0  0  0  0  0  0
  -45.4511   -1.9881   16.4361 C   0  0  0  0  0  0  0  0  0  0  0  0
  -44.4481   -1.3431   17.3821 C   0  0  0  0  0  0  0  0  0  0  0  0
  -43.5321   -2.0531   18.1291 C   0  0  0  0  0  0  0  0  0  0  0  0
  -42.6541   -1.3991   18.9621 C   0  0  0  0  0  0  0  0  0  0  0  0
  -42.6821   -0.0281   19.0521 C   0  0  0  0  0  0  0  0  0  0  0  0
  -43.5881    0.6889   18.3031 C   0  0  0  0  0  0  0  0  0  0  0  0
  -43.6211    2.4249   18.4071 Cl  0  0  0  0  0  0  0  0  0  0  0  0
  -44.4671    0.0309   17.4721 C   0  0  0  0  0  0  0  0  0  0  0  0
  -53.3021    5.8849    9.8821 C   0  0  0  0  0  0  0  0  0  0  0  0
  -54.3981    6.4339    9.0821 C   0  0  0  0  0  0  0  0  0  0  0  0
  -55.4981    5.7059    8.8931 C   0  0  0  0  0  0  0  0  0  0  0  0
  -55.6151    4.3289    9.4931 C   0  0  0  0  0  0  0  0  0  0  0  0
  -56.4141    3.2099    8.8911 C   0  0  0  0  0  0  0  0  0  0  0  0
  -57.4421    3.3239    8.2381 O   0  0  0  0  0  0  0  0  0  0  0  0
  -56.1051   -0.3111    9.8791 C   0  0  0  0  0  0  0  0  0  0  0  0
  -55.9641   -0.0501   11.0621 O   0  0  0  0  0  0  0  0  0  0  0  0
  -56.0291   -1.5711    9.3951 N   0  0  0  0  0  0  0  0  0  0  0  0
  -57.4981   -0.8161    7.0891 H   0  0  0  0  0  0  0  0  0  0  0  0
  -56.1681   -1.2241    6.2131 H   0  0  0  0  0  0  0  0  0  0  0  0
  -56.0981    1.1019    6.7931 H   0  0  0  0  0  0  0  0  0  0  0  0
  -54.8501    0.3339    7.4521 H   0  0  0  0  0  0  0  0  0  0  0  0
  -57.3721    0.8469    8.8271 H   0  0  0  0  0  0  0  0  0  0  0  0
  -53.8201    1.5669    9.6491 H   0  0  0  0  0  0  0  0  0  0  0  0
  -54.5191    2.0839   10.9271 H   0  0  0  0  0  0  0  0  0  0  0  0
  -53.8061    3.5249    8.5341 H   0  0  0  0  0  0  0  0  0  0  0  0
  -51.5401    3.6379   10.4031 H   0  0  0  0  0  0  0  0  0  0  0  0
  -53.0661    4.5569   12.5721 H   0  0  0  0  0  0  0  0  0  0  0  0
  -51.4791    4.4279   12.6281 H   0  0  0  0  0  0  0  0  0  0  0  0
  -52.1731    1.9229   11.9921 H   0  0  0  0  0  0  0  0  0  0  0  0
  -53.4241    2.3749   12.9491 H   0  0  0  0  0  0  0  0  0  0  0  0
  -52.0441    2.7129   14.7661 H   0  0  0  0  0  0  0  0  0  0  0  0
  -50.6991    2.6479   13.8271 H   0  0  0  0  0  0  0  0  0  0  0  0
  -51.8031    0.2599   13.4471 H   0  0  0  0  0  0  0  0  0  0  0  0
  -52.0321    0.5439   15.0551 H   0  0  0  0  0  0  0  0  0  0  0  0
  -49.9001    0.2699   15.5361 H   0  0  0  0  0  0  0  0  0  0  0  0
  -49.4101    1.0539   14.1851 H   0  0  0  0  0  0  0  0  0  0  0  0
  -48.8531   -0.9071   13.3481 H   0  0  0  0  0  0  0  0  0  0  0  0
  -50.4441   -1.2491   13.2601 H   0  0  0  0  0  0  0  0  0  0  0  0
  -49.3201   -1.7811   15.7331 H   0  0  0  0  0  0  0  0  0  0  0  0
  -51.3081   -5.2601   15.4181 H   0  0  0  0  0  0  0  0  0  0  0  0
  -51.0091   -6.8371   17.1241 H   0  0  0  0  0  0  0  0  0  0  0  0
  -47.3671   -5.3751   17.9591 H   0  0  0  0  0  0  0  0  0  0  0  0
  -46.8671   -3.5891   15.3741 H   0  0  0  0  0  0  0  0  0  0  0  0
  -45.7231   -1.2891   15.7741 H   0  0  0  0  0  0  0  0  0  0  0  0
  -44.9581   -2.7811   16.0771 H   0  0  0  0  0  0  0  0  0  0  0  0
  -43.5061   -3.0511   18.0641 H   0  0  0  0  0  0  0  0  0  0  0  0
  -41.9951   -1.9231   19.5031 H   0  0  0  0  0  0  0  0  0  0  0  0
  -42.0451    0.4479   19.6591 H   0  0  0  0  0  0  0  0  0  0  0  0
  -45.1231    0.5549   16.9301 H   0  0  0  0  0  0  0  0  0  0  0  0
  -52.6211    6.4939   10.2871 H   0  0  0  0  0  0  0  0  0  0  0  0
  -54.3221    7.3469    8.6821 H   0  0  0  0  0  0  0  0  0  0  0  0
  -56.2521    6.0769    8.3491 H   0  0  0  0  0  0  0  0  0  0  0  0
  -56.0591    4.6049   10.3451 H   0  0  0  0  0  0  0  0  0  0  0  0
  -55.8661   -2.1971    9.9921 H   0  0  0  0  0  0  0  0  0  0  0  0
  1  2  2  0
  2  3  1  0
  2 45  1  0
  3  4  1  0
  4  5  1  0
  5  6  1  0
  5 43  1  0
  6  7  1  0
  6 41  1  0
  7  8  1  0
  8  9  1  0
  8 40  1  0
  9 10  1  0
  9 37  2  0
 10 11  1  0
 11 12  1  0
 12 13  1  0
 13 14  1  0
 14 15  1  0
 15 16  1  0
 16 17  1  0
 17 18  1  0
 18 19  2  0
 18 20  1  0
 20 21  2  0
 20 25  1  0
 21 22  1  0
 22 23  2  0
 23 24  1  0
 24 25  2  0
 25 26  1  0
 26 27  1  0
 27 28  2  0
 27 29  1  0
 29 30  1  0
 30 31  2  0
 30 36  1  0
 31 32  1  0
 32 33  2  0
 33 34  1  0
 34 35  1  0
 34 36  2  0
 37 38  1  0
 38 39  2  0
 39 40  1  0
 40 41  1  0
 41 42  2  0
 43 44  2  0
 43 45  1  0
  3 46  1  0
  3 47  1  0
  4 48  1  0
  4 49  1  0
  5 50  1  0
  7 51  1  0
  7 52  1  0
  8 53  1  0
 10 54  1  0
 11 55  1  0
 11 56  1  0
 12 57  1  0
 12 58  1  0
 13 59  1  0
 13 60  1  0
 14 61  1  0
 14 62  1  0
 15 63  1  0
 15 64  1  0
 16 65  1  0
 16 66  1  0
 17 67  1  0
 21 68  1  0
 22 69  1  0
 24 70  1  0
 26 71  1  0
 29 72  1  0
 29 73  1  0
 31 74  1  0
 32 75  1  0
 33 76  1  0
 36 77  1  0
 37 78  1  0
 38 79  1  0
 39 80  1  0
 40 81  1  0
 45 82  1  0
M  END
>  <LF dG>
-7.72

>  <LF VSscore>
-9.529

>  <LF Rank Score>
-2.853

>  <LF LE>
-0.172

>  <LF Structure Name>
C:\Users\Odara\AppData\Local\Temp\LeadFinder_10604_1\Ligand_1.sdf

>  <LF SDF id>
0

>  <LF Pose rank>
0

>  <LF version>
2001 1, 19 January 2019

>  <Preferred Pose_cresset>
true

>  <Favorite_cresset>
false

>  <MW_cresset>
633.1

>  <#Atoms_cresset>
45

>  <SlogP_cresset>
2.9

>  <TPSA_cresset>
149.6

>  <Flexibility_cresset>
10.4

>  <#RB_cresset>
13

>  <Rof5_cresset>
2

>  <Filename_cresset>
dar with water site 3 monomer.sdf

>  <Confs_cresset>
0

>  <Poses_cresset>
10

>  <_cresset_fieldpoints>
    -5     -58.392799       4.715496       7.754788    -16.7471
    -5     -56.657997       1.491896      11.880799    -13.0505
    -5     -48.457657      -2.659464      19.382992    -14.0591
    -5     -49.026299      -7.463551      19.180702    -10.7802
    -5     -50.320343      -5.382926      12.561785    -13.7074
    -5     -46.660458      -1.239625      19.480484    -15.7592
    -5     -41.397106      -0.255162      16.218323     -2.0009
    -5     -42.180187       3.359277      20.397915     -1.5063
    -5     -55.229729       6.845448      11.379953     -4.8882
    -5     -54.555901       5.302981       6.612310     -3.8948
    -5     -56.037254      -4.302327       6.366355    -13.3316
    -6     -58.707069      -0.912180       8.987801      5.6554
    -6     -53.362034      -0.462886       8.951448      6.0661
    -6     -51.090511       2.087425       9.374258     10.6175
    -6     -53.036263      -6.781799      16.050276      2.9190
    -6     -53.962273      -0.268127       5.373485      3.4854
    -6     -55.402336       3.863743      12.576727      2.4069
    -6     -47.123276       0.214604      15.286642      7.2508
    -6     -50.037605      -1.034253      17.343685      3.8006
    -6     -45.740921      -3.091004      13.908468     12.0368
    -6     -40.400055      -0.953106      20.883471      2.8420
    -6     -50.468414       2.154178       9.842161     10.5887
    -6     -52.458618       8.790197       9.368727      1.2058
    -6     -55.683044      -3.528178      11.355680      5.6226
    -7     -57.608025      -3.804443       6.052186     -1.1357
    -7     -58.841248      -1.460426       9.450581     -1.9989
    -7     -58.678017       1.911371       6.757325     -2.0065
    -7     -53.337254      -0.988451       9.240150     -2.6349
    -7     -52.643585       1.625370       7.249926     -1.9903
    -7     -51.454258       4.603164       7.767936     -1.8320
    -7     -50.165581       5.767764      10.525025     -1.7583
    -7     -49.671844       1.472437      11.404797     -2.6715
    -7     -51.293335       1.201529       9.782154     -2.2824
    -7     -55.081848       6.076529      12.228732     -2.5235
    -7     -54.497871       3.959698      14.853287     -1.5951
    -7     -55.614311       3.752230      12.721420     -2.7475
    -7     -53.585983      -0.384441      11.628551     -3.1571
    -7     -49.613091       2.954663      16.426422     -1.5702
    -7     -50.788841       2.236119      17.182331     -1.5570
    -7     -51.931664      -1.975484      16.175970     -2.8753
    -7     -52.127876       5.324533      15.211096     -1.4311
    -7     -49.596031      -1.853333      18.157566     -2.5215
    -7     -47.866241       0.097204      17.057564     -3.0662
    -7     -53.406937      -6.894773      15.674585     -0.9182
    -7     -47.910156      -6.986904      14.245461     -1.5638
    -7     -48.739838      -8.147377      19.245712     -1.0245
    -7     -45.937859      -3.848134      19.514339     -2.4904
    -7     -44.885658      -5.096401      17.285778     -2.5750
    -7     -46.756653      -2.279495      13.394144     -2.4688
    -7     -41.285400      -4.511211      18.618732     -0.9966
    -7     -41.582207      -0.513825      15.661501     -1.8640
    -7     -40.942551      -0.824332      21.845484     -0.9732
    -7     -40.171257      -0.774274      21.200127     -0.9770
    -7     -46.690643       2.438124      17.627029     -1.4666
    -7     -46.289993      -1.345523      20.091896     -2.3241
    -7     -44.766144       2.705175      15.556074     -1.4050
    -7     -55.175629       3.525306       6.266594     -2.5739
    -7     -58.701416       5.250513       9.117439     -1.5673
    -7     -57.109383       2.148515      11.732859     -2.6435
    -8     -56.340027      -0.149967       7.906600      5.5705
    -8     -54.429855       5.041490       9.460896      7.0894
    -8     -51.875023       1.755960      13.559149      5.7522
    -8     -50.941517       1.212666      14.200441      5.7331
    -8     -52.037224       2.963202      13.152783      5.5402
    -8     -49.426567      -5.020879      16.361185      5.3576
    -8     -50.543350       0.144943      14.080603      5.5100
    -8     -43.562229      -0.684506      18.210693      7.1863
    -8     -43.595596       0.915403      18.312870      5.6085

$$$$
W_Site3m_DAR_D
  xed2sdf_05210316543D
 
 82 86  0  0  1  0  0  0  0  0999 V2000
  -41.3511  -10.1409   19.4596 O   0  0  0  0  0  0  0  0  0  0  0  0
  -42.5623  -10.0403   19.5508 C   0  0  0  0  0  0  0  0  0  0  0  0
  -43.4956  -10.8973   18.7273 C   0  0  0  0  0  0  0  0  0  0  0  0
  -44.7564  -10.1254   18.3340 C   0  0  0  0  0  0  0  0  0  0  0  0
  -45.4170   -9.7111   19.6518 C   0  0  0  0  0  0  0  0  0  0  0  0
  -46.6474   -8.9752   19.3252 N   0  0  0  0  0  0  0  0  0  0  0  0
  -46.6467   -7.7375   18.5269 C   0  0  0  0  0  0  0  0  0  0  0  0
  -48.1135   -7.8909   18.0836 C   0  0  0  0  0  0  0  0  0  0  0  0
  -48.8962   -6.7904   17.4009 C   0  0  0  0  0  0  0  0  0  0  0  0
  -48.1186   -5.8275   16.8266 N   0  0  0  0  0  0  0  0  0  0  0  0
  -48.0093   -4.5103   17.4677 C   0  0  0  0  0  0  0  0  0  0  0  0
  -48.6169   -3.4262   16.5595 C   0  0  0  0  0  0  0  0  0  0  0  0
  -50.0610   -3.8000   16.1831 C   0  0  0  0  0  0  0  0  0  0  0  0
  -50.4599   -3.1397   14.8514 C   0  0  0  0  0  0  0  0  0  0  0  0
  -51.4914   -2.0335   15.1302 C   0  0  0  0  0  0  0  0  0  0  0  0
  -50.8414   -0.6391   15.1815 C   0  0  0  0  0  0  0  0  0  0  0  0
  -51.2693   -0.0897   16.4762 N   0  0  0  0  0  0  0  0  0  0  0  0
  -51.2847    1.2464   16.6642 C   0  0  0  0  0  0  0  0  0  0  0  0
  -51.1411    2.0663   15.7594 O   0  0  0  0  0  0  0  0  0  0  0  0
  -51.3999    1.7822   18.0409 C   0  0  0  0  0  0  0  0  0  0  0  0
  -52.5598    2.4380   18.3961 C   0  0  0  0  0  0  0  0  0  0  0  0
  -52.6905    2.9831   19.6468 C   0  0  0  0  0  0  0  0  0  0  0  0
  -51.7322    2.9216   20.5917 N   0  0  0  0  0  0  0  0  0  0  0  0
  -50.6134    2.2664   20.2387 C   0  0  0  0  0  0  0  0  0  0  0  0
  -50.4012    1.6833   19.0010 C   0  0  0  0  0  0  0  0  0  0  0  0
  -49.2215    0.9731   18.7461 N   0  0  0  0  0  0  0  0  0  0  0  0
  -47.9780    1.4938   18.7253 C   0  0  0  0  0  0  0  0  0  0  0  0
  -47.7173    2.6870   18.7008 O   0  0  0  0  0  0  0  0  0  0  0  0
  -46.8911    0.4418   18.7927 C   0  0  0  0  0  0  0  0  0  0  0  0
  -46.3671   -0.0163   17.4432 C   0  0  0  0  0  0  0  0  0  0  0  0
  -45.0380   -0.3367   17.2759 C   0  0  0  0  0  0  0  0  0  0  0  0
  -44.5806   -0.7732   16.0530 C   0  0  0  0  0  0  0  0  0  0  0  0
  -45.4515   -0.8934   14.9944 C   0  0  0  0  0  0  0  0  0  0  0  0
  -46.7810   -0.5751   15.1589 C   0  0  0  0  0  0  0  0  0  0  0  0
  -47.8876   -0.7326   13.8268 Cl  0  0  0  0  0  0  0  0  0  0  0  0
  -47.2360   -0.1358   16.3821 C   0  0  0  0  0  0  0  0  0  0  0  0
  -50.2386   -6.8417   17.4079 C   0  0  0  0  0  0  0  0  0  0  0  0
  -50.9219   -7.9425   18.0885 C   0  0  0  0  0  0  0  0  0  0  0  0
  -50.2722   -8.6501   19.0107 C   0  0  0  0  0  0  0  0  0  0  0  0
  -48.8402   -8.3347   19.3563 C   0  0  0  0  0  0  0  0  0  0  0  0
  -47.8462   -9.3788   19.7728 C   0  0  0  0  0  0  0  0  0  0  0  0
  -48.0868  -10.3978   20.4047 O   0  0  0  0  0  0  0  0  0  0  0  0
  -44.4867   -8.9033   20.5332 C   0  0  0  0  0  0  0  0  0  0  0  0
  -44.9116   -8.0695   21.3143 O   0  0  0  0  0  0  0  0  0  0  0  0
  -43.1679   -9.1647   20.3842 N   0  0  0  0  0  0  0  0  0  0  0  0
  -45.6399  -10.5257   20.1870 H   0  0  0  0  0  0  0  0  0  0  0  0
  -48.0678   -8.5167   17.3049 H   0  0  0  0  0  0  0  0  0  0  0  0
  -49.0241   -7.7275   20.1292 H   0  0  0  0  0  0  0  0  0  0  0  0
  -43.7565  -11.7024   19.2600 H   0  0  0  0  0  0  0  0  0  0  0  0
  -43.0195  -11.1688   17.8910 H   0  0  0  0  0  0  0  0  0  0  0  0
  -45.3707  -10.7070   17.8005 H   0  0  0  0  0  0  0  0  0  0  0  0
  -44.5406   -9.3319   17.7648 H   0  0  0  0  0  0  0  0  0  0  0  0
  -45.9987   -7.7586   17.7654 H   0  0  0  0  0  0  0  0  0  0  0  0
  -46.3765   -6.8862   18.9760 H   0  0  0  0  0  0  0  0  0  0  0  0
  -47.9509   -5.8859   15.9635 H   0  0  0  0  0  0  0  0  0  0  0  0
  -47.0460   -4.3020   17.6365 H   0  0  0  0  0  0  0  0  0  0  0  0
  -48.5086   -4.5265   18.3341 H   0  0  0  0  0  0  0  0  0  0  0  0
  -48.0669   -3.3424   15.7287 H   0  0  0  0  0  0  0  0  0  0  0  0
  -48.6230   -2.5545   17.0495 H   0  0  0  0  0  0  0  0  0  0  0  0
  -50.6807   -3.4920   16.9048 H   0  0  0  0  0  0  0  0  0  0  0  0
  -50.1211   -4.7930   16.0806 H   0  0  0  0  0  0  0  0  0  0  0  0
  -50.8565   -3.8255   14.2409 H   0  0  0  0  0  0  0  0  0  0  0  0
  -49.6520   -2.7441   14.4150 H   0  0  0  0  0  0  0  0  0  0  0  0
  -51.9356   -2.2178   16.0070 H   0  0  0  0  0  0  0  0  0  0  0  0
  -52.1563   -2.0357   14.3835 H   0  0  0  0  0  0  0  0  0  0  0  0
  -51.1637   -0.0677   14.4268 H   0  0  0  0  0  0  0  0  0  0  0  0
  -49.8461   -0.6770   15.0924 H   0  0  0  0  0  0  0  0  0  0  0  0
  -51.4422   -0.6359   17.1454 H   0  0  0  0  0  0  0  0  0  0  0  0
  -53.3090    2.5161   17.7384 H   0  0  0  0  0  0  0  0  0  0  0  0
  -53.5447    3.4526   19.8702 H   0  0  0  0  0  0  0  0  0  0  0  0
  -49.8824    2.1951   20.9175 H   0  0  0  0  0  0  0  0  0  0  0  0
  -49.2996    0.1046   18.6205 H   0  0  0  0  0  0  0  0  0  0  0  0
  -47.2561   -0.3545   19.2747 H   0  0  0  0  0  0  0  0  0  0  0  0
  -46.1183    0.8649   19.2657 H   0  0  0  0  0  0  0  0  0  0  0  0
  -44.4039   -0.2519   18.0444 H   0  0  0  0  0  0  0  0  0  0  0  0
  -43.6146   -1.0031   15.9339 H   0  0  0  0  0  0  0  0  0  0  0  0
  -45.1189   -1.2119   14.1066 H   0  0  0  0  0  0  0  0  0  0  0  0
  -48.2010    0.0976   16.4998 H   0  0  0  0  0  0  0  0  0  0  0  0
  -50.7697   -6.1291   16.9492 H   0  0  0  0  0  0  0  0  0  0  0  0
  -51.8709   -8.1621   17.8621 H   0  0  0  0  0  0  0  0  0  0  0  0
  -50.7402   -9.3992   19.4792 H   0  0  0  0  0  0  0  0  0  0  0  0
  -42.6284   -8.6925   20.8944 H   0  0  0  0  0  0  0  0  0  0  0  0
  1  2  2  0
  2  3  1  0
  2 45  1  0
  3  4  1  0
  4  5  1  0
  5  6  1  0
  5 43  1  0
  6  7  1  0
  6 41  1  0
  7  8  1  0
  8  9  1  0
  8 40  1  0
  9 10  1  0
  9 37  2  0
 10 11  1  0
 11 12  1  0
 12 13  1  0
 13 14  1  0
 14 15  1  0
 15 16  1  0
 16 17  1  0
 17 18  1  0
 18 19  2  0
 18 20  1  0
 20 21  2  0
 20 25  1  0
 21 22  1  0
 22 23  2  0
 23 24  1  0
 24 25  2  0
 25 26  1  0
 26 27  1  0
 27 28  2  0
 27 29  1  0
 29 30  1  0
 30 31  2  0
 30 36  1  0
 31 32  1  0
 32 33  2  0
 33 34  1  0
 34 35  1  0
 34 36  2  0
 37 38  1  0
 38 39  2  0
 39 40  1  0
 40 41  1  0
 41 42  2  0
 43 44  2  0
 43 45  1  0
  3 49  1  0
  3 50  1  0
  4 51  1  0
  4 52  1  0
  5 46  1  0
  7 53  1  0
  7 54  1  0
  8 47  1  0
 10 55  1  0
 11 56  1  0
 11 57  1  0
 12 58  1  0
 12 59  1  0
 13 60  1  0
 13 61  1  0
 14 62  1  0
 14 63  1  0
 15 64  1  0
 15 65  1  0
 16 66  1  0
 16 67  1  0
 17 68  1  0
 21 69  1  0
 22 70  1  0
 24 71  1  0
 26 72  1  0
 29 73  1  0
 29 74  1  0
 31 75  1  0
 32 76  1  0
 33 77  1  0
 36 78  1  0
 37 79  1  0
 38 80  1  0
 39 81  1  0
 40 48  1  0
 45 82  1  0
M  END
>  <LF dG>
-7.55

>  <LF VSscore>
-8.902

>  <LF Rank Score>
-2.79

>  <LF LE>
-0.168

>  <LF Structure Name>
C:\Users\Odara\AppData\Local\Temp\LeadFinder_7716_1\Ligand_1.sdf

>  <LF SDF id>
0

>  <LF Pose rank>
0

>  <LF version>
2001 1, 19 January 2019

>  <Favorite_cresset>
false

>  <MW_cresset>
633.1

>  <#Atoms_cresset>
45

>  <SlogP_cresset>
2.9

>  <TPSA_cresset>
149.6

>  <Flexibility_cresset>
10.4

>  <#RB_cresset>
13

>  <Rof5_cresset>
2

>  <Filename_cresset>
drag.57_326.sdf

>  <Confs_cresset>
0

>  <Poses_cresset>
0

$$$$
Site3m_Disulfiram_D
  xed2sdf_05210316543D
 
 36 35  0  0  0  0  0  0  0  0999 V2000
  -47.9689   -0.0102   13.5293 S   0  0  0  0  0  0  0  0  0  0  0  0
  -47.9479   -0.3402   15.5313 S   0  0  0  0  0  0  0  0  0  0  0  0
  -50.9529   -0.2582   13.8083 S   0  0  0  0  0  0  0  0  0  0  0  0
  -46.9899   -3.1702   15.8783 S   0  0  0  0  0  0  0  0  0  0  0  0
  -49.6849    1.7798   12.5333 N   0  0  0  0  0  0  0  0  0  0  0  0
  -45.3699   -0.9902   15.7993 N   0  0  0  0  0  0  0  0  0  0  0  0
  -50.9859    2.4538   12.3783 C   0  0  0  0  0  0  0  0  0  0  0  0
  -48.6499    2.1338   11.5503 C   0  0  0  0  0  0  0  0  0  0  0  0
  -44.9349   -0.1932   16.9583 C   0  0  0  0  0  0  0  0  0  0  0  0
  -44.5869   -0.8272   14.5633 C   0  0  0  0  0  0  0  0  0  0  0  0
  -51.3989    3.2008   13.6583 C   0  0  0  0  0  0  0  0  0  0  0  0
  -48.4069    3.6518   11.5633 C   0  0  0  0  0  0  0  0  0  0  0  0
  -43.9519   -0.9762   17.8453 C   0  0  0  0  0  0  0  0  0  0  0  0
  -43.6559   -2.0362   14.3793 C   0  0  0  0  0  0  0  0  0  0  0  0
  -49.5829    0.6128   13.2383 C   0  0  0  0  0  0  0  0  0  0  0  0
  -46.6399   -1.4922   15.7363 C   0  0  0  0  0  0  0  0  0  0  0  0
  -51.6829    1.7698   12.1613 H   0  0  0  0  0  0  0  0  0  0  0  0
  -50.9029    3.1248   11.6423 H   0  0  0  0  0  0  0  0  0  0  0  0
  -48.9469    1.8518   10.6383 H   0  0  0  0  0  0  0  0  0  0  0  0
  -47.7989    1.6648   11.7873 H   0  0  0  0  0  0  0  0  0  0  0  0
  -45.7369    0.0578   17.5013 H   0  0  0  0  0  0  0  0  0  0  0  0
  -44.4679    0.6238   16.6203 H   0  0  0  0  0  0  0  0  0  0  0  0
  -44.0419    0.0088   14.6213 H   0  0  0  0  0  0  0  0  0  0  0  0
  -45.2079   -0.7662   13.7823 H   0  0  0  0  0  0  0  0  0  0  0  0
  -50.6889    3.0768   14.3513 H   0  0  0  0  0  0  0  0  0  0  0  0
  -51.5099    4.1738   13.4603 H   0  0  0  0  0  0  0  0  0  0  0  0
  -52.2669    2.8358   13.9953 H   0  0  0  0  0  0  0  0  0  0  0  0
  -49.0099    4.0718   12.2423 H   0  0  0  0  0  0  0  0  0  0  0  0
  -47.4529    3.8388   11.7983 H   0  0  0  0  0  0  0  0  0  0  0  0
  -48.6009    4.0318   10.6593 H   0  0  0  0  0  0  0  0  0  0  0  0
  -43.8059   -1.8822   17.4473 H   0  0  0  0  0  0  0  0  0  0  0  0
  -43.0819   -0.4872   17.8983 H   0  0  0  0  0  0  0  0  0  0  0  0
  -44.3299   -1.0692   18.7663 H   0  0  0  0  0  0  0  0  0  0  0  0
  -43.7899   -2.6692   15.1423 H   0  0  0  0  0  0  0  0  0  0  0  0
  -43.8689   -2.4982   13.5183 H   0  0  0  0  0  0  0  0  0  0  0  0
  -42.7049   -1.7292   14.3573 H   0  0  0  0  0  0  0  0  0  0  0  0
  1  2  1  0
  1 15  1  0
  2 16  1  0
  3 15  2  0
  4 16  2  0
  5  7  1  0
  5  8  1  0
  5 15  1  0
  6  9  1  0
  6 10  1  0
  6 16  1  0
  7 11  1  0
  8 12  1  0
  9 13  1  0
 10 14  1  0
  7 17  1  0
  7 18  1  0
  8 19  1  0
  8 20  1  0
  9 21  1  0
  9 22  1  0
 10 23  1  0
 10 24  1  0
 11 25  1  0
 11 26  1  0
 11 27  1  0
 12 28  1  0
 12 29  1  0
 12 30  1  0
 13 31  1  0
 13 32  1  0
 13 33  1  0
 14 34  1  0
 14 35  1  0
 14 36  1  0
M  END
>  <LF dG>
-6.544

>  <LF VSscore>
-6.302

>  <LF Rank Score>
-2.666

>  <LF LE>
-0.409

>  <LF Structure Name>
C:\Users\Odara\AppData\Local\Temp\LeadFinder_8956_1\Ligand_1.sdf

>  <LF SDF id>
0

>  <LF Pose rank>
0

>  <LF version>
2001 1, 19 January 2019

>  <PUBCHEM_COMPOUND_CID>
3117

>  <PUBCHEM_COMPOUND_CANONICALIZED>
1

>  <PUBCHEM_CACTVS_COMPLEXITY>
201

>  <PUBCHEM_CACTVS_HBOND_ACCEPTOR>
4

>  <PUBCHEM_CACTVS_HBOND_DONOR>
0

>  <PUBCHEM_CACTVS_ROTATABLE_BOND>
7

>  <PUBCHEM_CACTVS_SUBSKEYS>
AAADceBzAABwAAAAAAAAAAAAAAAAAAAAAAAAAAAAAAAAAAAAAAAAHAQAAAAAAADBAAQCAAMAAAAEAAAAAAAAAAAAAAgAAAAIAAAAAAAAAAAAAAAAAACAAAAAAAAAAAAAAAAAAAAAAAAAAAAAAAAAAAAAAA==

>  <PUBCHEM_IUPAC_OPENEYE_NAME>
diethylcarbamothioylsulfanyl N,N-diethylcarbamodithioate

>  <PUBCHEM_IUPAC_CAS_NAME>
N,N-diethylcarbamodithioic acid [[diethylamino(sulfanylidene)methyl]thio] ester

>  <PUBCHEM_IUPAC_NAME_MARKUP>
diethylcarbamothioylsulfanyl <I>N</I>,<I>N</I>-diethylcarbamodithioate

>  <PUBCHEM_IUPAC_NAME>
diethylcarbamothioylsulfanyl N,N-diethylcarbamodithioate

>  <PUBCHEM_IUPAC_SYSTEMATIC_NAME>
diethylcarbamothioylsulfanyl N,N-diethylcarbamodithioate

>  <PUBCHEM_IUPAC_TRADITIONAL_NAME>
N,N-diethylcarbamodithioic acid (diethylthiocarbamoylthio) ester

>  <PUBCHEM_IUPAC_INCHI>
InChI=1S/C10H20N2S4/c1-5-11(6-2)9(13)15-16-10(14)12(7-3)8-4/h5-8H2,1-4H3

>  <PUBCHEM_IUPAC_INCHIKEY>
AUZONCFQVSMFAP-UHFFFAOYSA-N

>  <PUBCHEM_XLOGP3>
3.9

>  <PUBCHEM_EXACT_MASS>
296.050933

>  <PUBCHEM_MOLECULAR_FORMULA>
C10H20N2S4

>  <PUBCHEM_MOLECULAR_WEIGHT>
296.5

>  <PUBCHEM_OPENEYE_CAN_SMILES>
CCN(CC)C(=S)SSC(=S)N(CC)CC

>  <PUBCHEM_OPENEYE_ISO_SMILES>
CCN(CC)C(=S)SSC(=S)N(CC)CC

>  <PUBCHEM_CACTVS_TPSA>
121

>  <PUBCHEM_MONOISOTOPIC_WEIGHT>
296.050933

>  <PUBCHEM_TOTAL_CHARGE>
0

>  <PUBCHEM_HEAVY_ATOM_COUNT>
16

>  <PUBCHEM_ATOM_DEF_STEREO_COUNT>
0

>  <PUBCHEM_ATOM_UDEF_STEREO_COUNT>
0

>  <PUBCHEM_BOND_DEF_STEREO_COUNT>
0

>  <PUBCHEM_BOND_UDEF_STEREO_COUNT>
0

>  <PUBCHEM_ISOTOPIC_ATOM_COUNT>
0

>  <PUBCHEM_COMPONENT_COUNT>
1

>  <PUBCHEM_CACTVS_TAUTO_COUNT>
-1

>  <PUBCHEM_COORDINATE_TYPE>
1
5
255

>  <Preferred Pose_cresset>
true

>  <Favorite_cresset>
false

>  <MW_cresset>
296.5

>  <#Atoms_cresset>
16

>  <SlogP_cresset>
3.6

>  <TPSA_cresset>
6.5

>  <Flexibility_cresset>
7.5

>  <#RB_cresset>
9

>  <Rof5_cresset>
0

>  <Filename_cresset>
disulfiram 3 monomer no water.sdf

>  <Confs_cresset>
0

>  <Poses_cresset>
10

>  <_cresset_fieldpoints>
    -5     -49.845264      -2.648269      14.949312     -6.9267
    -6     -50.594986       3.294473       9.305578      3.0358
    -6     -50.940239       5.410460      11.170502      2.9629
    -6     -45.468121       1.533623      12.602110      3.7418
    -6     -42.221714       0.921190      15.759676      3.4147
    -7     -49.164803      -2.953135      13.526207     -2.2169
    -7     -45.954865       2.141036      14.643973     -2.7833
    -7     -50.301308       1.608338      16.376287     -2.1500
    -7     -50.151314      -2.749095      15.635439     -1.8207
    -7     -47.319725      -1.607832      18.729778     -2.1598
    -7     -50.528114      -0.330141      10.556559     -2.2341
    -7     -44.222927      -4.343719      17.035053     -1.7893
    -7     -50.684181       3.167077       9.057938     -1.5600
    -7     -53.962128       0.932283      13.218422     -1.4783
    -7     -48.155571       2.921159      14.761024     -3.2434
    -7     -50.951874       5.724902      11.314186     -1.6494
    -7     -43.938522       2.092704      19.070717     -1.0575
    -7     -41.706421       0.393101      15.792267     -1.9050
    -7     -46.558872      -2.777317      12.717093     -2.5082
    -8     -48.555405      -0.054570      14.384176      5.5171
    -8     -47.664906      -0.515405      14.591728      5.4367
    -8     -47.522526      -1.708125      15.617540      4.8603
    -8     -48.352028       3.033883      11.350380      4.4329
    -8     -51.459595       2.977468      13.028742      4.4527
    -8     -44.312782      -0.436693      17.655802      4.4091
    -8     -43.925892      -1.434181      14.206371      4.4101

$$$$
W_Site3m_Disulfiram_D
  xed2sdf_05210316543D
 
 36 35  0  0  0  0  0  0  0  0999 V2000
  -47.2407   -1.5414   17.2292 S   0  0  0  0  0  0  0  0  0  0  0  0
  -47.1467   -2.6044   15.5032 S   0  0  0  0  0  0  0  0  0  0  0  0
  -45.5107    0.7426   18.1442 S   0  0  0  0  0  0  0  0  0  0  0  0
  -47.5987   -0.1634   13.8042 S   0  0  0  0  0  0  0  0  0  0  0  0
  -44.6397   -1.3494   16.6452 N   0  0  0  0  0  0  0  0  0  0  0  0
  -49.3737   -2.2014   14.0832 N   0  0  0  0  0  0  0  0  0  0  0  0
  -43.6447   -2.1464   17.3842 C   0  0  0  0  0  0  0  0  0  0  0  0
  -44.2227   -0.8554   15.3232 C   0  0  0  0  0  0  0  0  0  0  0  0
  -49.4877   -3.5744   13.5622 C   0  0  0  0  0  0  0  0  0  0  0  0
  -50.5047   -1.3014   13.8042 C   0  0  0  0  0  0  0  0  0  0  0  0
  -42.8267   -1.2794   18.3562 C   0  0  0  0  0  0  0  0  0  0  0  0
  -43.8407   -2.0354   14.4162 C   0  0  0  0  0  0  0  0  0  0  0  0
  -50.2147   -4.4954   14.5562 C   0  0  0  0  0  0  0  0  0  0  0  0
  -51.0927   -0.7864   15.1272 C   0  0  0  0  0  0  0  0  0  0  0  0
  -45.6777   -0.7474   17.3012 C   0  0  0  0  0  0  0  0  0  0  0  0
  -48.1527   -1.6774   14.4042 C   0  0  0  0  0  0  0  0  0  0  0  0
  -43.0237   -2.5774   16.7302 H   0  0  0  0  0  0  0  0  0  0  0  0
  -44.1337   -2.8344   17.9202 H   0  0  0  0  0  0  0  0  0  0  0  0
  -43.4367   -0.2464   15.4292 H   0  0  0  0  0  0  0  0  0  0  0  0
  -44.9827   -0.3554   14.9072 H   0  0  0  0  0  0  0  0  0  0  0  0
  -48.5707   -3.9354   13.3912 H   0  0  0  0  0  0  0  0  0  0  0  0
  -50.0197   -3.5454   12.7162 H   0  0  0  0  0  0  0  0  0  0  0  0
  -51.2077   -1.7974   13.2952 H   0  0  0  0  0  0  0  0  0  0  0  0
  -50.1847   -0.5254   13.2602 H   0  0  0  0  0  0  0  0  0  0  0  0
  -43.1397   -0.3314   18.2912 H   0  0  0  0  0  0  0  0  0  0  0  0
  -42.9507   -1.6114   19.2922 H   0  0  0  0  0  0  0  0  0  0  0  0
  -41.8567   -1.3314   18.1192 H   0  0  0  0  0  0  0  0  0  0  0  0
  -43.9587   -2.8884   14.9252 H   0  0  0  0  0  0  0  0  0  0  0  0
  -44.4267   -2.0424   13.6062 H   0  0  0  0  0  0  0  0  0  0  0  0
  -42.8877   -1.9424   14.1272 H   0  0  0  0  0  0  0  0  0  0  0  0
  -50.4657   -3.9664   15.3672 H   0  0  0  0  0  0  0  0  0  0  0  0
  -51.0377   -4.8704   14.1302 H   0  0  0  0  0  0  0  0  0  0  0  0
  -49.6127   -5.2494   14.8192 H   0  0  0  0  0  0  0  0  0  0  0  0
  -50.5747   -1.1774   15.8882 H   0  0  0  0  0  0  0  0  0  0  0  0
  -51.0327    0.2116   15.1572 H   0  0  0  0  0  0  0  0  0  0  0  0
  -52.0527   -1.0574   15.1972 H   0  0  0  0  0  0  0  0  0  0  0  0
  1  2  1  0
  1 15  1  0
  2 16  1  0
  3 15  2  0
  4 16  2  0
  5  7  1  0
  5  8  1  0
  5 15  1  0
  6  9  1  0
  6 10  1  0
  6 16  1  0
  7 11  1  0
  8 12  1  0
  9 13  1  0
 10 14  1  0
  7 17  1  0
  7 18  1  0
  8 19  1  0
  8 20  1  0
  9 21  1  0
  9 22  1  0
 10 23  1  0
 10 24  1  0
 11 25  1  0
 11 26  1  0
 11 27  1  0
 12 28  1  0
 12 29  1  0
 12 30  1  0
 13 31  1  0
 13 32  1  0
 13 33  1  0
 14 34  1  0
 14 35  1  0
 14 36  1  0
M  END
>  <LF dG>
-6.464

>  <LF VSscore>
-6.145

>  <LF Rank Score>
-2.341

>  <LF LE>
-0.404

>  <LF Structure Name>
C:\Users\Odara\AppData\Local\Temp\LeadFinder_564_1\Ligand_1.sdf

>  <LF SDF id>
0

>  <LF Pose rank>
0

>  <LF version>
2001 1, 19 January 2019

>  <PUBCHEM_COMPOUND_CID>
3117

>  <PUBCHEM_COMPOUND_CANONICALIZED>
1

>  <PUBCHEM_CACTVS_COMPLEXITY>
201

>  <PUBCHEM_CACTVS_HBOND_ACCEPTOR>
4

>  <PUBCHEM_CACTVS_HBOND_DONOR>
0

>  <PUBCHEM_CACTVS_ROTATABLE_BOND>
7

>  <PUBCHEM_CACTVS_SUBSKEYS>
AAADceBzAABwAAAAAAAAAAAAAAAAAAAAAAAAAAAAAAAAAAAAAAAAHAQAAAAAAADBAAQCAAMAAAAEAAAAAAAAAAAAAAgAAAAIAAAAAAAAAAAAAAAAAACAAAAAAAAAAAAAAAAAAAAAAAAAAAAAAAAAAAAAAA==

>  <PUBCHEM_IUPAC_OPENEYE_NAME>
diethylcarbamothioylsulfanyl N,N-diethylcarbamodithioate

>  <PUBCHEM_IUPAC_CAS_NAME>
N,N-diethylcarbamodithioic acid [[diethylamino(sulfanylidene)methyl]thio] ester

>  <PUBCHEM_IUPAC_NAME_MARKUP>
diethylcarbamothioylsulfanyl <I>N</I>,<I>N</I>-diethylcarbamodithioate

>  <PUBCHEM_IUPAC_NAME>
diethylcarbamothioylsulfanyl N,N-diethylcarbamodithioate

>  <PUBCHEM_IUPAC_SYSTEMATIC_NAME>
diethylcarbamothioylsulfanyl N,N-diethylcarbamodithioate

>  <PUBCHEM_IUPAC_TRADITIONAL_NAME>
N,N-diethylcarbamodithioic acid (diethylthiocarbamoylthio) ester

>  <PUBCHEM_IUPAC_INCHI>
InChI=1S/C10H20N2S4/c1-5-11(6-2)9(13)15-16-10(14)12(7-3)8-4/h5-8H2,1-4H3

>  <PUBCHEM_IUPAC_INCHIKEY>
AUZONCFQVSMFAP-UHFFFAOYSA-N

>  <PUBCHEM_XLOGP3>
3.9

>  <PUBCHEM_EXACT_MASS>
296.050933

>  <PUBCHEM_MOLECULAR_FORMULA>
C10H20N2S4

>  <PUBCHEM_MOLECULAR_WEIGHT>
296.5

>  <PUBCHEM_OPENEYE_CAN_SMILES>
CCN(CC)C(=S)SSC(=S)N(CC)CC

>  <PUBCHEM_OPENEYE_ISO_SMILES>
CCN(CC)C(=S)SSC(=S)N(CC)CC

>  <PUBCHEM_CACTVS_TPSA>
121

>  <PUBCHEM_MONOISOTOPIC_WEIGHT>
296.050933

>  <PUBCHEM_TOTAL_CHARGE>
0

>  <PUBCHEM_HEAVY_ATOM_COUNT>
16

>  <PUBCHEM_ATOM_DEF_STEREO_COUNT>
0

>  <PUBCHEM_ATOM_UDEF_STEREO_COUNT>
0

>  <PUBCHEM_BOND_DEF_STEREO_COUNT>
0

>  <PUBCHEM_BOND_UDEF_STEREO_COUNT>
0

>  <PUBCHEM_ISOTOPIC_ATOM_COUNT>
0

>  <PUBCHEM_COMPONENT_COUNT>
1

>  <PUBCHEM_CACTVS_TAUTO_COUNT>
-1

>  <PUBCHEM_COORDINATE_TYPE>
1
5
255

>  <Preferred Pose_cresset>
true

>  <Favorite_cresset>
false

>  <MW_cresset>
296.5

>  <#Atoms_cresset>
16

>  <SlogP_cresset>
3.6

>  <TPSA_cresset>
6.5

>  <Flexibility_cresset>
7.5

>  <#RB_cresset>
9

>  <Rof5_cresset>
0

>  <Filename_cresset>
disulfiram 3 monomer with water.sdf

>  <Confs_cresset>
0

>  <Poses_cresset>
10

>  <_cresset_fieldpoints>
    -5     -46.901207       1.775636      15.732177     -5.4560
    -5     -47.272167       2.419289      19.167366     -4.7320
    -6     -52.410492      -3.542163      12.360703      3.2420
    -6     -45.603302      -3.242064      19.574135      1.8802
    -6     -50.493256      -3.001911      17.528667      1.6649
    -6     -47.046654      -5.535263      14.021351      2.5576
    -6     -40.952625      -2.024436      15.716331      2.8405
    -6     -46.324036      -3.734653      12.772892      2.8176
    -7     -48.715469       1.112937      16.493692     -2.6567
    -7     -45.951302      -4.589315      17.682993     -1.8922
    -7     -46.451458      -2.863026      12.251738     -2.5596
    -7     -49.998474      -3.001919      17.593353     -2.2724
    -7     -45.798592       2.075224      15.269009     -2.0315
    -7     -42.691628       1.755377      16.827984     -1.8696
    -7     -44.764336       0.306765      12.244326     -1.6083
    -7     -48.579552      -1.704278      11.152852     -2.0596
    -7     -49.938072       2.108851      13.686016     -1.5170
    -7     -45.612423      -1.984488      20.080410     -2.2958
    -7     -40.857193      -1.110183      15.662325     -1.9401
    -7     -45.036942      -4.815406      16.314232     -2.0812
    -7     -46.900284      -5.633045      14.514273     -1.6848
    -7     -53.213120      -3.279697      14.189919     -1.7951
    -8     -43.021313      -1.828380      18.045803      4.4440
    -8     -46.411068      -0.397995      17.676937      4.7994
    -8     -43.937553      -1.409057      14.588276      4.4687
    -8     -51.039948      -0.827157      14.453476      4.4133
    -8     -49.903831      -4.340248      13.984623      4.4203
    -8     -47.341469      -1.694288      15.981785      5.5418

$$$$
W_Site3m_Diammonium_D
  xed2sdf_05210316543D
 
117123  0  0  1  0  0  0  0  0999 V2000
  -48.8086   -2.9945   18.8537 O   0  0  0  0  0  0  0  0  0  0  0  0
  -45.6714    2.0751   18.8450 O   0  0  0  0  0  0  0  0  0  0  0  0
  -48.9305   -5.3677   19.1147 O   0  0  0  0  0  0  0  0  0  0  0  0
  -39.6912    5.3224   21.1935 O   0  5  0  0  0  0  0  0  0  0  0  0
  -41.0075    4.0419   19.8403 O   0  0  0  0  0  0  0  0  0  0  0  0
  -48.4613   -4.5285   16.3528 O   0  0  0  0  0  0  0  0  0  0  0  0
  -50.7595   -5.8718   15.3465 O   0  0  0  0  0  0  0  0  0  0  0  0
  -50.9685   -7.9543   17.3949 O   0  0  0  0  0  0  0  0  0  0  0  0
  -46.4519   -3.3902   15.7097 O   0  0  0  0  0  0  0  0  0  0  0  0
  -47.8365   -7.7924   19.8147 O   0  5  0  0  0  0  0  0  0  0  0  0
  -49.9156   -8.6999   20.0402 O   0  0  0  0  0  0  0  0  0  0  0  0
  -49.1862   -3.5033   14.0537 O   0  0  0  0  0  0  0  0  0  0  0  0
  -48.5554   -0.4761   13.6590 O   0  0  0  0  0  0  0  0  0  0  0  0
  -45.8553   -0.0064   14.3950 O   0  0  0  0  0  0  0  0  0  0  0  0
  -45.4616   -2.4878   17.9444 O   0  5  0  0  0  0  0  0  0  0  0  0
  -44.4341   -0.6923   16.9789 O   0  0  0  0  0  0  0  0  0  0  0  0
  -46.0227    0.6297   22.1351 C   0  0  0  0  0  0  0  0  0  0  0  0
  -47.6921    0.3019   20.0455 C   0  0  0  0  0  0  0  0  0  0  0  0
  -46.2348    0.4955   20.5926 C   0  0  0  0  0  0  0  0  0  0  0  0
  -44.4738    0.5667   22.4410 C   0  0  0  0  0  0  0  0  0  0  0  0
  -48.4028   -0.8072   20.8924 C   0  0  0  0  0  0  0  0  0  0  0  0
  -46.8279   -0.4789   22.8647 C   0  0  0  0  0  0  0  0  0  0  0  0
  -49.7901   -1.3053   20.3620 C   0  0  0  0  0  0  0  0  0  0  0  0
  -48.3061   -0.5671   22.4218 C   0  0  0  0  0  0  0  0  0  0  0  0
  -43.8161    1.7535   21.7471 C   0  0  0  0  0  0  0  0  0  0  0  0
  -42.6265    2.4973   22.3296 C   0  0  0  0  0  0  0  0  0  0  0  0
  -42.4761    2.4408   23.8738 C   0  0  0  0  0  0  0  0  0  0  0  0
  -44.1972    0.5052   23.9746 C   0  0  0  0  0  0  0  0  0  0  0  0
  -47.5943   -0.2373   18.5887 C   0  0  0  0  0  0  0  0  0  0  0  0
  -42.8118    1.0285   24.4123 C   0  0  0  0  0  0  0  0  0  0  0  0
  -49.6125   -1.7933   18.8979 C   0  0  0  0  0  0  0  0  0  0  0  0
  -45.4141    1.5831   19.9263 C   0  0  0  0  0  0  0  0  0  0  0  0
  -46.5635    2.0024   22.6308 C   0  0  0  0  0  0  0  0  0  0  0  0
  -48.9356   -0.7356   17.9974 C   0  0  0  0  0  0  0  0  0  0  0  0
  -48.4241    1.6717   19.9998 C   0  0  0  0  0  0  0  0  0  0  0  0
  -43.7384   -0.6386   21.7941 C   0  0  0  0  0  0  0  0  0  0  0  0
  -44.2939    2.2213   20.5865 C   0  0  0  0  0  0  0  0  0  0  0  0
  -41.3206    2.0452   21.6425 C   0  0  0  0  0  0  0  0  0  0  0  0
  -41.0206    2.7770   24.3050 C   0  0  0  0  0  0  0  0  0  0  0  0
  -40.2060    3.0953   21.8868 C   0  0  0  0  0  0  0  0  0  0  0  0
  -50.2930   -2.5091   21.1915 C   0  0  0  0  0  0  0  0  0  0  0  0
  -50.9333   -0.2663   20.4478 C   0  0  0  0  0  0  0  0  0  0  0  0
  -40.3025    3.7114   23.3063 C   0  0  0  0  0  0  0  0  0  0  0  0
  -43.4231    3.4855   24.5022 C   0  0  0  0  0  0  0  0  0  0  0  0
  -38.8423    2.4025   21.7051 C   0  0  0  0  0  0  0  0  0  0  0  0
  -40.3089    4.2388   20.8967 C   0  0  0  0  0  0  0  0  0  0  0  0
  -49.5514   -4.1956   18.5379 C   0  0  0  0  0  0  0  0  0  0  0  0
  -49.7322   -4.3971   17.0171 C   0  0  0  0  0  0  0  0  0  0  0  0
  -50.6068   -5.6399   16.7543 C   0  0  0  0  0  0  0  0  0  0  0  0
  -49.6919   -6.5861   18.9465 C   0  0  0  0  0  0  0  0  0  0  0  0
  -50.0233   -6.8769   17.4664 C   0  0  0  0  0  0  0  0  0  0  0  0
  -47.8436   -3.2556   16.0764 C   0  0  0  0  0  0  0  0  0  0  0  0
  -49.1076   -7.7827   19.6607 C   0  0  0  0  0  0  0  0  0  0  0  0
  -48.6386   -2.5381   14.9635 C   0  0  0  0  0  0  0  0  0  0  0  0
  -47.7516   -1.5398   14.1905 C   0  0  0  0  0  0  0  0  0  0  0  0
  -45.7584   -2.1250   15.6135 C   0  0  0  0  0  0  0  0  0  0  0  0
  -46.6475   -0.9728   15.1005 C   0  0  0  0  0  0  0  0  0  0  0  0
  -45.1691   -1.7401   16.9469 C   0  0  0  0  0  0  0  0  0  0  0  0
  -45.8994   -0.4085   20.3280 H   0  0  0  0  0  0  0  0  0  0  0  0
  -47.8491   -1.6245   20.7326 H   0  0  0  0  0  0  0  0  0  0  0  0
  -42.8143    3.4599   22.1345 H   0  0  0  0  0  0  0  0  0  0  0  0
  -50.5343   -1.9696   18.5526 H   0  0  0  0  0  0  0  0  0  0  0  0
  -50.4584   -4.0739   18.9419 H   0  0  0  0  0  0  0  0  0  0  0  0
  -50.1879   -3.5885   16.6449 H   0  0  0  0  0  0  0  0  0  0  0  0
  -51.5164   -5.4683   17.1328 H   0  0  0  0  0  0  0  0  0  0  0  0
  -50.5628   -6.4140   19.4072 H   0  0  0  0  0  0  0  0  0  0  0  0
  -49.1721   -7.1249   17.0041 H   0  0  0  0  0  0  0  0  0  0  0  0
  -47.8644   -2.7087   16.9134 H   0  0  0  0  0  0  0  0  0  0  0  0
  -49.3795   -2.0252   15.3975 H   0  0  0  0  0  0  0  0  0  0  0  0
  -47.3142   -2.0252   13.4335 H   0  0  0  0  0  0  0  0  0  0  0  0
  -45.0331   -2.2632   14.9389 H   0  0  0  0  0  0  0  0  0  0  0  0
  -47.0744   -0.5140   15.8798 H   0  0  0  0  0  0  0  0  0  0  0  0
  -50.9292   -6.8419   15.1491 H   0  0  0  0  0  0  0  0  0  0  0  0
  -51.3041   -8.0845   16.4555 H   0  0  0  0  0  0  0  0  0  0  0  0
  -48.4951   -4.1809   13.7797 H   0  0  0  0  0  0  0  0  0  0  0  0
  -48.7946   -0.6441   12.6964 H   0  0  0  0  0  0  0  0  0  0  0  0
  -45.6769   -0.2995   13.4491 H   0  0  0  0  0  0  0  0  0  0  0  0
  -46.8005   -0.2957   23.8472 H   0  0  0  0  0  0  0  0  0  0  0  0
  -46.4012   -1.3520   22.6295 H   0  0  0  0  0  0  0  0  0  0  0  0
  -48.7518   -1.3215   22.9034 H   0  0  0  0  0  0  0  0  0  0  0  0
  -48.7600    0.2963   22.6421 H   0  0  0  0  0  0  0  0  0  0  0  0
  -44.2777   -0.4477   24.2670 H   0  0  0  0  0  0  0  0  0  0  0  0
  -44.8695    1.1091   24.4027 H   0  0  0  0  0  0  0  0  0  0  0  0
  -46.9441   -0.9968   18.5782 H   0  0  0  0  0  0  0  0  0  0  0  0
  -47.3028    0.5318   18.0200 H   0  0  0  0  0  0  0  0  0  0  0  0
  -42.7844    1.0564   25.4116 H   0  0  0  0  0  0  0  0  0  0  0  0
  -42.1325    0.4029   24.0294 H   0  0  0  0  0  0  0  0  0  0  0  0
  -47.2939    1.8437   23.2950 H   0  0  0  0  0  0  0  0  0  0  0  0
  -45.8244    2.5212   23.0603 H   0  0  0  0  0  0  0  0  0  0  0  0
  -46.9192    2.5239   21.8554 H   0  0  0  0  0  0  0  0  0  0  0  0
  -48.7633   -1.1370   17.0980 H   0  0  0  0  0  0  0  0  0  0  0  0
  -49.5522    0.0491   17.9307 H   0  0  0  0  0  0  0  0  0  0  0  0
  -48.6590    1.8838   19.0514 H   0  0  0  0  0  0  0  0  0  0  0  0
  -49.2572    1.6280   20.5515 H   0  0  0  0  0  0  0  0  0  0  0  0
  -47.8273    2.3847   20.3676 H   0  0  0  0  0  0  0  0  0  0  0  0
  -43.2706   -1.1567   22.5101 H   0  0  0  0  0  0  0  0  0  0  0  0
  -44.3992   -1.2275   21.3290 H   0  0  0  0  0  0  0  0  0  0  0  0
  -43.0715   -0.3073   21.1266 H   0  0  0  0  0  0  0  0  0  0  0  0
  -43.8701    3.0251   20.1687 H   0  0  0  0  0  0  0  0  0  0  0  0
  -41.4780    1.9473   20.6597 H   0  0  0  0  0  0  0  0  0  0  0  0
  -41.0341    1.1669   22.0249 H   0  0  0  0  0  0  0  0  0  0  0  0
  -40.5024    1.9249   24.3786 H   0  0  0  0  0  0  0  0  0  0  0  0
  -41.0689    3.2552   25.1821 H   0  0  0  0  0  0  0  0  0  0  0  0
  -51.2015   -2.2988   21.5528 H   0  0  0  0  0  0  0  0  0  0  0  0
  -50.3414   -3.3224   20.6115 H   0  0  0  0  0  0  0  0  0  0  0  0
  -49.6616   -2.6850   21.9467 H   0  0  0  0  0  0  0  0  0  0  0  0
  -51.6743   -0.6428   21.0038 H   0  0  0  0  0  0  0  0  0  0  0  0
  -50.5936    0.5763   20.8657 H   0  0  0  0  0  0  0  0  0  0  0  0
  -51.2712   -0.0607   19.5295 H   0  0  0  0  0  0  0  0  0  0  0  0
  -39.3791    3.8954   23.6429 H   0  0  0  0  0  0  0  0  0  0  0  0
  -40.8383    4.5529   23.2364 H   0  0  0  0  0  0  0  0  0  0  0  0
  -42.8826    4.1336   25.0388 H   0  0  0  0  0  0  0  0  0  0  0  0
  -43.9146    3.9731   23.7807 H   0  0  0  0  0  0  0  0  0  0  0  0
  -44.0855    3.0264   25.0944 H   0  0  0  0  0  0  0  0  0  0  0  0
  -38.3370    2.8647   20.9764 H   0  0  0  0  0  0  0  0  0  0  0  0
  -38.3228    2.4503   22.5582 H   0  0  0  0  0  0  0  0  0  0  0  0
  -38.9821    1.4425   21.4625 H   0  0  0  0  0  0  0  0  0  0  0  0
  2 32  2  0
  3 47  1  0
  3 50  1  0
  4 46  1  0
  5 46  2  0
  9 52  1  0
  9 56  1  0
 10 53  1  0
 11 53  2  0
 15 58  1  0
 16 58  2  0
 17 19  1  0
 17 20  1  0
 17 22  1  0
 17 33  1  0
 18 19  1  0
 18 21  1  0
 18 29  1  0
 18 35  1  0
 19 32  1  0
 20 25  1  0
 20 28  1  0
 20 36  1  0
 21 23  1  0
 21 24  1  0
 22 24  1  0
 23 31  1  0
 23 41  1  0
 23 42  1  0
 25 26  1  0
 25 37  2  0
 26 27  1  0
 26 38  1  0
 27 30  1  0
 27 39  1  0
 27 44  1  0
 28 30  1  0
 29 34  1  0
 31  1  1  0
 31 34  1  0
 32 37  1  0
 38 40  1  0
 39 43  1  0
 40 43  1  0
 40 45  1  0
 40 46  1  0
 47  1  1  0
 47 48  1  0
 48  6  1  0
 48 49  1  0
 49  7  1  0
 49 51  1  0
 50 51  1  0
 50 53  1  0
 51  8  1  0
 52  6  1  0
 52 54  1  0
 54 12  1  0
 54 55  1  0
 55 13  1  0
 55 57  1  0
 56 57  1  0
 56 58  1  0
 57 14  1  0
  7 73  1  0
  8 74  1  0
 12 75  1  0
 13 76  1  0
 14 77  1  0
 19 59  1  0
 21 60  1  0
 22 78  1  0
 22 79  1  0
 24 80  1  0
 24 81  1  0
 26 61  1  0
 28 82  1  0
 28 83  1  0
 29 84  1  0
 29 85  1  0
 30 86  1  0
 30 87  1  0
 31 62  1  0
 33 88  1  0
 33 89  1  0
 33 90  1  0
 34 91  1  0
 34 92  1  0
 35 93  1  0
 35 94  1  0
 35 95  1  0
 36 96  1  0
 36 97  1  0
 36 98  1  0
 37 99  1  0
 38100  1  0
 38101  1  0
 39102  1  0
 39103  1  0
 41104  1  0
 41105  1  0
 41106  1  0
 42107  1  0
 42108  1  0
 42109  1  0
 43110  1  0
 43111  1  0
 44112  1  0
 44113  1  0
 44114  1  0
 45115  1  0
 45116  1  0
 45117  1  0
 47 63  1  0
 48 64  1  0
 49 65  1  0
 50 66  1  0
 51 67  1  0
 52 68  1  0
 54 69  1  0
 55 70  1  0
 56 71  1  0
 57 72  1  0
M  CHG  3   4  -1  10  -1  15  -1
M  END
>  <LF dG>
-3.053

>  <LF VSscore>
-12.004

>  <LF Rank Score>
-6.292

>  <LF LE>
-0.053

>  <LF Structure Name>
C:\Users\Odara\AppData\Local\Temp\LeadFinder_9848_1\Ligand_1.sdf

>  <LF SDF id>
0

>  <LF Pose rank>
0

>  <LF version>
2001 1, 19 January 2019

>  <PUBCHEM_COMPOUND_CID>
656656

>  <PUBCHEM_COMPOUND_CANONICALIZED>
1

>  <PUBCHEM_CACTVS_COMPLEXITY>
1730

>  <PUBCHEM_CACTVS_HBOND_ACCEPTOR>
18

>  <PUBCHEM_CACTVS_HBOND_DONOR>
10

>  <PUBCHEM_CACTVS_ROTATABLE_BOND>
7

>  <PUBCHEM_CACTVS_SUBSKEYS>
AAADcfB/PgAAAAAAAAAAAAAAAAAAAAAAAAA0aMGCAAAAAADAAAAAGgAQCAAADxSwgAMCCAAABgCIAqDSCAIAAAAgAAAACAFAAEgREBYAAQQiQAAFoAAPAQPK7PzPgAAAAAAAAADAAAYAADAAAAAAAAAAAA==

>  <PUBCHEM_IUPAC_OPENEYE_NAME>
(2S,3S,4S,5R,6R)-6-[(2S,3R,4S,5S,6S)-2-[[(3S,4aR,6aR,6bS,8aS,11S,12aR,14aR,14bS)-11-carboxy-4,4,6a,6b,8a,11,14b-heptamethyl-14-oxo-2,3,4a,5,6,7,8,9,10,12,12a,14a-dodecahydro-1H-picen-3-yl]oxy]-6-carbo

>  <PUBCHEM_IUPAC_CAS_NAME>
(2S,3S,4S,5R,6R)-6-[[(2S,3R,4S,5S,6S)-2-[[(3S,4aR,6aR,6bS,8aS,11S,12aR,14aR,14bS)-11-carboxy-4,4,6a,6b,8a,11,14b-heptamethyl-14-oxo-2,3,4a,5,6,7,8,9,10,12,12a,14a-dodecahydro-1H-picen-3-yl]oxy]-6-carb

>  <PUBCHEM_IUPAC_NAME_MARKUP>
(2<I>S</I>,3<I>S</I>,4<I>S</I>,5<I>R</I>,6<I>R</I>)-6-[(2<I>S</I>,3<I>R</I>,4<I>S</I>,5<I>S</I>,6<I>S</I>)-2-[[(3<I>S</I>,4<I>a</I><I>R</I>,6<I>a</I><I>R</I>,6<I>b</I><I>S</I>,8<I>a</I><I>S</I>,11<I>S

>  <PUBCHEM_IUPAC_NAME>
(2S,3S,4S,5R,6R)-6-[(2S,3R,4S,5S,6S)-2-[[(3S,4aR,6aR,6bS,8aS,11S,12aR,14aR,14bS)-11-carboxy-4,4,6a,6b,8a,11,14b-heptamethyl-14-oxo-2,3,4a,5,6,7,8,9,10,12,12a,14a-dodecahydro-1H-picen-3-yl]oxy]-6-carbo

>  <PUBCHEM_IUPAC_SYSTEMATIC_NAME>
(2S,3S,4S,5R,6R)-6-[(2S,3R,4S,5S,6S)-2-[[(3S,4aR,6aR,6bS,8aS,11S,12aR,14aR,14bS)-11-carboxy-4,4,6a,6b,8a,11,14b-heptamethyl-14-oxidanylidene-2,3,4a,5,6,7,8,9,10,12,12a,14a-dodecahydro-1H-picen-3-yl]ox

>  <PUBCHEM_IUPAC_TRADITIONAL_NAME>
(2S,3S,4S,5R,6R)-6-[(2S,3R,4S,5S,6S)-2-[[(3S,4aR,6aR,6bS,8aS,11S,12aR,14aR,14bS)-11-carboxy-14-keto-4,4,6a,6b,8a,11,14b-heptamethyl-2,3,4a,5,6,7,8,9,10,12,12a,14a-dodecahydro-1H-picen-3-yl]oxy]-6-carb

>  <PUBCHEM_IUPAC_INCHI>
InChI=1S/C42H62O16.2H3N/c1-37(2)21-8-11-42(7)31(20(43)16-18-19-17-39(4,36(53)54)13-12-38(19,3)14-15-41(18,42)6)40(21,5)10-9-22(37)55-35-30(26(47)25(46)29(57-35)33(51)52)58-34-27(48)23(44)24(45)28(56-3

>  <PUBCHEM_IUPAC_INCHIKEY>
SPPIIOPGDLITJE-VLQRKCJKSA-N

>  <PUBCHEM_EXACT_MASS>
856.456884

>  <PUBCHEM_MOLECULAR_FORMULA>
C42H68N2O16

>  <PUBCHEM_MOLECULAR_WEIGHT>
857

>  <PUBCHEM_OPENEYE_CAN_SMILES>
CC1(C2CCC3(C(C2(CCC1OC4C(C(C(C(O4)C(=O)O)O)O)OC5C(C(C(C(O5)C(=O)O)O)O)O)C)C(=O)C=C6C3(CCC7(C6CC(CC7)(C)C(=O)O)C)C)C)C.N.N

>  <PUBCHEM_OPENEYE_ISO_SMILES>
C[C@]12CC[C@](C[C@H]1C3=CC(=O)[C@@H]4[C@]5(CC[C@@H](C([C@@H]5CC[C@]4([C@@]3(CC2)C)C)(C)C)O[C@@H]6[C@@H]([C@H]([C@@H]([C@H](O6)C(=O)O)O)O)O[C@H]7[C@@H]([C@H]([C@@H]([C@H](O7)C(=O)O)O)O)O)C)(C)C(=O)O.N.

>  <PUBCHEM_CACTVS_TPSA>
269

>  <PUBCHEM_MONOISOTOPIC_WEIGHT>
856.456884

>  <PUBCHEM_TOTAL_CHARGE>
0

>  <PUBCHEM_HEAVY_ATOM_COUNT>
60

>  <PUBCHEM_ATOM_DEF_STEREO_COUNT>
19

>  <PUBCHEM_ATOM_UDEF_STEREO_COUNT>
0

>  <PUBCHEM_BOND_DEF_STEREO_COUNT>
0

>  <PUBCHEM_BOND_UDEF_STEREO_COUNT>
0

>  <PUBCHEM_ISOTOPIC_ATOM_COUNT>
0

>  <PUBCHEM_COMPONENT_COUNT>
3

>  <PUBCHEM_CACTVS_TAUTO_COUNT>
-1

>  <PUBCHEM_COORDINATE_TYPE>
1
5
255

>  <PUBCHEM_BONDANNOTATIONS>
33  1  5
49  1  6
56  12  6
57  13  5
59  14  6
19  35  5
20  37  5
21  61  6
22  38  6
23  62  6
28  67  5
29  46  5
42  47  6
52  55  5
58  60  5
50  6  6
54  6  5
51  7  5
53  8  6

>  <Favorite_cresset>
false

>  <MW_cresset>
819.9

>  <#Atoms_cresset>
58

>  <SlogP_cresset>
4.1

>  <TPSA_cresset>
275.5

>  <Flexibility_cresset>
17.3

>  <#RB_cresset>
12

>  <Rof5_cresset>
2

>  <Filename_cresset>
drag.37_386.sdf

>  <Confs_cresset>
0

>  <Poses_cresset>
0

$$$$
Site3m_Diammonium_D
  xed2sdf_05210316543D
 
117123  0  0  1  0  0  0  0  0999 V2000
  -47.8910   -1.8721   17.5683 O   0  0  0  0  0  0  0  0  0  0  0  0
  -41.8114    0.5929   18.9511 O   0  0  0  0  0  0  0  0  0  0  0  0
  -48.2211   -0.9406   15.3427 O   0  0  0  0  0  0  0  0  0  0  0  0
  -36.1258    2.3035   22.5907 O   0  5  0  0  0  0  0  0  0  0  0  0
  -36.6157    0.2616   21.7005 O   0  0  0  0  0  0  0  0  0  0  0  0
  -49.2687   -3.8497   16.9546 O   0  0  0  0  0  0  0  0  0  0  0  0
  -50.6579   -2.1916   15.0919 O   0  0  0  0  0  0  0  0  0  0  0  0
  -48.0034   -3.3227   12.7992 O   0  0  0  0  0  0  0  0  0  0  0  0
  -48.5467   -5.3776   18.7002 O   0  0  0  0  0  0  0  0  0  0  0  0
  -47.5968    0.7386   12.5707 O   0  5  0  0  0  0  0  0  0  0  0  0
  -49.7479    0.3502   13.2315 O   0  0  0  0  0  0  0  0  0  0  0  0
  -50.3418   -5.9751   15.5082 O   0  0  0  0  0  0  0  0  0  0  0  0
  -52.2640   -6.9056   17.4632 O   0  0  0  0  0  0  0  0  0  0  0  0
  -51.9825   -5.7074   20.0925 O   0  0  0  0  0  0  0  0  0  0  0  0
  -48.3375   -6.0820   21.3458 O   0  5  0  0  0  0  0  0  0  0  0  0
  -49.8209   -4.4310   21.8731 O   0  0  0  0  0  0  0  0  0  0  0  0
  -43.6834    1.0879   21.9930 C   0  0  0  0  0  0  0  0  0  0  0  0
  -44.6478    0.2072   19.6185 C   0  0  0  0  0  0  0  0  0  0  0  0
  -43.4857    0.2843   20.6698 C   0  0  0  0  0  0  0  0  0  0  0  0
  -42.5134    0.7080   22.9871 C   0  0  0  0  0  0  0  0  0  0  0  0
  -45.9754   -0.1181   20.3784 C   0  0  0  0  0  0  0  0  0  0  0  0
  -45.0918    0.8040   22.5894 C   0  0  0  0  0  0  0  0  0  0  0  0
  -47.2227   -0.4497   19.4836 C   0  0  0  0  0  0  0  0  0  0  0  0
  -46.2407    0.8594   21.5567 C   0  0  0  0  0  0  0  0  0  0  0  0
  -41.1891    1.0844   22.3287 C   0  0  0  0  0  0  0  0  0  0  0  0
  -39.9778    1.5397   23.1259 C   0  0  0  0  0  0  0  0  0  0  0  0
  -40.2877    2.2694   24.4615 C   0  0  0  0  0  0  0  0  0  0  0  0
  -42.7255    1.3739   24.3816 C   0  0  0  0  0  0  0  0  0  0  0  0
  -44.3095   -0.9621   18.6364 C   0  0  0  0  0  0  0  0  0  0  0  0
  -41.4436    1.5723   25.2207 C   0  0  0  0  0  0  0  0  0  0  0  0
  -46.8081   -1.0917   18.1278 C   0  0  0  0  0  0  0  0  0  0  0  0
  -42.1092    0.6112   20.1297 C   0  0  0  0  0  0  0  0  0  0  0  0
  -43.5859    2.6096   21.6812 C   0  0  0  0  0  0  0  0  0  0  0  0
  -45.4960   -1.8912   18.2859 C   0  0  0  0  0  0  0  0  0  0  0  0
  -44.7331    1.5096   18.7737 C   0  0  0  0  0  0  0  0  0  0  0  0
  -42.3432   -0.8184   23.2273 C   0  0  0  0  0  0  0  0  0  0  0  0
  -41.0403    1.0615   20.9969 C   0  0  0  0  0  0  0  0  0  0  0  0
  -39.0122    0.3578   23.3605 C   0  0  0  0  0  0  0  0  0  0  0  0
  -39.0483    2.2815   25.4007 C   0  0  0  0  0  0  0  0  0  0  0  0
  -37.6111    0.8698   23.7927 C   0  0  0  0  0  0  0  0  0  0  0  0
  -48.1575   -1.4330   20.2309 C   0  0  0  0  0  0  0  0  0  0  0  0
  -48.0843    0.7908   19.1679 C   0  0  0  0  0  0  0  0  0  0  0  0
  -37.7148    2.1719   24.6301 C   0  0  0  0  0  0  0  0  0  0  0  0
  -40.6674    3.7314   24.1460 C   0  0  0  0  0  0  0  0  0  0  0  0
  -36.9243   -0.2347   24.6190 C   0  0  0  0  0  0  0  0  0  0  0  0
  -36.7172    1.1657   22.6032 C   0  0  0  0  0  0  0  0  0  0  0  0
  -47.8093   -2.0753   16.1394 C   0  0  0  0  0  0  0  0  0  0  0  0
  -48.6118   -3.3486   15.7710 C   0  0  0  0  0  0  0  0  0  0  0  0
  -49.6006   -3.0409   14.6213 C   0  0  0  0  0  0  0  0  0  0  0  0
  -48.0506   -1.1621   13.9286 C   0  0  0  0  0  0  0  0  0  0  0  0
  -48.8687   -2.3746   13.4401 C   0  0  0  0  0  0  0  0  0  0  0  0
  -48.8860   -5.1966   17.3054 C   0  0  0  0  0  0  0  0  0  0  0  0
  -48.4998    0.0690   13.1843 C   0  0  0  0  0  0  0  0  0  0  0  0
  -50.0036   -6.1728   16.8889 C   0  0  0  0  0  0  0  0  0  0  0  0
  -51.2402   -5.9512   17.7831 C   0  0  0  0  0  0  0  0  0  0  0  0
  -49.6577   -5.1522   19.5980 C   0  0  0  0  0  0  0  0  0  0  0  0
  -50.8602   -6.0659   19.2735 C   0  0  0  0  0  0  0  0  0  0  0  0
  -49.2443   -5.2273   21.0516 C   0  0  0  0  0  0  0  0  0  0  0  0
  -43.5448   -0.6812   20.9233 H   0  0  0  0  0  0  0  0  0  0  0  0
  -45.8105   -1.0091   20.8017 H   0  0  0  0  0  0  0  0  0  0  0  0
  -39.5433    2.2365   22.5553 H   0  0  0  0  0  0  0  0  0  0  0  0
  -49.9947   -3.9032   14.3035 H   0  0  0  0  0  0  0  0  0  0  0  0
  -47.0841   -1.3502   13.7547 H   0  0  0  0  0  0  0  0  0  0  0  0
  -49.5508   -2.0569   12.7815 H   0  0  0  0  0  0  0  0  0  0  0  0
  -49.6827   -7.1128   17.0042 H   0  0  0  0  0  0  0  0  0  0  0  0
  -51.5904   -5.0301   17.6128 H   0  0  0  0  0  0  0  0  0  0  0  0
  -49.9674   -4.2137   19.4449 H   0  0  0  0  0  0  0  0  0  0  0  0
  -50.6016   -7.0126   19.4651 H   0  0  0  0  0  0  0  0  0  0  0  0
  -50.9666   -1.5587   14.3736 H   0  0  0  0  0  0  0  0  0  0  0  0
  -47.0710   -2.9586   12.7012 H   0  0  0  0  0  0  0  0  0  0  0  0
  -50.8479   -6.7620   15.1392 H   0  0  0  0  0  0  0  0  0  0  0  0
  -52.0569   -7.3903   16.6063 H   0  0  0  0  0  0  0  0  0  0  0  0
  -52.1857   -4.7246   20.0241 H   0  0  0  0  0  0  0  0  0  0  0  0
  -45.2745    1.4817   23.3019 H   0  0  0  0  0  0  0  0  0  0  0  0
  -45.0704   -0.1310   22.9432 H   0  0  0  0  0  0  0  0  0  0  0  0
  -47.0990    0.6095   22.0045 H   0  0  0  0  0  0  0  0  0  0  0  0
  -46.2967    1.7893   21.1932 H   0  0  0  0  0  0  0  0  0  0  0  0
  -43.3554    0.8012   24.9059 H   0  0  0  0  0  0  0  0  0  0  0  0
  -43.0790    2.2913   24.1984 H   0  0  0  0  0  0  0  0  0  0  0  0
  -43.5899   -1.5182   19.0517 H   0  0  0  0  0  0  0  0  0  0  0  0
  -44.0327   -0.5314   17.7773 H   0  0  0  0  0  0  0  0  0  0  0  0
  -41.6730    2.1256   26.0216 H   0  0  0  0  0  0  0  0  0  0  0  0
  -41.1173    0.6589   25.4638 H   0  0  0  0  0  0  0  0  0  0  0  0
  -46.6222   -0.3654   17.4657 H   0  0  0  0  0  0  0  0  0  0  0  0
  -44.4470    3.0497   21.9352 H   0  0  0  0  0  0  0  0  0  0  0  0
  -42.8342    3.0138   22.2025 H   0  0  0  0  0  0  0  0  0  0  0  0
  -43.4137    2.7429   20.7052 H   0  0  0  0  0  0  0  0  0  0  0  0
  -45.6089   -2.5663   19.0151 H   0  0  0  0  0  0  0  0  0  0  0  0
  -45.2963   -2.3430   17.4165 H   0  0  0  0  0  0  0  0  0  0  0  0
  -44.5528    1.2883   17.8153 H   0  0  0  0  0  0  0  0  0  0  0  0
  -45.6452    1.9099   18.8611 H   0  0  0  0  0  0  0  0  0  0  0  0
  -44.0559    2.1683   19.1012 H   0  0  0  0  0  0  0  0  0  0  0  0
  -42.4100   -1.0029   24.2078 H   0  0  0  0  0  0  0  0  0  0  0  0
  -43.0592   -1.3186   22.7406 H   0  0  0  0  0  0  0  0  0  0  0  0
  -41.4504   -1.1150   22.8880 H   0  0  0  0  0  0  0  0  0  0  0  0
  -40.1753    1.3613   20.5947 H   0  0  0  0  0  0  0  0  0  0  0  0
  -38.9253   -0.1695   22.5152 H   0  0  0  0  0  0  0  0  0  0  0  0
  -39.3813   -0.2182   24.0899 H   0  0  0  0  0  0  0  0  0  0  0  0
  -39.1182    1.5117   26.0349 H   0  0  0  0  0  0  0  0  0  0  0  0
  -39.0448    3.1570   25.8841 H   0  0  0  0  0  0  0  0  0  0  0  0
  -49.0641   -1.0194   20.3159 H   0  0  0  0  0  0  0  0  0  0  0  0
  -48.2248   -2.2898   19.7196 H   0  0  0  0  0  0  0  0  0  0  0  0
  -47.7872   -1.6246   21.1400 H   0  0  0  0  0  0  0  0  0  0  0  0
  -49.0085    0.6437   19.5207 H   0  0  0  0  0  0  0  0  0  0  0  0
  -47.6840    1.5992   19.5996 H   0  0  0  0  0  0  0  0  0  0  0  0
  -48.1191    0.9337   18.1788 H   0  0  0  0  0  0  0  0  0  0  0  0
  -36.9614    2.1934   25.2870 H   0  0  0  0  0  0  0  0  0  0  0  0
  -37.6704    2.9422   23.9938 H   0  0  0  0  0  0  0  0  0  0  0  0
  -40.0307    4.3421   24.6169 H   0  0  0  0  0  0  0  0  0  0  0  0
  -40.6172    3.8882   23.1596 H   0  0  0  0  0  0  0  0  0  0  0  0
  -41.6007    3.9116   24.4570 H   0  0  0  0  0  0  0  0  0  0  0  0
  -36.0643   -0.4864   24.1752 H   0  0  0  0  0  0  0  0  0  0  0  0
  -36.7411    0.0994   25.5434 H   0  0  0  0  0  0  0  0  0  0  0  0
  -37.5224   -1.0345   24.6745 H   0  0  0  0  0  0  0  0  0  0  0  0
  -46.8419   -2.1916   15.9146 H   0  0  0  0  0  0  0  0  0  0  0  0
  -47.9990   -4.0646   15.4365 H   0  0  0  0  0  0  0  0  0  0  0  0
  -48.0435   -5.3912   16.8032 H   0  0  0  0  0  0  0  0  0  0  0  0
  2 32  2  0
  3 47  1  0
  3 50  1  0
  4 46  1  0
  5 46  2  0
  9 52  1  0
  9 56  1  0
 10 53  1  0
 11 53  2  0
 15 58  1  0
 16 58  2  0
 17 19  1  0
 17 20  1  0
 17 22  1  0
 17 33  1  0
 18 19  1  0
 18 21  1  0
 18 29  1  0
 18 35  1  0
 19 32  1  0
 20 25  1  0
 20 28  1  0
 20 36  1  0
 21 23  1  0
 21 24  1  0
 22 24  1  0
 23 31  1  0
 23 41  1  0
 23 42  1  0
 25 26  1  0
 25 37  2  0
 26 27  1  0
 26 38  1  0
 27 30  1  0
 27 39  1  0
 27 44  1  0
 28 30  1  0
 29 34  1  0
 31  1  1  0
 31 34  1  0
 32 37  1  0
 38 40  1  0
 39 43  1  0
 40 43  1  0
 40 45  1  0
 40 46  1  0
 47  1  1  0
 47 48  1  0
 48  6  1  0
 48 49  1  0
 49  7  1  0
 49 51  1  0
 50 51  1  0
 50 53  1  0
 51  8  1  0
 52  6  1  0
 52 54  1  0
 54 12  1  0
 54 55  1  0
 55 13  1  0
 55 57  1  0
 56 57  1  0
 56 58  1  0
 57 14  1  0
  7 69  1  0
  8 70  1  0
 12 71  1  0
 13 72  1  0
 14 73  1  0
 19 59  1  0
 21 60  1  0
 22 74  1  0
 22 75  1  0
 24 76  1  0
 24 77  1  0
 26 61  1  0
 28 78  1  0
 28 79  1  0
 29 80  1  0
 29 81  1  0
 30 82  1  0
 30 83  1  0
 31 84  1  0
 33 85  1  0
 33 86  1  0
 33 87  1  0
 34 88  1  0
 34 89  1  0
 35 90  1  0
 35 91  1  0
 35 92  1  0
 36 93  1  0
 36 94  1  0
 36 95  1  0
 37 96  1  0
 38 97  1  0
 38 98  1  0
 39 99  1  0
 39100  1  0
 41101  1  0
 41102  1  0
 41103  1  0
 42104  1  0
 42105  1  0
 42106  1  0
 43107  1  0
 43108  1  0
 44109  1  0
 44110  1  0
 44111  1  0
 45112  1  0
 45113  1  0
 45114  1  0
 47115  1  0
 48116  1  0
 49 62  1  0
 50 63  1  0
 51 64  1  0
 52117  1  0
 54 65  1  0
 55 66  1  0
 56 67  1  0
 57 68  1  0
M  CHG  3   4  -1  10  -1  15  -1
M  END
>  <LF dG>
-5.31

>  <LF VSscore>
-10.908

>  <LF Rank Score>
-5.211

>  <LF LE>
-0.092

>  <LF Structure Name>
C:\Users\Odara\AppData\Local\Temp\LeadFinder_2932_1\Ligand_1.sdf

>  <LF SDF id>
0

>  <LF Pose rank>
0

>  <LF version>
2001 1, 19 January 2019

>  <PUBCHEM_COMPOUND_CID>
656656

>  <PUBCHEM_COMPOUND_CANONICALIZED>
1

>  <PUBCHEM_CACTVS_COMPLEXITY>
1730

>  <PUBCHEM_CACTVS_HBOND_ACCEPTOR>
18

>  <PUBCHEM_CACTVS_HBOND_DONOR>
10

>  <PUBCHEM_CACTVS_ROTATABLE_BOND>
7

>  <PUBCHEM_CACTVS_SUBSKEYS>
AAADcfB/PgAAAAAAAAAAAAAAAAAAAAAAAAA0aMGCAAAAAADAAAAAGgAQCAAADxSwgAMCCAAABgCIAqDSCAIAAAAgAAAACAFAAEgREBYAAQQiQAAFoAAPAQPK7PzPgAAAAAAAAADAAAYAADAAAAAAAAAAAA==

>  <PUBCHEM_IUPAC_OPENEYE_NAME>
(2S,3S,4S,5R,6R)-6-[(2S,3R,4S,5S,6S)-2-[[(3S,4aR,6aR,6bS,8aS,11S,12aR,14aR,14bS)-11-carboxy-4,4,6a,6b,8a,11,14b-heptamethyl-14-oxo-2,3,4a,5,6,7,8,9,10,12,12a,14a-dodecahydro-1H-picen-3-yl]oxy]-6-carbo

>  <PUBCHEM_IUPAC_CAS_NAME>
(2S,3S,4S,5R,6R)-6-[[(2S,3R,4S,5S,6S)-2-[[(3S,4aR,6aR,6bS,8aS,11S,12aR,14aR,14bS)-11-carboxy-4,4,6a,6b,8a,11,14b-heptamethyl-14-oxo-2,3,4a,5,6,7,8,9,10,12,12a,14a-dodecahydro-1H-picen-3-yl]oxy]-6-carb

>  <PUBCHEM_IUPAC_NAME_MARKUP>
(2<I>S</I>,3<I>S</I>,4<I>S</I>,5<I>R</I>,6<I>R</I>)-6-[(2<I>S</I>,3<I>R</I>,4<I>S</I>,5<I>S</I>,6<I>S</I>)-2-[[(3<I>S</I>,4<I>a</I><I>R</I>,6<I>a</I><I>R</I>,6<I>b</I><I>S</I>,8<I>a</I><I>S</I>,11<I>S

>  <PUBCHEM_IUPAC_NAME>
(2S,3S,4S,5R,6R)-6-[(2S,3R,4S,5S,6S)-2-[[(3S,4aR,6aR,6bS,8aS,11S,12aR,14aR,14bS)-11-carboxy-4,4,6a,6b,8a,11,14b-heptamethyl-14-oxo-2,3,4a,5,6,7,8,9,10,12,12a,14a-dodecahydro-1H-picen-3-yl]oxy]-6-carbo

>  <PUBCHEM_IUPAC_SYSTEMATIC_NAME>
(2S,3S,4S,5R,6R)-6-[(2S,3R,4S,5S,6S)-2-[[(3S,4aR,6aR,6bS,8aS,11S,12aR,14aR,14bS)-11-carboxy-4,4,6a,6b,8a,11,14b-heptamethyl-14-oxidanylidene-2,3,4a,5,6,7,8,9,10,12,12a,14a-dodecahydro-1H-picen-3-yl]ox

>  <PUBCHEM_IUPAC_TRADITIONAL_NAME>
(2S,3S,4S,5R,6R)-6-[(2S,3R,4S,5S,6S)-2-[[(3S,4aR,6aR,6bS,8aS,11S,12aR,14aR,14bS)-11-carboxy-14-keto-4,4,6a,6b,8a,11,14b-heptamethyl-2,3,4a,5,6,7,8,9,10,12,12a,14a-dodecahydro-1H-picen-3-yl]oxy]-6-carb

>  <PUBCHEM_IUPAC_INCHI>
InChI=1S/C42H62O16.2H3N/c1-37(2)21-8-11-42(7)31(20(43)16-18-19-17-39(4,36(53)54)13-12-38(19,3)14-15-41(18,42)6)40(21,5)10-9-22(37)55-35-30(26(47)25(46)29(57-35)33(51)52)58-34-27(48)23(44)24(45)28(56-3

>  <PUBCHEM_IUPAC_INCHIKEY>
SPPIIOPGDLITJE-VLQRKCJKSA-N

>  <PUBCHEM_EXACT_MASS>
856.456884

>  <PUBCHEM_MOLECULAR_FORMULA>
C42H68N2O16

>  <PUBCHEM_MOLECULAR_WEIGHT>
857

>  <PUBCHEM_OPENEYE_CAN_SMILES>
CC1(C2CCC3(C(C2(CCC1OC4C(C(C(C(O4)C(=O)O)O)O)OC5C(C(C(C(O5)C(=O)O)O)O)O)C)C(=O)C=C6C3(CCC7(C6CC(CC7)(C)C(=O)O)C)C)C)C.N.N

>  <PUBCHEM_OPENEYE_ISO_SMILES>
C[C@]12CC[C@](C[C@H]1C3=CC(=O)[C@@H]4[C@]5(CC[C@@H](C([C@@H]5CC[C@]4([C@@]3(CC2)C)C)(C)C)O[C@@H]6[C@@H]([C@H]([C@@H]([C@H](O6)C(=O)O)O)O)O[C@H]7[C@@H]([C@H]([C@@H]([C@H](O7)C(=O)O)O)O)O)C)(C)C(=O)O.N.

>  <PUBCHEM_CACTVS_TPSA>
269

>  <PUBCHEM_MONOISOTOPIC_WEIGHT>
856.456884

>  <PUBCHEM_TOTAL_CHARGE>
0

>  <PUBCHEM_HEAVY_ATOM_COUNT>
60

>  <PUBCHEM_ATOM_DEF_STEREO_COUNT>
19

>  <PUBCHEM_ATOM_UDEF_STEREO_COUNT>
0

>  <PUBCHEM_BOND_DEF_STEREO_COUNT>
0

>  <PUBCHEM_BOND_UDEF_STEREO_COUNT>
0

>  <PUBCHEM_ISOTOPIC_ATOM_COUNT>
0

>  <PUBCHEM_COMPONENT_COUNT>
3

>  <PUBCHEM_CACTVS_TAUTO_COUNT>
-1

>  <PUBCHEM_COORDINATE_TYPE>
1
5
255

>  <PUBCHEM_BONDANNOTATIONS>
33  1  5
49  1  6
56  12  6
57  13  5
59  14  6
19  35  5
20  37  5
21  61  6
22  38  6
23  62  6
28  67  5
29  46  5
42  47  6
52  55  5
58  60  5
50  6  6
54  6  5
51  7  5
53  8  6

>  <Favorite_cresset>
false

>  <MW_cresset>
819.9

>  <#Atoms_cresset>
58

>  <SlogP_cresset>
4.1

>  <TPSA_cresset>
275.5

>  <Flexibility_cresset>
17.3

>  <#RB_cresset>
12

>  <Rof5_cresset>
2

>  <Filename_cresset>
drag.39_950.sdf

>  <Confs_cresset>
0

>  <Poses_cresset>
0

$$$$
Site3m_Baicalein_D
  xed2sdf_05210316543D
 
 30 32  0  0  0  0  0  0  0  0999 V2000
  -46.9228   -3.0930   17.0541 O   0  0  0  0  0  0  0  0  0  0  0  0
  -50.2068   -3.2460   13.4981 O   0  0  0  0  0  0  0  0  0  0  0  0
  -51.1828   -5.5330   14.5551 O   0  0  0  0  0  0  0  0  0  0  0  0
  -50.0628   -6.6010   16.8241 O   0  0  0  0  0  0  0  0  0  0  0  0
  -48.3408   -1.2850   13.7311 O   0  0  0  0  0  0  0  0  0  0  0  0
  -48.5388   -3.0990   15.2371 C   0  0  0  0  0  0  0  0  0  0  0  0
  -47.9758   -3.6490   16.3941 C   0  0  0  0  0  0  0  0  0  0  0  0
  -46.3708   -1.9410   16.5531 C   0  0  0  0  0  0  0  0  0  0  0  0
  -49.6258   -3.7440   14.6231 C   0  0  0  0  0  0  0  0  0  0  0  0
  -47.9428   -1.8730   14.7361 C   0  0  0  0  0  0  0  0  0  0  0  0
  -46.8398   -1.3200   15.4331 C   0  0  0  0  0  0  0  0  0  0  0  0
  -45.2078   -1.3880   17.2951 C   0  0  0  0  0  0  0  0  0  0  0  0
  -48.5018   -4.8200   16.9091 C   0  0  0  0  0  0  0  0  0  0  0  0
  -50.1268   -4.9060   15.1561 C   0  0  0  0  0  0  0  0  0  0  0  0
  -49.5638   -5.4500   16.3031 C   0  0  0  0  0  0  0  0  0  0  0  0
  -43.9848   -2.0390   17.3781 C   0  0  0  0  0  0  0  0  0  0  0  0
  -45.3468   -0.1660   17.9361 C   0  0  0  0  0  0  0  0  0  0  0  0
  -42.9408   -1.4870   18.0811 C   0  0  0  0  0  0  0  0  0  0  0  0
  -44.3028    0.3850   18.6391 C   0  0  0  0  0  0  0  0  0  0  0  0
  -43.0978   -0.2740   18.7131 C   0  0  0  0  0  0  0  0  0  0  0  0
  -49.5398   -3.0800   12.7681 H   0  0  0  0  0  0  0  0  0  0  0  0
  -51.1698   -6.5240   14.7281 H   0  0  0  0  0  0  0  0  0  0  0  0
  -50.5338   -7.1480   16.1231 H   0  0  0  0  0  0  0  0  0  0  0  0
  -46.4078   -0.4800   15.1051 H   0  0  0  0  0  0  0  0  0  0  0  0
  -48.1018   -5.2160   17.7361 H   0  0  0  0  0  0  0  0  0  0  0  0
  -43.8618   -2.9210   16.9211 H   0  0  0  0  0  0  0  0  0  0  0  0
  -46.2178    0.3200   17.8871 H   0  0  0  0  0  0  0  0  0  0  0  0
  -42.0658   -1.9670   18.1321 H   0  0  0  0  0  0  0  0  0  0  0  0
  -44.4188    1.2670   19.0961 H   0  0  0  0  0  0  0  0  0  0  0  0
  -42.3368    0.1260   19.2251 H   0  0  0  0  0  0  0  0  0  0  0  0
  1  7  1  0
  1  8  1  0
  2  9  1  0
  3 14  1  0
  4 15  1  0
  5 10  2  0
  6  7  2  0
  6  9  1  0
  6 10  1  0
  7 13  1  0
  8 11  2  0
  8 12  1  0
  9 14  2  0
 10 11  1  0
 12 16  2  0
 12 17  1  0
 13 15  2  0
 14 15  1  0
 16 18  1  0
 17 19  2  0
 18 20  2  0
 19 20  1  0
  2 21  1  0
  3 22  1  0
  4 23  1  0
 11 24  1  0
 13 25  1  0
 16 26  1  0
 17 27  1  0
 18 28  1  0
 19 29  1  0
 20 30  1  0
M  END
>  <LF dG>
-6.911

>  <LF VSscore>
-7.292

>  <LF Rank Score>
-9.467

>  <LF LE>
-0.346

>  <LF Structure Name>
C:\Users\Odara\AppData\Local\Temp\LeadFinder_3872_1\Ligand_1.sdf

>  <LF SDF id>
0

>  <LF Pose rank>
0

>  <LF version>
2001 1, 19 January 2019

>  <PUBCHEM_COMPOUND_CID>
5281605

>  <PUBCHEM_COMPOUND_CANONICALIZED>
1

>  <PUBCHEM_CACTVS_COMPLEXITY>
413

>  <PUBCHEM_CACTVS_HBOND_ACCEPTOR>
5

>  <PUBCHEM_CACTVS_HBOND_DONOR>
3

>  <PUBCHEM_CACTVS_ROTATABLE_BOND>
1

>  <PUBCHEM_CACTVS_SUBSKEYS>
AAADccBwOAAAAAAAAAAAAAAAAAAAAAAAAAAwYIAAAAAAAACBQAAAGgAACAAADASAmAAwBoAABgCIAqBSAAACCAAkIAAIiAEGiMgNJzaGNRqCeWGl4BUJuQfK7LzOIQABCAAIQABCAAIQABCAAAAAAAAAAA==

>  <PUBCHEM_IUPAC_OPENEYE_NAME>
5,6,7-trihydroxy-2-phenyl-chromen-4-one

>  <PUBCHEM_IUPAC_CAS_NAME>
5,6,7-trihydroxy-2-phenyl-1-benzopyran-4-one

>  <PUBCHEM_IUPAC_NAME_MARKUP>
5,6,7-trihydroxy-2-phenylchromen-4-one

>  <PUBCHEM_IUPAC_NAME>
5,6,7-trihydroxy-2-phenylchromen-4-one

>  <PUBCHEM_IUPAC_SYSTEMATIC_NAME>
5,6,7-tris(oxidanyl)-2-phenyl-chromen-4-one

>  <PUBCHEM_IUPAC_TRADITIONAL_NAME>
5,6,7-trihydroxy-2-phenyl-chromone

>  <PUBCHEM_IUPAC_INCHI>
InChI=1S/C15H10O5/c16-9-6-11(8-4-2-1-3-5-8)20-12-7-10(17)14(18)15(19)13(9)12/h1-7,17-19H

>  <PUBCHEM_IUPAC_INCHIKEY>
FXNFHKRTJBSTCS-UHFFFAOYSA-N

>  <PUBCHEM_XLOGP3>
1.7

>  <PUBCHEM_EXACT_MASS>
270.052823

>  <PUBCHEM_MOLECULAR_FORMULA>
C15H10O5

>  <PUBCHEM_MOLECULAR_WEIGHT>
270.24

>  <PUBCHEM_OPENEYE_CAN_SMILES>
C1=CC=C(C=C1)C2=CC(=O)C3=C(O2)C=C(C(=C3O)O)O

>  <PUBCHEM_OPENEYE_ISO_SMILES>
C1=CC=C(C=C1)C2=CC(=O)C3=C(O2)C=C(C(=C3O)O)O

>  <PUBCHEM_CACTVS_TPSA>
87

>  <PUBCHEM_MONOISOTOPIC_WEIGHT>
270.052823

>  <PUBCHEM_TOTAL_CHARGE>
0

>  <PUBCHEM_HEAVY_ATOM_COUNT>
20

>  <PUBCHEM_ATOM_DEF_STEREO_COUNT>
0

>  <PUBCHEM_ATOM_UDEF_STEREO_COUNT>
0

>  <PUBCHEM_BOND_DEF_STEREO_COUNT>
0

>  <PUBCHEM_BOND_UDEF_STEREO_COUNT>
0

>  <PUBCHEM_ISOTOPIC_ATOM_COUNT>
0

>  <PUBCHEM_COMPONENT_COUNT>
1

>  <PUBCHEM_CACTVS_TAUTO_COUNT>
-1

>  <PUBCHEM_COORDINATE_TYPE>
1
5
255

>  <PUBCHEM_BONDANNOTATIONS>
1  7  8
1  8  8
10  11  8
12  16  8
12  17  8
13  15  8
14  15  8
16  18  8
17  19  8
18  20  8
19  20  8
6  10  8
6  7  8
6  9  8
7  13  8
8  11  8
9  14  8

>  <Preferred Pose_cresset>
true

>  <Favorite_cresset>
false

>  <MW_cresset>
270.2

>  <#Atoms_cresset>
20

>  <SlogP_cresset>
2.3

>  <TPSA_cresset>
87

>  <Flexibility_cresset>
1.7

>  <#RB_cresset>
4

>  <Rof5_cresset>
0

>  <Filename_cresset>
bicalein 3 monomer no water.sdf

>  <Confs_cresset>
0

>  <Poses_cresset>
10

>  <_cresset_fieldpoints>
    -5     -46.506668      -3.314907      19.077595     -3.5239
    -5     -45.116356      -2.271839      20.352303     -2.8322
    -5     -51.903786      -4.109028      13.293571    -13.2751
    -5     -50.241394      -1.190293      13.520447    -16.6259
    -5     -48.090843       0.382422      12.851336    -14.8159
    -5     -50.529549      -6.665582      18.679588     -6.1017
    -5     -42.964401       0.635324      15.723158     -2.2081
    -6     -46.531036      -6.005102      18.921051      1.7513
    -6     -51.109711      -8.338743      14.878912     16.9360
    -6     -42.061977      -4.222569      16.801346      3.0450
    -6     -44.749584      -4.101150      15.329771      3.3626
    -6     -48.418663      -4.069740      11.573542      5.1691
    -6     -48.198891       0.509746      17.582397      2.8114
    -6     -47.759884       1.280430      17.065468      2.8053
    -6     -46.676613       2.343360      18.804611      2.9847
    -6     -42.619793       2.270276      20.326885      2.7766
    -6     -40.203640      -1.076618      19.315580      2.7891
    -7     -45.153610      -3.830859      14.625273     -2.5818
    -7     -51.426842      -4.887175      12.059759     -1.3698
    -7     -50.803146      -0.856985      13.556167     -1.6976
    -7     -50.908325      -2.305502      17.571129     -1.8054
    -7     -47.252563      -3.180020      12.144232     -1.7690
    -7     -52.756199      -6.549664      16.446817     -1.4771
    -7     -46.793152      -5.715723      13.932846     -1.8259
    -7     -49.462540      -8.072403      14.224905     -1.3760
    -7     -43.856728       0.413238      14.899942     -2.0363
    -7     -46.494339      -3.470890      19.446762     -2.4276
    -7     -48.781921      -0.642678      17.710352     -2.5937
    -7     -42.458916       2.531209      20.520113     -0.9671
    -7     -39.877991      -1.044036      19.485132     -0.9675
    -8     -49.024223      -4.255516      15.783005      6.5997
    -8     -44.146523      -0.825786      18.001591      7.1516
    -8     -47.568172      -2.369813      15.615930      5.0101

$$$$
W_Site3m_Baicalein_D
  xed2sdf_05210316543D
 
 30 32  0  0  0  0  0  0  0  0999 V2000
  -46.9351   -3.0858   17.0431 O   0  0  0  0  0  0  0  0  0  0  0  0
  -50.2191   -3.2418   13.4871 O   0  0  0  0  0  0  0  0  0  0  0  0
  -51.2071   -5.5178   14.5551 O   0  0  0  0  0  0  0  0  0  0  0  0
  -50.0931   -6.5798   16.8301 O   0  0  0  0  0  0  0  0  0  0  0  0
  -48.3431   -1.2888   13.7091 O   0  0  0  0  0  0  0  0  0  0  0  0
  -48.5501   -3.0938   15.2251 C   0  0  0  0  0  0  0  0  0  0  0  0
  -47.9911   -3.6408   16.3851 C   0  0  0  0  0  0  0  0  0  0  0  0
  -46.3771   -1.9398   16.5361 C   0  0  0  0  0  0  0  0  0  0  0  0
  -49.6411   -3.7368   14.6151 C   0  0  0  0  0  0  0  0  0  0  0  0
  -47.9481   -1.8728   14.7181 C   0  0  0  0  0  0  0  0  0  0  0  0
  -46.8421   -1.3228   15.4121 C   0  0  0  0  0  0  0  0  0  0  0  0
  -45.2121   -1.3888   17.2761 C   0  0  0  0  0  0  0  0  0  0  0  0
  -48.5221   -4.8058   16.9061 C   0  0  0  0  0  0  0  0  0  0  0  0
  -50.1471   -4.8938   15.1541 C   0  0  0  0  0  0  0  0  0  0  0  0
  -49.5881   -5.4338   16.3031 C   0  0  0  0  0  0  0  0  0  0  0  0
  -43.9901   -2.0428   17.3571 C   0  0  0  0  0  0  0  0  0  0  0  0
  -45.3461   -0.1658   17.9161 C   0  0  0  0  0  0  0  0  0  0  0  0
  -42.9441   -1.4928   18.0571 C   0  0  0  0  0  0  0  0  0  0  0  0
  -44.3001    0.3842   18.6161 C   0  0  0  0  0  0  0  0  0  0  0  0
  -43.0961   -0.2788   18.6891 C   0  0  0  0  0  0  0  0  0  0  0  0
  -49.5501   -3.0738   12.7601 H   0  0  0  0  0  0  0  0  0  0  0  0
  -51.1861   -6.5108   14.7131 H   0  0  0  0  0  0  0  0  0  0  0  0
  -50.5621   -7.1308   16.1301 H   0  0  0  0  0  0  0  0  0  0  0  0
  -46.4061   -0.4858   15.0811 H   0  0  0  0  0  0  0  0  0  0  0  0
  -48.1251   -5.1998   17.7351 H   0  0  0  0  0  0  0  0  0  0  0  0
  -43.8701   -2.9248   16.9011 H   0  0  0  0  0  0  0  0  0  0  0  0
  -46.2171    0.3222   17.8671 H   0  0  0  0  0  0  0  0  0  0  0  0
  -42.0691   -1.9748   18.1081 H   0  0  0  0  0  0  0  0  0  0  0  0
  -44.4131    1.2662   19.0731 H   0  0  0  0  0  0  0  0  0  0  0  0
  -42.3341    0.1202   19.1991 H   0  0  0  0  0  0  0  0  0  0  0  0
  1  7  1  0
  1  8  1  0
  2  9  1  0
  3 14  1  0
  4 15  1  0
  5 10  2  0
  6  7  2  0
  6  9  1  0
  6 10  1  0
  7 13  1  0
  8 11  2  0
  8 12  1  0
  9 14  2  0
 10 11  1  0
 12 16  2  0
 12 17  1  0
 13 15  2  0
 14 15  1  0
 16 18  1  0
 17 19  2  0
 18 20  2  0
 19 20  1  0
  2 21  1  0
  3 22  1  0
  4 23  1  0
 11 24  1  0
 13 25  1  0
 16 26  1  0
 17 27  1  0
 18 28  1  0
 19 29  1  0
 20 30  1  0
M  END
>  <LF dG>
-6.974

>  <LF VSscore>
-7.354

>  <LF Rank Score>
-9.518

>  <LF LE>
-0.349

>  <LF Structure Name>
C:\Users\Odara\AppData\Local\Temp\LeadFinder_9816_1\Ligand_1.sdf

>  <LF SDF id>
0

>  <LF Pose rank>
0

>  <LF version>
2001 1, 19 January 2019

>  <PUBCHEM_COMPOUND_CID>
5281605

>  <PUBCHEM_COMPOUND_CANONICALIZED>
1

>  <PUBCHEM_CACTVS_COMPLEXITY>
413

>  <PUBCHEM_CACTVS_HBOND_ACCEPTOR>
5

>  <PUBCHEM_CACTVS_HBOND_DONOR>
3

>  <PUBCHEM_CACTVS_ROTATABLE_BOND>
1

>  <PUBCHEM_CACTVS_SUBSKEYS>
AAADccBwOAAAAAAAAAAAAAAAAAAAAAAAAAAwYIAAAAAAAACBQAAAGgAACAAADASAmAAwBoAABgCIAqBSAAACCAAkIAAIiAEGiMgNJzaGNRqCeWGl4BUJuQfK7LzOIQABCAAIQABCAAIQABCAAAAAAAAAAA==

>  <PUBCHEM_IUPAC_OPENEYE_NAME>
5,6,7-trihydroxy-2-phenyl-chromen-4-one

>  <PUBCHEM_IUPAC_CAS_NAME>
5,6,7-trihydroxy-2-phenyl-1-benzopyran-4-one

>  <PUBCHEM_IUPAC_NAME_MARKUP>
5,6,7-trihydroxy-2-phenylchromen-4-one

>  <PUBCHEM_IUPAC_NAME>
5,6,7-trihydroxy-2-phenylchromen-4-one

>  <PUBCHEM_IUPAC_SYSTEMATIC_NAME>
5,6,7-tris(oxidanyl)-2-phenyl-chromen-4-one

>  <PUBCHEM_IUPAC_TRADITIONAL_NAME>
5,6,7-trihydroxy-2-phenyl-chromone

>  <PUBCHEM_IUPAC_INCHI>
InChI=1S/C15H10O5/c16-9-6-11(8-4-2-1-3-5-8)20-12-7-10(17)14(18)15(19)13(9)12/h1-7,17-19H

>  <PUBCHEM_IUPAC_INCHIKEY>
FXNFHKRTJBSTCS-UHFFFAOYSA-N

>  <PUBCHEM_XLOGP3>
1.7

>  <PUBCHEM_EXACT_MASS>
270.052823

>  <PUBCHEM_MOLECULAR_FORMULA>
C15H10O5

>  <PUBCHEM_MOLECULAR_WEIGHT>
270.24

>  <PUBCHEM_OPENEYE_CAN_SMILES>
C1=CC=C(C=C1)C2=CC(=O)C3=C(O2)C=C(C(=C3O)O)O

>  <PUBCHEM_OPENEYE_ISO_SMILES>
C1=CC=C(C=C1)C2=CC(=O)C3=C(O2)C=C(C(=C3O)O)O

>  <PUBCHEM_CACTVS_TPSA>
87

>  <PUBCHEM_MONOISOTOPIC_WEIGHT>
270.052823

>  <PUBCHEM_TOTAL_CHARGE>
0

>  <PUBCHEM_HEAVY_ATOM_COUNT>
20

>  <PUBCHEM_ATOM_DEF_STEREO_COUNT>
0

>  <PUBCHEM_ATOM_UDEF_STEREO_COUNT>
0

>  <PUBCHEM_BOND_DEF_STEREO_COUNT>
0

>  <PUBCHEM_BOND_UDEF_STEREO_COUNT>
0

>  <PUBCHEM_ISOTOPIC_ATOM_COUNT>
0

>  <PUBCHEM_COMPONENT_COUNT>
1

>  <PUBCHEM_CACTVS_TAUTO_COUNT>
-1

>  <PUBCHEM_COORDINATE_TYPE>
1
5
255

>  <PUBCHEM_BONDANNOTATIONS>
1  7  8
1  8  8
10  11  8
12  16  8
12  17  8
13  15  8
14  15  8
16  18  8
17  19  8
18  20  8
19  20  8
6  10  8
6  7  8
6  9  8
7  13  8
8  11  8
9  14  8

>  <Preferred Pose_cresset>
true

>  <Favorite_cresset>
false

>  <MW_cresset>
270.2

>  <#Atoms_cresset>
20

>  <SlogP_cresset>
2.3

>  <TPSA_cresset>
87

>  <Flexibility_cresset>
1.7

>  <#RB_cresset>
4

>  <Rof5_cresset>
0

>  <Filename_cresset>
bicalein 3 monomer with water.sdf

>  <Confs_cresset>
0

>  <Poses_cresset>
10

>  <_cresset_fieldpoints>
    -5     -46.513565      -3.304156      19.067368     -3.5281
    -5     -48.086163       0.375188      12.824495    -14.7963
    -5     -50.591232      -6.608404      18.678099     -6.1423
    -5     -51.919945      -4.097158      13.286404    -13.2843
    -5     -50.243187      -1.178548      13.504180    -16.5193
    -5     -45.124924      -2.271220      20.330013     -2.8328
    -5     -42.968460       0.623623      15.695543     -2.2057
    -6     -48.204720       0.484749      17.567566      2.8156
    -6     -46.563370      -6.001114      18.921871      1.7484
    -6     -51.116585      -8.323082      14.874987     16.9469
    -6     -48.445107      -4.073242      11.557217      5.1438
    -6     -46.667984       2.346008      18.785854      2.9846
    -6     -44.768196      -4.103229      15.312527      3.3718
    -6     -42.607666       2.269339      20.295246      2.7769
    -6     -40.205185      -1.093413      19.295555      2.7894
    -6     -42.078758      -4.236299      16.776001      3.0468
    -7     -51.449409      -4.886860      12.061317     -1.3698
    -7     -47.266350      -3.198576      12.130677     -1.7691
    -7     -50.801502      -0.846599      13.530846     -1.6991
    -7     -52.785828      -6.537151      16.424370     -1.4790
    -7     -50.911835      -2.265533      17.549374     -1.8055
    -7     -46.824844      -5.732768      13.931263     -1.8259
    -7     -49.472015      -8.069804      14.251892     -1.3757
    -7     -48.780762      -0.621346      17.685452     -2.5943
    -7     -46.499302      -3.466818      19.434647     -2.4282
    -7     -45.172844      -3.848675      14.616722     -2.5823
    -7     -43.853714       0.412097      14.879986     -2.0368
    -7     -41.918716      -4.699872      17.474796     -0.9900
    -7     -39.875603      -1.057992      19.447811     -0.9675
    -7     -42.459846       2.505286      20.530170     -0.9671
    -8     -49.044193      -4.246583      15.778654      6.5998
    -8     -47.575157      -2.368121      15.601422      5.0103
    -8     -44.149231      -0.828976      17.982140      7.1515

$$$$
Site3m_Baicalin_D
  xed2sdf_05210316543D
 
 49 52  0  0  1  0  0  0  0  0999 V2000
  -52.3812   -2.3422   15.0942 O   0  0  0  0  0  0  0  0  0  0  0  0
  -50.2252   -1.1432   15.3732 O   0  0  0  0  0  0  0  0  0  0  0  0
  -50.4042   -6.0332   15.7582 O   0  0  0  0  0  0  0  0  0  0  0  0
  -48.8862   -3.6092   15.3402 O   0  0  0  0  0  0  0  0  0  0  0  0
  -53.1072   -5.9822   14.7162 O   0  0  0  0  0  0  0  0  0  0  0  0
  -55.0382   -3.2522   15.8902 O   0  5  0  0  0  0  0  0  0  0  0  0
  -55.2042   -3.7522   13.6692 O   0  0  0  0  0  0  0  0  0  0  0  0
  -51.7972    2.5748   12.9972 O   0  0  0  0  0  0  0  0  0  0  0  0
  -47.8082   -1.1032   13.9682 O   0  0  0  0  0  0  0  0  0  0  0  0
  -47.4182    0.8168   12.0782 O   0  0  0  0  0  0  0  0  0  0  0  0
  -48.3932    2.8508   10.8252 O   0  0  0  0  0  0  0  0  0  0  0  0
  -50.9492   -4.8882   15.0842 C   0  0  0  0  0  0  0  0  0  0  0  0
  -50.2952   -3.5982   15.6162 C   0  0  0  0  0  0  0  0  0  0  0  0
  -52.4762   -4.8232   15.2822 C   0  0  0  0  0  0  0  0  0  0  0  0
  -50.9362   -2.3432   14.9822 C   0  0  0  0  0  0  0  0  0  0  0  0
  -53.0372   -3.5472   14.6242 C   0  0  0  0  0  0  0  0  0  0  0  0
  -54.5422   -3.5142   14.7392 C   0  0  0  0  0  0  0  0  0  0  0  0
  -49.9952   -0.2302   14.4292 C   0  0  0  0  0  0  0  0  0  0  0  0
  -50.9772    0.6948   14.1472 C   0  0  0  0  0  0  0  0  0  0  0  0
  -48.7922   -0.1862   13.7232 C   0  0  0  0  0  0  0  0  0  0  0  0
  -50.7902    1.6818   13.1982 C   0  0  0  0  0  0  0  0  0  0  0  0
  -49.5852    1.7238   12.4972 C   0  0  0  0  0  0  0  0  0  0  0  0
  -48.5902    0.7788   12.7662 C   0  0  0  0  0  0  0  0  0  0  0  0
  -49.4142    2.7668   11.5072 C   0  0  0  0  0  0  0  0  0  0  0  0
  -51.5972    3.5878   12.0932 C   0  0  0  0  0  0  0  0  0  0  0  0
  -50.4622    3.7078   11.3432 C   0  0  0  0  0  0  0  0  0  0  0  0
  -52.7032    4.5728   11.9702 C   0  0  0  0  0  0  0  0  0  0  0  0
  -52.5552    5.6178   11.0712 C   0  0  0  0  0  0  0  0  0  0  0  0
  -53.8772    4.4988   12.7072 C   0  0  0  0  0  0  0  0  0  0  0  0
  -53.5432    6.5568   10.9082 C   0  0  0  0  0  0  0  0  0  0  0  0
  -54.8662    5.4398   12.5442 C   0  0  0  0  0  0  0  0  0  0  0  0
  -54.7022    6.4698   11.6452 C   0  0  0  0  0  0  0  0  0  0  0  0
  -50.7562   -4.9732   14.1062 H   0  0  0  0  0  0  0  0  0  0  0  0
  -50.4422   -3.5652   16.6052 H   0  0  0  0  0  0  0  0  0  0  0  0
  -52.6692   -4.8012   16.2632 H   0  0  0  0  0  0  0  0  0  0  0  0
  -50.8172   -2.3652   13.9902 H   0  0  0  0  0  0  0  0  0  0  0  0
  -52.8232   -3.5772   13.6472 H   0  0  0  0  0  0  0  0  0  0  0  0
  -50.8402   -6.8842   15.4452 H   0  0  0  0  0  0  0  0  0  0  0  0
  -48.6552   -4.3002   14.6462 H   0  0  0  0  0  0  0  0  0  0  0  0
  -52.5352   -6.8032   14.8282 H   0  0  0  0  0  0  0  0  0  0  0  0
  -47.2642   -1.2862   13.1452 H   0  0  0  0  0  0  0  0  0  0  0  0
  -47.0192   -0.1022   11.9802 H   0  0  0  0  0  0  0  0  0  0  0  0
  -51.8452    0.6508   14.6402 H   0  0  0  0  0  0  0  0  0  0  0  0
  -50.3712    4.4538   10.6832 H   0  0  0  0  0  0  0  0  0  0  0  0
  -51.7152    5.6878   10.5322 H   0  0  0  0  0  0  0  0  0  0  0  0
  -54.0052    3.7548   13.3622 H   0  0  0  0  0  0  0  0  0  0  0  0
  -53.4212    7.3038   10.2542 H   0  0  0  0  0  0  0  0  0  0  0  0
  -55.7082    5.3758   13.0802 H   0  0  0  0  0  0  0  0  0  0  0  0
  -55.4232    7.1518   11.5282 H   0  0  0  0  0  0  0  0  0  0  0  0
  1 15  1  0
  1 16  1  0
  2 18  1  0
  6 17  1  0
  7 17  2  0
  8 21  1  0
  8 25  1  0
  9 20  1  0
 10 23  1  0
 11 24  2  0
 12  3  1  0
 12 13  1  0
 12 14  1  0
 13  4  1  0
 13 15  1  0
 14  5  1  0
 14 16  1  0
 15  2  1  0
 16 17  1  0
 18 19  2  0
 18 20  1  0
 19 21  1  0
 20 23  2  0
 21 22  2  0
 22 23  1  0
 22 24  1  0
 24 26  1  0
 25 26  2  0
 25 27  1  0
 27 28  2  0
 27 29  1  0
 28 30  1  0
 29 31  2  0
 30 32  2  0
 31 32  1  0
  3 38  1  0
  4 39  1  0
  5 40  1  0
  9 41  1  0
 10 42  1  0
 12 33  1  0
 13 34  1  0
 14 35  1  0
 15 36  1  0
 16 37  1  0
 19 43  1  0
 26 44  1  0
 28 45  1  0
 29 46  1  0
 30 47  1  0
 31 48  1  0
 32 49  1  0
M  CHG  1   6  -1
M  END
>  <LF dG>
-4.243

>  <LF VSscore>
-9.399

>  <LF Rank Score>
-10.05

>  <LF LE>
-0.133

>  <LF Structure Name>
C:\Users\Odara\AppData\Local\Temp\LeadFinder_2756_1\Ligand_1.sdf

>  <LF SDF id>
0

>  <LF Pose rank>
0

>  <LF version>
2001 1, 19 January 2019

>  <PUBCHEM_COMPOUND_CID>
64982

>  <PUBCHEM_COMPOUND_CANONICALIZED>
1

>  <PUBCHEM_CACTVS_COMPLEXITY>
748

>  <PUBCHEM_CACTVS_HBOND_ACCEPTOR>
11

>  <PUBCHEM_CACTVS_HBOND_DONOR>
6

>  <PUBCHEM_CACTVS_ROTATABLE_BOND>
4

>  <PUBCHEM_CACTVS_SUBSKEYS>
AAADceB4PAAAAAAAAAAAAAAAAAAAAAAAAAA0YIEAAAAAAACBQAAAGgAACAAADBSwmAMwDoAABgCIAqDSCAICCAAkIAAIiAFGiMgdNzaGNR6ieWOl4BUPuQfK7LzOIQABCAAIQABCAAIQABCAAAAAAAAAAA==

>  <PUBCHEM_IUPAC_OPENEYE_NAME>
(2S,3S,4S,5R,6S)-6-(5,6-dihydroxy-4-oxo-2-phenyl-chromen-7-yl)oxy-3,4,5-trihydroxy-tetrahydropyran-2-carboxylic acid

>  <PUBCHEM_IUPAC_CAS_NAME>
(2S,3S,4S,5R,6S)-6-[(5,6-dihydroxy-4-oxo-2-phenyl-1-benzopyran-7-yl)oxy]-3,4,5-trihydroxy-2-oxanecarboxylic acid

>  <PUBCHEM_IUPAC_NAME_MARKUP>
(2<I>S</I>,3<I>S</I>,4<I>S</I>,5<I>R</I>,6<I>S</I>)-6-(5,6-dihydroxy-4-oxo-2-phenylchromen-7-yl)oxy-3,4,5-trihydroxyoxane-2-carboxylic acid

>  <PUBCHEM_IUPAC_NAME>
(2S,3S,4S,5R,6S)-6-(5,6-dihydroxy-4-oxo-2-phenylchromen-7-yl)oxy-3,4,5-trihydroxyoxane-2-carboxylic acid

>  <PUBCHEM_IUPAC_SYSTEMATIC_NAME>
(2S,3S,4S,5R,6S)-6-[5,6-bis(oxidanyl)-4-oxidanylidene-2-phenyl-chromen-7-yl]oxy-3,4,5-tris(oxidanyl)oxane-2-carboxylic acid

>  <PUBCHEM_IUPAC_TRADITIONAL_NAME>
(2S,3S,4S,5R,6S)-6-(5,6-dihydroxy-4-keto-2-phenyl-chromen-7-yl)oxy-3,4,5-trihydroxy-tetrahydropyran-2-carboxylic acid

>  <PUBCHEM_IUPAC_INCHI>
InChI=1S/C21H18O11/c22-9-6-10(8-4-2-1-3-5-8)30-11-7-12(14(23)15(24)13(9)11)31-21-18(27)16(25)17(26)19(32-21)20(28)29/h1-7,16-19,21,23-27H,(H,28,29)/t16-,17-,18+,19-,21+/m0/s1

>  <PUBCHEM_IUPAC_INCHIKEY>
IKIIZLYTISPENI-ZFORQUDYSA-N

>  <PUBCHEM_XLOGP3_AA>
1.1

>  <PUBCHEM_EXACT_MASS>
446.084911

>  <PUBCHEM_MOLECULAR_FORMULA>
C21H18O11

>  <PUBCHEM_MOLECULAR_WEIGHT>
446.4

>  <PUBCHEM_OPENEYE_CAN_SMILES>
C1=CC=C(C=C1)C2=CC(=O)C3=C(C(=C(C=C3O2)OC4C(C(C(C(O4)C(=O)O)O)O)O)O)O

>  <PUBCHEM_OPENEYE_ISO_SMILES>
C1=CC=C(C=C1)C2=CC(=O)C3=C(C(=C(C=C3O2)O[C@H]4[C@@H]([C@H]([C@@H]([C@H](O4)C(=O)O)O)O)O)O)O

>  <PUBCHEM_CACTVS_TPSA>
183

>  <PUBCHEM_MONOISOTOPIC_WEIGHT>
446.084911

>  <PUBCHEM_TOTAL_CHARGE>
0

>  <PUBCHEM_HEAVY_ATOM_COUNT>
32

>  <PUBCHEM_ATOM_DEF_STEREO_COUNT>
5

>  <PUBCHEM_ATOM_UDEF_STEREO_COUNT>
0

>  <PUBCHEM_BOND_DEF_STEREO_COUNT>
0

>  <PUBCHEM_BOND_UDEF_STEREO_COUNT>
0

>  <PUBCHEM_ISOTOPIC_ATOM_COUNT>
0

>  <PUBCHEM_COMPONENT_COUNT>
1

>  <PUBCHEM_CACTVS_TAUTO_COUNT>
-1

>  <PUBCHEM_COORDINATE_TYPE>
1
5
255

>  <PUBCHEM_BONDANNOTATIONS>
16  17  5
18  19  8
18  20  8
19  21  8
15  2  5
20  23  8
21  22  8
22  23  8
22  24  8
24  26  8
25  26  8
27  28  8
27  29  8
28  30  8
29  31  8
12  3  5
30  32  8
31  32  8
13  4  6
14  5  6
8  21  8
8  25  8

>  <Preferred Pose_cresset>
true

>  <Favorite_cresset>
false

>  <MW_cresset>
445.4

>  <#Atoms_cresset>
32

>  <SlogP_cresset>
1.1

>  <TPSA_cresset>
186

>  <Flexibility_cresset>
7.6

>  <#RB_cresset>
9

>  <Rof5_cresset>
1

>  <Filename_cresset>
bicalin 3 monomer no water.sdf

>  <Confs_cresset>
0

>  <Poses_cresset>
10

>  <_cresset_fieldpoints>
    -5     -53.754250      -2.269970      16.915199    -10.8354
    -5     -56.880024      -3.342628      15.558178    -11.9114
    -5     -47.903652      -1.997714      15.658262    -21.0565
    -5     -48.953526      -5.665876      16.951870    -11.8214
    -5     -54.759682      -5.959691      13.749584    -12.6087
    -5     -56.977257      -3.642002      14.299706    -11.8657
    -5     -52.585445       7.178741      13.944395     -2.7956
    -5     -53.545647       1.356188      11.889595     -1.7974
    -5     -51.406021       4.131816      15.024437     -1.9009
    -5     -46.633858       2.264768      11.102404    -22.0838
    -5     -55.037514       3.916562       9.756724     -2.7549
    -6     -49.091805      -4.417747      12.785825     11.4241
    -6     -51.450043      -8.229712      14.457771     17.4582
    -6     -46.598244      -1.878510      11.582436     16.6811
    -6     -53.909554       2.149200      14.774536      2.3630
    -6     -56.229195       3.836172      14.653779      2.4377
    -6     -50.382084       6.251562       9.199384      3.5430
    -6     -57.442780       7.140397      12.708805      2.5884
    -6     -55.048485       8.968098       9.880957      2.6639
    -7     -53.542099      -0.583110      16.053234     -2.3891
    -7     -52.939682      -2.295535      17.535748     -2.3720
    -7     -48.640106       2.914684      15.573582     -1.8525
    -7     -50.977409      -5.840740      18.160854     -1.6309
    -7     -48.028637      -5.825191      16.309265     -1.5371
    -7     -50.733009      -3.548594      11.857263     -2.1663
    -7     -48.737137      -3.249656      12.666304     -2.8088
    -7     -47.610237      -1.865626      16.340412     -2.2961
    -7     -52.631027      -5.978956      12.297846     -1.7928
    -7     -53.501083       1.299597      11.462558     -2.3579
    -7     -55.334816      -6.224339      15.711630     -1.4878
    -7     -54.143745      -5.790455      12.549412     -1.7854
    -7     -45.435410       0.055327      13.690891     -1.5169
    -7     -46.398056       3.195747      12.364828     -1.6525
    -7     -47.781883       0.693807       9.609741     -1.7331
    -7     -49.978928       4.783148      14.214661     -2.4360
    -7     -54.855438       3.548117       9.497719     -1.7851
    -7     -52.167427       7.167003      14.152285     -1.7867
    -7     -57.779251       7.149663      12.915228     -0.9675
    -7     -52.037777      -1.532249      11.921097     -2.6301
    -7     -52.327705       1.469479      10.234473     -2.3880
    -7     -55.275284       9.252008       9.781595     -0.9670
    -8     -49.813637       0.765351      13.446226      6.6115
    -8     -51.493660      -3.956186      15.039075      5.1284
    -8     -53.702644       5.525360      11.809298      7.1516
    -8     -50.311104       2.691938      12.113284      5.0250
    -8     -51.717079       4.572709      11.399600      5.5749

$$$$
W_Site3m_Baicalin_D
  xed2sdf_05210316543D
 
 49 52  0  0  1  0  0  0  0  0999 V2000
  -48.0924   -2.7799   16.6466 O   0  0  0  0  0  0  0  0  0  0  0  0
  -47.2834   -1.0199   15.0936 O   0  0  0  0  0  0  0  0  0  0  0  0
  -49.8474   -4.8399   13.3826 O   0  0  0  0  0  0  0  0  0  0  0  0
  -48.8424   -2.1499   13.0526 O   0  0  0  0  0  0  0  0  0  0  0  0
  -50.5014   -5.5779   16.1066 O   0  0  0  0  0  0  0  0  0  0  0  0
  -49.7544   -4.2319   19.1966 O   0  5  0  0  0  0  0  0  0  0  0  0
  -47.9754   -5.3229   18.2716 O   0  0  0  0  0  0  0  0  0  0  0  0
  -45.5624    0.9371   18.9856 O   0  0  0  0  0  0  0  0  0  0  0  0
  -44.8824   -2.3759   14.6336 O   0  0  0  0  0  0  0  0  0  0  0  0
  -42.8324   -2.0549   16.3946 O   0  0  0  0  0  0  0  0  0  0  0  0
  -41.9864   -0.9099   18.5476 O   0  0  0  0  0  0  0  0  0  0  0  0
  -49.6844   -3.9359   14.4866 C   0  0  0  0  0  0  0  0  0  0  0  0
  -48.5324   -2.9529   14.2006 C   0  0  0  0  0  0  0  0  0  0  0  0
  -49.3984   -4.7169   15.7836 C   0  0  0  0  0  0  0  0  0  0  0  0
  -48.2654   -2.0349   15.4156 C   0  0  0  0  0  0  0  0  0  0  0  0
  -49.1434   -3.7339   16.9436 C   0  0  0  0  0  0  0  0  0  0  0  0
  -48.9444   -4.4859   18.2376 C   0  0  0  0  0  0  0  0  0  0  0  0
  -46.2474   -0.8819   15.9226 C   0  0  0  0  0  0  0  0  0  0  0  0
  -46.3754   -0.0479   17.0116 C   0  0  0  0  0  0  0  0  0  0  0  0
  -45.0444   -1.5579   15.7166 C   0  0  0  0  0  0  0  0  0  0  0  0
  -45.3484    0.1171   17.9206 C   0  0  0  0  0  0  0  0  0  0  0  0
  -44.1484   -0.5619   17.7126 C   0  0  0  0  0  0  0  0  0  0  0  0
  -44.0054   -1.3979   16.5996 C   0  0  0  0  0  0  0  0  0  0  0  0
  -43.0854   -0.3709   18.6786 C   0  0  0  0  0  0  0  0  0  0  0  0
  -44.5634    1.0651   19.9186 C   0  0  0  0  0  0  0  0  0  0  0  0
  -43.3464    0.4571   19.7996 C   0  0  0  0  0  0  0  0  0  0  0  0
  -44.8824    1.9151   21.0946 C   0  0  0  0  0  0  0  0  0  0  0  0
  -43.9044    2.0911   22.0626 C   0  0  0  0  0  0  0  0  0  0  0  0
  -46.1074    2.5431   21.2736 C   0  0  0  0  0  0  0  0  0  0  0  0
  -44.1364    2.8691   23.1696 C   0  0  0  0  0  0  0  0  0  0  0  0
  -46.3394    3.3221   22.3826 C   0  0  0  0  0  0  0  0  0  0  0  0
  -45.3564    3.4871   23.3316 C   0  0  0  0  0  0  0  0  0  0  0  0
  -50.5324   -3.4199   14.6036 H   0  0  0  0  0  0  0  0  0  0  0  0
  -47.7074   -3.4899   14.0216 H   0  0  0  0  0  0  0  0  0  0  0  0
  -48.5844   -5.2799   15.6436 H   0  0  0  0  0  0  0  0  0  0  0  0
  -49.0844   -1.5009   15.6246 H   0  0  0  0  0  0  0  0  0  0  0  0
  -49.9594   -3.1689   17.0616 H   0  0  0  0  0  0  0  0  0  0  0  0
  -48.9664   -5.2279   13.0936 H   0  0  0  0  0  0  0  0  0  0  0  0
  -48.0164   -1.9459   12.5156 H   0  0  0  0  0  0  0  0  0  0  0  0
  -50.5364   -6.3749   15.4946 H   0  0  0  0  0  0  0  0  0  0  0  0
  -45.3344   -1.9999   13.8186 H   0  0  0  0  0  0  0  0  0  0  0  0
  -42.9844   -3.0359   16.2286 H   0  0  0  0  0  0  0  0  0  0  0  0
  -47.2324    0.4501   17.1476 H   0  0  0  0  0  0  0  0  0  0  0  0
  -42.6434    0.5961   20.4976 H   0  0  0  0  0  0  0  0  0  0  0  0
  -43.0164    1.6451   21.9516 H   0  0  0  0  0  0  0  0  0  0  0  0
  -46.8274    2.4291   20.5896 H   0  0  0  0  0  0  0  0  0  0  0  0
  -43.4204    2.9871   23.8576 H   0  0  0  0  0  0  0  0  0  0  0  0
  -47.2254    3.7701   22.4996 H   0  0  0  0  0  0  0  0  0  0  0  0
  -45.5274    4.0541   24.1376 H   0  0  0  0  0  0  0  0  0  0  0  0
  1 15  1  0
  1 16  1  0
  2 18  1  0
  6 17  1  0
  7 17  2  0
  8 21  1  0
  8 25  1  0
  9 20  1  0
 10 23  1  0
 11 24  2  0
 12  3  1  0
 12 13  1  0
 12 14  1  0
 13  4  1  0
 13 15  1  0
 14  5  1  0
 14 16  1  0
 15  2  1  0
 16 17  1  0
 18 19  2  0
 18 20  1  0
 19 21  1  0
 20 23  2  0
 21 22  2  0
 22 23  1  0
 22 24  1  0
 24 26  1  0
 25 26  2  0
 25 27  1  0
 27 28  2  0
 27 29  1  0
 28 30  1  0
 29 31  2  0
 30 32  2  0
 31 32  1  0
  3 38  1  0
  4 39  1  0
  5 40  1  0
  9 41  1  0
 10 42  1  0
 12 33  1  0
 13 34  1  0
 14 35  1  0
 15 36  1  0
 16 37  1  0
 19 43  1  0
 26 44  1  0
 28 45  1  0
 29 46  1  0
 30 47  1  0
 31 48  1  0
 32 49  1  0
M  CHG  1   6  -1
M  END
>  <LF dG>
-6.487

>  <LF VSscore>
-10.836

>  <LF Rank Score>
-9.409

>  <LF LE>
-0.203

>  <LF Structure Name>
C:\Users\Odara\AppData\Local\Temp\LeadFinder_12728_1\Ligand_1.sdf

>  <LF SDF id>
0

>  <LF Pose rank>
0

>  <LF version>
2001 1, 19 January 2019

>  <PUBCHEM_COMPOUND_CID>
64982

>  <PUBCHEM_COMPOUND_CANONICALIZED>
1

>  <PUBCHEM_CACTVS_COMPLEXITY>
748

>  <PUBCHEM_CACTVS_HBOND_ACCEPTOR>
11

>  <PUBCHEM_CACTVS_HBOND_DONOR>
6

>  <PUBCHEM_CACTVS_ROTATABLE_BOND>
4

>  <PUBCHEM_CACTVS_SUBSKEYS>
AAADceB4PAAAAAAAAAAAAAAAAAAAAAAAAAA0YIEAAAAAAACBQAAAGgAACAAADBSwmAMwDoAABgCIAqDSCAICCAAkIAAIiAFGiMgdNzaGNR6ieWOl4BUPuQfK7LzOIQABCAAIQABCAAIQABCAAAAAAAAAAA==

>  <PUBCHEM_IUPAC_OPENEYE_NAME>
(2S,3S,4S,5R,6S)-6-(5,6-dihydroxy-4-oxo-2-phenyl-chromen-7-yl)oxy-3,4,5-trihydroxy-tetrahydropyran-2-carboxylic acid

>  <PUBCHEM_IUPAC_CAS_NAME>
(2S,3S,4S,5R,6S)-6-[(5,6-dihydroxy-4-oxo-2-phenyl-1-benzopyran-7-yl)oxy]-3,4,5-trihydroxy-2-oxanecarboxylic acid

>  <PUBCHEM_IUPAC_NAME_MARKUP>
(2<I>S</I>,3<I>S</I>,4<I>S</I>,5<I>R</I>,6<I>S</I>)-6-(5,6-dihydroxy-4-oxo-2-phenylchromen-7-yl)oxy-3,4,5-trihydroxyoxane-2-carboxylic acid

>  <PUBCHEM_IUPAC_NAME>
(2S,3S,4S,5R,6S)-6-(5,6-dihydroxy-4-oxo-2-phenylchromen-7-yl)oxy-3,4,5-trihydroxyoxane-2-carboxylic acid

>  <PUBCHEM_IUPAC_SYSTEMATIC_NAME>
(2S,3S,4S,5R,6S)-6-[5,6-bis(oxidanyl)-4-oxidanylidene-2-phenyl-chromen-7-yl]oxy-3,4,5-tris(oxidanyl)oxane-2-carboxylic acid

>  <PUBCHEM_IUPAC_TRADITIONAL_NAME>
(2S,3S,4S,5R,6S)-6-(5,6-dihydroxy-4-keto-2-phenyl-chromen-7-yl)oxy-3,4,5-trihydroxy-tetrahydropyran-2-carboxylic acid

>  <PUBCHEM_IUPAC_INCHI>
InChI=1S/C21H18O11/c22-9-6-10(8-4-2-1-3-5-8)30-11-7-12(14(23)15(24)13(9)11)31-21-18(27)16(25)17(26)19(32-21)20(28)29/h1-7,16-19,21,23-27H,(H,28,29)/t16-,17-,18+,19-,21+/m0/s1

>  <PUBCHEM_IUPAC_INCHIKEY>
IKIIZLYTISPENI-ZFORQUDYSA-N

>  <PUBCHEM_XLOGP3_AA>
1.1

>  <PUBCHEM_EXACT_MASS>
446.084911

>  <PUBCHEM_MOLECULAR_FORMULA>
C21H18O11

>  <PUBCHEM_MOLECULAR_WEIGHT>
446.4

>  <PUBCHEM_OPENEYE_CAN_SMILES>
C1=CC=C(C=C1)C2=CC(=O)C3=C(C(=C(C=C3O2)OC4C(C(C(C(O4)C(=O)O)O)O)O)O)O

>  <PUBCHEM_OPENEYE_ISO_SMILES>
C1=CC=C(C=C1)C2=CC(=O)C3=C(C(=C(C=C3O2)O[C@H]4[C@@H]([C@H]([C@@H]([C@H](O4)C(=O)O)O)O)O)O)O

>  <PUBCHEM_CACTVS_TPSA>
183

>  <PUBCHEM_MONOISOTOPIC_WEIGHT>
446.084911

>  <PUBCHEM_TOTAL_CHARGE>
0

>  <PUBCHEM_HEAVY_ATOM_COUNT>
32

>  <PUBCHEM_ATOM_DEF_STEREO_COUNT>
5

>  <PUBCHEM_ATOM_UDEF_STEREO_COUNT>
0

>  <PUBCHEM_BOND_DEF_STEREO_COUNT>
0

>  <PUBCHEM_BOND_UDEF_STEREO_COUNT>
0

>  <PUBCHEM_ISOTOPIC_ATOM_COUNT>
0

>  <PUBCHEM_COMPONENT_COUNT>
1

>  <PUBCHEM_CACTVS_TAUTO_COUNT>
-1

>  <PUBCHEM_COORDINATE_TYPE>
1
5
255

>  <PUBCHEM_BONDANNOTATIONS>
16  17  5
18  19  8
18  20  8
19  21  8
15  2  5
20  23  8
21  22  8
22  23  8
22  24  8
24  26  8
25  26  8
27  28  8
27  29  8
28  30  8
29  31  8
12  3  5
30  32  8
31  32  8
13  4  6
14  5  6
8  21  8
8  25  8

>  <Preferred Pose_cresset>
true

>  <Favorite_cresset>
false

>  <MW_cresset>
445.4

>  <#Atoms_cresset>
32

>  <SlogP_cresset>
1.1

>  <TPSA_cresset>
186

>  <Flexibility_cresset>
7.6

>  <#RB_cresset>
9

>  <Rof5_cresset>
1

>  <Filename_cresset>
bicalin 3 monomer with water.sdf

>  <Confs_cresset>
0

>  <Poses_cresset>
10

>  <_cresset_fieldpoints>
    -5     -51.590828      -5.441084      17.674850    -12.7123
    -5     -50.258606      -3.054674      12.135444    -13.5245
    -5     -48.150192      -5.983326      20.037811    -11.7888
    -5     -49.142303      -5.389153      20.542778    -11.8555
    -5     -51.455528      -3.515947      19.703785     -8.1407
    -5     -46.498108      -3.568070      17.473980     -8.3799
    -5     -41.094299      -1.512633      16.985603    -23.3430
    -5     -45.232094       3.216828      18.099678     -1.6922
    -5     -44.181755       5.105778      20.837048     -2.7183
    -5     -46.196068       0.389923      23.666670     -2.9079
    -6     -49.411072       0.240036      17.092756      3.8004
    -6     -46.265770      -2.382386      12.233503     17.6040
    -6     -51.155048      -1.516602      16.211891      3.9308
    -6     -47.213936      -5.584847      13.507837     12.6110
    -6     -49.176529      -6.978036      14.289298     10.3997
    -6     -48.159290       1.941212      18.794333      3.2143
    -6     -43.055725      -4.926505      15.937817      5.7515
    -6     -41.157845       1.067757      22.241405      3.4522
    -6     -48.890968       3.385352      20.587749      2.7602
    -6     -47.640678       5.162714      24.441750      2.6336
    -6     -43.750534       4.331367      25.797604      2.6580
    -7     -46.226639      -3.351695      18.331127     -3.2302
    -7     -48.536781       0.288531      13.104759     -1.9288
    -7     -52.465729      -4.105687      16.546497     -1.6958
    -7     -46.039978      -3.128940      12.100792     -1.6513
    -7     -50.848698      -0.771414      13.708769     -1.6967
    -7     -51.989113      -4.948883      17.928459     -1.7015
    -7     -46.124947      -4.473907      16.512421     -3.2731
    -7     -46.764877      -5.842176      13.897593     -1.7111
    -7     -49.116646      -3.801448      11.192030     -1.6221
    -7     -46.415993      -0.402409      12.599808     -2.0800
    -7     -49.415024      -7.376407      17.509907     -1.6412
    -7     -49.295151      -7.322004      13.827326     -1.5424
    -7     -51.643158      -1.520239      15.968964     -1.8266
    -7     -42.599213      -2.934611      13.908745     -1.4726
    -7     -40.942696      -0.227984      16.333574     -1.6347
    -7     -42.325455      -3.443007      18.534201     -1.7899
    -7     -43.530403       2.940636      17.946003     -2.3787
    -7     -43.998802       1.835429      15.239567     -1.8325
    -7     -45.567795      -1.544044      20.792908     -2.4738
    -7     -46.159279      -0.041609      23.611629     -1.7876
    -7     -43.687698       4.515523      26.106766     -0.9671
    -7     -47.888474       5.345905      24.629505     -0.9675
    -7     -49.033005       1.177052      15.283170     -1.7719
    -7     -43.953873       5.153030      20.429367     -1.7847
    -8     -49.122589      -3.507756      15.309362      5.1230
    -8     -45.192192      -0.700451      16.846975      6.5972
    -8     -44.054813       0.096514      18.793804      5.0246
    -8     -45.117256       2.701497      22.216389      7.1517
    -8     -43.903191       1.367086      20.887688      5.5751

$$$$
Site3m_Wogonin_D
  xed2sdf_05210316543D
 
 33 35  0  0  0  0  0  0  0  0999 V2000
  -46.9631   -2.7464   16.7869 O   0  0  0  0  0  0  0  0  0  0  0  0
  -48.2804   -4.9917   17.4905 O   0  0  0  0  0  0  0  0  0  0  0  0
  -50.0087   -2.2764   13.0541 O   0  0  0  0  0  0  0  0  0  0  0  0
  -50.4122   -5.8981   16.0399 O   0  0  0  0  0  0  0  0  0  0  0  0
  -47.9887   -0.5363   13.5666 O   0  0  0  0  0  0  0  0  0  0  0  0
  -48.4541   -2.4389   14.8936 C   0  0  0  0  0  0  0  0  0  0  0  0
  -48.0240   -3.1385   16.0267 C   0  0  0  0  0  0  0  0  0  0  0  0
  -46.3068   -1.5892   16.4534 C   0  0  0  0  0  0  0  0  0  0  0  0
  -48.6892   -4.2962   16.4108 C   0  0  0  0  0  0  0  0  0  0  0  0
  -47.7213   -1.2346   14.5435 C   0  0  0  0  0  0  0  0  0  0  0  0
  -49.5515   -2.9208   14.1603 C   0  0  0  0  0  0  0  0  0  0  0  0
  -46.6420   -0.8325   15.3699 C   0  0  0  0  0  0  0  0  0  0  0  0
  -45.1894   -1.1880   17.3471 C   0  0  0  0  0  0  0  0  0  0  0  0
  -49.7620   -4.7606   15.6748 C   0  0  0  0  0  0  0  0  0  0  0  0
  -50.1884   -4.0672   14.5548 C   0  0  0  0  0  0  0  0  0  0  0  0
  -44.5914    0.0470   17.1449 C   0  0  0  0  0  0  0  0  0  0  0  0
  -44.7123   -1.9904   18.3750 C   0  0  0  0  0  0  0  0  0  0  0  0
  -43.5529    0.4678   17.9389 C   0  0  0  0  0  0  0  0  0  0  0  0
  -43.6737   -1.5688   19.1691 C   0  0  0  0  0  0  0  0  0  0  0  0
  -43.0919   -0.3401   18.9533 C   0  0  0  0  0  0  0  0  0  0  0  0
  -49.0994   -4.9204   18.6753 C   0  0  0  0  0  0  0  0  0  0  0  0
  -49.3163   -2.2243   12.3313 H   0  0  0  0  0  0  0  0  0  0  0  0
  -50.7298   -6.4216   15.2421 H   0  0  0  0  0  0  0  0  0  0  0  0
  -46.1301    0.0003   15.1596 H   0  0  0  0  0  0  0  0  0  0  0  0
  -50.9684   -4.4064   14.0291 H   0  0  0  0  0  0  0  0  0  0  0  0
  -44.9214    0.6396   16.4102 H   0  0  0  0  0  0  0  0  0  0  0  0
  -45.1292   -2.8844   18.5391 H   0  0  0  0  0  0  0  0  0  0  0  0
  -43.1320    1.3608   17.7801 H   0  0  0  0  0  0  0  0  0  0  0  0
  -43.3392   -2.1562   19.9061 H   0  0  0  0  0  0  0  0  0  0  0  0
  -42.3355   -0.0351   19.5320 H   0  0  0  0  0  0  0  0  0  0  0  0
  -49.8858   -4.3303   18.4925 H   0  0  0  0  0  0  0  0  0  0  0  0
  -49.4159   -5.8360   18.9229 H   0  0  0  0  0  0  0  0  0  0  0  0
  -48.5645   -4.5450   19.4322 H   0  0  0  0  0  0  0  0  0  0  0  0
  1  7  1  0
  1  8  1  0
  2  9  1  0
  2 21  1  0
  3 11  1  0
  4 14  1  0
  5 10  2  0
  6  7  2  0
  6 10  1  0
  6 11  1  0
  7  9  1  0
  8 12  2  0
  8 13  1  0
  9 14  2  0
 10 12  1  0
 11 15  2  0
 13 16  2  0
 13 17  1  0
 14 15  1  0
 16 18  1  0
 17 19  2  0
 18 20  2  0
 19 20  1  0
  3 22  1  0
  4 23  1  0
 12 24  1  0
 15 25  1  0
 16 26  1  0
 17 27  1  0
 18 28  1  0
 19 29  1  0
 20 30  1  0
 21 31  1  0
 21 32  1  0
 21 33  1  0
M  END
>  <LF dG>
-5.686

>  <LF VSscore>
-6.98

>  <LF Rank Score>
-8.713

>  <LF LE>
-0.271

>  <LF Structure Name>
C:\Users\Odara\AppData\Local\Temp\LeadFinder_12384_1\Ligand_1.sdf

>  <LF SDF id>
0

>  <LF Pose rank>
0

>  <LF version>
2001 1, 19 January 2019

>  <PUBCHEM_COMPOUND_CID>
5281703

>  <PUBCHEM_COMPOUND_CANONICALIZED>
1

>  <PUBCHEM_CACTVS_COMPLEXITY>
426

>  <PUBCHEM_CACTVS_HBOND_ACCEPTOR>
5

>  <PUBCHEM_CACTVS_HBOND_DONOR>
2

>  <PUBCHEM_CACTVS_ROTATABLE_BOND>
2

>  <PUBCHEM_CACTVS_SUBSKEYS>
AAADccB4OAAAAAAAAAAAAAAAAAAAAAAAAAAwYIAAAAAAAACBQAAAGgAACAAADASAmAIyBoAABgCIAqBSAAACCAAkIAAIiAEGiMgNJzaGNRqCeWOl4BULuQfK7LzOIQABCAAIQABCAAIQABCAAAAAAAAAAA==

>  <PUBCHEM_IUPAC_OPENEYE_NAME>
5,7-dihydroxy-8-methoxy-2-phenyl-chromen-4-one

>  <PUBCHEM_IUPAC_CAS_NAME>
5,7-dihydroxy-8-methoxy-2-phenyl-1-benzopyran-4-one

>  <PUBCHEM_IUPAC_NAME_MARKUP>
5,7-dihydroxy-8-methoxy-2-phenylchromen-4-one

>  <PUBCHEM_IUPAC_NAME>
5,7-dihydroxy-8-methoxy-2-phenylchromen-4-one

>  <PUBCHEM_IUPAC_SYSTEMATIC_NAME>
8-methoxy-5,7-bis(oxidanyl)-2-phenyl-chromen-4-one

>  <PUBCHEM_IUPAC_TRADITIONAL_NAME>
5,7-dihydroxy-8-methoxy-2-phenyl-chromone

>  <PUBCHEM_IUPAC_INCHI>
InChI=1S/C16H12O5/c1-20-15-12(19)7-10(17)14-11(18)8-13(21-16(14)15)9-5-3-2-4-6-9/h2-8,17,19H,1H3

>  <PUBCHEM_IUPAC_INCHIKEY>
XLTFNNCXVBYBSX-UHFFFAOYSA-N

>  <PUBCHEM_XLOGP3_AA>
3

>  <PUBCHEM_EXACT_MASS>
284.068473

>  <PUBCHEM_MOLECULAR_FORMULA>
C16H12O5

>  <PUBCHEM_MOLECULAR_WEIGHT>
284.26

>  <PUBCHEM_OPENEYE_CAN_SMILES>
COC1=C(C=C(C2=C1OC(=CC2=O)C3=CC=CC=C3)O)O

>  <PUBCHEM_OPENEYE_ISO_SMILES>
COC1=C(C=C(C2=C1OC(=CC2=O)C3=CC=CC=C3)O)O

>  <PUBCHEM_CACTVS_TPSA>
76

>  <PUBCHEM_MONOISOTOPIC_WEIGHT>
284.068473

>  <PUBCHEM_TOTAL_CHARGE>
0

>  <PUBCHEM_HEAVY_ATOM_COUNT>
21

>  <PUBCHEM_ATOM_DEF_STEREO_COUNT>
0

>  <PUBCHEM_ATOM_UDEF_STEREO_COUNT>
0

>  <PUBCHEM_BOND_DEF_STEREO_COUNT>
0

>  <PUBCHEM_BOND_UDEF_STEREO_COUNT>
0

>  <PUBCHEM_ISOTOPIC_ATOM_COUNT>
0

>  <PUBCHEM_COMPONENT_COUNT>
1

>  <PUBCHEM_CACTVS_TAUTO_COUNT>
-1

>  <PUBCHEM_COORDINATE_TYPE>
1
5
255

>  <PUBCHEM_BONDANNOTATIONS>
1  7  8
1  8  8
10  12  8
11  15  8
13  16  8
13  17  8
14  15  8
16  18  8
17  19  8
18  20  8
19  20  8
6  10  8
6  11  8
6  7  8
7  9  8
8  12  8
9  14  8

>  <Favorite_cresset>
false

>  <MW_cresset>
284.3

>  <#Atoms_cresset>
21

>  <SlogP_cresset>
2.6

>  <TPSA_cresset>
76

>  <Flexibility_cresset>
1.7

>  <#RB_cresset>
4

>  <Rof5_cresset>
0

>  <Filename_cresset>
drag.14_455.sdf

>  <Confs_cresset>
0

>  <Poses_cresset>
0

$$$$
W_Site3m_Wogonin_D
  xed2sdf_05210316543D
 
 33 35  0  0  0  0  0  0  0  0999 V2000
  -47.1069   -3.0768   16.9405 O   0  0  0  0  0  0  0  0  0  0  0  0
  -48.5799   -5.1575   17.6831 O   0  0  0  0  0  0  0  0  0  0  0  0
  -50.0227   -2.4903   13.1207 O   0  0  0  0  0  0  0  0  0  0  0  0
  -50.8101   -5.9331   16.2448 O   0  0  0  0  0  0  0  0  0  0  0  0
  -47.8857   -0.8943   13.6314 O   0  0  0  0  0  0  0  0  0  0  0  0
  -48.5249   -2.7145   14.9995 C   0  0  0  0  0  0  0  0  0  0  0  0
  -48.1749   -3.4093   16.1619 C   0  0  0  0  0  0  0  0  0  0  0  0
  -46.3460   -1.9928   16.5811 C   0  0  0  0  0  0  0  0  0  0  0  0
  -48.9342   -4.4975   16.5641 C   0  0  0  0  0  0  0  0  0  0  0  0
  -47.6910   -1.5839   14.6312 C   0  0  0  0  0  0  0  0  0  0  0  0
  -49.6443   -3.1304   14.2589 C   0  0  0  0  0  0  0  0  0  0  0  0
  -46.5956   -1.2483   15.4662 C   0  0  0  0  0  0  0  0  0  0  0  0
  -45.2104   -1.6580   17.4795 C   0  0  0  0  0  0  0  0  0  0  0  0
  -50.0436   -4.8863   15.8360 C   0  0  0  0  0  0  0  0  0  0  0  0
  -50.3865   -4.2014   14.6823 C   0  0  0  0  0  0  0  0  0  0  0  0
  -43.8809   -1.8426   17.1231 C   0  0  0  0  0  0  0  0  0  0  0  0
  -45.4873   -1.1333   18.7326 C   0  0  0  0  0  0  0  0  0  0  0  0
  -42.8690   -1.5141   17.9926 C   0  0  0  0  0  0  0  0  0  0  0  0
  -44.4754   -0.8050   19.6013 C   0  0  0  0  0  0  0  0  0  0  0  0
  -43.1632   -0.9952   19.2331 C   0  0  0  0  0  0  0  0  0  0  0  0
  -48.1169   -6.5141   17.5255 C   0  0  0  0  0  0  0  0  0  0  0  0
  -49.2810   -2.4431   12.4481 H   0  0  0  0  0  0  0  0  0  0  0  0
  -50.9320   -6.6134   15.5141 H   0  0  0  0  0  0  0  0  0  0  0  0
  -46.0099   -0.4703   15.2392 H   0  0  0  0  0  0  0  0  0  0  0  0
  -51.1838   -4.4912   14.1530 H   0  0  0  0  0  0  0  0  0  0  0  0
  -43.6575   -2.2188   16.2239 H   0  0  0  0  0  0  0  0  0  0  0  0
  -46.4380   -0.9917   19.0080 H   0  0  0  0  0  0  0  0  0  0  0  0
  -41.9159   -1.6523   17.7232 H   0  0  0  0  0  0  0  0  0  0  0  0
  -44.6921   -0.4279   20.5017 H   0  0  0  0  0  0  0  0  0  0  0  0
  -42.4251   -0.7570   19.8645 H   0  0  0  0  0  0  0  0  0  0  0  0
  -48.1365   -6.7542   16.5551 H   0  0  0  0  0  0  0  0  0  0  0  0
  -47.1830   -6.5947   17.8736 H   0  0  0  0  0  0  0  0  0  0  0  0
  -48.7104   -7.1340   18.0389 H   0  0  0  0  0  0  0  0  0  0  0  0
  1  7  1  0
  1  8  1  0
  2  9  1  0
  2 21  1  0
  3 11  1  0
  4 14  1  0
  5 10  2  0
  6  7  2  0
  6 10  1  0
  6 11  1  0
  7  9  1  0
  8 12  2  0
  8 13  1  0
  9 14  2  0
 10 12  1  0
 11 15  2  0
 13 16  2  0
 13 17  1  0
 14 15  1  0
 16 18  1  0
 17 19  2  0
 18 20  2  0
 19 20  1  0
  3 22  1  0
  4 23  1  0
 12 24  1  0
 15 25  1  0
 16 26  1  0
 17 27  1  0
 18 28  1  0
 19 29  1  0
 20 30  1  0
 21 31  1  0
 21 32  1  0
 21 33  1  0
M  END
>  <LF dG>
-5.682

>  <LF VSscore>
-6.917

>  <LF Rank Score>
-9.177

>  <LF LE>
-0.271

>  <LF Structure Name>
C:\Users\Odara\AppData\Local\Temp\LeadFinder_2780_1\Ligand_1.sdf

>  <LF SDF id>
0

>  <LF Pose rank>
0

>  <LF version>
2001 1, 19 January 2019

>  <PUBCHEM_COMPOUND_CID>
5281703

>  <PUBCHEM_COMPOUND_CANONICALIZED>
1

>  <PUBCHEM_CACTVS_COMPLEXITY>
426

>  <PUBCHEM_CACTVS_HBOND_ACCEPTOR>
5

>  <PUBCHEM_CACTVS_HBOND_DONOR>
2

>  <PUBCHEM_CACTVS_ROTATABLE_BOND>
2

>  <PUBCHEM_CACTVS_SUBSKEYS>
AAADccB4OAAAAAAAAAAAAAAAAAAAAAAAAAAwYIAAAAAAAACBQAAAGgAACAAADASAmAIyBoAABgCIAqBSAAACCAAkIAAIiAEGiMgNJzaGNRqCeWOl4BULuQfK7LzOIQABCAAIQABCAAIQABCAAAAAAAAAAA==

>  <PUBCHEM_IUPAC_OPENEYE_NAME>
5,7-dihydroxy-8-methoxy-2-phenyl-chromen-4-one

>  <PUBCHEM_IUPAC_CAS_NAME>
5,7-dihydroxy-8-methoxy-2-phenyl-1-benzopyran-4-one

>  <PUBCHEM_IUPAC_NAME_MARKUP>
5,7-dihydroxy-8-methoxy-2-phenylchromen-4-one

>  <PUBCHEM_IUPAC_NAME>
5,7-dihydroxy-8-methoxy-2-phenylchromen-4-one

>  <PUBCHEM_IUPAC_SYSTEMATIC_NAME>
8-methoxy-5,7-bis(oxidanyl)-2-phenyl-chromen-4-one

>  <PUBCHEM_IUPAC_TRADITIONAL_NAME>
5,7-dihydroxy-8-methoxy-2-phenyl-chromone

>  <PUBCHEM_IUPAC_INCHI>
InChI=1S/C16H12O5/c1-20-15-12(19)7-10(17)14-11(18)8-13(21-16(14)15)9-5-3-2-4-6-9/h2-8,17,19H,1H3

>  <PUBCHEM_IUPAC_INCHIKEY>
XLTFNNCXVBYBSX-UHFFFAOYSA-N

>  <PUBCHEM_XLOGP3_AA>
3

>  <PUBCHEM_EXACT_MASS>
284.068473

>  <PUBCHEM_MOLECULAR_FORMULA>
C16H12O5

>  <PUBCHEM_MOLECULAR_WEIGHT>
284.26

>  <PUBCHEM_OPENEYE_CAN_SMILES>
COC1=C(C=C(C2=C1OC(=CC2=O)C3=CC=CC=C3)O)O

>  <PUBCHEM_OPENEYE_ISO_SMILES>
COC1=C(C=C(C2=C1OC(=CC2=O)C3=CC=CC=C3)O)O

>  <PUBCHEM_CACTVS_TPSA>
76

>  <PUBCHEM_MONOISOTOPIC_WEIGHT>
284.068473

>  <PUBCHEM_TOTAL_CHARGE>
0

>  <PUBCHEM_HEAVY_ATOM_COUNT>
21

>  <PUBCHEM_ATOM_DEF_STEREO_COUNT>
0

>  <PUBCHEM_ATOM_UDEF_STEREO_COUNT>
0

>  <PUBCHEM_BOND_DEF_STEREO_COUNT>
0

>  <PUBCHEM_BOND_UDEF_STEREO_COUNT>
0

>  <PUBCHEM_ISOTOPIC_ATOM_COUNT>
0

>  <PUBCHEM_COMPONENT_COUNT>
1

>  <PUBCHEM_CACTVS_TAUTO_COUNT>
-1

>  <PUBCHEM_COORDINATE_TYPE>
1
5
255

>  <PUBCHEM_BONDANNOTATIONS>
1  7  8
1  8  8
10  12  8
11  15  8
13  16  8
13  17  8
14  15  8
16  18  8
17  19  8
18  20  8
19  20  8
6  10  8
6  11  8
6  7  8
7  9  8
8  12  8
9  14  8

>  <Favorite_cresset>
false

>  <MW_cresset>
284.3

>  <#Atoms_cresset>
21

>  <SlogP_cresset>
2.6

>  <TPSA_cresset>
76

>  <Flexibility_cresset>
1.7

>  <#RB_cresset>
4

>  <Rof5_cresset>
0

>  <Filename_cresset>
drag.12_353.sdf

>  <Confs_cresset>
0

>  <Poses_cresset>
0

$$$$
Site3m_Wogonoside_D
  xed2sdf_05210316543D
 
 52 55  0  0  1  0  0  0  0  0999 V2000
  -52.3610   -2.3702   15.0589 O   0  0  0  0  0  0  0  0  0  0  0  0
  -50.2406   -1.1662   15.2390 O   0  0  0  0  0  0  0  0  0  0  0  0
  -50.3774   -5.9922   15.7844 O   0  0  0  0  0  0  0  0  0  0  0  0
  -48.8723   -3.5892   15.3304 O   0  0  0  0  0  0  0  0  0  0  0  0
  -53.0581   -6.0127   14.7573 O   0  0  0  0  0  0  0  0  0  0  0  0
  -54.9345   -3.3662   15.9454 O   0  5  0  0  0  0  0  0  0  0  0  0
  -55.2113   -3.2624   13.6834 O   0  0  0  0  0  0  0  0  0  0  0  0
  -51.5371    2.7779   13.0333 O   0  0  0  0  0  0  0  0  0  0  0  0
  -52.0142    0.7838   14.8108 O   0  0  0  0  0  0  0  0  0  0  0  0
  -47.3313    0.7112   11.9750 O   0  0  0  0  0  0  0  0  0  0  0  0
  -48.1613    2.8397   10.8018 O   0  0  0  0  0  0  0  0  0  0  0  0
  -50.9334   -4.8726   15.0794 C   0  0  0  0  0  0  0  0  0  0  0  0
  -50.2878   -3.5630   15.5671 C   0  0  0  0  0  0  0  0  0  0  0  0
  -52.4589   -4.8174   15.2808 C   0  0  0  0  0  0  0  0  0  0  0  0
  -50.9326   -2.3704   14.8334 C   0  0  0  0  0  0  0  0  0  0  0  0
  -53.0084   -3.5631   14.5657 C   0  0  0  0  0  0  0  0  0  0  0  0
  -54.4989   -3.3825   14.7414 C   0  0  0  0  0  0  0  0  0  0  0  0
  -49.9445   -0.2271   14.3298 C   0  0  0  0  0  0  0  0  0  0  0  0
  -50.8668    0.7803   14.1019 C   0  0  0  0  0  0  0  0  0  0  0  0
  -48.7556   -0.2357   13.6071 C   0  0  0  0  0  0  0  0  0  0  0  0
  -50.6101    1.7904   13.1825 C   0  0  0  0  0  0  0  0  0  0  0  0
  -49.4179    1.7608   12.4600 C   0  0  0  0  0  0  0  0  0  0  0  0
  -48.4923    0.7365   12.6792 C   0  0  0  0  0  0  0  0  0  0  0  0
  -49.1767    2.8156   11.4979 C   0  0  0  0  0  0  0  0  0  0  0  0
  -51.2743    3.7941   12.1469 C   0  0  0  0  0  0  0  0  0  0  0  0
  -50.1477    3.8413   11.3776 C   0  0  0  0  0  0  0  0  0  0  0  0
  -52.2967    4.8697   12.0647 C   0  0  0  0  0  0  0  0  0  0  0  0
  -52.0478    1.5728   16.0179 C   0  0  0  0  0  0  0  0  0  0  0  0
  -53.4181    4.7803   12.8756 C   0  0  0  0  0  0  0  0  0  0  0  0
  -52.1827    5.9647   11.2187 C   0  0  0  0  0  0  0  0  0  0  0  0
  -54.3912    5.7493   12.8467 C   0  0  0  0  0  0  0  0  0  0  0  0
  -53.1566    6.9338   11.1901 C   0  0  0  0  0  0  0  0  0  0  0  0
  -54.2622    6.8294   12.0034 C   0  0  0  0  0  0  0  0  0  0  0  0
  -50.7422   -4.9832   14.1040 H   0  0  0  0  0  0  0  0  0  0  0  0
  -50.4401   -3.4653   16.5505 H   0  0  0  0  0  0  0  0  0  0  0  0
  -52.6803   -4.7602   16.2542 H   0  0  0  0  0  0  0  0  0  0  0  0
  -50.8332   -2.4341   13.8404 H   0  0  0  0  0  0  0  0  0  0  0  0
  -52.8165   -3.7042   13.5946 H   0  0  0  0  0  0  0  0  0  0  0  0
  -50.7950   -6.8570   15.4845 H   0  0  0  0  0  0  0  0  0  0  0  0
  -48.6128   -4.3634   14.7429 H   0  0  0  0  0  0  0  0  0  0  0  0
  -52.4649   -6.8131   14.8919 H   0  0  0  0  0  0  0  0  0  0  0  0
  -46.8510   -0.1658   12.0880 H   0  0  0  0  0  0  0  0  0  0  0  0
  -48.0853   -0.9605   13.7670 H   0  0  0  0  0  0  0  0  0  0  0  0
  -50.0084    4.5939   10.7340 H   0  0  0  0  0  0  0  0  0  0  0  0
  -51.1604    2.0170   16.1414 H   0  0  0  0  0  0  0  0  0  0  0  0
  -52.7648    2.2664   15.9480 H   0  0  0  0  0  0  0  0  0  0  0  0
  -52.2417    0.9819   16.8008 H   0  0  0  0  0  0  0  0  0  0  0  0
  -53.5200    3.9986   13.4908 H   0  0  0  0  0  0  0  0  0  0  0  0
  -51.3834    6.0490   10.6238 H   0  0  0  0  0  0  0  0  0  0  0  0
  -55.1935    5.6700   13.4382 H   0  0  0  0  0  0  0  0  0  0  0  0
  -53.0616    7.7173   10.5761 H   0  0  0  0  0  0  0  0  0  0  0  0
  -54.9692    7.5360   11.9815 H   0  0  0  0  0  0  0  0  0  0  0  0
  1 15  1  0
  1 16  1  0
  2 18  1  0
  6 17  1  0
  7 17  2  0
  8 21  1  0
  8 25  1  0
  9 19  1  0
  9 28  1  0
 10 23  1  0
 11 24  2  0
 12  3  1  0
 12 13  1  0
 12 14  1  0
 13  4  1  0
 13 15  1  0
 14  5  1  0
 14 16  1  0
 15  2  1  0
 16 17  1  0
 18 19  2  0
 18 20  1  0
 19 21  1  0
 20 23  2  0
 21 22  2  0
 22 23  1  0
 22 24  1  0
 24 26  1  0
 25 26  2  0
 25 27  1  0
 27 29  2  0
 27 30  1  0
 29 31  1  0
 30 32  2  0
 31 33  2  0
 32 33  1  0
  3 39  1  0
  4 40  1  0
  5 41  1  0
 10 42  1  0
 12 34  1  0
 13 35  1  0
 14 36  1  0
 15 37  1  0
 16 38  1  0
 20 43  1  0
 26 44  1  0
 28 45  1  0
 28 46  1  0
 28 47  1  0
 29 48  1  0
 30 49  1  0
 31 50  1  0
 32 51  1  0
 33 52  1  0
M  CHG  1   6  -1
M  END
>  <LF dG>
-3.535

>  <LF VSscore>
-8.662

>  <LF Rank Score>
-9.608

>  <LF LE>
-0.107

>  <LF Structure Name>
C:\Users\Odara\AppData\Local\Temp\LeadFinder_9228_1\Ligand_1.sdf

>  <LF SDF id>
0

>  <LF Pose rank>
0

>  <LF version>
2001 1, 19 January 2019

>  <PUBCHEM_COMPOUND_CID>
3084961

>  <PUBCHEM_COMPOUND_CANONICALIZED>
1

>  <PUBCHEM_CACTVS_COMPLEXITY>
763

>  <PUBCHEM_CACTVS_HBOND_ACCEPTOR>
11

>  <PUBCHEM_CACTVS_HBOND_DONOR>
5

>  <PUBCHEM_CACTVS_ROTATABLE_BOND>
5

>  <PUBCHEM_CACTVS_SUBSKEYS>
AAADceB4PAAAAAAAAAAAAAAAAAAAAAAAAAA0YIEAAAAAAACBQAAAGgAACAAADBSwmAMyDoAABgCIAqDSCAICCAAkIAAIiAFGiMgdNzaGNR6ieWKl4BUPuQfK7LzOIQABCAAIQABCAAIQABCAAAAAAAAAAA==

>  <PUBCHEM_IUPAC_OPENEYE_NAME>
(2S,3S,4S,5R,6S)-3,4,5-trihydroxy-6-(5-hydroxy-8-methoxy-4-oxo-2-phenyl-chromen-7-yl)oxy-tetrahydropyran-2-carboxylic acid

>  <PUBCHEM_IUPAC_CAS_NAME>
(2S,3S,4S,5R,6S)-3,4,5-trihydroxy-6-[(5-hydroxy-8-methoxy-4-oxo-2-phenyl-1-benzopyran-7-yl)oxy]-2-oxanecarboxylic acid

>  <PUBCHEM_IUPAC_NAME_MARKUP>
(2<I>S</I>,3<I>S</I>,4<I>S</I>,5<I>R</I>,6<I>S</I>)-3,4,5-trihydroxy-6-(5-hydroxy-8-methoxy-4-oxo-2-phenylchromen-7-yl)oxyoxane-2-carboxylic acid

>  <PUBCHEM_IUPAC_NAME>
(2S,3S,4S,5R,6S)-3,4,5-trihydroxy-6-(5-hydroxy-8-methoxy-4-oxo-2-phenylchromen-7-yl)oxyoxane-2-carboxylic acid

>  <PUBCHEM_IUPAC_SYSTEMATIC_NAME>
(2S,3S,4S,5R,6S)-6-(8-methoxy-5-oxidanyl-4-oxidanylidene-2-phenyl-chromen-7-yl)oxy-3,4,5-tris(oxidanyl)oxane-2-carboxylic acid

>  <PUBCHEM_IUPAC_TRADITIONAL_NAME>
(2S,3S,4S,5R,6S)-3,4,5-trihydroxy-6-(5-hydroxy-4-keto-8-methoxy-2-phenyl-chromen-7-yl)oxy-tetrahydropyran-2-carboxylic acid

>  <PUBCHEM_IUPAC_INCHI>
InChI=1S/C22H20O11/c1-30-18-13(32-22-17(27)15(25)16(26)20(33-22)21(28)29)8-11(24)14-10(23)7-12(31-19(14)18)9-5-3-2-4-6-9/h2-8,15-17,20,22,24-27H,1H3,(H,28,29)/t15-,16-,17+,20-,22+/m0/s1

>  <PUBCHEM_IUPAC_INCHIKEY>
LNOHXHDWGCMVCO-NTKSAMNMSA-N

>  <PUBCHEM_XLOGP3_AA>
1.4

>  <PUBCHEM_EXACT_MASS>
460.100561

>  <PUBCHEM_MOLECULAR_FORMULA>
C22H20O11

>  <PUBCHEM_MOLECULAR_WEIGHT>
460.4

>  <PUBCHEM_OPENEYE_CAN_SMILES>
COC1=C(C=C(C2=C1OC(=CC2=O)C3=CC=CC=C3)O)OC4C(C(C(C(O4)C(=O)O)O)O)O

>  <PUBCHEM_OPENEYE_ISO_SMILES>
COC1=C(C=C(C2=C1OC(=CC2=O)C3=CC=CC=C3)O)O[C@H]4[C@@H]([C@H]([C@@H]([C@H](O4)C(=O)O)O)O)O

>  <PUBCHEM_CACTVS_TPSA>
172

>  <PUBCHEM_MONOISOTOPIC_WEIGHT>
460.100561

>  <PUBCHEM_TOTAL_CHARGE>
0

>  <PUBCHEM_HEAVY_ATOM_COUNT>
33

>  <PUBCHEM_ATOM_DEF_STEREO_COUNT>
5

>  <PUBCHEM_ATOM_UDEF_STEREO_COUNT>
0

>  <PUBCHEM_BOND_DEF_STEREO_COUNT>
0

>  <PUBCHEM_BOND_UDEF_STEREO_COUNT>
0

>  <PUBCHEM_ISOTOPIC_ATOM_COUNT>
0

>  <PUBCHEM_COMPONENT_COUNT>
1

>  <PUBCHEM_CACTVS_TAUTO_COUNT>
-1

>  <PUBCHEM_COORDINATE_TYPE>
1
5
255

>  <PUBCHEM_BONDANNOTATIONS>
16  17  5
18  19  8
18  20  8
19  21  8
15  2  5
20  23  8
21  22  8
22  23  8
22  24  8
24  26  8
25  26  8
27  29  8
27  30  8
29  31  8
12  3  5
30  32  8
31  33  8
32  33  8
13  4  6
14  5  6
8  21  8
8  25  8

>  <Favorite_cresset>
false

>  <MW_cresset>
459.4

>  <#Atoms_cresset>
33

>  <SlogP_cresset>
1.4

>  <TPSA_cresset>
175

>  <Flexibility_cresset>
7.6

>  <#RB_cresset>
9

>  <Rof5_cresset>
1

>  <Filename_cresset>
drag.1_182.sdf

>  <Confs_cresset>
0

>  <Poses_cresset>
0

$$$$
W_Site3m_Wogonoside_D
  xed2sdf_05210316543D
 
 52 55  0  0  1  0  0  0  0  0999 V2000
  -49.3556   -3.3237   17.4110 O   0  0  0  0  0  0  0  0  0  0  0  0
  -48.9887   -1.4379   15.9488 O   0  0  0  0  0  0  0  0  0  0  0  0
  -50.7471   -5.6353   14.1969 O   0  0  0  0  0  0  0  0  0  0  0  0
  -50.3764   -2.7945   13.8797 O   0  0  0  0  0  0  0  0  0  0  0  0
  -51.0630   -6.5761   16.8981 O   0  0  0  0  0  0  0  0  0  0  0  0
  -50.4758   -5.1525   19.9893 O   0  5  0  0  0  0  0  0  0  0  0  0
  -48.4933   -5.5754   18.9379 O   0  0  0  0  0  0  0  0  0  0  0  0
  -45.2734   -0.9617   18.8702 O   0  0  0  0  0  0  0  0  0  0  0  0
  -47.9236   -0.7131   18.4080 O   0  0  0  0  0  0  0  0  0  0  0  0
  -44.6958   -2.4936   14.3523 O   0  0  0  0  0  0  0  0  0  0  0  0
  -42.7410   -2.2642   15.9931 O   0  0  0  0  0  0  0  0  0  0  0  0
  -50.7463   -4.7366   15.3157 C   0  0  0  0  0  0  0  0  0  0  0  0
  -49.8653   -3.5085   15.0148 C   0  0  0  0  0  0  0  0  0  0  0  0
  -50.2280   -5.4547   16.5752 C   0  0  0  0  0  0  0  0  0  0  0  0
  -49.8135   -2.5883   16.2528 C   0  0  0  0  0  0  0  0  0  0  0  0
  -50.2048   -4.4424   17.7350 C   0  0  0  0  0  0  0  0  0  0  0  0
  -49.6860   -5.1117   18.9818 C   0  0  0  0  0  0  0  0  0  0  0  0
  -47.6753   -1.5130   16.1906 C   0  0  0  0  0  0  0  0  0  0  0  0
  -47.1263   -1.1625   17.4180 C   0  0  0  0  0  0  0  0  0  0  0  0
  -46.8461   -1.9443   15.1645 C   0  0  0  0  0  0  0  0  0  0  0  0
  -45.7593   -1.2861   17.6384 C   0  0  0  0  0  0  0  0  0  0  0  0
  -44.9429   -1.7416   16.6033 C   0  0  0  0  0  0  0  0  0  0  0  0
  -45.4966   -2.0613   15.3603 C   0  0  0  0  0  0  0  0  0  0  0  0
  -43.5243   -1.8734   16.8591 C   0  0  0  0  0  0  0  0  0  0  0  0
  -43.9271   -1.1096   19.1026 C   0  0  0  0  0  0  0  0  0  0  0  0
  -43.0483   -1.5441   18.1526 C   0  0  0  0  0  0  0  0  0  0  0  0
  -43.4571   -0.7673   20.4703 C   0  0  0  0  0  0  0  0  0  0  0  0
  -48.1923    0.7031   18.4489 C   0  0  0  0  0  0  0  0  0  0  0  0
  -43.6199   -1.6105   21.5614 C   0  0  0  0  0  0  0  0  0  0  0  0
  -42.8275    0.4519   20.6718 C   0  0  0  0  0  0  0  0  0  0  0  0
  -43.1685   -1.2441   22.8060 C   0  0  0  0  0  0  0  0  0  0  0  0
  -42.3764    0.8181   21.9164 C   0  0  0  0  0  0  0  0  0  0  0  0
  -42.5462   -0.0299   22.9869 C   0  0  0  0  0  0  0  0  0  0  0  0
  -51.6846   -4.4309   15.4777 H   0  0  0  0  0  0  0  0  0  0  0  0
  -48.9381   -3.8164   14.8008 H   0  0  0  0  0  0  0  0  0  0  0  0
  -49.3056   -5.8043   16.4111 H   0  0  0  0  0  0  0  0  0  0  0  0
  -50.7288   -2.2553   16.4796 H   0  0  0  0  0  0  0  0  0  0  0  0
  -51.1363   -4.1127   17.8883 H   0  0  0  0  0  0  0  0  0  0  0  0
  -51.1171   -6.5357   14.4513 H   0  0  0  0  0  0  0  0  0  0  0  0
  -49.6366   -2.5215   13.2549 H   0  0  0  0  0  0  0  0  0  0  0  0
  -51.2414   -7.1448   16.0879 H   0  0  0  0  0  0  0  0  0  0  0  0
  -45.0818   -2.2653   13.4516 H   0  0  0  0  0  0  0  0  0  0  0  0
  -47.2383   -2.1719   14.2733 H   0  0  0  0  0  0  0  0  0  0  0  0
  -42.0755   -1.6294   18.3680 H   0  0  0  0  0  0  0  0  0  0  0  0
  -47.7148    1.1471   17.6905 H   0  0  0  0  0  0  0  0  0  0  0  0
  -49.1761    0.8627   18.3668 H   0  0  0  0  0  0  0  0  0  0  0  0
  -47.8724    1.0817   19.3172 H   0  0  0  0  0  0  0  0  0  0  0  0
  -44.0713   -2.4945   21.4398 H   0  0  0  0  0  0  0  0  0  0  0  0
  -42.7004    1.0740   19.8993 H   0  0  0  0  0  0  0  0  0  0  0  0
  -43.2925   -1.8614   23.5828 H   0  0  0  0  0  0  0  0  0  0  0  0
  -41.9242    1.7006   22.0444 H   0  0  0  0  0  0  0  0  0  0  0  0
  -42.2181    0.2352   23.8935 H   0  0  0  0  0  0  0  0  0  0  0  0
  1 15  1  0
  1 16  1  0
  2 18  1  0
  6 17  1  0
  7 17  2  0
  8 21  1  0
  8 25  1  0
  9 19  1  0
  9 28  1  0
 10 23  1  0
 11 24  2  0
 12  3  1  0
 12 13  1  0
 12 14  1  0
 13  4  1  0
 13 15  1  0
 14  5  1  0
 14 16  1  0
 15  2  1  0
 16 17  1  0
 18 19  2  0
 18 20  1  0
 19 21  1  0
 20 23  2  0
 21 22  2  0
 22 23  1  0
 22 24  1  0
 24 26  1  0
 25 26  2  0
 25 27  1  0
 27 29  2  0
 27 30  1  0
 29 31  1  0
 30 32  2  0
 31 33  2  0
 32 33  1  0
  3 39  1  0
  4 40  1  0
  5 41  1  0
 10 42  1  0
 12 34  1  0
 13 35  1  0
 14 36  1  0
 15 37  1  0
 16 38  1  0
 20 43  1  0
 26 44  1  0
 28 45  1  0
 28 46  1  0
 28 47  1  0
 29 48  1  0
 30 49  1  0
 31 50  1  0
 32 51  1  0
 33 52  1  0
M  CHG  1   6  -1
M  END
>  <LF dG>
-5.697

>  <LF VSscore>
-9.529

>  <LF Rank Score>
-9.584

>  <LF LE>
-0.173

>  <LF Structure Name>
C:\Users\Odara\AppData\Local\Temp\LeadFinder_10452_1\Ligand_1.sdf

>  <LF SDF id>
0

>  <LF Pose rank>
0

>  <LF version>
2001 1, 19 January 2019

>  <PUBCHEM_COMPOUND_CID>
3084961

>  <PUBCHEM_COMPOUND_CANONICALIZED>
1

>  <PUBCHEM_CACTVS_COMPLEXITY>
763

>  <PUBCHEM_CACTVS_HBOND_ACCEPTOR>
11

>  <PUBCHEM_CACTVS_HBOND_DONOR>
5

>  <PUBCHEM_CACTVS_ROTATABLE_BOND>
5

>  <PUBCHEM_CACTVS_SUBSKEYS>
AAADceB4PAAAAAAAAAAAAAAAAAAAAAAAAAA0YIEAAAAAAACBQAAAGgAACAAADBSwmAMyDoAABgCIAqDSCAICCAAkIAAIiAFGiMgdNzaGNR6ieWKl4BUPuQfK7LzOIQABCAAIQABCAAIQABCAAAAAAAAAAA==

>  <PUBCHEM_IUPAC_OPENEYE_NAME>
(2S,3S,4S,5R,6S)-3,4,5-trihydroxy-6-(5-hydroxy-8-methoxy-4-oxo-2-phenyl-chromen-7-yl)oxy-tetrahydropyran-2-carboxylic acid

>  <PUBCHEM_IUPAC_CAS_NAME>
(2S,3S,4S,5R,6S)-3,4,5-trihydroxy-6-[(5-hydroxy-8-methoxy-4-oxo-2-phenyl-1-benzopyran-7-yl)oxy]-2-oxanecarboxylic acid

>  <PUBCHEM_IUPAC_NAME_MARKUP>
(2<I>S</I>,3<I>S</I>,4<I>S</I>,5<I>R</I>,6<I>S</I>)-3,4,5-trihydroxy-6-(5-hydroxy-8-methoxy-4-oxo-2-phenylchromen-7-yl)oxyoxane-2-carboxylic acid

>  <PUBCHEM_IUPAC_NAME>
(2S,3S,4S,5R,6S)-3,4,5-trihydroxy-6-(5-hydroxy-8-methoxy-4-oxo-2-phenylchromen-7-yl)oxyoxane-2-carboxylic acid

>  <PUBCHEM_IUPAC_SYSTEMATIC_NAME>
(2S,3S,4S,5R,6S)-6-(8-methoxy-5-oxidanyl-4-oxidanylidene-2-phenyl-chromen-7-yl)oxy-3,4,5-tris(oxidanyl)oxane-2-carboxylic acid

>  <PUBCHEM_IUPAC_TRADITIONAL_NAME>
(2S,3S,4S,5R,6S)-3,4,5-trihydroxy-6-(5-hydroxy-4-keto-8-methoxy-2-phenyl-chromen-7-yl)oxy-tetrahydropyran-2-carboxylic acid

>  <PUBCHEM_IUPAC_INCHI>
InChI=1S/C22H20O11/c1-30-18-13(32-22-17(27)15(25)16(26)20(33-22)21(28)29)8-11(24)14-10(23)7-12(31-19(14)18)9-5-3-2-4-6-9/h2-8,15-17,20,22,24-27H,1H3,(H,28,29)/t15-,16-,17+,20-,22+/m0/s1

>  <PUBCHEM_IUPAC_INCHIKEY>
LNOHXHDWGCMVCO-NTKSAMNMSA-N

>  <PUBCHEM_XLOGP3_AA>
1.4

>  <PUBCHEM_EXACT_MASS>
460.100561

>  <PUBCHEM_MOLECULAR_FORMULA>
C22H20O11

>  <PUBCHEM_MOLECULAR_WEIGHT>
460.4

>  <PUBCHEM_OPENEYE_CAN_SMILES>
COC1=C(C=C(C2=C1OC(=CC2=O)C3=CC=CC=C3)O)OC4C(C(C(C(O4)C(=O)O)O)O)O

>  <PUBCHEM_OPENEYE_ISO_SMILES>
COC1=C(C=C(C2=C1OC(=CC2=O)C3=CC=CC=C3)O)O[C@H]4[C@@H]([C@H]([C@@H]([C@H](O4)C(=O)O)O)O)O

>  <PUBCHEM_CACTVS_TPSA>
172

>  <PUBCHEM_MONOISOTOPIC_WEIGHT>
460.100561

>  <PUBCHEM_TOTAL_CHARGE>
0

>  <PUBCHEM_HEAVY_ATOM_COUNT>
33

>  <PUBCHEM_ATOM_DEF_STEREO_COUNT>
5

>  <PUBCHEM_ATOM_UDEF_STEREO_COUNT>
0

>  <PUBCHEM_BOND_DEF_STEREO_COUNT>
0

>  <PUBCHEM_BOND_UDEF_STEREO_COUNT>
0

>  <PUBCHEM_ISOTOPIC_ATOM_COUNT>
0

>  <PUBCHEM_COMPONENT_COUNT>
1

>  <PUBCHEM_CACTVS_TAUTO_COUNT>
-1

>  <PUBCHEM_COORDINATE_TYPE>
1
5
255

>  <PUBCHEM_BONDANNOTATIONS>
16  17  5
18  19  8
18  20  8
19  21  8
15  2  5
20  23  8
21  22  8
22  23  8
22  24  8
24  26  8
25  26  8
27  29  8
27  30  8
29  31  8
12  3  5
30  32  8
31  33  8
32  33  8
13  4  6
14  5  6
8  21  8
8  25  8

>  <Favorite_cresset>
false

>  <MW_cresset>
459.4

>  <#Atoms_cresset>
33

>  <SlogP_cresset>
1.4

>  <TPSA_cresset>
175

>  <Flexibility_cresset>
7.6

>  <#RB_cresset>
9

>  <Rof5_cresset>
1

>  <Filename_cresset>
drag.58_554.sdf

>  <Confs_cresset>
0

>  <Poses_cresset>
0

$$$$
Site3m_VTRRT_D
  xed2sdf_05210316543D
 
 92 97  0  0  1  0  0  0  0  0999 V2000
  -54.3933   -9.2689   12.3870 C   0  0  0  0  0  0  0  0  0  0  0  0
  -54.3524   -8.3642   13.4232 C   0  0  0  0  0  0  0  0  0  0  0  0
  -55.1808   -7.2631   13.4183 C   0  0  0  0  0  0  0  0  0  0  0  0
  -56.0524   -7.0763   12.3673 C   0  0  0  0  0  0  0  0  0  0  0  0
  -56.0952   -7.9805   11.3303 C   0  0  0  0  0  0  0  0  0  0  0  0
  -55.2655   -9.0776   11.3402 C   0  0  0  0  0  0  0  0  0  0  0  0
  -55.1385   -6.2619   14.5645 C   0  0  0  0  0  0  0  0  0  0  0  0
  -53.7237   -5.9110   15.0794 C   0  0  0  0  0  0  0  0  0  0  0  0
  -53.3254   -6.9151   16.1274 N   0  3  0  0  0  0  0  0  0  0  0  0
  -53.6757   -4.4691   15.6436 C   0  0  0  0  0  0  0  0  0  0  0  0
  -54.9602   -4.0809   16.1577 O   0  0  0  0  0  0  0  0  0  0  0  0
  -53.2151   -3.4704   14.5531 C   0  0  0  0  0  0  0  0  0  0  0  0
  -51.8284   -2.8194   14.7842 C   0  0  0  0  0  0  0  0  0  0  0  0
  -50.6646   -3.7424   14.3503 C   0  0  0  0  0  0  0  0  0  0  0  0
  -49.8388   -4.3209   15.4911 C   0  0  0  0  0  0  0  0  0  0  0  0
  -50.2994   -5.4097   16.1987 C   0  0  0  0  0  0  0  0  0  0  0  0
  -49.5526   -5.9375   17.2273 C   0  0  0  0  0  0  0  0  0  0  0  0
  -48.3392   -5.3774   17.5548 C   0  0  0  0  0  0  0  0  0  0  0  0
  -47.8748   -4.2896   16.8517 C   0  0  0  0  0  0  0  0  0  0  0  0
  -48.6232   -3.7633   15.8234 C   0  0  0  0  0  0  0  0  0  0  0  0
  -51.6903   -1.4965   14.1539 N   0  0  0  0  0  0  0  0  0  0  0  0
  -52.0282   -0.3404   15.0595 P   0  0  0  0  0  0  0  0  0  0  0  0
  -51.8502   -0.7807   16.5966 O   0  0  0  0  0  0  0  0  0  0  0  0
  -50.9622    0.8558   14.9035 O   0  0  0  0  0  0  0  0  0  0  0  0
  -53.4345    0.1463   14.8224 O   0  0  0  0  0  0  0  0  0  0  0  0
  -51.9229    0.2308   17.6151 C   0  0  0  0  0  0  0  0  0  0  0  0
  -50.9762    1.6622   13.8047 C   0  0  0  0  0  0  0  0  0  0  0  0
  -51.9058    2.6797   13.7144 C   0  0  0  0  0  0  0  0  0  0  0  0
  -51.9256    3.4988   12.6103 C   0  0  0  0  0  0  0  0  0  0  0  0
  -51.0154    3.3089   11.5947 C   0  0  0  0  0  0  0  0  0  0  0  0
  -50.0846    2.2981   11.6829 C   0  0  0  0  0  0  0  0  0  0  0  0
  -50.0645    1.4749   12.7838 C   0  0  0  0  0  0  0  0  0  0  0  0
  -50.5532    0.4395   18.2860 C   0  0  0  0  0  0  0  0  0  0  0  0
  -49.5369    0.8031   17.3395 O   0  0  0  0  0  0  0  0  0  0  0  0
  -48.2414    0.4039   17.8317 C   0  0  0  0  0  0  0  0  0  0  0  0
  -48.5102   -0.5361   19.0342 C   0  0  0  0  0  0  0  0  0  0  0  0
  -50.0166   -0.8222   18.9768 C   0  0  0  0  0  0  0  0  0  0  0  0
  -50.2558   -1.9960   18.1849 O   0  0  0  0  0  0  0  0  0  0  0  0
  -47.7516   -1.7552   18.9853 O   0  0  0  0  0  0  0  0  0  0  0  0
  -47.4405   -0.2051   16.6840 C   0  0  0  0  0  0  0  0  0  0  0  0
  -47.5436    1.6057   18.3097 C   0  0  0  0  0  0  0  0  0  0  0  0
  -47.0052    2.5353   18.6795 N   0  0  0  0  0  0  0  0  0  0  0  0
  -46.1494   -0.5991   16.8234 N   0  0  0  0  0  0  0  0  0  0  0  0
  -45.7876   -1.0716   15.6017 C   0  0  0  0  0  0  0  0  0  0  0  0
  -46.8132   -0.9863   14.7162 C   0  0  0  0  0  0  0  0  0  0  0  0
  -47.8776   -0.4237   15.4257 C   0  0  0  0  0  0  0  0  0  0  0  0
  -45.2673   -0.5967   17.8663 N   0  0  0  0  0  0  0  0  0  0  0  0
  -44.0601   -1.0623   17.6460 C   0  0  0  0  0  0  0  0  0  0  0  0
  -43.5844   -1.5579   16.4585 N   0  0  0  0  0  0  0  0  0  0  0  0
  -44.4621   -1.5548   15.4453 C   0  0  0  0  0  0  0  0  0  0  0  0
  -44.0264   -2.0401   14.2352 N   0  0  0  0  0  0  0  0  0  0  0  0
  -53.0759   -5.9491   14.3183 H   0  0  0  0  0  0  0  0  0  0  0  0
  -53.0140   -4.4522   16.3930 H   0  0  0  0  0  0  0  0  0  0  0  0
  -51.7713   -2.6838   15.7731 H   0  0  0  0  0  0  0  0  0  0  0  0
  -50.7258    1.1656   18.9514 H   0  0  0  0  0  0  0  0  0  0  0  0
  -48.2270   -0.1032   19.8901 H   0  0  0  0  0  0  0  0  0  0  0  0
  -50.4447   -0.9976   19.8633 H   0  0  0  0  0  0  0  0  0  0  0  0
  -53.7888  -10.0655   12.3949 H   0  0  0  0  0  0  0  0  0  0  0  0
  -53.7184   -8.5063   14.1833 H   0  0  0  0  0  0  0  0  0  0  0  0
  -56.6568   -6.2798   12.3578 H   0  0  0  0  0  0  0  0  0  0  0  0
  -56.7294   -7.8397   10.5701 H   0  0  0  0  0  0  0  0  0  0  0  0
  -55.2960   -9.7353   10.5874 H   0  0  0  0  0  0  0  0  0  0  0  0
  -55.6632   -6.6404   15.3273 H   0  0  0  0  0  0  0  0  0  0  0  0
  -55.5203   -5.4111   14.2038 H   0  0  0  0  0  0  0  0  0  0  0  0
  -54.0513   -7.2847   16.5328 H   0  0  0  0  0  0  0  0  0  0  0  0
  -52.8198   -6.5379   16.7833 H   0  0  0  0  0  0  0  0  0  0  0  0
  -55.2519   -4.6782   16.9124 H   0  0  0  0  0  0  0  0  0  0  0  0
  -53.8951   -2.7393   14.4966 H   0  0  0  0  0  0  0  0  0  0  0  0
  -53.1283   -4.0049   13.7123 H   0  0  0  0  0  0  0  0  0  0  0  0
  -50.0539   -3.2158   13.7586 H   0  0  0  0  0  0  0  0  0  0  0  0
  -51.0861   -4.5235   13.8897 H   0  0  0  0  0  0  0  0  0  0  0  0
  -51.1810   -5.8188   15.9636 H   0  0  0  0  0  0  0  0  0  0  0  0
  -49.8920   -6.7281   17.7369 H   0  0  0  0  0  0  0  0  0  0  0  0
  -47.7960   -5.7601   18.3020 H   0  0  0  0  0  0  0  0  0  0  0  0
  -46.9931   -3.8810   17.0880 H   0  0  0  0  0  0  0  0  0  0  0  0
  -48.2828   -2.9725   15.3147 H   0  0  0  0  0  0  0  0  0  0  0  0
  -52.2481   -1.4479   13.2932 H   0  0  0  0  0  0  0  0  0  0  0  0
  -52.5895   -0.0471   18.3068 H   0  0  0  0  0  0  0  0  0  0  0  0
  -52.2015    1.0915   17.1891 H   0  0  0  0  0  0  0  0  0  0  0  0
  -52.5652    2.8208   14.4526 H   0  0  0  0  0  0  0  0  0  0  0  0
  -52.6015    4.2331   12.5449 H   0  0  0  0  0  0  0  0  0  0  0  0
  -51.0306    3.9056   10.7925 H   0  0  0  0  0  0  0  0  0  0  0  0
  -49.4228    2.1627   10.9454 H   0  0  0  0  0  0  0  0  0  0  0  0
  -49.3892    0.7397   12.8457 H   0  0  0  0  0  0  0  0  0  0  0  0
  -49.8606   -1.9035   17.2642 H   0  0  0  0  0  0  0  0  0  0  0  0
  -47.9090   -2.2489   18.1231 H   0  0  0  0  0  0  0  0  0  0  0  0
  -46.8082   -1.2676   13.7566 H   0  0  0  0  0  0  0  0  0  0  0  0
  -48.7896   -0.2215   15.0692 H   0  0  0  0  0  0  0  0  0  0  0  0
  -43.4251   -1.0549   18.4188 H   0  0  0  0  0  0  0  0  0  0  0  0
  -43.2013   -2.3347   14.1538 H   0  0  0  0  0  0  0  0  0  0  0  0
  -44.5677   -2.0567   13.5404 H   0  0  0  0  0  0  0  0  0  0  0  0
  -52.7533   -7.7006   15.6562 H   0  0  0  0  0  0  0  0  0  0  0  0
  1  2  2  0
  2  3  1  0
  3  4  2  0
  3  7  1  0
  4  5  1  0
  5  6  2  0
  6  1  1  0
  7  8  1  0
  8  9  1  0
  8 10  1  0
 10 11  1  0
 10 12  1  0
 12 13  1  0
 13 14  1  0
 13 21  1  0
 14 15  1  0
 15 16  2  0
 16 17  1  0
 17 18  2  0
 18 19  1  0
 19 20  2  0
 20 15  1  0
 21 22  1  0
 22 23  1  0
 22 24  1  0
 22 25  2  0
 23 26  1  0
 24 27  1  0
 27 28  2  0
 28 29  1  0
 29 30  2  0
 30 31  1  0
 31 32  2  0
 32 27  1  0
 33 26  1  0
 33 34  1  0
 34 35  1  0
 35 36  1  0
 35 40  1  0
 35 41  1  0
 36 37  1  0
 36 39  1  0
 37 33  1  0
 37 38  1  0
 40 43  1  0
 41 42  3  0
 43 44  1  0
 43 47  1  0
 44 45  2  0
 45 46  1  0
 46 40  2  0
 47 48  2  0
 48 49  1  0
 49 50  2  0
 50 44  1  0
 50 51  1  0
  1 58  1  0
  2 59  1  0
  4 60  1  0
  5 61  1  0
  6 62  1  0
  7 63  1  0
  7 64  1  0
  8 52  1  0
  9 65  1  0
  9 66  1  0
  9 92  1  0
 10 53  1  0
 11 67  1  0
 12 68  1  0
 12 69  1  0
 13 54  1  0
 14 70  1  0
 14 71  1  0
 16 72  1  0
 17 73  1  0
 18 74  1  0
 19 75  1  0
 20 76  1  0
 21 77  1  0
 26 78  1  0
 26 79  1  0
 28 80  1  0
 29 81  1  0
 30 82  1  0
 31 83  1  0
 32 84  1  0
 33 55  1  0
 36 56  1  0
 37 57  1  0
 38 85  1  0
 39 86  1  0
 45 87  1  0
 46 88  1  0
 48 89  1  0
 51 90  1  0
 51 91  1  0
M  CHG  1   9   1
M  END
>  <LF dG>
-5.527

>  <LF VSscore>
-9.498

>  <LF Rank Score>
-10.166

>  <LF LE>
-0.108

>  <LF Structure Name>
C:\Users\Odara\AppData\Local\Temp\LeadFinder_15172_1\Ligand_1.sdf

>  <LF SDF id>
0

>  <LF Pose rank>
0

>  <LF version>
2001 1, 19 January 2019

>  <Favorite_cresset>
false

>  <MW_cresset>
714.7

>  <#Atoms_cresset>
51

>  <SlogP_cresset>
4

>  <TPSA_cresset>
225.1

>  <Flexibility_cresset>
17.1

>  <#RB_cresset>
18

>  <Rof5_cresset>
3

>  <Filename_cresset>
drag.26_85.sdf

>  <Confs_cresset>
0

>  <Poses_cresset>
0

$$$$
W_Site3m_VTRRT_D
  xed2sdf_05210316543D
 
 92 97  0  0  1  0  0  0  0  0999 V2000
  -43.1290   -0.3652   20.8217 C   0  0  0  0  0  0  0  0  0  0  0  0
  -44.1066    0.4750   21.3033 C   0  0  0  0  0  0  0  0  0  0  0  0
  -44.3733    1.6672   20.6668 C   0  0  0  0  0  0  0  0  0  0  0  0
  -43.6534    2.0122   19.5434 C   0  0  0  0  0  0  0  0  0  0  0  0
  -42.6755    1.1730   19.0602 C   0  0  0  0  0  0  0  0  0  0  0  0
  -42.4128   -0.0164   19.6998 C   0  0  0  0  0  0  0  0  0  0  0  0
  -45.4556    2.5952   21.1995 C   0  0  0  0  0  0  0  0  0  0  0  0
  -46.9061    2.1214   20.9534 C   0  0  0  0  0  0  0  0  0  0  0  0
  -47.2066    0.9536   21.8539 N   0  3  0  0  0  0  0  0  0  0  0  0
  -47.1193    1.7295   19.4713 C   0  0  0  0  0  0  0  0  0  0  0  0
  -47.6145    2.8396   18.7038 O   0  0  0  0  0  0  0  0  0  0  0  0
  -48.0884    0.5308   19.3525 C   0  0  0  0  0  0  0  0  0  0  0  0
  -47.5098   -0.5936   18.4659 C   0  0  0  0  0  0  0  0  0  0  0  0
  -45.9675   -0.5228   18.4299 C   0  0  0  0  0  0  0  0  0  0  0  0
  -45.3245   -0.8218   17.0836 C   0  0  0  0  0  0  0  0  0  0  0  0
  -45.8584   -0.2882   15.9315 C   0  0  0  0  0  0  0  0  0  0  0  0
  -45.2797   -0.5527   14.7111 C   0  0  0  0  0  0  0  0  0  0  0  0
  -44.1627   -1.3528   14.6386 C   0  0  0  0  0  0  0  0  0  0  0  0
  -43.6252   -1.8873   15.7867 C   0  0  0  0  0  0  0  0  0  0  0  0
  -44.2052   -1.6216   17.0063 C   0  0  0  0  0  0  0  0  0  0  0  0
  -47.9606   -1.8737   19.0333 N   0  0  0  0  0  0  0  0  0  0  0  0
  -48.5716   -2.8157   18.0289 P   0  0  0  0  0  0  0  0  0  0  0  0
  -48.0404   -4.3048   18.3262 O   0  0  0  0  0  0  0  0  0  0  0  0
  -48.0580   -2.5239   16.5298 O   0  0  0  0  0  0  0  0  0  0  0  0
  -50.0769   -2.7845   18.0953 O   0  0  0  0  0  0  0  0  0  0  0  0
  -48.7340   -5.4076   17.7216 C   0  0  0  0  0  0  0  0  0  0  0  0
  -48.9151   -2.1638   15.5288 C   0  0  0  0  0  0  0  0  0  0  0  0
  -49.2139   -3.0231   14.4875 C   0  0  0  0  0  0  0  0  0  0  0  0
  -50.0773   -2.6333   13.4912 C   0  0  0  0  0  0  0  0  0  0  0  0
  -50.6518   -1.3827   13.5272 C   0  0  0  0  0  0  0  0  0  0  0  0
  -50.3598   -0.5220   14.5614 C   0  0  0  0  0  0  0  0  0  0  0  0
  -49.4939   -0.9096   15.5564 C   0  0  0  0  0  0  0  0  0  0  0  0
  -48.9523   -6.5408   18.7366 C   0  0  0  0  0  0  0  0  0  0  0  0
  -47.7445   -6.8392   19.4594 O   0  0  0  0  0  0  0  0  0  0  0  0
  -47.6427   -8.2552   19.7070 C   0  0  0  0  0  0  0  0  0  0  0  0
  -48.9177   -8.8848   19.0962 C   0  0  0  0  0  0  0  0  0  0  0  0
  -49.3780   -7.8533   18.0607 C   0  0  0  0  0  0  0  0  0  0  0  0
  -48.6825   -8.0658   16.8221 O   0  0  0  0  0  0  0  0  0  0  0  0
  -48.7023  -10.1756   18.5042 O   0  0  0  0  0  0  0  0  0  0  0  0
  -46.3119   -8.6852   19.0977 C   0  0  0  0  0  0  0  0  0  0  0  0
  -47.6301   -8.4676   21.1600 C   0  0  0  0  0  0  0  0  0  0  0  0
  -47.6184   -8.6317   22.2839 N   0  0  0  0  0  0  0  0  0  0  0  0
  -45.8183   -9.9320   19.2954 N   0  0  0  0  0  0  0  0  0  0  0  0
  -44.6408   -9.9617   18.6177 C   0  0  0  0  0  0  0  0  0  0  0  0
  -44.3912   -8.7724   18.0117 C   0  0  0  0  0  0  0  0  0  0  0  0
  -45.4779   -7.9525   18.3285 C   0  0  0  0  0  0  0  0  0  0  0  0
  -46.2615  -11.0255   19.9842 N   0  0  0  0  0  0  0  0  0  0  0  0
  -45.5129  -12.1032   19.9664 C   0  0  0  0  0  0  0  0  0  0  0  0
  -44.3142  -12.2488   19.3163 N   0  0  0  0  0  0  0  0  0  0  0  0
  -43.8923  -11.1676   18.6460 C   0  0  0  0  0  0  0  0  0  0  0  0
  -42.6947  -11.2724   17.9795 N   0  0  0  0  0  0  0  0  0  0  0  0
  -47.5316    2.8735   21.1613 H   0  0  0  0  0  0  0  0  0  0  0  0
  -46.2296    1.4625   19.1010 H   0  0  0  0  0  0  0  0  0  0  0  0
  -47.8291   -0.4968   17.5231 H   0  0  0  0  0  0  0  0  0  0  0  0
  -49.6713   -6.2097   19.3472 H   0  0  0  0  0  0  0  0  0  0  0  0
  -49.6025   -9.0690   19.8013 H   0  0  0  0  0  0  0  0  0  0  0  0
  -50.3501   -7.8836   17.8289 H   0  0  0  0  0  0  0  0  0  0  0  0
  -42.9388   -1.2296   21.2873 H   0  0  0  0  0  0  0  0  0  0  0  0
  -44.6256    0.2191   22.1187 H   0  0  0  0  0  0  0  0  0  0  0  0
  -43.8427    2.8763   19.0770 H   0  0  0  0  0  0  0  0  0  0  0  0
  -42.1561    1.4279   18.2447 H   0  0  0  0  0  0  0  0  0  0  0  0
  -41.7021   -0.6269   19.3494 H   0  0  0  0  0  0  0  0  0  0  0  0
  -45.3411    3.4885   20.7647 H   0  0  0  0  0  0  0  0  0  0  0  0
  -45.3369    2.6193   22.1920 H   0  0  0  0  0  0  0  0  0  0  0  0
  -46.8842    1.0844   22.6948 H   0  0  0  0  0  0  0  0  0  0  0  0
  -46.8339    0.1826   21.5454 H   0  0  0  0  0  0  0  0  0  0  0  0
  -46.9904    3.0750   17.9508 H   0  0  0  0  0  0  0  0  0  0  0  0
  -48.9496    0.8479   18.9555 H   0  0  0  0  0  0  0  0  0  0  0  0
  -48.2323    0.1572   20.2688 H   0  0  0  0  0  0  0  0  0  0  0  0
  -45.6127   -1.1798   19.0950 H   0  0  0  0  0  0  0  0  0  0  0  0
  -45.7337    0.4272   18.6371 H   0  0  0  0  0  0  0  0  0  0  0  0
  -46.6701    0.2936   15.9819 H   0  0  0  0  0  0  0  0  0  0  0  0
  -45.6711   -0.1632   13.8774 H   0  0  0  0  0  0  0  0  0  0  0  0
  -43.7420   -1.5455   13.7521 H   0  0  0  0  0  0  0  0  0  0  0  0
  -42.8133   -2.4687   15.7352 H   0  0  0  0  0  0  0  0  0  0  0  0
  -43.8124   -2.0107   17.8396 H   0  0  0  0  0  0  0  0  0  0  0  0
  -48.6730   -1.6755   19.7445 H   0  0  0  0  0  0  0  0  0  0  0  0
  -48.1961   -5.7525   16.9524 H   0  0  0  0  0  0  0  0  0  0  0  0
  -49.6269   -5.0881   17.4044 H   0  0  0  0  0  0  0  0  0  0  0  0
  -48.7996   -3.9327   14.4586 H   0  0  0  0  0  0  0  0  0  0  0  0
  -50.2884   -3.2585   12.7399 H   0  0  0  0  0  0  0  0  0  0  0  0
  -51.2808   -1.0997   12.8031 H   0  0  0  0  0  0  0  0  0  0  0  0
  -50.7778    0.3860   14.5886 H   0  0  0  0  0  0  0  0  0  0  0  0
  -49.2818   -0.2806   16.3042 H   0  0  0  0  0  0  0  0  0  0  0  0
  -47.9379   -8.7334   16.9299 H   0  0  0  0  0  0  0  0  0  0  0  0
  -48.0857  -10.1159   17.7115 H   0  0  0  0  0  0  0  0  0  0  0  0
  -43.5958   -8.5333   17.4547 H   0  0  0  0  0  0  0  0  0  0  0  0
  -45.6121   -7.0044   18.0407 H   0  0  0  0  0  0  0  0  0  0  0  0
  -45.8488  -12.8949   20.4764 H   0  0  0  0  0  0  0  0  0  0  0  0
  -42.2434  -12.0273   18.0070 H   0  0  0  0  0  0  0  0  0  0  0  0
  -42.3764  -10.5885   17.5253 H   0  0  0  0  0  0  0  0  0  0  0  0
  -48.2774    0.8240   21.9088 H   0  0  0  0  0  0  0  0  0  0  0  0
  1  2  2  0
  2  3  1  0
  3  4  2  0
  3  7  1  0
  4  5  1  0
  5  6  2  0
  6  1  1  0
  7  8  1  0
  8  9  1  0
  8 10  1  0
 10 11  1  0
 10 12  1  0
 12 13  1  0
 13 14  1  0
 13 21  1  0
 14 15  1  0
 15 16  2  0
 16 17  1  0
 17 18  2  0
 18 19  1  0
 19 20  2  0
 20 15  1  0
 21 22  1  0
 22 23  1  0
 22 24  1  0
 22 25  2  0
 23 26  1  0
 24 27  1  0
 27 28  2  0
 28 29  1  0
 29 30  2  0
 30 31  1  0
 31 32  2  0
 32 27  1  0
 33 26  1  0
 33 34  1  0
 34 35  1  0
 35 36  1  0
 35 40  1  0
 35 41  1  0
 36 37  1  0
 36 39  1  0
 37 33  1  0
 37 38  1  0
 40 43  1  0
 41 42  3  0
 43 44  1  0
 43 47  1  0
 44 45  2  0
 45 46  1  0
 46 40  2  0
 47 48  2  0
 48 49  1  0
 49 50  2  0
 50 44  1  0
 50 51  1  0
  1 58  1  0
  2 59  1  0
  4 60  1  0
  5 61  1  0
  6 62  1  0
  7 63  1  0
  7 64  1  0
  8 52  1  0
  9 65  1  0
  9 66  1  0
  9 92  1  0
 10 53  1  0
 11 67  1  0
 12 68  1  0
 12 69  1  0
 13 54  1  0
 14 70  1  0
 14 71  1  0
 16 72  1  0
 17 73  1  0
 18 74  1  0
 19 75  1  0
 20 76  1  0
 21 77  1  0
 26 78  1  0
 26 79  1  0
 28 80  1  0
 29 81  1  0
 30 82  1  0
 31 83  1  0
 32 84  1  0
 33 55  1  0
 36 56  1  0
 37 57  1  0
 38 85  1  0
 39 86  1  0
 45 87  1  0
 46 88  1  0
 48 89  1  0
 51 90  1  0
 51 91  1  0
M  CHG  1   9   1
M  END
>  <LF dG>
-3.408

>  <LF VSscore>
-10.011

>  <LF Rank Score>
-10.008

>  <LF LE>
-0.067

>  <LF Structure Name>
C:\Users\Odara\AppData\Local\Temp\LeadFinder_10244_1\Ligand_1.sdf

>  <LF SDF id>
0

>  <LF Pose rank>
0

>  <LF version>
2001 1, 19 January 2019

>  <Favorite_cresset>
false

>  <MW_cresset>
714.7

>  <#Atoms_cresset>
51

>  <SlogP_cresset>
4

>  <TPSA_cresset>
225.1

>  <Flexibility_cresset>
17.1

>  <#RB_cresset>
18

>  <Rof5_cresset>
3

>  <Filename_cresset>
drag.23_854.sdf

>  <Confs_cresset>
0

>  <Poses_cresset>
0

$$$$
