REMARK  8 active torsions:
REMARK  status: ('A' for Active; 'I' for Inactive)
REMARK    1  A    between atoms: O_1  and  C_33 
REMARK    2  A    between atoms: O_1  and  C_49 
REMARK    3  A    between atoms: O_8  and  C_53 
REMARK    4  A    between atoms: O_12  and  C_56 
REMARK    5  A    between atoms: O_13  and  C_57 
REMARK    6  A    between atoms: O_14  and  C_59 
REMARK    7  A    between atoms: C_52  and  C_55 
REMARK    8  A    between atoms: C_58  and  C_60 
ROOT
HETATM    1  O   MOL     1       0.415  -2.017  -0.027  1.00  0.00     0.000 OA
ENDROOT
BRANCH   1   2
HETATM    2  C   MOL     1       0.415  -1.017   0.023  1.00  0.00     0.007 C 
HETATM    3  C   MOL     1       1.353  -0.471  -0.027  1.00  0.00    -0.058 C 
HETATM    4  C   MOL     1       1.340   0.614  -0.527  1.00  0.00    -0.007 C 
HETATM    5  C   MOL     1       2.353  -0.463  -0.027  1.00  0.00     0.027 C 
HETATM    6  C   MOL     1       1.860  -1.333  -0.027  1.00  0.00    -0.005 C 
HETATM    7  C   MOL     1       0.440   1.138   0.023  1.00  0.00    -0.037 A 
HETATM    8  C   MOL     1       2.241   1.138  -0.027  1.00  0.00     0.006 C 
HETATM    9  C   MOL     1       0.453   2.180  -0.527  1.00  0.00     0.013 A 
HETATM   10  C   MOL     1      -0.509   0.614  -0.027  1.00  0.00     0.014 C 
HETATM   11  C   MOL     1      -0.424   1.642   0.973  1.00  0.00     0.081 C 
HETATM   12  C   MOL     1      -0.415   2.677  -0.027  1.00  0.00    -0.024 A 
HETATM   13  C   MOL     1       1.317   2.683   0.023  1.00  0.00    -0.033 A 
HETATM   14  C   MOL     1       1.313   3.683  -0.077  1.00  0.00    -0.030 A 
HETATM   15  C   MOL     1       2.228   2.180  -0.027  1.00  0.00     0.011 C 
HETATM   16  C   MOL     1       2.301   2.861   0.973  1.00  0.00     0.044 C 
HETATM   17  C   MOL     1       0.445   4.180  -0.027  1.00  0.00    -0.018 A 
HETATM   18  C   MOL     1       0.425   5.221   0.473  1.00  0.00    -0.002 C 
HETATM   19  C   MOL     1      -0.419   3.677  -0.027  1.00  0.00    -0.036 C 
HETATM   20  C   MOL     1       2.221   4.194  -0.027  1.00  0.00     0.041 A 
HETATM   21  C   MOL     1       1.321   5.753   0.023  1.00  0.00    -0.059 C 
HETATM   22  C   MOL     1      -0.529   5.738  -0.027  1.00  0.00     0.003 C 
HETATM   23  C   MOL     1       2.225   5.235  -0.027  1.00  0.00     0.009 C 
HETATM   24  C   MOL     1       1.325   6.838  -0.027  1.00  0.00     0.014 C 
HETATM   25  C   MOL     1       2.181   6.263   0.973  1.00  0.00     0.028 C 
HETATM   26  C   MOL     1       0.383   7.377  -0.027  1.00  0.00     0.253 A 
HETATM   27  C   MOL     1      -0.550   6.823  -0.077  1.00  0.00     0.003 A 
HETATM   28  O   MOL     1      -0.577   8.555  -0.027  1.00  0.00    -0.382 OA
HETATM   29  C   MOL     1      -1.550   6.808  -1.027  1.00  0.00     0.044 C 
HETATM   30  C   MOL     1      -1.063   7.681  -0.027  1.00  0.00     0.080 A 
HETATM   31  O   MOL     1      -2.063   7.666  -0.027  1.00  0.00     0.000 OA
HETATM   32  C   MOL     1       2.298   3.513  -1.027  1.00  0.00     0.025 C 
HETATM   33  C   MOL     1      -0.522  -0.471  -0.027  1.00  0.00    -0.012 C 
HETATM   34  O   MOL     1      -1.280   2.173  -0.027  1.00  0.00     0.000 OA
ENDBRANCH   1   2
BRANCH   1  35
HETATM   35  C   MOL     1      -0.450  -2.517  -0.077  1.00  0.00    -0.027 A 
HETATM   36  O   MOL     1      -1.317  -2.017  -0.027  1.00  0.00     0.000 OA
HETATM   37  C   MOL     1      -2.183  -2.517   0.023  1.00  0.00     0.096 A 
HETATM   38  C   MOL     1      -2.183  -3.517  -0.077  1.00  0.00     0.133 A 
HETATM   39  C   MOL     1      -1.317  -4.017   0.023  1.00  0.00     0.055 A 
HETATM   40  O   MOL     1      -1.317  -5.017   0.973  1.00  0.00     0.000 OA
HETATM   41  C   MOL     1      -0.450  -3.517  -0.077  1.00  0.00     0.007 A 
HETATM   42  H   MOL     1      -1.853  -5.327  -0.027  1.00  0.00     0.000 HD
HETATM   43  O   MOL     1      -0.450  -5.517  -0.027  1.00  0.00     0.000 OA
HETATM   44  C   MOL     1       0.416  -5.017   0.023  1.00  0.00     0.057 A 
HETATM   45  C   MOL     1      -0.450  -6.517   0.023  1.00  0.00     0.071 C 
HETATM   46  O   MOL     1       0.415  -4.017  -0.027  1.00  0.00     0.000 OA
HETATM   47  C   MOL     1       1.282  -5.517  -0.077  1.00  0.00     0.154 A 
HETATM   48  C   MOL     1       1.282  -6.517   0.023  1.00  0.00     0.211 A 
HETATM   49  C   MOL     1       0.416  -7.017  -0.077  1.00  0.00     0.146 C 
BRANCH  37  50
HETATM   50  C   MOL     1      -3.049  -2.017   0.973  1.00  0.00     0.297 C 
HETATM   51  O   MOL     1      -3.915  -2.517  -0.027  1.00  0.00    -0.188 OA
HETATM   52  O   MOL     1      -3.049  -1.017  -0.027  1.00  0.00    -0.188 OA
ENDBRANCH  37  50
BRANCH  38  53
HETATM   53  O   MOL     1      -3.049  -4.017  -1.027  1.00  0.00    -0.395 OA
HETATM   54  H   MOL     1      -3.049  -4.637  -0.027  1.00  0.00     0.210 HD
ENDBRANCH  38  53
BRANCH  47  55
HETATM   55  O   MOL     1       2.148  -5.017  -1.027  1.00  0.00    -0.393 OA
HETATM   56  H   MOL     1       2.148  -4.397  -0.027  1.00  0.00     0.210 HD
ENDBRANCH  47  55
BRANCH  48  57
HETATM   57  O   MOL     1       2.148  -7.017   0.973  1.00  0.00    -0.392 OA
HETATM   58  H   MOL     1       2.685  -6.707  -0.027  1.00  0.00     0.210 HD
ENDBRANCH  48  57
BRANCH  49  59
HETATM   59  O   MOL     1       0.416  -8.017  -1.027  1.00  0.00    -0.399 OA
HETATM   60  H   MOL     1       0.952  -8.327  -0.027  1.00  0.00     0.209 HD
ENDBRANCH  49  59
BRANCH  45  61
HETATM   61  C   MOL     1      -1.317  -7.017   0.973  1.00  0.00     0.292 C 
HETATM   62  O   MOL     1      -1.317  -8.017  -0.027  1.00  0.00    -0.188 OA
HETATM   63  O   MOL     1      -2.183  -6.517  -0.027  1.00  0.00    -0.188 OA
ENDBRANCH  45  61
ENDBRANCH   1  35
TORSDOF 8
