REMARK  16 active torsions:
REMARK  status: ('A' for Active; 'I' for Inactive)
REMARK    1  A    between atoms: N_3  and  C_13 
REMARK    2  A    between atoms: C_6  and  C_37 
REMARK    3  A    between atoms: C_13  and  C_14 
REMARK    4  A    between atoms: C_13  and  C_17 
REMARK       I    between atoms: C_14  and  N_15 
REMARK    5  A    between atoms: N_15  and  C_16 
REMARK    6  A    between atoms: C_16  and  C_27 
REMARK    7  A    between atoms: C_16  and  C_28 
REMARK    8  A    between atoms: C_25  and  C_27 
REMARK    9  A    between atoms: C_28  and  C_29 
REMARK   10  A    between atoms: C_29  and  C_30 
REMARK   11  A    between atoms: C_29  and  O_36 
REMARK   12  A    between atoms: C_30  and  N_31 
REMARK   13  A    between atoms: C_30  and  C_37 
REMARK       I    between atoms: N_31  and  C_32 
REMARK   14  A    between atoms: C_32  and  C_33 
REMARK   15  A    between atoms: C_33  and  O_34 
REMARK   16  A    between atoms: O_34  and  C_35 
ROOT
HETATM    1  C   UNK     0     -12.826  12.835  34.863  0.00  0.00     0.126 C 
HETATM    2  C   UNK     0     -10.695  13.456  33.693  0.00  0.00     0.130 C 
HETATM    3  N   UNK     0     -11.312  14.795  33.369  0.00  0.00    -0.320 N 
HETATM    4  C   UNK     0     -12.602  15.111  33.773  0.00  0.00     0.319 C 
HETATM    5  N   UNK     0     -13.303  14.178  34.478  0.00  0.00    -0.343 N 
HETATM    6  O   UNK     0     -13.116  16.186  33.516  0.00  0.00    -0.247 OA
HETATM    7  C   UNK     0     -11.296  12.774  34.940  0.00  0.00     0.040 C 
HETATM    8  H   UNK     0     -14.236  14.503  34.732  0.00  0.00     0.164 HD
ENDROOT
BRANCH   3   9
HETATM    9  C   UNK     0     -10.526  15.812  32.587  0.00  0.00     0.184 C 
BRANCH   9  10
HETATM   10  C   UNK     0     -10.356  15.313  31.126  0.00  0.00     0.241 C 
HETATM   11  N   UNK     0     -11.218  15.924  30.255  0.00  0.00    -0.354 N 
HETATM   12  H   UNK     0     -11.832  16.604  30.703  0.00  0.00     0.162 HD
HETATM   13  O   UNK     0      -9.523  14.456  30.826  0.00  0.00    -0.271 OA
BRANCH  11  14
HETATM   14  C   UNK     0     -11.283  15.652  28.802  0.00  0.00     0.091 C 
BRANCH  14  15
HETATM   15  C   UNK     0     -12.591  14.910  28.442  0.00  0.00     0.063 C 
BRANCH  15  16
HETATM   16  C   UNK     0     -12.855  13.590  29.109  0.00  0.00    -0.056 A 
HETATM   17  C   UNK     0     -13.519  13.542  30.365  0.00  0.00     0.007 A 
HETATM   18  C   UNK     0     -13.773  12.306  31.002  0.00  0.00     0.001 A 
HETATM   19  C   UNK     0     -13.365  11.100  30.386  0.00  0.00     0.000 A 
HETATM   20  C   UNK     0     -12.704  11.139  29.135  0.00  0.00     0.001 A 
HETATM   21  C   UNK     0     -12.451  12.379  28.501  0.00  0.00     0.007 A 
ENDBRANCH  15  16
ENDBRANCH  14  15
BRANCH  14  22
HETATM   22  C   UNK     0     -11.287  16.960  27.981  0.00  0.00     0.059 C 
BRANCH  22  23
HETATM   23  C   UNK     0     -10.116  17.951  28.112  0.00  0.00     0.143 C 
BRANCH  23  24
HETATM   24  C   UNK     0      -8.712  17.443  27.695  0.00  0.00     0.117 C 
BRANCH  24  25
HETATM   25  N   UNK     0      -8.753  17.097  26.255  0.00  0.00    -0.352 N 
HETATM   26  C   UNK     0      -8.266  15.927  25.732  0.00  0.00     0.242 C 
HETATM   27  O   UNK     0      -7.742  15.021  26.389  0.00  0.00    -0.271 OA
HETATM   28  H   UNK     0      -9.155  17.724  25.558  0.00  0.00     0.163 HD
BRANCH  26  29
HETATM   29  C   UNK     0      -8.399  15.807  24.201  0.00  0.00     0.278 C 
BRANCH  29  30
HETATM   30  O   UNK     0      -8.721  17.070  23.590  0.00  0.00    -0.341 OA
BRANCH  30  31
HETATM   31  C   UNK     0      -8.297  17.183  22.252  0.00  0.00     0.081 A 
HETATM   32  C   UNK     0      -9.067  16.640  21.165  0.00  0.00    -0.028 A 
HETATM   33  C   UNK     0      -8.587  16.788  19.836  0.00  0.00     0.009 A 
HETATM   34  C   UNK     0     -10.374  15.915  21.383  0.00  0.00     0.051 C 
HETATM   35  C   UNK     0      -7.374  17.459  19.574  0.00  0.00     0.001 A 
HETATM   36  C   UNK     0      -6.614  17.997  20.632  0.00  0.00     0.009 A 
HETATM   37  C   UNK     0      -7.061  17.868  21.969  0.00  0.00    -0.028 A 
HETATM   38  C   UNK     0      -6.234  18.451  23.064  0.00  0.00     0.051 C 
ENDBRANCH  30  31
ENDBRANCH  29  30
ENDBRANCH  26  29
ENDBRANCH  24  25
BRANCH  24  39
HETATM   39  C   UNK     0      -7.637  18.548  27.916  0.00  0.00     0.066 C 
BRANCH  39  40
HETATM   40  C   UNK     0      -6.228  18.149  27.522  0.00  0.00    -0.056 A 
HETATM   41  C   UNK     0      -5.533  18.892  26.537  0.00  0.00     0.007 A 
HETATM   42  C   UNK     0      -4.218  18.535  26.149  0.00  0.00     0.001 A 
HETATM   43  C   UNK     0      -3.583  17.429  26.745  0.00  0.00     0.000 A 
HETATM   44  C   UNK     0      -4.266  16.681  27.729  0.00  0.00     0.001 A 
HETATM   45  C   UNK     0      -5.579  17.037  28.116  0.00  0.00     0.007 A 
ENDBRANCH  39  40
ENDBRANCH  24  39
ENDBRANCH  23  24
BRANCH  23  46
HETATM   46  O   UNK     0     -10.433  19.034  27.271  0.00  0.00    -0.393 OA
HETATM   47  H   UNK     0      -9.710  19.646  27.352  0.00  0.00     0.210 HD
ENDBRANCH  23  46
ENDBRANCH  22  23
ENDBRANCH  14  22
ENDBRANCH  11  14
ENDBRANCH   9  10
BRANCH   9  48
HETATM   48  C   UNK     0      -9.141  16.141  33.272  0.00  0.00     0.010 C 
HETATM   49  C   UNK     0      -8.309  17.186  32.504  0.00  0.00     0.012 C 
HETATM   50  C   UNK     0      -9.349  16.648  34.718  0.00  0.00     0.012 C 
ENDBRANCH   9  48
ENDBRANCH   3   9
TORSDOF 16
