REMARK  7 active torsions:
REMARK  status: ('A' for Active; 'I' for Inactive)
REMARK    1  A    between atoms: O_2  and  C_10 
REMARK    2  A    between atoms: O_3  and  C_11 
REMARK    3  A    between atoms: O_4  and  C_14 
REMARK    4  A    between atoms: O_6  and  N_9 
REMARK    5  A    between atoms: N_7  and  C_12 
REMARK    6  A    between atoms: N_9  and  C_18 
REMARK    7  A    between atoms: C_13  and  C_14 
ROOT
HETATM    1  O   UNK     0      -1.689  -0.537   1.016  0.00  0.00    -0.353 OA
HETATM    2  C   UNK     0      -1.659   0.983  -0.801  0.00  0.00     0.198 C 
HETATM    3  C   UNK     0      -3.095   0.597  -0.516  0.00  0.00     0.182 C 
HETATM    4  C   UNK     0      -0.964   0.586   0.489  0.00  0.00     0.264 C 
HETATM    5  C   UNK     0      -2.927  -0.685   0.288  0.00  0.00     0.179 C 
ENDROOT
BRANCH   4   6
HETATM    6  N   UNK     0       0.403   0.202   0.280  0.00  0.00    -0.278 N 
HETATM    7  C   UNK     0       0.679  -1.110  -0.073  0.00  0.00     0.102 A 
HETATM    8  C   UNK     0       1.916  -1.553  -0.288  0.00  0.00     0.070 A 
HETATM    9  C   UNK     0       3.010  -0.560  -0.128  0.00  0.00     0.153 A 
HETATM   10  N   UNK     0       2.767   0.680   0.205  0.00  0.00    -0.174 NA
HETATM   11  C   UNK     0       1.473   1.122   0.422  0.00  0.00     0.352 A 
HETATM   12  O   UNK     0       1.262   2.295   0.733  0.00  0.00    -0.244 OA
BRANCH   9  13
HETATM   13  N   UNK     0       4.304  -0.978  -0.339  0.00  0.00    -0.251 N 
HETATM   14  H   UNK     0       4.603  -1.897  -0.643  0.00  0.00     0.196 HD
BRANCH  13  15
HETATM   15  O   UNK     0       5.227   0.018  -0.203  0.00  0.00    -0.288 OA
HETATM   16  H   UNK     0       5.901  -0.407   0.353  0.00  0.00     0.244 HD
ENDBRANCH  13  15
ENDBRANCH   9  13
ENDBRANCH   4   6
BRANCH   5  17
HETATM   17  C   UNK     0      -2.819  -1.931  -0.582  0.00  0.00     0.198 C 
BRANCH  17  18
HETATM   18  O   UNK     0      -2.656  -3.058   0.260  0.00  0.00    -0.398 OA
HETATM   19  H   UNK     0      -2.603  -3.840  -0.316  0.00  0.00     0.209 HD
ENDBRANCH  17  18
ENDBRANCH   5  17
BRANCH   2  20
HETATM   20  O   UNK     0      -1.521   2.359  -1.092  0.00  0.00    -0.388 OA
HETATM   21  H   UNK     0      -0.571   2.546  -1.176  0.00  0.00     0.210 HD
ENDBRANCH   2  20
BRANCH   3  22
HETATM   22  O   UNK     0      -3.710   1.569   0.330  0.00  0.00    -0.390 OA
HETATM   23  H   UNK     0      -3.237   1.596   1.178  0.00  0.00     0.210 HD
ENDBRANCH   3  22
TORSDOF 7
