MODEL 1
REMARK VINA RESULT:      -6.6      0.000      0.000
REMARK  7 active torsions:
REMARK  status: ('A' for Active; 'I' for Inactive)
REMARK    1  A    between atoms: O_2  and  C_10 
REMARK    2  A    between atoms: O_3  and  C_11 
REMARK    3  A    between atoms: O_4  and  C_14 
REMARK    4  A    between atoms: O_6  and  N_9 
REMARK    5  A    between atoms: N_7  and  C_12 
REMARK    6  A    between atoms: N_9  and  C_18 
REMARK    7  A    between atoms: C_13  and  C_14 
ROOT
HETATM    1  O   UNK     0     -67.337 -26.697   1.265  0.00  0.00    -0.353 OA
HETATM    2  C   UNK     0     -67.794 -24.383   1.490  0.00  0.00     0.198 C 
HETATM    3  C   UNK     0     -66.301 -24.597   1.621  0.00  0.00     0.182 C 
HETATM    4  C   UNK     0     -68.240 -25.671   0.821  0.00  0.00     0.264 C 
HETATM    5  C   UNK     0     -66.219 -26.083   1.940  0.00  0.00     0.179 C 
ENDROOT
BRANCH   4   6
HETATM    6  N   UNK     0     -69.579 -26.041   1.180  0.00  0.00    -0.278 N 
HETATM    7  C   UNK     0     -69.767 -26.908   2.245  0.00  0.00     0.102 A 
HETATM    8  C   UNK     0     -70.973 -27.303   2.648  0.00  0.00     0.070 A 
HETATM    9  C   UNK     0     -72.132 -26.764   1.889  0.00  0.00     0.153 A 
HETATM   10  N   UNK     0     -71.972 -25.947   0.882  0.00  0.00    -0.174 NA
HETATM   11  C   UNK     0     -70.710 -25.546   0.480  0.00  0.00     0.352 A 
HETATM   12  O   UNK     0     -70.577 -24.774  -0.470  0.00  0.00    -0.244 OA
BRANCH   9  13
HETATM   13  N   UNK     0     -73.396 -27.150   2.272  0.00  0.00    -0.251 N 
HETATM   14  H   UNK     0     -74.269 -26.696   2.029  0.00  0.00     0.196 HD
BRANCH  13  15
HETATM   15  O   UNK     0     -73.420 -28.324   2.968  0.00  0.00    -0.288 OA
HETATM   16  H   UNK     0     -72.736 -28.172   3.641  0.00  0.00     0.244 HD
ENDBRANCH  13  15
ENDBRANCH   9  13
ENDBRANCH   4   6
BRANCH   5  17
HETATM   17  C   UNK     0     -66.339 -26.386   3.428  0.00  0.00     0.198 C 
BRANCH  17  18
HETATM   18  O   UNK     0     -65.618 -25.404   4.150  0.00  0.00    -0.398 OA
HETATM   19  H   UNK     0     -64.863 -25.140   3.596  0.00  0.00     0.209 HD
ENDBRANCH  17  18
ENDBRANCH   5  17
BRANCH   2  20
HETATM   20  O   UNK     0     -68.108 -23.236   0.727  0.00  0.00    -0.388 OA
HETATM   21  H   UNK     0     -68.237 -23.524  -0.193  0.00  0.00     0.210 HD
ENDBRANCH   2  20
BRANCH   3  22
HETATM   22  O   UNK     0     -65.659 -24.381   0.364  0.00  0.00    -0.390 OA
HETATM   23  H   UNK     0     -64.697 -24.426   0.487  0.00  0.00     0.210 HD
ENDBRANCH   3  22
TORSDOF 7
ENDMDL
MODEL 2
REMARK VINA RESULT:      -6.5      9.917     13.018
REMARK  7 active torsions:
REMARK  status: ('A' for Active; 'I' for Inactive)
REMARK    1  A    between atoms: O_2  and  C_10 
REMARK    2  A    between atoms: O_3  and  C_11 
REMARK    3  A    between atoms: O_4  and  C_14 
REMARK    4  A    between atoms: O_6  and  N_9 
REMARK    5  A    between atoms: N_7  and  C_12 
REMARK    6  A    between atoms: N_9  and  C_18 
REMARK    7  A    between atoms: C_13  and  C_14 
ROOT
HETATM    1  O   UNK     0     -60.556 -21.200  -2.472  0.00  0.00    -0.353 OA
HETATM    2  C   UNK     0     -58.814 -22.772  -2.797  0.00  0.00     0.198 C 
HETATM    3  C   UNK     0     -60.101 -23.357  -3.339  0.00  0.00     0.182 C 
HETATM    4  C   UNK     0     -59.145 -21.292  -2.727  0.00  0.00     0.264 C 
HETATM    5  C   UNK     0     -61.155 -22.502  -2.648  0.00  0.00     0.179 C 
ENDROOT
BRANCH   4   6
HETATM    6  N   UNK     0     -58.436 -20.621  -1.675  0.00  0.00    -0.278 N 
HETATM    7  C   UNK     0     -58.637 -21.036  -0.367  0.00  0.00     0.102 A 
HETATM    8  C   UNK     0     -58.021 -20.473   0.670  0.00  0.00     0.070 A 
HETATM    9  C   UNK     0     -57.091 -19.356   0.359  0.00  0.00     0.153 A 
HETATM   10  N   UNK     0     -56.891 -18.952  -0.868  0.00  0.00    -0.174 NA
HETATM   11  C   UNK     0     -57.540 -19.553  -1.933  0.00  0.00     0.352 A 
HETATM   12  O   UNK     0     -57.338 -19.161  -3.083  0.00  0.00    -0.244 OA
BRANCH   9  13
HETATM   13  N   UNK     0     -56.436 -18.745   1.403  0.00  0.00    -0.251 N 
HETATM   14  H   UNK     0     -56.752 -18.680   2.363  0.00  0.00     0.196 HD
BRANCH  13  15
HETATM   15  O   UNK     0     -55.195 -18.283   1.072  0.00  0.00    -0.288 OA
HETATM   16  H   UNK     0     -54.710 -19.109   0.909  0.00  0.00     0.244 HD
ENDBRANCH  13  15
ENDBRANCH   9  13
ENDBRANCH   4   6
BRANCH   5  17
HETATM   17  C   UNK     0     -61.553 -23.030  -1.275  0.00  0.00     0.198 C 
BRANCH  17  18
HETATM   18  O   UNK     0     -61.995 -21.942  -0.483  0.00  0.00    -0.398 OA
HETATM   19  H   UNK     0     -62.206 -22.297   0.398  0.00  0.00     0.209 HD
ENDBRANCH  17  18
ENDBRANCH   5  17
BRANCH   2  20
HETATM   20  O   UNK     0     -57.708 -23.043  -3.635  0.00  0.00    -0.388 OA
HETATM   21  H   UNK     0     -57.296 -22.192  -3.859  0.00  0.00     0.210 HD
ENDBRANCH   2  20
BRANCH   3  22
HETATM   22  O   UNK     0     -60.198 -23.123  -4.744  0.00  0.00    -0.390 OA
HETATM   23  H   UNK     0     -60.958 -23.616  -5.096  0.00  0.00     0.210 HD
ENDBRANCH   3  22
TORSDOF 7
ENDMDL
MODEL 3
REMARK VINA RESULT:      -6.5     16.070     18.795
REMARK  7 active torsions:
REMARK  status: ('A' for Active; 'I' for Inactive)
REMARK    1  A    between atoms: O_2  and  C_10 
REMARK    2  A    between atoms: O_3  and  C_11 
REMARK    3  A    between atoms: O_4  and  C_14 
REMARK    4  A    between atoms: O_6  and  N_9 
REMARK    5  A    between atoms: N_7  and  C_12 
REMARK    6  A    between atoms: N_9  and  C_18 
REMARK    7  A    between atoms: C_13  and  C_14 
ROOT
HETATM    1  O   UNK     0     -56.096 -21.839  -8.078  0.00  0.00    -0.353 OA
HETATM    2  C   UNK     0     -54.955 -23.488  -6.817  0.00  0.00     0.198 C 
HETATM    3  C   UNK     0     -55.705 -22.582  -5.863  0.00  0.00     0.182 C 
HETATM    4  C   UNK     0     -55.652 -23.204  -8.135  0.00  0.00     0.264 C 
HETATM    5  C   UNK     0     -55.959 -21.353  -6.726  0.00  0.00     0.179 C 
ENDROOT
BRANCH   4   6
HETATM    6  N   UNK     0     -54.779 -23.364  -9.263  0.00  0.00    -0.278 N 
HETATM    7  C   UNK     0     -54.204 -22.234  -9.825  0.00  0.00     0.102 A 
HETATM    8  C   UNK     0     -53.382 -22.289 -10.870  0.00  0.00     0.070 A 
HETATM    9  C   UNK     0     -53.102 -23.641 -11.420  0.00  0.00     0.153 A 
HETATM   10  N   UNK     0     -53.636 -24.715 -10.903  0.00  0.00    -0.174 NA
HETATM   11  C   UNK     0     -54.488 -24.638  -9.814  0.00  0.00     0.352 A 
HETATM   12  O   UNK     0     -54.980 -25.661  -9.338  0.00  0.00    -0.244 OA
BRANCH   9  13
HETATM   13  N   UNK     0     -52.259 -23.741 -12.503  0.00  0.00    -0.251 N 
HETATM   14  H   UNK     0     -52.233 -24.489 -13.185  0.00  0.00     0.196 HD
BRANCH  13  15
HETATM   15  O   UNK     0     -51.465 -22.644 -12.678  0.00  0.00    -0.288 OA
HETATM   16  H   UNK     0     -52.016 -21.936 -12.306  0.00  0.00     0.244 HD
ENDBRANCH  13  15
ENDBRANCH   9  13
ENDBRANCH   4   6
BRANCH   5  17
HETATM   17  C   UNK     0     -54.813 -20.350  -6.696  0.00  0.00     0.198 C 
BRANCH  17  18
HETATM   18  O   UNK     0     -54.506 -20.053  -5.346  0.00  0.00    -0.398 OA
HETATM   19  H   UNK     0     -53.595 -20.355  -5.187  0.00  0.00     0.209 HD
ENDBRANCH  17  18
ENDBRANCH   5  17
BRANCH   2  20
HETATM   20  O   UNK     0     -55.037 -24.848  -6.440  0.00  0.00    -0.388 OA
HETATM   21  H   UNK     0     -54.872 -25.382  -7.235  0.00  0.00     0.210 HD
ENDBRANCH   2  20
BRANCH   3  22
HETATM   22  O   UNK     0     -56.970 -23.153  -5.529  0.00  0.00    -0.390 OA
HETATM   23  H   UNK     0     -56.950 -24.104  -5.726  0.00  0.00     0.210 HD
ENDBRANCH   3  22
TORSDOF 7
ENDMDL
MODEL 4
REMARK VINA RESULT:      -6.4      9.320     11.276
REMARK  7 active torsions:
REMARK  status: ('A' for Active; 'I' for Inactive)
REMARK    1  A    between atoms: O_2  and  C_10 
REMARK    2  A    between atoms: O_3  and  C_11 
REMARK    3  A    between atoms: O_4  and  C_14 
REMARK    4  A    between atoms: O_6  and  N_9 
REMARK    5  A    between atoms: N_7  and  C_12 
REMARK    6  A    between atoms: N_9  and  C_18 
REMARK    7  A    between atoms: C_13  and  C_14 
ROOT
HETATM    1  O   UNK     0     -63.404 -34.558   7.100  0.00  0.00    -0.353 OA
HETATM    2  C   UNK     0     -64.275 -34.457   4.899  0.00  0.00     0.198 C 
HETATM    3  C   UNK     0     -64.168 -35.910   5.311  0.00  0.00     0.182 C 
HETATM    4  C   UNK     0     -64.216 -33.744   6.238  0.00  0.00     0.264 C 
HETATM    5  C   UNK     0     -63.186 -35.840   6.473  0.00  0.00     0.179 C 
ENDROOT
BRANCH   4   6
HETATM    6  N   UNK     0     -63.627 -32.439   6.138  0.00  0.00    -0.278 N 
HETATM    7  C   UNK     0     -62.734 -32.188   5.108  0.00  0.00     0.102 A 
HETATM    8  C   UNK     0     -62.143 -31.007   4.939  0.00  0.00     0.070 A 
HETATM    9  C   UNK     0     -62.487 -29.949   5.924  0.00  0.00     0.153 A 
HETATM   10  N   UNK     0     -63.326 -30.169   6.901  0.00  0.00    -0.174 NA
HETATM   11  C   UNK     0     -63.933 -31.404   7.059  0.00  0.00     0.352 A 
HETATM   12  O   UNK     0     -64.723 -31.593   7.985  0.00  0.00    -0.244 OA
BRANCH   9  13
HETATM   13  N   UNK     0     -61.896 -28.714   5.786  0.00  0.00    -0.251 N 
HETATM   14  H   UNK     0     -61.925 -28.115   4.969  0.00  0.00     0.196 HD
BRANCH  13  15
HETATM   15  O   UNK     0     -61.307 -28.261   6.930  0.00  0.00    -0.288 OA
HETATM   16  H   UNK     0     -60.400 -28.082   6.632  0.00  0.00     0.244 HD
ENDBRANCH  13  15
ENDBRANCH   9  13
ENDBRANCH   4   6
BRANCH   5  17
HETATM   17  C   UNK     0     -61.729 -35.911   6.034  0.00  0.00     0.198 C 
BRANCH  17  18
HETATM   18  O   UNK     0     -60.967 -35.040   6.850  0.00  0.00    -0.398 OA
HETATM   19  H   UNK     0     -61.056 -35.356   7.766  0.00  0.00     0.209 HD
ENDBRANCH  17  18
ENDBRANCH   5  17
BRANCH   2  20
HETATM   20  O   UNK     0     -65.468 -34.187   4.191  0.00  0.00    -0.388 OA
HETATM   21  H   UNK     0     -66.003 -33.587   4.738  0.00  0.00     0.210 HD
ENDBRANCH   2  20
BRANCH   3  22
HETATM   22  O   UNK     0     -65.419 -36.372   5.821  0.00  0.00    -0.390 OA
HETATM   23  H   UNK     0     -65.458 -37.339   5.737  0.00  0.00     0.210 HD
ENDBRANCH   3  22
TORSDOF 7
ENDMDL
MODEL 5
REMARK VINA RESULT:      -6.3      3.430      5.616
REMARK  7 active torsions:
REMARK  status: ('A' for Active; 'I' for Inactive)
REMARK    1  A    between atoms: O_2  and  C_10 
REMARK    2  A    between atoms: O_3  and  C_11 
REMARK    3  A    between atoms: O_4  and  C_14 
REMARK    4  A    between atoms: O_6  and  N_9 
REMARK    5  A    between atoms: N_7  and  C_12 
REMARK    6  A    between atoms: N_9  and  C_18 
REMARK    7  A    between atoms: C_13  and  C_14 
ROOT
HETATM    1  O   UNK     0     -62.628 -24.592   1.789  0.00  0.00    -0.353 OA
HETATM    2  C   UNK     0     -62.960 -26.721   2.773  0.00  0.00     0.198 C 
HETATM    3  C   UNK     0     -61.490 -26.563   2.445  0.00  0.00     0.182 C 
HETATM    4  C   UNK     0     -63.445 -25.283   2.748  0.00  0.00     0.264 C 
HETATM    5  C   UNK     0     -61.511 -25.431   1.426  0.00  0.00     0.179 C 
ENDROOT
BRANCH   4   6
HETATM    6  N   UNK     0     -64.821 -25.175   2.352  0.00  0.00    -0.278 N 
HETATM    7  C   UNK     0     -65.111 -24.797   1.050  0.00  0.00     0.102 A 
HETATM    8  C   UNK     0     -66.356 -24.673   0.596  0.00  0.00     0.070 A 
HETATM    9  C   UNK     0     -67.444 -24.962   1.567  0.00  0.00     0.153 A 
HETATM   10  N   UNK     0     -67.188 -25.318   2.798  0.00  0.00    -0.174 NA
HETATM   11  C   UNK     0     -65.885 -25.443   3.250  0.00  0.00     0.352 A 
HETATM   12  O   UNK     0     -65.662 -25.783   4.413  0.00  0.00    -0.244 OA
BRANCH   9  13
HETATM   13  N   UNK     0     -68.746 -24.843   1.139  0.00  0.00    -0.251 N 
HETATM   14  H   UNK     0     -69.062 -24.463   0.254  0.00  0.00     0.196 HD
BRANCH  13  15
HETATM   15  O   UNK     0     -69.653 -25.400   1.993  0.00  0.00    -0.288 OA
HETATM   16  H   UNK     0     -69.505 -24.889   2.805  0.00  0.00     0.244 HD
ENDBRANCH  13  15
ENDBRANCH   9  13
ENDBRANCH   4   6
BRANCH   5  17
HETATM   17  C   UNK     0     -61.725 -25.913  -0.003  0.00  0.00     0.198 C 
BRANCH  17  18
HETATM   18  O   UNK     0     -61.186 -27.216  -0.127  0.00  0.00    -0.398 OA
HETATM   19  H   UNK     0     -60.608 -27.213  -0.910  0.00  0.00     0.209 HD
ENDBRANCH  17  18
ENDBRANCH   5  17
BRANCH   2  20
HETATM   20  O   UNK     0     -63.166 -27.343   4.025  0.00  0.00    -0.388 OA
HETATM   21  H   UNK     0     -62.309 -27.688   4.324  0.00  0.00     0.210 HD
ENDBRANCH   2  20
BRANCH   3  22
HETATM   22  O   UNK     0     -60.774 -26.107   3.593  0.00  0.00    -0.390 OA
HETATM   23  H   UNK     0     -60.102 -25.464   3.313  0.00  0.00     0.210 HD
ENDBRANCH   3  22
TORSDOF 7
ENDMDL
MODEL 6
REMARK VINA RESULT:      -6.2      8.406     10.827
REMARK  7 active torsions:
REMARK  status: ('A' for Active; 'I' for Inactive)
REMARK    1  A    between atoms: O_2  and  C_10 
REMARK    2  A    between atoms: O_3  and  C_11 
REMARK    3  A    between atoms: O_4  and  C_14 
REMARK    4  A    between atoms: O_6  and  N_9 
REMARK    5  A    between atoms: N_7  and  C_12 
REMARK    6  A    between atoms: N_9  and  C_18 
REMARK    7  A    between atoms: C_13  and  C_14 
ROOT
HETATM    1  O   UNK     0     -62.634 -34.251   2.553  0.00  0.00    -0.353 OA
HETATM    2  C   UNK     0     -64.287 -34.373   4.246  0.00  0.00     0.198 C 
HETATM    3  C   UNK     0     -64.442 -35.569   3.330  0.00  0.00     0.182 C 
HETATM    4  C   UNK     0     -62.875 -33.915   3.929  0.00  0.00     0.264 C 
HETATM    5  C   UNK     0     -63.690 -35.117   2.086  0.00  0.00     0.179 C 
ENDROOT
BRANCH   4   6
HETATM    6  N   UNK     0     -62.706 -32.500   4.099  0.00  0.00    -0.278 N 
HETATM    7  C   UNK     0     -63.774 -31.663   3.814  0.00  0.00     0.102 A 
HETATM    8  C   UNK     0     -63.708 -30.340   3.945  0.00  0.00     0.070 A 
HETATM    9  C   UNK     0     -62.412 -29.788   4.418  0.00  0.00     0.153 A 
HETATM   10  N   UNK     0     -61.395 -30.562   4.691  0.00  0.00    -0.174 NA
HETATM   11  C   UNK     0     -61.485 -31.936   4.551  0.00  0.00     0.352 A 
HETATM   12  O   UNK     0     -60.518 -32.651   4.814  0.00  0.00    -0.244 OA
BRANCH   9  13
HETATM   13  N   UNK     0     -62.301 -28.424   4.565  0.00  0.00    -0.251 N 
HETATM   14  H   UNK     0     -62.426 -27.724   3.844  0.00  0.00     0.196 HD
BRANCH  13  15
HETATM   15  O   UNK     0     -62.096 -28.030   5.856  0.00  0.00    -0.288 OA
HETATM   16  H   UNK     0     -62.553 -28.727   6.354  0.00  0.00     0.244 HD
ENDBRANCH  13  15
ENDBRANCH   9  13
ENDBRANCH   4   6
BRANCH   5  17
HETATM   17  C   UNK     0     -64.556 -34.326   1.114  0.00  0.00     0.198 C 
BRANCH  17  18
HETATM   18  O   UNK     0     -63.897 -34.271  -0.139  0.00  0.00    -0.398 OA
HETATM   19  H   UNK     0     -63.045 -34.728  -0.033  0.00  0.00     0.209 HD
ENDBRANCH  17  18
ENDBRANCH   5  17
BRANCH   2  20
HETATM   20  O   UNK     0     -64.456 -34.714   5.607  0.00  0.00    -0.388 OA
HETATM   21  H   UNK     0     -63.937 -35.520   5.773  0.00  0.00     0.210 HD
ENDBRANCH   2  20
BRANCH   3  22
HETATM   22  O   UNK     0     -63.756 -36.699   3.872  0.00  0.00    -0.390 OA
HETATM   23  H   UNK     0     -62.865 -36.427   4.146  0.00  0.00     0.210 HD
ENDBRANCH   3  22
TORSDOF 7
ENDMDL
MODEL 7
REMARK VINA RESULT:      -6.2      6.599      8.203
REMARK  7 active torsions:
REMARK  status: ('A' for Active; 'I' for Inactive)
REMARK    1  A    between atoms: O_2  and  C_10 
REMARK    2  A    between atoms: O_3  and  C_11 
REMARK    3  A    between atoms: O_4  and  C_14 
REMARK    4  A    between atoms: O_6  and  N_9 
REMARK    5  A    between atoms: N_7  and  C_12 
REMARK    6  A    between atoms: N_9  and  C_18 
REMARK    7  A    between atoms: C_13  and  C_14 
ROOT
HETATM    1  O   UNK     0     -61.751 -23.835   0.368  0.00  0.00    -0.353 OA
HETATM    2  C   UNK     0     -62.935 -25.838   0.812  0.00  0.00     0.198 C 
HETATM    3  C   UNK     0     -62.251 -25.387   2.085  0.00  0.00     0.182 C 
HETATM    4  C   UNK     0     -62.926 -24.566  -0.018  0.00  0.00     0.264 C 
HETATM    5  C   UNK     0     -61.189 -24.433   1.556  0.00  0.00     0.179 C 
ENDROOT
BRANCH   4   6
HETATM    6  N   UNK     0     -62.869 -24.832  -1.427  0.00  0.00    -0.278 N 
HETATM    7  C   UNK     0     -61.633 -24.821  -2.056  0.00  0.00     0.102 A 
HETATM    8  C   UNK     0     -61.486 -25.058  -3.358  0.00  0.00     0.070 A 
HETATM    9  C   UNK     0     -62.730 -25.338  -4.123  0.00  0.00     0.153 A 
HETATM   10  N   UNK     0     -63.902 -25.350  -3.545  0.00  0.00    -0.174 NA
HETATM   11  C   UNK     0     -64.033 -25.104  -2.189  0.00  0.00     0.352 A 
HETATM   12  O   UNK     0     -65.146 -25.122  -1.660  0.00  0.00    -0.244 OA
BRANCH   9  13
HETATM   13  N   UNK     0     -62.622 -25.586  -5.472  0.00  0.00    -0.251 N 
HETATM   14  H   UNK     0     -61.775 -25.563  -6.028  0.00  0.00     0.196 HD
BRANCH  13  15
HETATM   15  O   UNK     0     -63.791 -25.993  -6.046  0.00  0.00    -0.288 OA
HETATM   16  H   UNK     0     -64.394 -25.269  -5.810  0.00  0.00     0.244 HD
ENDBRANCH  13  15
ENDBRANCH   9  13
ENDBRANCH   4   6
BRANCH   5  17
HETATM   17  C   UNK     0     -59.892 -25.132   1.166  0.00  0.00     0.198 C 
BRANCH  17  18
HETATM   18  O   UNK     0     -59.104 -24.232   0.408  0.00  0.00    -0.398 OA
HETATM   19  H   UNK     0     -59.011 -24.613  -0.482  0.00  0.00     0.209 HD
ENDBRANCH  17  18
ENDBRANCH   5  17
BRANCH   2  20
HETATM   20  O   UNK     0     -64.241 -26.323   1.049  0.00  0.00    -0.388 OA
HETATM   21  H   UNK     0     -64.157 -27.185   1.489  0.00  0.00     0.210 HD
ENDBRANCH   2  20
BRANCH   3  22
HETATM   22  O   UNK     0     -63.155 -24.634   2.894  0.00  0.00    -0.390 OA
HETATM   23  H   UNK     0     -64.057 -24.749   2.552  0.00  0.00     0.210 HD
ENDBRANCH   3  22
TORSDOF 7
ENDMDL
MODEL 8
REMARK VINA RESULT:      -6.2     13.392     15.049
REMARK  7 active torsions:
REMARK  status: ('A' for Active; 'I' for Inactive)
REMARK    1  A    between atoms: O_2  and  C_10 
REMARK    2  A    between atoms: O_3  and  C_11 
REMARK    3  A    between atoms: O_4  and  C_14 
REMARK    4  A    between atoms: O_6  and  N_9 
REMARK    5  A    between atoms: N_7  and  C_12 
REMARK    6  A    between atoms: N_9  and  C_18 
REMARK    7  A    between atoms: C_13  and  C_14 
ROOT
HETATM    1  O   UNK     0     -57.274 -18.815  -3.500  0.00  0.00    -0.353 OA
HETATM    2  C   UNK     0     -59.231 -20.042  -4.024  0.00  0.00     0.198 C 
HETATM    3  C   UNK     0     -59.558 -19.056  -2.923  0.00  0.00     0.182 C 
HETATM    4  C   UNK     0     -57.945 -19.467  -4.590  0.00  0.00     0.264 C 
HETATM    5  C   UNK     0     -58.178 -18.717  -2.378  0.00  0.00     0.179 C 
ENDROOT
BRANCH   4   6
HETATM    6  N   UNK     0     -57.083 -20.480  -5.130  0.00  0.00    -0.278 N 
HETATM    7  C   UNK     0     -56.312 -21.232  -4.257  0.00  0.00     0.102 A 
HETATM    8  C   UNK     0     -55.486 -22.192  -4.668  0.00  0.00     0.070 A 
HETATM    9  C   UNK     0     -55.424 -22.425  -6.135  0.00  0.00     0.153 A 
HETATM   10  N   UNK     0     -56.143 -21.724  -6.971  0.00  0.00    -0.174 NA
HETATM   11  C   UNK     0     -56.998 -20.731  -6.523  0.00  0.00     0.352 A 
HETATM   12  O   UNK     0     -57.670 -20.082  -7.325  0.00  0.00    -0.244 OA
BRANCH   9  13
HETATM   13  N   UNK     0     -54.581 -23.406  -6.602  0.00  0.00    -0.251 N 
HETATM   14  H   UNK     0     -53.925 -23.328  -7.371  0.00  0.00     0.196 HD
BRANCH  13  15
HETATM   15  O   UNK     0     -54.606 -24.547  -5.854  0.00  0.00    -0.288 OA
HETATM   16  H   UNK     0     -54.496 -25.235  -6.532  0.00  0.00     0.244 HD
ENDBRANCH  13  15
ENDBRANCH   9  13
ENDBRANCH   4   6
BRANCH   5  17
HETATM   17  C   UNK     0     -57.701 -19.684  -1.301  0.00  0.00     0.198 C 
BRANCH  17  18
HETATM   18  O   UNK     0     -56.650 -19.072  -0.576  0.00  0.00    -0.398 OA
HETATM   19  H   UNK     0     -56.291 -18.363  -1.138  0.00  0.00     0.209 HD
ENDBRANCH  17  18
ENDBRANCH   5  17
BRANCH   2  20
HETATM   20  O   UNK     0     -60.260 -20.128  -4.990  0.00  0.00    -0.388 OA
HETATM   21  H   UNK     0     -61.085 -20.332  -4.520  0.00  0.00     0.210 HD
ENDBRANCH   2  20
BRANCH   3  22
HETATM   22  O   UNK     0     -60.118 -17.865  -3.475  0.00  0.00    -0.390 OA
HETATM   23  H   UNK     0     -59.514 -17.123  -3.305  0.00  0.00     0.210 HD
ENDBRANCH   3  22
TORSDOF 7
ENDMDL
MODEL 9
REMARK VINA RESULT:      -6.1     18.776     20.018
REMARK  7 active torsions:
REMARK  status: ('A' for Active; 'I' for Inactive)
REMARK    1  A    between atoms: O_2  and  C_10 
REMARK    2  A    between atoms: O_3  and  C_11 
REMARK    3  A    between atoms: O_4  and  C_14 
REMARK    4  A    between atoms: O_6  and  N_9 
REMARK    5  A    between atoms: N_7  and  C_12 
REMARK    6  A    between atoms: N_9  and  C_18 
REMARK    7  A    between atoms: C_13  and  C_14 
ROOT
HETATM    1  O   UNK     0     -69.411  -9.021  14.829  0.00  0.00    -0.353 OA
HETATM    2  C   UNK     0     -69.191 -11.102  15.939  0.00  0.00     0.198 C 
HETATM    3  C   UNK     0     -69.179  -9.997  16.974  0.00  0.00     0.182 C 
HETATM    4  C   UNK     0     -69.799 -10.402  14.737  0.00  0.00     0.264 C 
HETATM    5  C   UNK     0     -68.840  -8.775  16.132  0.00  0.00     0.179 C 
ENDROOT
BRANCH   4   6
HETATM    6  N   UNK     0     -69.326 -10.938  13.493  0.00  0.00    -0.278 N 
HETATM    7  C   UNK     0     -68.387 -10.216  12.772  0.00  0.00     0.102 A 
HETATM    8  C   UNK     0     -67.893 -10.637  11.610  0.00  0.00     0.070 A 
HETATM    9  C   UNK     0     -68.402 -11.940  11.109  0.00  0.00     0.153 A 
HETATM   10  N   UNK     0     -69.288 -12.632  11.776  0.00  0.00    -0.174 NA
HETATM   11  C   UNK     0     -69.788 -12.178  12.984  0.00  0.00     0.352 A 
HETATM   12  O   UNK     0     -70.620 -12.845  13.601  0.00  0.00    -0.244 OA
BRANCH   9  13
HETATM   13  N   UNK     0     -67.918 -12.411   9.910  0.00  0.00    -0.251 N 
HETATM   14  H   UNK     0     -68.415 -12.451   9.028  0.00  0.00     0.196 HD
BRANCH  13  15
HETATM   15  O   UNK     0     -66.598 -12.754   9.953  0.00  0.00    -0.288 OA
HETATM   16  H   UNK     0     -66.356 -12.511  10.862  0.00  0.00     0.244 HD
ENDBRANCH  13  15
ENDBRANCH   9  13
ENDBRANCH   4   6
BRANCH   5  17
HETATM   17  C   UNK     0     -67.341  -8.561  15.959  0.00  0.00     0.198 C 
BRANCH  17  18
HETATM   18  O   UNK     0     -66.849  -7.874  17.096  0.00  0.00    -0.398 OA
HETATM   19  H   UNK     0     -65.955  -7.560  16.875  0.00  0.00     0.209 HD
ENDBRANCH  17  18
ENDBRANCH   5  17
BRANCH   2  20
HETATM   20  O   UNK     0     -69.948 -12.220  16.357  0.00  0.00    -0.388 OA
HETATM   21  H   UNK     0     -70.815 -11.893  16.651  0.00  0.00     0.210 HD
ENDBRANCH   2  20
BRANCH   3  22
HETATM   22  O   UNK     0     -70.487  -9.810  17.514  0.00  0.00    -0.390 OA
HETATM   23  H   UNK     0     -70.838 -10.669  17.802  0.00  0.00     0.210 HD
ENDBRANCH   3  22
TORSDOF 7
ENDMDL
MODEL 10
REMARK VINA RESULT:      -6.1     17.981     19.715
REMARK  7 active torsions:
REMARK  status: ('A' for Active; 'I' for Inactive)
REMARK    1  A    between atoms: O_2  and  C_10 
REMARK    2  A    between atoms: O_3  and  C_11 
REMARK    3  A    between atoms: O_4  and  C_14 
REMARK    4  A    between atoms: O_6  and  N_9 
REMARK    5  A    between atoms: N_7  and  C_12 
REMARK    6  A    between atoms: N_9  and  C_18 
REMARK    7  A    between atoms: C_13  and  C_14 
ROOT
HETATM    1  O   UNK     0     -58.879 -12.761  -9.075  0.00  0.00    -0.353 OA
HETATM    2  C   UNK     0     -57.063 -13.727 -10.250  0.00  0.00     0.198 C 
HETATM    3  C   UNK     0     -56.611 -12.409  -9.659  0.00  0.00     0.182 C 
HETATM    4  C   UNK     0     -58.307 -14.029  -9.434  0.00  0.00     0.264 C 
HETATM    5  C   UNK     0     -57.936 -11.712  -9.383  0.00  0.00     0.179 C 
ENDROOT
BRANCH   4   6
HETATM    6  N   UNK     0     -59.277 -14.787 -10.171  0.00  0.00    -0.278 N 
HETATM    7  C   UNK     0     -60.308 -14.110 -10.804  0.00  0.00     0.102 A 
HETATM    8  C   UNK     0     -61.250 -14.732 -11.510  0.00  0.00     0.070 A 
HETATM    9  C   UNK     0     -61.147 -16.212 -11.591  0.00  0.00     0.153 A 
HETATM   10  N   UNK     0     -60.181 -16.865 -11.000  0.00  0.00    -0.174 NA
HETATM   11  C   UNK     0     -59.210 -16.200 -10.271  0.00  0.00     0.352 A 
HETATM   12  O   UNK     0     -58.305 -16.831  -9.722  0.00  0.00    -0.244 OA
BRANCH   9  13
HETATM   13  N   UNK     0     -62.102 -16.893 -12.310  0.00  0.00    -0.251 N 
HETATM   14  H   UNK     0     -62.542 -16.593 -13.172  0.00  0.00     0.196 HD
BRANCH  13  15
HETATM   15  O   UNK     0     -62.373 -18.136 -11.815  0.00  0.00    -0.288 OA
HETATM   16  H   UNK     0     -61.484 -18.467 -11.605  0.00  0.00     0.244 HD
ENDBRANCH  13  15
ENDBRANCH   9  13
ENDBRANCH   4   6
BRANCH   5  17
HETATM   17  C   UNK     0     -58.467 -10.933 -10.580  0.00  0.00     0.198 C 
BRANCH  17  18
HETATM   18  O   UNK     0     -59.786 -10.507 -10.293  0.00  0.00    -0.398 OA
HETATM   19  H   UNK     0     -59.788 -10.177  -9.378  0.00  0.00     0.209 HD
ENDBRANCH  17  18
ENDBRANCH   5  17
BRANCH   2  20
HETATM   20  O   UNK     0     -56.078 -14.734 -10.133  0.00  0.00    -0.388 OA
HETATM   21  H   UNK     0     -55.872 -14.832  -9.189  0.00  0.00     0.210 HD
ENDBRANCH   2  20
BRANCH   3  22
HETATM   22  O   UNK     0     -55.959 -12.626  -8.407  0.00  0.00    -0.390 OA
HETATM   23  H   UNK     0     -56.595 -13.009  -7.781  0.00  0.00     0.210 HD
ENDBRANCH   3  22
TORSDOF 7
ENDMDL
