MODEL 1
REMARK VINA RESULT:      -9.3      0.000      0.000
REMARK  10 active torsions:
REMARK  status: ('A' for Active; 'I' for Inactive)
REMARK    1  A    between atoms: O_2  and  C_15 
REMARK    2  A    between atoms: O_2  and  C_18 
REMARK    3  A    between atoms: O_3  and  C_12 
REMARK    4  A    between atoms: O_4  and  C_13 
REMARK    5  A    between atoms: O_5  and  C_14 
REMARK    6  A    between atoms: O_6  and  C_17 
REMARK    7  A    between atoms: O_9  and  C_20 
REMARK    8  A    between atoms: O_10  and  C_23 
REMARK    9  A    between atoms: C_16  and  C_17 
REMARK   10  A    between atoms: C_25  and  C_27 
ROOT
HETATM    1  O   UNK     0     -59.502 -20.128  -3.292  0.00  0.00    -0.340 OA
HETATM    2  C   UNK     0     -61.737 -21.933  -3.236  0.00  0.00     0.183 C 
HETATM    3  C   UNK     0     -60.293 -22.413  -3.090  0.00  0.00     0.205 C 
HETATM    4  C   UNK     0     -61.874 -20.455  -2.871  0.00  0.00     0.189 C 
HETATM    5  C   UNK     0     -59.319 -21.456  -3.778  0.00  0.00     0.299 C 
HETATM    6  C   UNK     0     -60.804 -19.624  -3.570  0.00  0.00     0.253 C 
ENDROOT
BRANCH   5   7
HETATM    7  O   UNK     0     -57.992 -21.896  -3.490  0.00  0.00    -0.315 OA
BRANCH   7   8
HETATM    8  C   UNK     0     -57.093 -21.837  -4.514  0.00  0.00     0.110 A 
HETATM    9  C   UNK     0     -57.190 -22.753  -5.562  0.00  0.00     0.078 A 
HETATM   10  C   UNK     0     -56.276 -22.701  -6.616  0.00  0.00     0.096 A 
HETATM   11  O   UNK     0     -56.420 -23.627  -7.616  0.00  0.00    -0.309 OA
HETATM   12  C   UNK     0     -55.270 -21.736  -6.617  0.00  0.00     0.084 A 
HETATM   13  C   UNK     0     -55.531 -23.595  -8.680  0.00  0.00     0.090 A 
HETATM   14  C   UNK     0     -54.519 -22.720  -8.793  0.00  0.00     0.094 A 
HETATM   15  C   UNK     0     -54.319 -21.705  -7.739  0.00  0.00     0.190 A 
HETATM   16  O   UNK     0     -53.411 -20.887  -7.805  0.00  0.00    -0.287 OA
HETATM   17  C   UNK     0     -55.170 -20.817  -5.570  0.00  0.00     0.118 A 
HETATM   18  C   UNK     0     -56.086 -20.871  -4.519  0.00  0.00     0.134 A 
BRANCH  13  19
HETATM   19  C   UNK     0     -55.774 -24.638  -9.697  0.00  0.00    -0.002 A 
HETATM   20  C   UNK     0     -57.034 -24.762 -10.288  0.00  0.00     0.014 A 
HETATM   21  C   UNK     0     -57.263 -25.746 -11.249  0.00  0.00     0.001 A 
HETATM   22  C   UNK     0     -56.234 -26.609 -11.625  0.00  0.00     0.000 A 
HETATM   23  C   UNK     0     -54.974 -26.488 -11.037  0.00  0.00     0.001 A 
HETATM   24  C   UNK     0     -54.745 -25.504 -10.075  0.00  0.00     0.014 A 
ENDBRANCH  13  19
BRANCH  17  25
HETATM   25  O   UNK     0     -54.201 -19.860  -5.539  0.00  0.00    -0.357 OA
HETATM   26  H   UNK     0     -53.971 -19.631  -4.625  0.00  0.00     0.217 HD
ENDBRANCH  17  25
BRANCH  18  27
HETATM   27  O   UNK     0     -55.998 -19.979  -3.489  0.00  0.00    -0.356 OA
HETATM   28  H   UNK     0     -56.180 -19.089  -3.838  0.00  0.00     0.218 HD
ENDBRANCH  18  27
ENDBRANCH   7   8
ENDBRANCH   5   7
BRANCH   6  29
HETATM   29  C   UNK     0     -60.759 -18.236  -3.020  0.00  0.00     0.172 C 
HETATM   30  O   UNK     0     -60.272 -17.923  -1.943  0.00  0.00    -0.648 OA
BRANCH  29  31
HETATM   31  O   UNK     0     -61.339 -17.362  -3.878  0.00  0.00    -0.774 OA
HETATM   32  H   UNK     0     -60.674 -16.870  -4.405  0.00  0.00     0.167 HD
ENDBRANCH  29  31
ENDBRANCH   6  29
BRANCH   3  33
HETATM   33  O   UNK     0     -60.158 -23.700  -3.694  0.00  0.00    -0.388 OA
HETATM   34  H   UNK     0     -60.923 -24.234  -3.424  0.00  0.00     0.210 HD
ENDBRANCH   3  33
BRANCH   4  35
HETATM   35  O   UNK     0     -63.156 -19.988  -3.283  0.00  0.00    -0.390 OA
HETATM   36  H   UNK     0     -63.629 -20.731  -3.696  0.00  0.00     0.210 HD
ENDBRANCH   4  35
BRANCH   2  37
HETATM   37  O   UNK     0     -62.580 -22.684  -2.362  0.00  0.00    -0.390 OA
HETATM   38  H   UNK     0     -62.324 -23.618  -2.436  0.00  0.00     0.210 HD
ENDBRANCH   2  37
TORSDOF 10
ENDMDL
MODEL 2
REMARK VINA RESULT:      -9.2      4.864      9.234
REMARK  10 active torsions:
REMARK  status: ('A' for Active; 'I' for Inactive)
REMARK    1  A    between atoms: O_2  and  C_15 
REMARK    2  A    between atoms: O_2  and  C_18 
REMARK    3  A    between atoms: O_3  and  C_12 
REMARK    4  A    between atoms: O_4  and  C_13 
REMARK    5  A    between atoms: O_5  and  C_14 
REMARK    6  A    between atoms: O_6  and  C_17 
REMARK    7  A    between atoms: O_9  and  C_20 
REMARK    8  A    between atoms: O_10  and  C_23 
REMARK    9  A    between atoms: C_16  and  C_17 
REMARK   10  A    between atoms: C_25  and  C_27 
ROOT
HETATM    1  O   UNK     0     -56.497 -19.993  -2.827  0.00  0.00    -0.340 OA
HETATM    2  C   UNK     0     -58.911 -18.956  -3.990  0.00  0.00     0.183 C 
HETATM    3  C   UNK     0     -58.448 -18.571  -2.585  0.00  0.00     0.205 C 
HETATM    4  C   UNK     0     -57.747 -19.461  -4.843  0.00  0.00     0.189 C 
HETATM    5  C   UNK     0     -57.586 -19.671  -1.966  0.00  0.00     0.299 C 
HETATM    6  C   UNK     0     -56.932 -20.502  -4.083  0.00  0.00     0.253 C 
ENDROOT
BRANCH   5   7
HETATM    7  O   UNK     0     -57.087 -19.190  -0.717  0.00  0.00    -0.315 OA
BRANCH   7   8
HETATM    8  C   UNK     0     -57.526 -19.831   0.404  0.00  0.00     0.110 A 
HETATM    9  C   UNK     0     -58.330 -20.964   0.274  0.00  0.00     0.078 A 
HETATM   10  C   UNK     0     -58.784 -21.628   1.415  0.00  0.00     0.096 A 
HETATM   11  O   UNK     0     -59.571 -22.734   1.223  0.00  0.00    -0.309 OA
HETATM   12  C   UNK     0     -58.434 -21.157   2.679  0.00  0.00     0.084 A 
HETATM   13  C   UNK     0     -60.030 -23.418   2.339  0.00  0.00     0.090 A 
HETATM   14  C   UNK     0     -59.767 -23.062   3.605  0.00  0.00     0.094 A 
HETATM   15  C   UNK     0     -58.927 -21.875   3.864  0.00  0.00     0.190 A 
HETATM   16  O   UNK     0     -58.662 -21.517   5.004  0.00  0.00    -0.287 OA
HETATM   17  C   UNK     0     -57.629 -20.023   2.813  0.00  0.00     0.118 A 
HETATM   18  C   UNK     0     -57.177 -19.362   1.671  0.00  0.00     0.134 A 
BRANCH  13  19
HETATM   19  C   UNK     0     -60.871 -24.590   2.019  0.00  0.00    -0.002 A 
HETATM   20  C   UNK     0     -60.955 -25.658   2.916  0.00  0.00     0.014 A 
HETATM   21  C   UNK     0     -61.750 -26.764   2.615  0.00  0.00     0.001 A 
HETATM   22  C   UNK     0     -62.465 -26.805   1.418  0.00  0.00     0.000 A 
HETATM   23  C   UNK     0     -62.383 -25.740   0.520  0.00  0.00     0.001 A 
HETATM   24  C   UNK     0     -61.588 -24.634   0.822  0.00  0.00     0.014 A 
ENDBRANCH  13  19
BRANCH  17  25
HETATM   25  O   UNK     0     -57.267 -19.535   4.033  0.00  0.00    -0.357 OA
HETATM   26  H   UNK     0     -56.821 -18.679   3.944  0.00  0.00     0.217 HD
ENDBRANCH  17  25
BRANCH  18  27
HETATM   27  O   UNK     0     -56.390 -18.253   1.790  0.00  0.00    -0.356 OA
HETATM   28  H   UNK     0     -56.958 -17.465   1.730  0.00  0.00     0.218 HD
ENDBRANCH  18  27
ENDBRANCH   7   8
ENDBRANCH   5   7
BRANCH   6  29
HETATM   29  C   UNK     0     -55.653 -20.803  -4.794  0.00  0.00     0.172 C 
HETATM   30  O   UNK     0     -55.027 -20.009  -5.480  0.00  0.00    -0.648 OA
BRANCH  29  31
HETATM   31  O   UNK     0     -55.276 -22.087  -4.577  0.00  0.00    -0.774 OA
HETATM   32  H   UNK     0     -55.560 -22.680  -5.304  0.00  0.00     0.167 HD
ENDBRANCH  29  31
ENDBRANCH   6  29
BRANCH   3  33
HETATM   33  O   UNK     0     -59.588 -18.371  -1.749  0.00  0.00    -0.388 OA
HETATM   34  H   UNK     0     -59.443 -18.871  -0.929  0.00  0.00     0.210 HD
ENDBRANCH   3  33
BRANCH   4  35
HETATM   35  O   UNK     0     -58.263 -20.061  -6.029  0.00  0.00    -0.390 OA
HETATM   36  H   UNK     0     -58.744 -20.867  -5.775  0.00  0.00     0.210 HD
ENDBRANCH   4  35
BRANCH   2  37
HETATM   37  O   UNK     0     -59.470 -17.812  -4.638  0.00  0.00    -0.390 OA
HETATM   38  H   UNK     0     -60.010 -18.128  -5.381  0.00  0.00     0.210 HD
ENDBRANCH   2  37
TORSDOF 10
ENDMDL
MODEL 3
REMARK VINA RESULT:      -9.2      7.001      9.722
REMARK  10 active torsions:
REMARK  status: ('A' for Active; 'I' for Inactive)
REMARK    1  A    between atoms: O_2  and  C_15 
REMARK    2  A    between atoms: O_2  and  C_18 
REMARK    3  A    between atoms: O_3  and  C_12 
REMARK    4  A    between atoms: O_4  and  C_13 
REMARK    5  A    between atoms: O_5  and  C_14 
REMARK    6  A    between atoms: O_6  and  C_17 
REMARK    7  A    between atoms: O_9  and  C_20 
REMARK    8  A    between atoms: O_10  and  C_23 
REMARK    9  A    between atoms: C_16  and  C_17 
REMARK   10  A    between atoms: C_25  and  C_27 
ROOT
HETATM    1  O   UNK     0     -63.148 -25.748   1.008  0.00  0.00    -0.340 OA
HETATM    2  C   UNK     0     -62.364 -27.107   3.416  0.00  0.00     0.183 C 
HETATM    3  C   UNK     0     -61.394 -26.864   2.259  0.00  0.00     0.205 C 
HETATM    4  C   UNK     0     -63.533 -26.123   3.379  0.00  0.00     0.189 C 
HETATM    5  C   UNK     0     -62.137 -26.750   0.928  0.00  0.00     0.299 C 
HETATM    6  C   UNK     0     -64.139 -26.056   1.982  0.00  0.00     0.253 C 
ENDROOT
BRANCH   5   7
HETATM    7  O   UNK     0     -61.188 -26.398  -0.079  0.00  0.00    -0.315 OA
BRANCH   7   8
HETATM    8  C   UNK     0     -61.133 -25.081  -0.432  0.00  0.00     0.110 A 
HETATM    9  C   UNK     0     -60.157 -24.262   0.136  0.00  0.00     0.078 A 
HETATM   10  C   UNK     0     -60.091 -22.913  -0.219  0.00  0.00     0.096 A 
HETATM   11  O   UNK     0     -59.112 -22.157   0.372  0.00  0.00    -0.309 OA
HETATM   12  C   UNK     0     -61.000 -22.391  -1.137  0.00  0.00     0.084 A 
HETATM   13  C   UNK     0     -59.018 -20.816   0.033  0.00  0.00     0.090 A 
HETATM   14  C   UNK     0     -59.836 -20.196  -0.832  0.00  0.00     0.094 A 
HETATM   15  C   UNK     0     -60.909 -20.966  -1.492  0.00  0.00     0.190 A 
HETATM   16  O   UNK     0     -61.675 -20.439  -2.288  0.00  0.00    -0.287 OA
HETATM   17  C   UNK     0     -61.978 -23.208  -1.708  0.00  0.00     0.118 A 
HETATM   18  C   UNK     0     -62.041 -24.555  -1.352  0.00  0.00     0.134 A 
BRANCH  13  19
HETATM   19  C   UNK     0     -57.933 -20.095   0.730  0.00  0.00    -0.002 A 
HETATM   20  C   UNK     0     -57.812 -20.184   2.120  0.00  0.00     0.014 A 
HETATM   21  C   UNK     0     -56.787 -19.504   2.778  0.00  0.00     0.001 A 
HETATM   22  C   UNK     0     -55.880 -18.734   2.049  0.00  0.00     0.000 A 
HETATM   23  C   UNK     0     -55.998 -18.644   0.662  0.00  0.00     0.001 A 
HETATM   24  C   UNK     0     -57.023 -19.324   0.004  0.00  0.00     0.014 A 
ENDBRANCH  13  19
BRANCH  17  25
HETATM   25  O   UNK     0     -62.883 -22.731  -2.609  0.00  0.00    -0.357 OA
HETATM   26  H   UNK     0     -62.645 -22.999  -3.511  0.00  0.00     0.217 HD
ENDBRANCH  17  25
BRANCH  18  27
HETATM   27  O   UNK     0     -62.993 -25.364  -1.902  0.00  0.00    -0.356 OA
HETATM   28  H   UNK     0     -62.670 -25.675  -2.766  0.00  0.00     0.218 HD
ENDBRANCH  18  27
ENDBRANCH   7   8
ENDBRANCH   5   7
BRANCH   6  29
HETATM   29  C   UNK     0     -65.098 -24.916   1.868  0.00  0.00     0.172 C 
HETATM   30  O   UNK     0     -65.975 -24.653   2.678  0.00  0.00    -0.648 OA
BRANCH  29  31
HETATM   31  O   UNK     0     -64.867 -24.207   0.736  0.00  0.00    -0.774 OA
HETATM   32  H   UNK     0     -64.120 -24.576   0.219  0.00  0.00     0.167 HD
ENDBRANCH  29  31
ENDBRANCH   6  29
BRANCH   3  33
HETATM   33  O   UNK     0     -60.480 -27.958   2.169  0.00  0.00    -0.388 OA
HETATM   34  H   UNK     0     -60.836 -28.586   1.519  0.00  0.00     0.210 HD
ENDBRANCH   3  33
BRANCH   4  35
HETATM   35  O   UNK     0     -64.538 -26.557   4.293  0.00  0.00    -0.390 OA
HETATM   36  H   UNK     0     -64.958 -27.353   3.924  0.00  0.00     0.210 HD
ENDBRANCH   4  35
BRANCH   2  37
HETATM   37  O   UNK     0     -61.678 -26.933   4.657  0.00  0.00    -0.390 OA
HETATM   38  H   UNK     0     -61.320 -26.030   4.671  0.00  0.00     0.210 HD
ENDBRANCH   2  37
TORSDOF 10
ENDMDL
MODEL 4
REMARK VINA RESULT:      -9.1      7.870     12.865
REMARK  10 active torsions:
REMARK  status: ('A' for Active; 'I' for Inactive)
REMARK    1  A    between atoms: O_2  and  C_15 
REMARK    2  A    between atoms: O_2  and  C_18 
REMARK    3  A    between atoms: O_3  and  C_12 
REMARK    4  A    between atoms: O_4  and  C_13 
REMARK    5  A    between atoms: O_5  and  C_14 
REMARK    6  A    between atoms: O_6  and  C_17 
REMARK    7  A    between atoms: O_9  and  C_20 
REMARK    8  A    between atoms: O_10  and  C_23 
REMARK    9  A    between atoms: C_16  and  C_17 
REMARK   10  A    between atoms: C_25  and  C_27 
ROOT
HETATM    1  O   UNK     0     -61.536 -25.190   1.247  0.00  0.00    -0.340 OA
HETATM    2  C   UNK     0     -61.041 -25.951  -1.479  0.00  0.00     0.183 C 
HETATM    3  C   UNK     0     -62.220 -25.063  -1.078  0.00  0.00     0.205 C 
HETATM    4  C   UNK     0     -59.931 -25.913  -0.429  0.00  0.00     0.189 C 
HETATM    5  C   UNK     0     -62.648 -25.331   0.365  0.00  0.00     0.299 C 
HETATM    6  C   UNK     0     -60.502 -26.127   0.968  0.00  0.00     0.253 C 
ENDROOT
BRANCH   5   7
HETATM    7  O   UNK     0     -63.659 -24.383   0.708  0.00  0.00    -0.315 OA
BRANCH   7   8
HETATM    8  C   UNK     0     -64.881 -24.887   1.041  0.00  0.00     0.110 A 
HETATM    9  C   UNK     0     -65.760 -25.275   0.030  0.00  0.00     0.078 A 
HETATM   10  C   UNK     0     -67.014 -25.793   0.360  0.00  0.00     0.096 A 
HETATM   11  O   UNK     0     -67.834 -26.155  -0.677  0.00  0.00    -0.309 OA
HETATM   12  C   UNK     0     -67.383 -25.920   1.698  0.00  0.00     0.084 A 
HETATM   13  C   UNK     0     -69.083 -26.679  -0.379  0.00  0.00     0.090 A 
HETATM   14  C   UNK     0     -69.555 -26.846   0.866  0.00  0.00     0.094 A 
HETATM   15  C   UNK     0     -68.711 -26.467   2.017  0.00  0.00     0.190 A 
HETATM   16  O   UNK     0     -69.102 -26.605   3.168  0.00  0.00    -0.287 OA
HETATM   17  C   UNK     0     -66.506 -25.534   2.714  0.00  0.00     0.118 A 
HETATM   18  C   UNK     0     -65.254 -25.017   2.380  0.00  0.00     0.134 A 
BRANCH  13  19
HETATM   19  C   UNK     0     -69.885 -27.032  -1.568  0.00  0.00    -0.002 A 
HETATM   20  C   UNK     0     -70.297 -28.352  -1.770  0.00  0.00     0.014 A 
HETATM   21  C   UNK     0     -71.056 -28.684  -2.893  0.00  0.00     0.001 A 
HETATM   22  C   UNK     0     -71.405 -27.699  -3.816  0.00  0.00     0.000 A 
HETATM   23  C   UNK     0     -70.995 -26.380  -3.618  0.00  0.00     0.001 A 
HETATM   24  C   UNK     0     -70.236 -26.048  -2.495  0.00  0.00     0.014 A 
ENDBRANCH  13  19
BRANCH  17  25
HETATM   25  O   UNK     0     -66.833 -25.645   4.032  0.00  0.00    -0.357 OA
HETATM   26  H   UNK     0     -66.138 -26.109   4.522  0.00  0.00     0.217 HD
ENDBRANCH  17  25
BRANCH  18  27
HETATM   27  O   UNK     0     -64.388 -24.635   3.364  0.00  0.00    -0.356 OA
HETATM   28  H   UNK     0     -63.502 -24.970   3.141  0.00  0.00     0.218 HD
ENDBRANCH  18  27
ENDBRANCH   7   8
ENDBRANCH   5   7
BRANCH   6  29
HETATM   29  C   UNK     0     -59.478 -25.830   2.015  0.00  0.00     0.172 C 
HETATM   30  O   UNK     0     -59.389 -24.777   2.631  0.00  0.00    -0.648 OA
BRANCH  29  31
HETATM   31  O   UNK     0     -58.653 -26.890   2.192  0.00  0.00    -0.774 OA
HETATM   32  H   UNK     0     -57.777 -26.619   2.541  0.00  0.00     0.167 HD
ENDBRANCH  29  31
ENDBRANCH   6  29
BRANCH   3  33
HETATM   33  O   UNK     0     -63.331 -25.336  -1.932  0.00  0.00    -0.388 OA
HETATM   34  H   UNK     0     -63.023 -25.257  -2.850  0.00  0.00     0.210 HD
ENDBRANCH   3  33
BRANCH   4  35
HETATM   35  O   UNK     0     -58.993 -26.952  -0.704  0.00  0.00    -0.390 OA
HETATM   36  H   UNK     0     -59.443 -27.805  -0.578  0.00  0.00     0.210 HD
ENDBRANCH   4  35
BRANCH   2  37
HETATM   37  O   UNK     0     -60.496 -25.488  -2.716  0.00  0.00    -0.390 OA
HETATM   38  H   UNK     0     -61.138 -25.693  -3.416  0.00  0.00     0.210 HD
ENDBRANCH   2  37
TORSDOF 10
ENDMDL
MODEL 5
REMARK VINA RESULT:      -9.0      1.648      2.641
REMARK  10 active torsions:
REMARK  status: ('A' for Active; 'I' for Inactive)
REMARK    1  A    between atoms: O_2  and  C_15 
REMARK    2  A    between atoms: O_2  and  C_18 
REMARK    3  A    between atoms: O_3  and  C_12 
REMARK    4  A    between atoms: O_4  and  C_13 
REMARK    5  A    between atoms: O_5  and  C_14 
REMARK    6  A    between atoms: O_6  and  C_17 
REMARK    7  A    between atoms: O_9  and  C_20 
REMARK    8  A    between atoms: O_10  and  C_23 
REMARK    9  A    between atoms: C_16  and  C_17 
REMARK   10  A    between atoms: C_25  and  C_27 
ROOT
HETATM    1  O   UNK     0     -57.369 -20.184  -5.060  0.00  0.00    -0.340 OA
HETATM    2  C   UNK     0     -59.593 -20.884  -3.379  0.00  0.00     0.183 C 
HETATM    3  C   UNK     0     -58.346 -21.762  -3.496  0.00  0.00     0.205 C 
HETATM    4  C   UNK     0     -59.297 -19.439  -3.780  0.00  0.00     0.189 C 
HETATM    5  C   UNK     0     -57.655 -21.564  -4.846  0.00  0.00     0.299 C 
HETATM    6  C   UNK     0     -58.549 -19.388  -5.107  0.00  0.00     0.253 C 
ENDROOT
BRANCH   5   7
HETATM    7  O   UNK     0     -56.438 -22.312  -4.831  0.00  0.00    -0.315 OA
BRANCH   7   8
HETATM    8  C   UNK     0     -55.809 -22.476  -6.030  0.00  0.00     0.110 A 
HETATM    9  C   UNK     0     -56.181 -23.535  -6.858  0.00  0.00     0.078 A 
HETATM   10  C   UNK     0     -55.543 -23.712  -8.087  0.00  0.00     0.096 A 
HETATM   11  O   UNK     0     -55.952 -24.771  -8.857  0.00  0.00    -0.309 OA
HETATM   12  C   UNK     0     -54.537 -22.833  -8.482  0.00  0.00     0.084 A 
HETATM   13  C   UNK     0     -55.341 -24.968 -10.086  0.00  0.00     0.090 A 
HETATM   14  C   UNK     0     -54.358 -24.194 -10.574  0.00  0.00     0.094 A 
HETATM   15  C   UNK     0     -53.881 -23.044  -9.781  0.00  0.00     0.190 A 
HETATM   16  O   UNK     0     -52.988 -22.313 -10.190  0.00  0.00    -0.287 OA
HETATM   17  C   UNK     0     -54.162 -21.771  -7.655  0.00  0.00     0.118 A 
HETATM   18  C   UNK     0     -54.801 -21.597  -6.428  0.00  0.00     0.134 A 
BRANCH  13  19
HETATM   19  C   UNK     0     -55.853 -26.137 -10.831  0.00  0.00    -0.002 A 
HETATM   20  C   UNK     0     -54.962 -27.066 -11.376  0.00  0.00     0.014 A 
HETATM   21  C   UNK     0     -55.446 -28.170 -12.078  0.00  0.00     0.001 A 
HETATM   22  C   UNK     0     -56.820 -28.349 -12.236  0.00  0.00     0.000 A 
HETATM   23  C   UNK     0     -57.711 -27.424 -11.694  0.00  0.00     0.001 A 
HETATM   24  C   UNK     0     -57.228 -26.319 -10.992  0.00  0.00     0.014 A 
ENDBRANCH  13  19
BRANCH  17  25
HETATM   25  O   UNK     0     -53.182 -20.891  -8.009  0.00  0.00    -0.357 OA
HETATM   26  H   UNK     0     -52.475 -20.877  -7.346  0.00  0.00     0.217 HD
ENDBRANCH  17  25
BRANCH  18  27
HETATM   27  O   UNK     0     -54.442 -20.563  -5.612  0.00  0.00    -0.356 OA
HETATM   28  H   UNK     0     -54.007 -19.881  -6.152  0.00  0.00     0.218 HD
ENDBRANCH  18  27
ENDBRANCH   7   8
ENDBRANCH   5   7
BRANCH   6  29
HETATM   29  C   UNK     0     -58.025 -18.015  -5.374  0.00  0.00     0.172 C 
HETATM   30  O   UNK     0     -56.843 -17.704  -5.387  0.00  0.00    -0.648 OA
BRANCH  29  31
HETATM   31  O   UNK     0     -59.044 -17.150  -5.599  0.00  0.00    -0.774 OA
HETATM   32  H   UNK     0     -58.937 -16.316  -5.093  0.00  0.00     0.167 HD
ENDBRANCH  29  31
ENDBRANCH   6  29
BRANCH   3  33
HETATM   33  O   UNK     0     -58.721 -23.135  -3.382  0.00  0.00    -0.388 OA
HETATM   34  H   UNK     0     -58.424 -23.589  -4.188  0.00  0.00     0.210 HD
ENDBRANCH   3  33
BRANCH   4  35
HETATM   35  O   UNK     0     -60.528 -18.733  -3.922  0.00  0.00    -0.390 OA
HETATM   36  H   UNK     0     -60.363 -17.946  -4.470  0.00  0.00     0.210 HD
ENDBRANCH   4  35
BRANCH   2  37
HETATM   37  O   UNK     0     -60.050 -20.883  -2.026  0.00  0.00    -0.390 OA
HETATM   38  H   UNK     0     -59.416 -20.366  -1.501  0.00  0.00     0.210 HD
ENDBRANCH   2  37
TORSDOF 10
ENDMDL
MODEL 6
REMARK VINA RESULT:      -8.9     12.581     16.061
REMARK  10 active torsions:
REMARK  status: ('A' for Active; 'I' for Inactive)
REMARK    1  A    between atoms: O_2  and  C_15 
REMARK    2  A    between atoms: O_2  and  C_18 
REMARK    3  A    between atoms: O_3  and  C_12 
REMARK    4  A    between atoms: O_4  and  C_13 
REMARK    5  A    between atoms: O_5  and  C_14 
REMARK    6  A    between atoms: O_6  and  C_17 
REMARK    7  A    between atoms: O_9  and  C_20 
REMARK    8  A    between atoms: O_10  and  C_23 
REMARK    9  A    between atoms: C_16  and  C_17 
REMARK   10  A    between atoms: C_25  and  C_27 
ROOT
HETATM    1  O   UNK     0     -63.271 -33.460   4.469  0.00  0.00    -0.340 OA
HETATM    2  C   UNK     0     -62.217 -35.404   6.304  0.00  0.00     0.183 C 
HETATM    3  C   UNK     0     -63.110 -34.249   6.758  0.00  0.00     0.205 C 
HETATM    4  C   UNK     0     -62.407 -35.706   4.818  0.00  0.00     0.189 C 
HETATM    5  C   UNK     0     -62.997 -33.056   5.809  0.00  0.00     0.299 C 
HETATM    6  C   UNK     0     -62.339 -34.425   3.994  0.00  0.00     0.253 C 
ENDROOT
BRANCH   5   7
HETATM    7  O   UNK     0     -63.948 -32.074   6.220  0.00  0.00    -0.315 OA
BRANCH   7   8
HETATM    8  C   UNK     0     -63.860 -30.851   5.623  0.00  0.00     0.110 A 
HETATM    9  C   UNK     0     -64.706 -30.549   4.556  0.00  0.00     0.078 A 
HETATM   10  C   UNK     0     -64.625 -29.300   3.937  0.00  0.00     0.096 A 
HETATM   11  O   UNK     0     -65.481 -29.061   2.893  0.00  0.00    -0.309 OA
HETATM   12  C   UNK     0     -63.699 -28.360   4.387  0.00  0.00     0.084 A 
HETATM   13  C   UNK     0     -65.428 -27.826   2.265  0.00  0.00     0.090 A 
HETATM   14  C   UNK     0     -64.579 -26.843   2.601  0.00  0.00     0.094 A 
HETATM   15  C   UNK     0     -63.634 -27.053   3.716  0.00  0.00     0.190 A 
HETATM   16  O   UNK     0     -62.844 -26.181   4.057  0.00  0.00    -0.287 OA
HETATM   17  C   UNK     0     -62.851 -28.659   5.456  0.00  0.00     0.118 A 
HETATM   18  C   UNK     0     -62.935 -29.908   6.071  0.00  0.00     0.134 A 
BRANCH  13  19
HETATM   19  C   UNK     0     -66.389 -27.677   1.153  0.00  0.00    -0.002 A 
HETATM   20  C   UNK     0     -67.150 -28.771   0.732  0.00  0.00     0.014 A 
HETATM   21  C   UNK     0     -68.059 -28.629  -0.317  0.00  0.00     0.001 A 
HETATM   22  C   UNK     0     -68.209 -27.395  -0.949  0.00  0.00     0.000 A 
HETATM   23  C   UNK     0     -67.450 -26.301  -0.531  0.00  0.00     0.001 A 
HETATM   24  C   UNK     0     -66.542 -26.443   0.518  0.00  0.00     0.014 A 
ENDBRANCH  13  19
BRANCH  17  25
HETATM   25  O   UNK     0     -61.934 -27.764   5.922  0.00  0.00    -0.357 OA
HETATM   26  H   UNK     0     -61.591 -28.041   6.785  0.00  0.00     0.217 HD
ENDBRANCH  17  25
BRANCH  18  27
HETATM   27  O   UNK     0     -62.110 -30.211   7.116  0.00  0.00    -0.356 OA
HETATM   28  H   UNK     0     -62.207 -31.158   7.319  0.00  0.00     0.218 HD
ENDBRANCH  18  27
ENDBRANCH   7   8
ENDBRANCH   5   7
BRANCH   6  29
HETATM   29  C   UNK     0     -62.784 -34.669   2.589  0.00  0.00     0.172 C 
HETATM   30  O   UNK     0     -63.734 -34.122   2.048  0.00  0.00    -0.648 OA
BRANCH  29  31
HETATM   31  O   UNK     0     -61.989 -35.587   1.987  0.00  0.00    -0.774 OA
HETATM   32  H   UNK     0     -62.007 -35.504   1.010  0.00  0.00     0.167 HD
ENDBRANCH  29  31
ENDBRANCH   6  29
BRANCH   3  33
HETATM   33  O   UNK     0     -62.708 -33.824   8.061  0.00  0.00    -0.388 OA
HETATM   34  H   UNK     0     -63.511 -33.728   8.600  0.00  0.00     0.210 HD
ENDBRANCH   3  33
BRANCH   4  35
HETATM   35  O   UNK     0     -61.372 -36.585   4.384  0.00  0.00    -0.390 OA
HETATM   36  H   UNK     0     -60.520 -36.211   4.667  0.00  0.00     0.210 HD
ENDBRANCH   4  35
BRANCH   2  37
HETATM   37  O   UNK     0     -62.550 -36.582   7.041  0.00  0.00    -0.390 OA
HETATM   38  H   UNK     0     -63.466 -36.486   7.352  0.00  0.00     0.210 HD
ENDBRANCH   2  37
TORSDOF 10
ENDMDL
MODEL 7
REMARK VINA RESULT:      -8.7     11.676     14.980
REMARK  10 active torsions:
REMARK  status: ('A' for Active; 'I' for Inactive)
REMARK    1  A    between atoms: O_2  and  C_15 
REMARK    2  A    between atoms: O_2  and  C_18 
REMARK    3  A    between atoms: O_3  and  C_12 
REMARK    4  A    between atoms: O_4  and  C_13 
REMARK    5  A    between atoms: O_5  and  C_14 
REMARK    6  A    between atoms: O_6  and  C_17 
REMARK    7  A    between atoms: O_9  and  C_20 
REMARK    8  A    between atoms: O_10  and  C_23 
REMARK    9  A    between atoms: C_16  and  C_17 
REMARK   10  A    between atoms: C_25  and  C_27 
ROOT
HETATM    1  O   UNK     0     -64.189 -32.884   2.884  0.00  0.00    -0.340 OA
HETATM    2  C   UNK     0     -62.287 -34.595   4.191  0.00  0.00     0.183 C 
HETATM    3  C   UNK     0     -62.940 -33.407   4.898  0.00  0.00     0.205 C 
HETATM    4  C   UNK     0     -63.122 -35.065   3.001  0.00  0.00     0.189 C 
HETATM    5  C   UNK     0     -63.354 -32.328   3.897  0.00  0.00     0.299 C 
HETATM    6  C   UNK     0     -63.524 -33.885   2.123  0.00  0.00     0.253 C 
ENDROOT
BRANCH   5   7
HETATM    7  O   UNK     0     -64.068 -31.316   4.609  0.00  0.00    -0.315 OA
BRANCH   7   8
HETATM    8  C   UNK     0     -63.905 -30.033   4.175  0.00  0.00     0.110 A 
HETATM    9  C   UNK     0     -64.802 -29.506   3.247  0.00  0.00     0.078 A 
HETATM   10  C   UNK     0     -64.644 -28.194   2.797  0.00  0.00     0.096 A 
HETATM   11  O   UNK     0     -65.557 -27.731   1.884  0.00  0.00    -0.309 OA
HETATM   12  C   UNK     0     -63.591 -27.416   3.276  0.00  0.00     0.084 A 
HETATM   13  C   UNK     0     -65.429 -26.429   1.425  0.00  0.00     0.090 A 
HETATM   14  C   UNK     0     -64.457 -25.585   1.806  0.00  0.00     0.094 A 
HETATM   15  C   UNK     0     -63.448 -26.037   2.784  0.00  0.00     0.190 A 
HETATM   16  O   UNK     0     -62.546 -25.299   3.159  0.00  0.00    -0.287 OA
HETATM   17  C   UNK     0     -62.691 -27.941   4.206  0.00  0.00     0.118 A 
HETATM   18  C   UNK     0     -62.851 -29.252   4.654  0.00  0.00     0.134 A 
BRANCH  13  19
HETATM   19  C   UNK     0     -66.460 -26.035   0.443  0.00  0.00    -0.002 A 
HETATM   20  C   UNK     0     -66.505 -24.724  -0.038  0.00  0.00     0.014 A 
HETATM   21  C   UNK     0     -67.478 -24.352  -0.967  0.00  0.00     0.001 A 
HETATM   22  C   UNK     0     -68.408 -25.290  -1.416  0.00  0.00     0.000 A 
HETATM   23  C   UNK     0     -68.366 -26.599  -0.937  0.00  0.00     0.001 A 
HETATM   24  C   UNK     0     -67.393 -26.971  -0.009  0.00  0.00     0.014 A 
ENDBRANCH  13  19
BRANCH  17  25
HETATM   25  O   UNK     0     -61.650 -27.210   4.696  0.00  0.00    -0.357 OA
HETATM   26  H   UNK     0     -61.965 -26.377   5.081  0.00  0.00     0.217 HD
ENDBRANCH  17  25
BRANCH  18  27
HETATM   27  O   UNK     0     -61.978 -29.776   5.562  0.00  0.00    -0.356 OA
HETATM   28  H   UNK     0     -61.228 -30.165   5.079  0.00  0.00     0.218 HD
ENDBRANCH  18  27
ENDBRANCH   7   8
ENDBRANCH   5   7
BRANCH   6  29
HETATM   29  C   UNK     0     -64.551 -34.292   1.117  0.00  0.00     0.172 C 
HETATM   30  O   UNK     0     -65.728 -34.510   1.365  0.00  0.00    -0.648 OA
BRANCH  29  31
HETATM   31  O   UNK     0     -64.000 -34.390  -0.117  0.00  0.00    -0.774 OA
HETATM   32  H   UNK     0     -64.227 -33.621  -0.682  0.00  0.00     0.167 HD
ENDBRANCH  29  31
ENDBRANCH   6  29
BRANCH   3  33
HETATM   33  O   UNK     0     -62.010 -32.832   5.816  0.00  0.00    -0.388 OA
HETATM   34  H   UNK     0     -62.037 -33.359   6.632  0.00  0.00     0.210 HD
ENDBRANCH   3  33
BRANCH   4  35
HETATM   35  O   UNK     0     -62.352 -35.975   2.220  0.00  0.00    -0.390 OA
HETATM   36  H   UNK     0     -62.934 -36.705   1.946  0.00  0.00     0.210 HD
ENDBRANCH   4  35
BRANCH   2  37
HETATM   37  O   UNK     0     -62.167 -35.686   5.106  0.00  0.00    -0.390 OA
HETATM   38  H   UNK     0     -62.485 -36.485   4.655  0.00  0.00     0.210 HD
ENDBRANCH   2  37
TORSDOF 10
ENDMDL
MODEL 8
REMARK VINA RESULT:      -8.5      3.369      8.256
REMARK  10 active torsions:
REMARK  status: ('A' for Active; 'I' for Inactive)
REMARK    1  A    between atoms: O_2  and  C_15 
REMARK    2  A    between atoms: O_2  and  C_18 
REMARK    3  A    between atoms: O_3  and  C_12 
REMARK    4  A    between atoms: O_4  and  C_13 
REMARK    5  A    between atoms: O_5  and  C_14 
REMARK    6  A    between atoms: O_6  and  C_17 
REMARK    7  A    between atoms: O_9  and  C_20 
REMARK    8  A    between atoms: O_10  and  C_23 
REMARK    9  A    between atoms: C_16  and  C_17 
REMARK   10  A    between atoms: C_25  and  C_27 
ROOT
HETATM    1  O   UNK     0     -57.573 -20.821  -4.974  0.00  0.00    -0.340 OA
HETATM    2  C   UNK     0     -57.398 -18.500  -6.659  0.00  0.00     0.183 C 
HETATM    3  C   UNK     0     -58.026 -18.455  -5.265  0.00  0.00     0.205 C 
HETATM    4  C   UNK     0     -56.445 -19.686  -6.803  0.00  0.00     0.189 C 
HETATM    5  C   UNK     0     -58.583 -19.822  -4.865  0.00  0.00     0.299 C 
HETATM    6  C   UNK     0     -57.100 -20.970  -6.308  0.00  0.00     0.253 C 
ENDROOT
BRANCH   5   7
HETATM    7  O   UNK     0     -59.033 -19.735  -3.513  0.00  0.00    -0.315 OA
BRANCH   7   8
HETATM    8  C   UNK     0     -59.821 -20.754  -3.065  0.00  0.00     0.110 A 
HETATM    9  C   UNK     0     -59.235 -21.830  -2.397  0.00  0.00     0.078 A 
HETATM   10  C   UNK     0     -60.032 -22.877  -1.934  0.00  0.00     0.096 A 
HETATM   11  O   UNK     0     -59.399 -23.907  -1.286  0.00  0.00    -0.309 OA
HETATM   12  C   UNK     0     -61.410 -22.847  -2.141  0.00  0.00     0.084 A 
HETATM   13  C   UNK     0     -60.167 -24.958  -0.809  0.00  0.00     0.090 A 
HETATM   14  C   UNK     0     -61.499 -25.046  -0.950  0.00  0.00     0.094 A 
HETATM   15  C   UNK     0     -62.227 -23.965  -1.645  0.00  0.00     0.190 A 
HETATM   16  O   UNK     0     -63.441 -24.005  -1.793  0.00  0.00    -0.287 OA
HETATM   17  C   UNK     0     -62.001 -21.772  -2.809  0.00  0.00     0.118 A 
HETATM   18  C   UNK     0     -61.201 -20.726  -3.270  0.00  0.00     0.134 A 
BRANCH  13  19
HETATM   19  C   UNK     0     -59.386 -26.013  -0.132  0.00  0.00    -0.002 A 
HETATM   20  C   UNK     0     -58.918 -25.814   1.169  0.00  0.00     0.014 A 
HETATM   21  C   UNK     0     -58.181 -26.811   1.809  0.00  0.00     0.001 A 
HETATM   22  C   UNK     0     -57.910 -28.010   1.150  0.00  0.00     0.000 A 
HETATM   23  C   UNK     0     -58.376 -28.212  -0.150  0.00  0.00     0.001 A 
HETATM   24  C   UNK     0     -59.113 -27.215  -0.789  0.00  0.00     0.014 A 
ENDBRANCH  13  19
BRANCH  17  25
HETATM   25  O   UNK     0     -63.345 -21.708  -3.029  0.00  0.00    -0.357 OA
HETATM   26  H   UNK     0     -63.564 -20.966  -3.614  0.00  0.00     0.217 HD
ENDBRANCH  17  25
BRANCH  18  27
HETATM   27  O   UNK     0     -61.767 -19.670  -3.925  0.00  0.00    -0.356 OA
HETATM   28  H   UNK     0     -61.696 -19.828  -4.882  0.00  0.00     0.218 HD
ENDBRANCH  18  27
ENDBRANCH   7   8
ENDBRANCH   5   7
BRANCH   6  29
HETATM   29  C   UNK     0     -56.098 -22.073  -6.196  0.00  0.00     0.172 C 
HETATM   30  O   UNK     0     -54.909 -21.971  -6.459  0.00  0.00    -0.648 OA
BRANCH  29  31
HETATM   31  O   UNK     0     -56.689 -23.214  -5.764  0.00  0.00    -0.774 OA
HETATM   32  H   UNK     0     -56.928 -23.808  -6.508  0.00  0.00     0.167 HD
ENDBRANCH  29  31
ENDBRANCH   6  29
BRANCH   3  33
HETATM   33  O   UNK     0     -59.100 -17.514  -5.259  0.00  0.00    -0.388 OA
HETATM   34  H   UNK     0     -59.185 -17.170  -4.355  0.00  0.00     0.210 HD
ENDBRANCH   3  33
BRANCH   4  35
HETATM   35  O   UNK     0     -56.105 -19.847  -8.179  0.00  0.00    -0.390 OA
HETATM   36  H   UNK     0     -56.927 -19.816  -8.698  0.00  0.00     0.210 HD
ENDBRANCH   4  35
BRANCH   2  37
HETATM   37  O   UNK     0     -56.652 -17.303  -6.884  0.00  0.00    -0.390 OA
HETATM   38  H   UNK     0     -56.517 -17.216  -7.842  0.00  0.00     0.210 HD
ENDBRANCH   2  37
TORSDOF 10
ENDMDL
MODEL 9
REMARK VINA RESULT:      -8.5      4.769      9.658
REMARK  10 active torsions:
REMARK  status: ('A' for Active; 'I' for Inactive)
REMARK    1  A    between atoms: O_2  and  C_15 
REMARK    2  A    between atoms: O_2  and  C_18 
REMARK    3  A    between atoms: O_3  and  C_12 
REMARK    4  A    between atoms: O_4  and  C_13 
REMARK    5  A    between atoms: O_5  and  C_14 
REMARK    6  A    between atoms: O_6  and  C_17 
REMARK    7  A    between atoms: O_9  and  C_20 
REMARK    8  A    between atoms: O_10  and  C_23 
REMARK    9  A    between atoms: C_16  and  C_17 
REMARK   10  A    between atoms: C_25  and  C_27 
ROOT
HETATM    1  O   UNK     0     -59.810 -21.574  -1.725  0.00  0.00    -0.340 OA
HETATM    2  C   UNK     0     -58.721 -20.531  -4.171  0.00  0.00     0.183 C 
HETATM    3  C   UNK     0     -58.867 -22.031  -3.914  0.00  0.00     0.205 C 
HETATM    4  C   UNK     0     -59.670 -19.719  -3.289  0.00  0.00     0.189 C 
HETATM    5  C   UNK     0     -58.828 -22.342  -2.417  0.00  0.00     0.299 C 
HETATM    6  C   UNK     0     -59.581 -20.174  -1.837  0.00  0.00     0.253 C 
ENDROOT
BRANCH   5   7
HETATM    7  O   UNK     0     -59.099 -23.734  -2.249  0.00  0.00    -0.315 OA
BRANCH   7   8
HETATM    8  C   UNK     0     -59.796 -24.090  -1.132  0.00  0.00     0.110 A 
HETATM    9  C   UNK     0     -61.190 -24.130  -1.181  0.00  0.00     0.078 A 
HETATM   10  C   UNK     0     -61.913 -24.494  -0.044  0.00  0.00     0.096 A 
HETATM   11  O   UNK     0     -63.280 -24.513  -0.152  0.00  0.00    -0.309 OA
HETATM   12  C   UNK     0     -61.242 -24.815   1.135  0.00  0.00     0.084 A 
HETATM   13  C   UNK     0     -64.025 -24.878   0.960  0.00  0.00     0.090 A 
HETATM   14  C   UNK     0     -63.497 -25.203   2.150  0.00  0.00     0.094 A 
HETATM   15  C   UNK     0     -62.030 -25.193   2.318  0.00  0.00     0.190 A 
HETATM   16  O   UNK     0     -61.508 -25.485   3.386  0.00  0.00    -0.287 OA
HETATM   17  C   UNK     0     -59.847 -24.777   1.187  0.00  0.00     0.118 A 
HETATM   18  C   UNK     0     -59.127 -24.413   0.049  0.00  0.00     0.134 A 
BRANCH  13  19
HETATM   19  C   UNK     0     -65.485 -24.862   0.735  0.00  0.00    -0.002 A 
HETATM   20  C   UNK     0     -66.358 -24.687   1.812  0.00  0.00     0.014 A 
HETATM   21  C   UNK     0     -67.737 -24.670   1.600  0.00  0.00     0.001 A 
HETATM   22  C   UNK     0     -68.247 -24.828   0.312  0.00  0.00     0.000 A 
HETATM   23  C   UNK     0     -67.378 -25.003  -0.766  0.00  0.00     0.001 A 
HETATM   24  C   UNK     0     -65.999 -25.020  -0.553  0.00  0.00     0.014 A 
ENDBRANCH  13  19
BRANCH  17  25
HETATM   25  O   UNK     0     -59.158 -25.085   2.322  0.00  0.00    -0.357 OA
HETATM   26  H   UNK     0     -58.652 -24.321   2.636  0.00  0.00     0.217 HD
ENDBRANCH  17  25
BRANCH  18  27
HETATM   27  O   UNK     0     -57.763 -24.372   0.088  0.00  0.00    -0.356 OA
HETATM   28  H   UNK     0     -57.477 -24.499   1.009  0.00  0.00     0.218 HD
ENDBRANCH  18  27
ENDBRANCH   7   8
ENDBRANCH   5   7
BRANCH   6  29
HETATM   29  C   UNK     0     -60.682 -19.579  -1.022  0.00  0.00     0.172 C 
HETATM   30  O   UNK     0     -60.974 -18.393  -0.996  0.00  0.00    -0.648 OA
BRANCH  29  31
HETATM   31  O   UNK     0     -61.318 -20.537  -0.305  0.00  0.00    -0.774 OA
HETATM   32  H   UNK     0     -62.271 -20.336  -0.187  0.00  0.00     0.167 HD
ENDBRANCH  29  31
ENDBRANCH   6  29
BRANCH   3  33
HETATM   33  O   UNK     0     -57.790 -22.727  -4.543  0.00  0.00    -0.388 OA
HETATM   34  H   UNK     0     -57.564 -23.488  -3.983  0.00  0.00     0.210 HD
ENDBRANCH   3  33
BRANCH   4  35
HETATM   35  O   UNK     0     -59.308 -18.341  -3.360  0.00  0.00    -0.390 OA
HETATM   36  H   UNK     0     -59.046 -18.145  -4.276  0.00  0.00     0.210 HD
ENDBRANCH   4  35
BRANCH   2  37
HETATM   37  O   UNK     0     -59.036 -20.249  -5.536  0.00  0.00    -0.390 OA
HETATM   38  H   UNK     0     -59.939 -20.567  -5.702  0.00  0.00     0.210 HD
ENDBRANCH   2  37
TORSDOF 10
ENDMDL
MODEL 10
REMARK VINA RESULT:      -8.4      3.855      5.961
REMARK  10 active torsions:
REMARK  status: ('A' for Active; 'I' for Inactive)
REMARK    1  A    between atoms: O_2  and  C_15 
REMARK    2  A    between atoms: O_2  and  C_18 
REMARK    3  A    between atoms: O_3  and  C_12 
REMARK    4  A    between atoms: O_4  and  C_13 
REMARK    5  A    between atoms: O_5  and  C_14 
REMARK    6  A    between atoms: O_6  and  C_17 
REMARK    7  A    between atoms: O_9  and  C_20 
REMARK    8  A    between atoms: O_10  and  C_23 
REMARK    9  A    between atoms: C_16  and  C_17 
REMARK   10  A    between atoms: C_25  and  C_27 
ROOT
HETATM    1  O   UNK     0     -59.539 -20.307  -2.179  0.00  0.00    -0.340 OA
HETATM    2  C   UNK     0     -59.882 -22.985  -1.197  0.00  0.00     0.183 C 
HETATM    3  C   UNK     0     -58.554 -22.486  -1.767  0.00  0.00     0.205 C 
HETATM    4  C   UNK     0     -60.758 -21.825  -0.725  0.00  0.00     0.189 C 
HETATM    5  C   UNK     0     -58.774 -21.354  -2.771  0.00  0.00     0.299 C 
HETATM    6  C   UNK     0     -60.838 -20.739  -1.791  0.00  0.00     0.253 C 
ENDROOT
BRANCH   5   7
HETATM    7  O   UNK     0     -57.494 -20.855  -3.160  0.00  0.00    -0.315 OA
BRANCH   7   8
HETATM    8  C   UNK     0     -57.343 -20.515  -4.472  0.00  0.00     0.110 A 
HETATM    9  C   UNK     0     -57.608 -19.206  -4.874  0.00  0.00     0.078 A 
HETATM   10  C   UNK     0     -57.456 -18.847  -6.215  0.00  0.00     0.096 A 
HETATM   11  O   UNK     0     -57.732 -17.547  -6.550  0.00  0.00    -0.309 OA
HETATM   12  C   UNK     0     -57.043 -19.798  -7.146  0.00  0.00     0.084 A 
HETATM   13  C   UNK     0     -57.583 -17.160  -7.873  0.00  0.00     0.090 A 
HETATM   14  C   UNK     0     -57.197 -17.982  -8.862  0.00  0.00     0.094 A 
HETATM   15  C   UNK     0     -56.893 -19.393  -8.553  0.00  0.00     0.190 A 
HETATM   16  O   UNK     0     -56.536 -20.175  -9.424  0.00  0.00    -0.287 OA
HETATM   17  C   UNK     0     -56.776 -21.110  -6.748  0.00  0.00     0.118 A 
HETATM   18  C   UNK     0     -56.928 -21.465  -5.407  0.00  0.00     0.134 A 
BRANCH  13  19
HETATM   19  C   UNK     0     -57.909 -15.741  -8.124  0.00  0.00    -0.002 A 
HETATM   20  C   UNK     0     -59.006 -15.151  -7.490  0.00  0.00     0.014 A 
HETATM   21  C   UNK     0     -59.313 -13.811  -7.726  0.00  0.00     0.001 A 
HETATM   22  C   UNK     0     -58.526 -13.057  -8.596  0.00  0.00     0.000 A 
HETATM   23  C   UNK     0     -57.431 -13.643  -9.231  0.00  0.00     0.001 A 
HETATM   24  C   UNK     0     -57.123 -14.983  -8.995  0.00  0.00     0.014 A 
ENDBRANCH  13  19
BRANCH  17  25
HETATM   25  O   UNK     0     -56.370 -22.065  -7.631  0.00  0.00    -0.357 OA
HETATM   26  H   UNK     0     -55.942 -22.802  -7.169  0.00  0.00     0.217 HD
ENDBRANCH  17  25
BRANCH  18  27
HETATM   27  O   UNK     0     -56.672 -22.744  -5.006  0.00  0.00    -0.356 OA
HETATM   28  H   UNK     0     -56.499 -22.737  -4.048  0.00  0.00     0.218 HD
ENDBRANCH  18  27
ENDBRANCH   7   8
ENDBRANCH   5   7
BRANCH   6  29
HETATM   29  C   UNK     0     -61.463 -19.497  -1.244  0.00  0.00     0.172 C 
HETATM   30  O   UNK     0     -60.855 -18.486  -0.925  0.00  0.00    -0.648 OA
BRANCH  29  31
HETATM   31  O   UNK     0     -62.807 -19.642  -1.143  0.00  0.00    -0.774 OA
HETATM   32  H   UNK     0     -63.084 -20.577  -1.251  0.00  0.00     0.167 HD
ENDBRANCH  29  31
ENDBRANCH   6  29
BRANCH   3  33
HETATM   33  O   UNK     0     -57.894 -23.559  -2.440  0.00  0.00    -0.388 OA
HETATM   34  H   UNK     0     -58.384 -24.375  -2.245  0.00  0.00     0.210 HD
ENDBRANCH   3  33
BRANCH   4  35
HETATM   35  O   UNK     0     -62.074 -22.309  -0.465  0.00  0.00    -0.390 OA
HETATM   36  H   UNK     0     -62.502 -21.698   0.159  0.00  0.00     0.210 HD
ENDBRANCH   4  35
BRANCH   2  37
HETATM   37  O   UNK     0     -59.631 -23.835  -0.077  0.00  0.00    -0.390 OA
HETATM   38  H   UNK     0     -59.737 -23.301   0.728  0.00  0.00     0.210 HD
ENDBRANCH   2  37
TORSDOF 10
ENDMDL
