MODEL 1
REMARK VINA RESULT:      -6.5      0.000      0.000
REMARK  7 active torsions:
REMARK  status: ('A' for Active; 'I' for Inactive)
REMARK    1  A    between atoms: O_2  and  C_10 
REMARK    2  A    between atoms: O_3  and  C_11 
REMARK    3  A    between atoms: O_4  and  C_14 
REMARK    4  A    between atoms: O_6  and  N_9 
REMARK    5  A    between atoms: N_7  and  C_12 
REMARK    6  A    between atoms: N_9  and  C_18 
REMARK    7  A    between atoms: C_13  and  C_14 
ROOT
HETATM    1  O   UNK     0     -67.322 -26.680   1.260  0.00  0.00    -0.353 OA
HETATM    2  C   UNK     0     -67.789 -24.371   1.511  0.00  0.00     0.198 C 
HETATM    3  C   UNK     0     -66.294 -24.578   1.628  0.00  0.00     0.182 C 
HETATM    4  C   UNK     0     -68.233 -25.654   0.832  0.00  0.00     0.264 C 
HETATM    5  C   UNK     0     -66.201 -26.067   1.933  0.00  0.00     0.179 C 
ENDROOT
BRANCH   4   6
HETATM    6  N   UNK     0     -69.568 -26.034   1.197  0.00  0.00    -0.278 N 
HETATM    7  C   UNK     0     -69.745 -26.886   2.277  0.00  0.00     0.102 A 
HETATM    8  C   UNK     0     -70.946 -27.289   2.686  0.00  0.00     0.070 A 
HETATM    9  C   UNK     0     -72.112 -26.777   1.919  0.00  0.00     0.153 A 
HETATM   10  N   UNK     0     -71.962 -25.974   0.899  0.00  0.00    -0.174 NA
HETATM   11  C   UNK     0     -70.704 -25.565   0.490  0.00  0.00     0.352 A 
HETATM   12  O   UNK     0     -70.581 -24.806  -0.472  0.00  0.00    -0.244 OA
BRANCH   9  13
HETATM   13  N   UNK     0     -73.371 -27.172   2.309  0.00  0.00    -0.251 N 
HETATM   14  H   UNK     0     -73.845 -26.926   3.170  0.00  0.00     0.196 HD
BRANCH  13  15
HETATM   15  O   UNK     0     -74.038 -27.884   1.355  0.00  0.00    -0.288 OA
HETATM   16  H   UNK     0     -74.965 -27.733   1.603  0.00  0.00     0.244 HD
ENDBRANCH  13  15
ENDBRANCH   9  13
ENDBRANCH   4   6
BRANCH   5  17
HETATM   17  C   UNK     0     -66.309 -26.385   3.419  0.00  0.00     0.198 C 
BRANCH  17  18
HETATM   18  O   UNK     0     -65.573 -25.417   4.143  0.00  0.00    -0.398 OA
HETATM   19  H   UNK     0     -65.270 -25.843   4.964  0.00  0.00     0.209 HD
ENDBRANCH  17  18
ENDBRANCH   5  17
BRANCH   2  20
HETATM   20  O   UNK     0     -68.114 -23.218   0.761  0.00  0.00    -0.388 OA
HETATM   21  H   UNK     0     -68.194 -22.477   1.384  0.00  0.00     0.210 HD
ENDBRANCH   2  20
BRANCH   3  22
HETATM   22  O   UNK     0     -65.662 -24.347   0.369  0.00  0.00    -0.390 OA
HETATM   23  H   UNK     0     -65.625 -25.182  -0.125  0.00  0.00     0.210 HD
ENDBRANCH   3  22
TORSDOF 7
ENDMDL
MODEL 2
REMARK VINA RESULT:      -6.5      9.910     12.993
REMARK  7 active torsions:
REMARK  status: ('A' for Active; 'I' for Inactive)
REMARK    1  A    between atoms: O_2  and  C_10 
REMARK    2  A    between atoms: O_3  and  C_11 
REMARK    3  A    between atoms: O_4  and  C_14 
REMARK    4  A    between atoms: O_6  and  N_9 
REMARK    5  A    between atoms: N_7  and  C_12 
REMARK    6  A    between atoms: N_9  and  C_18 
REMARK    7  A    between atoms: C_13  and  C_14 
ROOT
HETATM    1  O   UNK     0     -60.605 -21.121  -2.540  0.00  0.00    -0.353 OA
HETATM    2  C   UNK     0     -58.902 -22.748  -2.790  0.00  0.00     0.198 C 
HETATM    3  C   UNK     0     -60.190 -23.304  -3.359  0.00  0.00     0.182 C 
HETATM    4  C   UNK     0     -59.191 -21.258  -2.753  0.00  0.00     0.264 C 
HETATM    5  C   UNK     0     -61.237 -22.408  -2.712  0.00  0.00     0.179 C 
ENDROOT
BRANCH   4   6
HETATM    6  N   UNK     0     -58.493 -20.590  -1.692  0.00  0.00    -0.278 N 
HETATM    7  C   UNK     0     -58.586 -21.103  -0.408  0.00  0.00     0.102 A 
HETATM    8  C   UNK     0     -57.971 -20.550   0.635  0.00  0.00     0.070 A 
HETATM    9  C   UNK     0     -57.165 -19.333   0.357  0.00  0.00     0.153 A 
HETATM   10  N   UNK     0     -57.067 -18.836  -0.848  0.00  0.00    -0.174 NA
HETATM   11  C   UNK     0     -57.712 -19.428  -1.920  0.00  0.00     0.352 A 
HETATM   12  O   UNK     0     -57.607 -18.948  -3.050  0.00  0.00    -0.244 OA
BRANCH   9  13
HETATM   13  N   UNK     0     -56.514 -18.729   1.408  0.00  0.00    -0.251 N 
HETATM   14  H   UNK     0     -56.826 -18.687   2.371  0.00  0.00     0.196 HD
BRANCH  13  15
HETATM   15  O   UNK     0     -55.284 -18.238   1.078  0.00  0.00    -0.288 OA
HETATM   16  H   UNK     0     -54.832 -18.234   1.938  0.00  0.00     0.244 HD
ENDBRANCH  13  15
ENDBRANCH   9  13
ENDBRANCH   4   6
BRANCH   5  17
HETATM   17  C   UNK     0     -61.689 -22.901  -1.343  0.00  0.00     0.198 C 
BRANCH  17  18
HETATM   18  O   UNK     0     -61.980 -21.777  -0.531  0.00  0.00    -0.398 OA
HETATM   19  H   UNK     0     -62.235 -21.052  -1.127  0.00  0.00     0.209 HD
ENDBRANCH  17  18
ENDBRANCH   5  17
BRANCH   2  20
HETATM   20  O   UNK     0     -57.782 -23.065  -3.592  0.00  0.00    -0.388 OA
HETATM   21  H   UNK     0     -57.097 -22.399  -3.413  0.00  0.00     0.210 HD
ENDBRANCH   2  20
BRANCH   3  22
HETATM   22  O   UNK     0     -60.241 -23.092  -4.770  0.00  0.00    -0.390 OA
HETATM   23  H   UNK     0     -59.487 -22.540  -5.035  0.00  0.00     0.210 HD
ENDBRANCH   3  22
TORSDOF 7
ENDMDL
MODEL 3
REMARK VINA RESULT:      -6.5      1.671      1.822
REMARK  7 active torsions:
REMARK  status: ('A' for Active; 'I' for Inactive)
REMARK    1  A    between atoms: O_2  and  C_10 
REMARK    2  A    between atoms: O_3  and  C_11 
REMARK    3  A    between atoms: O_4  and  C_14 
REMARK    4  A    between atoms: O_6  and  N_9 
REMARK    5  A    between atoms: N_7  and  C_12 
REMARK    6  A    between atoms: N_9  and  C_18 
REMARK    7  A    between atoms: C_13  and  C_14 
ROOT
HETATM    1  O   UNK     0     -66.296 -26.741   1.341  0.00  0.00    -0.353 OA
HETATM    2  C   UNK     0     -66.307 -24.698   0.141  0.00  0.00     0.198 C 
HETATM    3  C   UNK     0     -64.904 -24.954   0.650  0.00  0.00     0.182 C 
HETATM    4  C   UNK     0     -66.933 -26.078   0.236  0.00  0.00     0.264 C 
HETATM    5  C   UNK     0     -65.147 -25.973   1.755  0.00  0.00     0.179 C 
ENDROOT
BRANCH   4   6
HETATM    6  N   UNK     0     -68.347 -26.023   0.478  0.00  0.00    -0.278 N 
HETATM    7  C   UNK     0     -68.814 -26.278   1.758  0.00  0.00     0.102 A 
HETATM    8  C   UNK     0     -70.107 -26.248   2.072  0.00  0.00     0.070 A 
HETATM    9  C   UNK     0     -71.047 -25.923   0.968  0.00  0.00     0.153 A 
HETATM   10  N   UNK     0     -70.624 -25.681  -0.244  0.00  0.00    -0.174 NA
HETATM   11  C   UNK     0     -69.274 -25.716  -0.551  0.00  0.00     0.352 A 
HETATM   12  O   UNK     0     -68.892 -25.482  -1.698  0.00  0.00    -0.244 OA
BRANCH   9  13
HETATM   13  N   UNK     0     -72.394 -25.883   1.251  0.00  0.00    -0.251 N 
HETATM   14  H   UNK     0     -73.155 -25.952   0.586  0.00  0.00     0.196 HD
BRANCH  13  15
HETATM   15  O   UNK     0     -72.669 -25.845   2.587  0.00  0.00    -0.288 OA
HETATM   16  H   UNK     0     -71.782 -25.923   2.977  0.00  0.00     0.244 HD
ENDBRANCH  13  15
ENDBRANCH   9  13
ENDBRANCH   4   6
BRANCH   5  17
HETATM   17  C   UNK     0     -65.464 -25.335   3.102  0.00  0.00     0.198 C 
BRANCH  17  18
HETATM   18  O   UNK     0     -64.497 -24.335   3.368  0.00  0.00    -0.398 OA
HETATM   19  H   UNK     0     -63.999 -24.620   4.153  0.00  0.00     0.209 HD
ENDBRANCH  17  18
ENDBRANCH   5  17
BRANCH   2  20
HETATM   20  O   UNK     0     -66.314 -24.188  -1.177  0.00  0.00    -0.388 OA
HETATM   21  H   UNK     0     -67.051 -24.610  -1.650  0.00  0.00     0.210 HD
ENDBRANCH   2  20
BRANCH   3  22
HETATM   22  O   UNK     0     -64.117 -25.583  -0.362  0.00  0.00    -0.390 OA
HETATM   23  H   UNK     0     -63.871 -24.921  -1.029  0.00  0.00     0.210 HD
ENDBRANCH   3  22
TORSDOF 7
ENDMDL
MODEL 4
REMARK VINA RESULT:      -6.5      9.404     11.390
REMARK  7 active torsions:
REMARK  status: ('A' for Active; 'I' for Inactive)
REMARK    1  A    between atoms: O_2  and  C_10 
REMARK    2  A    between atoms: O_3  and  C_11 
REMARK    3  A    between atoms: O_4  and  C_14 
REMARK    4  A    between atoms: O_6  and  N_9 
REMARK    5  A    between atoms: N_7  and  C_12 
REMARK    6  A    between atoms: N_9  and  C_18 
REMARK    7  A    between atoms: C_13  and  C_14 
ROOT
HETATM    1  O   UNK     0     -63.413 -34.624   7.105  0.00  0.00    -0.353 OA
HETATM    2  C   UNK     0     -64.237 -34.553   4.885  0.00  0.00     0.198 C 
HETATM    3  C   UNK     0     -64.138 -36.000   5.319  0.00  0.00     0.182 C 
HETATM    4  C   UNK     0     -64.207 -33.822   6.215  0.00  0.00     0.264 C 
HETATM    5  C   UNK     0     -63.181 -35.914   6.500  0.00  0.00     0.179 C 
ENDROOT
BRANCH   4   6
HETATM    6  N   UNK     0     -63.618 -32.518   6.112  0.00  0.00    -0.278 N 
HETATM    7  C   UNK     0     -62.734 -32.268   5.073  0.00  0.00     0.102 A 
HETATM    8  C   UNK     0     -62.143 -31.087   4.899  0.00  0.00     0.070 A 
HETATM    9  C   UNK     0     -62.477 -30.030   5.887  0.00  0.00     0.153 A 
HETATM   10  N   UNK     0     -63.306 -30.249   6.873  0.00  0.00    -0.174 NA
HETATM   11  C   UNK     0     -63.913 -31.483   7.035  0.00  0.00     0.352 A 
HETATM   12  O   UNK     0     -64.695 -31.672   7.969  0.00  0.00    -0.244 OA
BRANCH   9  13
HETATM   13  N   UNK     0     -61.885 -28.795   5.745  0.00  0.00    -0.251 N 
HETATM   14  H   UNK     0     -61.871 -28.222   4.910  0.00  0.00     0.196 HD
BRANCH  13  15
HETATM   15  O   UNK     0     -61.363 -28.304   6.906  0.00  0.00    -0.288 OA
HETATM   16  H   UNK     0     -62.080 -28.479   7.538  0.00  0.00     0.244 HD
ENDBRANCH  13  15
ENDBRANCH   9  13
ENDBRANCH   4   6
BRANCH   5  17
HETATM   17  C   UNK     0     -61.715 -35.989   6.093  0.00  0.00     0.198 C 
BRANCH  17  18
HETATM   18  O   UNK     0     -60.980 -35.062   6.871  0.00  0.00    -0.398 OA
HETATM   19  H   UNK     0     -60.786 -34.299   6.299  0.00  0.00     0.209 HD
ENDBRANCH  17  18
ENDBRANCH   5  17
BRANCH   2  20
HETATM   20  O   UNK     0     -65.415 -34.293   4.149  0.00  0.00    -0.388 OA
HETATM   21  H   UNK     0     -66.166 -34.371   4.761  0.00  0.00     0.210 HD
ENDBRANCH   2  20
BRANCH   3  22
HETATM   22  O   UNK     0     -65.399 -36.458   5.808  0.00  0.00    -0.390 OA
HETATM   23  H   UNK     0     -65.546 -36.093   6.697  0.00  0.00     0.210 HD
ENDBRANCH   3  22
TORSDOF 7
ENDMDL
MODEL 5
REMARK VINA RESULT:      -6.4      3.496      5.857
REMARK  7 active torsions:
REMARK  status: ('A' for Active; 'I' for Inactive)
REMARK    1  A    between atoms: O_2  and  C_10 
REMARK    2  A    between atoms: O_3  and  C_11 
REMARK    3  A    between atoms: O_4  and  C_14 
REMARK    4  A    between atoms: O_6  and  N_9 
REMARK    5  A    between atoms: N_7  and  C_12 
REMARK    6  A    between atoms: N_9  and  C_18 
REMARK    7  A    between atoms: C_13  and  C_14 
ROOT
HETATM    1  O   UNK     0     -62.442 -24.417   2.085  0.00  0.00    -0.353 OA
HETATM    2  C   UNK     0     -62.667 -26.729   1.620  0.00  0.00     0.198 C 
HETATM    3  C   UNK     0     -61.212 -26.343   1.463  0.00  0.00     0.182 C 
HETATM    4  C   UNK     0     -63.212 -25.576   2.443  0.00  0.00     0.264 C 
HETATM    5  C   UNK     0     -61.298 -24.831   1.307  0.00  0.00     0.179 C 
ENDROOT
BRANCH   4   6
HETATM    6  N   UNK     0     -64.598 -25.316   2.174  0.00  0.00    -0.278 N 
HETATM    7  C   UNK     0     -64.969 -24.950   0.890  0.00  0.00     0.102 A 
HETATM    8  C   UNK     0     -66.230 -24.692   0.550  0.00  0.00     0.070 A 
HETATM    9  C   UNK     0     -67.243 -24.815   1.631  0.00  0.00     0.153 A 
HETATM   10  N   UNK     0     -66.910 -25.159   2.847  0.00  0.00    -0.174 NA
HETATM   11  C   UNK     0     -65.593 -25.425   3.179  0.00  0.00     0.352 A 
HETATM   12  O   UNK     0     -65.297 -25.749   4.330  0.00  0.00    -0.244 OA
BRANCH   9  13
HETATM   13  N   UNK     0     -68.559 -24.555   1.322  0.00  0.00    -0.251 N 
HETATM   14  H   UNK     0     -69.373 -24.819   1.864  0.00  0.00     0.196 HD
BRANCH  13  15
HETATM   15  O   UNK     0     -68.714 -23.777   0.212  0.00  0.00    -0.288 OA
HETATM   16  H   UNK     0     -68.748 -22.885   0.595  0.00  0.00     0.244 HD
ENDBRANCH  13  15
ENDBRANCH   9  13
ENDBRANCH   4   6
BRANCH   5  17
HETATM   17  C   UNK     0     -61.518 -24.386  -0.133  0.00  0.00     0.198 C 
BRANCH  17  18
HETATM   18  O   UNK     0     -62.145 -23.116  -0.124  0.00  0.00    -0.398 OA
HETATM   19  H   UNK     0     -61.811 -22.638   0.655  0.00  0.00     0.209 HD
ENDBRANCH  17  18
ENDBRANCH   5  17
BRANCH   2  20
HETATM   20  O   UNK     0     -62.825 -27.978   2.263  0.00  0.00    -0.388 OA
HETATM   21  H   UNK     0     -62.203 -28.002   3.010  0.00  0.00     0.210 HD
ENDBRANCH   2  20
BRANCH   3  22
HETATM   22  O   UNK     0     -60.494 -26.621   2.665  0.00  0.00    -0.390 OA
HETATM   23  H   UNK     0     -60.131 -25.791   3.017  0.00  0.00     0.210 HD
ENDBRANCH   3  22
TORSDOF 7
ENDMDL
MODEL 6
REMARK VINA RESULT:      -6.4      9.382     11.734
REMARK  7 active torsions:
REMARK  status: ('A' for Active; 'I' for Inactive)
REMARK    1  A    between atoms: O_2  and  C_10 
REMARK    2  A    between atoms: O_3  and  C_11 
REMARK    3  A    between atoms: O_4  and  C_14 
REMARK    4  A    between atoms: O_6  and  N_9 
REMARK    5  A    between atoms: N_7  and  C_12 
REMARK    6  A    between atoms: N_9  and  C_18 
REMARK    7  A    between atoms: C_13  and  C_14 
ROOT
HETATM    1  O   UNK     0     -63.173 -34.546   4.128  0.00  0.00    -0.353 OA
HETATM    2  C   UNK     0     -62.256 -35.036   6.257  0.00  0.00     0.198 C 
HETATM    3  C   UNK     0     -62.805 -36.315   5.660  0.00  0.00     0.182 C 
HETATM    4  C   UNK     0     -62.132 -34.145   5.034  0.00  0.00     0.264 C 
HETATM    5  C   UNK     0     -63.750 -35.786   4.589  0.00  0.00     0.179 C 
ENDROOT
BRANCH   4   6
HETATM    6  N   UNK     0     -62.297 -32.755   5.349  0.00  0.00    -0.278 N 
HETATM    7  C   UNK     0     -63.347 -32.380   6.173  0.00  0.00     0.102 A 
HETATM    8  C   UNK     0     -63.575 -31.115   6.519  0.00  0.00     0.070 A 
HETATM    9  C   UNK     0     -62.637 -30.101   5.970  0.00  0.00     0.153 A 
HETATM   10  N   UNK     0     -61.643 -30.438   5.191  0.00  0.00    -0.174 NA
HETATM   11  C   UNK     0     -61.422 -31.760   4.844  0.00  0.00     0.352 A 
HETATM   12  O   UNK     0     -60.479 -32.059   4.111  0.00  0.00    -0.244 OA
BRANCH   9  13
HETATM   13  N   UNK     0     -62.839 -28.781   6.301  0.00  0.00    -0.251 N 
HETATM   14  H   UNK     0     -63.726 -28.291   6.331  0.00  0.00     0.196 HD
BRANCH  13  15
HETATM   15  O   UNK     0     -61.706 -28.144   6.715  0.00  0.00    -0.288 OA
HETATM   16  H   UNK     0     -61.112 -28.277   5.958  0.00  0.00     0.244 HD
ENDBRANCH  13  15
ENDBRANCH   9  13
ENDBRANCH   4   6
BRANCH   5  17
HETATM   17  C   UNK     0     -65.149 -35.491   5.114  0.00  0.00     0.198 C 
BRANCH  17  18
HETATM   18  O   UNK     0     -65.671 -36.670   5.699  0.00  0.00    -0.398 OA
HETATM   19  H   UNK     0     -66.588 -36.762   5.389  0.00  0.00     0.209 HD
ENDBRANCH  17  18
ENDBRANCH   5  17
BRANCH   2  20
HETATM   20  O   UNK     0     -61.019 -35.238   6.911  0.00  0.00    -0.388 OA
HETATM   21  H   UNK     0     -60.485 -34.437   6.778  0.00  0.00     0.210 HD
ENDBRANCH   2  20
BRANCH   3  22
HETATM   22  O   UNK     0     -61.765 -37.043   5.007  0.00  0.00    -0.390 OA
HETATM   23  H   UNK     0     -61.045 -37.204   5.640  0.00  0.00     0.210 HD
ENDBRANCH   3  22
TORSDOF 7
ENDMDL
MODEL 7
REMARK VINA RESULT:      -6.3     16.068     18.761
REMARK  7 active torsions:
REMARK  status: ('A' for Active; 'I' for Inactive)
REMARK    1  A    between atoms: O_2  and  C_10 
REMARK    2  A    between atoms: O_3  and  C_11 
REMARK    3  A    between atoms: O_4  and  C_14 
REMARK    4  A    between atoms: O_6  and  N_9 
REMARK    5  A    between atoms: N_7  and  C_12 
REMARK    6  A    between atoms: N_9  and  C_18 
REMARK    7  A    between atoms: C_13  and  C_14 
ROOT
HETATM    1  O   UNK     0     -56.165 -21.898  -8.164  0.00  0.00    -0.353 OA
HETATM    2  C   UNK     0     -55.018 -23.529  -6.883  0.00  0.00     0.198 C 
HETATM    3  C   UNK     0     -55.799 -22.635  -5.942  0.00  0.00     0.182 C 
HETATM    4  C   UNK     0     -55.698 -23.256  -8.213  0.00  0.00     0.264 C 
HETATM    5  C   UNK     0     -56.059 -21.410  -6.809  0.00  0.00     0.179 C 
ENDROOT
BRANCH   4   6
HETATM    6  N   UNK     0     -54.803 -23.401  -9.326  0.00  0.00    -0.278 N 
HETATM    7  C   UNK     0     -54.222 -22.264  -9.865  0.00  0.00     0.102 A 
HETATM    8  C   UNK     0     -53.380 -22.305 -10.895  0.00  0.00     0.070 A 
HETATM    9  C   UNK     0     -53.086 -23.650 -11.455  0.00  0.00     0.153 A 
HETATM   10  N   UNK     0     -53.627 -24.732 -10.959  0.00  0.00    -0.174 NA
HETATM   11  C   UNK     0     -54.498 -24.668  -9.886  0.00  0.00     0.352 A 
HETATM   12  O   UNK     0     -54.997 -25.698  -9.430  0.00  0.00    -0.244 OA
BRANCH   9  13
HETATM   13  N   UNK     0     -52.222 -23.736 -12.523  0.00  0.00    -0.251 N 
HETATM   14  H   UNK     0     -52.160 -24.492 -13.194  0.00  0.00     0.196 HD
BRANCH  13  15
HETATM   15  O   UNK     0     -51.464 -22.615 -12.701  0.00  0.00    -0.288 OA
HETATM   16  H   UNK     0     -51.923 -22.177 -13.436  0.00  0.00     0.244 HD
ENDBRANCH  13  15
ENDBRANCH   9  13
ENDBRANCH   4   6
BRANCH   5  17
HETATM   17  C   UNK     0     -54.930 -20.388  -6.761  0.00  0.00     0.198 C 
BRANCH  17  18
HETATM   18  O   UNK     0     -55.255 -19.400  -5.800  0.00  0.00    -0.398 OA
HETATM   19  H   UNK     0     -55.725 -19.848  -5.076  0.00  0.00     0.209 HD
ENDBRANCH  17  18
ENDBRANCH   5  17
BRANCH   2  20
HETATM   20  O   UNK     0     -55.084 -24.890  -6.508  0.00  0.00    -0.388 OA
HETATM   21  H   UNK     0     -55.645 -25.345  -7.158  0.00  0.00     0.210 HD
ENDBRANCH   2  20
BRANCH   3  22
HETATM   22  O   UNK     0     -57.059 -23.227  -5.629  0.00  0.00    -0.390 OA
HETATM   23  H   UNK     0     -56.937 -24.182  -5.496  0.00  0.00     0.210 HD
ENDBRANCH   3  22
TORSDOF 7
ENDMDL
MODEL 8
REMARK VINA RESULT:      -6.2     15.809     17.279
REMARK  7 active torsions:
REMARK  status: ('A' for Active; 'I' for Inactive)
REMARK    1  A    between atoms: O_2  and  C_10 
REMARK    2  A    between atoms: O_3  and  C_11 
REMARK    3  A    between atoms: O_4  and  C_14 
REMARK    4  A    between atoms: O_6  and  N_9 
REMARK    5  A    between atoms: N_7  and  C_12 
REMARK    6  A    between atoms: N_9  and  C_18 
REMARK    7  A    between atoms: C_13  and  C_14 
ROOT
HETATM    1  O   UNK     0     -73.766 -12.411   9.738  0.00  0.00    -0.353 OA
HETATM    2  C   UNK     0     -73.230 -10.955   7.947  0.00  0.00     0.198 C 
HETATM    3  C   UNK     0     -74.566 -11.607   7.658  0.00  0.00     0.182 C 
HETATM    4  C   UNK     0     -73.086 -11.180   9.442  0.00  0.00     0.264 C 
HETATM    5  C   UNK     0     -74.539 -12.813   8.587  0.00  0.00     0.179 C 
ENDROOT
BRANCH   4   6
HETATM    6  N   UNK     0     -71.715 -11.295   9.850  0.00  0.00    -0.278 N 
HETATM    7  C   UNK     0     -71.128 -12.551   9.863  0.00  0.00     0.102 A 
HETATM    8  C   UNK     0     -69.862 -12.751  10.226  0.00  0.00     0.070 A 
HETATM    9  C   UNK     0     -69.092 -11.545  10.624  0.00  0.00     0.153 A 
HETATM   10  N   UNK     0     -69.630 -10.354  10.618  0.00  0.00    -0.174 NA
HETATM   11  C   UNK     0     -70.947 -10.167  10.235  0.00  0.00     0.352 A 
HETATM   12  O   UNK     0     -71.438  -9.037  10.233  0.00  0.00    -0.244 OA
BRANCH   9  13
HETATM   13  N   UNK     0     -67.780 -11.708  11.008  0.00  0.00    -0.251 N 
HETATM   14  H   UNK     0     -67.335 -11.318  11.830  0.00  0.00     0.196 HD
BRANCH  13  15
HETATM   15  O   UNK     0     -67.084 -12.573  10.214  0.00  0.00    -0.288 OA
HETATM   16  H   UNK     0     -66.993 -13.348  10.792  0.00  0.00     0.244 HD
ENDBRANCH  13  15
ENDBRANCH   9  13
ENDBRANCH   4   6
BRANCH   5  17
HETATM   17  C   UNK     0     -73.868 -14.033   7.968  0.00  0.00     0.198 C 
BRANCH  17  18
HETATM   18  O   UNK     0     -74.198 -14.081   6.592  0.00  0.00    -0.398 OA
HETATM   19  H   UNK     0     -74.873 -14.773   6.483  0.00  0.00     0.209 HD
ENDBRANCH  17  18
ENDBRANCH   5  17
BRANCH   2  20
HETATM   20  O   UNK     0     -73.215  -9.585   7.600  0.00  0.00    -0.388 OA
HETATM   21  H   UNK     0     -73.654  -9.498   6.738  0.00  0.00     0.210 HD
ENDBRANCH   2  20
BRANCH   3  22
HETATM   22  O   UNK     0     -75.633 -10.754   8.076  0.00  0.00    -0.390 OA
HETATM   23  H   UNK     0     -75.284  -9.861   8.227  0.00  0.00     0.210 HD
ENDBRANCH   3  22
TORSDOF 7
ENDMDL
MODEL 9
REMARK VINA RESULT:      -6.1     18.773     20.052
REMARK  7 active torsions:
REMARK  status: ('A' for Active; 'I' for Inactive)
REMARK    1  A    between atoms: O_2  and  C_10 
REMARK    2  A    between atoms: O_3  and  C_11 
REMARK    3  A    between atoms: O_4  and  C_14 
REMARK    4  A    between atoms: O_6  and  N_9 
REMARK    5  A    between atoms: N_7  and  C_12 
REMARK    6  A    between atoms: N_9  and  C_18 
REMARK    7  A    between atoms: C_13  and  C_14 
ROOT
HETATM    1  O   UNK     0     -69.412  -9.009  14.834  0.00  0.00    -0.353 OA
HETATM    2  C   UNK     0     -69.056 -11.104  15.882  0.00  0.00     0.198 C 
HETATM    3  C   UNK     0     -69.094 -10.029  16.948  0.00  0.00     0.182 C 
HETATM    4  C   UNK     0     -69.720 -10.407  14.708  0.00  0.00     0.264 C 
HETATM    5  C   UNK     0     -68.839  -8.766  16.137  0.00  0.00     0.179 C 
ENDROOT
BRANCH   4   6
HETATM    6  N   UNK     0     -69.233 -10.879  13.443  0.00  0.00    -0.278 N 
HETATM    7  C   UNK     0     -68.298 -10.115  12.763  0.00  0.00     0.102 A 
HETATM    8  C   UNK     0     -67.791 -10.476  11.586  0.00  0.00     0.070 A 
HETATM    9  C   UNK     0     -68.283 -11.760  11.022  0.00  0.00     0.153 A 
HETATM   10  N   UNK     0     -69.164 -12.492  11.650  0.00  0.00    -0.174 NA
HETATM   11  C   UNK     0     -69.678 -12.100  12.874  0.00  0.00     0.352 A 
HETATM   12  O   UNK     0     -70.506 -12.804  13.454  0.00  0.00    -0.244 OA
BRANCH   9  13
HETATM   13  N   UNK     0     -67.786 -12.169   9.805  0.00  0.00    -0.251 N 
HETATM   14  H   UNK     0     -68.213 -12.030   8.897  0.00  0.00     0.196 HD
BRANCH  13  15
HETATM   15  O   UNK     0     -66.543 -12.727   9.885  0.00  0.00    -0.288 OA
HETATM   16  H   UNK     0     -66.647 -13.530   9.348  0.00  0.00     0.244 HD
ENDBRANCH  13  15
ENDBRANCH   9  13
ENDBRANCH   4   6
BRANCH   5  17
HETATM   17  C   UNK     0     -67.359  -8.458  15.953  0.00  0.00     0.198 C 
BRANCH  17  18
HETATM   18  O   UNK     0     -66.868  -7.866  17.142  0.00  0.00    -0.398 OA
HETATM   19  H   UNK     0     -66.060  -8.348  17.389  0.00  0.00     0.209 HD
ENDBRANCH  17  18
ENDBRANCH   5  17
BRANCH   2  20
HETATM   20  O   UNK     0     -69.740 -12.275  16.277  0.00  0.00    -0.388 OA
HETATM   21  H   UNK     0     -70.256 -12.059  17.072  0.00  0.00     0.210 HD
ENDBRANCH   2  20
BRANCH   3  22
HETATM   22  O   UNK     0     -70.404  -9.934  17.508  0.00  0.00    -0.390 OA
HETATM   23  H   UNK     0     -70.389  -9.301  18.245  0.00  0.00     0.210 HD
ENDBRANCH   3  22
TORSDOF 7
ENDMDL
MODEL 10
REMARK VINA RESULT:      -6.1      6.872      9.733
REMARK  7 active torsions:
REMARK  status: ('A' for Active; 'I' for Inactive)
REMARK    1  A    between atoms: O_2  and  C_10 
REMARK    2  A    between atoms: O_3  and  C_11 
REMARK    3  A    between atoms: O_4  and  C_14 
REMARK    4  A    between atoms: O_6  and  N_9 
REMARK    5  A    between atoms: N_7  and  C_12 
REMARK    6  A    between atoms: N_9  and  C_18 
REMARK    7  A    between atoms: C_13  and  C_14 
ROOT
HETATM    1  O   UNK     0     -63.069 -32.304   5.268  0.00  0.00    -0.353 OA
HETATM    2  C   UNK     0     -63.867 -31.466   7.335  0.00  0.00     0.198 C 
HETATM    3  C   UNK     0     -63.993 -32.975   7.343  0.00  0.00     0.182 C 
HETATM    4  C   UNK     0     -62.871 -31.239   6.212  0.00  0.00     0.264 C 
HETATM    5  C   UNK     0     -63.921 -33.308   5.859  0.00  0.00     0.179 C 
ENDROOT
BRANCH   4   6
HETATM    6  N   UNK     0     -63.071 -29.983   5.548  0.00  0.00    -0.278 N 
HETATM    7  C   UNK     0     -63.965 -29.925   4.489  0.00  0.00     0.102 A 
HETATM    8  C   UNK     0     -64.214 -28.804   3.817  0.00  0.00     0.070 A 
HETATM    9  C   UNK     0     -63.476 -27.592   4.258  0.00  0.00     0.153 A 
HETATM   10  N   UNK     0     -62.630 -27.629   5.253  0.00  0.00    -0.174 NA
HETATM   11  C   UNK     0     -62.386 -28.805   5.942  0.00  0.00     0.352 A 
HETATM   12  O   UNK     0     -61.587 -28.822   6.879  0.00  0.00    -0.244 OA
BRANCH   9  13
HETATM   13  N   UNK     0     -63.703 -26.411   3.588  0.00  0.00    -0.251 N 
HETATM   14  H   UNK     0     -64.601 -26.032   3.314  0.00  0.00     0.196 HD
BRANCH  13  15
HETATM   15  O   UNK     0     -62.572 -25.675   3.385  0.00  0.00    -0.288 OA
HETATM   16  H   UNK     0     -62.910 -24.929   2.861  0.00  0.00     0.244 HD
ENDBRANCH  13  15
ENDBRANCH   9  13
ENDBRANCH   4   6
BRANCH   5  17
HETATM   17  C   UNK     0     -65.275 -33.249   5.162  0.00  0.00     0.198 C 
BRANCH  17  18
HETATM   18  O   UNK     0     -65.078 -33.447   3.774  0.00  0.00    -0.398 OA
HETATM   19  H   UNK     0     -64.600 -32.669   3.439  0.00  0.00     0.209 HD
ENDBRANCH  17  18
ENDBRANCH   5  17
BRANCH   2  20
HETATM   20  O   UNK     0     -63.414 -30.960   8.575  0.00  0.00    -0.388 OA
HETATM   21  H   UNK     0     -62.465 -30.771   8.484  0.00  0.00     0.210 HD
ENDBRANCH   2  20
BRANCH   3  22
HETATM   22  O   UNK     0     -62.860 -33.564   7.981  0.00  0.00    -0.390 OA
HETATM   23  H   UNK     0     -62.425 -32.895   8.535  0.00  0.00     0.210 HD
ENDBRANCH   3  22
TORSDOF 7
ENDMDL
