MODEL 1
REMARK VINA RESULT:      -7.5      0.000      0.000
REMARK  4 active torsions:
REMARK  status: ('A' for Active; 'I' for Inactive)
REMARK    1  A    between atoms: O_2  and  C_9 
REMARK    2  A    between atoms: O_3  and  C_11 
REMARK    3  A    between atoms: O_4  and  C_14 
REMARK    4  A    between atoms: C_8  and  C_13 
ROOT
HETATM    1  O   UNK     0     -60.881 -22.804   0.454  0.00  0.00    -0.306 OA
HETATM    2  O   UNK     0     -61.036 -25.692  -2.416  0.00  0.00    -0.287 OA
HETATM    3  C   UNK     0     -60.996 -25.163  -0.113  0.00  0.00     0.084 A 
HETATM    4  C   UNK     0     -60.942 -24.127   0.817  0.00  0.00     0.129 A 
HETATM    5  C   UNK     0     -60.865 -22.490  -0.896  0.00  0.00     0.090 A 
HETATM    6  C   UNK     0     -60.951 -24.412   2.182  0.00  0.00     0.136 A 
HETATM    7  C   UNK     0     -60.988 -24.833  -1.546  0.00  0.00     0.190 A 
HETATM    8  C   UNK     0     -61.058 -26.492   0.313  0.00  0.00     0.085 A 
HETATM    9  C   UNK     0     -60.919 -23.397  -1.883  0.00  0.00     0.094 A 
HETATM   10  C   UNK     0     -61.013 -25.738   2.613  0.00  0.00     0.104 A 
HETATM   11  C   UNK     0     -61.066 -26.776   1.680  0.00  0.00     0.077 A 
ENDROOT
BRANCH   5  12
HETATM   12  C   UNK     0     -60.803 -21.040  -1.174  0.00  0.00    -0.002 A 
HETATM   13  C   UNK     0     -61.975 -20.281  -1.204  0.00  0.00     0.014 A 
HETATM   14  C   UNK     0     -61.918 -18.913  -1.465  0.00  0.00     0.001 A 
HETATM   15  C   UNK     0     -60.688 -18.299  -1.698  0.00  0.00     0.000 A 
HETATM   16  C   UNK     0     -59.515 -19.053  -1.669  0.00  0.00     0.001 A 
HETATM   17  C   UNK     0     -59.573 -20.422  -1.408  0.00  0.00     0.014 A 
ENDBRANCH   5  12
BRANCH   6  18
HETATM   18  O   UNK     0     -60.899 -23.403   3.098  0.00  0.00    -0.351 OA
HETATM   19  C   UNK     0     -59.605 -22.968   3.508  0.00  0.00     0.210 C 
ENDBRANCH   6  18
BRANCH   8  20
HETATM   20  O   UNK     0     -61.113 -27.539  -0.554  0.00  0.00    -0.360 OA
HETATM   21  H   UNK     0     -60.736 -28.336  -0.151  0.00  0.00     0.217 HD
ENDBRANCH   8  20
BRANCH  10  22
HETATM   22  O   UNK     0     -61.021 -26.034   3.942  0.00  0.00    -0.358 OA
HETATM   23  H   UNK     0     -60.538 -26.867   4.085  0.00  0.00     0.217 HD
ENDBRANCH  10  22
TORSDOF 4
ENDMDL
MODEL 2
REMARK VINA RESULT:      -7.4      1.634      3.627
REMARK  4 active torsions:
REMARK  status: ('A' for Active; 'I' for Inactive)
REMARK    1  A    between atoms: O_2  and  C_9 
REMARK    2  A    between atoms: O_3  and  C_11 
REMARK    3  A    between atoms: O_4  and  C_14 
REMARK    4  A    between atoms: C_8  and  C_13 
ROOT
HETATM    1  O   UNK     0     -61.589 -22.076  -1.306  0.00  0.00    -0.306 OA
HETATM    2  O   UNK     0     -58.947 -21.572   1.755  0.00  0.00    -0.287 OA
HETATM    3  C   UNK     0     -60.253 -23.062   0.467  0.00  0.00     0.084 A 
HETATM    4  C   UNK     0     -61.154 -23.164  -0.591  0.00  0.00     0.129 A 
HETATM    5  C   UNK     0     -61.116 -20.822  -0.951  0.00  0.00     0.090 A 
HETATM    6  C   UNK     0     -61.652 -24.412  -0.966  0.00  0.00     0.136 A 
HETATM    7  C   UNK     0     -59.742 -21.735   0.839  0.00  0.00     0.190 A 
HETATM    8  C   UNK     0     -59.843 -24.204   1.159  0.00  0.00     0.085 A 
HETATM    9  C   UNK     0     -60.242 -20.597   0.042  0.00  0.00     0.094 A 
HETATM   10  C   UNK     0     -61.246 -25.556  -0.278  0.00  0.00     0.104 A 
HETATM   11  C   UNK     0     -60.343 -25.452   0.783  0.00  0.00     0.077 A 
ENDROOT
BRANCH   5  12
HETATM   12  C   UNK     0     -61.643 -19.724  -1.788  0.00  0.00    -0.002 A 
HETATM   13  C   UNK     0     -62.584 -19.991  -2.785  0.00  0.00     0.014 A 
HETATM   14  C   UNK     0     -63.083 -18.955  -3.574  0.00  0.00     0.001 A 
HETATM   15  C   UNK     0     -62.642 -17.648  -3.368  0.00  0.00     0.000 A 
HETATM   16  C   UNK     0     -61.703 -17.376  -2.373  0.00  0.00     0.001 A 
HETATM   17  C   UNK     0     -61.204 -18.413  -1.584  0.00  0.00     0.014 A 
ENDBRANCH   5  12
BRANCH   6  18
HETATM   18  O   UNK     0     -62.533 -24.520  -2.001  0.00  0.00    -0.351 OA
HETATM   19  C   UNK     0     -61.987 -24.789  -3.291  0.00  0.00     0.210 C 
ENDBRANCH   6  18
BRANCH   8  20
HETATM   20  O   UNK     0     -58.965 -24.158   2.198  0.00  0.00    -0.360 OA
HETATM   21  H   UNK     0     -58.718 -23.242   2.394  0.00  0.00     0.217 HD
ENDBRANCH   8  20
BRANCH  10  22
HETATM   22  O   UNK     0     -61.723 -26.782  -0.630  0.00  0.00    -0.358 OA
HETATM   23  H   UNK     0     -61.967 -27.271   0.175  0.00  0.00     0.217 HD
ENDBRANCH  10  22
TORSDOF 4
ENDMDL
MODEL 3
REMARK VINA RESULT:      -7.3      3.024      7.012
REMARK  4 active torsions:
REMARK  status: ('A' for Active; 'I' for Inactive)
REMARK    1  A    between atoms: O_2  and  C_9 
REMARK    2  A    between atoms: O_3  and  C_11 
REMARK    3  A    between atoms: O_4  and  C_14 
REMARK    4  A    between atoms: C_8  and  C_13 
ROOT
HETATM    1  O   UNK     0     -59.172 -23.556  -1.545  0.00  0.00    -0.306 OA
HETATM    2  O   UNK     0     -58.225 -20.506   0.985  0.00  0.00    -0.287 OA
HETATM    3  C   UNK     0     -58.994 -21.166  -1.150  0.00  0.00     0.084 A 
HETATM    4  C   UNK     0     -59.302 -22.255  -1.963  0.00  0.00     0.129 A 
HETATM    5  C   UNK     0     -58.708 -23.793  -0.260  0.00  0.00     0.090 A 
HETATM    6  C   UNK     0     -59.766 -22.048  -3.262  0.00  0.00     0.136 A 
HETATM    7  C   UNK     0     -58.511 -21.414   0.216  0.00  0.00     0.190 A 
HETATM    8  C   UNK     0     -59.147 -19.862  -1.628  0.00  0.00     0.085 A 
HETATM    9  C   UNK     0     -58.386 -22.830   0.617  0.00  0.00     0.094 A 
HETATM   10  C   UNK     0     -59.919 -20.747  -3.744  0.00  0.00     0.104 A 
HETATM   11  C   UNK     0     -59.610 -19.657  -2.928  0.00  0.00     0.077 A 
ENDROOT
BRANCH   5  12
HETATM   12  C   UNK     0     -58.611 -25.226   0.088  0.00  0.00    -0.002 A 
HETATM   13  C   UNK     0     -58.932 -26.201  -0.859  0.00  0.00     0.014 A 
HETATM   14  C   UNK     0     -58.841 -27.553  -0.532  0.00  0.00     0.001 A 
HETATM   15  C   UNK     0     -58.428 -27.935   0.745  0.00  0.00     0.000 A 
HETATM   16  C   UNK     0     -58.107 -26.965   1.694  0.00  0.00     0.001 A 
HETATM   17  C   UNK     0     -58.198 -25.612   1.366  0.00  0.00     0.014 A 
ENDBRANCH   5  12
BRANCH   6  18
HETATM   18  O   UNK     0     -60.069 -23.108  -4.063  0.00  0.00    -0.351 OA
HETATM   19  C   UNK     0     -61.397 -23.622  -3.981  0.00  0.00     0.210 C 
ENDBRANCH   6  18
BRANCH   8  20
HETATM   20  O   UNK     0     -58.861 -18.766  -0.873  0.00  0.00    -0.360 OA
HETATM   21  H   UNK     0     -58.496 -19.029  -0.015  0.00  0.00     0.217 HD
ENDBRANCH   8  20
BRANCH  10  22
HETATM   22  O   UNK     0     -60.370 -20.527  -5.010  0.00  0.00    -0.358 OA
HETATM   23  H   UNK     0     -60.808 -19.659  -5.045  0.00  0.00     0.217 HD
ENDBRANCH  10  22
TORSDOF 4
ENDMDL
MODEL 4
REMARK VINA RESULT:      -7.3      3.915      7.519
REMARK  4 active torsions:
REMARK  status: ('A' for Active; 'I' for Inactive)
REMARK    1  A    between atoms: O_2  and  C_9 
REMARK    2  A    between atoms: O_3  and  C_11 
REMARK    3  A    between atoms: O_4  and  C_14 
REMARK    4  A    between atoms: C_8  and  C_13 
ROOT
HETATM    1  O   UNK     0     -58.035 -21.466  -2.180  0.00  0.00    -0.306 OA
HETATM    2  O   UNK     0     -61.549 -19.405  -2.145  0.00  0.00    -0.287 OA
HETATM    3  C   UNK     0     -59.370 -19.625  -3.033  0.00  0.00     0.084 A 
HETATM    4  C   UNK     0     -58.196 -20.374  -2.996  0.00  0.00     0.129 A 
HETATM    5  C   UNK     0     -59.085 -21.831  -1.351  0.00  0.00     0.090 A 
HETATM    6  C   UNK     0     -57.120 -20.028  -3.814  0.00  0.00     0.136 A 
HETATM    7  C   UNK     0     -60.489 -20.015  -2.163  0.00  0.00     0.190 A 
HETATM    8  C   UNK     0     -59.479 -18.524  -3.885  0.00  0.00     0.085 A 
HETATM    9  C   UNK     0     -60.265 -21.194  -1.301  0.00  0.00     0.094 A 
HETATM   10  C   UNK     0     -57.224 -18.928  -4.667  0.00  0.00     0.104 A 
HETATM   11  C   UNK     0     -58.401 -18.178  -4.702  0.00  0.00     0.077 A 
ENDROOT
BRANCH   5  12
HETATM   12  C   UNK     0     -58.808 -23.020  -0.520  0.00  0.00    -0.002 A 
HETATM   13  C   UNK     0     -59.294 -23.092   0.788  0.00  0.00     0.014 A 
HETATM   14  C   UNK     0     -59.033 -24.214   1.573  0.00  0.00     0.001 A 
HETATM   15  C   UNK     0     -58.284 -25.270   1.052  0.00  0.00     0.000 A 
HETATM   16  C   UNK     0     -57.797 -25.203  -0.253  0.00  0.00     0.001 A 
HETATM   17  C   UNK     0     -58.059 -24.080  -1.038  0.00  0.00     0.014 A 
ENDBRANCH   5  12
BRANCH   6  18
HETATM   18  O   UNK     0     -55.968 -20.756  -3.784  0.00  0.00    -0.351 OA
HETATM   19  C   UNK     0     -55.856 -21.828  -4.718  0.00  0.00     0.210 C 
ENDBRANCH   6  18
BRANCH   8  20
HETATM   20  O   UNK     0     -60.604 -17.761  -3.958  0.00  0.00    -0.360 OA
HETATM   21  H   UNK     0     -61.372 -18.255  -3.636  0.00  0.00     0.217 HD
ENDBRANCH   8  20
BRANCH  10  22
HETATM   22  O   UNK     0     -56.183 -18.575  -5.470  0.00  0.00    -0.358 OA
HETATM   23  H   UNK     0     -56.189 -19.139  -6.264  0.00  0.00     0.217 HD
ENDBRANCH  10  22
TORSDOF 4
ENDMDL
MODEL 5
REMARK VINA RESULT:      -7.3      1.712      2.390
REMARK  4 active torsions:
REMARK  status: ('A' for Active; 'I' for Inactive)
REMARK    1  A    between atoms: O_2  and  C_9 
REMARK    2  A    between atoms: O_3  and  C_11 
REMARK    3  A    between atoms: O_4  and  C_14 
REMARK    4  A    between atoms: C_8  and  C_13 
ROOT
HETATM    1  O   UNK     0     -61.111 -21.342  -0.928  0.00  0.00    -0.306 OA
HETATM    2  O   UNK     0     -62.828 -24.377  -3.035  0.00  0.00    -0.287 OA
HETATM    3  C   UNK     0     -61.482 -23.727  -1.205  0.00  0.00     0.084 A 
HETATM    4  C   UNK     0     -60.925 -22.642  -0.530  0.00  0.00     0.129 A 
HETATM    5  C   UNK     0     -61.880 -21.101  -2.057  0.00  0.00     0.090 A 
HETATM    6  C   UNK     0     -60.142 -22.854   0.605  0.00  0.00     0.136 A 
HETATM    7  C   UNK     0     -62.306 -23.474  -2.396  0.00  0.00     0.190 A 
HETATM    8  C   UNK     0     -61.261 -25.029  -0.753  0.00  0.00     0.085 A 
HETATM    9  C   UNK     0     -62.473 -22.059  -2.785  0.00  0.00     0.094 A 
HETATM   10  C   UNK     0     -59.917 -24.154   1.060  0.00  0.00     0.104 A 
HETATM   11  C   UNK     0     -60.476 -25.239   0.382  0.00  0.00     0.077 A 
ENDROOT
BRANCH   5  12
HETATM   12  C   UNK     0     -62.019 -19.669  -2.393  0.00  0.00    -0.002 A 
HETATM   13  C   UNK     0     -62.902 -19.267  -3.397  0.00  0.00     0.014 A 
HETATM   14  C   UNK     0     -63.035 -17.916  -3.715  0.00  0.00     0.001 A 
HETATM   15  C   UNK     0     -62.284 -16.961  -3.028  0.00  0.00     0.000 A 
HETATM   16  C   UNK     0     -61.400 -17.359  -2.025  0.00  0.00     0.001 A 
HETATM   17  C   UNK     0     -61.268 -18.711  -1.707  0.00  0.00     0.014 A 
ENDBRANCH   5  12
BRANCH   6  18
HETATM   18  O   UNK     0     -59.594 -21.798   1.271  0.00  0.00    -0.351 OA
HETATM   19  C   UNK     0     -58.436 -21.199   0.693  0.00  0.00     0.210 C 
ENDBRANCH   6  18
BRANCH   8  20
HETATM   20  O   UNK     0     -61.783 -26.121  -1.376  0.00  0.00    -0.360 OA
HETATM   21  H   UNK     0     -62.720 -25.981  -1.579  0.00  0.00     0.217 HD
ENDBRANCH   8  20
BRANCH  10  22
HETATM   22  O   UNK     0     -59.154 -24.378   2.165  0.00  0.00    -0.358 OA
HETATM   23  H   UNK     0     -59.689 -24.843   2.832  0.00  0.00     0.217 HD
ENDBRANCH  10  22
TORSDOF 4
ENDMDL
MODEL 6
REMARK VINA RESULT:      -7.2     18.660     20.836
REMARK  4 active torsions:
REMARK  status: ('A' for Active; 'I' for Inactive)
REMARK    1  A    between atoms: O_2  and  C_9 
REMARK    2  A    between atoms: O_3  and  C_11 
REMARK    3  A    between atoms: O_4  and  C_14 
REMARK    4  A    between atoms: C_8  and  C_13 
ROOT
HETATM    1  O   UNK     0     -69.143 -10.562  14.150  0.00  0.00    -0.306 OA
HETATM    2  O   UNK     0     -69.827 -13.153  11.081  0.00  0.00    -0.287 OA
HETATM    3  C   UNK     0     -68.548 -11.358  11.933  0.00  0.00     0.084 A 
HETATM    4  C   UNK     0     -68.367 -10.503  13.019  0.00  0.00     0.129 A 
HETATM    5  C   UNK     0     -70.155 -11.508  14.208  0.00  0.00     0.090 A 
HETATM    6  C   UNK     0     -67.361  -9.537  12.987  0.00  0.00     0.136 A 
HETATM    7  C   UNK     0     -69.614 -12.369  11.996  0.00  0.00     0.190 A 
HETATM    8  C   UNK     0     -67.728 -11.254  10.808  0.00  0.00     0.085 A 
HETATM    9  C   UNK     0     -70.422 -12.389  13.232  0.00  0.00     0.094 A 
HETATM   10  C   UNK     0     -66.539  -9.429  11.864  0.00  0.00     0.104 A 
HETATM   11  C   UNK     0     -66.723 -10.286  10.777  0.00  0.00     0.077 A 
ENDROOT
BRANCH   5  12
HETATM   12  C   UNK     0     -70.923 -11.488  15.469  0.00  0.00    -0.002 A 
HETATM   13  C   UNK     0     -70.614 -10.558  16.465  0.00  0.00     0.014 A 
HETATM   14  C   UNK     0     -71.339 -10.538  17.655  0.00  0.00     0.001 A 
HETATM   15  C   UNK     0     -72.378 -11.447  17.854  0.00  0.00     0.000 A 
HETATM   16  C   UNK     0     -72.690 -12.377  16.863  0.00  0.00     0.001 A 
HETATM   17  C   UNK     0     -71.964 -12.397  15.672  0.00  0.00     0.014 A 
ENDBRANCH   5  12
BRANCH   6  18
HETATM   18  O   UNK     0     -67.178  -8.698  14.045  0.00  0.00    -0.351 OA
HETATM   19  C   UNK     0     -67.840  -7.436  13.992  0.00  0.00     0.210 C 
ENDBRANCH   6  18
BRANCH   8  20
HETATM   20  O   UNK     0     -67.864 -12.065   9.723  0.00  0.00    -0.360 OA
HETATM   21  H   UNK     0     -68.715 -12.527   9.748  0.00  0.00     0.217 HD
ENDBRANCH   8  20
BRANCH  10  22
HETATM   22  O   UNK     0     -65.554  -8.491  11.816  0.00  0.00    -0.358 OA
HETATM   23  H   UNK     0     -65.878  -7.668  12.223  0.00  0.00     0.217 HD
ENDBRANCH  10  22
TORSDOF 4
ENDMDL
MODEL 7
REMARK VINA RESULT:      -7.2      2.440      6.031
REMARK  4 active torsions:
REMARK  status: ('A' for Active; 'I' for Inactive)
REMARK    1  A    between atoms: O_2  and  C_9 
REMARK    2  A    between atoms: O_3  and  C_11 
REMARK    3  A    between atoms: O_4  and  C_14 
REMARK    4  A    between atoms: C_8  and  C_13 
ROOT
HETATM    1  O   UNK     0     -59.605 -23.408  -0.601  0.00  0.00    -0.306 OA
HETATM    2  O   UNK     0     -63.144 -23.819  -2.577  0.00  0.00    -0.287 OA
HETATM    3  C   UNK     0     -61.435 -22.374  -1.819  0.00  0.00     0.084 A 
HETATM    4  C   UNK     0     -60.224 -22.305  -1.132  0.00  0.00     0.129 A 
HETATM    5  C   UNK     0     -60.218 -24.643  -0.748  0.00  0.00     0.090 A 
HETATM    6  C   UNK     0     -59.587 -21.075  -0.963  0.00  0.00     0.136 A 
HETATM    7  C   UNK     0     -62.082 -23.684  -1.984  0.00  0.00     0.190 A 
HETATM    8  C   UNK     0     -62.019 -21.218  -2.340  0.00  0.00     0.085 A 
HETATM    9  C   UNK     0     -61.378 -24.839  -1.392  0.00  0.00     0.094 A 
HETATM   10  C   UNK     0     -60.167 -19.916  -1.482  0.00  0.00     0.104 A 
HETATM   11  C   UNK     0     -61.381 -19.988  -2.169  0.00  0.00     0.077 A 
ENDROOT
BRANCH   5  12
HETATM   12  C   UNK     0     -59.465 -25.762  -0.144  0.00  0.00    -0.002 A 
HETATM   13  C   UNK     0     -59.249 -26.936  -0.869  0.00  0.00     0.014 A 
HETATM   14  C   UNK     0     -58.539 -27.991  -0.300  0.00  0.00     0.001 A 
HETATM   15  C   UNK     0     -58.040 -27.877   0.998  0.00  0.00     0.000 A 
HETATM   16  C   UNK     0     -58.252 -26.706   1.726  0.00  0.00     0.001 A 
HETATM   17  C   UNK     0     -58.964 -25.650   1.156  0.00  0.00     0.014 A 
ENDBRANCH   5  12
BRANCH   6  18
HETATM   18  O   UNK     0     -58.402 -20.999  -0.294  0.00  0.00    -0.351 OA
HETATM   19  C   UNK     0     -58.468 -20.838   1.122  0.00  0.00     0.210 C 
ENDBRANCH   6  18
BRANCH   8  20
HETATM   20  O   UNK     0     -63.199 -21.234  -3.018  0.00  0.00    -0.360 OA
HETATM   21  H   UNK     0     -63.456 -22.142  -3.233  0.00  0.00     0.217 HD
ENDBRANCH   8  20
BRANCH  10  22
HETATM   22  O   UNK     0     -59.559 -18.708  -1.325  0.00  0.00    -0.358 OA
HETATM   23  H   UNK     0     -58.975 -18.745  -0.547  0.00  0.00     0.217 HD
ENDBRANCH  10  22
TORSDOF 4
ENDMDL
MODEL 8
REMARK VINA RESULT:      -7.2     18.915     21.281
REMARK  4 active torsions:
REMARK  status: ('A' for Active; 'I' for Inactive)
REMARK    1  A    between atoms: O_2  and  C_9 
REMARK    2  A    between atoms: O_3  and  C_11 
REMARK    3  A    between atoms: O_4  and  C_14 
REMARK    4  A    between atoms: C_8  and  C_13 
ROOT
HETATM    1  O   UNK     0     -69.683 -11.182  13.896  0.00  0.00    -0.306 OA
HETATM    2  O   UNK     0     -66.940  -8.253  14.601  0.00  0.00    -0.287 OA
HETATM    3  C   UNK     0     -67.792  -9.876  13.109  0.00  0.00     0.084 A 
HETATM    4  C   UNK     0     -68.757 -10.865  12.933  0.00  0.00     0.129 A 
HETATM    5  C   UNK     0     -69.648 -10.492  15.098  0.00  0.00     0.090 A 
HETATM    6  C   UNK     0     -68.814 -11.581  11.737  0.00  0.00     0.136 A 
HETATM    7  C   UNK     0     -67.758  -9.136  14.379  0.00  0.00     0.190 A 
HETATM    8  C   UNK     0     -66.875  -9.595  12.094  0.00  0.00     0.085 A 
HETATM    9  C   UNK     0     -68.772  -9.516  15.383  0.00  0.00     0.094 A 
HETATM   10  C   UNK     0     -67.899 -11.304  10.719  0.00  0.00     0.104 A 
HETATM   11  C   UNK     0     -66.932 -10.313  10.898  0.00  0.00     0.077 A 
ENDROOT
BRANCH   5  12
HETATM   12  C   UNK     0     -70.689 -10.908  16.059  0.00  0.00    -0.002 A 
HETATM   13  C   UNK     0     -70.956 -10.128  17.187  0.00  0.00     0.014 A 
HETATM   14  C   UNK     0     -71.939 -10.519  18.094  0.00  0.00     0.001 A 
HETATM   15  C   UNK     0     -72.660 -11.694  17.877  0.00  0.00     0.000 A 
HETATM   16  C   UNK     0     -72.398 -12.476  16.752  0.00  0.00     0.001 A 
HETATM   17  C   UNK     0     -71.413 -12.083  15.845  0.00  0.00     0.014 A 
ENDBRANCH   5  12
BRANCH   6  18
HETATM   18  O   UNK     0     -69.756 -12.550  11.557  0.00  0.00    -0.351 OA
HETATM   19  C   UNK     0     -70.976 -12.157  10.931  0.00  0.00     0.210 C 
ENDBRANCH   6  18
BRANCH   8  20
HETATM   20  O   UNK     0     -65.914  -8.639  12.217  0.00  0.00    -0.360 OA
HETATM   21  H   UNK     0     -65.897  -8.070  11.433  0.00  0.00     0.217 HD
ENDBRANCH   8  20
BRANCH  10  22
HETATM   22  O   UNK     0     -67.940 -11.994   9.546  0.00  0.00    -0.358 OA
HETATM   23  H   UNK     0     -68.539 -11.538   8.930  0.00  0.00     0.217 HD
ENDBRANCH  10  22
TORSDOF 4
ENDMDL
MODEL 9
REMARK VINA RESULT:      -7.2      4.559      5.635
REMARK  4 active torsions:
REMARK  status: ('A' for Active; 'I' for Inactive)
REMARK    1  A    between atoms: O_2  and  C_9 
REMARK    2  A    between atoms: O_3  and  C_11 
REMARK    3  A    between atoms: O_4  and  C_14 
REMARK    4  A    between atoms: C_8  and  C_13 
ROOT
HETATM    1  O   UNK     0     -64.186 -25.244  -0.247  0.00  0.00    -0.306 OA
HETATM    2  O   UNK     0     -68.123 -24.365  -0.819  0.00  0.00    -0.287 OA
HETATM    3  C   UNK     0     -66.422 -25.034   0.679  0.00  0.00     0.084 A 
HETATM    4  C   UNK     0     -65.064 -25.320   0.805  0.00  0.00     0.129 A 
HETATM    5  C   UNK     0     -64.676 -24.875  -1.491  0.00  0.00     0.090 A 
HETATM    6  C   UNK     0     -64.542 -25.699   2.042  0.00  0.00     0.136 A 
HETATM    7  C   UNK     0     -66.943 -24.633  -0.636  0.00  0.00     0.190 A 
HETATM    8  C   UNK     0     -67.269 -25.126   1.785  0.00  0.00     0.085 A 
HETATM    9  C   UNK     0     -65.960 -24.570  -1.736  0.00  0.00     0.094 A 
HETATM   10  C   UNK     0     -65.385 -25.793   3.150  0.00  0.00     0.104 A 
HETATM   11  C   UNK     0     -66.746 -25.507   3.022  0.00  0.00     0.077 A 
ENDROOT
BRANCH   5  12
HETATM   12  C   UNK     0     -63.647 -24.821  -2.549  0.00  0.00    -0.002 A 
HETATM   13  C   UNK     0     -63.688 -25.723  -3.615  0.00  0.00     0.014 A 
HETATM   14  C   UNK     0     -62.717 -25.672  -4.614  0.00  0.00     0.001 A 
HETATM   15  C   UNK     0     -61.703 -24.717  -4.552  0.00  0.00     0.000 A 
HETATM   16  C   UNK     0     -61.658 -23.813  -3.491  0.00  0.00     0.001 A 
HETATM   17  C   UNK     0     -62.630 -23.865  -2.490  0.00  0.00     0.014 A 
ENDBRANCH   5  12
BRANCH   6  18
HETATM   18  O   UNK     0     -63.215 -25.980   2.174  0.00  0.00    -0.351 OA
HETATM   19  C   UNK     0     -62.824 -27.343   2.022  0.00  0.00     0.210 C 
ENDBRANCH   6  18
BRANCH   8  20
HETATM   20  O   UNK     0     -68.602 -24.857   1.713  0.00  0.00    -0.360 OA
HETATM   21  H   UNK     0     -68.957 -24.660   2.593  0.00  0.00     0.217 HD
ENDBRANCH   8  20
BRANCH  10  22
HETATM   22  O   UNK     0     -64.893 -26.164   4.365  0.00  0.00    -0.358 OA
HETATM   23  H   UNK     0     -64.316 -25.457   4.702  0.00  0.00     0.217 HD
ENDBRANCH  10  22
TORSDOF 4
ENDMDL
MODEL 10
REMARK VINA RESULT:      -7.1      3.663      4.951
REMARK  4 active torsions:
REMARK  status: ('A' for Active; 'I' for Inactive)
REMARK    1  A    between atoms: O_2  and  C_9 
REMARK    2  A    between atoms: O_3  and  C_11 
REMARK    3  A    between atoms: O_4  and  C_14 
REMARK    4  A    between atoms: C_8  and  C_13 
ROOT
HETATM    1  O   UNK     0     -62.643 -25.044   0.627  0.00  0.00    -0.306 OA
HETATM    2  O   UNK     0     -64.731 -24.776  -2.862  0.00  0.00    -0.287 OA
HETATM    3  C   UNK     0     -64.789 -24.907  -0.503  0.00  0.00     0.084 A 
HETATM    4  C   UNK     0     -64.015 -24.997   0.652  0.00  0.00     0.129 A 
HETATM    5  C   UNK     0     -62.004 -25.007  -0.603  0.00  0.00     0.090 A 
HETATM    6  C   UNK     0     -64.630 -25.042   1.903  0.00  0.00     0.136 A 
HETATM    7  C   UNK     0     -64.114 -24.858  -1.808  0.00  0.00     0.190 A 
HETATM    8  C   UNK     0     -66.183 -24.862  -0.418  0.00  0.00     0.085 A 
HETATM    9  C   UNK     0     -62.638 -24.914  -1.782  0.00  0.00     0.094 A 
HETATM   10  C   UNK     0     -66.022 -24.998   1.993  0.00  0.00     0.104 A 
HETATM   11  C   UNK     0     -66.796 -24.908   0.835  0.00  0.00     0.077 A 
ENDROOT
BRANCH   5  12
HETATM   12  C   UNK     0     -60.530 -25.057  -0.515  0.00  0.00    -0.002 A 
HETATM   13  C   UNK     0     -59.792 -23.875  -0.424  0.00  0.00     0.014 A 
HETATM   14  C   UNK     0     -58.401 -23.922  -0.340  0.00  0.00     0.001 A 
HETATM   15  C   UNK     0     -57.743 -25.152  -0.345  0.00  0.00     0.000 A 
HETATM   16  C   UNK     0     -58.476 -26.335  -0.435  0.00  0.00     0.001 A 
HETATM   17  C   UNK     0     -59.868 -26.287  -0.520  0.00  0.00     0.014 A 
ENDBRANCH   5  12
BRANCH   6  18
HETATM   18  O   UNK     0     -63.879 -25.130   3.038  0.00  0.00    -0.351 OA
HETATM   19  C   UNK     0     -63.575 -26.441   3.512  0.00  0.00     0.210 C 
ENDBRANCH   6  18
BRANCH   8  20
HETATM   20  O   UNK     0     -66.983 -24.773  -1.516  0.00  0.00    -0.360 OA
HETATM   21  H   UNK     0     -67.857 -24.434  -1.273  0.00  0.00     0.217 HD
ENDBRANCH   8  20
BRANCH  10  22
HETATM   22  O   UNK     0     -66.639 -25.042   3.207  0.00  0.00    -0.358 OA
HETATM   23  H   UNK     0     -67.539 -25.392   3.093  0.00  0.00     0.217 HD
ENDBRANCH  10  22
TORSDOF 4
ENDMDL
