MODEL 1
REMARK VINA RESULT:      -8.1      0.000      0.000
REMARK  4 active torsions:
REMARK  status: ('A' for Active; 'I' for Inactive)
REMARK    1  A    between atoms: O_2  and  C_9 
REMARK    2  A    between atoms: O_3  and  C_14 
REMARK    3  A    between atoms: O_4  and  C_15 
REMARK    4  A    between atoms: C_8  and  C_12 
ROOT
HETATM    1  O   UNK     0     -58.476 -23.515  -0.253  0.00  0.00    -0.309 OA
HETATM    2  O   UNK     0     -60.670 -23.786   3.169  0.00  0.00    -0.287 OA
HETATM    3  C   UNK     0     -59.426 -24.903   1.499  0.00  0.00     0.084 A 
HETATM    4  C   UNK     0     -58.686 -24.739   0.329  0.00  0.00     0.096 A 
HETATM    5  C   UNK     0     -59.034 -22.395   0.344  0.00  0.00     0.090 A 
HETATM    6  C   UNK     0     -59.606 -26.174   2.049  0.00  0.00     0.118 A 
HETATM    7  C   UNK     0     -60.011 -23.716   2.141  0.00  0.00     0.190 A 
HETATM    8  C   UNK     0     -59.760 -22.422   1.473  0.00  0.00     0.094 A 
HETATM    9  C   UNK     0     -58.119 -25.849  -0.298  0.00  0.00     0.077 A 
HETATM   10  C   UNK     0     -59.038 -27.283   1.419  0.00  0.00     0.133 A 
HETATM   11  C   UNK     0     -58.296 -27.119   0.248  0.00  0.00     0.104 A 
ENDROOT
BRANCH   5  12
HETATM   12  C   UNK     0     -58.742 -21.131  -0.362  0.00  0.00    -0.002 A 
HETATM   13  C   UNK     0     -57.777 -20.254   0.138  0.00  0.00     0.014 A 
HETATM   14  C   UNK     0     -57.501 -19.060  -0.528  0.00  0.00     0.001 A 
HETATM   15  C   UNK     0     -58.191 -18.739  -1.697  0.00  0.00     0.000 A 
HETATM   16  C   UNK     0     -59.156 -19.611  -2.200  0.00  0.00     0.001 A 
HETATM   17  C   UNK     0     -59.431 -20.805  -1.532  0.00  0.00     0.014 A 
ENDBRANCH   5  12
BRANCH   6  18
HETATM   18  O   UNK     0     -60.324 -26.373   3.191  0.00  0.00    -0.357 OA
HETATM   19  H   UNK     0     -59.876 -25.974   3.953  0.00  0.00     0.217 HD
ENDBRANCH   6  18
BRANCH  11  20
HETATM   20  O   UNK     0     -57.739 -28.197  -0.374  0.00  0.00    -0.358 OA
HETATM   21  H   UNK     0     -58.012 -29.001   0.103  0.00  0.00     0.217 HD
ENDBRANCH  11  20
BRANCH  10  22
HETATM   22  O   UNK     0     -59.206 -28.529   1.946  0.00  0.00    -0.356 OA
HETATM   23  H   UNK     0     -60.160 -28.704   2.026  0.00  0.00     0.218 HD
ENDBRANCH  10  22
TORSDOF 4
ENDMDL
MODEL 2
REMARK VINA RESULT:      -8.0      3.553      7.557
REMARK  4 active torsions:
REMARK  status: ('A' for Active; 'I' for Inactive)
REMARK    1  A    between atoms: O_2  and  C_9 
REMARK    2  A    between atoms: O_3  and  C_14 
REMARK    3  A    between atoms: O_4  and  C_15 
REMARK    4  A    between atoms: C_8  and  C_12 
ROOT
HETATM    1  O   UNK     0     -61.001 -21.037  -0.247  0.00  0.00    -0.309 OA
HETATM    2  O   UNK     0     -57.512 -19.302  -1.436  0.00  0.00    -0.287 OA
HETATM    3  C   UNK     0     -59.863 -19.412  -1.647  0.00  0.00     0.084 A 
HETATM    4  C   UNK     0     -61.018 -20.047  -1.195  0.00  0.00     0.096 A 
HETATM    5  C   UNK     0     -59.778 -21.428   0.277  0.00  0.00     0.090 A 
HETATM    6  C   UNK     0     -59.940 -18.408  -2.615  0.00  0.00     0.118 A 
HETATM    7  C   UNK     0     -58.564 -19.818  -1.087  0.00  0.00     0.190 A 
HETATM    8  C   UNK     0     -58.599 -20.890  -0.071  0.00  0.00     0.094 A 
HETATM    9  C   UNK     0     -62.262 -19.679  -1.710  0.00  0.00     0.077 A 
HETATM   10  C   UNK     0     -61.186 -18.043  -3.129  0.00  0.00     0.133 A 
HETATM   11  C   UNK     0     -62.343 -18.677  -2.676  0.00  0.00     0.104 A 
ENDROOT
BRANCH   5  12
HETATM   12  C   UNK     0     -59.875 -22.496   1.293  0.00  0.00    -0.002 A 
HETATM   13  C   UNK     0     -60.455 -23.724   0.967  0.00  0.00     0.014 A 
HETATM   14  C   UNK     0     -60.547 -24.733   1.926  0.00  0.00     0.001 A 
HETATM   15  C   UNK     0     -60.059 -24.516   3.215  0.00  0.00     0.000 A 
HETATM   16  C   UNK     0     -59.479 -23.292   3.544  0.00  0.00     0.001 A 
HETATM   17  C   UNK     0     -59.388 -22.283   2.585  0.00  0.00     0.014 A 
ENDBRANCH   5  12
BRANCH   6  18
HETATM   18  O   UNK     0     -58.832 -17.766  -3.082  0.00  0.00    -0.357 OA
HETATM   19  H   UNK     0     -58.493 -18.201  -3.879  0.00  0.00     0.217 HD
ENDBRANCH   6  18
BRANCH  11  20
HETATM   20  O   UNK     0     -63.564 -18.327  -3.173  0.00  0.00    -0.358 OA
HETATM   21  H   UNK     0     -63.843 -17.499  -2.743  0.00  0.00     0.217 HD
ENDBRANCH  11  20
BRANCH  10  22
HETATM   22  O   UNK     0     -61.276 -17.063  -4.073  0.00  0.00    -0.356 OA
HETATM   23  H   UNK     0     -62.217 -16.922  -4.281  0.00  0.00     0.218 HD
ENDBRANCH  10  22
TORSDOF 4
ENDMDL
MODEL 3
REMARK VINA RESULT:      -7.5      2.728      3.823
REMARK  4 active torsions:
REMARK  status: ('A' for Active; 'I' for Inactive)
REMARK    1  A    between atoms: O_2  and  C_9 
REMARK    2  A    between atoms: O_3  and  C_14 
REMARK    3  A    between atoms: O_4  and  C_15 
REMARK    4  A    between atoms: C_8  and  C_12 
ROOT
HETATM    1  O   UNK     0     -61.247 -22.670   0.003  0.00  0.00    -0.309 OA
HETATM    2  O   UNK     0     -61.685 -25.795  -2.573  0.00  0.00    -0.287 OA
HETATM    3  C   UNK     0     -61.181 -25.066  -0.383  0.00  0.00     0.084 A 
HETATM    4  C   UNK     0     -61.048 -23.952   0.444  0.00  0.00     0.096 A 
HETATM    5  C   UNK     0     -61.587 -22.474  -1.327  0.00  0.00     0.090 A 
HETATM    6  C   UNK     0     -60.967 -26.351   0.122  0.00  0.00     0.118 A 
HETATM    7  C   UNK     0     -61.550 -24.863  -1.793  0.00  0.00     0.190 A 
HETATM    8  C   UNK     0     -61.750 -23.464  -2.220  0.00  0.00     0.094 A 
HETATM    9  C   UNK     0     -60.701 -24.118   1.785  0.00  0.00     0.077 A 
HETATM   10  C   UNK     0     -60.618 -26.513   1.464  0.00  0.00     0.133 A 
HETATM   11  C   UNK     0     -60.486 -25.399   2.293  0.00  0.00     0.104 A 
ENDROOT
BRANCH   5  12
HETATM   12  C   UNK     0     -61.783 -21.057  -1.694  0.00  0.00    -0.002 A 
HETATM   13  C   UNK     0     -62.447 -20.723  -2.877  0.00  0.00     0.014 A 
HETATM   14  C   UNK     0     -62.632 -19.385  -3.225  0.00  0.00     0.001 A 
HETATM   15  C   UNK     0     -62.153 -18.376  -2.390  0.00  0.00     0.000 A 
HETATM   16  C   UNK     0     -61.489 -18.704  -1.208  0.00  0.00     0.001 A 
HETATM   17  C   UNK     0     -61.304 -20.043  -0.861  0.00  0.00     0.014 A 
ENDBRANCH   5  12
BRANCH   6  18
HETATM   18  O   UNK     0     -61.086 -27.463  -0.657  0.00  0.00    -0.357 OA
HETATM   19  H   UNK     0     -60.442 -27.446  -1.383  0.00  0.00     0.217 HD
ENDBRANCH   6  18
BRANCH  11  20
HETATM   20  O   UNK     0     -60.146 -25.549   3.605  0.00  0.00    -0.358 OA
HETATM   21  H   UNK     0     -59.544 -26.311   3.679  0.00  0.00     0.217 HD
ENDBRANCH  11  20
BRANCH  10  22
HETATM   22  O   UNK     0     -60.408 -27.762   1.969  0.00  0.00    -0.356 OA
HETATM   23  H   UNK     0     -60.620 -28.414   1.277  0.00  0.00     0.218 HD
ENDBRANCH  10  22
TORSDOF 4
ENDMDL
MODEL 4
REMARK VINA RESULT:      -7.5      4.920      7.198
REMARK  4 active torsions:
REMARK  status: ('A' for Active; 'I' for Inactive)
REMARK    1  A    between atoms: O_2  and  C_9 
REMARK    2  A    between atoms: O_3  and  C_14 
REMARK    3  A    between atoms: O_4  and  C_15 
REMARK    4  A    between atoms: C_8  and  C_12 
ROOT
HETATM    1  O   UNK     0     -63.205 -25.764   0.603  0.00  0.00    -0.309 OA
HETATM    2  O   UNK     0     -64.361 -26.577   4.424  0.00  0.00    -0.287 OA
HETATM    3  C   UNK     0     -64.947 -25.738   2.294  0.00  0.00     0.084 A 
HETATM    4  C   UNK     0     -64.487 -25.486   1.004  0.00  0.00     0.096 A 
HETATM    5  C   UNK     0     -62.329 -26.312   1.527  0.00  0.00     0.090 A 
HETATM    6  C   UNK     0     -66.265 -25.435   2.647  0.00  0.00     0.118 A 
HETATM    7  C   UNK     0     -64.023 -26.328   3.275  0.00  0.00     0.190 A 
HETATM    8  C   UNK     0     -62.654 -26.606   2.796  0.00  0.00     0.094 A 
HETATM    9  C   UNK     0     -65.344 -24.929   0.054  0.00  0.00     0.077 A 
HETATM   10  C   UNK     0     -67.120 -24.877   1.695  0.00  0.00     0.133 A 
HETATM   11  C   UNK     0     -66.660 -24.625   0.402  0.00  0.00     0.104 A 
ENDROOT
BRANCH   5  12
HETATM   12  C   UNK     0     -60.979 -26.576   0.990  0.00  0.00    -0.002 A 
HETATM   13  C   UNK     0     -60.751 -26.536  -0.388  0.00  0.00     0.014 A 
HETATM   14  C   UNK     0     -59.476 -26.785  -0.897  0.00  0.00     0.001 A 
HETATM   15  C   UNK     0     -58.425 -27.077  -0.027  0.00  0.00     0.000 A 
HETATM   16  C   UNK     0     -58.648 -27.118   1.348  0.00  0.00     0.001 A 
HETATM   17  C   UNK     0     -59.923 -26.869   1.856  0.00  0.00     0.014 A 
ENDBRANCH   5  12
BRANCH   6  18
HETATM   18  O   UNK     0     -66.750 -25.667   3.900  0.00  0.00    -0.357 OA
HETATM   19  H   UNK     0     -66.216 -26.335   4.357  0.00  0.00     0.217 HD
ENDBRANCH   6  18
BRANCH  11  20
HETATM   20  O   UNK     0     -67.489 -24.079  -0.533  0.00  0.00    -0.358 OA
HETATM   21  H   UNK     0     -68.339 -24.554  -0.502  0.00  0.00     0.217 HD
ENDBRANCH  11  20
BRANCH  10  22
HETATM   22  O   UNK     0     -68.409 -24.578   2.026  0.00  0.00    -0.356 OA
HETATM   23  H   UNK     0     -68.583 -24.918   2.922  0.00  0.00     0.218 HD
ENDBRANCH  10  22
TORSDOF 4
ENDMDL
MODEL 5
REMARK VINA RESULT:      -7.5      3.702      7.728
REMARK  4 active torsions:
REMARK  status: ('A' for Active; 'I' for Inactive)
REMARK    1  A    between atoms: O_2  and  C_9 
REMARK    2  A    between atoms: O_3  and  C_14 
REMARK    3  A    between atoms: O_4  and  C_15 
REMARK    4  A    between atoms: C_8  and  C_12 
ROOT
HETATM    1  O   UNK     0     -60.587 -22.053  -1.990  0.00  0.00    -0.309 OA
HETATM    2  O   UNK     0     -57.439 -19.758  -3.180  0.00  0.00    -0.287 OA
HETATM    3  C   UNK     0     -59.771 -19.931  -2.843  0.00  0.00     0.084 A 
HETATM    4  C   UNK     0     -60.802 -20.769  -2.422  0.00  0.00     0.096 A 
HETATM    5  C   UNK     0     -59.289 -22.539  -1.981  0.00  0.00     0.090 A 
HETATM    6  C   UNK     0     -60.049 -18.631  -3.271  0.00  0.00     0.118 A 
HETATM    7  C   UNK     0     -58.391 -20.440  -2.827  0.00  0.00     0.190 A 
HETATM    8  C   UNK     0     -58.213 -21.828  -2.357  0.00  0.00     0.094 A 
HETATM    9  C   UNK     0     -62.120 -20.310  -2.425  0.00  0.00     0.077 A 
HETATM   10  C   UNK     0     -61.368 -18.174  -3.275  0.00  0.00     0.133 A 
HETATM   11  C   UNK     0     -62.400 -19.013  -2.853  0.00  0.00     0.104 A 
ENDROOT
BRANCH   5  12
HETATM   12  C   UNK     0     -59.171 -23.928  -1.494  0.00  0.00    -0.002 A 
HETATM   13  C   UNK     0     -60.225 -24.827  -1.676  0.00  0.00     0.014 A 
HETATM   14  C   UNK     0     -60.115 -26.140  -1.216  0.00  0.00     0.001 A 
HETATM   15  C   UNK     0     -58.949 -26.557  -0.572  0.00  0.00     0.000 A 
HETATM   16  C   UNK     0     -57.895 -25.662  -0.389  0.00  0.00     0.001 A 
HETATM   17  C   UNK     0     -58.006 -24.350  -0.849  0.00  0.00     0.014 A 
ENDBRANCH   5  12
BRANCH   6  18
HETATM   18  O   UNK     0     -59.067 -17.783  -3.691  0.00  0.00    -0.357 OA
HETATM   19  H   UNK     0     -58.490 -17.533  -2.953  0.00  0.00     0.217 HD
ENDBRANCH   6  18
BRANCH  11  20
HETATM   20  O   UNK     0     -63.691 -18.575  -2.854  0.00  0.00    -0.358 OA
HETATM   21  H   UNK     0     -64.118 -18.884  -3.673  0.00  0.00     0.217 HD
ENDBRANCH  11  20
BRANCH  10  22
HETATM   22  O   UNK     0     -61.652 -16.907  -3.690  0.00  0.00    -0.356 OA
HETATM   23  H   UNK     0     -61.859 -16.366  -2.908  0.00  0.00     0.218 HD
ENDBRANCH  10  22
TORSDOF 4
ENDMDL
MODEL 6
REMARK VINA RESULT:      -7.3      3.215      7.465
REMARK  4 active torsions:
REMARK  status: ('A' for Active; 'I' for Inactive)
REMARK    1  A    between atoms: O_2  and  C_9 
REMARK    2  A    between atoms: O_3  and  C_14 
REMARK    3  A    between atoms: O_4  and  C_15 
REMARK    4  A    between atoms: C_8  and  C_12 
ROOT
HETATM    1  O   UNK     0     -59.704 -21.769  -0.839  0.00  0.00    -0.309 OA
HETATM    2  O   UNK     0     -58.554 -22.272  -4.714  0.00  0.00    -0.287 OA
HETATM    3  C   UNK     0     -59.514 -20.859  -3.082  0.00  0.00     0.084 A 
HETATM    4  C   UNK     0     -59.884 -20.754  -1.743  0.00  0.00     0.096 A 
HETATM    5  C   UNK     0     -59.137 -22.954  -1.282  0.00  0.00     0.090 A 
HETATM    6  C   UNK     0     -59.721 -19.791  -3.959  0.00  0.00     0.118 A 
HETATM    7  C   UNK     0     -58.904 -22.112  -3.554  0.00  0.00     0.190 A 
HETATM    8  C   UNK     0     -58.735 -23.175  -2.543  0.00  0.00     0.094 A 
HETATM    9  C   UNK     0     -60.463 -19.575  -1.270  0.00  0.00     0.077 A 
HETATM   10  C   UNK     0     -60.301 -18.614  -3.484  0.00  0.00     0.133 A 
HETATM   11  C   UNK     0     -60.671 -18.507  -2.143  0.00  0.00     0.104 A 
ENDROOT
BRANCH   5  12
HETATM   12  C   UNK     0     -58.985 -23.977  -0.227  0.00  0.00    -0.002 A 
HETATM   13  C   UNK     0     -58.335 -25.182  -0.506  0.00  0.00     0.014 A 
HETATM   14  C   UNK     0     -58.191 -26.148   0.490  0.00  0.00     0.001 A 
HETATM   15  C   UNK     0     -58.697 -25.912   1.768  0.00  0.00     0.000 A 
HETATM   16  C   UNK     0     -59.346 -24.710   2.051  0.00  0.00     0.001 A 
HETATM   17  C   UNK     0     -59.490 -23.745   1.055  0.00  0.00     0.014 A 
ENDBRANCH   5  12
BRANCH   6  18
HETATM   18  O   UNK     0     -59.373 -19.858  -5.275  0.00  0.00    -0.357 OA
HETATM   19  H   UNK     0     -59.513 -20.753  -5.623  0.00  0.00     0.217 HD
ENDBRANCH   6  18
BRANCH  11  20
HETATM   20  O   UNK     0     -61.239 -17.361  -1.670  0.00  0.00    -0.358 OA
HETATM   21  H   UNK     0     -60.560 -16.863  -1.180  0.00  0.00     0.217 HD
ENDBRANCH  11  20
BRANCH  10  22
HETATM   22  O   UNK     0     -60.507 -17.563  -4.329  0.00  0.00    -0.356 OA
HETATM   23  H   UNK     0     -61.092 -17.858  -5.049  0.00  0.00     0.218 HD
ENDBRANCH  10  22
TORSDOF 4
ENDMDL
MODEL 7
REMARK VINA RESULT:      -7.3      2.222      2.945
REMARK  4 active torsions:
REMARK  status: ('A' for Active; 'I' for Inactive)
REMARK    1  A    between atoms: O_2  and  C_9 
REMARK    2  A    between atoms: O_3  and  C_14 
REMARK    3  A    between atoms: O_4  and  C_15 
REMARK    4  A    between atoms: C_8  and  C_12 
ROOT
HETATM    1  O   UNK     0     -61.476 -23.103   0.100  0.00  0.00    -0.309 OA
HETATM    2  O   UNK     0     -58.149 -24.952   1.551  0.00  0.00    -0.287 OA
HETATM    3  C   UNK     0     -60.478 -25.042   1.168  0.00  0.00     0.084 A 
HETATM    4  C   UNK     0     -61.575 -24.354   0.653  0.00  0.00     0.096 A 
HETATM    5  C   UNK     0     -60.231 -22.495   0.062  0.00  0.00     0.090 A 
HETATM    6  C   UNK     0     -60.638 -26.316   1.718  0.00  0.00     0.118 A 
HETATM    7  C   UNK     0     -59.153 -24.404   1.120  0.00  0.00     0.190 A 
HETATM    8  C   UNK     0     -59.100 -23.057   0.519  0.00  0.00     0.094 A 
HETATM    9  C   UNK     0     -62.842 -24.938   0.684  0.00  0.00     0.077 A 
HETATM   10  C   UNK     0     -61.907 -26.898   1.749  0.00  0.00     0.133 A 
HETATM   11  C   UNK     0     -63.005 -26.210   1.233  0.00  0.00     0.104 A 
ENDROOT
BRANCH   5  12
HETATM   12  C   UNK     0     -60.237 -21.154  -0.558  0.00  0.00    -0.002 A 
HETATM   13  C   UNK     0     -59.033 -20.530  -0.893  0.00  0.00     0.014 A 
HETATM   14  C   UNK     0     -59.037 -19.263  -1.477  0.00  0.00     0.001 A 
HETATM   15  C   UNK     0     -60.248 -18.617  -1.729  0.00  0.00     0.000 A 
HETATM   16  C   UNK     0     -61.452 -19.236  -1.396  0.00  0.00     0.001 A 
HETATM   17  C   UNK     0     -61.446 -20.503  -0.811  0.00  0.00     0.014 A 
ENDBRANCH   5  12
BRANCH   6  18
HETATM   18  O   UNK     0     -59.589 -27.019   2.232  0.00  0.00    -0.357 OA
HETATM   19  H   UNK     0     -59.675 -27.111   3.194  0.00  0.00     0.217 HD
ENDBRANCH   6  18
BRANCH  11  20
HETATM   20  O   UNK     0     -64.248 -26.770   1.260  0.00  0.00    -0.358 OA
HETATM   21  H   UNK     0     -64.279 -27.409   1.994  0.00  0.00     0.217 HD
ENDBRANCH  11  20
BRANCH  10  22
HETATM   22  O   UNK     0     -62.076 -28.141   2.283  0.00  0.00    -0.356 OA
HETATM   23  H   UNK     0     -62.485 -28.046   3.161  0.00  0.00     0.218 HD
ENDBRANCH  10  22
TORSDOF 4
ENDMDL
MODEL 8
REMARK VINA RESULT:      -7.3      3.194      7.053
REMARK  4 active torsions:
REMARK  status: ('A' for Active; 'I' for Inactive)
REMARK    1  A    between atoms: O_2  and  C_9 
REMARK    2  A    between atoms: O_3  and  C_14 
REMARK    3  A    between atoms: O_4  and  C_15 
REMARK    4  A    between atoms: C_8  and  C_12 
ROOT
HETATM    1  O   UNK     0     -58.404 -21.812  -1.256  0.00  0.00    -0.309 OA
HETATM    2  O   UNK     0     -61.394 -19.086  -0.782  0.00  0.00    -0.287 OA
HETATM    3  C   UNK     0     -59.445 -19.731  -1.951  0.00  0.00     0.084 A 
HETATM    4  C   UNK     0     -58.452 -20.702  -2.060  0.00  0.00     0.096 A 
HETATM    5  C   UNK     0     -59.383 -21.968  -0.287  0.00  0.00     0.090 A 
HETATM    6  C   UNK     0     -59.445 -18.621  -2.799  0.00  0.00     0.118 A 
HETATM    7  C   UNK     0     -60.492 -19.898  -0.931  0.00  0.00     0.190 A 
HETATM    8  C   UNK     0     -60.394 -21.107  -0.088  0.00  0.00     0.094 A 
HETATM    9  C   UNK     0     -57.449 -20.568  -3.022  0.00  0.00     0.077 A 
HETATM   10  C   UNK     0     -58.440 -18.489  -3.759  0.00  0.00     0.133 A 
HETATM   11  C   UNK     0     -57.445 -19.461  -3.869  0.00  0.00     0.104 A 
ENDROOT
BRANCH   5  12
HETATM   12  C   UNK     0     -59.240 -23.198   0.518  0.00  0.00    -0.002 A 
HETATM   13  C   UNK     0     -58.366 -24.208   0.107  0.00  0.00     0.014 A 
HETATM   14  C   UNK     0     -58.231 -25.370   0.867  0.00  0.00     0.001 A 
HETATM   15  C   UNK     0     -58.970 -25.525   2.040  0.00  0.00     0.000 A 
HETATM   16  C   UNK     0     -59.843 -24.520   2.453  0.00  0.00     0.001 A 
HETATM   17  C   UNK     0     -59.979 -23.358   1.693  0.00  0.00     0.014 A 
ENDBRANCH   5  12
BRANCH   6  18
HETATM   18  O   UNK     0     -60.400 -17.651  -2.721  0.00  0.00    -0.357 OA
HETATM   19  H   UNK     0     -60.351 -17.188  -1.870  0.00  0.00     0.217 HD
ENDBRANCH   6  18
BRANCH  11  20
HETATM   20  O   UNK     0     -56.460 -19.340  -4.804  0.00  0.00    -0.358 OA
HETATM   21  H   UNK     0     -56.777 -18.746  -5.508  0.00  0.00     0.217 HD
ENDBRANCH  11  20
BRANCH  10  22
HETATM   22  O   UNK     0     -58.429 -17.411  -4.593  0.00  0.00    -0.356 OA
HETATM   23  H   UNK     0     -57.800 -17.587  -5.316  0.00  0.00     0.218 HD
ENDBRANCH  10  22
TORSDOF 4
ENDMDL
MODEL 9
REMARK VINA RESULT:      -7.3      2.922      7.057
REMARK  4 active torsions:
REMARK  status: ('A' for Active; 'I' for Inactive)
REMARK    1  A    between atoms: O_2  and  C_9 
REMARK    2  A    between atoms: O_3  and  C_14 
REMARK    3  A    between atoms: O_4  and  C_15 
REMARK    4  A    between atoms: C_8  and  C_12 
ROOT
HETATM    1  O   UNK     0     -58.619 -23.373  -1.212  0.00  0.00    -0.309 OA
HETATM    2  O   UNK     0     -61.774 -23.589  -3.780  0.00  0.00    -0.287 OA
HETATM    3  C   UNK     0     -59.994 -22.305  -2.905  0.00  0.00     0.084 A 
HETATM    4  C   UNK     0     -58.929 -22.299  -2.006  0.00  0.00     0.096 A 
HETATM    5  C   UNK     0     -59.406 -24.511  -1.303  0.00  0.00     0.090 A 
HETATM    6  C   UNK     0     -60.262 -21.182  -3.691  0.00  0.00     0.118 A 
HETATM    7  C   UNK     0     -60.826 -23.514  -3.011  0.00  0.00     0.190 A 
HETATM    8  C   UNK     0     -60.454 -24.641  -2.133  0.00  0.00     0.094 A 
HETATM    9  C   UNK     0     -58.123 -21.166  -1.888  0.00  0.00     0.077 A 
HETATM   10  C   UNK     0     -59.455 -20.049  -3.570  0.00  0.00     0.133 A 
HETATM   11  C   UNK     0     -58.388 -20.043  -2.671  0.00  0.00     0.104 A 
ENDROOT
BRANCH   5  12
HETATM   12  C   UNK     0     -58.982 -25.607  -0.409  0.00  0.00    -0.002 A 
HETATM   13  C   UNK     0     -58.897 -26.915  -0.893  0.00  0.00     0.014 A 
HETATM   14  C   UNK     0     -58.496 -27.951  -0.050  0.00  0.00     0.001 A 
HETATM   15  C   UNK     0     -58.180 -27.682   1.282  0.00  0.00     0.000 A 
HETATM   16  C   UNK     0     -58.264 -26.378   1.770  0.00  0.00     0.001 A 
HETATM   17  C   UNK     0     -58.665 -25.342   0.925  0.00  0.00     0.014 A 
ENDBRANCH   5  12
BRANCH   6  18
HETATM   18  O   UNK     0     -61.296 -21.151  -4.580  0.00  0.00    -0.357 OA
HETATM   19  H   UNK     0     -61.757 -22.004  -4.600  0.00  0.00     0.217 HD
ENDBRANCH   6  18
BRANCH  11  20
HETATM   20  O   UNK     0     -57.595 -18.940  -2.546  0.00  0.00    -0.358 OA
HETATM   21  H   UNK     0     -57.466 -18.556  -3.431  0.00  0.00     0.217 HD
ENDBRANCH  11  20
BRANCH  10  22
HETATM   22  O   UNK     0     -59.706 -18.947  -4.332  0.00  0.00    -0.356 OA
HETATM   23  H   UNK     0     -59.644 -19.200  -5.270  0.00  0.00     0.218 HD
ENDBRANCH  10  22
TORSDOF 4
ENDMDL
MODEL 10
REMARK VINA RESULT:      -7.2      9.102     10.624
REMARK  4 active torsions:
REMARK  status: ('A' for Active; 'I' for Inactive)
REMARK    1  A    between atoms: O_2  and  C_9 
REMARK    2  A    between atoms: O_3  and  C_14 
REMARK    3  A    between atoms: O_4  and  C_15 
REMARK    4  A    between atoms: C_8  and  C_12 
ROOT
HETATM    1  O   UNK     0     -67.902 -26.097  -0.695  0.00  0.00    -0.309 OA
HETATM    2  O   UNK     0     -69.134 -26.676   3.144  0.00  0.00    -0.287 OA
HETATM    3  C   UNK     0     -67.459 -25.878   1.682  0.00  0.00     0.084 A 
HETATM    4  C   UNK     0     -67.099 -25.709   0.346  0.00  0.00     0.096 A 
HETATM    5  C   UNK     0     -69.120 -26.691  -0.404  0.00  0.00     0.090 A 
HETATM    6  C   UNK     0     -66.600 -25.462   2.703  0.00  0.00     0.118 A 
HETATM    7  C   UNK     0     -68.755 -26.500   1.995  0.00  0.00     0.190 A 
HETATM    8  C   UNK     0     -69.581 -26.903   0.839  0.00  0.00     0.094 A 
HETATM    9  C   UNK     0     -65.876 -25.120   0.023  0.00  0.00     0.077 A 
HETATM   10  C   UNK     0     -65.377 -24.874   2.377  0.00  0.00     0.133 A 
HETATM   11  C   UNK     0     -65.017 -24.704   1.039  0.00  0.00     0.104 A 
ENDROOT
BRANCH   5  12
HETATM   12  C   UNK     0     -69.906 -27.065  -1.598  0.00  0.00    -0.002 A 
HETATM   13  C   UNK     0     -70.269 -28.397  -1.810  0.00  0.00     0.014 A 
HETATM   14  C   UNK     0     -71.011 -28.751  -2.937  0.00  0.00     0.001 A 
HETATM   15  C   UNK     0     -71.392 -27.772  -3.856  0.00  0.00     0.000 A 
HETATM   16  C   UNK     0     -71.032 -26.441  -3.647  0.00  0.00     0.001 A 
HETATM   17  C   UNK     0     -70.290 -26.088  -2.520  0.00  0.00     0.014 A 
ENDBRANCH   5  12
BRANCH   6  18
HETATM   18  O   UNK     0     -66.918 -25.612   4.021  0.00  0.00    -0.357 OA
HETATM   19  H   UNK     0     -66.126 -25.808   4.545  0.00  0.00     0.217 HD
ENDBRANCH   6  18
BRANCH  11  20
HETATM   20  O   UNK     0     -63.824 -24.131   0.712  0.00  0.00    -0.358 OA
HETATM   21  H   UNK     0     -63.957 -23.579  -0.079  0.00  0.00     0.217 HD
ENDBRANCH  11  20
BRANCH  10  22
HETATM   22  O   UNK     0     -64.531 -24.463   3.364  0.00  0.00    -0.356 OA
HETATM   23  H   UNK     0     -64.182 -25.251   3.817  0.00  0.00     0.218 HD
ENDBRANCH  10  22
TORSDOF 4
ENDMDL
