MODEL 1
REMARK VINA RESULT:      -9.1      0.000      0.000
REMARK  10 active torsions:
REMARK  status: ('A' for Active; 'I' for Inactive)
REMARK    1  A    between atoms: O_2  and  C_15 
REMARK    2  A    between atoms: O_2  and  C_18 
REMARK    3  A    between atoms: O_3  and  C_12 
REMARK    4  A    between atoms: O_4  and  C_13 
REMARK    5  A    between atoms: O_5  and  C_14 
REMARK    6  A    between atoms: O_6  and  C_17 
REMARK    7  A    between atoms: O_9  and  C_19 
REMARK    8  A    between atoms: O_10  and  C_23 
REMARK    9  A    between atoms: C_16  and  C_17 
REMARK   10  A    between atoms: C_25  and  C_27 
ROOT
HETATM    1  O   UNK     0     -63.307 -34.117   4.481  0.00  0.00    -0.340 OA
HETATM    2  C   UNK     0     -62.149 -35.860   6.450  0.00  0.00     0.183 C 
HETATM    3  C   UNK     0     -63.083 -34.708   6.824  0.00  0.00     0.205 C 
HETATM    4  C   UNK     0     -62.347 -36.289   4.996  0.00  0.00     0.189 C 
HETATM    5  C   UNK     0     -63.032 -33.593   5.778  0.00  0.00     0.299 C 
HETATM    6  C   UNK     0     -62.343 -35.080   4.070  0.00  0.00     0.253 C 
ENDROOT
BRANCH   5   7
HETATM    7  O   UNK     0     -64.017 -32.621   6.123  0.00  0.00    -0.315 OA
BRANCH   7   8
HETATM    8  C   UNK     0     -63.808 -31.351   5.670  0.00  0.00     0.111 A 
HETATM    9  C   UNK     0     -64.579 -30.835   4.628  0.00  0.00     0.137 A 
HETATM   10  C   UNK     0     -64.352 -29.534   4.176  0.00  0.00     0.129 A 
HETATM   11  O   UNK     0     -65.140 -29.082   3.149  0.00  0.00    -0.306 OA
HETATM   12  C   UNK     0     -63.359 -28.755   4.768  0.00  0.00     0.084 A 
HETATM   13  C   UNK     0     -64.943 -27.791   2.685  0.00  0.00     0.090 A 
HETATM   14  C   UNK     0     -64.015 -26.947   3.165  0.00  0.00     0.094 A 
HETATM   15  C   UNK     0     -63.141 -27.387   4.271  0.00  0.00     0.190 A 
HETATM   16  O   UNK     0     -62.286 -26.649   4.742  0.00  0.00    -0.287 OA
HETATM   17  C   UNK     0     -62.586 -29.268   5.811  0.00  0.00     0.085 A 
HETATM   18  C   UNK     0     -62.814 -30.569   6.260  0.00  0.00     0.077 A 
BRANCH   9  19
HETATM   19  O   UNK     0     -65.549 -31.603   4.054  0.00  0.00    -0.351 OA
HETATM   20  C   UNK     0     -65.218 -32.257   2.831  0.00  0.00     0.210 C 
ENDBRANCH   9  19
BRANCH  13  21
HETATM   21  C   UNK     0     -65.838 -27.409   1.574  0.00  0.00    -0.002 A 
HETATM   22  C   UNK     0     -65.713 -26.154   0.970  0.00  0.00     0.014 A 
HETATM   23  C   UNK     0     -66.558 -25.794  -0.079  0.00  0.00     0.001 A 
HETATM   24  C   UNK     0     -67.532 -26.686  -0.529  0.00  0.00     0.000 A 
HETATM   25  C   UNK     0     -67.660 -27.939   0.072  0.00  0.00     0.001 A 
HETATM   26  C   UNK     0     -66.815 -28.300   1.121  0.00  0.00     0.014 A 
ENDBRANCH  13  21
BRANCH  17  27
HETATM   27  O   UNK     0     -61.604 -28.547   6.420  0.00  0.00    -0.360 OA
HETATM   28  H   UNK     0     -61.354 -27.786   5.876  0.00  0.00     0.217 HD
ENDBRANCH  17  27
ENDBRANCH   7   8
ENDBRANCH   5   7
BRANCH   6  29
HETATM   29  C   UNK     0     -62.795 -35.455   2.696  0.00  0.00     0.172 C 
HETATM   30  O   UNK     0     -63.956 -35.451   2.314  0.00  0.00    -0.648 OA
BRANCH  29  31
HETATM   31  O   UNK     0     -61.740 -35.809   1.924  0.00  0.00    -0.774 OA
HETATM   32  H   UNK     0     -62.008 -35.999   1.000  0.00  0.00     0.167 HD
ENDBRANCH  29  31
ENDBRANCH   6  29
BRANCH   3  33
HETATM   33  O   UNK     0     -62.682 -34.162   8.079  0.00  0.00    -0.388 OA
HETATM   34  H   UNK     0     -62.108 -33.398   7.899  0.00  0.00     0.210 HD
ENDBRANCH   3  33
BRANCH   4  35
HETATM   35  O   UNK     0     -61.281 -37.159   4.617  0.00  0.00    -0.390 OA
HETATM   36  H   UNK     0     -61.657 -37.888   4.095  0.00  0.00     0.210 HD
ENDBRANCH   4  35
BRANCH   2  37
HETATM   37  O   UNK     0     -62.424 -36.986   7.285  0.00  0.00    -0.390 OA
HETATM   38  H   UNK     0     -62.147 -36.758   8.189  0.00  0.00     0.210 HD
ENDBRANCH   2  37
TORSDOF 10
ENDMDL
MODEL 2
REMARK VINA RESULT:      -9.0      7.037      8.913
REMARK  10 active torsions:
REMARK  status: ('A' for Active; 'I' for Inactive)
REMARK    1  A    between atoms: O_2  and  C_15 
REMARK    2  A    between atoms: O_2  and  C_18 
REMARK    3  A    between atoms: O_3  and  C_12 
REMARK    4  A    between atoms: O_4  and  C_13 
REMARK    5  A    between atoms: O_5  and  C_14 
REMARK    6  A    between atoms: O_6  and  C_17 
REMARK    7  A    between atoms: O_9  and  C_19 
REMARK    8  A    between atoms: O_10  and  C_23 
REMARK    9  A    between atoms: C_16  and  C_17 
REMARK   10  A    between atoms: C_25  and  C_27 
ROOT
HETATM    1  O   UNK     0     -62.088 -25.114   1.517  0.00  0.00    -0.340 OA
HETATM    2  C   UNK     0     -60.842 -26.146  -0.857  0.00  0.00     0.183 C 
HETATM    3  C   UNK     0     -62.091 -25.266  -0.905  0.00  0.00     0.205 C 
HETATM    4  C   UNK     0     -60.072 -25.953   0.449  0.00  0.00     0.189 C 
HETATM    5  C   UNK     0     -62.906 -25.392   0.383  0.00  0.00     0.299 C 
HETATM    6  C   UNK     0     -61.011 -26.035   1.646  0.00  0.00     0.253 C 
ENDROOT
BRANCH   5   7
HETATM    7  O   UNK     0     -63.978 -24.453   0.320  0.00  0.00    -0.315 OA
BRANCH   7   8
HETATM    8  C   UNK     0     -65.224 -24.926   0.611  0.00  0.00     0.111 A 
HETATM    9  C   UNK     0     -66.093 -25.309  -0.411  0.00  0.00     0.137 A 
HETATM   10  C   UNK     0     -67.364 -25.791  -0.097  0.00  0.00     0.129 A 
HETATM   11  O   UNK     0     -68.173 -26.152  -1.143  0.00  0.00    -0.306 OA
HETATM   12  C   UNK     0     -67.762 -25.889   1.236  0.00  0.00     0.084 A 
HETATM   13  C   UNK     0     -69.439 -26.641  -0.861  0.00  0.00     0.090 A 
HETATM   14  C   UNK     0     -69.940 -26.775   0.378  0.00  0.00     0.094 A 
HETATM   15  C   UNK     0     -69.108 -26.399   1.539  0.00  0.00     0.190 A 
HETATM   16  O   UNK     0     -69.523 -26.509   2.684  0.00  0.00    -0.287 OA
HETATM   17  C   UNK     0     -66.895 -25.506   2.261  0.00  0.00     0.085 A 
HETATM   18  C   UNK     0     -65.625 -25.024   1.944  0.00  0.00     0.077 A 
BRANCH   9  19
HETATM   19  O   UNK     0     -65.696 -25.211  -1.713  0.00  0.00    -0.351 OA
HETATM   20  C   UNK     0     -66.010 -24.000  -2.396  0.00  0.00     0.210 C 
ENDBRANCH   9  19
BRANCH  13  21
HETATM   21  C   UNK     0     -70.228 -26.992  -2.059  0.00  0.00    -0.002 A 
HETATM   22  C   UNK     0     -70.652 -28.309  -2.260  0.00  0.00     0.014 A 
HETATM   23  C   UNK     0     -71.398 -28.640  -3.391  0.00  0.00     0.001 A 
HETATM   24  C   UNK     0     -71.723 -27.657  -4.325  0.00  0.00     0.000 A 
HETATM   25  C   UNK     0     -71.301 -26.342  -4.129  0.00  0.00     0.001 A 
HETATM   26  C   UNK     0     -70.555 -26.010  -2.997  0.00  0.00     0.014 A 
ENDBRANCH  13  21
BRANCH  17  27
HETATM   27  O   UNK     0     -67.237 -25.581   3.578  0.00  0.00    -0.360 OA
HETATM   28  H   UNK     0     -66.612 -25.079   4.121  0.00  0.00     0.217 HD
ENDBRANCH  17  27
ENDBRANCH   7   8
ENDBRANCH   5   7
BRANCH   6  29
HETATM   29  C   UNK     0     -60.325 -25.588   2.897  0.00  0.00     0.172 C 
HETATM   30  O   UNK     0     -59.363 -24.834   2.938  0.00  0.00    -0.648 OA
BRANCH  29  31
HETATM   31  O   UNK     0     -60.910 -26.137   3.988  0.00  0.00    -0.774 OA
HETATM   32  H   UNK     0     -61.117 -27.087   3.855  0.00  0.00     0.167 HD
ENDBRANCH  29  31
ENDBRANCH   6  29
BRANCH   3  33
HETATM   33  O   UNK     0     -62.915 -25.672  -1.996  0.00  0.00    -0.388 OA
HETATM   34  H   UNK     0     -62.588 -26.533  -2.309  0.00  0.00     0.210 HD
ENDBRANCH   3  33
BRANCH   4  35
HETATM   35  O   UNK     0     -59.088 -26.979   0.568  0.00  0.00    -0.390 OA
HETATM   36  H   UNK     0     -59.536 -27.837   0.488  0.00  0.00     0.210 HD
ENDBRANCH   4  35
BRANCH   2  37
HETATM   37  O   UNK     0     -59.974 -25.800  -1.938  0.00  0.00    -0.390 OA
HETATM   38  H   UNK     0     -59.061 -25.833  -1.606  0.00  0.00     0.210 HD
ENDBRANCH   2  37
TORSDOF 10
ENDMDL
MODEL 3
REMARK VINA RESULT:      -8.8      7.377     10.030
REMARK  10 active torsions:
REMARK  status: ('A' for Active; 'I' for Inactive)
REMARK    1  A    between atoms: O_2  and  C_15 
REMARK    2  A    between atoms: O_2  and  C_18 
REMARK    3  A    between atoms: O_3  and  C_12 
REMARK    4  A    between atoms: O_4  and  C_13 
REMARK    5  A    between atoms: O_5  and  C_14 
REMARK    6  A    between atoms: O_6  and  C_17 
REMARK    7  A    between atoms: O_9  and  C_19 
REMARK    8  A    between atoms: O_10  and  C_23 
REMARK    9  A    between atoms: C_16  and  C_17 
REMARK   10  A    between atoms: C_25  and  C_27 
ROOT
HETATM    1  O   UNK     0     -69.713 -25.273   0.063  0.00  0.00    -0.340 OA
HETATM    2  C   UNK     0     -70.211 -27.189   2.146  0.00  0.00     0.183 C 
HETATM    3  C   UNK     0     -69.081 -26.163   2.231  0.00  0.00     0.205 C 
HETATM    4  C   UNK     0     -71.302 -26.738   1.175  0.00  0.00     0.189 C 
HETATM    5  C   UNK     0     -68.611 -25.741   0.838  0.00  0.00     0.299 C 
HETATM    6  C   UNK     0     -70.694 -26.282  -0.146  0.00  0.00     0.253 C 
ENDROOT
BRANCH   5   7
HETATM    7  O   UNK     0     -67.654 -24.695   0.994  0.00  0.00    -0.315 OA
BRANCH   7   8
HETATM    8  C   UNK     0     -66.567 -24.732   0.170  0.00  0.00     0.111 A 
HETATM    9  C   UNK     0     -65.328 -25.161   0.650  0.00  0.00     0.137 A 
HETATM   10  C   UNK     0     -64.226 -25.194  -0.206  0.00  0.00     0.129 A 
HETATM   11  O   UNK     0     -63.036 -25.623   0.323  0.00  0.00    -0.306 OA
HETATM   12  C   UNK     0     -64.366 -24.800  -1.535  0.00  0.00     0.084 A 
HETATM   13  C   UNK     0     -61.926 -25.674  -0.506  0.00  0.00     0.090 A 
HETATM   14  C   UNK     0     -61.930 -25.314  -1.800  0.00  0.00     0.094 A 
HETATM   15  C   UNK     0     -63.187 -24.843  -2.415  0.00  0.00     0.190 A 
HETATM   16  O   UNK     0     -63.237 -24.510  -3.591  0.00  0.00    -0.287 OA
HETATM   17  C   UNK     0     -65.603 -24.370  -2.019  0.00  0.00     0.085 A 
HETATM   18  C   UNK     0     -66.703 -24.338  -1.161  0.00  0.00     0.077 A 
BRANCH   9  19
HETATM   19  O   UNK     0     -65.200 -25.545   1.953  0.00  0.00    -0.351 OA
HETATM   20  C   UNK     0     -64.986 -24.514   2.914  0.00  0.00     0.210 C 
ENDBRANCH   9  19
BRANCH  13  21
HETATM   21  C   UNK     0     -60.697 -26.143   0.165  0.00  0.00    -0.002 A 
HETATM   22  C   UNK     0     -60.516 -25.923   1.533  0.00  0.00     0.014 A 
HETATM   23  C   UNK     0     -59.356 -26.368   2.167  0.00  0.00     0.001 A 
HETATM   24  C   UNK     0     -58.372 -27.033   1.436  0.00  0.00     0.000 A 
HETATM   25  C   UNK     0     -58.549 -27.255   0.070  0.00  0.00     0.001 A 
HETATM   26  C   UNK     0     -59.710 -26.810  -0.564  0.00  0.00     0.014 A 
ENDBRANCH  13  21
BRANCH  17  27
HETATM   27  O   UNK     0     -65.790 -23.974  -3.310  0.00  0.00    -0.360 OA
HETATM   28  H   UNK     0     -64.953 -23.683  -3.700  0.00  0.00     0.217 HD
ENDBRANCH  17  27
ENDBRANCH   7   8
ENDBRANCH   5   7
BRANCH   6  29
HETATM   29  C   UNK     0     -71.715 -25.598  -0.997  0.00  0.00     0.172 C 
HETATM   30  O   UNK     0     -72.570 -26.167  -1.660  0.00  0.00    -0.648 OA
BRANCH  29  31
HETATM   31  O   UNK     0     -71.563 -24.253  -0.941  0.00  0.00    -0.774 OA
HETATM   32  H   UNK     0     -72.276 -23.824  -0.421  0.00  0.00     0.167 HD
ENDBRANCH  29  31
ENDBRANCH   6  29
BRANCH   3  33
HETATM   33  O   UNK     0     -67.972 -26.735   2.922  0.00  0.00    -0.388 OA
HETATM   34  H   UNK     0     -67.358 -27.087   2.255  0.00  0.00     0.210 HD
ENDBRANCH   3  33
BRANCH   4  35
HETATM   35  O   UNK     0     -72.181 -27.833   0.920  0.00  0.00    -0.390 OA
HETATM   36  H   UNK     0     -73.083 -27.557   1.158  0.00  0.00     0.210 HD
ENDBRANCH   4  35
BRANCH   2  37
HETATM   37  O   UNK     0     -70.805 -27.349   3.435  0.00  0.00    -0.390 OA
HETATM   38  H   UNK     0     -70.322 -28.054   3.898  0.00  0.00     0.210 HD
ENDBRANCH   2  37
TORSDOF 10
ENDMDL
MODEL 4
REMARK VINA RESULT:      -8.8      6.890     10.220
REMARK  10 active torsions:
REMARK  status: ('A' for Active; 'I' for Inactive)
REMARK    1  A    between atoms: O_2  and  C_15 
REMARK    2  A    between atoms: O_2  and  C_18 
REMARK    3  A    between atoms: O_3  and  C_12 
REMARK    4  A    between atoms: O_4  and  C_13 
REMARK    5  A    between atoms: O_5  and  C_14 
REMARK    6  A    between atoms: O_6  and  C_17 
REMARK    7  A    between atoms: O_9  and  C_19 
REMARK    8  A    between atoms: O_10  and  C_23 
REMARK    9  A    between atoms: C_16  and  C_17 
REMARK   10  A    between atoms: C_25  and  C_27 
ROOT
HETATM    1  O   UNK     0     -66.300 -26.246   1.045  0.00  0.00    -0.340 OA
HETATM    2  C   UNK     0     -67.805 -24.624  -0.788  0.00  0.00     0.183 C 
HETATM    3  C   UNK     0     -66.378 -25.086  -1.085  0.00  0.00     0.205 C 
HETATM    4  C   UNK     0     -68.479 -25.525   0.247  0.00  0.00     0.189 C 
HETATM    5  C   UNK     0     -65.596 -25.334   0.206  0.00  0.00     0.299 C 
HETATM    6  C   UNK     0     -67.569 -25.744   1.448  0.00  0.00     0.253 C 
ENDROOT
BRANCH   5   7
HETATM    7  O   UNK     0     -64.327 -25.882  -0.145  0.00  0.00    -0.315 OA
BRANCH   7   8
HETATM    8  C   UNK     0     -63.234 -25.329   0.455  0.00  0.00     0.111 A 
HETATM    9  C   UNK     0     -62.447 -24.399  -0.226  0.00  0.00     0.137 A 
HETATM   10  C   UNK     0     -61.332 -23.842   0.402  0.00  0.00     0.129 A 
HETATM   11  O   UNK     0     -60.597 -22.934  -0.317  0.00  0.00    -0.306 OA
HETATM   12  C   UNK     0     -61.009 -24.215   1.705  0.00  0.00     0.084 A 
HETATM   13  C   UNK     0     -59.488 -22.359   0.284  0.00  0.00     0.090 A 
HETATM   14  C   UNK     0     -59.070 -22.641   1.529  0.00  0.00     0.094 A 
HETATM   15  C   UNK     0     -59.827 -23.613   2.343  0.00  0.00     0.190 A 
HETATM   16  O   UNK     0     -59.484 -23.896   3.483  0.00  0.00    -0.287 OA
HETATM   17  C   UNK     0     -61.794 -25.145   2.389  0.00  0.00     0.085 A 
HETATM   18  C   UNK     0     -62.907 -25.701   1.759  0.00  0.00     0.077 A 
BRANCH   9  19
HETATM   19  O   UNK     0     -62.770 -24.039  -1.502  0.00  0.00    -0.351 OA
HETATM   20  C   UNK     0     -62.267 -24.859  -2.553  0.00  0.00     0.210 C 
ENDBRANCH   9  19
BRANCH  13  21
HETATM   21  C   UNK     0     -58.766 -21.403  -0.579  0.00  0.00    -0.002 A 
HETATM   22  C   UNK     0     -58.674 -21.630  -1.955  0.00  0.00     0.014 A 
HETATM   23  C   UNK     0     -57.993 -20.726  -2.771  0.00  0.00     0.001 A 
HETATM   24  C   UNK     0     -57.402 -19.592  -2.214  0.00  0.00     0.000 A 
HETATM   25  C   UNK     0     -57.492 -19.362  -0.841  0.00  0.00     0.001 A 
HETATM   26  C   UNK     0     -58.173 -20.266  -0.025  0.00  0.00     0.014 A 
ENDBRANCH  13  21
BRANCH  17  27
HETATM   27  O   UNK     0     -61.518 -25.543   3.663  0.00  0.00    -0.360 OA
HETATM   28  H   UNK     0     -61.197 -26.457   3.672  0.00  0.00     0.217 HD
ENDBRANCH  17  27
ENDBRANCH   7   8
ENDBRANCH   5   7
BRANCH   6  29
HETATM   29  C   UNK     0     -68.101 -26.823   2.334  0.00  0.00     0.172 C 
HETATM   30  O   UNK     0     -69.179 -26.791   2.910  0.00  0.00    -0.648 OA
BRANCH  29  31
HETATM   31  O   UNK     0     -67.221 -27.850   2.421  0.00  0.00    -0.774 OA
HETATM   32  H   UNK     0     -66.344 -27.556   2.746  0.00  0.00     0.167 HD
ENDBRANCH  29  31
ENDBRANCH   6  29
BRANCH   3  33
HETATM   33  O   UNK     0     -65.699 -24.078  -1.832  0.00  0.00    -0.388 OA
HETATM   34  H   UNK     0     -65.596 -23.302  -1.255  0.00  0.00     0.210 HD
ENDBRANCH   3  33
BRANCH   4  35
HETATM   35  O   UNK     0     -69.684 -24.904   0.692  0.00  0.00    -0.390 OA
HETATM   36  H   UNK     0     -69.446 -24.089   1.165  0.00  0.00     0.210 HD
ENDBRANCH   4  35
BRANCH   2  37
HETATM   37  O   UNK     0     -68.579 -24.670  -1.987  0.00  0.00    -0.390 OA
HETATM   38  H   UNK     0     -68.193 -25.352  -2.562  0.00  0.00     0.210 HD
ENDBRANCH   2  37
TORSDOF 10
ENDMDL
MODEL 5
REMARK VINA RESULT:      -8.7      5.274      9.525
REMARK  10 active torsions:
REMARK  status: ('A' for Active; 'I' for Inactive)
REMARK    1  A    between atoms: O_2  and  C_15 
REMARK    2  A    between atoms: O_2  and  C_18 
REMARK    3  A    between atoms: O_3  and  C_12 
REMARK    4  A    between atoms: O_4  and  C_13 
REMARK    5  A    between atoms: O_5  and  C_14 
REMARK    6  A    between atoms: O_6  and  C_17 
REMARK    7  A    between atoms: O_9  and  C_19 
REMARK    8  A    between atoms: O_10  and  C_23 
REMARK    9  A    between atoms: C_16  and  C_17 
REMARK   10  A    between atoms: C_25  and  C_27 
ROOT
HETATM    1  O   UNK     0     -69.106 -27.154   1.180  0.00  0.00    -0.340 OA
HETATM    2  C   UNK     0     -70.615 -25.084  -0.122  0.00  0.00     0.183 C 
HETATM    3  C   UNK     0     -69.255 -25.554  -0.639  0.00  0.00     0.205 C 
HETATM    4  C   UNK     0     -71.277 -26.148   0.754  0.00  0.00     0.189 C 
HETATM    5  C   UNK     0     -68.399 -26.123   0.494  0.00  0.00     0.299 C 
HETATM    6  C   UNK     0     -70.298 -26.677   1.794  0.00  0.00     0.253 C 
ENDROOT
BRANCH   5   7
HETATM    7  O   UNK     0     -67.207 -26.656  -0.079  0.00  0.00    -0.315 OA
BRANCH   7   8
HETATM    8  C   UNK     0     -66.118 -26.737   0.739  0.00  0.00     0.111 A 
HETATM    9  C   UNK     0     -65.100 -25.786   0.658  0.00  0.00     0.137 A 
HETATM   10  C   UNK     0     -63.992 -25.882   1.503  0.00  0.00     0.129 A 
HETATM   11  O   UNK     0     -63.024 -24.919   1.378  0.00  0.00    -0.306 OA
HETATM   12  C   UNK     0     -63.907 -26.926   2.422  0.00  0.00     0.084 A 
HETATM   13  C   UNK     0     -61.916 -24.985   2.208  0.00  0.00     0.090 A 
HETATM   14  C   UNK     0     -61.715 -25.944   3.127  0.00  0.00     0.094 A 
HETATM   15  C   UNK     0     -62.728 -27.005   3.299  0.00  0.00     0.190 A 
HETATM   16  O   UNK     0     -62.587 -27.894   4.127  0.00  0.00    -0.287 OA
HETATM   17  C   UNK     0     -64.924 -27.880   2.505  0.00  0.00     0.085 A 
HETATM   18  C   UNK     0     -66.029 -27.781   1.660  0.00  0.00     0.077 A 
BRANCH   9  19
HETATM   19  O   UNK     0     -65.191 -24.767  -0.244  0.00  0.00    -0.351 OA
HETATM   20  C   UNK     0     -64.738 -25.033  -1.569  0.00  0.00     0.210 C 
ENDBRANCH   9  19
BRANCH  13  21
HETATM   21  C   UNK     0     -60.934 -23.905   1.985  0.00  0.00    -0.002 A 
HETATM   22  C   UNK     0     -60.760 -23.367   0.707  0.00  0.00     0.014 A 
HETATM   23  C   UNK     0     -59.833 -22.346   0.497  0.00  0.00     0.001 A 
HETATM   24  C   UNK     0     -59.076 -21.860   1.563  0.00  0.00     0.000 A 
HETATM   25  C   UNK     0     -59.247 -22.395   2.840  0.00  0.00     0.001 A 
HETATM   26  C   UNK     0     -60.174 -23.416   3.051  0.00  0.00     0.014 A 
ENDBRANCH  13  21
BRANCH  17  27
HETATM   27  O   UNK     0     -64.886 -28.919   3.386  0.00  0.00    -0.360 OA
HETATM   28  H   UNK     0     -65.711 -28.966   3.891  0.00  0.00     0.217 HD
ENDBRANCH  17  27
ENDBRANCH   7   8
ENDBRANCH   5   7
BRANCH   6  29
HETATM   29  C   UNK     0     -70.844 -27.890   2.475  0.00  0.00     0.172 C 
HETATM   30  O   UNK     0     -70.761 -29.032   2.046  0.00  0.00    -0.648 OA
BRANCH  29  31
HETATM   31  O   UNK     0     -71.452 -27.554   3.638  0.00  0.00    -0.774 OA
HETATM   32  H   UNK     0     -72.384 -27.861   3.667  0.00  0.00     0.167 HD
ENDBRANCH  29  31
ENDBRANCH   6  29
BRANCH   3  33
HETATM   33  O   UNK     0     -68.558 -24.449  -1.213  0.00  0.00    -0.388 OA
HETATM   34  H   UNK     0     -69.210 -23.752  -1.395  0.00  0.00     0.210 HD
ENDBRANCH   3  33
BRANCH   4  35
HETATM   35  O   UNK     0     -72.393 -25.568   1.428  0.00  0.00    -0.390 OA
HETATM   36  H   UNK     0     -72.061 -24.863   2.009  0.00  0.00     0.210 HD
ENDBRANCH   4  35
BRANCH   2  37
HETATM   37  O   UNK     0     -71.479 -24.822  -1.229  0.00  0.00    -0.390 OA
HETATM   38  H   UNK     0     -71.603 -23.859  -1.286  0.00  0.00     0.210 HD
ENDBRANCH   2  37
TORSDOF 10
ENDMDL
MODEL 6
REMARK VINA RESULT:      -8.7      8.614     11.673
REMARK  10 active torsions:
REMARK  status: ('A' for Active; 'I' for Inactive)
REMARK    1  A    between atoms: O_2  and  C_15 
REMARK    2  A    between atoms: O_2  and  C_18 
REMARK    3  A    between atoms: O_3  and  C_12 
REMARK    4  A    between atoms: O_4  and  C_13 
REMARK    5  A    between atoms: O_5  and  C_14 
REMARK    6  A    between atoms: O_6  and  C_17 
REMARK    7  A    between atoms: O_9  and  C_19 
REMARK    8  A    between atoms: O_10  and  C_23 
REMARK    9  A    between atoms: C_16  and  C_17 
REMARK   10  A    between atoms: C_25  and  C_27 
ROOT
HETATM    1  O   UNK     0     -60.616 -25.086  -0.001  0.00  0.00    -0.340 OA
HETATM    2  C   UNK     0     -62.850 -26.126   1.477  0.00  0.00     0.183 C 
HETATM    3  C   UNK     0     -63.019 -25.125   0.334  0.00  0.00     0.205 C 
HETATM    4  C   UNK     0     -61.523 -26.878   1.368  0.00  0.00     0.189 C 
HETATM    5  C   UNK     0     -61.768 -24.262   0.164  0.00  0.00     0.299 C 
HETATM    6  C   UNK     0     -60.371 -25.909   1.133  0.00  0.00     0.253 C 
ENDROOT
BRANCH   5   7
HETATM    7  O   UNK     0     -61.948 -23.448  -0.993  0.00  0.00    -0.315 OA
BRANCH   7   8
HETATM    8  C   UNK     0     -60.898 -22.654  -1.352  0.00  0.00     0.111 A 
HETATM    9  C   UNK     0     -60.126 -22.965  -2.472  0.00  0.00     0.137 A 
HETATM   10  C   UNK     0     -59.055 -22.143  -2.826  0.00  0.00     0.129 A 
HETATM   11  O   UNK     0     -58.332 -22.499  -3.936  0.00  0.00    -0.306 OA
HETATM   12  C   UNK     0     -58.761 -21.015  -2.061  0.00  0.00     0.084 A 
HETATM   13  C   UNK     0     -57.267 -21.697  -4.316  0.00  0.00     0.090 A 
HETATM   14  C   UNK     0     -56.881 -20.591  -3.659  0.00  0.00     0.094 A 
HETATM   15  C   UNK     0     -57.626 -20.167  -2.456  0.00  0.00     0.190 A 
HETATM   16  O   UNK     0     -57.310 -19.164  -1.831  0.00  0.00    -0.287 OA
HETATM   17  C   UNK     0     -59.532 -20.701  -0.940  0.00  0.00     0.085 A 
HETATM   18  C   UNK     0     -60.601 -21.525  -0.588  0.00  0.00     0.077 A 
BRANCH   9  19
HETATM   19  O   UNK     0     -60.420 -24.071  -3.216  0.00  0.00    -0.351 OA
HETATM   20  C   UNK     0     -61.335 -23.899  -4.295  0.00  0.00     0.210 C 
ENDBRANCH   9  19
BRANCH  13  21
HETATM   21  C   UNK     0     -56.555 -22.175  -5.518  0.00  0.00    -0.002 A 
HETATM   22  C   UNK     0     -55.258 -21.731  -5.788  0.00  0.00     0.014 A 
HETATM   23  C   UNK     0     -54.584 -22.183  -6.923  0.00  0.00     0.001 A 
HETATM   24  C   UNK     0     -55.205 -23.080  -7.791  0.00  0.00     0.000 A 
HETATM   25  C   UNK     0     -56.500 -23.526  -7.525  0.00  0.00     0.001 A 
HETATM   26  C   UNK     0     -57.174 -23.074  -6.390  0.00  0.00     0.014 A 
ENDBRANCH  13  21
BRANCH  17  27
HETATM   27  O   UNK     0     -59.284 -19.611  -0.161  0.00  0.00    -0.360 OA
HETATM   28  H   UNK     0     -60.099 -19.112  -0.006  0.00  0.00     0.217 HD
ENDBRANCH  17  27
ENDBRANCH   7   8
ENDBRANCH   5   7
BRANCH   6  29
HETATM   29  C   UNK     0     -59.121 -26.641   0.764  0.00  0.00     0.172 C 
HETATM   30  O   UNK     0     -58.619 -26.654  -0.351  0.00  0.00    -0.648 OA
BRANCH  29  31
HETATM   31  O   UNK     0     -58.616 -27.298   1.836  0.00  0.00    -0.774 OA
HETATM   32  H   UNK     0     -57.843 -27.851   1.596  0.00  0.00     0.167 HD
ENDBRANCH  29  31
ENDBRANCH   6  29
BRANCH   3  33
HETATM   33  O   UNK     0     -64.120 -24.264   0.619  0.00  0.00    -0.388 OA
HETATM   34  H   UNK     0     -63.914 -23.389   0.248  0.00  0.00     0.210 HD
ENDBRANCH   3  33
BRANCH   4  35
HETATM   35  O   UNK     0     -61.285 -27.585   2.584  0.00  0.00    -0.390 OA
HETATM   36  H   UNK     0     -60.700 -27.042   3.139  0.00  0.00     0.210 HD
ENDBRANCH   4  35
BRANCH   2  37
HETATM   37  O   UNK     0     -63.906 -27.086   1.429  0.00  0.00    -0.390 OA
HETATM   38  H   UNK     0     -64.748 -26.603   1.489  0.00  0.00     0.210 HD
ENDBRANCH   2  37
TORSDOF 10
ENDMDL
MODEL 7
REMARK VINA RESULT:      -8.6      7.517     11.887
REMARK  10 active torsions:
REMARK  status: ('A' for Active; 'I' for Inactive)
REMARK    1  A    between atoms: O_2  and  C_15 
REMARK    2  A    between atoms: O_2  and  C_18 
REMARK    3  A    between atoms: O_3  and  C_12 
REMARK    4  A    between atoms: O_4  and  C_13 
REMARK    5  A    between atoms: O_5  and  C_14 
REMARK    6  A    between atoms: O_6  and  C_17 
REMARK    7  A    between atoms: O_9  and  C_19 
REMARK    8  A    between atoms: O_10  and  C_23 
REMARK    9  A    between atoms: C_16  and  C_17 
REMARK   10  A    between atoms: C_25  and  C_27 
ROOT
HETATM    1  O   UNK     0     -59.750 -21.549  -1.699  0.00  0.00    -0.340 OA
HETATM    2  C   UNK     0     -58.729 -20.552  -4.192  0.00  0.00     0.183 C 
HETATM    3  C   UNK     0     -58.853 -22.047  -3.898  0.00  0.00     0.205 C 
HETATM    4  C   UNK     0     -59.665 -19.729  -3.307  0.00  0.00     0.189 C 
HETATM    5  C   UNK     0     -58.776 -22.323  -2.396  0.00  0.00     0.299 C 
HETATM    6  C   UNK     0     -59.538 -20.150  -1.848  0.00  0.00     0.253 C 
ENDROOT
BRANCH   5   7
HETATM    7  O   UNK     0     -59.028 -23.712  -2.190  0.00  0.00    -0.315 OA
BRANCH   7   8
HETATM    8  C   UNK     0     -59.750 -24.045  -1.081  0.00  0.00     0.111 A 
HETATM    9  C   UNK     0     -61.141 -24.139  -1.143  0.00  0.00     0.137 A 
HETATM   10  C   UNK     0     -61.865 -24.481   0.000  0.00  0.00     0.129 A 
HETATM   11  O   UNK     0     -63.228 -24.557  -0.122  0.00  0.00    -0.306 OA
HETATM   12  C   UNK     0     -61.197 -24.728   1.199  0.00  0.00     0.084 A 
HETATM   13  C   UNK     0     -63.973 -24.902   0.996  0.00  0.00     0.090 A 
HETATM   14  C   UNK     0     -63.449 -25.156   2.205  0.00  0.00     0.094 A 
HETATM   15  C   UNK     0     -61.985 -25.085   2.389  0.00  0.00     0.190 A 
HETATM   16  O   UNK     0     -61.465 -25.313   3.473  0.00  0.00    -0.287 OA
HETATM   17  C   UNK     0     -59.805 -24.635   1.264  0.00  0.00     0.085 A 
HETATM   18  C   UNK     0     -59.084 -24.292   0.120  0.00  0.00     0.077 A 
BRANCH   9  19
HETATM   19  O   UNK     0     -61.787 -23.896  -2.320  0.00  0.00    -0.351 OA
HETATM   20  C   UNK     0     -61.920 -24.992  -3.223  0.00  0.00     0.210 C 
ENDBRANCH   9  19
BRANCH  13  21
HETATM   21  C   UNK     0     -65.429 -24.948   0.755  0.00  0.00    -0.002 A 
HETATM   22  C   UNK     0     -66.321 -24.865   1.828  0.00  0.00     0.014 A 
HETATM   23  C   UNK     0     -67.696 -24.907   1.601  0.00  0.00     0.001 A 
HETATM   24  C   UNK     0     -68.186 -25.034   0.302  0.00  0.00     0.000 A 
HETATM   25  C   UNK     0     -67.299 -25.118  -0.772  0.00  0.00     0.001 A 
HETATM   26  C   UNK     0     -65.923 -25.075  -0.546  0.00  0.00     0.014 A 
ENDBRANCH  13  21
BRANCH  17  27
HETATM   27  O   UNK     0     -59.108 -24.865   2.412  0.00  0.00    -0.360 OA
HETATM   28  H   UNK     0     -59.099 -25.811   2.620  0.00  0.00     0.217 HD
ENDBRANCH  17  27
ENDBRANCH   7   8
ENDBRANCH   5   7
BRANCH   6  29
HETATM   29  C   UNK     0     -60.625 -19.546  -1.020  0.00  0.00     0.172 C 
HETATM   30  O   UNK     0     -60.916 -18.359  -1.002  0.00  0.00    -0.648 OA
BRANCH  29  31
HETATM   31  O   UNK     0     -61.248 -20.495  -0.280  0.00  0.00    -0.774 OA
HETATM   32  H   UNK     0     -62.195 -20.585  -0.520  0.00  0.00     0.167 HD
ENDBRANCH  29  31
ENDBRANCH   6  29
BRANCH   3  33
HETATM   33  O   UNK     0     -57.785 -22.745  -4.536  0.00  0.00    -0.388 OA
HETATM   34  H   UNK     0     -58.030 -23.685  -4.576  0.00  0.00     0.210 HD
ENDBRANCH   3  33
BRANCH   4  35
HETATM   35  O   UNK     0     -59.319 -18.349  -3.417  0.00  0.00    -0.390 OA
HETATM   36  H   UNK     0     -58.943 -18.202  -4.301  0.00  0.00     0.210 HD
ENDBRANCH   4  35
BRANCH   2  37
HETATM   37  O   UNK     0     -59.079 -20.304  -5.555  0.00  0.00    -0.390 OA
HETATM   38  H   UNK     0     -59.721 -19.575  -5.568  0.00  0.00     0.210 HD
ENDBRANCH   2  37
TORSDOF 10
ENDMDL
MODEL 8
REMARK VINA RESULT:      -8.4      3.545      9.190
REMARK  10 active torsions:
REMARK  status: ('A' for Active; 'I' for Inactive)
REMARK    1  A    between atoms: O_2  and  C_15 
REMARK    2  A    between atoms: O_2  and  C_18 
REMARK    3  A    between atoms: O_3  and  C_12 
REMARK    4  A    between atoms: O_4  and  C_13 
REMARK    5  A    between atoms: O_5  and  C_14 
REMARK    6  A    between atoms: O_6  and  C_17 
REMARK    7  A    between atoms: O_9  and  C_19 
REMARK    8  A    between atoms: O_10  and  C_23 
REMARK    9  A    between atoms: C_16  and  C_17 
REMARK   10  A    between atoms: C_25  and  C_27 
ROOT
HETATM    1  O   UNK     0     -69.544 -27.717   1.710  0.00  0.00    -0.340 OA
HETATM    2  C   UNK     0     -70.305 -25.667  -0.154  0.00  0.00     0.183 C 
HETATM    3  C   UNK     0     -69.073 -26.547  -0.364  0.00  0.00     0.205 C 
HETATM    4  C   UNK     0     -71.313 -26.331   0.783  0.00  0.00     0.189 C 
HETATM    5  C   UNK     0     -68.521 -27.054   0.969  0.00  0.00     0.299 C 
HETATM    6  C   UNK     0     -70.622 -26.850   2.039  0.00  0.00     0.253 C 
ENDROOT
BRANCH   5   7
HETATM    7  O   UNK     0     -67.461 -27.967   0.689  0.00  0.00    -0.315 OA
BRANCH   7   8
HETATM    8  C   UNK     0     -66.437 -28.009   1.589  0.00  0.00     0.111 A 
HETATM    9  C   UNK     0     -66.239 -29.139   2.384  0.00  0.00     0.137 A 
HETATM   10  C   UNK     0     -65.186 -29.167   3.301  0.00  0.00     0.129 A 
HETATM   11  O   UNK     0     -65.042 -30.303   4.054  0.00  0.00    -0.306 OA
HETATM   12  C   UNK     0     -64.337 -28.068   3.418  0.00  0.00     0.084 A 
HETATM   13  C   UNK     0     -64.001 -30.363   4.967  0.00  0.00     0.090 A 
HETATM   14  C   UNK     0     -63.122 -29.369   5.178  0.00  0.00     0.094 A 
HETATM   15  C   UNK     0     -63.236 -28.124   4.393  0.00  0.00     0.190 A 
HETATM   16  O   UNK     0     -62.454 -27.196   4.550  0.00  0.00    -0.287 OA
HETATM   17  C   UNK     0     -64.532 -26.936   2.624  0.00  0.00     0.085 A 
HETATM   18  C   UNK     0     -65.585 -26.911   1.710  0.00  0.00     0.077 A 
BRANCH   9  19
HETATM   19  O   UNK     0     -67.074 -30.211   2.263  0.00  0.00    -0.351 OA
HETATM   20  C   UNK     0     -66.717 -31.204   1.304  0.00  0.00     0.210 C 
ENDBRANCH   9  19
BRANCH  13  21
HETATM   21  C   UNK     0     -63.942 -31.626   5.729  0.00  0.00    -0.002 A 
HETATM   22  C   UNK     0     -64.950 -31.943   6.644  0.00  0.00     0.014 A 
HETATM   23  C   UNK     0     -64.895 -33.137   7.362  0.00  0.00     0.001 A 
HETATM   24  C   UNK     0     -63.832 -34.019   7.170  0.00  0.00     0.000 A 
HETATM   25  C   UNK     0     -62.823 -33.706   6.258  0.00  0.00     0.001 A 
HETATM   26  C   UNK     0     -62.878 -32.512   5.539  0.00  0.00     0.014 A 
ENDBRANCH  13  21
BRANCH  17  27
HETATM   27  O   UNK     0     -63.730 -25.837   2.703  0.00  0.00    -0.360 OA
HETATM   28  H   UNK     0     -63.721 -25.488   3.606  0.00  0.00     0.217 HD
ENDBRANCH  17  27
ENDBRANCH   7   8
ENDBRANCH   5   7
BRANCH   6  29
HETATM   29  C   UNK     0     -71.538 -27.725   2.831  0.00  0.00     0.172 C 
HETATM   30  O   UNK     0     -71.416 -28.935   2.959  0.00  0.00    -0.648 OA
BRANCH  29  31
HETATM   31  O   UNK     0     -72.534 -26.996   3.390  0.00  0.00    -0.774 OA
HETATM   32  H   UNK     0     -73.233 -27.565   3.777  0.00  0.00     0.167 HD
ENDBRANCH  29  31
ENDBRANCH   6  29
BRANCH   3  33
HETATM   33  O   UNK     0     -68.052 -25.788  -1.010  0.00  0.00    -0.388 OA
HETATM   34  H   UNK     0     -67.283 -25.763  -0.417  0.00  0.00     0.210 HD
ENDBRANCH   3  33
BRANCH   4  35
HETATM   35  O   UNK     0     -72.298 -25.372   1.165  0.00  0.00    -0.390 OA
HETATM   36  H   UNK     0     -73.016 -25.401   0.511  0.00  0.00     0.210 HD
ENDBRANCH   4  35
BRANCH   2  37
HETATM   37  O   UNK     0     -70.949 -25.443  -1.409  0.00  0.00    -0.390 OA
HETATM   38  H   UNK     0     -70.399 -24.822  -1.917  0.00  0.00     0.210 HD
ENDBRANCH   2  37
TORSDOF 10
ENDMDL
MODEL 9
REMARK VINA RESULT:      -8.3      3.889      9.839
REMARK  10 active torsions:
REMARK  status: ('A' for Active; 'I' for Inactive)
REMARK    1  A    between atoms: O_2  and  C_15 
REMARK    2  A    between atoms: O_2  and  C_18 
REMARK    3  A    between atoms: O_3  and  C_12 
REMARK    4  A    between atoms: O_4  and  C_13 
REMARK    5  A    between atoms: O_5  and  C_14 
REMARK    6  A    between atoms: O_6  and  C_17 
REMARK    7  A    between atoms: O_9  and  C_19 
REMARK    8  A    between atoms: O_10  and  C_23 
REMARK    9  A    between atoms: C_16  and  C_17 
REMARK   10  A    between atoms: C_25  and  C_27 
ROOT
HETATM    1  O   UNK     0     -69.413 -27.240   1.203  0.00  0.00    -0.340 OA
HETATM    2  C   UNK     0     -70.787 -25.239  -0.333  0.00  0.00     0.183 C 
HETATM    3  C   UNK     0     -69.480 -25.878  -0.803  0.00  0.00     0.205 C 
HETATM    4  C   UNK     0     -71.509 -26.127   0.681  0.00  0.00     0.189 C 
HETATM    5  C   UNK     0     -68.645 -26.365   0.381  0.00  0.00     0.299 C 
HETATM    6  C   UNK     0     -70.549 -26.596   1.767  0.00  0.00     0.253 C 
ENDROOT
BRANCH   5   7
HETATM    7  O   UNK     0     -67.511 -27.060  -0.135  0.00  0.00    -0.315 OA
BRANCH   7   8
HETATM    8  C   UNK     0     -67.328 -28.340   0.300  0.00  0.00     0.111 A 
HETATM    9  C   UNK     0     -66.735 -28.589   1.538  0.00  0.00     0.137 A 
HETATM   10  C   UNK     0     -66.556 -29.904   1.969  0.00  0.00     0.129 A 
HETATM   11  O   UNK     0     -65.967 -30.087   3.194  0.00  0.00    -0.306 OA
HETATM   12  C   UNK     0     -66.968 -30.963   1.163  0.00  0.00     0.084 A 
HETATM   13  C   UNK     0     -65.782 -31.382   3.652  0.00  0.00     0.090 A 
HETATM   14  C   UNK     0     -66.130 -32.483   2.967  0.00  0.00     0.094 A 
HETATM   15  C   UNK     0     -66.765 -32.340   1.641  0.00  0.00     0.190 A 
HETATM   16  O   UNK     0     -67.101 -33.316   0.985  0.00  0.00    -0.287 OA
HETATM   17  C   UNK     0     -67.562 -30.718  -0.077  0.00  0.00     0.085 A 
HETATM   18  C   UNK     0     -67.740 -29.402  -0.506  0.00  0.00     0.077 A 
BRANCH   9  19
HETATM   19  O   UNK     0     -66.334 -27.547   2.323  0.00  0.00    -0.351 OA
HETATM   20  C   UNK     0     -65.016 -27.047   2.110  0.00  0.00     0.210 C 
ENDBRANCH   9  19
BRANCH  13  21
HETATM   21  C   UNK     0     -65.135 -31.464   4.977  0.00  0.00    -0.002 A 
HETATM   22  C   UNK     0     -64.072 -30.614   5.293  0.00  0.00     0.014 A 
HETATM   23  C   UNK     0     -63.462 -30.691   6.545  0.00  0.00     0.001 A 
HETATM   24  C   UNK     0     -63.912 -31.618   7.485  0.00  0.00     0.000 A 
HETATM   25  C   UNK     0     -64.973 -32.469   7.173  0.00  0.00     0.001 A 
HETATM   26  C   UNK     0     -65.584 -32.392   5.921  0.00  0.00     0.014 A 
ENDBRANCH  13  21
BRANCH  17  27
HETATM   27  O   UNK     0     -67.981 -31.719  -0.901  0.00  0.00    -0.360 OA
HETATM   28  H   UNK     0     -68.656 -31.393  -1.515  0.00  0.00     0.217 HD
ENDBRANCH  17  27
ENDBRANCH   7   8
ENDBRANCH   5   7
BRANCH   6  29
HETATM   29  C   UNK     0     -71.171 -27.666   2.605  0.00  0.00     0.172 C 
HETATM   30  O   UNK     0     -70.952 -28.863   2.490  0.00  0.00    -0.648 OA
BRANCH  29  31
HETATM   31  O   UNK     0     -72.019 -27.130   3.515  0.00  0.00    -0.774 OA
HETATM   32  H   UNK     0     -72.958 -27.311   3.294  0.00  0.00     0.167 HD
ENDBRANCH  29  31
ENDBRANCH   6  29
BRANCH   3  33
HETATM   33  O   UNK     0     -68.714 -24.914  -1.524  0.00  0.00    -0.388 OA
HETATM   34  H   UNK     0     -67.874 -24.790  -1.050  0.00  0.00     0.210 HD
ENDBRANCH   3  33
BRANCH   4  35
HETATM   35  O   UNK     0     -72.560 -25.380   1.291  0.00  0.00    -0.390 OA
HETATM   36  H   UNK     0     -72.796 -24.649   0.695  0.00  0.00     0.210 HD
ENDBRANCH   4  35
BRANCH   2  37
HETATM   37  O   UNK     0     -71.655 -25.051  -1.453  0.00  0.00    -0.390 OA
HETATM   38  H   UNK     0     -71.126 -24.676  -2.177  0.00  0.00     0.210 HD
ENDBRANCH   2  37
TORSDOF 10
ENDMDL
MODEL 10
REMARK VINA RESULT:      -8.2     16.615     19.393
REMARK  10 active torsions:
REMARK  status: ('A' for Active; 'I' for Inactive)
REMARK    1  A    between atoms: O_2  and  C_15 
REMARK    2  A    between atoms: O_2  and  C_18 
REMARK    3  A    between atoms: O_3  and  C_12 
REMARK    4  A    between atoms: O_4  and  C_13 
REMARK    5  A    between atoms: O_5  and  C_14 
REMARK    6  A    between atoms: O_6  and  C_17 
REMARK    7  A    between atoms: O_9  and  C_19 
REMARK    8  A    between atoms: O_10  and  C_23 
REMARK    9  A    between atoms: C_16  and  C_17 
REMARK   10  A    between atoms: C_25  and  C_27 
ROOT
HETATM    1  O   UNK     0     -54.932 -22.056 -10.710  0.00  0.00    -0.340 OA
HETATM    2  C   UNK     0     -54.392 -24.721  -9.781  0.00  0.00     0.183 C 
HETATM    3  C   UNK     0     -55.722 -24.015  -9.516  0.00  0.00     0.205 C 
HETATM    4  C   UNK     0     -53.668 -24.114 -10.984  0.00  0.00     0.189 C 
HETATM    5  C   UNK     0     -55.550 -22.496  -9.502  0.00  0.00     0.299 C 
HETATM    6  C   UNK     0     -53.626 -22.595 -10.878  0.00  0.00     0.253 C 
ENDROOT
BRANCH   5   7
HETATM    7  O   UNK     0     -56.843 -21.907  -9.380  0.00  0.00    -0.315 OA
BRANCH   7   8
HETATM    8  C   UNK     0     -56.961 -20.866  -8.506  0.00  0.00     0.111 A 
HETATM    9  C   UNK     0     -56.962 -19.549  -8.968  0.00  0.00     0.137 A 
HETATM   10  C   UNK     0     -57.084 -18.496  -8.060  0.00  0.00     0.129 A 
HETATM   11  O   UNK     0     -57.078 -17.224  -8.573  0.00  0.00    -0.306 OA
HETATM   12  C   UNK     0     -57.204 -18.762  -6.698  0.00  0.00     0.084 A 
HETATM   13  C   UNK     0     -57.205 -16.158  -7.696  0.00  0.00     0.090 A 
HETATM   14  C   UNK     0     -57.320 -16.284  -6.364  0.00  0.00     0.094 A 
HETATM   15  C   UNK     0     -57.330 -17.633  -5.763  0.00  0.00     0.190 A 
HETATM   16  O   UNK     0     -57.438 -17.792  -4.555  0.00  0.00    -0.287 OA
HETATM   17  C   UNK     0     -57.204 -20.078  -6.232  0.00  0.00     0.085 A 
HETATM   18  C   UNK     0     -57.082 -21.129  -7.141  0.00  0.00     0.077 A 
BRANCH   9  19
HETATM   19  O   UNK     0     -56.844 -19.297 -10.304  0.00  0.00    -0.351 OA
HETATM   20  C   UNK     0     -58.048 -19.277 -11.067  0.00  0.00     0.210 C 
ENDBRANCH   9  19
BRANCH  13  21
HETATM   21  C   UNK     0     -57.179 -14.835  -8.352  0.00  0.00    -0.002 A 
HETATM   22  C   UNK     0     -58.277 -13.977  -8.245  0.00  0.00     0.014 A 
HETATM   23  C   UNK     0     -58.252 -12.727  -8.863  0.00  0.00     0.001 A 
HETATM   24  C   UNK     0     -57.131 -12.330  -9.591  0.00  0.00     0.000 A 
HETATM   25  C   UNK     0     -56.033 -13.184  -9.701  0.00  0.00     0.001 A 
HETATM   26  C   UNK     0     -56.057 -14.435  -9.082  0.00  0.00     0.014 A 
ENDBRANCH  13  21
BRANCH  17  27
HETATM   27  O   UNK     0     -57.318 -20.389  -4.910  0.00  0.00    -0.360 OA
HETATM   28  H   UNK     0     -57.513 -19.596  -4.390  0.00  0.00     0.217 HD
ENDBRANCH  17  27
ENDBRANCH   7   8
ENDBRANCH   5   7
BRANCH   6  29
HETATM   29  C   UNK     0     -53.163 -21.981 -12.160  0.00  0.00     0.172 C 
HETATM   30  O   UNK     0     -53.833 -21.239 -12.865  0.00  0.00    -0.648 OA
BRANCH  29  31
HETATM   31  O   UNK     0     -51.895 -22.363 -12.444  0.00  0.00    -0.774 OA
HETATM   32  H   UNK     0     -51.308 -21.595 -12.609  0.00  0.00     0.167 HD
ENDBRANCH  29  31
ENDBRANCH   6  29
BRANCH   3  33
HETATM   33  O   UNK     0     -56.226 -24.419  -8.244  0.00  0.00    -0.388 OA
HETATM   34  H   UNK     0     -55.470 -24.700  -7.702  0.00  0.00     0.210 HD
ENDBRANCH   3  33
BRANCH   4  35
HETATM   35  O   UNK     0     -52.330 -24.607 -11.022  0.00  0.00    -0.390 OA
HETATM   36  H   UNK     0     -51.759 -23.965 -10.567  0.00  0.00     0.210 HD
ENDBRANCH   4  35
BRANCH   2  37
HETATM   37  O   UNK     0     -54.632 -26.101 -10.060  0.00  0.00    -0.390 OA
HETATM   38  H   UNK     0     -54.074 -26.625  -9.461  0.00  0.00     0.210 HD
ENDBRANCH   2  37
TORSDOF 10
ENDMDL
