MODEL 1
REMARK VINA RESULT:      -9.5      0.000      0.000
REMARK  10 active torsions:
REMARK  status: ('A' for Active; 'I' for Inactive)
REMARK    1  A    between atoms: O_2  and  C_15 
REMARK    2  A    between atoms: O_2  and  C_18 
REMARK    3  A    between atoms: O_3  and  C_12 
REMARK    4  A    between atoms: O_4  and  C_13 
REMARK    5  A    between atoms: O_5  and  C_14 
REMARK    6  A    between atoms: O_6  and  C_17 
REMARK    7  A    between atoms: O_9  and  C_20 
REMARK    8  A    between atoms: O_10  and  C_23 
REMARK    9  A    between atoms: C_16  and  C_17 
REMARK   10  A    between atoms: C_25  and  C_27 
ROOT
HETATM    1  O   UNK     0     -56.747 -20.035  -2.891  0.00  0.00    -0.340 OA
HETATM    2  C   UNK     0     -59.164 -18.879  -3.929  0.00  0.00     0.183 C 
HETATM    3  C   UNK     0     -58.619 -18.531  -2.543  0.00  0.00     0.205 C 
HETATM    4  C   UNK     0     -58.066 -19.425  -4.840  0.00  0.00     0.189 C 
HETATM    5  C   UNK     0     -57.779 -19.675  -1.976  0.00  0.00     0.299 C 
HETATM    6  C   UNK     0     -57.264 -20.509  -4.130  0.00  0.00     0.253 C 
ENDROOT
BRANCH   5   7
HETATM    7  O   UNK     0     -57.201 -19.231  -0.748  0.00  0.00    -0.315 OA
BRANCH   7   8
HETATM    8  C   UNK     0     -57.612 -19.866   0.386  0.00  0.00     0.110 A 
HETATM    9  C   UNK     0     -58.430 -20.992   0.281  0.00  0.00     0.078 A 
HETATM   10  C   UNK     0     -58.856 -21.650   1.436  0.00  0.00     0.096 A 
HETATM   11  O   UNK     0     -59.658 -22.750   1.269  0.00  0.00    -0.309 OA
HETATM   12  C   UNK     0     -58.466 -21.181   2.688  0.00  0.00     0.084 A 
HETATM   13  C   UNK     0     -60.091 -23.428   2.398  0.00  0.00     0.090 A 
HETATM   14  C   UNK     0     -59.789 -23.072   3.657  0.00  0.00     0.094 A 
HETATM   15  C   UNK     0     -58.931 -21.892   3.889  0.00  0.00     0.190 A 
HETATM   16  O   UNK     0     -58.630 -21.535   5.020  0.00  0.00    -0.287 OA
HETATM   17  C   UNK     0     -57.647 -20.054   2.798  0.00  0.00     0.118 A 
HETATM   18  C   UNK     0     -57.222 -19.399   1.642  0.00  0.00     0.134 A 
BRANCH  13  19
HETATM   19  C   UNK     0     -60.952 -24.593   2.106  0.00  0.00    -0.002 A 
HETATM   20  C   UNK     0     -61.080 -25.623   3.041  0.00  0.00     0.014 A 
HETATM   21  C   UNK     0     -61.893 -26.722   2.765  0.00  0.00     0.001 A 
HETATM   22  C   UNK     0     -62.581 -26.795   1.554  0.00  0.00     0.000 A 
HETATM   23  C   UNK     0     -62.456 -25.768   0.618  0.00  0.00     0.001 A 
HETATM   24  C   UNK     0     -61.642 -24.669   0.894  0.00  0.00     0.014 A 
ENDBRANCH  13  19
BRANCH  17  25
HETATM   25  O   UNK     0     -57.246 -19.568   4.006  0.00  0.00    -0.357 OA
HETATM   26  H   UNK     0     -57.998 -19.210   4.501  0.00  0.00     0.217 HD
ENDBRANCH  17  25
BRANCH  18  27
HETATM   27  O   UNK     0     -56.423 -18.296   1.736  0.00  0.00    -0.356 OA
HETATM   28  H   UNK     0     -56.780 -17.716   2.431  0.00  0.00     0.218 HD
ENDBRANCH  18  27
ENDBRANCH   7   8
ENDBRANCH   5   7
BRANCH   6  29
HETATM   29  C   UNK     0     -56.034 -20.858  -4.903  0.00  0.00     0.172 C 
HETATM   30  O   UNK     0     -56.024 -21.405  -5.996  0.00  0.00    -0.648 OA
BRANCH  29  31
HETATM   31  O   UNK     0     -54.920 -20.488  -4.225  0.00  0.00    -0.774 OA
HETATM   32  H   UNK     0     -54.933 -19.536  -3.990  0.00  0.00     0.167 HD
ENDBRANCH  29  31
ENDBRANCH   6  29
BRANCH   3  33
HETATM   33  O   UNK     0     -59.708 -18.290  -1.652  0.00  0.00    -0.388 OA
HETATM   34  H   UNK     0     -59.774 -19.053  -1.054  0.00  0.00     0.210 HD
ENDBRANCH   3  33
BRANCH   4  35
HETATM   35  O   UNK     0     -58.663 -19.988  -6.006  0.00  0.00    -0.390 OA
HETATM   36  H   UNK     0     -59.608 -20.130  -5.822  0.00  0.00     0.210 HD
ENDBRANCH   4  35
BRANCH   2  37
HETATM   37  O   UNK     0     -59.702 -17.704  -4.538  0.00  0.00    -0.390 OA
HETATM   38  H   UNK     0     -60.665 -17.814  -4.593  0.00  0.00     0.210 HD
ENDBRANCH   2  37
TORSDOF 10
ENDMDL
MODEL 2
REMARK VINA RESULT:      -9.3      3.615      9.099
REMARK  10 active torsions:
REMARK  status: ('A' for Active; 'I' for Inactive)
REMARK    1  A    between atoms: O_2  and  C_15 
REMARK    2  A    between atoms: O_2  and  C_18 
REMARK    3  A    between atoms: O_3  and  C_12 
REMARK    4  A    between atoms: O_4  and  C_13 
REMARK    5  A    between atoms: O_5  and  C_14 
REMARK    6  A    between atoms: O_6  and  C_17 
REMARK    7  A    between atoms: O_9  and  C_20 
REMARK    8  A    between atoms: O_10  and  C_23 
REMARK    9  A    between atoms: C_16  and  C_17 
REMARK   10  A    between atoms: C_25  and  C_27 
ROOT
HETATM    1  O   UNK     0     -62.721 -25.014   2.741  0.00  0.00    -0.340 OA
HETATM    2  C   UNK     0     -62.421 -27.871   2.807  0.00  0.00     0.183 C 
HETATM    3  C   UNK     0     -61.223 -26.921   2.812  0.00  0.00     0.205 C 
HETATM    4  C   UNK     0     -63.688 -27.172   3.300  0.00  0.00     0.189 C 
HETATM    5  C   UNK     0     -61.566 -25.593   2.138  0.00  0.00     0.299 C 
HETATM    6  C   UNK     0     -63.876 -25.833   2.597  0.00  0.00     0.253 C 
ENDROOT
BRANCH   5   7
HETATM    7  O   UNK     0     -60.449 -24.717   2.295  0.00  0.00    -0.315 OA
BRANCH   7   8
HETATM    8  C   UNK     0     -59.979 -24.119   1.163  0.00  0.00     0.110 A 
HETATM    9  C   UNK     0     -60.620 -22.980   0.674  0.00  0.00     0.078 A 
HETATM   10  C   UNK     0     -60.146 -22.360  -0.483  0.00  0.00     0.096 A 
HETATM   11  O   UNK     0     -60.817 -21.246  -0.916  0.00  0.00    -0.309 OA
HETATM   12  C   UNK     0     -59.035 -22.880  -1.146  0.00  0.00     0.084 A 
HETATM   13  C   UNK     0     -60.364 -20.604  -2.059  0.00  0.00     0.090 A 
HETATM   14  C   UNK     0     -59.312 -21.010  -2.786  0.00  0.00     0.094 A 
HETATM   15  C   UNK     0     -58.558 -22.208  -2.364  0.00  0.00     0.190 A 
HETATM   16  O   UNK     0     -57.592 -22.610  -2.998  0.00  0.00    -0.287 OA
HETATM   17  C   UNK     0     -58.391 -24.019  -0.659  0.00  0.00     0.118 A 
HETATM   18  C   UNK     0     -58.867 -24.637   0.498  0.00  0.00     0.134 A 
BRANCH  13  19
HETATM   19  C   UNK     0     -61.161 -19.420  -2.438  0.00  0.00    -0.002 A 
HETATM   20  C   UNK     0     -62.196 -19.539  -3.370  0.00  0.00     0.014 A 
HETATM   21  C   UNK     0     -62.949 -18.420  -3.727  0.00  0.00     0.001 A 
HETATM   22  C   UNK     0     -62.671 -17.180  -3.153  0.00  0.00     0.000 A 
HETATM   23  C   UNK     0     -61.639 -17.057  -2.223  0.00  0.00     0.001 A 
HETATM   24  C   UNK     0     -60.886 -18.176  -1.866  0.00  0.00     0.014 A 
ENDBRANCH  13  19
BRANCH  17  25
HETATM   25  O   UNK     0     -57.302 -24.555  -1.281  0.00  0.00    -0.357 OA
HETATM   26  H   UNK     0     -57.237 -24.238  -2.195  0.00  0.00     0.217 HD
ENDBRANCH  17  25
BRANCH  18  27
HETATM   27  O   UNK     0     -58.245 -25.751   0.983  0.00  0.00    -0.356 OA
HETATM   28  H   UNK     0     -58.646 -25.979   1.840  0.00  0.00     0.218 HD
ENDBRANCH  18  27
ENDBRANCH   7   8
ENDBRANCH   5   7
BRANCH   6  29
HETATM   29  C   UNK     0     -64.950 -25.029   3.254  0.00  0.00     0.172 C 
HETATM   30  O   UNK     0     -66.072 -25.439   3.517  0.00  0.00    -0.648 OA
BRANCH  29  31
HETATM   31  O   UNK     0     -64.515 -23.774   3.520  0.00  0.00    -0.774 OA
HETATM   32  H   UNK     0     -63.848 -23.762   4.239  0.00  0.00     0.167 HD
ENDBRANCH  29  31
ENDBRANCH   6  29
BRANCH   3  33
HETATM   33  O   UNK     0     -60.141 -27.520   2.097  0.00  0.00    -0.388 OA
HETATM   34  H   UNK     0     -59.781 -28.233   2.650  0.00  0.00     0.210 HD
ENDBRANCH   3  33
BRANCH   4  35
HETATM   35  O   UNK     0     -64.816 -27.998   3.019  0.00  0.00    -0.390 OA
HETATM   36  H   UNK     0     -65.490 -27.450   2.581  0.00  0.00     0.210 HD
ENDBRANCH   4  35
BRANCH   2  37
HETATM   37  O   UNK     0     -62.158 -28.974   3.675  0.00  0.00    -0.390 OA
HETATM   38  H   UNK     0     -62.807 -28.942   4.397  0.00  0.00     0.210 HD
ENDBRANCH   2  37
TORSDOF 10
ENDMDL
MODEL 3
REMARK VINA RESULT:      -9.3      4.870      9.228
REMARK  10 active torsions:
REMARK  status: ('A' for Active; 'I' for Inactive)
REMARK    1  A    between atoms: O_2  and  C_15 
REMARK    2  A    between atoms: O_2  and  C_18 
REMARK    3  A    between atoms: O_3  and  C_12 
REMARK    4  A    between atoms: O_4  and  C_13 
REMARK    5  A    between atoms: O_5  and  C_14 
REMARK    6  A    between atoms: O_6  and  C_17 
REMARK    7  A    between atoms: O_9  and  C_20 
REMARK    8  A    between atoms: O_10  and  C_23 
REMARK    9  A    between atoms: C_16  and  C_17 
REMARK   10  A    between atoms: C_25  and  C_27 
ROOT
HETATM    1  O   UNK     0     -59.498 -20.139  -3.279  0.00  0.00    -0.340 OA
HETATM    2  C   UNK     0     -61.729 -21.949  -3.214  0.00  0.00     0.183 C 
HETATM    3  C   UNK     0     -60.283 -22.426  -3.074  0.00  0.00     0.205 C 
HETATM    4  C   UNK     0     -61.867 -20.471  -2.849  0.00  0.00     0.189 C 
HETATM    5  C   UNK     0     -59.314 -21.466  -3.765  0.00  0.00     0.299 C 
HETATM    6  C   UNK     0     -60.802 -19.638  -3.552  0.00  0.00     0.253 C 
ENDROOT
BRANCH   5   7
HETATM    7  O   UNK     0     -57.984 -21.904  -3.482  0.00  0.00    -0.315 OA
BRANCH   7   8
HETATM    8  C   UNK     0     -57.089 -21.838  -4.509  0.00  0.00     0.110 A 
HETATM    9  C   UNK     0     -57.183 -22.754  -5.558  0.00  0.00     0.078 A 
HETATM   10  C   UNK     0     -56.272 -22.695  -6.614  0.00  0.00     0.096 A 
HETATM   11  O   UNK     0     -56.414 -23.621  -7.615  0.00  0.00    -0.309 OA
HETATM   12  C   UNK     0     -55.272 -21.724  -6.617  0.00  0.00     0.084 A 
HETATM   13  C   UNK     0     -55.527 -23.583  -8.680  0.00  0.00     0.090 A 
HETATM   14  C   UNK     0     -54.521 -22.702  -8.795  0.00  0.00     0.094 A 
HETATM   15  C   UNK     0     -54.324 -21.687  -7.741  0.00  0.00     0.190 A 
HETATM   16  O   UNK     0     -53.420 -20.864  -7.808  0.00  0.00    -0.287 OA
HETATM   17  C   UNK     0     -55.175 -20.806  -5.569  0.00  0.00     0.118 A 
HETATM   18  C   UNK     0     -56.087 -20.867  -4.515  0.00  0.00     0.134 A 
BRANCH  13  19
HETATM   19  C   UNK     0     -55.767 -24.626  -9.699  0.00  0.00    -0.002 A 
HETATM   20  C   UNK     0     -54.743 -25.509 -10.053  0.00  0.00     0.014 A 
HETATM   21  C   UNK     0     -54.970 -26.495 -11.014  0.00  0.00     0.001 A 
HETATM   22  C   UNK     0     -56.221 -26.601 -11.622  0.00  0.00     0.000 A 
HETATM   23  C   UNK     0     -57.245 -25.721 -11.271  0.00  0.00     0.001 A 
HETATM   24  C   UNK     0     -57.018 -24.736 -10.310  0.00  0.00     0.014 A 
ENDBRANCH  13  19
BRANCH  17  25
HETATM   25  O   UNK     0     -54.210 -19.843  -5.539  0.00  0.00    -0.357 OA
HETATM   26  H   UNK     0     -53.556 -20.032  -4.849  0.00  0.00     0.217 HD
ENDBRANCH  17  25
BRANCH  18  27
HETATM   27  O   UNK     0     -56.002 -19.975  -3.485  0.00  0.00    -0.356 OA
HETATM   28  H   UNK     0     -55.081 -19.667  -3.420  0.00  0.00     0.218 HD
ENDBRANCH  18  27
ENDBRANCH   7   8
ENDBRANCH   5   7
BRANCH   6  29
HETATM   29  C   UNK     0     -60.758 -18.250  -3.002  0.00  0.00     0.172 C 
HETATM   30  O   UNK     0     -60.320 -17.943  -1.903  0.00  0.00    -0.648 OA
BRANCH  29  31
HETATM   31  O   UNK     0     -61.277 -17.367  -3.889  0.00  0.00    -0.774 OA
HETATM   32  H   UNK     0     -62.073 -17.723  -4.338  0.00  0.00     0.167 HD
ENDBRANCH  29  31
ENDBRANCH   6  29
BRANCH   3  33
HETATM   33  O   UNK     0     -60.148 -23.712  -3.678  0.00  0.00    -0.388 OA
HETATM   34  H   UNK     0     -59.253 -24.036  -3.484  0.00  0.00     0.210 HD
ENDBRANCH   3  33
BRANCH   4  35
HETATM   35  O   UNK     0     -63.153 -20.007  -3.256  0.00  0.00    -0.390 OA
HETATM   36  H   UNK     0     -63.637 -20.759  -3.639  0.00  0.00     0.210 HD
ENDBRANCH   4  35
BRANCH   2  37
HETATM   37  O   UNK     0     -62.567 -22.702  -2.336  0.00  0.00    -0.390 OA
HETATM   38  H   UNK     0     -62.560 -23.624  -2.641  0.00  0.00     0.210 HD
ENDBRANCH   2  37
TORSDOF 10
ENDMDL
MODEL 4
REMARK VINA RESULT:      -9.3      2.466      7.995
REMARK  10 active torsions:
REMARK  status: ('A' for Active; 'I' for Inactive)
REMARK    1  A    between atoms: O_2  and  C_15 
REMARK    2  A    between atoms: O_2  and  C_18 
REMARK    3  A    between atoms: O_3  and  C_12 
REMARK    4  A    between atoms: O_4  and  C_13 
REMARK    5  A    between atoms: O_5  and  C_14 
REMARK    6  A    between atoms: O_6  and  C_17 
REMARK    7  A    between atoms: O_9  and  C_20 
REMARK    8  A    between atoms: O_10  and  C_23 
REMARK    9  A    between atoms: C_16  and  C_17 
REMARK   10  A    between atoms: C_25  and  C_27 
ROOT
HETATM    1  O   UNK     0     -62.238 -24.089   2.892  0.00  0.00    -0.340 OA
HETATM    2  C   UNK     0     -61.198 -26.614   1.996  0.00  0.00     0.183 C 
HETATM    3  C   UNK     0     -60.353 -25.614   2.785  0.00  0.00     0.205 C 
HETATM    4  C   UNK     0     -62.692 -26.380   2.220  0.00  0.00     0.189 C 
HETATM    5  C   UNK     0     -60.851 -24.183   2.577  0.00  0.00     0.299 C 
HETATM    6  C   UNK     0     -63.041 -24.907   2.048  0.00  0.00     0.253 C 
ENDROOT
BRANCH   5   7
HETATM    7  O   UNK     0     -60.101 -23.326   3.439  0.00  0.00    -0.315 OA
BRANCH   7   8
HETATM    8  C   UNK     0     -59.379 -22.336   2.839  0.00  0.00     0.110 A 
HETATM    9  C   UNK     0     -59.394 -22.226   1.448  0.00  0.00     0.078 A 
HETATM   10  C   UNK     0     -58.659 -21.217   0.824  0.00  0.00     0.096 A 
HETATM   11  O   UNK     0     -58.711 -21.159  -0.545  0.00  0.00    -0.309 OA
HETATM   12  C   UNK     0     -57.913 -20.324   1.592  0.00  0.00     0.084 A 
HETATM   13  C   UNK     0     -57.997 -20.162  -1.191  0.00  0.00     0.090 A 
HETATM   14  C   UNK     0     -57.239 -19.248  -0.566  0.00  0.00     0.094 A 
HETATM   15  C   UNK     0     -57.146 -19.271   0.908  0.00  0.00     0.190 A 
HETATM   16  O   UNK     0     -56.468 -18.454   1.518  0.00  0.00    -0.287 OA
HETATM   17  C   UNK     0     -57.896 -20.430   2.984  0.00  0.00     0.118 A 
HETATM   18  C   UNK     0     -58.632 -21.440   3.605  0.00  0.00     0.134 A 
BRANCH  13  19
HETATM   19  C   UNK     0     -58.120 -20.194  -2.663  0.00  0.00    -0.002 A 
HETATM   20  C   UNK     0     -58.047 -21.411  -3.347  0.00  0.00     0.014 A 
HETATM   21  C   UNK     0     -58.164 -21.441  -4.737  0.00  0.00     0.001 A 
HETATM   22  C   UNK     0     -58.355 -20.256  -5.447  0.00  0.00     0.000 A 
HETATM   23  C   UNK     0     -58.427 -19.040  -4.768  0.00  0.00     0.001 A 
HETATM   24  C   UNK     0     -58.310 -19.010  -3.378  0.00  0.00     0.014 A 
ENDBRANCH  13  19
BRANCH  17  25
HETATM   25  O   UNK     0     -57.179 -19.575   3.766  0.00  0.00    -0.357 OA
HETATM   26  H   UNK     0     -56.990 -18.751   3.292  0.00  0.00     0.217 HD
ENDBRANCH  17  25
BRANCH  18  27
HETATM   27  O   UNK     0     -58.623 -21.555   4.965  0.00  0.00    -0.356 OA
HETATM   28  H   UNK     0     -58.020 -22.279   5.209  0.00  0.00     0.218 HD
ENDBRANCH  18  27
ENDBRANCH   7   8
ENDBRANCH   5   7
BRANCH   6  29
HETATM   29  C   UNK     0     -64.430 -24.627   2.521  0.00  0.00     0.172 C 
HETATM   30  O   UNK     0     -64.840 -24.827   3.654  0.00  0.00    -0.648 OA
BRANCH  29  31
HETATM   31  O   UNK     0     -65.185 -24.119   1.515  0.00  0.00    -0.774 OA
HETATM   32  H   UNK     0     -64.637 -23.845   0.749  0.00  0.00     0.167 HD
ENDBRANCH  29  31
ENDBRANCH   6  29
BRANCH   3  33
HETATM   33  O   UNK     0     -58.997 -25.685   2.341  0.00  0.00    -0.388 OA
HETATM   34  H   UNK     0     -58.687 -26.594   2.489  0.00  0.00     0.210 HD
ENDBRANCH   3  33
BRANCH   4  35
HETATM   35  O   UNK     0     -63.431 -27.140   1.266  0.00  0.00    -0.390 OA
HETATM   36  H   UNK     0     -63.245 -26.778   0.383  0.00  0.00     0.210 HD
ENDBRANCH   4  35
BRANCH   2  37
HETATM   37  O   UNK     0     -60.889 -27.941   2.424  0.00  0.00    -0.390 OA
HETATM   38  H   UNK     0     -61.251 -28.555   1.765  0.00  0.00     0.210 HD
ENDBRANCH   2  37
TORSDOF 10
ENDMDL
MODEL 5
REMARK VINA RESULT:      -9.0      5.148     10.072
REMARK  10 active torsions:
REMARK  status: ('A' for Active; 'I' for Inactive)
REMARK    1  A    between atoms: O_2  and  C_15 
REMARK    2  A    between atoms: O_2  and  C_18 
REMARK    3  A    between atoms: O_3  and  C_12 
REMARK    4  A    between atoms: O_4  and  C_13 
REMARK    5  A    between atoms: O_5  and  C_14 
REMARK    6  A    between atoms: O_6  and  C_17 
REMARK    7  A    between atoms: O_9  and  C_20 
REMARK    8  A    between atoms: O_10  and  C_23 
REMARK    9  A    between atoms: C_16  and  C_17 
REMARK   10  A    between atoms: C_25  and  C_27 
ROOT
HETATM    1  O   UNK     0     -57.409 -20.191  -5.018  0.00  0.00    -0.340 OA
HETATM    2  C   UNK     0     -59.626 -20.967  -3.364  0.00  0.00     0.183 C 
HETATM    3  C   UNK     0     -58.357 -21.812  -3.482  0.00  0.00     0.205 C 
HETATM    4  C   UNK     0     -59.364 -19.511  -3.744  0.00  0.00     0.189 C 
HETATM    5  C   UNK     0     -57.661 -21.581  -4.823  0.00  0.00     0.299 C 
HETATM    6  C   UNK     0     -58.607 -19.425  -5.064  0.00  0.00     0.253 C 
ENDROOT
BRANCH   5   7
HETATM    7  O   UNK     0     -56.426 -22.298  -4.808  0.00  0.00    -0.315 OA
BRANCH   7   8
HETATM    8  C   UNK     0     -55.802 -22.464  -6.010  0.00  0.00     0.110 A 
HETATM    9  C   UNK     0     -56.175 -23.527  -6.832  0.00  0.00     0.078 A 
HETATM   10  C   UNK     0     -55.543 -23.706  -8.064  0.00  0.00     0.096 A 
HETATM   11  O   UNK     0     -55.950 -24.769  -8.828  0.00  0.00    -0.309 OA
HETATM   12  C   UNK     0     -54.542 -22.823  -8.467  0.00  0.00     0.084 A 
HETATM   13  C   UNK     0     -55.345 -24.967 -10.060  0.00  0.00     0.090 A 
HETATM   14  C   UNK     0     -54.369 -24.191 -10.556  0.00  0.00     0.094 A 
HETATM   15  C   UNK     0     -53.892 -23.036  -9.769  0.00  0.00     0.190 A 
HETATM   16  O   UNK     0     -53.005 -22.303 -10.186  0.00  0.00    -0.287 OA
HETATM   17  C   UNK     0     -54.167 -21.757  -7.646  0.00  0.00     0.118 A 
HETATM   18  C   UNK     0     -54.801 -21.581  -6.416  0.00  0.00     0.134 A 
BRANCH  13  19
HETATM   19  C   UNK     0     -55.856 -26.141 -10.798  0.00  0.00    -0.002 A 
HETATM   20  C   UNK     0     -57.232 -26.329 -10.951  0.00  0.00     0.014 A 
HETATM   21  C   UNK     0     -57.714 -27.437 -11.649  0.00  0.00     0.001 A 
HETATM   22  C   UNK     0     -56.822 -28.360 -12.195  0.00  0.00     0.000 A 
HETATM   23  C   UNK     0     -55.448 -28.175 -12.043  0.00  0.00     0.001 A 
HETATM   24  C   UNK     0     -54.966 -27.067 -11.346  0.00  0.00     0.014 A 
ENDBRANCH  13  19
BRANCH  17  25
HETATM   25  O   UNK     0     -53.194 -20.874  -8.009  0.00  0.00    -0.357 OA
HETATM   26  H   UNK     0     -53.258 -20.658  -8.951  0.00  0.00     0.217 HD
ENDBRANCH  17  25
BRANCH  18  27
HETATM   27  O   UNK     0     -54.442 -20.543  -5.605  0.00  0.00    -0.356 OA
HETATM   28  H   UNK     0     -54.548 -19.713  -6.103  0.00  0.00     0.218 HD
ENDBRANCH  18  27
ENDBRANCH   7   8
ENDBRANCH   5   7
BRANCH   6  29
HETATM   29  C   UNK     0     -58.116 -18.035  -5.311  0.00  0.00     0.172 C 
HETATM   30  O   UNK     0     -56.941 -17.703  -5.351  0.00  0.00    -0.648 OA
BRANCH  29  31
HETATM   31  O   UNK     0     -59.156 -17.183  -5.481  0.00  0.00    -0.774 OA
HETATM   32  H   UNK     0     -59.771 -17.197  -4.717  0.00  0.00     0.167 HD
ENDBRANCH  29  31
ENDBRANCH   6  29
BRANCH   3  33
HETATM   33  O   UNK     0     -58.699 -23.196  -3.387  0.00  0.00    -0.388 OA
HETATM   34  H   UNK     0     -58.327 -23.645  -4.164  0.00  0.00     0.210 HD
ENDBRANCH   3  33
BRANCH   4  35
HETATM   35  O   UNK     0     -60.611 -18.834  -3.887  0.00  0.00    -0.390 OA
HETATM   36  H   UNK     0     -60.754 -18.295  -3.090  0.00  0.00     0.210 HD
ENDBRANCH   4  35
BRANCH   2  37
HETATM   37  O   UNK     0     -60.093 -20.995  -2.014  0.00  0.00    -0.390 OA
HETATM   38  H   UNK     0     -61.031 -20.743  -2.021  0.00  0.00     0.210 HD
ENDBRANCH   2  37
TORSDOF 10
ENDMDL
MODEL 6
REMARK VINA RESULT:      -9.0      8.103     11.603
REMARK  10 active torsions:
REMARK  status: ('A' for Active; 'I' for Inactive)
REMARK    1  A    between atoms: O_2  and  C_15 
REMARK    2  A    between atoms: O_2  and  C_18 
REMARK    3  A    between atoms: O_3  and  C_12 
REMARK    4  A    between atoms: O_4  and  C_13 
REMARK    5  A    between atoms: O_5  and  C_14 
REMARK    6  A    between atoms: O_6  and  C_17 
REMARK    7  A    between atoms: O_9  and  C_20 
REMARK    8  A    between atoms: O_10  and  C_23 
REMARK    9  A    between atoms: C_16  and  C_17 
REMARK   10  A    between atoms: C_25  and  C_27 
ROOT
HETATM    1  O   UNK     0     -69.112 -27.057   1.265  0.00  0.00    -0.340 OA
HETATM    2  C   UNK     0     -70.674 -25.088  -0.126  0.00  0.00     0.183 C 
HETATM    3  C   UNK     0     -69.276 -25.498  -0.587  0.00  0.00     0.205 C 
HETATM    4  C   UNK     0     -71.314 -26.167   0.747  0.00  0.00     0.189 C 
HETATM    5  C   UNK     0     -68.434 -26.004   0.585  0.00  0.00     0.299 C 
HETATM    6  C   UNK     0     -70.346 -26.630   1.830  0.00  0.00     0.253 C 
ENDROOT
BRANCH   5   7
HETATM    7  O   UNK     0     -67.196 -26.488   0.062  0.00  0.00    -0.315 OA
BRANCH   7   8
HETATM    8  C   UNK     0     -66.156 -26.578   0.939  0.00  0.00     0.110 A 
HETATM    9  C   UNK     0     -65.966 -27.760   1.656  0.00  0.00     0.078 A 
HETATM   10  C   UNK     0     -64.904 -27.863   2.556  0.00  0.00     0.096 A 
HETATM   11  O   UNK     0     -64.769 -29.048   3.231  0.00  0.00    -0.309 OA
HETATM   12  C   UNK     0     -64.038 -26.786   2.736  0.00  0.00     0.084 A 
HETATM   13  C   UNK     0     -63.719 -29.182   4.127  0.00  0.00     0.090 A 
HETATM   14  C   UNK     0     -62.824 -28.218   4.391  0.00  0.00     0.094 A 
HETATM   15  C   UNK     0     -62.928 -26.921   3.692  0.00  0.00     0.190 A 
HETATM   16  O   UNK     0     -62.132 -26.016   3.903  0.00  0.00    -0.287 OA
HETATM   17  C   UNK     0     -64.224 -25.601   2.020  0.00  0.00     0.118 A 
HETATM   18  C   UNK     0     -65.286 -25.501   1.121  0.00  0.00     0.134 A 
BRANCH  13  19
HETATM   19  C   UNK     0     -63.669 -30.495   4.802  0.00  0.00    -0.002 A 
HETATM   20  C   UNK     0     -63.687 -30.567   6.198  0.00  0.00     0.014 A 
HETATM   21  C   UNK     0     -63.641 -31.807   6.835  0.00  0.00     0.001 A 
HETATM   22  C   UNK     0     -63.578 -32.978   6.080  0.00  0.00     0.000 A 
HETATM   23  C   UNK     0     -63.560 -32.910   4.687  0.00  0.00     0.001 A 
HETATM   24  C   UNK     0     -63.606 -31.669   4.049  0.00  0.00     0.014 A 
ENDBRANCH  13  19
BRANCH  17  25
HETATM   25  O   UNK     0     -63.397 -24.528   2.171  0.00  0.00    -0.357 OA
HETATM   26  H   UNK     0     -63.527 -23.889   1.453  0.00  0.00     0.217 HD
ENDBRANCH  17  25
BRANCH  18  27
HETATM   27  O   UNK     0     -65.479 -24.348   0.416  0.00  0.00    -0.356 OA
HETATM   28  H   UNK     0     -65.424 -24.555  -0.533  0.00  0.00     0.218 HD
ENDBRANCH  18  27
ENDBRANCH   7   8
ENDBRANCH   5   7
BRANCH   6  29
HETATM   29  C   UNK     0     -70.855 -27.857   2.513  0.00  0.00     0.172 C 
HETATM   30  O   UNK     0     -70.730 -28.998   2.092  0.00  0.00    -0.648 OA
BRANCH  29  31
HETATM   31  O   UNK     0     -71.482 -27.536   3.671  0.00  0.00    -0.774 OA
HETATM   32  H   UNK     0     -72.455 -27.634   3.601  0.00  0.00     0.167 HD
ENDBRANCH  29  31
ENDBRANCH   6  29
BRANCH   3  33
HETATM   33  O   UNK     0     -68.614 -24.369  -1.158  0.00  0.00    -0.388 OA
HETATM   34  H   UNK     0     -67.707 -24.638  -1.376  0.00  0.00     0.210 HD
ENDBRANCH   3  33
BRANCH   4  35
HETATM   35  O   UNK     0     -72.479 -25.633   1.372  0.00  0.00    -0.390 OA
HETATM   36  H   UNK     0     -72.702 -24.797   0.928  0.00  0.00     0.210 HD
ENDBRANCH   4  35
BRANCH   2  37
HETATM   37  O   UNK     0     -71.512 -24.887  -1.266  0.00  0.00    -0.390 OA
HETATM   38  H   UNK     0     -71.723 -25.761  -1.634  0.00  0.00     0.210 HD
ENDBRANCH   2  37
TORSDOF 10
ENDMDL
MODEL 7
REMARK VINA RESULT:      -9.0      6.611     10.770
REMARK  10 active torsions:
REMARK  status: ('A' for Active; 'I' for Inactive)
REMARK    1  A    between atoms: O_2  and  C_15 
REMARK    2  A    between atoms: O_2  and  C_18 
REMARK    3  A    between atoms: O_3  and  C_12 
REMARK    4  A    between atoms: O_4  and  C_13 
REMARK    5  A    between atoms: O_5  and  C_14 
REMARK    6  A    between atoms: O_6  and  C_17 
REMARK    7  A    between atoms: O_9  and  C_20 
REMARK    8  A    between atoms: O_10  and  C_23 
REMARK    9  A    between atoms: C_16  and  C_17 
REMARK   10  A    between atoms: C_25  and  C_27 
ROOT
HETATM    1  O   UNK     0     -55.228 -22.550  -9.834  0.00  0.00    -0.340 OA
HETATM    2  C   UNK     0     -54.208 -25.226  -9.592  0.00  0.00     0.183 C 
HETATM    3  C   UNK     0     -55.568 -24.814  -9.029  0.00  0.00     0.205 C 
HETATM    4  C   UNK     0     -53.753 -24.277 -10.701  0.00  0.00     0.189 C 
HETATM    5  C   UNK     0     -55.600 -23.322  -8.695  0.00  0.00     0.299 C 
HETATM    6  C   UNK     0     -53.899 -22.824 -10.263  0.00  0.00     0.253 C 
ENDROOT
BRANCH   5   7
HETATM    7  O   UNK     0     -56.930 -22.988  -8.299  0.00  0.00    -0.315 OA
BRANCH   7   8
HETATM    8  C   UNK     0     -57.073 -21.888  -7.504  0.00  0.00     0.110 A 
HETATM    9  C   UNK     0     -56.871 -20.620  -8.049  0.00  0.00     0.078 A 
HETATM   10  C   UNK     0     -57.015 -19.489  -7.244  0.00  0.00     0.096 A 
HETATM   11  O   UNK     0     -56.804 -18.269  -7.834  0.00  0.00    -0.309 OA
HETATM   12  C   UNK     0     -57.359 -19.630  -5.901  0.00  0.00     0.084 A 
HETATM   13  C   UNK     0     -56.947 -17.127  -7.061  0.00  0.00     0.090 A 
HETATM   14  C   UNK     0     -57.268 -17.132  -5.758  0.00  0.00     0.094 A 
HETATM   15  C   UNK     0     -57.502 -18.421  -5.075  0.00  0.00     0.190 A 
HETATM   16  O   UNK     0     -57.799 -18.469  -3.889  0.00  0.00    -0.287 OA
HETATM   17  C   UNK     0     -57.562 -20.898  -5.352  0.00  0.00     0.118 A 
HETATM   18  C   UNK     0     -57.417 -22.027  -6.159  0.00  0.00     0.134 A 
BRANCH  13  19
HETATM   19  C   UNK     0     -56.692 -15.870  -7.794  0.00  0.00    -0.002 A 
HETATM   20  C   UNK     0     -56.777 -15.842  -9.189  0.00  0.00     0.014 A 
HETATM   21  C   UNK     0     -56.538 -14.655  -9.881  0.00  0.00     0.001 A 
HETATM   22  C   UNK     0     -56.214 -13.492  -9.182  0.00  0.00     0.000 A 
HETATM   23  C   UNK     0     -56.128 -13.517  -7.789  0.00  0.00     0.001 A 
HETATM   24  C   UNK     0     -56.367 -14.705  -7.097  0.00  0.00     0.014 A 
ENDBRANCH  13  19
BRANCH  17  25
HETATM   25  O   UNK     0     -57.899 -21.073  -4.043  0.00  0.00    -0.357 OA
HETATM   26  H   UNK     0     -57.117 -21.284  -3.511  0.00  0.00     0.217 HD
ENDBRANCH  17  25
BRANCH  18  27
HETATM   27  O   UNK     0     -57.613 -23.271  -5.634  0.00  0.00    -0.356 OA
HETATM   28  H   UNK     0     -57.403 -23.930  -6.318  0.00  0.00     0.218 HD
ENDBRANCH  18  27
ENDBRANCH   7   8
ENDBRANCH   5   7
BRANCH   6  29
HETATM   29  C   UNK     0     -53.712 -21.896 -11.418  0.00  0.00     0.172 C 
HETATM   30  O   UNK     0     -54.617 -21.412 -12.083  0.00  0.00    -0.648 OA
BRANCH  29  31
HETATM   31  O   UNK     0     -52.395 -21.661 -11.636  0.00  0.00    -0.774 OA
HETATM   32  H   UNK     0     -51.825 -22.314 -11.177  0.00  0.00     0.167 HD
ENDBRANCH  29  31
ENDBRANCH   6  29
BRANCH   3  33
HETATM   33  O   UNK     0     -55.826 -25.547  -7.830  0.00  0.00    -0.388 OA
HETATM   34  H   UNK     0     -54.981 -25.914  -7.522  0.00  0.00     0.210 HD
ENDBRANCH   3  33
BRANCH   4  35
HETATM   35  O   UNK     0     -52.381 -24.530 -10.998  0.00  0.00    -0.390 OA
HETATM   36  H   UNK     0     -51.912 -24.674 -10.158  0.00  0.00     0.210 HD
ENDBRANCH   4  35
BRANCH   2  37
HETATM   37  O   UNK     0     -54.299 -26.540 -10.145  0.00  0.00    -0.390 OA
HETATM   38  H   UNK     0     -53.562 -26.650 -10.768  0.00  0.00     0.210 HD
ENDBRANCH   2  37
TORSDOF 10
ENDMDL
MODEL 8
REMARK VINA RESULT:      -8.9      3.428      9.056
REMARK  10 active torsions:
REMARK  status: ('A' for Active; 'I' for Inactive)
REMARK    1  A    between atoms: O_2  and  C_15 
REMARK    2  A    between atoms: O_2  and  C_18 
REMARK    3  A    between atoms: O_3  and  C_12 
REMARK    4  A    between atoms: O_4  and  C_13 
REMARK    5  A    between atoms: O_5  and  C_14 
REMARK    6  A    between atoms: O_6  and  C_17 
REMARK    7  A    between atoms: O_9  and  C_20 
REMARK    8  A    between atoms: O_10  and  C_23 
REMARK    9  A    between atoms: C_16  and  C_17 
REMARK   10  A    between atoms: C_25  and  C_27 
ROOT
HETATM    1  O   UNK     0     -63.099 -25.739   1.243  0.00  0.00    -0.340 OA
HETATM    2  C   UNK     0     -62.494 -27.290   3.585  0.00  0.00     0.183 C 
HETATM    3  C   UNK     0     -61.477 -27.067   2.465  0.00  0.00     0.205 C 
HETATM    4  C   UNK     0     -63.576 -26.210   3.580  0.00  0.00     0.189 C 
HETATM    5  C   UNK     0     -62.173 -26.817   1.127  0.00  0.00     0.299 C 
HETATM    6  C   UNK     0     -64.137 -26.015   2.176  0.00  0.00     0.253 C 
ENDROOT
BRANCH   5   7
HETATM    7  O   UNK     0     -61.171 -26.491   0.163  0.00  0.00    -0.315 OA
BRANCH   7   8
HETATM    8  C   UNK     0     -61.115 -25.190  -0.243  0.00  0.00     0.110 A 
HETATM    9  C   UNK     0     -60.148 -24.345   0.302  0.00  0.00     0.078 A 
HETATM   10  C   UNK     0     -60.082 -23.012  -0.107  0.00  0.00     0.096 A 
HETATM   11  O   UNK     0     -59.111 -22.230   0.464  0.00  0.00    -0.309 OA
HETATM   12  C   UNK     0     -60.981 -22.530  -1.056  0.00  0.00     0.084 A 
HETATM   13  C   UNK     0     -59.016 -20.903   0.072  0.00  0.00     0.090 A 
HETATM   14  C   UNK     0     -59.825 -20.321  -0.827  0.00  0.00     0.094 A 
HETATM   15  C   UNK     0     -60.889 -21.120  -1.468  0.00  0.00     0.190 A 
HETATM   16  O   UNK     0     -61.647 -20.629  -2.294  0.00  0.00    -0.287 OA
HETATM   17  C   UNK     0     -61.950 -23.373  -1.605  0.00  0.00     0.118 A 
HETATM   18  C   UNK     0     -62.014 -24.705  -1.194  0.00  0.00     0.134 A 
BRANCH  13  19
HETATM   19  C   UNK     0     -57.941 -20.151   0.752  0.00  0.00    -0.002 A 
HETATM   20  C   UNK     0     -57.817 -20.209   2.142  0.00  0.00     0.014 A 
HETATM   21  C   UNK     0     -56.801 -19.499   2.784  0.00  0.00     0.001 A 
HETATM   22  C   UNK     0     -55.906 -18.732   2.038  0.00  0.00     0.000 A 
HETATM   23  C   UNK     0     -56.028 -18.673   0.649  0.00  0.00     0.001 A 
HETATM   24  C   UNK     0     -57.044 -19.382   0.008  0.00  0.00     0.014 A 
ENDBRANCH  13  19
BRANCH  17  25
HETATM   25  O   UNK     0     -62.845 -22.936  -2.535  0.00  0.00    -0.357 OA
HETATM   26  H   UNK     0     -62.494 -22.174  -3.020  0.00  0.00     0.217 HD
ENDBRANCH  17  25
BRANCH  18  27
HETATM   27  O   UNK     0     -62.957 -25.538  -1.722  0.00  0.00    -0.356 OA
HETATM   28  H   UNK     0     -62.931 -26.380  -1.234  0.00  0.00     0.218 HD
ENDBRANCH  18  27
ENDBRANCH   7   8
ENDBRANCH   5   7
BRANCH   6  29
HETATM   29  C   UNK     0     -64.994 -24.793   2.108  0.00  0.00     0.172 C 
HETATM   30  O   UNK     0     -65.852 -24.584   1.263  0.00  0.00    -0.648 OA
BRANCH  29  31
HETATM   31  O   UNK     0     -64.690 -23.938   3.114  0.00  0.00    -0.774 OA
HETATM   32  H   UNK     0     -64.050 -24.329   3.747  0.00  0.00     0.167 HD
ENDBRANCH  29  31
ENDBRANCH   6  29
BRANCH   3  33
HETATM   33  O   UNK     0     -60.656 -28.228   2.333  0.00  0.00    -0.388 OA
HETATM   34  H   UNK     0     -60.155 -28.330   3.159  0.00  0.00     0.210 HD
ENDBRANCH   3  33
BRANCH   4  35
HETATM   35  O   UNK     0     -64.636 -26.608   4.446  0.00  0.00    -0.390 OA
HETATM   36  H   UNK     0     -64.649 -26.000   5.205  0.00  0.00     0.210 HD
ENDBRANCH   4  35
BRANCH   2  37
HETATM   37  O   UNK     0     -61.829 -27.243   4.849  0.00  0.00    -0.390 OA
HETATM   38  H   UNK     0     -62.258 -27.891   5.432  0.00  0.00     0.210 HD
ENDBRANCH   2  37
TORSDOF 10
ENDMDL
MODEL 9
REMARK VINA RESULT:      -8.8      2.950      5.031
REMARK  10 active torsions:
REMARK  status: ('A' for Active; 'I' for Inactive)
REMARK    1  A    between atoms: O_2  and  C_15 
REMARK    2  A    between atoms: O_2  and  C_18 
REMARK    3  A    between atoms: O_3  and  C_12 
REMARK    4  A    between atoms: O_4  and  C_13 
REMARK    5  A    between atoms: O_5  and  C_14 
REMARK    6  A    between atoms: O_6  and  C_17 
REMARK    7  A    between atoms: O_9  and  C_20 
REMARK    8  A    between atoms: O_10  and  C_23 
REMARK    9  A    between atoms: C_16  and  C_17 
REMARK   10  A    between atoms: C_25  and  C_27 
ROOT
HETATM    1  O   UNK     0     -59.217 -21.769  -2.298  0.00  0.00    -0.340 OA
HETATM    2  C   UNK     0     -58.546 -19.402  -0.813  0.00  0.00     0.183 C 
HETATM    3  C   UNK     0     -58.178 -20.805  -0.329  0.00  0.00     0.205 C 
HETATM    4  C   UNK     0     -58.783 -19.377  -2.323  0.00  0.00     0.189 C 
HETATM    5  C   UNK     0     -59.148 -21.852  -0.877  0.00  0.00     0.299 C 
HETATM    6  C   UNK     0     -59.711 -20.511  -2.744  0.00  0.00     0.253 C 
ENDROOT
BRANCH   5   7
HETATM    7  O   UNK     0     -58.669 -23.141  -0.492  0.00  0.00    -0.315 OA
BRANCH   7   8
HETATM    8  C   UNK     0     -59.572 -23.979   0.092  0.00  0.00     0.110 A 
HETATM    9  C   UNK     0     -60.933 -23.800  -0.158  0.00  0.00     0.078 A 
HETATM   10  C   UNK     0     -61.866 -24.652   0.434  0.00  0.00     0.096 A 
HETATM   11  O   UNK     0     -63.188 -24.426   0.151  0.00  0.00    -0.309 OA
HETATM   12  C   UNK     0     -61.436 -25.678   1.274  0.00  0.00     0.084 A 
HETATM   13  C   UNK     0     -64.137 -25.262   0.720  0.00  0.00     0.090 A 
HETATM   14  C   UNK     0     -63.850 -26.279   1.548  0.00  0.00     0.094 A 
HETATM   15  C   UNK     0     -62.441 -26.560   1.887  0.00  0.00     0.190 A 
HETATM   16  O   UNK     0     -62.136 -27.479   2.636  0.00  0.00    -0.287 OA
HETATM   17  C   UNK     0     -60.074 -25.861   1.527  0.00  0.00     0.118 A 
HETATM   18  C   UNK     0     -59.144 -25.007   0.933  0.00  0.00     0.134 A 
BRANCH  13  19
HETATM   19  C   UNK     0     -65.529 -24.928   0.353  0.00  0.00    -0.002 A 
HETATM   20  C   UNK     0     -66.462 -24.621   1.347  0.00  0.00     0.014 A 
HETATM   21  C   UNK     0     -67.776 -24.304   1.000  0.00  0.00     0.001 A 
HETATM   22  C   UNK     0     -68.160 -24.292  -0.341  0.00  0.00     0.000 A 
HETATM   23  C   UNK     0     -67.231 -24.598  -1.335  0.00  0.00     0.001 A 
HETATM   24  C   UNK     0     -65.917 -24.915  -0.988  0.00  0.00     0.014 A 
ENDBRANCH  13  19
BRANCH  17  25
HETATM   25  O   UNK     0     -59.618 -26.853   2.342  0.00  0.00    -0.357 OA
HETATM   26  H   UNK     0     -60.356 -27.333   2.748  0.00  0.00     0.217 HD
ENDBRANCH  17  25
BRANCH  18  27
HETATM   27  O   UNK     0     -57.811 -25.176   1.173  0.00  0.00    -0.356 OA
HETATM   28  H   UNK     0     -57.431 -24.313   1.415  0.00  0.00     0.218 HD
ENDBRANCH  18  27
ENDBRANCH   7   8
ENDBRANCH   5   7
BRANCH   6  29
HETATM   29  C   UNK     0     -59.737 -20.658  -4.230  0.00  0.00     0.172 C 
HETATM   30  O   UNK     0     -59.022 -20.045  -5.009  0.00  0.00    -0.648 OA
BRANCH  29  31
HETATM   31  O   UNK     0     -60.668 -21.569  -4.605  0.00  0.00    -0.774 OA
HETATM   32  H   UNK     0     -60.263 -22.426  -4.855  0.00  0.00     0.167 HD
ENDBRANCH  29  31
ENDBRANCH   6  29
BRANCH   3  33
HETATM   33  O   UNK     0     -58.235 -20.844   1.097  0.00  0.00    -0.388 OA
HETATM   34  H   UNK     0     -58.639 -21.690   1.353  0.00  0.00     0.210 HD
ENDBRANCH   3  33
BRANCH   4  35
HETATM   35  O   UNK     0     -59.385 -18.135  -2.681  0.00  0.00    -0.390 OA
HETATM   36  H   UNK     0     -59.750 -18.225  -3.578  0.00  0.00     0.210 HD
ENDBRANCH   4  35
BRANCH   2  37
HETATM   37  O   UNK     0     -57.478 -18.500  -0.518  0.00  0.00    -0.390 OA
HETATM   38  H   UNK     0     -57.709 -18.027   0.298  0.00  0.00     0.210 HD
ENDBRANCH   2  37
TORSDOF 10
ENDMDL
MODEL 10
REMARK VINA RESULT:      -8.8      4.171      7.902
REMARK  10 active torsions:
REMARK  status: ('A' for Active; 'I' for Inactive)
REMARK    1  A    between atoms: O_2  and  C_15 
REMARK    2  A    between atoms: O_2  and  C_18 
REMARK    3  A    between atoms: O_3  and  C_12 
REMARK    4  A    between atoms: O_4  and  C_13 
REMARK    5  A    between atoms: O_5  and  C_14 
REMARK    6  A    between atoms: O_6  and  C_17 
REMARK    7  A    between atoms: O_9  and  C_20 
REMARK    8  A    between atoms: O_10  and  C_23 
REMARK    9  A    between atoms: C_16  and  C_17 
REMARK   10  A    between atoms: C_25  and  C_27 
ROOT
HETATM    1  O   UNK     0     -55.210 -22.578  -9.844  0.00  0.00    -0.340 OA
HETATM    2  C   UNK     0     -54.232 -25.272  -9.633  0.00  0.00     0.183 C 
HETATM    3  C   UNK     0     -55.592 -24.849  -9.078  0.00  0.00     0.205 C 
HETATM    4  C   UNK     0     -53.750 -24.313 -10.722  0.00  0.00     0.189 C 
HETATM    5  C   UNK     0     -55.606 -23.362  -8.721  0.00  0.00     0.299 C 
HETATM    6  C   UNK     0     -53.880 -22.865 -10.263  0.00  0.00     0.253 C 
ENDROOT
BRANCH   5   7
HETATM    7  O   UNK     0     -56.936 -23.014  -8.335  0.00  0.00    -0.315 OA
BRANCH   7   8
HETATM    8  C   UNK     0     -57.063 -22.200  -7.248  0.00  0.00     0.110 A 
HETATM    9  C   UNK     0     -57.403 -22.755  -6.014  0.00  0.00     0.078 A 
HETATM   10  C   UNK     0     -57.535 -21.930  -4.896  0.00  0.00     0.096 A 
HETATM   11  O   UNK     0     -57.871 -22.532  -3.710  0.00  0.00    -0.309 OA
HETATM   12  C   UNK     0     -57.328 -20.557  -5.015  0.00  0.00     0.084 A 
HETATM   13  C   UNK     0     -58.002 -21.739  -2.581  0.00  0.00     0.090 A 
HETATM   14  C   UNK     0     -57.835 -20.408  -2.569  0.00  0.00     0.094 A 
HETATM   15  C   UNK     0     -57.476 -19.711  -3.821  0.00  0.00     0.190 A 
HETATM   16  O   UNK     0     -57.312 -18.499  -3.853  0.00  0.00    -0.287 OA
HETATM   17  C   UNK     0     -56.988 -19.998  -6.249  0.00  0.00     0.118 A 
HETATM   18  C   UNK     0     -56.857 -20.825  -7.365  0.00  0.00     0.134 A 
BRANCH  13  19
HETATM   19  C   UNK     0     -58.370 -22.488  -1.361  0.00  0.00    -0.002 A 
HETATM   20  C   UNK     0     -59.038 -21.842  -0.317  0.00  0.00     0.014 A 
HETATM   21  C   UNK     0     -59.386 -22.550   0.834  0.00  0.00     0.001 A 
HETATM   22  C   UNK     0     -59.069 -23.903   0.944  0.00  0.00     0.000 A 
HETATM   23  C   UNK     0     -58.402 -24.550  -0.096  0.00  0.00     0.001 A 
HETATM   24  C   UNK     0     -58.053 -23.843  -1.247  0.00  0.00     0.014 A 
ENDBRANCH  13  19
BRANCH  17  25
HETATM   25  O   UNK     0     -56.779 -18.660  -6.403  0.00  0.00    -0.357 OA
HETATM   26  H   UNK     0     -57.619 -18.189  -6.508  0.00  0.00     0.217 HD
ENDBRANCH  17  25
BRANCH  18  27
HETATM   27  O   UNK     0     -56.525 -20.290  -8.576  0.00  0.00    -0.356 OA
HETATM   28  H   UNK     0     -57.162 -20.610  -9.239  0.00  0.00     0.218 HD
ENDBRANCH  18  27
ENDBRANCH   7   8
ENDBRANCH   5   7
BRANCH   6  29
HETATM   29  C   UNK     0     -53.668 -21.921 -11.401  0.00  0.00     0.172 C 
HETATM   30  O   UNK     0     -54.541 -21.245 -11.925  0.00  0.00    -0.648 OA
BRANCH  29  31
HETATM   31  O   UNK     0     -52.367 -21.916 -11.782  0.00  0.00    -0.774 OA
HETATM   32  H   UNK     0     -52.159 -22.658 -12.389  0.00  0.00     0.167 HD
ENDBRANCH  29  31
ENDBRANCH   6  29
BRANCH   3  33
HETATM   33  O   UNK     0     -55.874 -25.596  -7.895  0.00  0.00    -0.388 OA
HETATM   34  H   UNK     0     -56.602 -25.151  -7.431  0.00  0.00     0.210 HD
ENDBRANCH   3  33
BRANCH   4  35
HETATM   35  O   UNK     0     -52.379 -24.581 -11.007  0.00  0.00    -0.390 OA
HETATM   36  H   UNK     0     -52.236 -25.539 -10.926  0.00  0.00     0.210 HD
ENDBRANCH   4  35
BRANCH   2  37
HETATM   37  O   UNK     0     -54.336 -26.576 -10.207  0.00  0.00    -0.390 OA
HETATM   38  H   UNK     0     -54.985 -27.076  -9.686  0.00  0.00     0.210 HD
ENDBRANCH   2  37
TORSDOF 10
ENDMDL
