MODEL 1
REMARK VINA RESULT:     -10.7      0.000      0.000
REMARK  20 active torsions:
REMARK  status: ('A' for Active; 'I' for Inactive)
REMARK    1  A    between atoms: C_3  and  C_7 
REMARK    2  A    between atoms: C_7  and  C_8 
REMARK    3  A    between atoms: C_8  and  N_9 
REMARK    4  A    between atoms: C_8  and  C_10 
REMARK    5  A    between atoms: C_10  and  O_11 
REMARK    6  A    between atoms: C_10  and  C_12 
REMARK    7  A    between atoms: C_12  and  C_13 
REMARK    8  A    between atoms: C_13  and  C_14 
REMARK    9  A    between atoms: C_13  and  N_21 
REMARK   10  A    between atoms: C_14  and  C_15 
REMARK   11  A    between atoms: N_21  and  P_22 
REMARK   12  A    between atoms: P_22  and  O_23 
REMARK   13  A    between atoms: P_22  and  O_24 
REMARK   14  A    between atoms: O_23  and  C_26 
REMARK   15  A    between atoms: O_24  and  C_27 
REMARK   16  A    between atoms: C_26  and  C_33 
REMARK   17  A    between atoms: C_35  and  C_40 
REMARK   18  A    between atoms: C_36  and  O_39 
REMARK   19  A    between atoms: C_37  and  O_38 
REMARK   20  A    between atoms: C_50  and  N_51 
ROOT
HETATM    1  C   MOL     1     -62.695 -28.102   4.734  1.00 -0.25     0.001 A 
HETATM    2  C   MOL     1     -62.210 -27.027   4.025  1.00 -0.30     0.007 A 
HETATM    3  C   MOL     1     -62.898 -26.545   2.933  1.00 -0.25    -0.056 A 
HETATM    4  C   MOL     1     -64.078 -27.150   2.556  1.00 -0.33     0.007 A 
HETATM    5  C   MOL     1     -64.565 -28.225   3.263  1.00 -0.34     0.001 A 
HETATM    6  C   MOL     1     -63.872 -28.702   4.353  1.00 -0.27     0.000 A 
ENDROOT
BRANCH   3   7
HETATM    7  C   MOL     1     -62.361 -25.354   2.151  1.00 -0.43     0.074 C 
BRANCH   7   8
HETATM    8  C   MOL     1     -62.336 -25.536   0.617  1.00 -0.43     0.216 C 
BRANCH   8   9
HETATM    9  N   MOL     1     -61.647 -26.834   0.288  1.00  0.05    -0.072 N 
HETATM   10  H   MOL     1     -62.070 -27.546   0.663  1.00 -0.64     0.274 HD
HETATM   11  H   MOL     1     -61.623 -26.982  -0.610  1.00 -0.76     0.274 HD
HETATM   12  H   MOL     1     -60.785 -26.850   0.571  1.00 -0.15     0.274 HD
ENDBRANCH   8   9
BRANCH   8  13
HETATM   13  C   MOL     1     -61.621 -24.336  -0.046  1.00 -0.29     0.150 C 
BRANCH  13  14
HETATM   14  O   MOL     1     -62.589 -23.456  -0.645  1.00  0.06    -0.393 OA
HETATM   15  H   MOL     1     -62.939 -22.792   0.023  1.00 -0.27     0.210 HD
ENDBRANCH  13  14
BRANCH  13  16
HETATM   16  C   MOL     1     -60.624 -24.805  -1.127  1.00 -0.14     0.054 C 
BRANCH  16  17
HETATM   17  C   MOL     1     -59.551 -23.733  -1.419  1.00 -0.12     0.073 C 
BRANCH  17  18
HETATM   18  C   MOL     1     -58.192 -24.194  -0.845  1.00 -0.13     0.058 C 
BRANCH  18  19
HETATM   19  C   MOL     1     -58.217 -25.505  -0.074  1.00 -0.16    -0.057 A 
HETATM   20  C   MOL     1     -58.163 -26.707  -0.745  1.00 -0.21     0.007 A 
HETATM   21  C   MOL     1     -58.189 -27.895  -0.048  1.00 -0.25     0.001 A 
HETATM   22  C   MOL     1     -58.270 -27.884   1.325  1.00 -0.37     0.000 A 
HETATM   23  C   MOL     1     -58.324 -26.686   2.001  1.00 -0.40     0.001 A 
HETATM   24  C   MOL     1     -58.297 -25.500   1.302  1.00 -0.21     0.007 A 
ENDBRANCH  18  19
ENDBRANCH  17  18
BRANCH  17  25
HETATM   25  N   MOL     1     -59.429 -23.537  -2.870  1.00  0.15    -0.221 NA
HETATM   26  H   MOL     1     -59.673 -24.404  -3.366  1.00  0.32     0.134 HD
BRANCH  25  27
HETATM   27  P   MOL     1     -60.227 -22.374  -3.404  1.00  0.09     0.413 P 
HETATM   28  O   MOL     1     -61.401 -22.843  -4.223  1.00  0.07    -0.239 OA
BRANCH  27  29
HETATM   29  O   MOL     1     -59.306 -21.383  -4.273  1.00  0.12    -0.299 OA
BRANCH  29  30
HETATM   30  C   MOL     1     -57.886 -21.591  -4.288  1.00 -0.20     0.214 C 
BRANCH  30  31
HETATM   31  C   MOL     1     -57.238 -20.670  -5.335  1.00 -0.04     0.180 C 
HETATM   32  O   MOL     1     -57.419 -21.182  -6.667  1.00  0.26    -0.347 OA
HETATM   33  C   MOL     1     -56.278 -20.861  -7.484  1.00 -0.04     0.222 C 
HETATM   34  C   MOL     1     -55.283 -20.121  -6.560  1.00 -0.10     0.205 C 
HETATM   35  C   MOL     1     -56.720 -19.973  -8.567  1.00 -0.21     0.107 C 
HETATM   36  C   MOL     1     -55.723 -20.517  -5.144  1.00 -0.06     0.182 C 
HETATM   37  N   MOL     1     -57.063 -19.285  -9.404  1.00  0.07    -0.193 NA
BRANCH  33  38
HETATM   38  C   MOL     1     -55.800 -22.196  -8.046  1.00 -0.19     0.088 A 
HETATM   39  N   MOL     1     -54.882 -22.246  -9.040  1.00 -0.03    -0.229 N 
HETATM   40  C   MOL     1     -54.697 -23.569  -9.290  1.00 -0.22     0.104 A 
HETATM   41  N   MOL     1     -54.203 -21.294  -9.746  1.00  0.23    -0.160 NA
HETATM   42  C   MOL     1     -55.473 -24.335  -8.481  1.00 -0.37     0.038 A 
HETATM   43  C   MOL     1     -53.770 -23.925 -10.303  1.00 -0.44     0.151 A 
HETATM   44  C   MOL     1     -56.186 -23.438  -7.680  1.00 -0.17     0.034 A 
HETATM   45  N   MOL     1     -53.096 -23.003 -11.004  1.00 -0.19    -0.221 NA
HETATM   46  C   MOL     1     -53.365 -21.700 -10.670  1.00 -0.33     0.258 A 
BRANCH  43  47
HETATM   47  N   MOL     1     -53.528 -25.244 -10.608  1.00 -0.25    -0.382 N 
HETATM   48  H   MOL     1     -53.224 -25.787  -9.985  1.00 -0.27     0.157 HD
HETATM   49  H   MOL     1     -53.676 -25.549 -11.421  1.00 -0.19     0.157 HD
ENDBRANCH  43  47
ENDBRANCH  33  38
BRANCH  34  50
HETATM   50  O   MOL     1     -53.910 -20.462  -6.808  1.00  0.41    -0.388 OA
HETATM   51  H   MOL     1     -53.689 -20.403  -7.787  1.00 -0.42     0.210 HD
ENDBRANCH  34  50
BRANCH  36  52
HETATM   52  O   MOL     1     -55.102 -21.759  -4.776  1.00  0.07    -0.390 OA
HETATM   53  H   MOL     1     -55.329 -22.015  -3.830  1.00 -0.09     0.210 HD
ENDBRANCH  36  52
ENDBRANCH  30  31
ENDBRANCH  29  30
ENDBRANCH  27  29
BRANCH  27  54
HETATM   54  O   MOL     1     -60.724 -21.436  -2.189  1.00  0.13    -0.260 OA
BRANCH  54  55
HETATM   55  C   MOL     1     -61.260 -20.196  -2.398  1.00 -0.29     0.080 A 
HETATM   56  C   MOL     1     -62.416 -20.016  -3.135  1.00 -0.28     0.037 A 
HETATM   57  C   MOL     1     -62.932 -18.756  -3.324  1.00 -0.40     0.003 A 
HETATM   58  C   MOL     1     -62.299 -17.663  -2.777  1.00 -0.35     0.000 A 
HETATM   59  C   MOL     1     -61.148 -17.833  -2.042  1.00 -0.47     0.003 A 
HETATM   60  C   MOL     1     -60.630 -19.093  -1.856  1.00 -0.37     0.037 A 
ENDBRANCH  54  55
ENDBRANCH  27  54
ENDBRANCH  25  27
ENDBRANCH  17  25
ENDBRANCH  16  17
ENDBRANCH  13  16
ENDBRANCH   8  13
ENDBRANCH   7   8
ENDBRANCH   3   7
TORSDOF 20
ENDMDL
MODEL 2
REMARK VINA RESULT:     -10.6      3.698     12.522
REMARK  20 active torsions:
REMARK  status: ('A' for Active; 'I' for Inactive)
REMARK    1  A    between atoms: C_3  and  C_7 
REMARK    2  A    between atoms: C_7  and  C_8 
REMARK    3  A    between atoms: C_8  and  N_9 
REMARK    4  A    between atoms: C_8  and  C_10 
REMARK    5  A    between atoms: C_10  and  O_11 
REMARK    6  A    between atoms: C_10  and  C_12 
REMARK    7  A    between atoms: C_12  and  C_13 
REMARK    8  A    between atoms: C_13  and  C_14 
REMARK    9  A    between atoms: C_13  and  N_21 
REMARK   10  A    between atoms: C_14  and  C_15 
REMARK   11  A    between atoms: N_21  and  P_22 
REMARK   12  A    between atoms: P_22  and  O_23 
REMARK   13  A    between atoms: P_22  and  O_24 
REMARK   14  A    between atoms: O_23  and  C_26 
REMARK   15  A    between atoms: O_24  and  C_27 
REMARK   16  A    between atoms: C_26  and  C_33 
REMARK   17  A    between atoms: C_35  and  C_40 
REMARK   18  A    between atoms: C_36  and  O_39 
REMARK   19  A    between atoms: C_37  and  O_38 
REMARK   20  A    between atoms: C_50  and  N_51 
ROOT
HETATM    1  C   MOL     1     -55.216 -22.890  -6.432  1.00 -0.25     0.001 A 
HETATM    2  C   MOL     1     -56.154 -22.486  -5.508  1.00 -0.30     0.007 A 
HETATM    3  C   MOL     1     -56.327 -21.147  -5.232  1.00 -0.25    -0.056 A 
HETATM    4  C   MOL     1     -55.553 -20.214  -5.889  1.00 -0.33     0.007 A 
HETATM    5  C   MOL     1     -54.614 -20.617  -6.812  1.00 -0.34     0.001 A 
HETATM    6  C   MOL     1     -54.446 -21.955  -7.083  1.00 -0.27     0.000 A 
ENDROOT
BRANCH   3   7
HETATM    7  C   MOL     1     -57.366 -20.702  -4.213  1.00 -0.43     0.074 C 
BRANCH   7   8
HETATM    8  C   MOL     1     -58.766 -21.332  -4.388  1.00 -0.43     0.216 C 
BRANCH   8   9
HETATM    9  N   MOL     1     -59.748 -20.251  -4.754  1.00  0.05    -0.072 N 
HETATM   10  H   MOL     1     -60.291 -20.037  -4.056  1.00 -0.64     0.274 HD
HETATM   11  H   MOL     1     -59.326 -19.485  -5.006  1.00 -0.76     0.274 HD
HETATM   12  H   MOL     1     -60.281 -20.489  -5.450  1.00 -0.15     0.274 HD
ENDBRANCH   8   9
BRANCH   8  13
HETATM   13  C   MOL     1     -59.186 -22.056  -3.088  1.00 -0.29     0.150 C 
BRANCH  13  14
HETATM   14  O   MOL     1     -58.896 -23.462  -3.193  1.00  0.06    -0.393 OA
HETATM   15  H   MOL     1     -58.921 -23.768  -4.151  1.00 -0.27     0.210 HD
ENDBRANCH  13  14
BRANCH  13  16
HETATM   16  C   MOL     1     -60.691 -21.868  -2.803  1.00 -0.14     0.054 C 
BRANCH  16  17
HETATM   17  C   MOL     1     -61.032 -22.152  -1.323  1.00 -0.12     0.073 C 
BRANCH  17  18
HETATM   18  C   MOL     1     -61.576 -20.864  -0.664  1.00 -0.13     0.058 C 
BRANCH  18  19
HETATM   19  C   MOL     1     -61.855 -19.709  -1.613  1.00 -0.16    -0.057 A 
HETATM   20  C   MOL     1     -62.866 -19.803  -2.544  1.00 -0.21     0.007 A 
HETATM   21  C   MOL     1     -63.117 -18.759  -3.407  1.00 -0.25     0.001 A 
HETATM   22  C   MOL     1     -62.356 -17.615  -3.342  1.00 -0.37     0.000 A 
HETATM   23  C   MOL     1     -61.344 -17.516  -2.413  1.00 -0.40     0.001 A 
HETATM   24  C   MOL     1     -61.095 -18.560  -1.552  1.00 -0.21     0.007 A 
ENDBRANCH  18  19
ENDBRANCH  17  18
BRANCH  17  25
HETATM   25  N   MOL     1     -62.048 -23.210  -1.243  1.00  0.15    -0.221 NA
HETATM   26  H   MOL     1     -62.683 -23.152  -2.050  1.00  0.32     0.134 HD
BRANCH  25  27
HETATM   27  P   MOL     1     -61.480 -24.600  -1.110  1.00  0.09     0.413 P 
HETATM   28  O   MOL     1     -61.452 -25.312  -2.437  1.00  0.07    -0.239 OA
BRANCH  27  29
HETATM   29  O   MOL     1     -62.302 -25.467  -0.035  1.00  0.12    -0.299 OA
BRANCH  29  30
HETATM   30  C   MOL     1     -62.843 -24.808   1.120  1.00 -0.20     0.214 C 
BRANCH  30  31
HETATM   31  C   MOL     1     -63.769 -25.771   1.881  1.00 -0.04     0.180 C 
HETATM   32  O   MOL     1     -64.719 -26.392   1.000  1.00  0.26    -0.347 OA
HETATM   33  C   MOL     1     -65.965 -26.615   1.686  1.00 -0.04     0.222 C 
HETATM   34  C   MOL     1     -65.780 -26.039   3.110  1.00 -0.10     0.205 C 
HETATM   35  C   MOL     1     -66.204 -28.063   1.752  1.00 -0.21     0.107 C 
HETATM   36  C   MOL     1     -64.596 -25.073   2.970  1.00 -0.06     0.182 C 
HETATM   37  N   MOL     1     -66.387 -29.184   1.804  1.00  0.07    -0.193 NA
BRANCH  33  38
HETATM   38  C   MOL     1     -67.024 -25.935   0.825  1.00 -0.19     0.088 A 
HETATM   39  N   MOL     1     -68.343 -26.077   1.099  1.00 -0.03    -0.229 N 
HETATM   40  C   MOL     1     -68.986 -25.352   0.146  1.00 -0.22     0.104 A 
HETATM   41  N   MOL     1     -69.039 -26.752   2.061  1.00  0.23    -0.160 NA
HETATM   42  C   MOL     1     -68.105 -24.771  -0.708  1.00 -0.37     0.038 A 
HETATM   43  C   MOL     1     -70.404 -25.319   0.189  1.00 -0.44     0.151 A 
HETATM   44  C   MOL     1     -66.837 -25.155  -0.262  1.00 -0.17     0.034 A 
HETATM   45  N   MOL     1     -71.102 -25.976   1.125  1.00 -0.19    -0.221 NA
HETATM   46  C   MOL     1     -70.349 -26.676   2.034  1.00 -0.33     0.258 A 
BRANCH  43  47
HETATM   47  N   MOL     1     -71.122 -24.603  -0.740  1.00 -0.25    -0.382 N 
HETATM   48  H   MOL     1     -70.825 -24.538  -1.567  1.00 -0.27     0.157 HD
HETATM   49  H   MOL     1     -71.878 -24.211  -0.515  1.00 -0.19     0.157 HD
ENDBRANCH  43  47
ENDBRANCH  33  38
BRANCH  34  50
HETATM   50  O   MOL     1     -66.950 -25.380   3.618  1.00  0.41    -0.388 OA
HETATM   51  H   MOL     1     -67.035 -25.499   4.613  1.00 -0.42     0.210 HD
ENDBRANCH  34  50
BRANCH  36  52
HETATM   52  O   MOL     1     -65.071 -23.788   2.539  1.00  0.07    -0.390 OA
HETATM   53  H   MOL     1     -65.926 -23.538   3.007  1.00 -0.09     0.210 HD
ENDBRANCH  36  52
ENDBRANCH  30  31
ENDBRANCH  29  30
ENDBRANCH  27  29
BRANCH  27  54
HETATM   54  O   MOL     1     -60.000 -24.538  -0.472  1.00  0.13    -0.260 OA
BRANCH  54  55
HETATM   55  C   MOL     1     -59.378 -25.645   0.035  1.00 -0.29     0.080 A 
HETATM   56  C   MOL     1     -58.962 -25.709   1.352  1.00 -0.28     0.037 A 
HETATM   57  C   MOL     1     -58.342 -26.839   1.833  1.00 -0.40     0.003 A 
HETATM   58  C   MOL     1     -58.133 -27.916   1.001  1.00 -0.35     0.000 A 
HETATM   59  C   MOL     1     -58.542 -27.860  -0.311  1.00 -0.47     0.003 A 
HETATM   60  C   MOL     1     -59.160 -26.730  -0.792  1.00 -0.37     0.037 A 
ENDBRANCH  54  55
ENDBRANCH  27  54
ENDBRANCH  25  27
ENDBRANCH  17  25
ENDBRANCH  16  17
ENDBRANCH  13  16
ENDBRANCH   8  13
ENDBRANCH   7   8
ENDBRANCH   3   7
TORSDOF 20
ENDMDL
MODEL 3
REMARK VINA RESULT:     -10.5      4.582      8.291
REMARK  20 active torsions:
REMARK  status: ('A' for Active; 'I' for Inactive)
REMARK    1  A    between atoms: C_3  and  C_7 
REMARK    2  A    between atoms: C_7  and  C_8 
REMARK    3  A    between atoms: C_8  and  N_9 
REMARK    4  A    between atoms: C_8  and  C_10 
REMARK    5  A    between atoms: C_10  and  O_11 
REMARK    6  A    between atoms: C_10  and  C_12 
REMARK    7  A    between atoms: C_12  and  C_13 
REMARK    8  A    between atoms: C_13  and  C_14 
REMARK    9  A    between atoms: C_13  and  N_21 
REMARK   10  A    between atoms: C_14  and  C_15 
REMARK   11  A    between atoms: N_21  and  P_22 
REMARK   12  A    between atoms: P_22  and  O_23 
REMARK   13  A    between atoms: P_22  and  O_24 
REMARK   14  A    between atoms: O_23  and  C_26 
REMARK   15  A    between atoms: O_24  and  C_27 
REMARK   16  A    between atoms: C_26  and  C_33 
REMARK   17  A    between atoms: C_35  and  C_40 
REMARK   18  A    between atoms: C_36  and  O_39 
REMARK   19  A    between atoms: C_37  and  O_38 
REMARK   20  A    between atoms: C_50  and  N_51 
ROOT
HETATM    1  C   MOL     1     -69.725 -28.348  -1.566  1.00 -0.25     0.001 A 
HETATM    2  C   MOL     1     -68.699 -27.988  -0.722  1.00 -0.30     0.007 A 
HETATM    3  C   MOL     1     -68.249 -26.686  -0.689  1.00 -0.25    -0.056 A 
HETATM    4  C   MOL     1     -68.835 -25.746  -1.509  1.00 -0.33     0.007 A 
HETATM    5  C   MOL     1     -69.860 -26.104  -2.355  1.00 -0.34     0.001 A 
HETATM    6  C   MOL     1     -70.305 -27.406  -2.383  1.00 -0.27     0.000 A 
ENDROOT
BRANCH   3   7
HETATM    7  C   MOL     1     -67.117 -26.289   0.248  1.00 -0.43     0.074 C 
BRANCH   7   8
HETATM    8  C   MOL     1     -67.559 -25.564   1.538  1.00 -0.43     0.216 C 
BRANCH   8   9
HETATM    9  N   MOL     1     -66.770 -24.289   1.680  1.00  0.05    -0.072 N 
HETATM   10  H   MOL     1     -67.116 -23.748   2.323  1.00 -0.64     0.274 HD
HETATM   11  H   MOL     1     -65.905 -24.454   1.909  1.00 -0.76     0.274 HD
HETATM   12  H   MOL     1     -66.743 -23.811   0.908  1.00 -0.15     0.274 HD
ENDBRANCH   8   9
BRANCH   8  13
HETATM   13  C   MOL     1     -67.357 -26.489   2.760  1.00 -0.29     0.150 C 
BRANCH  13  14
HETATM   14  O   MOL     1     -66.714 -25.764   3.824  1.00  0.06    -0.393 OA
HETATM   15  H   MOL     1     -66.404 -26.385   4.553  1.00 -0.27     0.210 HD
ENDBRANCH  13  14
BRANCH  13  16
HETATM   16  C   MOL     1     -66.500 -27.721   2.396  1.00 -0.14     0.054 C 
BRANCH  16  17
HETATM   17  C   MOL     1     -65.018 -27.521   2.784  1.00 -0.12     0.073 C 
BRANCH  17  18
HETATM   18  C   MOL     1     -64.329 -28.899   2.907  1.00 -0.13     0.058 C 
BRANCH  18  19
HETATM   19  C   MOL     1     -63.805 -29.250   4.291  1.00 -0.16    -0.057 A 
HETATM   20  C   MOL     1     -64.251 -30.384   4.935  1.00 -0.21     0.007 A 
HETATM   21  C   MOL     1     -63.781 -30.701   6.190  1.00 -0.25     0.001 A 
HETATM   22  C   MOL     1     -62.862 -29.884   6.807  1.00 -0.37     0.000 A 
HETATM   23  C   MOL     1     -62.413 -28.750   6.168  1.00 -0.40     0.001 A 
HETATM   24  C   MOL     1     -62.884 -28.435   4.913  1.00 -0.21     0.007 A 
ENDBRANCH  18  19
ENDBRANCH  17  18
BRANCH  17  25
HETATM   25  N   MOL     1     -64.340 -26.724   1.753  1.00  0.15    -0.221 NA
HETATM   26  H   MOL     1     -65.025 -26.364   1.076  1.00  0.32     0.134 HD
BRANCH  25  27
HETATM   27  P   MOL     1     -63.492 -25.604   2.301  1.00  0.09     0.413 P 
HETATM   28  O   MOL     1     -64.228 -24.823   3.358  1.00  0.07    -0.239 OA
BRANCH  27  29
HETATM   29  O   MOL     1     -62.997 -24.619   1.130  1.00  0.12    -0.299 OA
BRANCH  29  30
HETATM   30  C   MOL     1     -63.396 -24.893  -0.221  1.00 -0.20     0.214 C 
BRANCH  30  31
HETATM   31  C   MOL     1     -62.182 -24.772  -1.156  1.00 -0.04     0.180 C 
HETATM   32  O   MOL     1     -61.314 -23.699  -0.752  1.00  0.26    -0.347 OA
HETATM   33  C   MOL     1     -60.706 -23.087  -1.906  1.00 -0.04     0.222 C 
HETATM   34  C   MOL     1     -61.286 -23.823  -3.137  1.00 -0.10     0.205 C 
HETATM   35  C   MOL     1     -59.255 -23.295  -1.828  1.00 -0.21     0.107 C 
HETATM   36  C   MOL     1     -62.572 -24.475  -2.611  1.00 -0.06     0.182 C 
HETATM   37  N   MOL     1     -58.131 -23.457  -1.767  1.00  0.07    -0.193 NA
BRANCH  33  38
HETATM   38  C   MOL     1     -61.043 -21.604  -1.797  1.00 -0.19     0.088 A 
HETATM   39  N   MOL     1     -60.490 -20.699  -2.640  1.00 -0.03    -0.229 N 
HETATM   40  C   MOL     1     -61.001 -19.498  -2.260  1.00 -0.22     0.104 A 
HETATM   41  N   MOL     1     -59.607 -20.793  -3.678  1.00  0.23    -0.160 NA
HETATM   42  C   MOL     1     -61.850 -19.635  -1.209  1.00 -0.37     0.038 A 
HETATM   43  C   MOL     1     -60.589 -18.349  -2.984  1.00 -0.44     0.151 A 
HETATM   44  C   MOL     1     -61.869 -21.001  -0.915  1.00 -0.17     0.034 A 
HETATM   45  N   MOL     1     -59.724 -18.425  -4.004  1.00 -0.19    -0.221 NA
HETATM   46  C   MOL     1     -59.271 -19.686  -4.297  1.00 -0.33     0.258 A 
BRANCH  43  47
HETATM   47  N   MOL     1     -61.068 -17.101  -2.659  1.00 -0.25    -0.382 N 
HETATM   48  H   MOL     1     -61.687 -16.727  -3.161  1.00 -0.27     0.157 HD
HETATM   49  H   MOL     1     -60.760 -16.675  -1.953  1.00 -0.19     0.157 HD
ENDBRANCH  43  47
ENDBRANCH  33  38
BRANCH  34  50
HETATM   50  O   MOL     1     -61.543 -22.957  -4.253  1.00  0.41    -0.388 OA
HETATM   51  H   MOL     1     -62.086 -23.422  -4.960  1.00 -0.42     0.210 HD
ENDBRANCH  34  50
BRANCH  36  52
HETATM   52  O   MOL     1     -63.656 -23.536  -2.693  1.00  0.07    -0.390 OA
HETATM   53  H   MOL     1     -63.534 -22.780  -2.041  1.00 -0.09     0.210 HD
ENDBRANCH  36  52
ENDBRANCH  30  31
ENDBRANCH  29  30
ENDBRANCH  27  29
BRANCH  27  54
HETATM   54  O   MOL     1     -62.109 -26.189   2.891  1.00  0.13    -0.260 OA
BRANCH  54  55
HETATM   55  C   MOL     1     -60.904 -25.961   2.287  1.00 -0.29     0.080 A 
HETATM   56  C   MOL     1     -60.366 -26.848   1.373  1.00 -0.28     0.037 A 
HETATM   57  C   MOL     1     -59.153 -26.587   0.781  1.00 -0.40     0.003 A 
HETATM   58  C   MOL     1     -58.467 -25.436   1.094  1.00 -0.35     0.000 A 
HETATM   59  C   MOL     1     -58.995 -24.548   2.003  1.00 -0.47     0.003 A 
HETATM   60  C   MOL     1     -60.206 -24.810   2.597  1.00 -0.37     0.037 A 
ENDBRANCH  54  55
ENDBRANCH  27  54
ENDBRANCH  25  27
ENDBRANCH  17  25
ENDBRANCH  16  17
ENDBRANCH  13  16
ENDBRANCH   8  13
ENDBRANCH   7   8
ENDBRANCH   3   7
TORSDOF 20
ENDMDL
MODEL 4
REMARK VINA RESULT:     -10.3      4.788      9.845
REMARK  20 active torsions:
REMARK  status: ('A' for Active; 'I' for Inactive)
REMARK    1  A    between atoms: C_3  and  C_7 
REMARK    2  A    between atoms: C_7  and  C_8 
REMARK    3  A    between atoms: C_8  and  N_9 
REMARK    4  A    between atoms: C_8  and  C_10 
REMARK    5  A    between atoms: C_10  and  O_11 
REMARK    6  A    between atoms: C_10  and  C_12 
REMARK    7  A    between atoms: C_12  and  C_13 
REMARK    8  A    between atoms: C_13  and  C_14 
REMARK    9  A    between atoms: C_13  and  N_21 
REMARK   10  A    between atoms: C_14  and  C_15 
REMARK   11  A    between atoms: N_21  and  P_22 
REMARK   12  A    between atoms: P_22  and  O_23 
REMARK   13  A    between atoms: P_22  and  O_24 
REMARK   14  A    between atoms: O_23  and  C_26 
REMARK   15  A    between atoms: O_24  and  C_27 
REMARK   16  A    between atoms: C_26  and  C_33 
REMARK   17  A    between atoms: C_35  and  C_40 
REMARK   18  A    between atoms: C_36  and  O_39 
REMARK   19  A    between atoms: C_37  and  O_38 
REMARK   20  A    between atoms: C_50  and  N_51 
ROOT
HETATM    1  C   MOL     1     -71.319 -24.997  -0.518  1.00 -0.25     0.001 A 
HETATM    2  C   MOL     1     -69.943 -24.964  -0.561  1.00 -0.30     0.007 A 
HETATM    3  C   MOL     1     -69.250 -25.849  -1.357  1.00 -0.25    -0.056 A 
HETATM    4  C   MOL     1     -69.945 -26.769  -2.112  1.00 -0.33     0.007 A 
HETATM    5  C   MOL     1     -71.321 -26.804  -2.070  1.00 -0.34     0.001 A 
HETATM    6  C   MOL     1     -72.007 -25.918  -1.273  1.00 -0.27     0.000 A 
ENDROOT
BRANCH   3   7
HETATM    7  C   MOL     1     -67.729 -25.809  -1.405  1.00 -0.43     0.074 C 
BRANCH   7   8
HETATM    8  C   MOL     1     -67.088 -24.548  -0.784  1.00 -0.43     0.216 C 
BRANCH   8   9
HETATM    9  N   MOL     1     -66.133 -23.941  -1.778  1.00  0.05    -0.072 N 
HETATM   10  H   MOL     1     -65.287 -23.893  -1.448  1.00 -0.64     0.274 HD
HETATM   11  H   MOL     1     -66.091 -24.431  -2.544  1.00 -0.76     0.274 HD
HETATM   12  H   MOL     1     -66.377 -23.102  -2.025  1.00 -0.15     0.274 HD
ENDBRANCH   8   9
BRANCH   8  13
HETATM   13  C   MOL     1     -66.368 -24.915   0.534  1.00 -0.29     0.150 C 
BRANCH  13  14
HETATM   14  O   MOL     1     -65.401 -23.902   0.865  1.00  0.06    -0.393 OA
HETATM   15  H   MOL     1     -64.529 -24.311   1.153  1.00 -0.27     0.210 HD
ENDBRANCH  13  14
BRANCH  13  16
HETATM   16  C   MOL     1     -65.655 -26.280   0.423  1.00 -0.14     0.054 C 
BRANCH  16  17
HETATM   17  C   MOL     1     -65.875 -27.144   1.685  1.00 -0.12     0.073 C 
BRANCH  17  18
HETATM   18  C   MOL     1     -66.750 -28.366   1.325  1.00 -0.13     0.058 C 
BRANCH  18  19
HETATM   19  C   MOL     1     -68.251 -28.165   1.473  1.00 -0.16    -0.057 A 
HETATM   20  C   MOL     1     -68.741 -27.133   2.244  1.00 -0.21     0.007 A 
HETATM   21  C   MOL     1     -70.099 -26.952   2.381  1.00 -0.25     0.001 A 
HETATM   22  C   MOL     1     -70.974 -27.804   1.749  1.00 -0.37     0.000 A 
HETATM   23  C   MOL     1     -70.490 -28.837   0.978  1.00 -0.40     0.001 A 
HETATM   24  C   MOL     1     -69.131 -29.015   0.841  1.00 -0.21     0.007 A 
ENDBRANCH  18  19
ENDBRANCH  17  18
BRANCH  17  25
HETATM   25  N   MOL     1     -64.579 -27.605   2.200  1.00  0.15    -0.221 NA
HETATM   26  H   MOL     1     -63.923 -27.757   1.424  1.00  0.32     0.134 HD
BRANCH  25  27
HETATM   27  P   MOL     1     -63.972 -26.696   3.240  1.00  0.09     0.413 P 
HETATM   28  O   MOL     1     -64.949 -26.397   4.347  1.00  0.07    -0.239 OA
BRANCH  27  29
HETATM   29  O   MOL     1     -63.444 -25.327   2.583  1.00  0.12    -0.299 OA
BRANCH  29  30
HETATM   30  C   MOL     1     -62.053 -24.995   2.696  1.00 -0.20     0.214 C 
BRANCH  30  31
HETATM   31  C   MOL     1     -61.312 -25.423   1.419  1.00 -0.04     0.180 C 
HETATM   32  O   MOL     1     -60.027 -24.785   1.319  1.00  0.26    -0.347 OA
HETATM   33  C   MOL     1     -59.704 -24.527  -0.061  1.00 -0.04     0.222 C 
HETATM   34  C   MOL     1     -60.921 -25.014  -0.884  1.00 -0.10     0.205 C 
HETATM   35  C   MOL     1     -58.511 -25.309  -0.409  1.00 -0.21     0.107 C 
HETATM   36  C   MOL     1     -62.067 -25.056   0.134  1.00 -0.06     0.182 C 
HETATM   37  N   MOL     1     -57.588 -25.915  -0.679  1.00  0.07    -0.193 NA
BRANCH  33  38
HETATM   38  C   MOL     1     -59.407 -23.033  -0.131  1.00 -0.19     0.088 A 
HETATM   39  N   MOL     1     -58.860 -22.482  -1.241  1.00 -0.03    -0.229 N 
HETATM   40  C   MOL     1     -58.732 -21.159  -0.956  1.00 -0.22     0.104 A 
HETATM   41  N   MOL     1     -58.464 -22.985  -2.447  1.00  0.23    -0.160 NA
HETATM   42  C   MOL     1     -59.181 -20.879   0.294  1.00 -0.37     0.038 A 
HETATM   43  C   MOL     1     -58.179 -20.320  -1.958  1.00 -0.44     0.151 A 
HETATM   44  C   MOL     1     -59.614 -22.099   0.822  1.00 -0.17     0.034 A 
HETATM   45  N   MOL     1     -57.786 -20.798  -3.146  1.00 -0.19    -0.221 NA
HETATM   46  C   MOL     1     -57.959 -22.148  -3.322  1.00 -0.33     0.258 A 
BRANCH  43  47
HETATM   47  N   MOL     1     -58.023 -18.971  -1.743  1.00 -0.25    -0.382 N 
HETATM   48  H   MOL     1     -58.266 -18.620  -0.973  1.00 -0.27     0.157 HD
HETATM   49  H   MOL     1     -57.680 -18.456  -2.370  1.00 -0.19     0.157 HD
ENDBRANCH  43  47
ENDBRANCH  33  38
BRANCH  34  50
HETATM   50  O   MOL     1     -61.230 -24.167  -2.002  1.00  0.41    -0.388 OA
HETATM   51  H   MOL     1     -60.593 -23.391  -2.061  1.00 -0.42     0.210 HD
ENDBRANCH  34  50
BRANCH  36  52
HETATM   52  O   MOL     1     -62.679 -23.760   0.226  1.00  0.07    -0.390 OA
HETATM   53  H   MOL     1     -63.472 -23.773   0.846  1.00 -0.09     0.210 HD
ENDBRANCH  36  52
ENDBRANCH  30  31
ENDBRANCH  29  30
ENDBRANCH  27  29
BRANCH  27  54
HETATM   54  O   MOL     1     -62.626 -27.354   3.837  1.00  0.13    -0.260 OA
BRANCH  54  55
HETATM   55  C   MOL     1     -62.627 -28.562   4.478  1.00 -0.29     0.080 A 
HETATM   56  C   MOL     1     -62.579 -29.756   3.783  1.00 -0.28     0.037 A 
HETATM   57  C   MOL     1     -62.578 -30.955   4.458  1.00 -0.40     0.003 A 
HETATM   58  C   MOL     1     -62.623 -30.971   5.833  1.00 -0.35     0.000 A 
HETATM   59  C   MOL     1     -62.671 -29.786   6.533  1.00 -0.47     0.003 A 
HETATM   60  C   MOL     1     -62.675 -28.589   5.859  1.00 -0.37     0.037 A 
ENDBRANCH  54  55
ENDBRANCH  27  54
ENDBRANCH  25  27
ENDBRANCH  17  25
ENDBRANCH  16  17
ENDBRANCH  13  16
ENDBRANCH   8  13
ENDBRANCH   7   8
ENDBRANCH   3   7
TORSDOF 20
ENDMDL
MODEL 5
REMARK VINA RESULT:     -10.3      5.145      9.928
REMARK  20 active torsions:
REMARK  status: ('A' for Active; 'I' for Inactive)
REMARK    1  A    between atoms: C_3  and  C_7 
REMARK    2  A    between atoms: C_7  and  C_8 
REMARK    3  A    between atoms: C_8  and  N_9 
REMARK    4  A    between atoms: C_8  and  C_10 
REMARK    5  A    between atoms: C_10  and  O_11 
REMARK    6  A    between atoms: C_10  and  C_12 
REMARK    7  A    between atoms: C_12  and  C_13 
REMARK    8  A    between atoms: C_13  and  C_14 
REMARK    9  A    between atoms: C_13  and  N_21 
REMARK   10  A    between atoms: C_14  and  C_15 
REMARK   11  A    between atoms: N_21  and  P_22 
REMARK   12  A    between atoms: P_22  and  O_23 
REMARK   13  A    between atoms: P_22  and  O_24 
REMARK   14  A    between atoms: O_23  and  C_26 
REMARK   15  A    between atoms: O_24  and  C_27 
REMARK   16  A    between atoms: C_26  and  C_33 
REMARK   17  A    between atoms: C_35  and  C_40 
REMARK   18  A    between atoms: C_36  and  O_39 
REMARK   19  A    between atoms: C_37  and  O_38 
REMARK   20  A    between atoms: C_50  and  N_51 
ROOT
HETATM    1  C   MOL     1     -70.900 -26.624  -1.979  1.00 -0.25     0.001 A 
HETATM    2  C   MOL     1     -69.526 -26.711  -1.945  1.00 -0.30     0.007 A 
HETATM    3  C   MOL     1     -68.791 -25.824  -1.190  1.00 -0.25    -0.056 A 
HETATM    4  C   MOL     1     -69.442 -24.847  -0.467  1.00 -0.33     0.007 A 
HETATM    5  C   MOL     1     -70.815 -24.759  -0.500  1.00 -0.34     0.001 A 
HETATM    6  C   MOL     1     -71.544 -25.647  -1.256  1.00 -0.27     0.000 A 
ENDROOT
BRANCH   3   7
HETATM    7  C   MOL     1     -67.272 -25.923  -1.152  1.00 -0.43     0.074 C 
BRANCH   7   8
HETATM    8  C   MOL     1     -66.549 -24.679  -0.589  1.00 -0.43     0.216 C 
BRANCH   8   9
HETATM    9  N   MOL     1     -65.500 -24.233  -1.572  1.00  0.05    -0.072 N 
HETATM   10  H   MOL     1     -65.430 -24.806  -2.274  1.00 -0.64     0.274 HD
HETATM   11  H   MOL     1     -65.691 -23.413  -1.917  1.00 -0.76     0.274 HD
HETATM   12  H   MOL     1     -64.677 -24.166  -1.194  1.00 -0.15     0.274 HD
ENDBRANCH   8   9
BRANCH   8  13
HETATM   13  C   MOL     1     -65.926 -25.008   0.788  1.00 -0.29     0.150 C 
BRANCH  13  14
HETATM   14  O   MOL     1     -65.049 -23.944   1.197  1.00  0.06    -0.393 OA
HETATM   15  H   MOL     1     -64.805 -24.026   2.169  1.00 -0.27     0.210 HD
ENDBRANCH  13  14
BRANCH  13  16
HETATM   16  C   MOL     1     -65.132 -26.331   0.742  1.00 -0.14     0.054 C 
BRANCH  16  17
HETATM   17  C   MOL     1     -65.519 -27.270   1.906  1.00 -0.12     0.073 C 
BRANCH  17  18
HETATM   18  C   MOL     1     -66.453 -28.384   1.380  1.00 -0.13     0.058 C 
BRANCH  18  19
HETATM   19  C   MOL     1     -67.943 -28.123   1.545  1.00 -0.16    -0.057 A 
HETATM   20  C   MOL     1     -68.382 -27.074   2.323  1.00 -0.21     0.007 A 
HETATM   21  C   MOL     1     -69.731 -26.839   2.476  1.00 -0.25     0.001 A 
HETATM   22  C   MOL     1     -70.646 -27.654   1.852  1.00 -0.37     0.000 A 
HETATM   23  C   MOL     1     -70.212 -28.703   1.074  1.00 -0.40     0.001 A 
HETATM   24  C   MOL     1     -68.864 -28.936   0.921  1.00 -0.21     0.007 A 
ENDBRANCH  18  19
ENDBRANCH  17  18
BRANCH  17  25
HETATM   25  N   MOL     1     -64.308 -27.876   2.476  1.00  0.15    -0.221 NA
HETATM   26  H   MOL     1     -63.543 -27.853   1.790  1.00  0.32     0.134 HD
BRANCH  25  27
HETATM   27  P   MOL     1     -63.871 -27.264   3.783  1.00  0.09     0.413 P 
HETATM   28  O   MOL     1     -64.797 -26.156   4.208  1.00  0.07    -0.239 OA
BRANCH  27  29
HETATM   29  O   MOL     1     -62.360 -26.720   3.697  1.00  0.12    -0.299 OA
BRANCH  29  30
HETATM   30  C   MOL     1     -61.556 -27.084   2.566  1.00 -0.20     0.214 C 
BRANCH  30  31
HETATM   31  C   MOL     1     -60.468 -26.021   2.340  1.00 -0.04     0.180 C 
HETATM   32  O   MOL     1     -60.982 -24.891   1.615  1.00  0.26    -0.347 OA
HETATM   33  C   MOL     1     -59.961 -24.338   0.763  1.00 -0.04     0.222 C 
HETATM   34  C   MOL     1     -58.715 -25.237   0.947  1.00 -0.10     0.205 C 
HETATM   35  C   MOL     1     -59.672 -22.971   1.216  1.00 -0.21     0.107 C 
HETATM   36  C   MOL     1     -59.280 -26.544   1.520  1.00 -0.06     0.182 C 
HETATM   37  N   MOL     1     -59.447 -21.914   1.567  1.00  0.07    -0.193 NA
BRANCH  33  38
HETATM   38  C   MOL     1     -60.570 -24.323  -0.635  1.00 -0.19     0.088 A 
HETATM   39  N   MOL     1     -59.953 -23.686  -1.659  1.00 -0.03    -0.229 N 
HETATM   40  C   MOL     1     -60.763 -23.871  -2.735  1.00 -0.22     0.104 A 
HETATM   41  N   MOL     1     -58.792 -22.975  -1.764  1.00  0.23    -0.160 NA
HETATM   42  C   MOL     1     -61.860 -24.599  -2.405  1.00 -0.37     0.038 A 
HETATM   43  C   MOL     1     -60.357 -23.303  -3.970  1.00 -0.44     0.151 A 
HETATM   44  C   MOL     1     -61.729 -24.886  -1.043  1.00 -0.17     0.034 A 
HETATM   45  N   MOL     1     -59.220 -22.602  -4.090  1.00 -0.19    -0.221 NA
HETATM   46  C   MOL     1     -58.484 -22.477  -2.939  1.00 -0.33     0.258 A 
BRANCH  43  47
HETATM   47  N   MOL     1     -61.123 -23.452  -5.102  1.00 -0.25    -0.382 N 
HETATM   48  H   MOL     1     -61.698 -22.824  -5.326  1.00 -0.27     0.157 HD
HETATM   49  H   MOL     1     -61.041 -24.170  -5.605  1.00 -0.19     0.157 HD
ENDBRANCH  43  47
ENDBRANCH  33  38
BRANCH  34  50
HETATM   50  O   MOL     1     -57.984 -25.458  -0.269  1.00  0.41    -0.388 OA
HETATM   51  H   MOL     1     -57.198 -26.067  -0.118  1.00 -0.42     0.210 HD
ENDBRANCH  34  50
BRANCH  36  52
HETATM   52  O   MOL     1     -59.705 -27.396   0.446  1.00  0.07    -0.390 OA
HETATM   53  H   MOL     1     -59.277 -27.129  -0.425  1.00 -0.09     0.210 HD
ENDBRANCH  36  52
ENDBRANCH  30  31
ENDBRANCH  29  30
ENDBRANCH  27  29
BRANCH  27  54
HETATM   54  O   MOL     1     -63.784 -28.398   4.927  1.00  0.13    -0.260 OA
BRANCH  54  55
HETATM   55  C   MOL     1     -63.466 -29.697   4.644  1.00 -0.29     0.080 A 
HETATM   56  C   MOL     1     -62.155 -30.112   4.498  1.00 -0.28     0.037 A 
HETATM   57  C   MOL     1     -61.868 -31.427   4.217  1.00 -0.40     0.003 A 
HETATM   58  C   MOL     1     -62.889 -32.341   4.079  1.00 -0.35     0.000 A 
HETATM   59  C   MOL     1     -64.196 -31.936   4.222  1.00 -0.47     0.003 A 
HETATM   60  C   MOL     1     -64.483 -30.621   4.501  1.00 -0.37     0.037 A 
ENDBRANCH  54  55
ENDBRANCH  27  54
ENDBRANCH  25  27
ENDBRANCH  17  25
ENDBRANCH  16  17
ENDBRANCH  13  16
ENDBRANCH   8  13
ENDBRANCH   7   8
ENDBRANCH   3   7
TORSDOF 20
ENDMDL
MODEL 6
REMARK VINA RESULT:     -10.1      4.601      8.258
REMARK  20 active torsions:
REMARK  status: ('A' for Active; 'I' for Inactive)
REMARK    1  A    between atoms: C_3  and  C_7 
REMARK    2  A    between atoms: C_7  and  C_8 
REMARK    3  A    between atoms: C_8  and  N_9 
REMARK    4  A    between atoms: C_8  and  C_10 
REMARK    5  A    between atoms: C_10  and  O_11 
REMARK    6  A    between atoms: C_10  and  C_12 
REMARK    7  A    between atoms: C_12  and  C_13 
REMARK    8  A    between atoms: C_13  and  C_14 
REMARK    9  A    between atoms: C_13  and  N_21 
REMARK   10  A    between atoms: C_14  and  C_15 
REMARK   11  A    between atoms: N_21  and  P_22 
REMARK   12  A    between atoms: P_22  and  O_23 
REMARK   13  A    between atoms: P_22  and  O_24 
REMARK   14  A    between atoms: O_23  and  C_26 
REMARK   15  A    between atoms: O_24  and  C_27 
REMARK   16  A    between atoms: C_26  and  C_33 
REMARK   17  A    between atoms: C_35  and  C_40 
REMARK   18  A    between atoms: C_36  and  O_39 
REMARK   19  A    between atoms: C_37  and  O_38 
REMARK   20  A    between atoms: C_50  and  N_51 
ROOT
HETATM    1  C   MOL     1     -65.225 -32.452   7.287  1.00 -0.25     0.001 A 
HETATM    2  C   MOL     1     -64.124 -31.642   7.122  1.00 -0.30     0.007 A 
HETATM    3  C   MOL     1     -63.880 -31.038   5.908  1.00 -0.25    -0.056 A 
HETATM    4  C   MOL     1     -64.749 -31.252   4.858  1.00 -0.33     0.007 A 
HETATM    5  C   MOL     1     -65.849 -32.063   5.022  1.00 -0.34     0.001 A 
HETATM    6  C   MOL     1     -66.087 -32.663   6.237  1.00 -0.27     0.000 A 
ENDROOT
BRANCH   3   7
HETATM    7  C   MOL     1     -62.665 -30.140   5.727  1.00 -0.43     0.074 C 
BRANCH   7   8
HETATM    8  C   MOL     1     -62.478 -29.569   4.304  1.00 -0.43     0.216 C 
BRANCH   8   9
HETATM    9  N   MOL     1     -61.170 -30.062   3.745  1.00  0.05    -0.072 N 
HETATM   10  H   MOL     1     -60.694 -29.391   3.358  1.00 -0.64     0.274 HD
HETATM   11  H   MOL     1     -60.643 -30.423   4.393  1.00 -0.76     0.274 HD
HETATM   12  H   MOL     1     -61.283 -30.710   3.118  1.00 -0.15     0.274 HD
ENDBRANCH   8   9
BRANCH   8  13
HETATM   13  C   MOL     1     -62.526 -28.024   4.344  1.00 -0.29     0.150 C 
BRANCH  13  14
HETATM   14  O   MOL     1     -62.051 -27.550   5.616  1.00  0.06    -0.393 OA
HETATM   15  H   MOL     1     -61.099 -27.233   5.554  1.00 -0.27     0.210 HD
ENDBRANCH  13  14
BRANCH  13  16
HETATM   16  C   MOL     1     -63.960 -27.502   4.111  1.00 -0.14     0.054 C 
BRANCH  16  17
HETATM   17  C   MOL     1     -63.992 -26.370   3.060  1.00 -0.12     0.073 C 
BRANCH  17  18
HETATM   18  C   MOL     1     -65.316 -25.584   3.190  1.00 -0.13     0.058 C 
BRANCH  18  19
HETATM   19  C   MOL     1     -66.180 -25.542   1.939  1.00 -0.16    -0.057 A 
HETATM   20  C   MOL     1     -66.963 -24.440   1.671  1.00 -0.21     0.007 A 
HETATM   21  C   MOL     1     -67.748 -24.402   0.540  1.00 -0.25     0.001 A 
HETATM   22  C   MOL     1     -67.755 -25.469  -0.328  1.00 -0.37     0.000 A 
HETATM   23  C   MOL     1     -66.976 -26.573  -0.065  1.00 -0.40     0.001 A 
HETATM   24  C   MOL     1     -66.191 -26.608   1.065  1.00 -0.21     0.007 A 
ENDBRANCH  18  19
ENDBRANCH  17  18
BRANCH  17  25
HETATM   25  N   MOL     1     -62.859 -25.460   3.278  1.00  0.15    -0.221 NA
HETATM   26  H   MOL     1     -62.247 -25.828   4.018  1.00  0.32     0.134 HD
BRANCH  25  27
HETATM   27  P   MOL     1     -62.066 -25.154   2.033  1.00  0.09     0.413 P 
HETATM   28  O   MOL     1     -60.803 -24.402   2.356  1.00  0.07    -0.239 OA
BRANCH  27  29
HETATM   29  O   MOL     1     -62.944 -24.329   0.968  1.00  0.12    -0.299 OA
BRANCH  29  30
HETATM   30  C   MOL     1     -63.259 -24.940  -0.292  1.00 -0.20     0.214 C 
BRANCH  30  31
HETATM   31  C   MOL     1     -62.086 -24.753  -1.267  1.00 -0.04     0.180 C 
HETATM   32  O   MOL     1     -61.228 -23.675  -0.856  1.00  0.26    -0.347 OA
HETATM   33  C   MOL     1     -60.680 -23.005  -2.007  1.00 -0.04     0.222 C 
HETATM   34  C   MOL     1     -61.290 -23.709  -3.243  1.00 -0.10     0.205 C 
HETATM   35  C   MOL     1     -59.222 -23.180  -1.993  1.00 -0.21     0.107 C 
HETATM   36  C   MOL     1     -62.539 -24.412  -2.694  1.00 -0.06     0.182 C 
HETATM   37  N   MOL     1     -58.094 -23.316  -1.981  1.00  0.07    -0.193 NA
BRANCH  33  38
HETATM   38  C   MOL     1     -61.047 -21.536  -1.829  1.00 -0.19     0.088 A 
HETATM   39  N   MOL     1     -60.525 -20.583  -2.638  1.00 -0.03    -0.229 N 
HETATM   40  C   MOL     1     -61.057 -19.412  -2.199  1.00 -0.22     0.104 A 
HETATM   41  N   MOL     1     -59.655 -20.612  -3.690  1.00  0.23    -0.160 NA
HETATM   42  C   MOL     1     -61.888 -19.613  -1.145  1.00 -0.37     0.038 A 
HETATM   43  C   MOL     1     -60.679 -18.223  -2.876  1.00 -0.44     0.151 A 
HETATM   44  C   MOL     1     -61.875 -20.991  -0.910  1.00 -0.17     0.034 A 
HETATM   45  N   MOL     1     -59.827 -18.235  -3.909  1.00 -0.19    -0.221 NA
HETATM   46  C   MOL     1     -59.351 -19.472  -4.263  1.00 -0.33     0.258 A 
BRANCH  43  47
HETATM   47  N   MOL     1     -61.180 -17.002  -2.490  1.00 -0.25    -0.382 N 
HETATM   48  H   MOL     1     -62.050 -16.870  -2.479  1.00 -0.27     0.157 HD
HETATM   49  H   MOL     1     -60.636 -16.351  -2.254  1.00 -0.19     0.157 HD
ENDBRANCH  43  47
ENDBRANCH  33  38
BRANCH  34  50
HETATM   50  O   MOL     1     -61.612 -22.808  -4.314  1.00  0.41    -0.388 OA
HETATM   51  H   MOL     1     -61.719 -23.299  -5.185  1.00 -0.42     0.210 HD
ENDBRANCH  34  50
BRANCH  36  52
HETATM   52  O   MOL     1     -63.647 -23.498  -2.698  1.00  0.07    -0.390 OA
HETATM   53  H   MOL     1     -64.061 -23.430  -3.613  1.00 -0.09     0.210 HD
ENDBRANCH  36  52
ENDBRANCH  30  31
ENDBRANCH  29  30
ENDBRANCH  27  29
BRANCH  27  54
HETATM   54  O   MOL     1     -61.725 -26.518   1.242  1.00  0.13    -0.260 OA
BRANCH  54  55
HETATM   55  C   MOL     1     -60.440 -26.915   0.994  1.00 -0.29     0.080 A 
HETATM   56  C   MOL     1     -59.505 -27.032   2.006  1.00 -0.28     0.037 A 
HETATM   57  C   MOL     1     -58.221 -27.437   1.725  1.00 -0.40     0.003 A 
HETATM   58  C   MOL     1     -57.860 -27.732   0.430  1.00 -0.35     0.000 A 
HETATM   59  C   MOL     1     -58.785 -27.618  -0.584  1.00 -0.47     0.003 A 
HETATM   60  C   MOL     1     -60.067 -27.210  -0.303  1.00 -0.37     0.037 A 
ENDBRANCH  54  55
ENDBRANCH  27  54
ENDBRANCH  25  27
ENDBRANCH  17  25
ENDBRANCH  16  17
ENDBRANCH  13  16
ENDBRANCH   8  13
ENDBRANCH   7   8
ENDBRANCH   3   7
TORSDOF 20
ENDMDL
MODEL 7
REMARK VINA RESULT:      -9.9      3.521      6.457
REMARK  20 active torsions:
REMARK  status: ('A' for Active; 'I' for Inactive)
REMARK    1  A    between atoms: C_3  and  C_7 
REMARK    2  A    between atoms: C_7  and  C_8 
REMARK    3  A    between atoms: C_8  and  N_9 
REMARK    4  A    between atoms: C_8  and  C_10 
REMARK    5  A    between atoms: C_10  and  O_11 
REMARK    6  A    between atoms: C_10  and  C_12 
REMARK    7  A    between atoms: C_12  and  C_13 
REMARK    8  A    between atoms: C_13  and  C_14 
REMARK    9  A    between atoms: C_13  and  N_21 
REMARK   10  A    between atoms: C_14  and  C_15 
REMARK   11  A    between atoms: N_21  and  P_22 
REMARK   12  A    between atoms: P_22  and  O_23 
REMARK   13  A    between atoms: P_22  and  O_24 
REMARK   14  A    between atoms: O_23  and  C_26 
REMARK   15  A    between atoms: O_24  and  C_27 
REMARK   16  A    between atoms: C_26  and  C_33 
REMARK   17  A    between atoms: C_35  and  C_40 
REMARK   18  A    between atoms: C_36  and  O_39 
REMARK   19  A    between atoms: C_37  and  O_38 
REMARK   20  A    between atoms: C_50  and  N_51 
ROOT
HETATM    1  C   MOL     1     -64.089 -31.652   7.751  1.00 -0.25     0.001 A 
HETATM    2  C   MOL     1     -63.477 -30.597   7.112  1.00 -0.30     0.007 A 
HETATM    3  C   MOL     1     -63.770 -30.316   5.795  1.00 -0.25    -0.056 A 
HETATM    4  C   MOL     1     -64.681 -31.102   5.122  1.00 -0.33     0.007 A 
HETATM    5  C   MOL     1     -65.292 -32.158   5.758  1.00 -0.34     0.001 A 
HETATM    6  C   MOL     1     -64.995 -32.433   7.073  1.00 -0.27     0.000 A 
ENDROOT
BRANCH   3   7
HETATM    7  C   MOL     1     -63.096 -29.147   5.091  1.00 -0.43     0.074 C 
BRANCH   7   8
HETATM    8  C   MOL     1     -62.510 -29.472   3.699  1.00 -0.43     0.216 C 
BRANCH   8   9
HETATM    9  N   MOL     1     -61.205 -30.201   3.873  1.00  0.05    -0.072 N 
HETATM   10  H   MOL     1     -61.256 -31.061   3.580  1.00 -0.64     0.274 HD
HETATM   11  H   MOL     1     -60.532 -29.802   3.406  1.00 -0.76     0.274 HD
HETATM   12  H   MOL     1     -60.934 -30.225   4.739  1.00 -0.15     0.274 HD
ENDBRANCH   8   9
BRANCH   8  13
HETATM   13  C   MOL     1     -62.321 -28.169   2.888  1.00 -0.29     0.150 C 
BRANCH  13  14
HETATM   14  O   MOL     1     -60.936 -28.004   2.536  1.00  0.06    -0.393 OA
HETATM   15  H   MOL     1     -60.355 -27.958   3.355  1.00 -0.27     0.210 HD
ENDBRANCH  13  14
BRANCH  13  16
HETATM   16  C   MOL     1     -62.791 -26.936   3.691  1.00 -0.14     0.054 C 
BRANCH  16  17
HETATM   17  C   MOL     1     -63.206 -25.774   2.761  1.00 -0.12     0.073 C 
BRANCH  17  18
HETATM   18  C   MOL     1     -64.609 -25.268   3.167  1.00 -0.13     0.058 C 
BRANCH  18  19
HETATM   19  C   MOL     1     -65.712 -25.501   2.145  1.00 -0.16    -0.057 A 
HETATM   20  C   MOL     1     -66.728 -24.582   1.998  1.00 -0.21     0.007 A 
HETATM   21  C   MOL     1     -67.729 -24.793   1.076  1.00 -0.25     0.001 A 
HETATM   22  C   MOL     1     -67.718 -25.927   0.297  1.00 -0.37     0.000 A 
HETATM   23  C   MOL     1     -66.705 -26.849   0.440  1.00 -0.40     0.001 A 
HETATM   24  C   MOL     1     -65.705 -26.635   1.362  1.00 -0.21     0.007 A 
ENDBRANCH  18  19
ENDBRANCH  17  18
BRANCH  17  25
HETATM   25  N   MOL     1     -62.237 -24.676   2.878  1.00  0.15    -0.221 NA
HETATM   26  H   MOL     1     -61.799 -24.687   3.809  1.00  0.32     0.134 HD
BRANCH  25  27
HETATM   27  P   MOL     1     -61.187 -24.664   1.796  1.00  0.09     0.413 P 
HETATM   28  O   MOL     1     -59.814 -24.918   2.358  1.00  0.07    -0.239 OA
BRANCH  27  29
HETATM   29  O   MOL     1     -61.203 -23.278   0.981  1.00  0.12    -0.299 OA
BRANCH  29  30
HETATM   30  C   MOL     1     -59.955 -22.698   0.576  1.00 -0.20     0.214 C 
BRANCH  30  31
HETATM   31  C   MOL     1     -60.211 -21.360  -0.137  1.00 -0.04     0.180 C 
HETATM   32  O   MOL     1     -60.189 -21.515  -1.567  1.00  0.26    -0.347 OA
HETATM   33  C   MOL     1     -59.656 -20.331  -2.189  1.00 -0.04     0.222 C 
HETATM   34  C   MOL     1     -59.274 -19.374  -1.034  1.00 -0.10     0.205 C 
HETATM   35  C   MOL     1     -60.709 -19.730  -3.017  1.00 -0.21     0.107 C 
HETATM   36  C   MOL     1     -59.156 -20.294   0.188  1.00 -0.06     0.182 C 
HETATM   37  N   MOL     1     -61.525 -19.265  -3.658  1.00  0.07    -0.193 NA
BRANCH  33  38
HETATM   38  C   MOL     1     -58.502 -20.820  -3.058  1.00 -0.19     0.088 A 
HETATM   39  N   MOL     1     -57.888 -19.990  -3.935  1.00 -0.03    -0.229 N 
HETATM   40  C   MOL     1     -56.928 -20.746  -4.530  1.00 -0.22     0.104 A 
HETATM   41  N   MOL     1     -58.065 -18.679  -4.274  1.00  0.23    -0.160 NA
HETATM   42  C   MOL     1     -56.933 -22.015  -4.049  1.00 -0.37     0.038 A 
HETATM   43  C   MOL     1     -56.114 -20.123  -5.511  1.00 -0.44     0.151 A 
HETATM   44  C   MOL     1     -57.956 -22.055  -3.097  1.00 -0.17     0.034 A 
HETATM   45  N   MOL     1     -56.274 -18.838  -5.855  1.00 -0.19    -0.221 NA
HETATM   46  C   MOL     1     -57.275 -18.174  -5.192  1.00 -0.33     0.258 A 
BRANCH  43  47
HETATM   47  N   MOL     1     -55.120 -20.824  -6.153  1.00 -0.25    -0.382 N 
HETATM   48  H   MOL     1     -54.520 -20.393  -6.632  1.00 -0.27     0.157 HD
HETATM   49  H   MOL     1     -55.078 -21.701  -6.086  1.00 -0.19     0.157 HD
ENDBRANCH  43  47
ENDBRANCH  33  38
BRANCH  34  50
HETATM   50  O   MOL     1     -58.060 -18.644  -1.273  1.00  0.41    -0.388 OA
HETATM   51  H   MOL     1     -58.152 -18.031  -2.065  1.00 -0.42     0.210 HD
ENDBRANCH  34  50
BRANCH  36  52
HETATM   52  O   MOL     1     -57.833 -20.851   0.246  1.00  0.07    -0.390 OA
HETATM   53  H   MOL     1     -57.776 -21.585   0.933  1.00 -0.09     0.210 HD
ENDBRANCH  36  52
ENDBRANCH  30  31
ENDBRANCH  29  30
ENDBRANCH  27  29
BRANCH  27  54
HETATM   54  O   MOL     1     -61.544 -25.755   0.662  1.00  0.13    -0.260 OA
BRANCH  54  55
HETATM   55  C   MOL     1     -61.937 -25.397  -0.597  1.00 -0.29     0.080 A 
HETATM   56  C   MOL     1     -61.057 -25.397  -1.664  1.00 -0.28     0.037 A 
HETATM   57  C   MOL     1     -61.485 -25.034  -2.919  1.00 -0.40     0.003 A 
HETATM   58  C   MOL     1     -62.796 -24.670  -3.122  1.00 -0.35     0.000 A 
HETATM   59  C   MOL     1     -63.679 -24.667  -2.066  1.00 -0.47     0.003 A 
HETATM   60  C   MOL     1     -63.251 -25.026  -0.810  1.00 -0.37     0.037 A 
ENDBRANCH  54  55
ENDBRANCH  27  54
ENDBRANCH  25  27
ENDBRANCH  17  25
ENDBRANCH  16  17
ENDBRANCH  13  16
ENDBRANCH   8  13
ENDBRANCH   7   8
ENDBRANCH   3   7
TORSDOF 20
ENDMDL
MODEL 8
REMARK VINA RESULT:      -9.9      7.167     12.184
REMARK  20 active torsions:
REMARK  status: ('A' for Active; 'I' for Inactive)
REMARK    1  A    between atoms: C_3  and  C_7 
REMARK    2  A    between atoms: C_7  and  C_8 
REMARK    3  A    between atoms: C_8  and  N_9 
REMARK    4  A    between atoms: C_8  and  C_10 
REMARK    5  A    between atoms: C_10  and  O_11 
REMARK    6  A    between atoms: C_10  and  C_12 
REMARK    7  A    between atoms: C_12  and  C_13 
REMARK    8  A    between atoms: C_13  and  C_14 
REMARK    9  A    between atoms: C_13  and  N_21 
REMARK   10  A    between atoms: C_14  and  C_15 
REMARK   11  A    between atoms: N_21  and  P_22 
REMARK   12  A    between atoms: P_22  and  O_23 
REMARK   13  A    between atoms: P_22  and  O_24 
REMARK   14  A    between atoms: O_23  and  C_26 
REMARK   15  A    between atoms: O_24  and  C_27 
REMARK   16  A    between atoms: C_26  and  C_33 
REMARK   17  A    between atoms: C_35  and  C_40 
REMARK   18  A    between atoms: C_36  and  O_39 
REMARK   19  A    between atoms: C_37  and  O_38 
REMARK   20  A    between atoms: C_50  and  N_51 
ROOT
HETATM    1  C   MOL     1     -64.618 -32.622   7.396  1.00 -0.25     0.001 A 
HETATM    2  C   MOL     1     -64.623 -31.366   6.833  1.00 -0.30     0.007 A 
HETATM    3  C   MOL     1     -63.706 -31.035   5.860  1.00 -0.25    -0.056 A 
HETATM    4  C   MOL     1     -62.781 -31.974   5.454  1.00 -0.33     0.007 A 
HETATM    5  C   MOL     1     -62.774 -33.230   6.016  1.00 -0.34     0.001 A 
HETATM    6  C   MOL     1     -63.693 -33.554   6.987  1.00 -0.27     0.000 A 
ENDROOT
BRANCH   3   7
HETATM    7  C   MOL     1     -63.715 -29.647   5.237  1.00 -0.43     0.074 C 
BRANCH   7   8
HETATM    8  C   MOL     1     -62.352 -28.918   5.243  1.00 -0.43     0.216 C 
BRANCH   8   9
HETATM    9  N   MOL     1     -61.964 -28.613   6.665  1.00  0.05    -0.072 N 
HETATM   10  H   MOL     1     -61.990 -27.721   6.839  1.00 -0.64     0.274 HD
HETATM   11  H   MOL     1     -62.524 -29.015   7.259  1.00 -0.76     0.274 HD
HETATM   12  H   MOL     1     -61.128 -28.904   6.866  1.00 -0.15     0.274 HD
ENDBRANCH   8   9
BRANCH   8  13
HETATM   13  C   MOL     1     -62.439 -27.628   4.395  1.00 -0.29     0.150 C 
BRANCH  13  14
HETATM   14  O   MOL     1     -63.758 -27.061   4.496  1.00  0.06    -0.393 OA
HETATM   15  H   MOL     1     -63.873 -26.290   3.861  1.00 -0.27     0.210 HD
ENDBRANCH  13  14
BRANCH  13  16
HETATM   16  C   MOL     1     -62.121 -27.909   2.911  1.00 -0.14     0.054 C 
BRANCH  16  17
HETATM   17  C   MOL     1     -61.626 -26.640   2.182  1.00 -0.12     0.073 C 
BRANCH  17  18
HETATM   18  C   MOL     1     -60.165 -26.847   1.722  1.00 -0.13     0.058 C 
BRANCH  18  19
HETATM   19  C   MOL     1     -59.517 -25.653   1.039  1.00 -0.16    -0.057 A 
HETATM   20  C   MOL     1     -59.686 -24.384   1.549  1.00 -0.21     0.007 A 
HETATM   21  C   MOL     1     -59.102 -23.302   0.930  1.00 -0.25     0.001 A 
HETATM   22  C   MOL     1     -58.346 -23.484  -0.205  1.00 -0.37     0.000 A 
HETATM   23  C   MOL     1     -58.174 -24.750  -0.719  1.00 -0.40     0.001 A 
HETATM   24  C   MOL     1     -58.758 -25.830  -0.098  1.00 -0.21     0.007 A 
ENDBRANCH  18  19
ENDBRANCH  17  18
BRANCH  17  25
HETATM   25  N   MOL     1     -62.475 -26.379   1.012  1.00  0.15    -0.221 NA
HETATM   26  H   MOL     1     -62.749 -27.265   0.567  1.00  0.32     0.134 HD
BRANCH  25  27
HETATM   27  P   MOL     1     -63.689 -25.535   1.309  1.00  0.09     0.413 P 
HETATM   28  O   MOL     1     -63.457 -24.636   2.494  1.00  0.07    -0.239 OA
BRANCH  27  29
HETATM   29  O   MOL     1     -64.990 -26.448   1.554  1.00  0.12    -0.299 OA
BRANCH  29  30
HETATM   30  C   MOL     1     -66.259 -25.991   1.064  1.00 -0.20     0.214 C 
BRANCH  30  31
HETATM   31  C   MOL     1     -67.347 -27.025   1.397  1.00 -0.04     0.180 C 
HETATM   32  O   MOL     1     -67.882 -27.626   0.206  1.00  0.26    -0.347 OA
HETATM   33  C   MOL     1     -69.279 -27.928   0.383  1.00 -0.04     0.222 C 
HETATM   34  C   MOL     1     -69.650 -27.428   1.799  1.00 -0.10     0.205 C 
HETATM   35  C   MOL     1     -69.451 -29.384   0.298  1.00 -0.21     0.107 C 
HETATM   36  C   MOL     1     -68.546 -26.418   2.139  1.00 -0.06     0.182 C 
HETATM   37  N   MOL     1     -69.583 -30.512   0.233  1.00  0.07    -0.193 NA
BRANCH  33  38
HETATM   38  C   MOL     1     -69.989 -27.236  -0.776  1.00 -0.19     0.088 A 
HETATM   39  N   MOL     1     -71.281 -27.516  -1.070  1.00 -0.03    -0.229 N 
HETATM   40  C   MOL     1     -71.581 -26.734  -2.141  1.00 -0.22     0.104 A 
HETATM   41  N   MOL     1     -72.210 -28.359  -0.530  1.00  0.23    -0.160 NA
HETATM   42  C   MOL     1     -70.514 -25.982  -2.515  1.00 -0.37     0.038 A 
HETATM   43  C   MOL     1     -72.894 -26.821  -2.673  1.00 -0.44     0.151 A 
HETATM   44  C   MOL     1     -69.487 -26.315  -1.627  1.00 -0.17     0.034 A 
HETATM   45  N   MOL     1     -73.817 -27.642  -2.154  1.00 -0.19    -0.221 NA
HETATM   46  C   MOL     1     -73.402 -28.386  -1.079  1.00 -0.33     0.258 A 
BRANCH  43  47
HETATM   47  N   MOL     1     -73.270 -26.057  -3.752  1.00 -0.25    -0.382 N 
HETATM   48  H   MOL     1     -72.921 -25.257  -3.865  1.00 -0.27     0.157 HD
HETATM   49  H   MOL     1     -73.858 -26.363  -4.332  1.00 -0.19     0.157 HD
ENDBRANCH  43  47
ENDBRANCH  33  38
BRANCH  34  50
HETATM   50  O   MOL     1     -70.957 -26.838   1.874  1.00  0.41    -0.388 OA
HETATM   51  H   MOL     1     -71.430 -27.102   2.721  1.00 -0.42     0.210 HD
ENDBRANCH  34  50
BRANCH  36  52
HETATM   52  O   MOL     1     -68.898 -25.126   1.618  1.00  0.07    -0.390 OA
HETATM   53  H   MOL     1     -68.220 -24.430   1.878  1.00 -0.09     0.210 HD
ENDBRANCH  36  52
ENDBRANCH  30  31
ENDBRANCH  29  30
ENDBRANCH  27  29
BRANCH  27  54
HETATM   54  O   MOL     1     -64.095 -24.667   0.011  1.00  0.13    -0.260 OA
BRANCH  54  55
HETATM   55  C   MOL     1     -63.358 -24.690  -1.140  1.00 -0.29     0.080 A 
HETATM   56  C   MOL     1     -63.756 -25.420  -2.246  1.00 -0.28     0.037 A 
HETATM   57  C   MOL     1     -62.995 -25.420  -3.391  1.00 -0.40     0.003 A 
HETATM   58  C   MOL     1     -61.830 -24.688  -3.444  1.00 -0.35     0.000 A 
HETATM   59  C   MOL     1     -61.427 -23.959  -2.348  1.00 -0.47     0.003 A 
HETATM   60  C   MOL     1     -62.186 -23.961  -1.203  1.00 -0.37     0.037 A 
ENDBRANCH  54  55
ENDBRANCH  27  54
ENDBRANCH  25  27
ENDBRANCH  17  25
ENDBRANCH  16  17
ENDBRANCH  13  16
ENDBRANCH   8  13
ENDBRANCH   7   8
ENDBRANCH   3   7
TORSDOF 20
ENDMDL
MODEL 9
REMARK VINA RESULT:      -9.8      4.368      8.273
REMARK  20 active torsions:
REMARK  status: ('A' for Active; 'I' for Inactive)
REMARK    1  A    between atoms: C_3  and  C_7 
REMARK    2  A    between atoms: C_7  and  C_8 
REMARK    3  A    between atoms: C_8  and  N_9 
REMARK    4  A    between atoms: C_8  and  C_10 
REMARK    5  A    between atoms: C_10  and  O_11 
REMARK    6  A    between atoms: C_10  and  C_12 
REMARK    7  A    between atoms: C_12  and  C_13 
REMARK    8  A    between atoms: C_13  and  C_14 
REMARK    9  A    between atoms: C_13  and  N_21 
REMARK   10  A    between atoms: C_14  and  C_15 
REMARK   11  A    between atoms: N_21  and  P_22 
REMARK   12  A    between atoms: P_22  and  O_23 
REMARK   13  A    between atoms: P_22  and  O_24 
REMARK   14  A    between atoms: O_23  and  C_26 
REMARK   15  A    between atoms: O_24  and  C_27 
REMARK   16  A    between atoms: C_26  and  C_33 
REMARK   17  A    between atoms: C_35  and  C_40 
REMARK   18  A    between atoms: C_36  and  O_39 
REMARK   19  A    between atoms: C_37  and  O_38 
REMARK   20  A    between atoms: C_50  and  N_51 
ROOT
HETATM    1  C   MOL     1     -71.343 -26.198  -3.091  1.00 -0.25     0.001 A 
HETATM    2  C   MOL     1     -70.062 -26.060  -2.607  1.00 -0.30     0.007 A 
HETATM    3  C   MOL     1     -69.691 -26.676  -1.431  1.00 -0.25    -0.056 A 
HETATM    4  C   MOL     1     -70.616 -27.432  -0.742  1.00 -0.33     0.007 A 
HETATM    5  C   MOL     1     -71.898 -27.570  -1.224  1.00 -0.34     0.001 A 
HETATM    6  C   MOL     1     -72.261 -26.953  -2.399  1.00 -0.27     0.000 A 
ENDROOT
BRANCH   3   7
HETATM    7  C   MOL     1     -68.273 -26.524  -0.899  1.00 -0.43     0.074 C 
BRANCH   7   8
HETATM    8  C   MOL     1     -67.948 -25.143  -0.289  1.00 -0.43     0.216 C 
BRANCH   8   9
HETATM    9  N   MOL     1     -66.934 -24.448  -1.159  1.00  0.05    -0.072 N 
HETATM   10  H   MOL     1     -66.183 -24.230  -0.696  1.00 -0.64     0.274 HD
HETATM   11  H   MOL     1     -66.673 -24.974  -1.855  1.00 -0.76     0.274 HD
HETATM   12  H   MOL     1     -67.259 -23.683  -1.526  1.00 -0.15     0.274 HD
ENDBRANCH   8   9
BRANCH   8  13
HETATM   13  C   MOL     1     -67.425 -25.313   1.156  1.00 -0.29     0.150 C 
BRANCH  13  14
HETATM   14  O   MOL     1     -68.412 -24.849   2.094  1.00  0.06    -0.393 OA
HETATM   15  H   MOL     1     -68.023 -24.172   2.728  1.00 -0.27     0.210 HD
ENDBRANCH  13  14
BRANCH  13  16
HETATM   16  C   MOL     1     -66.111 -24.530   1.373  1.00 -0.14     0.054 C 
BRANCH  16  17
HETATM   17  C   MOL     1     -64.885 -25.469   1.405  1.00 -0.12     0.073 C 
BRANCH  17  18
HETATM   18  C   MOL     1     -65.348 -26.908   1.727  1.00 -0.13     0.058 C 
BRANCH  18  19
HETATM   19  C   MOL     1     -64.584 -27.610   2.840  1.00 -0.16    -0.057 A 
HETATM   20  C   MOL     1     -63.665 -26.915   3.596  1.00 -0.21     0.007 A 
HETATM   21  C   MOL     1     -62.969 -27.550   4.601  1.00 -0.25     0.001 A 
HETATM   22  C   MOL     1     -63.190 -28.884   4.854  1.00 -0.37     0.000 A 
HETATM   23  C   MOL     1     -64.107 -29.582   4.101  1.00 -0.40     0.001 A 
HETATM   24  C   MOL     1     -64.801 -28.946   3.097  1.00 -0.21     0.007 A 
ENDBRANCH  18  19
ENDBRANCH  17  18
BRANCH  17  25
HETATM   25  N   MOL     1     -64.215 -25.452   0.097  1.00  0.15    -0.221 NA
HETATM   26  H   MOL     1     -64.782 -24.932  -0.585  1.00  0.32     0.134 HD
BRANCH  25  27
HETATM   27  P   MOL     1     -62.805 -24.919   0.136  1.00  0.09     0.413 P 
HETATM   28  O   MOL     1     -62.377 -24.597   1.543  1.00  0.07    -0.239 OA
BRANCH  27  29
HETATM   29  O   MOL     1     -62.645 -23.622  -0.801  1.00  0.12    -0.299 OA
BRANCH  29  30
HETATM   30  C   MOL     1     -62.659 -23.790  -2.226  1.00 -0.20     0.214 C 
BRANCH  30  31
HETATM   31  C   MOL     1     -61.543 -22.942  -2.859  1.00 -0.04     0.180 C 
HETATM   32  O   MOL     1     -60.286 -23.146  -2.192  1.00  0.26    -0.347 OA
HETATM   33  C   MOL     1     -59.517 -21.929  -2.194  1.00 -0.04     0.222 C 
HETATM   34  C   MOL     1     -60.399 -20.865  -2.888  1.00 -0.10     0.205 C 
HETATM   35  C   MOL     1     -58.292 -22.158  -2.971  1.00 -0.21     0.107 C 
HETATM   36  C   MOL     1     -61.820 -21.434  -2.786  1.00 -0.06     0.182 C 
HETATM   37  N   MOL     1     -57.344 -22.336  -3.574  1.00  0.07    -0.193 NA
BRANCH  33  38
HETATM   38  C   MOL     1     -59.182 -21.665  -0.730  1.00 -0.19     0.088 A 
HETATM   39  N   MOL     1     -58.357 -20.651  -0.374  1.00 -0.03    -0.229 N 
HETATM   40  C   MOL     1     -58.281 -20.711   0.982  1.00 -0.22     0.104 A 
HETATM   41  N   MOL     1     -57.674 -19.700  -1.077  1.00  0.23    -0.160 NA
HETATM   42  C   MOL     1     -59.031 -21.731   1.472  1.00 -0.37     0.038 A 
HETATM   43  C   MOL     1     -57.472 -19.749   1.639  1.00 -0.44     0.151 A 
HETATM   44  C   MOL     1     -59.609 -22.345   0.357  1.00 -0.17     0.034 A 
HETATM   45  N   MOL     1     -56.795 -18.810   0.964  1.00 -0.19    -0.221 NA
HETATM   46  C   MOL     1     -56.944 -18.847  -0.400  1.00 -0.33     0.258 A 
BRANCH  43  47
HETATM   47  N   MOL     1     -57.350 -19.745   3.009  1.00 -0.25    -0.382 N 
HETATM   48  H   MOL     1     -57.970 -19.362   3.502  1.00 -0.27     0.157 HD
HETATM   49  H   MOL     1     -56.656 -20.125   3.396  1.00 -0.19     0.157 HD
ENDBRANCH  43  47
ENDBRANCH  33  38
BRANCH  34  50
HETATM   50  O   MOL     1     -60.300 -19.562  -2.291  1.00  0.41    -0.388 OA
HETATM   51  H   MOL     1     -59.351 -19.228  -2.295  1.00 -0.42     0.210 HD
ENDBRANCH  34  50
BRANCH  36  52
HETATM   52  O   MOL     1     -62.400 -21.058  -1.527  1.00  0.07    -0.390 OA
HETATM   53  H   MOL     1     -62.554 -21.861  -0.941  1.00 -0.09     0.210 HD
ENDBRANCH  36  52
ENDBRANCH  30  31
ENDBRANCH  29  30
ENDBRANCH  27  29
BRANCH  27  54
HETATM   54  O   MOL     1     -61.791 -25.978  -0.535  1.00  0.13    -0.260 OA
BRANCH  54  55
HETATM   55  C   MOL     1     -60.541 -26.210  -0.033  1.00 -0.29     0.080 A 
HETATM   56  C   MOL     1     -60.350 -26.823   1.192  1.00 -0.28     0.037 A 
HETATM   57  C   MOL     1     -59.079 -27.045   1.669  1.00 -0.40     0.003 A 
HETATM   58  C   MOL     1     -57.987 -26.659   0.925  1.00 -0.35     0.000 A 
HETATM   59  C   MOL     1     -58.168 -26.048  -0.294  1.00 -0.47     0.003 A 
HETATM   60  C   MOL     1     -59.438 -25.823  -0.770  1.00 -0.37     0.037 A 
ENDBRANCH  54  55
ENDBRANCH  27  54
ENDBRANCH  25  27
ENDBRANCH  17  25
ENDBRANCH  16  17
ENDBRANCH  13  16
ENDBRANCH   8  13
ENDBRANCH   7   8
ENDBRANCH   3   7
TORSDOF 20
ENDMDL
MODEL 10
REMARK VINA RESULT:      -9.8      7.289     11.575
REMARK  20 active torsions:
REMARK  status: ('A' for Active; 'I' for Inactive)
REMARK    1  A    between atoms: C_3  and  C_7 
REMARK    2  A    between atoms: C_7  and  C_8 
REMARK    3  A    between atoms: C_8  and  N_9 
REMARK    4  A    between atoms: C_8  and  C_10 
REMARK    5  A    between atoms: C_10  and  O_11 
REMARK    6  A    between atoms: C_10  and  C_12 
REMARK    7  A    between atoms: C_12  and  C_13 
REMARK    8  A    between atoms: C_13  and  C_14 
REMARK    9  A    between atoms: C_13  and  N_21 
REMARK   10  A    between atoms: C_14  and  C_15 
REMARK   11  A    between atoms: N_21  and  P_22 
REMARK   12  A    between atoms: P_22  and  O_23 
REMARK   13  A    between atoms: P_22  and  O_24 
REMARK   14  A    between atoms: O_23  and  C_26 
REMARK   15  A    between atoms: O_24  and  C_27 
REMARK   16  A    between atoms: C_26  and  C_33 
REMARK   17  A    between atoms: C_35  and  C_40 
REMARK   18  A    between atoms: C_36  and  O_39 
REMARK   19  A    between atoms: C_37  and  O_38 
REMARK   20  A    between atoms: C_50  and  N_51 
ROOT
HETATM    1  C   MOL     1     -65.048 -33.201   7.355  1.00 -0.25     0.001 A 
HETATM    2  C   MOL     1     -63.994 -32.319   7.267  1.00 -0.30     0.007 A 
HETATM    3  C   MOL     1     -63.944 -31.394   6.248  1.00 -0.25    -0.056 A 
HETATM    4  C   MOL     1     -64.959 -31.358   5.315  1.00 -0.33     0.007 A 
HETATM    5  C   MOL     1     -66.012 -32.239   5.401  1.00 -0.34     0.001 A 
HETATM    6  C   MOL     1     -66.056 -33.161   6.421  1.00 -0.27     0.000 A 
ENDROOT
BRANCH   3   7
HETATM    7  C   MOL     1     -62.780 -30.418   6.154  1.00 -0.43     0.074 C 
BRANCH   7   8
HETATM    8  C   MOL     1     -62.428 -29.955   4.723  1.00 -0.43     0.216 C 
BRANCH   8   9
HETATM    9  N   MOL     1     -61.280 -30.782   4.207  1.00  0.05    -0.072 N 
HETATM   10  H   MOL     1     -60.531 -30.671   4.710  1.00 -0.64     0.274 HD
HETATM   11  H   MOL     1     -61.476 -31.671   4.217  1.00 -0.76     0.274 HD
HETATM   12  H   MOL     1     -61.064 -30.577   3.349  1.00 -0.15     0.274 HD
ENDBRANCH   8   9
BRANCH   8  13
HETATM   13  C   MOL     1     -62.079 -28.449   4.725  1.00 -0.29     0.150 C 
BRANCH  13  14
HETATM   14  O   MOL     1     -62.065 -27.949   6.074  1.00  0.06    -0.393 OA
HETATM   15  H   MOL     1     -62.189 -26.951   6.095  1.00 -0.27     0.210 HD
ENDBRANCH  13  14
BRANCH  13  16
HETATM   16  C   MOL     1     -63.095 -27.636   3.894  1.00 -0.14     0.054 C 
BRANCH  16  17
HETATM   17  C   MOL     1     -62.401 -26.829   2.774  1.00 -0.12     0.073 C 
BRANCH  17  18
HETATM   18  C   MOL     1     -61.091 -27.540   2.364  1.00 -0.13     0.058 C 
BRANCH  18  19
HETATM   19  C   MOL     1     -60.018 -26.643   1.766  1.00 -0.16    -0.057 A 
HETATM   20  C   MOL     1     -59.961 -25.308   2.102  1.00 -0.21     0.007 A 
HETATM   21  C   MOL     1     -58.992 -24.494   1.559  1.00 -0.25     0.001 A 
HETATM   22  C   MOL     1     -58.075 -25.013   0.675  1.00 -0.37     0.000 A 
HETATM   23  C   MOL     1     -58.126 -26.347   0.336  1.00 -0.40     0.001 A 
HETATM   24  C   MOL     1     -59.096 -27.158   0.881  1.00 -0.21     0.007 A 
ENDBRANCH  18  19
ENDBRANCH  17  18
BRANCH  17  25
HETATM   25  N   MOL     1     -63.291 -26.734   1.609  1.00  0.15    -0.221 NA
HETATM   26  H   MOL     1     -64.008 -27.471   1.649  1.00  0.32     0.134 HD
BRANCH  25  27
HETATM   27  P   MOL     1     -63.929 -25.379   1.430  1.00  0.09     0.413 P 
HETATM   28  O   MOL     1     -63.286 -24.348   2.319  1.00  0.07    -0.239 OA
BRANCH  27  29
HETATM   29  O   MOL     1     -65.512 -25.437   1.705  1.00  0.12    -0.299 OA
BRANCH  29  30
HETATM   30  C   MOL     1     -66.204 -24.221   2.026  1.00 -0.20     0.214 C 
BRANCH  30  31
HETATM   31  C   MOL     1     -67.673 -24.328   1.582  1.00 -0.04     0.180 C 
HETATM   32  O   MOL     1     -68.239 -25.598   1.947  1.00  0.26    -0.347 OA
HETATM   33  C   MOL     1     -69.198 -26.019   0.958  1.00 -0.04     0.222 C 
HETATM   34  C   MOL     1     -69.190 -24.928  -0.139  1.00 -0.10     0.205 C 
HETATM   35  C   MOL     1     -70.519 -26.087   1.596  1.00 -0.21     0.107 C 
HETATM   36  C   MOL     1     -67.851 -24.206   0.062  1.00 -0.06     0.182 C 
HETATM   37  N   MOL     1     -71.542 -26.139   2.090  1.00  0.07    -0.193 NA
BRANCH  33  38
HETATM   38  C   MOL     1     -68.741 -27.406   0.521  1.00 -0.19     0.088 A 
HETATM   39  N   MOL     1     -69.535 -28.196  -0.241  1.00 -0.03    -0.229 N 
HETATM   40  C   MOL     1     -68.824 -29.338  -0.434  1.00 -0.22     0.104 A 
HETATM   41  N   MOL     1     -70.783 -28.043  -0.774  1.00  0.23    -0.160 NA
HETATM   42  C   MOL     1     -67.618 -29.277   0.187  1.00 -0.37     0.038 A 
HETATM   43  C   MOL     1     -69.422 -30.362  -1.213  1.00 -0.44     0.151 A 
HETATM   44  C   MOL     1     -67.573 -28.024   0.804  1.00 -0.17     0.034 A 
HETATM   45  N   MOL     1     -70.646 -30.228  -1.743  1.00 -0.19    -0.221 NA
HETATM   46  C   MOL     1     -71.271 -29.035  -1.480  1.00 -0.33     0.258 A 
BRANCH  43  47
HETATM   47  N   MOL     1     -68.761 -31.544  -1.454  1.00 -0.25    -0.382 N 
HETATM   48  H   MOL     1     -68.915 -31.986  -2.199  1.00 -0.27     0.157 HD
HETATM   49  H   MOL     1     -68.185 -31.860  -0.868  1.00 -0.19     0.157 HD
ENDBRANCH  43  47
ENDBRANCH  33  38
BRANCH  34  50
HETATM   50  O   MOL     1     -69.320 -25.453  -1.469  1.00  0.41    -0.388 OA
HETATM   51  H   MOL     1     -69.064 -24.768  -2.160  1.00 -0.42     0.210 HD
ENDBRANCH  34  50
BRANCH  36  52
HETATM   52  O   MOL     1     -66.818 -24.899  -0.654  1.00  0.07    -0.390 OA
HETATM   53  H   MOL     1     -66.922 -24.784  -1.649  1.00 -0.09     0.210 HD
ENDBRANCH  36  52
ENDBRANCH  30  31
ENDBRANCH  29  30
ENDBRANCH  27  29
BRANCH  27  54
HETATM   54  O   MOL     1     -63.846 -24.924  -0.115  1.00  0.13    -0.260 OA
BRANCH  54  55
HETATM   55  C   MOL     1     -62.655 -24.681  -0.741  1.00 -0.29     0.080 A 
HETATM   56  C   MOL     1     -62.072 -23.427  -0.739  1.00 -0.28     0.037 A 
HETATM   57  C   MOL     1     -60.871 -23.216  -1.374  1.00 -0.40     0.003 A 
HETATM   58  C   MOL     1     -60.239 -24.257  -2.016  1.00 -0.35     0.000 A 
HETATM   59  C   MOL     1     -60.812 -25.508  -2.023  1.00 -0.47     0.003 A 
HETATM   60  C   MOL     1     -62.014 -25.719  -1.391  1.00 -0.37     0.037 A 
ENDBRANCH  54  55
ENDBRANCH  27  54
ENDBRANCH  25  27
ENDBRANCH  17  25
ENDBRANCH  16  17
ENDBRANCH  13  16
ENDBRANCH   8  13
ENDBRANCH   7   8
ENDBRANCH   3   7
TORSDOF 20
ENDMDL
