MODEL 1
REMARK VINA RESULT:     -13.3      0.000      0.000
REMARK  8 active torsions:
REMARK  status: ('A' for Active; 'I' for Inactive)
REMARK    1  A    between atoms: O_1  and  C_33 
REMARK    2  A    between atoms: O_1  and  C_49 
REMARK    3  A    between atoms: O_8  and  C_53 
REMARK    4  A    between atoms: O_12  and  C_56 
REMARK    5  A    between atoms: O_13  and  C_57 
REMARK    6  A    between atoms: O_14  and  C_59 
REMARK    7  A    between atoms: C_52  and  C_55 
REMARK    8  A    between atoms: C_58  and  C_60 
ROOT
HETATM    1  O   MOL     1     -58.047 -21.303  -2.960  1.00  0.00     0.000 OA
ENDROOT
BRANCH   1   2
HETATM    2  C   MOL     1     -57.635 -21.539  -3.842  1.00  0.00     0.007 C 
HETATM    3  C   MOL     1     -56.843 -20.920  -4.254  1.00  0.00    -0.058 C 
HETATM    4  C   MOL     1     -56.011 -21.455  -4.925  1.00  0.00    -0.007 C 
HETATM    5  C   MOL     1     -56.292 -20.086  -4.230  1.00  0.00     0.027 C 
HETATM    6  C   MOL     1     -56.951 -20.272  -3.501  1.00  0.00    -0.005 C 
HETATM    7  C   MOL     1     -56.658 -22.079  -5.685  1.00  0.00    -0.037 A 
HETATM    8  C   MOL     1     -55.638 -20.596  -5.603  1.00  0.00     0.006 C 
HETATM    9  C   MOL     1     -55.796 -22.605  -6.292  1.00  0.00     0.013 A 
HETATM   10  C   MOL     1     -57.376 -22.761  -5.240  1.00  0.00     0.014 C 
HETATM   11  C   MOL     1     -57.578 -22.475  -6.634  1.00  0.00     0.081 C 
HETATM   12  C   MOL     1     -56.402 -23.219  -7.003  1.00  0.00    -0.024 A 
HETATM   13  C   MOL     1     -55.488 -21.748  -6.980  1.00  0.00    -0.033 A 
HETATM   14  C   MOL     1     -54.972 -22.060  -7.784  1.00  0.00    -0.030 A 
HETATM   15  C   MOL     1     -55.179 -20.879  -6.495  1.00  0.00     0.011 C 
HETATM   16  C   MOL     1     -55.543 -20.513  -7.592  1.00  0.00     0.044 C 
HETATM   17  C   MOL     1     -55.260 -22.891  -8.262  1.00  0.00    -0.018 A 
HETATM   18  C   MOL     1     -55.159 -22.938  -9.412  1.00  0.00    -0.002 C 
HETATM   19  C   MOL     1     -55.957 -23.483  -7.859  1.00  0.00    -0.036 C 
HETATM   20  C   MOL     1     -54.282 -21.409  -8.219  1.00  0.00     0.041 A 
HETATM   21  C   MOL     1     -54.113 -22.544  -9.607  1.00  0.00    -0.059 C 
HETATM   22  C   MOL     1     -55.096 -24.112  -9.626  1.00  0.00     0.003 C 
HETATM   23  C   MOL     1     -53.815 -21.676  -9.110  1.00  0.00     0.009 C 
HETATM   24  C   MOL     1     -53.590 -22.847 -10.510  1.00  0.00     0.014 C 
HETATM   25  C   MOL     1     -54.087 -21.499 -10.508  1.00  0.00     0.028 C 
HETATM   26  C   MOL     1     -53.865 -23.775 -11.000  1.00  0.00     0.253 A 
HETATM   27  C   MOL     1     -54.587 -24.436 -10.529  1.00  0.00     0.003 A 
HETATM   28  O   MOL     1     -53.863 -24.885 -12.038  1.00  0.00    -0.382 OA
HETATM   29  C   MOL     1     -54.468 -25.726 -10.057  1.00  0.00     0.044 C 
HETATM   30  C   MOL     1     -54.519 -25.064 -11.306  1.00  0.00     0.080 A 
HETATM   31  O   MOL     1     -55.073 -25.897 -11.324  1.00  0.00     0.000 OA
HETATM   32  C   MOL     1     -53.837 -21.649  -7.118  1.00  0.00     0.025 C 
HETATM   33  C   MOL     1     -57.868 -22.489  -4.312  1.00  0.00    -0.012 C 
HETATM   34  O   MOL     1     -57.100 -23.812  -6.599  1.00  0.00     0.000 OA
ENDBRANCH   1   2
BRANCH   1  35
HETATM   35  C   MOL     1     -59.025 -21.443  -2.809  1.00  0.00    -0.027 A 
HETATM   36  O   MOL     1     -59.688 -20.823  -3.234  1.00  0.00     0.000 OA
HETATM   37  C   MOL     1     -60.661 -20.897  -3.009  1.00  0.00     0.096 A 
HETATM   38  C   MOL     1     -60.979 -21.658  -2.434  1.00  0.00     0.133 A 
HETATM   39  C   MOL     1     -60.307 -22.178  -1.898  1.00  0.00     0.055 A 
HETATM   40  O   MOL     1     -60.551 -22.240  -0.542  1.00  0.00     0.000 OA
HETATM   41  C   MOL     1     -59.337 -22.137  -2.160  1.00  0.00     0.007 A 
HETATM   42  H   MOL     1     -61.226 -22.972  -1.170  1.00  0.00     0.000 HD
HETATM   43  O   MOL     1     -59.955 -23.492  -0.824  1.00  0.00     0.000 OA
HETATM   44  C   MOL     1     -58.975 -23.352  -0.975  1.00  0.00     0.057 A 
HETATM   45  C   MOL     1     -60.263 -24.153  -0.138  1.00  0.00     0.071 C 
HETATM   46  O   MOL     1     -58.669 -22.691  -1.661  1.00  0.00     0.000 OA
HETATM   47  C   MOL     1     -58.317 -24.005  -0.588  1.00  0.00     0.154 A 
HETATM   48  C   MOL     1     -58.621 -24.632   0.136  1.00  0.00     0.211 A 
HETATM   49  C   MOL     1     -59.605 -24.806   0.249  1.00  0.00     0.146 C 
BRANCH  37  50
HETATM   50  C   MOL     1     -61.260 -19.679  -2.764  1.00  0.00     0.297 C 
HETATM   51  O   MOL     1     -61.931 -20.146  -3.918  1.00  0.00    -0.188 OA
HETATM   52  O   MOL     1     -60.372 -19.398  -3.828  1.00  0.00    -0.188 OA
ENDBRANCH  37  50
BRANCH  38  53
HETATM   53  O   MOL     1     -62.022 -22.396  -2.953  1.00  0.00    -0.395 OA
HETATM   54  H   MOL     1     -61.792 -21.421  -3.571  1.00  0.00     0.210 HD
ENDBRANCH  38  53
BRANCH  47  55
HETATM   55  O   MOL     1     -57.407 -24.529  -1.482  1.00  0.00    -0.393 OA
HETATM   56  H   MOL     1     -58.011 -23.616  -1.915  1.00  0.00     0.210 HD
ENDBRANCH  47  55
BRANCH  48  57
HETATM   57  O   MOL     1     -57.890 -24.588   1.304  1.00  0.00    -0.392 OA
HETATM   58  H   MOL     1     -57.863 -25.641   0.780  1.00  0.00     0.210 HD
ENDBRANCH  48  57
BRANCH  49  59
HETATM   59  O   MOL     1     -59.982 -26.131   0.192  1.00  0.00    -0.399 OA
HETATM   60  H   MOL     1     -59.272 -25.813  -0.690  1.00  0.00     0.209 HD
ENDBRANCH  49  59
BRANCH  45  61
HETATM   61  C   MOL     1     -61.174 -23.628   0.756  1.00  0.00     0.292 C 
HETATM   62  O   MOL     1     -61.019 -24.964   1.194  1.00  0.00    -0.188 OA
HETATM   63  O   MOL     1     -61.981 -24.385  -0.124  1.00  0.00    -0.188 OA
ENDBRANCH  45  61
ENDBRANCH   1  35
TORSDOF 8
ENDMDL
MODEL 2
REMARK VINA RESULT:     -13.2      6.082      9.147
REMARK  8 active torsions:
REMARK  status: ('A' for Active; 'I' for Inactive)
REMARK    1  A    between atoms: O_1  and  C_33 
REMARK    2  A    between atoms: O_1  and  C_49 
REMARK    3  A    between atoms: O_8  and  C_53 
REMARK    4  A    between atoms: O_12  and  C_56 
REMARK    5  A    between atoms: O_13  and  C_57 
REMARK    6  A    between atoms: O_14  and  C_59 
REMARK    7  A    between atoms: C_52  and  C_55 
REMARK    8  A    between atoms: C_58  and  C_60 
ROOT
HETATM    1  O   MOL     1     -62.989 -25.774   0.200  1.00  0.00     0.000 OA
ENDROOT
BRANCH   1   2
HETATM    2  C   MOL     1     -62.290 -25.060   0.150  1.00  0.00     0.007 C 
HETATM    3  C   MOL     1     -62.259 -24.389  -0.704  1.00  0.00    -0.058 C 
HETATM    4  C   MOL     1     -61.871 -23.274  -0.523  1.00  0.00    -0.007 C 
HETATM    5  C   MOL     1     -62.573 -24.135  -1.619  1.00  0.00     0.027 C 
HETATM    6  C   MOL     1     -62.995 -24.906  -1.142  1.00  0.00    -0.005 C 
HETATM    7  C   MOL     1     -60.864 -23.446   0.063  1.00  0.00    -0.037 A 
HETATM    8  C   MOL     1     -61.472 -22.969  -1.564  1.00  0.00     0.006 C 
HETATM    9  C   MOL     1     -60.545 -22.326   0.242  1.00  0.00     0.013 A 
HETATM   10  C   MOL     1     -60.943 -24.042   0.967  1.00  0.00     0.014 C 
HETATM   11  C   MOL     1     -59.612 -23.872   0.456  1.00  0.00     0.081 C 
HETATM   12  C   MOL     1     -59.600 -22.480   0.820  1.00  0.00    -0.024 A 
HETATM   13  C   MOL     1     -60.115 -22.076  -0.785  1.00  0.00    -0.033 A 
HETATM   14  C   MOL     1     -59.516 -21.270  -0.771  1.00  0.00    -0.030 A 
HETATM   15  C   MOL     1     -60.774 -22.195  -1.583  1.00  0.00     0.011 C 
HETATM   16  C   MOL     1     -59.669 -22.287  -2.073  1.00  0.00     0.044 C 
HETATM   17  C   MOL     1     -58.874 -21.146  -0.012  1.00  0.00    -0.018 A 
HETATM   18  C   MOL     1     -57.838 -20.683  -0.226  1.00  0.00    -0.002 C 
HETATM   19  C   MOL     1     -58.934 -21.735   0.794  1.00  0.00    -0.036 C 
HETATM   20  C   MOL     1     -59.432 -20.694  -1.637  1.00  0.00     0.041 A 
HETATM   21  C   MOL     1     -58.073 -19.786  -0.880  1.00  0.00    -0.059 C 
HETATM   22  C   MOL     1     -57.527 -20.225   0.833  1.00  0.00     0.003 C 
HETATM   23  C   MOL     1     -58.740 -19.917  -1.671  1.00  0.00     0.009 C 
HETATM   24  C   MOL     1     -57.386 -18.945  -0.896  1.00  0.00     0.014 C 
HETATM   25  C   MOL     1     -57.367 -19.780  -2.065  1.00  0.00     0.028 C 
HETATM   26  C   MOL     1     -56.727 -18.777  -0.050  1.00  0.00     0.253 A 
HETATM   27  C   MOL     1     -56.832 -19.390   0.840  1.00  0.00     0.003 A 
HETATM   28  O   MOL     1     -55.637 -18.136   0.793  1.00  0.00    -0.382 OA
HETATM   29  C   MOL     1     -57.164 -19.062   2.138  1.00  0.00     0.044 C 
HETATM   30  C   MOL     1     -56.063 -18.909   1.264  1.00  0.00     0.080 A 
HETATM   31  O   MOL     1     -55.754 -19.168   2.179  1.00  0.00     0.000 OA
HETATM   32  C   MOL     1     -60.584 -20.565  -1.284  1.00  0.00     0.025 C 
HETATM   33  C   MOL     1     -61.661 -24.854   1.011  1.00  0.00    -0.012 C 
HETATM   34  O   MOL     1     -59.660 -23.070   1.626  1.00  0.00     0.000 OA
ENDBRANCH   1   2
BRANCH   1  35
HETATM   35  C   MOL     1     -63.346 -26.066   1.088  1.00  0.00    -0.027 A 
HETATM   36  O   MOL     1     -62.730 -26.486   1.758  1.00  0.00     0.000 OA
HETATM   37  C   MOL     1     -63.098 -26.869   2.607  1.00  0.00     0.096 A 
HETATM   38  C   MOL     1     -64.070 -26.742   2.827  1.00  0.00     0.133 A 
HETATM   39  C   MOL     1     -64.702 -26.459   2.098  1.00  0.00     0.055 A 
HETATM   40  O   MOL     1     -65.786 -27.289   1.899  1.00  0.00     0.000 OA
HETATM   41  C   MOL     1     -64.329 -26.030   1.268  1.00  0.00     0.007 A 
HETATM   42  H   MOL     1     -65.904 -26.587   2.835  1.00  0.00     0.000 HD
HETATM   43  O   MOL     1     -66.301 -26.003   1.608  1.00  0.00     0.000 OA
HETATM   44  C   MOL     1     -65.944 -25.711   0.719  1.00  0.00     0.057 A 
HETATM   45  C   MOL     1     -67.289 -26.013   1.768  1.00  0.00     0.071 C 
HETATM   46  O   MOL     1     -64.955 -25.702   0.560  1.00  0.00     0.000 OA
HETATM   47  C   MOL     1     -66.554 -25.246   0.070  1.00  0.00     0.154 A 
HETATM   48  C   MOL     1     -67.548 -25.301   0.210  1.00  0.00     0.211 A 
HETATM   49  C   MOL     1     -67.899 -25.548   1.119  1.00  0.00     0.146 C 
BRANCH  37  50
HETATM   50  C   MOL     1     -62.578 -28.109   2.917  1.00  0.00     0.297 C 
HETATM   51  O   MOL     1     -62.289 -27.336   4.066  1.00  0.00    -0.188 OA
HETATM   52  O   MOL     1     -61.436 -27.356   2.559  1.00  0.00    -0.188 OA
ENDBRANCH  37  50
BRANCH  38  53
HETATM   53  O   MOL     1     -64.331 -26.214   4.074  1.00  0.00    -0.395 OA
HETATM   54  H   MOL     1     -65.305 -26.469   3.465  1.00  0.00     0.210 HD
ENDBRANCH  38  53
BRANCH  47  55
HETATM   55  O   MOL     1     -66.091 -24.043  -0.420  1.00  0.00    -0.393 OA
HETATM   56  H   MOL     1     -65.393 -24.952  -0.687  1.00  0.00     0.210 HD
ENDBRANCH  47  55
BRANCH  48  57
HETATM   57  O   MOL     1     -68.270 -25.793  -0.858  1.00  0.00    -0.392 OA
HETATM   58  H   MOL     1     -67.115 -25.724  -1.071  1.00  0.00     0.210 HD
ENDBRANCH  48  57
BRANCH  49  59
HETATM   59  O   MOL     1     -68.781 -24.646   1.677  1.00  0.00    -0.399 OA
HETATM   60  H   MOL     1     -68.364 -24.301   0.633  1.00  0.00     0.209 HD
ENDBRANCH  49  59
BRANCH  45  61
HETATM   61  C   MOL     1     -67.752 -27.216   2.259  1.00  0.00     0.292 C 
HETATM   62  O   MOL     1     -68.931 -26.450   2.109  1.00  0.00    -0.188 OA
HETATM   63  O   MOL     1     -67.771 -26.373   3.394  1.00  0.00    -0.188 OA
ENDBRANCH  45  61
ENDBRANCH   1  35
TORSDOF 8
ENDMDL
MODEL 3
REMARK VINA RESULT:     -13.1      3.826      7.965
REMARK  8 active torsions:
REMARK  status: ('A' for Active; 'I' for Inactive)
REMARK    1  A    between atoms: O_1  and  C_33 
REMARK    2  A    between atoms: O_1  and  C_49 
REMARK    3  A    between atoms: O_8  and  C_53 
REMARK    4  A    between atoms: O_12  and  C_56 
REMARK    5  A    between atoms: O_13  and  C_57 
REMARK    6  A    between atoms: O_14  and  C_59 
REMARK    7  A    between atoms: C_52  and  C_55 
REMARK    8  A    between atoms: C_58  and  C_60 
ROOT
HETATM    1  O   MOL     1     -61.761 -25.880   2.337  1.00  0.00     0.000 OA
ENDROOT
BRANCH   1   2
HETATM    2  C   MOL     1     -61.349 -25.238   1.689  1.00  0.00     0.007 C 
HETATM    3  C   MOL     1     -60.886 -24.324   2.050  1.00  0.00    -0.058 C 
HETATM    4  C   MOL     1     -59.959 -23.888   1.436  1.00  0.00    -0.007 C 
HETATM    5  C   MOL     1     -60.701 -23.681   2.793  1.00  0.00     0.027 C 
HETATM    6  C   MOL     1     -61.187 -24.534   2.981  1.00  0.00    -0.005 C 
HETATM    7  C   MOL     1     -60.363 -23.886   0.330  1.00  0.00    -0.037 A 
HETATM    8  C   MOL     1     -59.992 -22.760   1.686  1.00  0.00     0.006 C 
HETATM    9  C   MOL     1     -59.407 -23.484  -0.229  1.00  0.00     0.013 A 
HETATM   10  C   MOL     1     -60.731 -24.839  -0.036  1.00  0.00     0.014 C 
HETATM   11  C   MOL     1     -61.119 -23.691  -0.808  1.00  0.00     0.081 C 
HETATM   12  C   MOL     1     -59.774 -23.501  -1.285  1.00  0.00    -0.024 A 
HETATM   13  C   MOL     1     -59.500 -22.369  -0.002  1.00  0.00    -0.033 A 
HETATM   14  C   MOL     1     -58.958 -21.798  -0.626  1.00  0.00    -0.030 A 
HETATM   15  C   MOL     1     -59.520 -22.123   1.010  1.00  0.00     0.011 C 
HETATM   16  C   MOL     1     -60.068 -21.197   0.452  1.00  0.00     0.044 C 
HETATM   17  C   MOL     1     -58.933 -22.021  -1.602  1.00  0.00    -0.018 A 
HETATM   18  C   MOL     1     -58.899 -21.160  -2.371  1.00  0.00    -0.002 C 
HETATM   19  C   MOL     1     -59.320 -22.884  -1.927  1.00  0.00    -0.036 C 
HETATM   20  C   MOL     1     -58.604 -20.879  -0.282  1.00  0.00     0.041 A 
HETATM   21  C   MOL     1     -58.101 -20.464  -1.961  1.00  0.00    -0.059 C 
HETATM   22  C   MOL     1     -58.401 -21.677  -3.327  1.00  0.00     0.003 C 
HETATM   23  C   MOL     1     -58.129 -20.231  -0.945  1.00  0.00     0.009 C 
HETATM   24  C   MOL     1     -57.563 -19.812  -2.643  1.00  0.00     0.014 C 
HETATM   25  C   MOL     1     -58.540 -19.165  -1.812  1.00  0.00     0.028 C 
HETATM   26  C   MOL     1     -57.488 -20.079  -3.692  1.00  0.00     0.253 A 
HETATM   27  C   MOL     1     -57.867 -21.041  -4.027  1.00  0.00     0.003 A 
HETATM   28  O   MOL     1     -57.127 -19.962  -5.163  1.00  0.00    -0.382 OA
HETATM   29  C   MOL     1     -57.228 -22.122  -4.597  1.00  0.00     0.044 C 
HETATM   30  C   MOL     1     -57.613 -20.814  -4.968  1.00  0.00     0.080 A 
HETATM   31  O   MOL     1     -57.802 -21.461  -5.707  1.00  0.00     0.000 OA
HETATM   32  C   MOL     1     -58.028 -21.709   0.389  1.00  0.00     0.025 C 
HETATM   33  C   MOL     1     -61.228 -25.520   0.647  1.00  0.00    -0.012 C 
HETATM   34  O   MOL     1     -60.161 -24.365  -1.610  1.00  0.00     0.000 OA
ENDBRANCH   1   2
BRANCH   1  35
HETATM   35  C   MOL     1     -62.693 -26.214   2.189  1.00  0.00    -0.027 A 
HETATM   36  O   MOL     1     -63.384 -25.603   1.799  1.00  0.00     0.000 OA
HETATM   37  C   MOL     1     -64.339 -25.898   1.740  1.00  0.00     0.096 A 
HETATM   38  C   MOL     1     -64.581 -26.843   1.981  1.00  0.00     0.133 A 
HETATM   39  C   MOL     1     -63.924 -27.395   2.505  1.00  0.00     0.055 A 
HETATM   40  O   MOL     1     -64.405 -27.929   3.682  1.00  0.00     0.000 OA
HETATM   41  C   MOL     1     -62.957 -27.120   2.519  1.00  0.00     0.007 A 
HETATM   42  H   MOL     1     -64.761 -28.516   2.727  1.00  0.00     0.000 HD
HETATM   43  O   MOL     1     -63.497 -28.913   3.225  1.00  0.00     0.000 OA
HETATM   44  C   MOL     1     -62.564 -28.579   3.373  1.00  0.00     0.057 A 
HETATM   45  C   MOL     1     -63.772 -29.799   3.600  1.00  0.00     0.071 C 
HETATM   46  O   MOL     1     -62.290 -27.692   2.998  1.00  0.00     0.000 OA
HETATM   47  C   MOL     1     -61.862 -29.210   3.718  1.00  0.00     0.154 A 
HETATM   48  C   MOL     1     -62.149 -30.076   4.138  1.00  0.00     0.211 A 
HETATM   49  C   MOL     1     -63.070 -30.430   3.945  1.00  0.00     0.146 C 
BRANCH  37  50
HETATM   50  C   MOL     1     -65.236 -24.934   2.153  1.00  0.00     0.297 C 
HETATM   51  O   MOL     1     -65.687 -25.265   0.854  1.00  0.00    -0.188 OA
HETATM   52  O   MOL     1     -64.371 -24.226   1.286  1.00  0.00    -0.188 OA
ENDBRANCH  37  50
BRANCH  38  53
HETATM   53  O   MOL     1     -65.307 -27.530   1.031  1.00  0.00    -0.395 OA
HETATM   54  H   MOL     1     -64.382 -28.134   1.434  1.00  0.00     0.210 HD
ENDBRANCH  38  53
BRANCH  47  55
HETATM   55  O   MOL     1     -60.702 -29.267   2.975  1.00  0.00    -0.393 OA
HETATM   56  H   MOL     1     -60.509 -29.255   4.136  1.00  0.00     0.210 HD
ENDBRANCH  47  55
BRANCH  48  57
HETATM   57  O   MOL     1     -61.687 -30.296   5.418  1.00  0.00    -0.392 OA
HETATM   58  H   MOL     1     -62.398 -29.362   5.336  1.00  0.00     0.210 HD
ENDBRANCH  48  57
BRANCH  49  59
HETATM   59  O   MOL     1     -63.117 -31.708   3.429  1.00  0.00    -0.399 OA
HETATM   60  H   MOL     1     -63.937 -31.508   4.249  1.00  0.00     0.209 HD
ENDBRANCH  49  59
BRANCH  45  61
HETATM   61  C   MOL     1     -64.934 -29.741   4.343  1.00  0.00     0.292 C 
HETATM   62  O   MOL     1     -64.544 -31.097   4.451  1.00  0.00    -0.188 OA
HETATM   63  O   MOL     1     -65.354 -30.329   3.127  1.00  0.00    -0.188 OA
ENDBRANCH  45  61
ENDBRANCH   1  35
TORSDOF 8
ENDMDL
MODEL 4
REMARK VINA RESULT:     -13.1      4.340      8.582
REMARK  8 active torsions:
REMARK  status: ('A' for Active; 'I' for Inactive)
REMARK    1  A    between atoms: O_1  and  C_33 
REMARK    2  A    between atoms: O_1  and  C_49 
REMARK    3  A    between atoms: O_8  and  C_53 
REMARK    4  A    between atoms: O_12  and  C_56 
REMARK    5  A    between atoms: O_13  and  C_57 
REMARK    6  A    between atoms: O_14  and  C_59 
REMARK    7  A    between atoms: C_52  and  C_55 
REMARK    8  A    between atoms: C_58  and  C_60 
ROOT
HETATM    1  O   MOL     1     -55.072 -24.433  -9.425  1.00  0.00     0.000 OA
ENDROOT
BRANCH   1   2
HETATM    2  C   MOL     1     -55.547 -25.051 -10.053  1.00  0.00     0.007 C 
HETATM    3  C   MOL     1     -55.053 -25.953 -10.404  1.00  0.00    -0.058 C 
HETATM    4  C   MOL     1     -55.735 -26.905 -10.640  1.00  0.00    -0.007 C 
HETATM    5  C   MOL     1     -54.232 -26.517 -10.484  1.00  0.00     0.027 C 
HETATM    6  C   MOL     1     -54.213 -25.682  -9.935  1.00  0.00    -0.005 C 
HETATM    7  C   MOL     1     -56.580 -26.452 -11.324  1.00  0.00    -0.037 A 
HETATM    8  C   MOL     1     -55.107 -27.485 -11.418  1.00  0.00     0.006 C 
HETATM    9  C   MOL     1     -57.234 -27.417 -11.495  1.00  0.00     0.013 A 
HETATM   10  C   MOL     1     -57.121 -25.610 -10.904  1.00  0.00     0.014 C 
HETATM   11  C   MOL     1     -57.273 -25.797 -12.321  1.00  0.00     0.081 C 
HETATM   12  C   MOL     1     -58.053 -26.991 -12.125  1.00  0.00    -0.024 A 
HETATM   13  C   MOL     1     -56.612 -27.937 -12.298  1.00  0.00    -0.033 A 
HETATM   14  C   MOL     1     -57.132 -28.631 -12.806  1.00  0.00    -0.030 A 
HETATM   15  C   MOL     1     -55.628 -28.149 -12.030  1.00  0.00     0.011 C 
HETATM   16  C   MOL     1     -55.619 -28.106 -13.241  1.00  0.00     0.044 C 
HETATM   17  C   MOL     1     -58.078 -28.439 -13.074  1.00  0.00    -0.018 A 
HETATM   18  C   MOL     1     -58.463 -28.837 -14.088  1.00  0.00    -0.002 C 
HETATM   19  C   MOL     1     -58.545 -27.632 -12.714  1.00  0.00    -0.036 C 
HETATM   20  C   MOL     1     -56.618 -29.441 -13.215  1.00  0.00     0.041 A 
HETATM   21  C   MOL     1     -58.110 -29.915 -14.105  1.00  0.00    -0.059 C 
HETATM   22  C   MOL     1     -59.644 -28.897 -13.919  1.00  0.00     0.003 C 
HETATM   23  C   MOL     1     -57.124 -30.114 -13.828  1.00  0.00     0.009 C 
HETATM   24  C   MOL     1     -58.651 -30.642 -14.704  1.00  0.00     0.014 C 
HETATM   25  C   MOL     1     -57.382 -30.228 -15.234  1.00  0.00     0.028 C 
HETATM   26  C   MOL     1     -59.693 -30.462 -14.951  1.00  0.00     0.253 A 
HETATM   27  C   MOL     1     -60.206 -29.610 -14.515  1.00  0.00     0.003 A 
HETATM   28  O   MOL     1     -61.062 -30.684 -15.573  1.00  0.00    -0.382 OA
HETATM   29  C   MOL     1     -61.292 -29.537 -13.667  1.00  0.00     0.044 C 
HETATM   30  C   MOL     1     -61.035 -29.849 -15.022  1.00  0.00     0.080 A 
HETATM   31  O   MOL     1     -61.854 -29.280 -14.939  1.00  0.00     0.000 OA
HETATM   32  C   MOL     1     -56.503 -29.568 -12.015  1.00  0.00     0.025 C 
HETATM   33  C   MOL     1     -56.601 -24.904 -10.265  1.00  0.00    -0.012 C 
HETATM   34  O   MOL     1     -58.520 -26.182 -11.764  1.00  0.00     0.000 OA
ENDBRANCH   1   2
BRANCH   1  35
HETATM   35  C   MOL     1     -55.107 -23.444  -9.570  1.00  0.00    -0.027 A 
HETATM   36  O   MOL     1     -54.858 -23.063 -10.463  1.00  0.00     0.000 OA
HETATM   37  C   MOL     1     -54.796 -22.072 -10.587  1.00  0.00     0.096 A 
HETATM   38  C   MOL     1     -55.081 -21.462  -9.840  1.00  0.00     0.133 A 
HETATM   39  C   MOL     1     -55.183 -21.839  -8.915  1.00  0.00     0.055 A 
HETATM   40  O   MOL     1     -54.444 -21.211  -7.934  1.00  0.00     0.000 OA
HETATM   41  C   MOL     1     -55.294 -22.832  -8.801  1.00  0.00     0.007 A 
HETATM   42  H   MOL     1     -55.411 -20.614  -8.240  1.00  0.00     0.000 HD
HETATM   43  O   MOL     1     -55.619 -21.608  -7.253  1.00  0.00     0.000 OA
HETATM   44  C   MOL     1     -55.584 -22.598  -7.107  1.00  0.00     0.057 A 
HETATM   45  C   MOL     1     -55.757 -20.995  -6.473  1.00  0.00     0.071 C 
HETATM   46  O   MOL     1     -55.445 -23.210  -7.887  1.00  0.00     0.000 OA
HETATM   47  C   MOL     1     -55.881 -22.978  -6.226  1.00  0.00     0.154 A 
HETATM   48  C   MOL     1     -55.970 -22.365  -5.435  1.00  0.00     0.211 A 
HETATM   49  C   MOL     1     -56.055 -21.376  -5.592  1.00  0.00     0.146 C 
BRANCH  37  50
HETATM   50  C   MOL     1     -53.670 -21.676 -11.278  1.00  0.00     0.297 C 
HETATM   51  O   MOL     1     -54.731 -21.238 -12.104  1.00  0.00    -0.188 OA
HETATM   52  O   MOL     1     -54.085 -22.839 -11.968  1.00  0.00    -0.188 OA
ENDBRANCH  37  50
BRANCH  38  53
HETATM   53  O   MOL     1     -55.993 -20.487 -10.187  1.00  0.00    -0.395 OA
HETATM   54  H   MOL     1     -55.387 -20.903 -11.106  1.00  0.00     0.210 HD
ENDBRANCH  38  53
BRANCH  47  55
HETATM   55  O   MOL     1     -56.820 -23.986  -6.303  1.00  0.00    -0.393 OA
HETATM   56  H   MOL     1     -57.009 -23.242  -5.411  1.00  0.00     0.210 HD
ENDBRANCH  47  55
BRANCH  48  57
HETATM   57  O   MOL     1     -55.245 -22.727  -4.319  1.00  0.00    -0.392 OA
HETATM   58  H   MOL     1     -54.669 -21.983  -5.026  1.00  0.00     0.210 HD
ENDBRANCH  48  57
BRANCH  49  59
HETATM   59  O   MOL     1     -57.167 -20.781  -5.035  1.00  0.00    -0.399 OA
HETATM   60  H   MOL     1     -57.381 -21.856  -5.462  1.00  0.00     0.209 HD
ENDBRANCH  49  59
BRANCH  45  61
HETATM   61  C   MOL     1     -54.818 -19.987  -6.397  1.00  0.00     0.292 C 
HETATM   62  O   MOL     1     -55.616 -19.778  -5.248  1.00  0.00    -0.188 OA
HETATM   63  O   MOL     1     -55.969 -19.324  -6.882  1.00  0.00    -0.188 OA
ENDBRANCH  45  61
ENDBRANCH   1  35
TORSDOF 8
ENDMDL
MODEL 5
REMARK VINA RESULT:     -13.1      2.233      4.136
REMARK  8 active torsions:
REMARK  status: ('A' for Active; 'I' for Inactive)
REMARK    1  A    between atoms: O_1  and  C_33 
REMARK    2  A    between atoms: O_1  and  C_49 
REMARK    3  A    between atoms: O_8  and  C_53 
REMARK    4  A    between atoms: O_12  and  C_56 
REMARK    5  A    between atoms: O_13  and  C_57 
REMARK    6  A    between atoms: O_14  and  C_59 
REMARK    7  A    between atoms: C_52  and  C_55 
REMARK    8  A    between atoms: C_58  and  C_60 
ROOT
HETATM    1  O   MOL     1     -61.558 -22.267  -1.243  1.00  0.00     0.000 OA
ENDROOT
BRANCH   1   2
HETATM    2  C   MOL     1     -60.894 -22.051  -1.961  1.00  0.00     0.007 C 
HETATM    3  C   MOL     1     -60.615 -21.019  -2.150  1.00  0.00    -0.058 C 
HETATM    4  C   MOL     1     -59.505 -20.803  -2.535  1.00  0.00    -0.007 C 
HETATM    5  C   MOL     1     -60.756 -20.040  -1.999  1.00  0.00     0.027 C 
HETATM    6  C   MOL     1     -61.292 -20.709  -1.483  1.00  0.00    -0.005 C 
HETATM    7  C   MOL     1     -59.391 -21.565  -3.427  1.00  0.00    -0.037 A 
HETATM    8  C   MOL     1     -59.620 -19.806  -3.108  1.00  0.00     0.006 C 
HETATM    9  C   MOL     1     -58.280 -21.334  -3.742  1.00  0.00     0.013 A 
HETATM   10  C   MOL     1     -59.583 -22.604  -3.183  1.00  0.00     0.014 C 
HETATM   11  C   MOL     1     -59.577 -22.291  -4.585  1.00  0.00     0.081 C 
HETATM   12  C   MOL     1     -58.155 -22.070  -4.575  1.00  0.00    -0.024 A 
HETATM   13  C   MOL     1     -58.439 -20.376  -4.343  1.00  0.00    -0.033 A 
HETATM   14  C   MOL     1     -57.670 -20.167  -4.954  1.00  0.00    -0.030 A 
HETATM   15  C   MOL     1     -58.890 -19.595  -3.821  1.00  0.00     0.011 C 
HETATM   16  C   MOL     1     -59.124 -19.368  -4.988  1.00  0.00     0.044 C 
HETATM   17  C   MOL     1     -57.230 -20.907  -5.465  1.00  0.00    -0.018 A 
HETATM   18  C   MOL     1     -56.849 -20.699  -6.535  1.00  0.00    -0.002 C 
HETATM   19  C   MOL     1     -57.455 -21.859  -5.257  1.00  0.00    -0.036 C 
HETATM   20  C   MOL     1     -57.481 -19.170  -5.195  1.00  0.00     0.041 A 
HETATM   21  C   MOL     1     -56.294 -19.714  -6.436  1.00  0.00    -0.059 C 
HETATM   22  C   MOL     1     -55.998 -21.524  -6.680  1.00  0.00     0.003 C 
HETATM   23  C   MOL     1     -56.753 -18.942  -5.905  1.00  0.00     0.009 C 
HETATM   24  C   MOL     1     -55.501 -19.477  -7.139  1.00  0.00     0.014 C 
HETATM   25  C   MOL     1     -56.728 -18.755  -7.327  1.00  0.00     0.028 C 
HETATM   26  C   MOL     1     -54.985 -20.282  -7.655  1.00  0.00     0.253 A 
HETATM   27  C   MOL     1     -55.201 -21.312  -7.388  1.00  0.00     0.003 A 
HETATM   28  O   MOL     1     -54.021 -20.966  -8.609  1.00  0.00    -0.382 OA
HETATM   29  C   MOL     1     -54.400 -22.301  -6.856  1.00  0.00     0.044 C 
HETATM   30  C   MOL     1     -54.561 -21.629  -8.089  1.00  0.00     0.080 A 
HETATM   31  O   MOL     1     -54.425 -22.609  -8.236  1.00  0.00     0.000 OA
HETATM   32  C   MOL     1     -57.268 -19.250  -4.005  1.00  0.00     0.025 C 
HETATM   33  C   MOL     1     -60.340 -22.850  -2.445  1.00  0.00    -0.012 C 
HETATM   34  O   MOL     1     -58.380 -23.023  -4.367  1.00  0.00     0.000 OA
ENDBRANCH   1   2
BRANCH   1  35
HETATM   35  C   MOL     1     -61.881 -23.206  -1.123  1.00  0.00    -0.027 A 
HETATM   36  O   MOL     1     -62.511 -23.605  -1.793  1.00  0.00     0.000 OA
HETATM   37  C   MOL     1     -62.915 -24.506  -1.628  1.00  0.00     0.096 A 
HETATM   38  C   MOL     1     -62.608 -25.048  -0.839  1.00  0.00     0.133 A 
HETATM   39  C   MOL     1     -62.100 -24.592  -0.102  1.00  0.00     0.055 A 
HETATM   40  O   MOL     1     -62.638 -24.728   1.161  1.00  0.00     0.000 OA
HETATM   41  C   MOL     1     -61.655 -23.709  -0.289  1.00  0.00     0.007 A 
HETATM   42  H   MOL     1     -62.058 -25.685   0.798  1.00  0.00     0.000 HD
HETATM   43  O   MOL     1     -61.244 -24.697   1.401  1.00  0.00     0.000 OA
HETATM   44  C   MOL     1     -60.920 -23.757   1.282  1.00  0.00     0.057 A 
HETATM   45  C   MOL     1     -61.058 -25.181   2.258  1.00  0.00     0.071 C 
HETATM   46  O   MOL     1     -61.107 -23.273   0.425  1.00  0.00     0.000 OA
HETATM   47  C   MOL     1     -60.251 -23.378   1.928  1.00  0.00     0.154 A 
HETATM   48  C   MOL     1     -60.105 -23.843   2.808  1.00  0.00     0.211 A 
HETATM   49  C   MOL     1     -60.388 -24.802   2.905  1.00  0.00     0.146 C 
BRANCH  37  50
HETATM   50  C   MOL     1     -64.268 -24.555  -1.891  1.00  0.00     0.297 C 
HETATM   51  O   MOL     1     -63.721 -25.468  -2.822  1.00  0.00    -0.188 OA
HETATM   52  O   MOL     1     -63.763 -23.740  -2.931  1.00  0.00    -0.188 OA
ENDBRANCH  37  50
BRANCH  38  53
HETATM   53  O   MOL     1     -62.208 -26.336  -1.126  1.00  0.00    -0.395 OA
HETATM   54  H   MOL     1     -62.636 -25.765  -2.061  1.00  0.00     0.210 HD
ENDBRANCH  38  53
BRANCH  47  55
HETATM   55  O   MOL     1     -59.124 -22.825   1.357  1.00  0.00    -0.393 OA
HETATM   56  H   MOL     1     -58.942 -23.227   2.448  1.00  0.00     0.210 HD
ENDBRANCH  47  55
BRANCH  48  57
HETATM   57  O   MOL     1     -60.280 -23.058   3.928  1.00  0.00    -0.392 OA
HETATM   58  H   MOL     1     -59.152 -23.175   3.615  1.00  0.00     0.210 HD
ENDBRANCH  48  57
BRANCH  49  59
HETATM   59  O   MOL     1     -59.399 -25.673   3.310  1.00  0.00    -0.399 OA
HETATM   60  H   MOL     1     -60.054 -26.093   2.428  1.00  0.00     0.209 HD
ENDBRANCH  49  59
BRANCH  45  61
HETATM   61  C   MOL     1     -62.186 -25.734   2.829  1.00  0.00     0.292 C 
HETATM   62  O   MOL     1     -61.170 -26.020   3.770  1.00  0.00    -0.188 OA
HETATM   63  O   MOL     1     -61.510 -26.854   2.290  1.00  0.00    -0.188 OA
ENDBRANCH  45  61
ENDBRANCH   1  35
TORSDOF 8
ENDMDL
MODEL 6
REMARK VINA RESULT:     -13.1      3.194      9.611
REMARK  8 active torsions:
REMARK  status: ('A' for Active; 'I' for Inactive)
REMARK    1  A    between atoms: O_1  and  C_33 
REMARK    2  A    between atoms: O_1  and  C_49 
REMARK    3  A    between atoms: O_8  and  C_53 
REMARK    4  A    between atoms: O_12  and  C_56 
REMARK    5  A    between atoms: O_13  and  C_57 
REMARK    6  A    between atoms: O_14  and  C_59 
REMARK    7  A    between atoms: C_52  and  C_55 
REMARK    8  A    between atoms: C_58  and  C_60 
ROOT
HETATM    1  O   MOL     1     -58.114 -19.372  -3.861  1.00  0.00     0.000 OA
ENDROOT
BRANCH   1   2
HETATM    2  C   MOL     1     -58.491 -20.044  -3.221  1.00  0.00     0.007 C 
HETATM    3  C   MOL     1     -58.139 -20.073  -2.194  1.00  0.00    -0.058 C 
HETATM    4  C   MOL     1     -58.913 -20.413  -1.350  1.00  0.00    -0.007 C 
HETATM    5  C   MOL     1     -57.495 -19.775  -1.489  1.00  0.00     0.027 C 
HETATM    6  C   MOL     1     -57.459 -19.370  -2.402  1.00  0.00    -0.005 C 
HETATM    7  C   MOL     1     -59.356 -21.409  -1.795  1.00  0.00    -0.037 A 
HETATM    8  C   MOL     1     -58.222 -20.829  -0.521  1.00  0.00     0.006 C 
HETATM    9  C   MOL     1     -60.127 -21.679  -0.947  1.00  0.00     0.013 A 
HETATM   10  C   MOL     1     -59.788 -21.327  -2.788  1.00  0.00     0.014 C 
HETATM   11  C   MOL     1     -59.510 -22.665  -2.345  1.00  0.00     0.081 C 
HETATM   12  C   MOL     1     -60.571 -22.613  -1.373  1.00  0.00    -0.024 A 
HETATM   13  C   MOL     1     -59.420 -22.128  -0.172  1.00  0.00    -0.033 A 
HETATM   14  C   MOL     1     -59.896 -22.695   0.508  1.00  0.00    -0.030 A 
HETATM   15  C   MOL     1     -58.657 -21.497   0.151  1.00  0.00     0.011 C 
HETATM   16  C   MOL     1     -58.245 -22.617   0.359  1.00  0.00     0.044 C 
HETATM   17  C   MOL     1     -60.628 -23.310   0.211  1.00  0.00    -0.018 A 
HETATM   18  C   MOL     1     -60.745 -24.334   0.733  1.00  0.00    -0.002 C 
HETATM   19  C   MOL     1     -60.982 -23.251  -0.723  1.00  0.00    -0.036 C 
HETATM   20  C   MOL     1     -59.485 -22.782   1.462  1.00  0.00     0.041 A 
HETATM   21  C   MOL     1     -60.672 -24.082   1.837  1.00  0.00    -0.059 C 
HETATM   22  C   MOL     1     -61.896 -24.597   0.547  1.00  0.00     0.003 C 
HETATM   23  C   MOL     1     -59.908 -23.444   2.146  1.00  0.00     0.009 C 
HETATM   24  C   MOL     1     -61.145 -24.737   2.564  1.00  0.00     0.014 C 
HETATM   25  C   MOL     1     -59.713 -24.821   2.498  1.00  0.00     0.028 C 
HETATM   26  C   MOL     1     -61.975 -25.365   2.257  1.00  0.00     0.253 A 
HETATM   27  C   MOL     1     -62.385 -25.259   1.256  1.00  0.00     0.003 A 
HETATM   28  O   MOL     1     -63.078 -26.406   2.355  1.00  0.00    -0.382 OA
HETATM   29  C   MOL     1     -63.637 -24.879   0.821  1.00  0.00     0.044 C 
HETATM   30  C   MOL     1     -63.036 -25.996   1.444  1.00  0.00     0.080 A 
HETATM   31  O   MOL     1     -63.677 -26.289   0.734  1.00  0.00     0.000 OA
HETATM   32  C   MOL     1     -59.800 -21.616   1.360  1.00  0.00     0.025 C 
HETATM   33  C   MOL     1     -59.353 -20.640  -3.506  1.00  0.00    -0.012 C 
HETATM   34  O   MOL     1     -60.924 -22.554  -2.308  1.00  0.00     0.000 OA
ENDBRANCH   1   2
BRANCH   1  35
HETATM   35  C   MOL     1     -57.806 -19.660  -4.768  1.00  0.00    -0.027 A 
HETATM   36  O   MOL     1     -57.349 -20.544  -4.880  1.00  0.00     0.000 OA
HETATM   37  C   MOL     1     -56.951 -20.795  -5.764  1.00  0.00     0.096 A 
HETATM   38  C   MOL     1     -57.099 -20.199  -6.560  1.00  0.00     0.133 A 
HETATM   39  C   MOL     1     -57.421 -19.259  -6.412  1.00  0.00     0.055 A 
HETATM   40  O   MOL     1     -56.628 -18.269  -6.955  1.00  0.00     0.000 OA
HETATM   41  C   MOL     1     -57.864 -19.026  -5.539  1.00  0.00     0.007 A 
HETATM   42  H   MOL     1     -57.305 -18.811  -7.750  1.00  0.00     0.000 HD
HETATM   43  O   MOL     1     -57.936 -17.741  -7.071  1.00  0.00     0.000 OA
HETATM   44  C   MOL     1     -58.244 -17.453  -6.163  1.00  0.00     0.057 A 
HETATM   45  C   MOL     1     -57.949 -17.089  -7.831  1.00  0.00     0.071 C 
HETATM   46  O   MOL     1     -58.231 -18.105  -5.404  1.00  0.00     0.000 OA
HETATM   47  C   MOL     1     -58.746 -16.587  -6.063  1.00  0.00     0.154 A 
HETATM   48  C   MOL     1     -58.714 -15.916  -6.811  1.00  0.00     0.211 A 
HETATM   49  C   MOL     1     -58.450 -16.224  -7.731  1.00  0.00     0.146 C 
BRANCH  37  50
HETATM   50  C   MOL     1     -55.689 -21.342  -5.660  1.00  0.00     0.297 C 
HETATM   51  O   MOL     1     -56.416 -22.331  -6.361  1.00  0.00    -0.188 OA
HETATM   52  O   MOL     1     -56.422 -22.019  -4.657  1.00  0.00    -0.188 OA
ENDBRANCH  37  50
BRANCH  38  53
HETATM   53  O   MOL     1     -57.596 -20.825  -7.684  1.00  0.00    -0.395 OA
HETATM   54  H   MOL     1     -58.249 -21.011  -6.723  1.00  0.00     0.210 HD
ENDBRANCH  38  53
BRANCH  47  55
HETATM   55  O   MOL     1     -59.950 -16.674  -5.396  1.00  0.00    -0.393 OA
HETATM   56  H   MOL     1     -59.683 -15.578  -5.731  1.00  0.00     0.210 HD
ENDBRANCH  47  55
BRANCH  48  57
HETATM   57  O   MOL     1     -58.275 -14.657  -6.458  1.00  0.00    -0.392 OA
HETATM   58  H   MOL     1     -59.437 -14.795  -6.336  1.00  0.00     0.210 HD
ENDBRANCH  48  57
BRANCH  49  59
HETATM   59  O   MOL     1     -59.359 -15.947  -8.731  1.00  0.00    -0.399 OA
HETATM   60  H   MOL     1     -59.125 -17.094  -8.621  1.00  0.00     0.209 HD
ENDBRANCH  49  59
BRANCH  45  61
HETATM   61  C   MOL     1     -56.745 -17.003  -8.498  1.00  0.00     0.292 C 
HETATM   62  O   MOL     1     -57.557 -16.057  -9.167  1.00  0.00    -0.188 OA
HETATM   63  O   MOL     1     -57.545 -17.777  -9.370  1.00  0.00    -0.188 OA
ENDBRANCH  45  61
ENDBRANCH   1  35
TORSDOF 8
ENDMDL
MODEL 7
REMARK VINA RESULT:     -13.0      8.037     12.861
REMARK  8 active torsions:
REMARK  status: ('A' for Active; 'I' for Inactive)
REMARK    1  A    between atoms: O_1  and  C_33 
REMARK    2  A    between atoms: O_1  and  C_49 
REMARK    3  A    between atoms: O_8  and  C_53 
REMARK    4  A    between atoms: O_12  and  C_56 
REMARK    5  A    between atoms: O_13  and  C_57 
REMARK    6  A    between atoms: O_14  and  C_59 
REMARK    7  A    between atoms: C_52  and  C_55 
REMARK    8  A    between atoms: C_58  and  C_60 
ROOT
HETATM    1  O   MOL     1     -64.389 -25.781   2.967  1.00  0.00     0.000 OA
ENDROOT
BRANCH   1   2
HETATM    2  C   MOL     1     -65.145 -26.071   2.377  1.00  0.00     0.007 C 
HETATM    3  C   MOL     1     -65.812 -25.330   1.945  1.00  0.00    -0.058 C 
HETATM    4  C   MOL     1     -66.289 -25.566   0.876  1.00  0.00    -0.007 C 
HETATM    5  C   MOL     1     -66.139 -24.387   1.888  1.00  0.00     0.027 C 
HETATM    6  C   MOL     1     -65.350 -24.608   2.461  1.00  0.00    -0.005 C 
HETATM    7  C   MOL     1     -66.714 -26.654   1.020  1.00  0.00    -0.037 A 
HETATM    8  C   MOL     1     -67.263 -24.944   0.886  1.00  0.00     0.006 C 
HETATM    9  C   MOL     1     -67.138 -26.845  -0.063  1.00  0.00     0.013 A 
HETATM   10  C   MOL     1     -65.999 -27.396   1.361  1.00  0.00     0.014 C 
HETATM   11  C   MOL     1     -67.380 -27.769   1.485  1.00  0.00     0.081 C 
HETATM   12  C   MOL     1     -67.524 -27.888   0.058  1.00  0.00    -0.024 A 
HETATM   13  C   MOL     1     -68.116 -26.260   0.002  1.00  0.00    -0.033 A 
HETATM   14  C   MOL     1     -68.778 -26.529  -0.704  1.00  0.00    -0.030 A 
HETATM   15  C   MOL     1     -68.014 -25.249   0.232  1.00  0.00     0.011 C 
HETATM   16  C   MOL     1     -69.141 -25.536   0.575  1.00  0.00     0.044 C 
HETATM   17  C   MOL     1     -68.890 -27.498  -0.932  1.00  0.00    -0.018 A 
HETATM   18  C   MOL     1     -69.942 -27.892  -1.198  1.00  0.00    -0.002 C 
HETATM   19  C   MOL     1     -68.247 -28.173  -0.571  1.00  0.00    -0.036 C 
HETATM   20  C   MOL     1     -69.471 -25.823  -1.035  1.00  0.00     0.041 A 
HETATM   21  C   MOL     1     -70.342 -27.121  -1.929  1.00  0.00    -0.059 C 
HETATM   22  C   MOL     1     -69.705 -28.858  -1.861  1.00  0.00     0.003 C 
HETATM   23  C   MOL     1     -70.227 -26.113  -1.690  1.00  0.00     0.009 C 
HETATM   24  C   MOL     1     -71.099 -27.415  -2.651  1.00  0.00     0.014 C 
HETATM   25  C   MOL     1     -71.567 -26.608  -1.558  1.00  0.00     0.028 C 
HETATM   26  C   MOL     1     -71.186 -28.457  -2.940  1.00  0.00     0.253 A 
HETATM   27  C   MOL     1     -70.454 -29.175  -2.581  1.00  0.00     0.003 A 
HETATM   28  O   MOL     1     -71.731 -29.696  -3.631  1.00  0.00    -0.382 OA
HETATM   29  C   MOL     1     -69.543 -29.960  -3.256  1.00  0.00     0.044 C 
HETATM   30  C   MOL     1     -70.941 -29.910  -3.055  1.00  0.00     0.080 A 
HETATM   31  O   MOL     1     -70.609 -30.851  -2.993  1.00  0.00     0.000 OA
HETATM   32  C   MOL     1     -68.393 -25.394  -1.386  1.00  0.00     0.025 C 
HETATM   33  C   MOL     1     -65.208 -27.102   2.044  1.00  0.00    -0.012 C 
HETATM   34  O   MOL     1     -66.880 -28.564   0.420  1.00  0.00     0.000 OA
ENDBRANCH   1   2
BRANCH   1  35
HETATM   35  C   MOL     1     -63.599 -26.379   3.100  1.00  0.00    -0.027 A 
HETATM   36  O   MOL     1     -63.666 -27.162   3.722  1.00  0.00     0.000 OA
HETATM   37  C   MOL     1     -62.853 -27.705   3.937  1.00  0.00     0.096 A 
HETATM   38  C   MOL     1     -61.994 -27.522   3.449  1.00  0.00     0.133 A 
HETATM   39  C   MOL     1     -61.893 -26.657   2.947  1.00  0.00     0.055 A 
HETATM   40  O   MOL     1     -60.801 -25.892   3.301  1.00  0.00     0.000 OA
HETATM   41  C   MOL     1     -62.717 -26.141   2.692  1.00  0.00     0.007 A 
HETATM   42  H   MOL     1     -60.525 -26.800   2.606  1.00  0.00     0.000 HD
HETATM   43  O   MOL     1     -60.943 -25.636   1.917  1.00  0.00     0.000 OA
HETATM   44  C   MOL     1     -61.735 -25.037   1.783  1.00  0.00     0.057 A 
HETATM   45  C   MOL     1     -60.051 -25.370   1.549  1.00  0.00     0.071 C 
HETATM   46  O   MOL     1     -62.627 -25.304   2.151  1.00  0.00     0.000 OA
HETATM   47  C   MOL     1     -61.678 -24.283   1.121  1.00  0.00     0.154 A 
HETATM   48  C   MOL     1     -60.774 -23.990   0.793  1.00  0.00     0.211 A 
HETATM   49  C   MOL     1     -59.994 -24.616   0.887  1.00  0.00     0.146 C 
BRANCH  37  50
HETATM   50  C   MOL     1     -62.722 -27.988   5.280  1.00  0.00     0.297 C 
HETATM   51  O   MOL     1     -62.370 -29.206   4.655  1.00  0.00    -0.188 OA
HETATM   52  O   MOL     1     -63.960 -28.582   4.941  1.00  0.00    -0.188 OA
ENDBRANCH  37  50
BRANCH  38  53
HETATM   53  O   MOL     1     -61.402 -28.620   2.860  1.00  0.00    -0.395 OA
HETATM   54  H   MOL     1     -60.704 -28.078   3.637  1.00  0.00     0.210 HD
ENDBRANCH  38  53
BRANCH  47  55
HETATM   55  O   MOL     1     -62.690 -24.239   0.185  1.00  0.00    -0.393 OA
HETATM   56  H   MOL     1     -62.485 -23.200   0.696  1.00  0.00     0.210 HD
ENDBRANCH  47  55
BRANCH  48  57
HETATM   57  O   MOL     1     -60.485 -22.653   0.974  1.00  0.00    -0.392 OA
HETATM   58  H   MOL     1     -61.635 -22.892   1.043  1.00  0.00     0.210 HD
ENDBRANCH  48  57
BRANCH  49  59
HETATM   59  O   MOL     1     -59.323 -24.905  -0.283  1.00  0.00    -0.399 OA
HETATM   60  H   MOL     1     -59.474 -23.752  -0.107  1.00  0.00     0.209 HD
ENDBRANCH  49  59
BRANCH  45  61
HETATM   61  C   MOL     1     -59.038 -25.415   2.486  1.00  0.00     0.292 C 
HETATM   62  O   MOL     1     -58.379 -24.979   1.313  1.00  0.00    -0.188 OA
HETATM   63  O   MOL     1     -58.839 -26.596   1.733  1.00  0.00    -0.188 OA
ENDBRANCH  45  61
ENDBRANCH   1  35
TORSDOF 8
ENDMDL
MODEL 8
REMARK VINA RESULT:     -12.9      7.954     14.224
REMARK  8 active torsions:
REMARK  status: ('A' for Active; 'I' for Inactive)
REMARK    1  A    between atoms: O_1  and  C_33 
REMARK    2  A    between atoms: O_1  and  C_49 
REMARK    3  A    between atoms: O_8  and  C_53 
REMARK    4  A    between atoms: O_12  and  C_56 
REMARK    5  A    between atoms: O_13  and  C_57 
REMARK    6  A    between atoms: O_14  and  C_59 
REMARK    7  A    between atoms: C_52  and  C_55 
REMARK    8  A    between atoms: C_58  and  C_60 
ROOT
HETATM    1  O   MOL     1     -65.400 -24.954   0.528  1.00  0.00     0.000 OA
ENDROOT
BRANCH   1   2
HETATM    2  C   MOL     1     -66.240 -25.499   0.527  1.00  0.00     0.007 C 
HETATM    3  C   MOL     1     -67.145 -25.101   0.977  1.00  0.00    -0.058 C 
HETATM    4  C   MOL     1     -68.192 -25.431   0.506  1.00  0.00    -0.007 C 
HETATM    5  C   MOL     1     -67.607 -24.405   1.526  1.00  0.00     0.027 C 
HETATM    6  C   MOL     1     -66.641 -24.297   1.292  1.00  0.00    -0.005 C 
HETATM    7  C   MOL     1     -68.089 -26.603   0.448  1.00  0.00    -0.037 A 
HETATM    8  C   MOL     1     -68.922 -25.317   1.396  1.00  0.00     0.006 C 
HETATM    9  C   MOL     1     -69.124 -26.868  -0.048  1.00  0.00     0.013 A 
HETATM   10  C   MOL     1     -67.223 -26.971  -0.092  1.00  0.00     0.014 C 
HETATM   11  C   MOL     1     -67.882 -27.934   0.745  1.00  0.00     0.081 C 
HETATM   12  C   MOL     1     -69.025 -27.979  -0.129  1.00  0.00    -0.024 A 
HETATM   13  C   MOL     1     -69.806 -26.793   0.864  1.00  0.00    -0.033 A 
HETATM   14  C   MOL     1     -70.682 -27.268   0.736  1.00  0.00    -0.030 A 
HETATM   15  C   MOL     1     -69.804 -25.868   1.344  1.00  0.00     0.011 C 
HETATM   16  C   MOL     1     -70.162 -26.660   2.190  1.00  0.00     0.044 C 
HETATM   17  C   MOL     1     -70.698 -28.159   0.279  1.00  0.00    -0.018 A 
HETATM   18  C   MOL     1     -71.448 -28.959   0.641  1.00  0.00    -0.002 C 
HETATM   19  C   MOL     1     -69.875 -28.503  -0.174  1.00  0.00    -0.036 C 
HETATM   20  C   MOL     1     -71.518 -26.922   1.254  1.00  0.00     0.041 A 
HETATM   21  C   MOL     1     -72.425 -28.388   0.735  1.00  0.00    -0.059 C 
HETATM   22  C   MOL     1     -71.583 -29.653  -0.322  1.00  0.00     0.003 C 
HETATM   23  C   MOL     1     -72.408 -27.461   1.212  1.00  0.00     0.009 C 
HETATM   24  C   MOL     1     -73.365 -28.926   0.649  1.00  0.00     0.014 C 
HETATM   25  C   MOL     1     -73.009 -28.515   1.978  1.00  0.00     0.028 C 
HETATM   26  C   MOL     1     -73.396 -29.867   0.109  1.00  0.00     0.253 A 
HETATM   27  C   MOL     1     -72.511 -30.208  -0.422  1.00  0.00     0.003 A 
HETATM   28  O   MOL     1     -73.963 -31.153  -0.469  1.00  0.00    -0.382 OA
HETATM   29  C   MOL     1     -72.286 -30.437  -1.763  1.00  0.00     0.044 C 
HETATM   30  C   MOL     1     -72.996 -31.038  -0.698  1.00  0.00     0.080 A 
HETATM   31  O   MOL     1     -72.528 -31.731  -1.247  1.00  0.00     0.000 OA
HETATM   32  C   MOL     1     -71.229 -26.025   0.491  1.00  0.00     0.025 C 
HETATM   33  C   MOL     1     -66.291 -26.415  -0.053  1.00  0.00    -0.012 C 
HETATM   34  O   MOL     1     -68.201 -28.323  -0.582  1.00  0.00     0.000 OA
ENDBRANCH   1   2
BRANCH   1  35
HETATM   35  C   MOL     1     -64.522 -25.385   0.737  1.00  0.00    -0.027 A 
HETATM   36  O   MOL     1     -64.391 -25.845   1.617  1.00  0.00     0.000 OA
HETATM   37  C   MOL     1     -63.487 -26.193   1.873  1.00  0.00     0.096 A 
HETATM   38  C   MOL     1     -62.739 -26.165   1.203  1.00  0.00     0.133 A 
HETATM   39  C   MOL     1     -62.832 -25.578   0.393  1.00  0.00     0.055 A 
HETATM   40  O   MOL     1     -61.821 -24.658   0.209  1.00  0.00     0.000 OA
HETATM   41  C   MOL     1     -63.748 -25.273   0.113  1.00  0.00     0.007 A 
HETATM   42  H   MOL     1     -61.519 -25.749  -0.111  1.00  0.00     0.000 HD
HETATM   43  O   MOL     1     -62.189 -25.005  -1.112  1.00  0.00     0.000 OA
HETATM   44  C   MOL     1     -63.068 -24.573  -1.321  1.00  0.00     0.057 A 
HETATM   45  C   MOL     1     -61.403 -24.850  -1.713  1.00  0.00     0.071 C 
HETATM   46  O   MOL     1     -63.853 -24.728  -0.720  1.00  0.00     0.000 OA
HETATM   47  C   MOL     1     -63.211 -24.156  -2.224  1.00  0.00     0.154 A 
HETATM   48  C   MOL     1     -62.412 -23.958  -2.802  1.00  0.00     0.211 A 
HETATM   49  C   MOL     1     -61.546 -24.432  -2.616  1.00  0.00     0.146 C 
BRANCH  37  50
HETATM   50  C   MOL     1     -63.132 -25.887   3.171  1.00  0.00     0.297 C 
HETATM   51  O   MOL     1     -63.075 -27.300   3.141  1.00  0.00    -0.188 OA
HETATM   52  O   MOL     1     -64.480 -26.297   3.290  1.00  0.00    -0.188 OA
ENDBRANCH  37  50
BRANCH  38  53
HETATM   53  O   MOL     1     -62.086 -27.362   0.995  1.00  0.00    -0.395 OA
HETATM   54  H   MOL     1     -62.867 -27.406   1.874  1.00  0.00     0.210 HD
ENDBRANCH  38  53
BRANCH  47  55
HETATM   55  O   MOL     1     -64.340 -24.573  -2.898  1.00  0.00    -0.393 OA
HETATM   56  H   MOL     1     -63.380 -24.539  -3.578  1.00  0.00     0.210 HD
ENDBRANCH  47  55
BRANCH  48  57
HETATM   57  O   MOL     1     -62.292 -22.648  -3.218  1.00  0.00    -0.392 OA
HETATM   58  H   MOL     1     -61.955 -23.427  -4.033  1.00  0.00     0.210 HD
ENDBRANCH  48  57
BRANCH  49  59
HETATM   59  O   MOL     1     -61.011 -25.127  -3.680  1.00  0.00    -0.399 OA
HETATM   60  H   MOL     1     -60.515 -24.073  -3.517  1.00  0.00     0.209 HD
ENDBRANCH  49  59
BRANCH  45  61
HETATM   61  C   MOL     1     -60.274 -24.432  -1.039  1.00  0.00     0.292 C 
HETATM   62  O   MOL     1     -59.892 -24.348  -2.398  1.00  0.00    -0.188 OA
HETATM   63  O   MOL     1     -59.963 -25.763  -1.402  1.00  0.00    -0.188 OA
ENDBRANCH  45  61
ENDBRANCH   1  35
TORSDOF 8
ENDMDL
MODEL 9
REMARK VINA RESULT:     -12.8      6.563     12.711
REMARK  8 active torsions:
REMARK  status: ('A' for Active; 'I' for Inactive)
REMARK    1  A    between atoms: O_1  and  C_33 
REMARK    2  A    between atoms: O_1  and  C_49 
REMARK    3  A    between atoms: O_8  and  C_53 
REMARK    4  A    between atoms: O_12  and  C_56 
REMARK    5  A    between atoms: O_13  and  C_57 
REMARK    6  A    between atoms: O_14  and  C_59 
REMARK    7  A    between atoms: C_52  and  C_55 
REMARK    8  A    between atoms: C_58  and  C_60 
ROOT
HETATM    1  O   MOL     1     -63.803 -24.523   1.457  1.00  0.00     0.000 OA
ENDROOT
BRANCH   1   2
HETATM    2  C   MOL     1     -64.689 -24.828   1.103  1.00  0.00     0.007 C 
HETATM    3  C   MOL     1     -65.580 -24.735   1.718  1.00  0.00    -0.058 C 
HETATM    4  C   MOL     1     -66.621 -24.545   1.163  1.00  0.00    -0.007 C 
HETATM    5  C   MOL     1     -66.009 -24.538   2.599  1.00  0.00     0.027 C 
HETATM    6  C   MOL     1     -65.024 -24.412   2.483  1.00  0.00    -0.005 C 
HETATM    7  C   MOL     1     -66.625 -25.379   0.332  1.00  0.00    -0.037 A 
HETATM    8  C   MOL     1     -67.392 -24.973   1.911  1.00  0.00     0.006 C 
HETATM    9  C   MOL     1     -67.646 -25.125  -0.198  1.00  0.00     0.013 A 
HETATM   10  C   MOL     1     -65.764 -25.386  -0.329  1.00  0.00     0.014 C 
HETATM   11  C   MOL     1     -66.563 -26.579  -0.345  1.00  0.00     0.081 C 
HETATM   12  C   MOL     1     -67.646 -25.899  -1.005  1.00  0.00    -0.024 A 
HETATM   13  C   MOL     1     -68.375 -25.603   0.539  1.00  0.00    -0.033 A 
HETATM   14  C   MOL     1     -69.282 -25.767   0.139  1.00  0.00    -0.030 A 
HETATM   15  C   MOL     1     -68.318 -25.245   1.516  1.00  0.00     0.011 C 
HETATM   16  C   MOL     1     -68.802 -26.351   1.616  1.00  0.00     0.044 C 
HETATM   17  C   MOL     1     -69.352 -26.115  -0.798  1.00  0.00    -0.018 A 
HETATM   18  C   MOL     1     -70.196 -26.860  -1.055  1.00  0.00    -0.002 C 
HETATM   19  C   MOL     1     -68.538 -26.157  -1.377  1.00  0.00    -0.036 C 
HETATM   20  C   MOL     1     -70.114 -25.765   0.768  1.00  0.00     0.041 A 
HETATM   21  C   MOL     1     -71.119 -26.394  -0.588  1.00  0.00    -0.059 C 
HETATM   22  C   MOL     1     -70.333 -26.711  -2.233  1.00  0.00     0.003 C 
HETATM   23  C   MOL     1     -71.045 -26.033   0.388  1.00  0.00     0.009 C 
HETATM   24  C   MOL     1     -72.098 -26.625  -0.998  1.00  0.00     0.014 C 
HETATM   25  C   MOL     1     -71.790 -27.252   0.258  1.00  0.00     0.028 C 
HETATM   26  C   MOL     1     -72.182 -26.952  -2.029  1.00  0.00     0.253 A 
HETATM   27  C   MOL     1     -71.301 -26.947  -2.665  1.00  0.00     0.003 A 
HETATM   28  O   MOL     1     -72.829 -27.447  -3.312  1.00  0.00    -0.382 OA
HETATM   29  C   MOL     1     -71.012 -26.244  -3.816  1.00  0.00     0.044 C 
HETATM   30  C   MOL     1     -71.843 -27.318  -3.420  1.00  0.00     0.080 A 
HETATM   31  O   MOL     1     -71.408 -27.513  -4.299  1.00  0.00     0.000 OA
HETATM   32  C   MOL     1     -69.693 -24.629   0.800  1.00  0.00     0.025 C 
HETATM   33  C   MOL     1     -64.789 -25.108   0.059  1.00  0.00    -0.012 C 
HETATM   34  O   MOL     1     -66.831 -25.941  -1.585  1.00  0.00     0.000 OA
ENDBRANCH   1   2
BRANCH   1  35
HETATM   35  C   MOL     1     -63.015 -25.139   1.436  1.00  0.00    -0.027 A 
HETATM   36  O   MOL     1     -62.986 -25.930   2.051  1.00  0.00     0.000 OA
HETATM   37  C   MOL     1     -62.160 -26.493   2.105  1.00  0.00     0.096 A 
HETATM   38  C   MOL     1     -61.400 -26.320   1.470  1.00  0.00     0.133 A 
HETATM   39  C   MOL     1     -61.373 -25.449   0.969  1.00  0.00     0.055 A 
HETATM   40  O   MOL     1     -60.218 -24.711   1.127  1.00  0.00     0.000 OA
HETATM   41  C   MOL     1     -62.218 -24.912   0.877  1.00  0.00     0.007 A 
HETATM   42  H   MOL     1     -60.094 -25.613   0.383  1.00  0.00     0.000 HD
HETATM   43  O   MOL     1     -60.605 -24.431  -0.204  1.00  0.00     0.000 OA
HETATM   44  C   MOL     1     -61.394 -23.814  -0.184  1.00  0.00     0.057 A 
HETATM   45  C   MOL     1     -59.789 -24.177  -0.726  1.00  0.00     0.071 C 
HETATM   46  O   MOL     1     -62.209 -24.069   0.338  1.00  0.00     0.000 OA
HETATM   47  C   MOL     1     -61.441 -23.051  -0.836  1.00  0.00     0.154 A 
HETATM   48  C   MOL     1     -60.607 -22.770  -1.320  1.00  0.00     0.211 A 
HETATM   49  C   MOL     1     -59.837 -23.413  -1.378  1.00  0.00     0.146 C 
BRANCH  37  50
HETATM   50  C   MOL     1     -61.792 -26.800   3.399  1.00  0.00     0.297 C 
HETATM   51  O   MOL     1     -62.016 -28.068   2.814  1.00  0.00    -0.188 OA
HETATM   52  O   MOL     1     -63.198 -26.953   3.414  1.00  0.00    -0.188 OA
ENDBRANCH  37  50
BRANCH  38  53
HETATM   53  O   MOL     1     -60.951 -27.420   0.770  1.00  0.00    -0.395 OA
HETATM   54  H   MOL     1     -60.089 -26.677   1.070  1.00  0.00     0.210 HD
ENDBRANCH  38  53
BRANCH  47  55
HETATM   55  O   MOL     1     -62.607 -22.971  -1.570  1.00  0.00    -0.393 OA
HETATM   56  H   MOL     1     -62.773 -22.811  -0.416  1.00  0.00     0.210 HD
ENDBRANCH  47  55
BRANCH  48  57
HETATM   57  O   MOL     1     -60.259 -21.442  -1.179  1.00  0.00    -0.392 OA
HETATM   58  H   MOL     1     -59.767 -21.954  -2.117  1.00  0.00     0.210 HD
ENDBRANCH  48  57
BRANCH  49  59
HETATM   59  O   MOL     1     -59.398 -23.696  -2.655  1.00  0.00    -0.399 OA
HETATM   60  H   MOL     1     -60.563 -23.796  -2.532  1.00  0.00     0.209 HD
ENDBRANCH  49  59
BRANCH  45  61
HETATM   61  C   MOL     1     -58.624 -24.257   0.008  1.00  0.00     0.292 C 
HETATM   62  O   MOL     1     -58.183 -23.795  -1.254  1.00  0.00    -0.188 OA
HETATM   63  O   MOL     1     -58.581 -25.418  -0.798  1.00  0.00    -0.188 OA
ENDBRANCH  45  61
ENDBRANCH   1  35
TORSDOF 8
ENDMDL
MODEL 10
REMARK VINA RESULT:     -12.8      8.356     14.682
REMARK  8 active torsions:
REMARK  status: ('A' for Active; 'I' for Inactive)
REMARK    1  A    between atoms: O_1  and  C_33 
REMARK    2  A    between atoms: O_1  and  C_49 
REMARK    3  A    between atoms: O_8  and  C_53 
REMARK    4  A    between atoms: O_12  and  C_56 
REMARK    5  A    between atoms: O_13  and  C_57 
REMARK    6  A    between atoms: O_14  and  C_59 
REMARK    7  A    between atoms: C_52  and  C_55 
REMARK    8  A    between atoms: C_58  and  C_60 
ROOT
HETATM    1  O   MOL     1     -66.000 -25.124  -0.240  1.00  0.00     0.000 OA
ENDROOT
BRANCH   1   2
HETATM    2  C   MOL     1     -66.808 -25.668  -0.010  1.00  0.00     0.007 C 
HETATM    3  C   MOL     1     -67.794 -25.211  -0.030  1.00  0.00    -0.058 C 
HETATM    4  C   MOL     1     -68.723 -25.903  -0.322  1.00  0.00    -0.007 C 
HETATM    5  C   MOL     1     -68.372 -24.398  -0.103  1.00  0.00     0.027 C 
HETATM    6  C   MOL     1     -67.382 -24.321  -0.224  1.00  0.00    -0.005 C 
HETATM    7  C   MOL     1     -68.576 -26.838   0.379  1.00  0.00    -0.037 A 
HETATM    8  C   MOL     1     -69.611 -25.374   0.196  1.00  0.00     0.006 C 
HETATM    9  C   MOL     1     -69.490 -27.493   0.028  1.00  0.00     0.013 A 
HETATM   10  C   MOL     1     -67.613 -27.332   0.306  1.00  0.00     0.014 C 
HETATM   11  C   MOL     1     -68.391 -27.666   1.467  1.00  0.00     0.081 C 
HETATM   12  C   MOL     1     -69.345 -28.395   0.673  1.00  0.00    -0.024 A 
HETATM   13  C   MOL     1     -70.334 -26.975   0.594  1.00  0.00    -0.033 A 
HETATM   14  C   MOL     1     -71.156 -27.547   0.678  1.00  0.00    -0.030 A 
HETATM   15  C   MOL     1     -70.451 -25.960   0.386  1.00  0.00     0.011 C 
HETATM   16  C   MOL     1     -70.940 -26.113   1.484  1.00  0.00     0.044 C 
HETATM   17  C   MOL     1     -71.059 -28.522   0.882  1.00  0.00    -0.018 A 
HETATM   18  C   MOL     1     -71.841 -29.031   1.562  1.00  0.00    -0.002 C 
HETATM   19  C   MOL     1     -70.156 -28.951   0.855  1.00  0.00    -0.036 C 
HETATM   20  C   MOL     1     -72.086 -27.079   0.752  1.00  0.00     0.041 A 
HETATM   21  C   MOL     1     -72.834 -28.667   1.151  1.00  0.00    -0.059 C 
HETATM   22  C   MOL     1     -71.770 -30.179   1.237  1.00  0.00     0.003 C 
HETATM   23  C   MOL     1     -72.935 -27.650   0.940  1.00  0.00     0.009 C 
HETATM   24  C   MOL     1     -73.725 -29.271   1.298  1.00  0.00     0.014 C 
HETATM   25  C   MOL     1     -73.639 -28.090   2.111  1.00  0.00     0.028 C 
HETATM   26  C   MOL     1     -73.625 -30.339   1.466  1.00  0.00     0.253 A 
HETATM   27  C   MOL     1     -72.646 -30.804   1.387  1.00  0.00     0.003 A 
HETATM   28  O   MOL     1     -74.035 -31.774   1.752  1.00  0.00    -0.382 OA
HETATM   29  C   MOL     1     -72.164 -31.769   0.527  1.00  0.00     0.044 C 
HETATM   30  C   MOL     1     -73.046 -31.688   1.630  1.00  0.00     0.080 A 
HETATM   31  O   MOL     1     -72.462 -32.497   1.701  1.00  0.00     0.000 OA
HETATM   32  C   MOL     1     -71.683 -26.804  -0.358  1.00  0.00     0.025 C 
HETATM   33  C   MOL     1     -66.723 -26.743   0.110  1.00  0.00    -0.012 C 
HETATM   34  O   MOL     1     -68.441 -28.823   0.647  1.00  0.00     0.000 OA
ENDBRANCH   1   2
BRANCH   1  35
HETATM   35  C   MOL     1     -65.186 -25.165   0.339  1.00  0.00    -0.027 A 
HETATM   36  O   MOL     1     -65.285 -25.174   1.336  1.00  0.00     0.000 OA
HETATM   37  C   MOL     1     -64.475 -25.115   1.922  1.00  0.00     0.096 A 
HETATM   38  C   MOL     1     -63.561 -25.147   1.506  1.00  0.00     0.133 A 
HETATM   39  C   MOL     1     -63.469 -24.988   0.518  1.00  0.00     0.055 A 
HETATM   40  O   MOL     1     -62.607 -23.972   0.160  1.00  0.00     0.000 OA
HETATM   41  C   MOL     1     -64.276 -25.097  -0.071  1.00  0.00     0.007 A 
HETATM   42  H   MOL     1     -62.054 -24.964   0.466  1.00  0.00     0.000 HD
HETATM   43  O   MOL     1     -62.460 -24.910  -0.889  1.00  0.00     0.000 OA
HETATM   44  C   MOL     1     -63.275 -24.869  -1.470  1.00  0.00     0.057 A 
HETATM   45  C   MOL     1     -61.553 -24.792  -1.297  1.00  0.00     0.071 C 
HETATM   46  O   MOL     1     -64.182 -24.987  -1.061  1.00  0.00     0.000 OA
HETATM   47  C   MOL     1     -63.173 -24.910  -2.469  1.00  0.00     0.154 A 
HETATM   48  C   MOL     1     -62.269 -24.742  -2.874  1.00  0.00     0.211 A 
HETATM   49  C   MOL     1     -61.451 -24.833  -2.296  1.00  0.00     0.146 C 
BRANCH  37  50
HETATM   50  C   MOL     1     -64.619 -24.227   2.968  1.00  0.00     0.297 C 
HETATM   51  O   MOL     1     -64.245 -25.430   3.610  1.00  0.00    -0.188 OA
HETATM   52  O   MOL     1     -65.811 -24.987   3.018  1.00  0.00    -0.188 OA
ENDBRANCH  37  50
BRANCH  38  53
HETATM   53  O   MOL     1     -62.701 -26.085   2.037  1.00  0.00    -0.395 OA
HETATM   54  H   MOL     1     -63.801 -26.182   2.443  1.00  0.00     0.210 HD
ENDBRANCH  38  53
BRANCH  47  55
HETATM   55  O   MOL     1     -63.938 -25.866  -3.104  1.00  0.00    -0.393 OA
HETATM   56  H   MOL     1     -64.182 -24.770  -3.453  1.00  0.00     0.210 HD
ENDBRANCH  47  55
BRANCH  48  57
HETATM   57  O   MOL     1     -62.219 -23.735  -3.815  1.00  0.00    -0.392 OA
HETATM   58  H   MOL     1     -61.588 -24.682  -4.115  1.00  0.00     0.210 HD
ENDBRANCH  48  57
BRANCH  49  59
HETATM   59  O   MOL     1     -60.494 -25.712  -2.758  1.00  0.00    -0.399 OA
HETATM   60  H   MOL     1     -60.039 -24.735  -2.288  1.00  0.00     0.209 HD
ENDBRANCH  49  59
BRANCH  45  61
HETATM   61  C   MOL     1     -60.788 -23.836  -0.661  1.00  0.00     0.292 C 
HETATM   62  O   MOL     1     -59.949 -24.282  -1.708  1.00  0.00    -0.188 OA
HETATM   63  O   MOL     1     -60.248 -25.054  -0.187  1.00  0.00    -0.188 OA
ENDBRANCH  45  61
ENDBRANCH   1  35
TORSDOF 8
ENDMDL
