MODEL 1
REMARK VINA RESULT:      -9.1      0.000      0.000
REMARK  16 active torsions:
REMARK  status: ('A' for Active; 'I' for Inactive)
REMARK    1  A    between atoms: N_3  and  C_13 
REMARK    2  A    between atoms: C_6  and  C_37 
REMARK    3  A    between atoms: C_13  and  C_14 
REMARK    4  A    between atoms: C_13  and  C_17 
REMARK       I    between atoms: C_14  and  N_15 
REMARK    5  A    between atoms: N_15  and  C_16 
REMARK    6  A    between atoms: C_16  and  C_27 
REMARK    7  A    between atoms: C_16  and  C_28 
REMARK    8  A    between atoms: C_25  and  C_27 
REMARK    9  A    between atoms: C_28  and  C_29 
REMARK   10  A    between atoms: C_29  and  C_30 
REMARK   11  A    between atoms: C_29  and  O_36 
REMARK   12  A    between atoms: C_30  and  N_31 
REMARK   13  A    between atoms: C_30  and  C_37 
REMARK       I    between atoms: N_31  and  C_32 
REMARK   14  A    between atoms: C_32  and  C_33 
REMARK   15  A    between atoms: C_33  and  O_34 
REMARK   16  A    between atoms: O_34  and  C_35 
ROOT
HETATM    1  C   UNK     0     -63.556 -34.354   2.393  0.00  0.00     0.126 C 
HETATM    2  C   UNK     0     -62.541 -32.705   3.989  0.00  0.00     0.130 C 
HETATM    3  N   UNK     0     -63.847 -31.949   3.974  0.00  0.00    -0.320 N 
HETATM    4  C   UNK     0     -64.922 -32.383   3.210  0.00  0.00     0.319 C 
HETATM    5  N   UNK     0     -64.771 -33.520   2.472  0.00  0.00    -0.343 N 
HETATM    6  O   UNK     0     -65.982 -31.782   3.184  0.00  0.00    -0.247 OA
HETATM    7  C   UNK     0     -62.679 -34.203   3.641  0.00  0.00     0.040 C 
HETATM    8  H   UNK     0     -65.614 -33.759   1.949  0.00  0.00     0.164 HD
ENDROOT
BRANCH   3   9
HETATM    9  C   UNK     0     -63.996 -30.695   4.792  0.00  0.00     0.184 C 
BRANCH   9  10
HETATM   10  C   UNK     0     -63.738 -29.461   3.885  0.00  0.00     0.241 C 
HETATM   11  N   UNK     0     -64.852 -28.680   3.726  0.00  0.00    -0.354 N 
HETATM   12  H   UNK     0     -65.669 -29.034   4.224  0.00  0.00     0.162 HD
HETATM   13  O   UNK     0     -62.635 -29.244   3.382  0.00  0.00    -0.271 OA
BRANCH  11  14
HETATM   14  C   UNK     0     -64.906 -27.440   2.920  0.00  0.00     0.091 C 
BRANCH  14  15
HETATM   15  C   UNK     0     -66.362 -26.939   2.782  0.00  0.00     0.063 C 
BRANCH  15  16
HETATM   16  C   UNK     0     -66.701 -26.090   1.591  0.00  0.00    -0.056 A 
HETATM   17  C   UNK     0     -66.430 -26.558   0.276  0.00  0.00     0.007 A 
HETATM   18  C   UNK     0     -66.746 -25.767  -0.853  0.00  0.00     0.001 A 
HETATM   19  C   UNK     0     -67.339 -24.495  -0.677  0.00  0.00     0.000 A 
HETATM   20  C   UNK     0     -67.613 -24.022   0.628  0.00  0.00     0.001 A 
HETATM   21  C   UNK     0     -67.295 -24.817   1.756  0.00  0.00     0.007 A 
ENDBRANCH  15  16
ENDBRANCH  14  15
BRANCH  14  22
HETATM   22  C   UNK     0     -64.115 -26.295   3.590  0.00  0.00     0.059 C 
BRANCH  22  23
HETATM   23  C   UNK     0     -63.249 -25.356   2.731  0.00  0.00     0.143 C 
BRANCH  23  24
HETATM   24  C   UNK     0     -63.081 -25.723   1.235  0.00  0.00     0.117 C 
BRANCH  24  25
HETATM   25  N   UNK     0     -62.425 -24.586   0.549  0.00  0.00    -0.352 N 
HETATM   26  C   UNK     0     -62.681 -24.220  -0.747  0.00  0.00     0.242 C 
HETATM   27  O   UNK     0     -63.486 -24.783  -1.497  0.00  0.00    -0.271 OA
HETATM   28  H   UNK     0     -61.732 -23.999   1.014  0.00  0.00     0.163 HD
BRANCH  26  29
HETATM   29  C   UNK     0     -61.854 -23.018  -1.247  0.00  0.00     0.278 C 
BRANCH  29  30
HETATM   30  O   UNK     0     -61.597 -22.070  -0.196  0.00  0.00    -0.341 OA
BRANCH  30  31
HETATM   31  C   UNK     0     -60.606 -21.121  -0.511  0.00  0.00     0.081 A 
HETATM   32  C   UNK     0     -60.923 -19.889  -1.182  0.00  0.00    -0.028 A 
HETATM   33  C   UNK     0     -59.878 -18.970  -1.472  0.00  0.00     0.009 A 
HETATM   34  C   UNK     0     -62.331 -19.531  -1.594  0.00  0.00     0.051 C 
HETATM   35  C   UNK     0     -58.544 -19.251  -1.107  0.00  0.00     0.001 A 
HETATM   36  C   UNK     0     -58.224 -20.454  -0.446  0.00  0.00     0.009 A 
HETATM   37  C   UNK     0     -59.239 -21.393  -0.143  0.00  0.00    -0.028 A 
HETATM   38  C   UNK     0     -58.866 -22.655   0.559  0.00  0.00     0.051 C 
ENDBRANCH  30  31
ENDBRANCH  29  30
ENDBRANCH  26  29
ENDBRANCH  24  25
BRANCH  24  39
HETATM   39  C   UNK     0     -62.189 -26.990   1.074  0.00  0.00     0.066 C 
BRANCH  39  40
HETATM   40  C   UNK     0     -60.723 -26.702   0.816  0.00  0.00    -0.056 A 
HETATM   41  C   UNK     0     -59.861 -26.400   1.898  0.00  0.00     0.007 A 
HETATM   42  C   UNK     0     -58.489 -26.123   1.681  0.00  0.00     0.001 A 
HETATM   43  C   UNK     0     -57.963 -26.148   0.375  0.00  0.00     0.000 A 
HETATM   44  C   UNK     0     -58.812 -26.449  -0.712  0.00  0.00     0.001 A 
HETATM   45  C   UNK     0     -60.182 -26.725  -0.495  0.00  0.00     0.007 A 
ENDBRANCH  39  40
ENDBRANCH  24  39
ENDBRANCH  23  24
BRANCH  23  46
HETATM   46  O   UNK     0     -63.879 -24.098   2.783  0.00  0.00    -0.393 OA
HETATM   47  H   UNK     0     -63.789 -23.800   3.681  0.00  0.00     0.210 HD
ENDBRANCH  23  46
ENDBRANCH  22  23
ENDBRANCH  14  22
ENDBRANCH  11  14
ENDBRANCH   9  10
BRANCH   9  48
HETATM   48  C   UNK     0     -63.062 -30.708   6.066  0.00  0.00     0.010 C 
HETATM   49  C   UNK     0     -62.510 -29.318   6.436  0.00  0.00     0.012 C 
HETATM   50  C   UNK     0     -63.812 -31.279   7.292  0.00  0.00     0.012 C 
ENDBRANCH   9  48
ENDBRANCH   3   9
TORSDOF 16
ENDMDL
MODEL 2
REMARK VINA RESULT:      -8.8      2.420      6.474
REMARK  16 active torsions:
REMARK  status: ('A' for Active; 'I' for Inactive)
REMARK    1  A    between atoms: N_3  and  C_13 
REMARK    2  A    between atoms: C_6  and  C_37 
REMARK    3  A    between atoms: C_13  and  C_14 
REMARK    4  A    between atoms: C_13  and  C_17 
REMARK       I    between atoms: C_14  and  N_15 
REMARK    5  A    between atoms: N_15  and  C_16 
REMARK    6  A    between atoms: C_16  and  C_27 
REMARK    7  A    between atoms: C_16  and  C_28 
REMARK    8  A    between atoms: C_25  and  C_27 
REMARK    9  A    between atoms: C_28  and  C_29 
REMARK   10  A    between atoms: C_29  and  C_30 
REMARK   11  A    between atoms: C_29  and  O_36 
REMARK   12  A    between atoms: C_30  and  N_31 
REMARK   13  A    between atoms: C_30  and  C_37 
REMARK       I    between atoms: N_31  and  C_32 
REMARK   14  A    between atoms: C_32  and  C_33 
REMARK   15  A    between atoms: C_33  and  O_34 
REMARK   16  A    between atoms: O_34  and  C_35 
ROOT
HETATM    1  C   UNK     0     -64.988 -37.168   3.806  0.00  0.00     0.126 C 
HETATM    2  C   UNK     0     -66.447 -35.167   4.212  0.00  0.00     0.130 C 
HETATM    3  N   UNK     0     -65.551 -34.378   3.289  0.00  0.00    -0.320 N 
HETATM    4  C   UNK     0     -64.451 -34.964   2.677  0.00  0.00     0.319 C 
HETATM    5  N   UNK     0     -64.199 -36.280   2.928  0.00  0.00    -0.343 N 
HETATM    6  O   UNK     0     -63.716 -34.340   1.932  0.00  0.00    -0.247 OA
HETATM    7  C   UNK     0     -66.437 -36.688   3.948  0.00  0.00     0.040 C 
HETATM    8  H   UNK     0     -63.375 -36.620   2.432  0.00  0.00     0.164 HD
ENDROOT
BRANCH   3   9
HETATM    9  C   UNK     0     -65.841 -32.926   3.025  0.00  0.00     0.184 C 
BRANCH   9  10
HETATM   10  C   UNK     0     -65.813 -32.147   4.368  0.00  0.00     0.241 C 
HETATM   11  N   UNK     0     -64.540 -31.898   4.808  0.00  0.00    -0.354 N 
HETATM   12  H   UNK     0     -63.818 -32.264   4.188  0.00  0.00     0.162 HD
HETATM   13  O   UNK     0     -66.848 -31.809   4.944  0.00  0.00    -0.271 OA
BRANCH  11  14
HETATM   14  C   UNK     0     -64.205 -31.174   6.054  0.00  0.00     0.091 C 
BRANCH  14  15
HETATM   15  C   UNK     0     -63.623 -32.142   7.110  0.00  0.00     0.063 C 
BRANCH  15  16
HETATM   16  C   UNK     0     -63.078 -33.457   6.631  0.00  0.00    -0.056 A 
HETATM   17  C   UNK     0     -63.691 -34.676   7.031  0.00  0.00     0.007 A 
HETATM   18  C   UNK     0     -63.187 -35.919   6.586  0.00  0.00     0.001 A 
HETATM   19  C   UNK     0     -62.060 -35.957   5.732  0.00  0.00     0.000 A 
HETATM   20  C   UNK     0     -61.444 -34.748   5.329  0.00  0.00     0.001 A 
HETATM   21  C   UNK     0     -61.952 -33.505   5.777  0.00  0.00     0.007 A 
ENDBRANCH  15  16
ENDBRANCH  14  15
BRANCH  14  22
HETATM   22  C   UNK     0     -63.123 -30.098   5.810  0.00  0.00     0.059 C 
BRANCH  22  23
HETATM   23  C   UNK     0     -62.649 -29.800   4.376  0.00  0.00     0.143 C 
BRANCH  23  24
HETATM   24  C   UNK     0     -63.043 -28.426   3.775  0.00  0.00     0.117 C 
BRANCH  24  25
HETATM   25  N   UNK     0     -61.972 -28.004   2.842  0.00  0.00    -0.352 N 
HETATM   26  C   UNK     0     -61.331 -26.794   2.904  0.00  0.00     0.242 C 
HETATM   27  O   UNK     0     -61.560 -25.913   3.741  0.00  0.00    -0.271 OA
HETATM   28  H   UNK     0     -61.645 -28.605   2.085  0.00  0.00     0.163 HD
BRANCH  26  29
HETATM   29  C   UNK     0     -60.270 -26.575   1.808  0.00  0.00     0.278 C 
BRANCH  29  30
HETATM   30  O   UNK     0     -59.202 -25.722   2.259  0.00  0.00    -0.341 OA
BRANCH  30  31
HETATM   31  C   UNK     0     -58.981 -24.599   1.439  0.00  0.00     0.081 A 
HETATM   32  C   UNK     0     -58.446 -24.724   0.109  0.00  0.00    -0.028 A 
HETATM   33  C   UNK     0     -58.248 -23.553  -0.670  0.00  0.00     0.009 A 
HETATM   34  C   UNK     0     -58.084 -26.061  -0.493  0.00  0.00     0.051 C 
HETATM   35  C   UNK     0     -58.572 -22.279  -0.158  0.00  0.00     0.001 A 
HETATM   36  C   UNK     0     -59.100 -22.146   1.142  0.00  0.00     0.009 A 
HETATM   37  C   UNK     0     -59.309 -23.291   1.947  0.00  0.00    -0.028 A 
HETATM   38  C   UNK     0     -59.872 -23.114   3.317  0.00  0.00     0.051 C 
ENDBRANCH  30  31
ENDBRANCH  29  30
ENDBRANCH  26  29
ENDBRANCH  24  25
BRANCH  24  39
HETATM   39  C   UNK     0     -64.382 -28.532   2.988  0.00  0.00     0.066 C 
BRANCH  39  40
HETATM   40  C   UNK     0     -65.033 -27.201   2.664  0.00  0.00    -0.056 A 
HETATM   41  C   UNK     0     -64.862 -26.100   3.538  0.00  0.00     0.007 A 
HETATM   42  C   UNK     0     -65.465 -24.848   3.259  0.00  0.00     0.001 A 
HETATM   43  C   UNK     0     -66.246 -24.685   2.100  0.00  0.00     0.000 A 
HETATM   44  C   UNK     0     -66.424 -25.776   1.221  0.00  0.00     0.001 A 
HETATM   45  C   UNK     0     -65.823 -27.026   1.499  0.00  0.00     0.007 A 
ENDBRANCH  39  40
ENDBRANCH  24  39
ENDBRANCH  23  24
BRANCH  23  46
HETATM   46  O   UNK     0     -61.243 -29.847   4.419  0.00  0.00    -0.393 OA
HETATM   47  H   UNK     0     -60.988 -29.323   5.169  0.00  0.00     0.210 HD
ENDBRANCH  23  46
ENDBRANCH  22  23
ENDBRANCH  14  22
ENDBRANCH  11  14
ENDBRANCH   9  10
BRANCH   9  48
HETATM   48  C   UNK     0     -67.202 -32.728   2.247  0.00  0.00     0.010 C 
HETATM   49  C   UNK     0     -67.308 -31.367   1.531  0.00  0.00     0.012 C 
HETATM   50  C   UNK     0     -67.405 -33.848   1.200  0.00  0.00     0.012 C 
ENDBRANCH   9  48
ENDBRANCH   3   9
TORSDOF 16
ENDMDL
MODEL 3
REMARK VINA RESULT:      -8.7      3.314      8.442
REMARK  16 active torsions:
REMARK  status: ('A' for Active; 'I' for Inactive)
REMARK    1  A    between atoms: N_3  and  C_13 
REMARK    2  A    between atoms: C_6  and  C_37 
REMARK    3  A    between atoms: C_13  and  C_14 
REMARK    4  A    between atoms: C_13  and  C_17 
REMARK       I    between atoms: C_14  and  N_15 
REMARK    5  A    between atoms: N_15  and  C_16 
REMARK    6  A    between atoms: C_16  and  C_27 
REMARK    7  A    between atoms: C_16  and  C_28 
REMARK    8  A    between atoms: C_25  and  C_27 
REMARK    9  A    between atoms: C_28  and  C_29 
REMARK   10  A    between atoms: C_29  and  C_30 
REMARK   11  A    between atoms: C_29  and  O_36 
REMARK   12  A    between atoms: C_30  and  N_31 
REMARK   13  A    between atoms: C_30  and  C_37 
REMARK       I    between atoms: N_31  and  C_32 
REMARK   14  A    between atoms: C_32  and  C_33 
REMARK   15  A    between atoms: C_33  and  O_34 
REMARK   16  A    between atoms: O_34  and  C_35 
ROOT
HETATM    1  C   UNK     0     -63.394 -27.424   2.739  0.00  0.00     0.126 C 
HETATM    2  C   UNK     0     -61.088 -26.609   3.301  0.00  0.00     0.130 C 
HETATM    3  N   UNK     0     -60.881 -26.312   1.836  0.00  0.00    -0.320 N 
HETATM    4  C   UNK     0     -61.876 -26.564   0.901  0.00  0.00     0.319 C 
HETATM    5  N   UNK     0     -63.056 -27.086   1.342  0.00  0.00    -0.343 N 
HETATM    6  O   UNK     0     -61.723 -26.334  -0.286  0.00  0.00    -0.247 OA
HETATM    7  C   UNK     0     -62.568 -26.605   3.738  0.00  0.00     0.040 C 
HETATM    8  H   UNK     0     -63.723 -27.233   0.584  0.00  0.00     0.164 HD
ENDROOT
BRANCH   3   9
HETATM    9  C   UNK     0     -59.572 -25.739   1.366  0.00  0.00     0.184 C 
BRANCH   9  10
HETATM   10  C   UNK     0     -59.831 -24.374   0.672  0.00  0.00     0.241 C 
HETATM   11  N   UNK     0     -59.502 -24.385  -0.657  0.00  0.00    -0.354 N 
HETATM   12  H   UNK     0     -59.140 -25.283  -0.977  0.00  0.00     0.162 HD
HETATM   13  O   UNK     0     -60.284 -23.408   1.289  0.00  0.00    -0.271 OA
BRANCH  11  14
HETATM   14  C   UNK     0     -59.644 -23.231  -1.572  0.00  0.00     0.091 C 
BRANCH  14  15
HETATM   15  C   UNK     0     -58.284 -22.524  -1.776  0.00  0.00     0.063 C 
BRANCH  15  16
HETATM   16  C   UNK     0     -58.299 -21.093  -2.234  0.00  0.00    -0.056 A 
HETATM   17  C   UNK     0     -58.584 -20.778  -3.590  0.00  0.00     0.007 A 
HETATM   18  C   UNK     0     -58.601 -19.436  -4.033  0.00  0.00     0.001 A 
HETATM   19  C   UNK     0     -58.334 -18.390  -3.119  0.00  0.00     0.000 A 
HETATM   20  C   UNK     0     -58.050 -18.695  -1.766  0.00  0.00     0.001 A 
HETATM   21  C   UNK     0     -58.033 -20.041  -1.328  0.00  0.00     0.007 A 
ENDBRANCH  15  16
ENDBRANCH  14  15
BRANCH  14  22
HETATM   22  C   UNK     0     -60.117 -23.674  -2.974  0.00  0.00     0.059 C 
BRANCH  22  23
HETATM   23  C   UNK     0     -61.610 -23.950  -3.227  0.00  0.00     0.143 C 
BRANCH  23  24
HETATM   24  C   UNK     0     -62.630 -23.029  -2.510  0.00  0.00     0.117 C 
BRANCH  24  25
HETATM   25  N   UNK     0     -63.478 -23.869  -1.632  0.00  0.00    -0.352 N 
HETATM   26  C   UNK     0     -64.585 -24.554  -2.061  0.00  0.00     0.242 C 
HETATM   27  O   UNK     0     -65.008 -24.561  -3.222  0.00  0.00    -0.271 OA
HETATM   28  H   UNK     0     -63.279 -23.988  -0.639  0.00  0.00     0.163 HD
BRANCH  26  29
HETATM   29  C   UNK     0     -65.319 -25.339  -0.956  0.00  0.00     0.278 C 
BRANCH  29  30
HETATM   30  O   UNK     0     -66.462 -24.621  -0.457  0.00  0.00    -0.341 OA
BRANCH  30  31
HETATM   31  C   UNK     0     -67.223 -25.340   0.485  0.00  0.00     0.081 A 
HETATM   32  C   UNK     0     -66.876 -25.362   1.881  0.00  0.00    -0.028 A 
HETATM   33  C   UNK     0     -67.684 -26.105   2.782  0.00  0.00     0.009 A 
HETATM   34  C   UNK     0     -65.678 -24.623   2.428  0.00  0.00     0.051 C 
HETATM   35  C   UNK     0     -68.817 -26.812   2.326  0.00  0.00     0.001 A 
HETATM   36  C   UNK     0     -69.167 -26.793   0.961  0.00  0.00     0.009 A 
HETATM   37  C   UNK     0     -68.384 -26.065   0.034  0.00  0.00    -0.028 A 
HETATM   38  C   UNK     0     -68.784 -26.064  -1.402  0.00  0.00     0.051 C 
ENDBRANCH  30  31
ENDBRANCH  29  30
ENDBRANCH  26  29
ENDBRANCH  24  25
BRANCH  24  39
HETATM   39  C   UNK     0     -61.897 -21.969  -1.635  0.00  0.00     0.066 C 
BRANCH  39  40
HETATM   40  C   UNK     0     -62.034 -20.540  -2.123  0.00  0.00    -0.056 A 
HETATM   41  C   UNK     0     -62.591 -20.280  -3.399  0.00  0.00     0.007 A 
HETATM   42  C   UNK     0     -62.724 -18.953  -3.878  0.00  0.00     0.001 A 
HETATM   43  C   UNK     0     -62.302 -17.871  -3.083  0.00  0.00     0.000 A 
HETATM   44  C   UNK     0     -61.746 -18.118  -1.809  0.00  0.00     0.001 A 
HETATM   45  C   UNK     0     -61.613 -19.442  -1.330  0.00  0.00     0.007 A 
ENDBRANCH  39  40
ENDBRANCH  24  39
ENDBRANCH  23  24
BRANCH  23  46
HETATM   46  O   UNK     0     -61.802 -23.785  -4.611  0.00  0.00    -0.393 OA
HETATM   47  H   UNK     0     -62.557 -24.318  -4.835  0.00  0.00     0.210 HD
ENDBRANCH  23  46
ENDBRANCH  22  23
ENDBRANCH  14  22
ENDBRANCH  11  14
ENDBRANCH   9  10
BRANCH   9  48
HETATM   48  C   UNK     0     -58.788 -26.745   0.433  0.00  0.00     0.010 C 
HETATM   49  C   UNK     0     -57.585 -26.105  -0.286  0.00  0.00     0.012 C 
HETATM   50  C   UNK     0     -58.284 -27.964   1.240  0.00  0.00     0.012 C 
ENDBRANCH   9  48
ENDBRANCH   3   9
TORSDOF 16
ENDMDL
MODEL 4
REMARK VINA RESULT:      -8.5      2.573      6.648
REMARK  16 active torsions:
REMARK  status: ('A' for Active; 'I' for Inactive)
REMARK    1  A    between atoms: N_3  and  C_13 
REMARK    2  A    between atoms: C_6  and  C_37 
REMARK    3  A    between atoms: C_13  and  C_14 
REMARK    4  A    between atoms: C_13  and  C_17 
REMARK       I    between atoms: C_14  and  N_15 
REMARK    5  A    between atoms: N_15  and  C_16 
REMARK    6  A    between atoms: C_16  and  C_27 
REMARK    7  A    between atoms: C_16  and  C_28 
REMARK    8  A    between atoms: C_25  and  C_27 
REMARK    9  A    between atoms: C_28  and  C_29 
REMARK   10  A    between atoms: C_29  and  C_30 
REMARK   11  A    between atoms: C_29  and  O_36 
REMARK   12  A    between atoms: C_30  and  N_31 
REMARK   13  A    between atoms: C_30  and  C_37 
REMARK       I    between atoms: N_31  and  C_32 
REMARK   14  A    between atoms: C_32  and  C_33 
REMARK   15  A    between atoms: C_33  and  O_34 
REMARK   16  A    between atoms: O_34  and  C_35 
ROOT
HETATM    1  C   UNK     0     -64.719 -36.678   2.887  0.00  0.00     0.126 C 
HETATM    2  C   UNK     0     -66.181 -34.751   3.557  0.00  0.00     0.130 C 
HETATM    3  N   UNK     0     -65.636 -33.982   2.378  0.00  0.00    -0.320 N 
HETATM    4  C   UNK     0     -64.694 -34.541   1.525  0.00  0.00     0.319 C 
HETATM    5  N   UNK     0     -64.273 -35.814   1.776  0.00  0.00    -0.343 N 
HETATM    6  O   UNK     0     -64.242 -33.932   0.572  0.00  0.00    -0.247 OA
HETATM    7  C   UNK     0     -66.113 -36.284   3.391  0.00  0.00     0.040 C 
HETATM    8  H   UNK     0     -63.586 -36.137   1.095  0.00  0.00     0.164 HD
ENDROOT
BRANCH   3   9
HETATM    9  C   UNK     0     -66.109 -32.578   2.118  0.00  0.00     0.184 C 
BRANCH   9  10
HETATM   10  C   UNK     0     -65.784 -31.692   3.352  0.00  0.00     0.241 C 
HETATM   11  N   UNK     0     -64.600 -31.017   3.221  0.00  0.00    -0.354 N 
HETATM   12  H   UNK     0     -64.122 -31.204   2.340  0.00  0.00     0.162 HD
HETATM   13  O   UNK     0     -66.538 -31.633   4.324  0.00  0.00    -0.271 OA
BRANCH  11  14
HETATM   14  C   UNK     0     -64.036 -30.098   4.235  0.00  0.00     0.091 C 
BRANCH  14  15
HETATM   15  C   UNK     0     -62.615 -30.545   4.648  0.00  0.00     0.063 C 
BRANCH  15  16
HETATM   16  C   UNK     0     -62.451 -31.926   5.216  0.00  0.00    -0.056 A 
HETATM   17  C   UNK     0     -61.455 -32.800   4.701  0.00  0.00     0.007 A 
HETATM   18  C   UNK     0     -61.292 -34.101   5.228  0.00  0.00     0.001 A 
HETATM   19  C   UNK     0     -62.126 -34.544   6.281  0.00  0.00     0.000 A 
HETATM   20  C   UNK     0     -63.119 -33.680   6.800  0.00  0.00     0.001 A 
HETATM   21  C   UNK     0     -63.280 -32.378   6.269  0.00  0.00     0.007 A 
ENDBRANCH  15  16
ENDBRANCH  14  15
BRANCH  14  22
HETATM   22  C   UNK     0     -63.895 -28.663   3.682  0.00  0.00     0.059 C 
BRANCH  22  23
HETATM   23  C   UNK     0     -62.535 -27.946   3.749  0.00  0.00     0.143 C 
BRANCH  23  24
HETATM   24  C   UNK     0     -62.063 -27.208   2.470  0.00  0.00     0.117 C 
BRANCH  24  25
HETATM   25  N   UNK     0     -63.249 -26.610   1.815  0.00  0.00    -0.352 N 
HETATM   26  C   UNK     0     -63.734 -25.360   2.098  0.00  0.00     0.242 C 
HETATM   27  O   UNK     0     -63.245 -24.580   2.922  0.00  0.00    -0.271 OA
HETATM   28  H   UNK     0     -63.783 -27.107   1.101  0.00  0.00     0.163 HD
BRANCH  26  29
HETATM   29  C   UNK     0     -64.997 -24.969   1.304  0.00  0.00     0.278 C 
BRANCH  29  30
HETATM   30  O   UNK     0     -65.178 -25.799   0.142  0.00  0.00    -0.341 OA
BRANCH  30  31
HETATM   31  C   UNK     0     -66.526 -26.053  -0.176  0.00  0.00     0.081 A 
HETATM   32  C   UNK     0     -67.288 -27.064   0.507  0.00  0.00    -0.028 A 
HETATM   33  C   UNK     0     -68.645 -27.272   0.143  0.00  0.00     0.009 A 
HETATM   34  C   UNK     0     -66.697 -27.919   1.604  0.00  0.00     0.051 C 
HETATM   35  C   UNK     0     -69.249 -26.500  -0.872  0.00  0.00     0.001 A 
HETATM   36  C   UNK     0     -68.512 -25.505  -1.545  0.00  0.00     0.009 A 
HETATM   37  C   UNK     0     -67.157 -25.271  -1.209  0.00  0.00    -0.028 A 
HETATM   38  C   UNK     0     -66.407 -24.209  -1.939  0.00  0.00     0.051 C 
ENDBRANCH  30  31
ENDBRANCH  29  30
ENDBRANCH  26  29
ENDBRANCH  24  25
BRANCH  24  39
HETATM   39  C   UNK     0     -61.059 -26.072   2.827  0.00  0.00     0.066 C 
BRANCH  39  40
HETATM   40  C   UNK     0     -59.962 -25.851   1.803  0.00  0.00    -0.056 A 
HETATM   41  C   UNK     0     -59.563 -24.534   1.469  0.00  0.00     0.007 A 
HETATM   42  C   UNK     0     -58.543 -24.303   0.512  0.00  0.00     0.001 A 
HETATM   43  C   UNK     0     -57.911 -25.391  -0.120  0.00  0.00     0.000 A 
HETATM   44  C   UNK     0     -58.301 -26.708   0.206  0.00  0.00     0.001 A 
HETATM   45  C   UNK     0     -59.319 -26.939   1.160  0.00  0.00     0.007 A 
ENDBRANCH  39  40
ENDBRANCH  24  39
ENDBRANCH  23  24
BRANCH  23  46
HETATM   46  O   UNK     0     -62.659 -26.979   4.764  0.00  0.00    -0.393 OA
HETATM   47  H   UNK     0     -62.548 -26.137   4.337  0.00  0.00     0.210 HD
ENDBRANCH  23  46
ENDBRANCH  22  23
ENDBRANCH  14  22
ENDBRANCH  11  14
ENDBRANCH   9  10
BRANCH   9  48
HETATM   48  C   UNK     0     -67.641 -32.533   1.735  0.00  0.00     0.010 C 
HETATM   49  C   UNK     0     -68.081 -31.190   1.120  0.00  0.00     0.012 C 
HETATM   50  C   UNK     0     -67.993 -33.664   0.742  0.00  0.00     0.012 C 
ENDBRANCH   9  48
ENDBRANCH   3   9
TORSDOF 16
ENDMDL
MODEL 5
REMARK VINA RESULT:      -8.4     13.977     16.755
REMARK  16 active torsions:
REMARK  status: ('A' for Active; 'I' for Inactive)
REMARK    1  A    between atoms: N_3  and  C_13 
REMARK    2  A    between atoms: C_6  and  C_37 
REMARK    3  A    between atoms: C_13  and  C_14 
REMARK    4  A    between atoms: C_13  and  C_17 
REMARK       I    between atoms: C_14  and  N_15 
REMARK    5  A    between atoms: N_15  and  C_16 
REMARK    6  A    between atoms: C_16  and  C_27 
REMARK    7  A    between atoms: C_16  and  C_28 
REMARK    8  A    between atoms: C_25  and  C_27 
REMARK    9  A    between atoms: C_28  and  C_29 
REMARK   10  A    between atoms: C_29  and  C_30 
REMARK   11  A    between atoms: C_29  and  O_36 
REMARK   12  A    between atoms: C_30  and  N_31 
REMARK   13  A    between atoms: C_30  and  C_37 
REMARK       I    between atoms: N_31  and  C_32 
REMARK   14  A    between atoms: C_32  and  C_33 
REMARK   15  A    between atoms: C_33  and  O_34 
REMARK   16  A    between atoms: O_34  and  C_35 
ROOT
HETATM    1  C   UNK     0     -52.926 -21.057 -15.074  0.00  0.00     0.126 C 
HETATM    2  C   UNK     0     -54.685 -22.148 -13.655  0.00  0.00     0.130 C 
HETATM    3  N   UNK     0     -53.953 -23.457 -13.829  0.00  0.00    -0.320 N 
HETATM    4  C   UNK     0     -52.789 -23.538 -14.581  0.00  0.00     0.319 C 
HETATM    5  N   UNK     0     -52.316 -22.398 -15.160  0.00  0.00    -0.343 N 
HETATM    6  O   UNK     0     -52.189 -24.588 -14.734  0.00  0.00    -0.247 OA
HETATM    7  C   UNK     0     -53.788 -20.903 -13.815  0.00  0.00     0.040 C 
HETATM    8  H   UNK     0     -51.457 -22.558 -15.687  0.00  0.00     0.164 HD
ENDROOT
BRANCH   3   9
HETATM    9  C   UNK     0     -54.491 -24.707 -13.187  0.00  0.00     0.184 C 
BRANCH   9  10
HETATM   10  C   UNK     0     -55.867 -25.054 -13.817  0.00  0.00     0.241 C 
HETATM   11  N   UNK     0     -56.914 -24.819 -12.966  0.00  0.00    -0.354 N 
HETATM   12  H   UNK     0     -56.623 -24.457 -12.057  0.00  0.00     0.162 HD
HETATM   13  O   UNK     0     -55.963 -25.493 -14.965  0.00  0.00    -0.271 OA
BRANCH  11  14
HETATM   14  C   UNK     0     -58.337 -25.054 -13.293  0.00  0.00     0.091 C 
BRANCH  14  15
HETATM   15  C   UNK     0     -58.856 -26.333 -12.597  0.00  0.00     0.063 C 
BRANCH  15  16
HETATM   16  C   UNK     0     -58.145 -27.625 -12.884  0.00  0.00    -0.056 A 
HETATM   17  C   UNK     0     -57.507 -28.341 -11.834  0.00  0.00     0.007 A 
HETATM   18  C   UNK     0     -56.836 -29.558 -12.093  0.00  0.00     0.001 A 
HETATM   19  C   UNK     0     -56.797 -30.074 -13.409  0.00  0.00     0.000 A 
HETATM   20  C   UNK     0     -57.430 -29.368 -14.459  0.00  0.00     0.001 A 
HETATM   21  C   UNK     0     -58.101 -28.150 -14.196  0.00  0.00     0.007 A 
ENDBRANCH  15  16
ENDBRANCH  14  15
BRANCH  14  22
HETATM   22  C   UNK     0     -59.231 -23.897 -12.795  0.00  0.00     0.059 C 
BRANCH  22  23
HETATM   23  C   UNK     0     -58.877 -22.443 -13.159  0.00  0.00     0.143 C 
BRANCH  23  24
HETATM   24  C   UNK     0     -58.170 -21.596 -12.071  0.00  0.00     0.117 C 
BRANCH  24  25
HETATM   25  N   UNK     0     -58.769 -20.240 -12.077  0.00  0.00    -0.352 N 
HETATM   26  C   UNK     0     -58.089 -19.102 -12.428  0.00  0.00     0.242 C 
HETATM   27  O   UNK     0     -56.906 -19.064 -12.784  0.00  0.00    -0.271 OA
HETATM   28  H   UNK     0     -59.741 -20.076 -11.816  0.00  0.00     0.163 HD
BRANCH  26  29
HETATM   29  C   UNK     0     -58.919 -17.807 -12.331  0.00  0.00     0.278 C 
BRANCH  29  30
HETATM   30  O   UNK     0     -59.627 -17.716 -11.081  0.00  0.00    -0.341 OA
BRANCH  30  31
HETATM   31  C   UNK     0     -59.269 -16.600 -10.300  0.00  0.00     0.081 A 
HETATM   32  C   UNK     0     -58.173 -16.647  -9.369  0.00  0.00    -0.028 A 
HETATM   33  C   UNK     0     -57.860 -15.487  -8.611  0.00  0.00     0.009 A 
HETATM   34  C   UNK     0     -57.338 -17.889  -9.166  0.00  0.00     0.051 C 
HETATM   35  C   UNK     0     -58.605 -14.299  -8.764  0.00  0.00     0.001 A 
HETATM   36  C   UNK     0     -59.678 -14.242  -9.675  0.00  0.00     0.009 A 
HETATM   37  C   UNK     0     -60.019 -15.378 -10.447  0.00  0.00    -0.028 A 
HETATM   38  C   UNK     0     -61.159 -15.283 -11.404  0.00  0.00     0.051 C 
ENDBRANCH  30  31
ENDBRANCH  29  30
ENDBRANCH  26  29
ENDBRANCH  24  25
BRANCH  24  39
HETATM   39  C   UNK     0     -58.372 -22.227 -10.662  0.00  0.00     0.066 C 
BRANCH  39  40
HETATM   40  C   UNK     0     -57.116 -22.301  -9.815  0.00  0.00    -0.056 A 
HETATM   41  C   UNK     0     -56.091 -21.340  -9.987  0.00  0.00     0.007 A 
HETATM   42  C   UNK     0     -54.906 -21.391  -9.211  0.00  0.00     0.001 A 
HETATM   43  C   UNK     0     -54.736 -22.408  -8.252  0.00  0.00     0.000 A 
HETATM   44  C   UNK     0     -55.752 -23.372  -8.072  0.00  0.00     0.001 A 
HETATM   45  C   UNK     0     -56.934 -23.321  -8.846  0.00  0.00     0.007 A 
ENDBRANCH  39  40
ENDBRANCH  24  39
ENDBRANCH  23  24
BRANCH  23  46
HETATM   46  O   UNK     0     -58.001 -22.525 -14.258  0.00  0.00    -0.393 OA
HETATM   47  H   UNK     0     -57.884 -23.452 -14.429  0.00  0.00     0.210 HD
ENDBRANCH  23  46
ENDBRANCH  22  23
ENDBRANCH  14  22
ENDBRANCH  11  14
ENDBRANCH   9  10
BRANCH   9  48
HETATM   48  C   UNK     0     -54.570 -24.574 -11.614  0.00  0.00     0.010 C 
HETATM   49  C   UNK     0     -54.938 -25.891 -10.905  0.00  0.00     0.012 C 
HETATM   50  C   UNK     0     -53.228 -24.066 -11.037  0.00  0.00     0.012 C 
ENDBRANCH   9  48
ENDBRANCH   3   9
TORSDOF 16
ENDMDL
MODEL 6
REMARK VINA RESULT:      -8.3      2.202      6.302
REMARK  16 active torsions:
REMARK  status: ('A' for Active; 'I' for Inactive)
REMARK    1  A    between atoms: N_3  and  C_13 
REMARK    2  A    between atoms: C_6  and  C_37 
REMARK    3  A    between atoms: C_13  and  C_14 
REMARK    4  A    between atoms: C_13  and  C_17 
REMARK       I    between atoms: C_14  and  N_15 
REMARK    5  A    between atoms: N_15  and  C_16 
REMARK    6  A    between atoms: C_16  and  C_27 
REMARK    7  A    between atoms: C_16  and  C_28 
REMARK    8  A    between atoms: C_25  and  C_27 
REMARK    9  A    between atoms: C_28  and  C_29 
REMARK   10  A    between atoms: C_29  and  C_30 
REMARK   11  A    between atoms: C_29  and  O_36 
REMARK   12  A    between atoms: C_30  and  N_31 
REMARK   13  A    between atoms: C_30  and  C_37 
REMARK       I    between atoms: N_31  and  C_32 
REMARK   14  A    between atoms: C_32  and  C_33 
REMARK   15  A    between atoms: C_33  and  O_34 
REMARK   16  A    between atoms: O_34  and  C_35 
ROOT
HETATM    1  C   UNK     0     -63.890 -36.525   3.435  0.00  0.00     0.126 C 
HETATM    2  C   UNK     0     -65.447 -34.629   3.964  0.00  0.00     0.130 C 
HETATM    3  N   UNK     0     -65.059 -33.998   2.649  0.00  0.00    -0.320 N 
HETATM    4  C   UNK     0     -64.145 -34.606   1.800  0.00  0.00     0.319 C 
HETATM    5  N   UNK     0     -63.603 -35.798   2.182  0.00  0.00    -0.343 N 
HETATM    6  O   UNK     0     -63.818 -34.108   0.736  0.00  0.00    -0.247 OA
HETATM    7  C   UNK     0     -65.268 -36.161   4.002  0.00  0.00     0.040 C 
HETATM    8  H   UNK     0     -62.947 -36.166   1.493  0.00  0.00     0.164 HD
ENDROOT
BRANCH   3   9
HETATM    9  C   UNK     0     -65.663 -32.681   2.243  0.00  0.00     0.184 C 
BRANCH   9  10
HETATM   10  C   UNK     0     -65.565 -31.687   3.432  0.00  0.00     0.241 C 
HETATM   11  N   UNK     0     -64.306 -31.172   3.589  0.00  0.00    -0.354 N 
HETATM   12  H   UNK     0     -63.637 -31.525   2.905  0.00  0.00     0.162 HD
HETATM   13  O   UNK     0     -66.541 -31.418   4.135  0.00  0.00    -0.271 OA
BRANCH  11  14
HETATM   14  C   UNK     0     -63.916 -30.201   4.634  0.00  0.00     0.091 C 
BRANCH  14  15
HETATM   15  C   UNK     0     -62.663 -30.691   5.397  0.00  0.00     0.063 C 
BRANCH  15  16
HETATM   16  C   UNK     0     -62.584 -32.149   5.752  0.00  0.00    -0.056 A 
HETATM   17  C   UNK     0     -61.677 -33.005   5.069  0.00  0.00     0.007 A 
HETATM   18  C   UNK     0     -61.594 -34.378   5.395  0.00  0.00     0.001 A 
HETATM   19  C   UNK     0     -62.420 -34.911   6.412  0.00  0.00     0.000 A 
HETATM   20  C   UNK     0     -63.325 -34.065   7.097  0.00  0.00     0.001 A 
HETATM   21  C   UNK     0     -63.406 -32.691   6.767  0.00  0.00     0.007 A 
ENDBRANCH  15  16
ENDBRANCH  14  15
BRANCH  14  22
HETATM   22  C   UNK     0     -63.542 -28.832   4.023  0.00  0.00     0.059 C 
BRANCH  22  23
HETATM   23  C   UNK     0     -64.634 -27.954   3.385  0.00  0.00     0.143 C 
BRANCH  23  24
HETATM   24  C   UNK     0     -64.395 -26.422   3.382  0.00  0.00     0.117 C 
BRANCH  24  25
HETATM   25  N   UNK     0     -63.975 -26.021   2.019  0.00  0.00    -0.352 N 
HETATM   26  C   UNK     0     -62.987 -25.108   1.758  0.00  0.00     0.242 C 
HETATM   27  O   UNK     0     -62.325 -24.514   2.616  0.00  0.00    -0.271 OA
HETATM   28  H   UNK     0     -64.407 -26.412   1.182  0.00  0.00     0.163 HD
BRANCH  26  29
HETATM   29  C   UNK     0     -62.747 -24.836   0.260  0.00  0.00     0.278 C 
BRANCH  29  30
HETATM   30  O   UNK     0     -61.867 -25.811  -0.328  0.00  0.00    -0.341 OA
BRANCH  30  31
HETATM   31  C   UNK     0     -60.534 -25.375  -0.457  0.00  0.00     0.081 A 
HETATM   32  C   UNK     0     -60.144 -24.415  -1.455  0.00  0.00    -0.028 A 
HETATM   33  C   UNK     0     -58.784 -24.013  -1.533  0.00  0.00     0.009 A 
HETATM   34  C   UNK     0     -61.131 -23.814  -2.428  0.00  0.00     0.051 C 
HETATM   35  C   UNK     0     -57.820 -24.539  -0.647  0.00  0.00     0.001 A 
HETATM   36  C   UNK     0     -58.193 -25.478   0.335  0.00  0.00     0.009 A 
HETATM   37  C   UNK     0     -59.539 -25.903   0.443  0.00  0.00    -0.028 A 
HETATM   38  C   UNK     0     -59.900 -26.895   1.495  0.00  0.00     0.051 C 
ENDBRANCH  30  31
ENDBRANCH  29  30
ENDBRANCH  26  29
ENDBRANCH  24  25
BRANCH  24  39
HETATM   39  C   UNK     0     -65.702 -25.659   3.750  0.00  0.00     0.066 C 
BRANCH  39  40
HETATM   40  C   UNK     0     -66.720 -25.569   2.630  0.00  0.00    -0.056 A 
HETATM   41  C   UNK     0     -66.737 -24.436   1.780  0.00  0.00     0.007 A 
HETATM   42  C   UNK     0     -67.682 -24.328   0.730  0.00  0.00     0.001 A 
HETATM   43  C   UNK     0     -68.621 -25.355   0.518  0.00  0.00     0.000 A 
HETATM   44  C   UNK     0     -68.614 -26.489   1.358  0.00  0.00     0.001 A 
HETATM   45  C   UNK     0     -67.671 -26.598   2.407  0.00  0.00     0.007 A 
ENDBRANCH  39  40
ENDBRANCH  24  39
ENDBRANCH  23  24
BRANCH  23  46
HETATM   46  O   UNK     0     -64.720 -28.364   2.041  0.00  0.00    -0.393 OA
HETATM   47  H   UNK     0     -63.999 -27.937   1.593  0.00  0.00     0.210 HD
ENDBRANCH  23  46
ENDBRANCH  22  23
ENDBRANCH  14  22
ENDBRANCH  11  14
ENDBRANCH   9  10
BRANCH   9  48
HETATM   48  C   UNK     0     -67.145 -32.848   1.722  0.00  0.00     0.010 C 
HETATM   49  C   UNK     0     -67.568 -31.761   0.716  0.00  0.00     0.012 C 
HETATM   50  C   UNK     0     -67.344 -34.231   1.060  0.00  0.00     0.012 C 
ENDBRANCH   9  48
ENDBRANCH   3   9
TORSDOF 16
ENDMDL
MODEL 7
REMARK VINA RESULT:      -8.3      3.044      5.616
REMARK  16 active torsions:
REMARK  status: ('A' for Active; 'I' for Inactive)
REMARK    1  A    between atoms: N_3  and  C_13 
REMARK    2  A    between atoms: C_6  and  C_37 
REMARK    3  A    between atoms: C_13  and  C_14 
REMARK    4  A    between atoms: C_13  and  C_17 
REMARK       I    between atoms: C_14  and  N_15 
REMARK    5  A    between atoms: N_15  and  C_16 
REMARK    6  A    between atoms: C_16  and  C_27 
REMARK    7  A    between atoms: C_16  and  C_28 
REMARK    8  A    between atoms: C_25  and  C_27 
REMARK    9  A    between atoms: C_28  and  C_29 
REMARK   10  A    between atoms: C_29  and  C_30 
REMARK   11  A    between atoms: C_29  and  O_36 
REMARK   12  A    between atoms: C_30  and  N_31 
REMARK   13  A    between atoms: C_30  and  C_37 
REMARK       I    between atoms: N_31  and  C_32 
REMARK   14  A    between atoms: C_32  and  C_33 
REMARK   15  A    between atoms: C_33  and  O_34 
REMARK   16  A    between atoms: O_34  and  C_35 
ROOT
HETATM    1  C   UNK     0     -71.724 -30.825   1.911  0.00  0.00     0.126 C 
HETATM    2  C   UNK     0     -71.875 -28.333   1.662  0.00  0.00     0.130 C 
HETATM    3  N   UNK     0     -70.654 -28.388   0.777  0.00  0.00    -0.320 N 
HETATM    4  C   UNK     0     -70.024 -29.592   0.493  0.00  0.00     0.319 C 
HETATM    5  N   UNK     0     -70.540 -30.733   1.033  0.00  0.00    -0.343 N 
HETATM    6  O   UNK     0     -69.034 -29.654  -0.216  0.00  0.00    -0.247 OA
HETATM    7  C   UNK     0     -72.683 -29.647   1.700  0.00  0.00     0.040 C 
HETATM    8  H   UNK     0     -70.013 -31.564   0.764  0.00  0.00     0.164 HD
ENDROOT
BRANCH   3   9
HETATM    9  C   UNK     0     -70.094 -27.120   0.192  0.00  0.00     0.184 C 
BRANCH   9  10
HETATM   10  C   UNK     0     -69.136 -26.462   1.222  0.00  0.00     0.241 C 
HETATM   11  N   UNK     0     -67.830 -26.471   0.810  0.00  0.00    -0.354 N 
HETATM   12  H   UNK     0     -67.696 -26.909  -0.101  0.00  0.00     0.162 HD
HETATM   13  O   UNK     0     -69.548 -25.994   2.285  0.00  0.00    -0.271 OA
BRANCH  11  14
HETATM   14  C   UNK     0     -66.698 -25.913   1.582  0.00  0.00     0.091 C 
BRANCH  14  15
HETATM   15  C   UNK     0     -66.571 -26.615   2.954  0.00  0.00     0.063 C 
BRANCH  15  16
HETATM   16  C   UNK     0     -65.269 -27.289   3.280  0.00  0.00    -0.056 A 
HETATM   17  C   UNK     0     -64.245 -26.577   3.964  0.00  0.00     0.007 A 
HETATM   18  C   UNK     0     -63.016 -27.201   4.275  0.00  0.00     0.001 A 
HETATM   19  C   UNK     0     -62.796 -28.548   3.906  0.00  0.00     0.000 A 
HETATM   20  C   UNK     0     -63.810 -29.264   3.226  0.00  0.00     0.001 A 
HETATM   21  C   UNK     0     -65.040 -28.635   2.915  0.00  0.00     0.007 A 
ENDBRANCH  15  16
ENDBRANCH  14  15
BRANCH  14  22
HETATM   22  C   UNK     0     -65.353 -26.135   0.856  0.00  0.00     0.059 C 
BRANCH  22  23
HETATM   23  C   UNK     0     -64.580 -24.931   0.289  0.00  0.00     0.143 C 
BRANCH  23  24
HETATM   24  C   UNK     0     -63.088 -25.154  -0.066  0.00  0.00     0.117 C 
BRANCH  24  25
HETATM   25  N   UNK     0     -62.513 -23.857  -0.492  0.00  0.00    -0.352 N 
HETATM   26  C   UNK     0     -62.342 -23.485  -1.800  0.00  0.00     0.242 C 
HETATM   27  O   UNK     0     -62.647 -24.175  -2.779  0.00  0.00    -0.271 OA
HETATM   28  H   UNK     0     -62.206 -23.153   0.180  0.00  0.00     0.163 HD
BRANCH  26  29
HETATM   29  C   UNK     0     -61.699 -22.097  -1.991  0.00  0.00     0.278 C 
BRANCH  29  30
HETATM   30  O   UNK     0     -61.562 -21.393  -0.743  0.00  0.00    -0.341 OA
BRANCH  30  31
HETATM   31  C   UNK     0     -60.291 -20.820  -0.546  0.00  0.00     0.081 A 
HETATM   32  C   UNK     0     -59.339 -21.387   0.373  0.00  0.00    -0.028 A 
HETATM   33  C   UNK     0     -58.072 -20.764   0.527  0.00  0.00     0.009 A 
HETATM   34  C   UNK     0     -59.638 -22.625   1.185  0.00  0.00     0.051 C 
HETATM   35  C   UNK     0     -57.739 -19.607  -0.209  0.00  0.00     0.001 A 
HETATM   36  C   UNK     0     -58.663 -19.046  -1.113  0.00  0.00     0.009 A 
HETATM   37  C   UNK     0     -59.936 -19.640  -1.292  0.00  0.00    -0.028 A 
HETATM   38  C   UNK     0     -60.888 -19.023  -2.259  0.00  0.00     0.051 C 
ENDBRANCH  30  31
ENDBRANCH  29  30
ENDBRANCH  26  29
ENDBRANCH  24  25
BRANCH  24  39
HETATM   39  C   UNK     0     -62.298 -25.672   1.173  0.00  0.00     0.066 C 
BRANCH  39  40
HETATM   40  C   UNK     0     -60.915 -26.211   0.862  0.00  0.00    -0.056 A 
HETATM   41  C   UNK     0     -59.942 -26.294   1.888  0.00  0.00     0.007 A 
HETATM   42  C   UNK     0     -58.642 -26.789   1.620  0.00  0.00     0.001 A 
HETATM   43  C   UNK     0     -58.302 -27.209   0.320  0.00  0.00     0.000 A 
HETATM   44  C   UNK     0     -59.264 -27.132  -0.711  0.00  0.00     0.001 A 
HETATM   45  C   UNK     0     -60.561 -26.637  -0.444  0.00  0.00     0.007 A 
ENDBRANCH  39  40
ENDBRANCH  24  39
ENDBRANCH  23  24
BRANCH  23  46
HETATM   46  O   UNK     0     -65.241 -24.576  -0.902  0.00  0.00    -0.393 OA
HETATM   47  H   UNK     0     -66.157 -24.791  -0.764  0.00  0.00     0.210 HD
ENDBRANCH  23  46
ENDBRANCH  22  23
ENDBRANCH  14  22
ENDBRANCH  11  14
ENDBRANCH   9  10
BRANCH   9  48
HETATM   48  C   UNK     0     -71.235 -26.134  -0.279  0.00  0.00     0.010 C 
HETATM   49  C   UNK     0     -70.728 -24.714  -0.593  0.00  0.00     0.012 C 
HETATM   50  C   UNK     0     -71.955 -26.685  -1.532  0.00  0.00     0.012 C 
ENDBRANCH   9  48
ENDBRANCH   3   9
TORSDOF 16
ENDMDL
MODEL 8
REMARK VINA RESULT:      -8.2      2.677      6.664
REMARK  16 active torsions:
REMARK  status: ('A' for Active; 'I' for Inactive)
REMARK    1  A    between atoms: N_3  and  C_13 
REMARK    2  A    between atoms: C_6  and  C_37 
REMARK    3  A    between atoms: C_13  and  C_14 
REMARK    4  A    between atoms: C_13  and  C_17 
REMARK       I    between atoms: C_14  and  N_15 
REMARK    5  A    between atoms: N_15  and  C_16 
REMARK    6  A    between atoms: C_16  and  C_27 
REMARK    7  A    between atoms: C_16  and  C_28 
REMARK    8  A    between atoms: C_25  and  C_27 
REMARK    9  A    between atoms: C_28  and  C_29 
REMARK   10  A    between atoms: C_29  and  C_30 
REMARK   11  A    between atoms: C_29  and  O_36 
REMARK   12  A    between atoms: C_30  and  N_31 
REMARK   13  A    between atoms: C_30  and  C_37 
REMARK       I    between atoms: N_31  and  C_32 
REMARK   14  A    between atoms: C_32  and  C_33 
REMARK   15  A    between atoms: C_33  and  O_34 
REMARK   16  A    between atoms: O_34  and  C_35 
ROOT
HETATM    1  C   UNK     0     -69.140 -35.682   0.950  0.00  0.00     0.126 C 
HETATM    2  C   UNK     0     -69.091 -33.214   1.398  0.00  0.00     0.130 C 
HETATM    3  N   UNK     0     -67.589 -33.260   1.259  0.00  0.00    -0.320 N 
HETATM    4  C   UNK     0     -66.927 -34.450   0.986  0.00  0.00     0.319 C 
HETATM    5  N   UNK     0     -67.671 -35.583   0.841  0.00  0.00    -0.343 N 
HETATM    6  O   UNK     0     -65.714 -34.505   0.875  0.00  0.00    -0.247 OA
HETATM    7  C   UNK     0     -69.826 -34.344   0.648  0.00  0.00     0.040 C 
HETATM    8  H   UNK     0     -67.098 -36.402   0.639  0.00  0.00     0.164 HD
ENDROOT
BRANCH   3   9
HETATM    9  C   UNK     0     -66.782 -32.002   1.426  0.00  0.00     0.184 C 
BRANCH   9  10
HETATM   10  C   UNK     0     -66.238 -31.932   2.879  0.00  0.00     0.241 C 
HETATM   11  N   UNK     0     -64.872 -32.004   2.936  0.00  0.00    -0.354 N 
HETATM   12  H   UNK     0     -64.432 -32.093   2.020  0.00  0.00     0.162 HD
HETATM   13  O   UNK     0     -66.990 -31.825   3.849  0.00  0.00    -0.271 OA
BRANCH  11  14
HETATM   14  C   UNK     0     -64.076 -31.960   4.183  0.00  0.00     0.091 C 
BRANCH  14  15
HETATM   15  C   UNK     0     -62.710 -32.657   3.985  0.00  0.00     0.063 C 
BRANCH  15  16
HETATM   16  C   UNK     0     -62.453 -33.926   4.748  0.00  0.00    -0.056 A 
HETATM   17  C   UNK     0     -62.835 -34.031   6.113  0.00  0.00     0.007 A 
HETATM   18  C   UNK     0     -62.599 -35.220   6.841  0.00  0.00     0.001 A 
HETATM   19  C   UNK     0     -61.976 -36.320   6.207  0.00  0.00     0.000 A 
HETATM   20  C   UNK     0     -61.593 -36.224   4.848  0.00  0.00     0.001 A 
HETATM   21  C   UNK     0     -61.831 -35.031   4.123  0.00  0.00     0.007 A 
ENDBRANCH  15  16
ENDBRANCH  14  15
BRANCH  14  22
HETATM   22  C   UNK     0     -63.764 -30.507   4.604  0.00  0.00     0.059 C 
BRANCH  22  23
HETATM   23  C   UNK     0     -62.540 -29.784   4.013  0.00  0.00     0.143 C 
BRANCH  23  24
HETATM   24  C   UNK     0     -62.767 -28.355   3.456  0.00  0.00     0.117 C 
BRANCH  24  25
HETATM   25  N   UNK     0     -61.581 -27.976   2.654  0.00  0.00    -0.352 N 
HETATM   26  C   UNK     0     -60.997 -26.736   2.684  0.00  0.00     0.242 C 
HETATM   27  O   UNK     0     -61.380 -25.789   3.380  0.00  0.00    -0.271 OA
HETATM   28  H   UNK     0     -61.122 -28.632   2.021  0.00  0.00     0.163 HD
BRANCH  26  29
HETATM   29  C   UNK     0     -59.789 -26.575   1.741  0.00  0.00     0.278 C 
BRANCH  29  30
HETATM   30  O   UNK     0     -58.863 -25.582   2.219  0.00  0.00    -0.341 OA
BRANCH  30  31
HETATM   31  C   UNK     0     -58.836 -24.405   1.447  0.00  0.00     0.081 A 
HETATM   32  C   UNK     0     -59.261 -23.139   1.981  0.00  0.00    -0.028 A 
HETATM   33  C   UNK     0     -59.209 -21.986   1.152  0.00  0.00     0.009 A 
HETATM   34  C   UNK     0     -59.763 -22.986   3.397  0.00  0.00     0.051 C 
HETATM   35  C   UNK     0     -58.746 -22.070  -0.178  0.00  0.00     0.001 A 
HETATM   36  C   UNK     0     -58.325 -23.306  -0.710  0.00  0.00     0.009 A 
HETATM   37  C   UNK     0     -58.363 -24.476   0.087  0.00  0.00    -0.028 A 
HETATM   38  C   UNK     0     -57.908 -25.766  -0.505  0.00  0.00     0.051 C 
ENDBRANCH  30  31
ENDBRANCH  29  30
ENDBRANCH  26  29
ENDBRANCH  24  25
BRANCH  24  39
HETATM   39  C   UNK     0     -64.027 -28.313   2.540  0.00  0.00     0.066 C 
BRANCH  39  40
HETATM   40  C   UNK     0     -64.664 -26.944   2.401  0.00  0.00    -0.056 A 
HETATM   41  C   UNK     0     -65.528 -26.461   3.413  0.00  0.00     0.007 A 
HETATM   42  C   UNK     0     -66.139 -25.188   3.303  0.00  0.00     0.001 A 
HETATM   43  C   UNK     0     -65.889 -24.382   2.176  0.00  0.00     0.000 A 
HETATM   44  C   UNK     0     -65.028 -24.852   1.161  0.00  0.00     0.001 A 
HETATM   45  C   UNK     0     -64.419 -26.124   1.271  0.00  0.00     0.007 A 
ENDBRANCH  39  40
ENDBRANCH  24  39
ENDBRANCH  23  24
BRANCH  23  46
HETATM   46  O   UNK     0     -61.611 -29.677   5.065  0.00  0.00    -0.393 OA
HETATM   47  H   UNK     0     -61.768 -30.427   5.627  0.00  0.00     0.210 HD
ENDBRANCH  23  46
ENDBRANCH  22  23
ENDBRANCH  14  22
ENDBRANCH  11  14
ENDBRANCH   9  10
BRANCH   9  48
HETATM   48  C   UNK     0     -67.609 -30.714   1.035  0.00  0.00     0.010 C 
HETATM   49  C   UNK     0     -67.068 -29.419   1.671  0.00  0.00     0.012 C 
HETATM   50  C   UNK     0     -67.644 -30.528  -0.500  0.00  0.00     0.012 C 
ENDBRANCH   9  48
ENDBRANCH   3   9
TORSDOF 16
ENDMDL
MODEL 9
REMARK VINA RESULT:      -8.0      8.341     12.860
REMARK  16 active torsions:
REMARK  status: ('A' for Active; 'I' for Inactive)
REMARK    1  A    between atoms: N_3  and  C_13 
REMARK    2  A    between atoms: C_6  and  C_37 
REMARK    3  A    between atoms: C_13  and  C_14 
REMARK    4  A    between atoms: C_13  and  C_17 
REMARK       I    between atoms: C_14  and  N_15 
REMARK    5  A    between atoms: N_15  and  C_16 
REMARK    6  A    between atoms: C_16  and  C_27 
REMARK    7  A    between atoms: C_16  and  C_28 
REMARK    8  A    between atoms: C_25  and  C_27 
REMARK    9  A    between atoms: C_28  and  C_29 
REMARK   10  A    between atoms: C_29  and  C_30 
REMARK   11  A    between atoms: C_29  and  O_36 
REMARK   12  A    between atoms: C_30  and  N_31 
REMARK   13  A    between atoms: C_30  and  C_37 
REMARK       I    between atoms: N_31  and  C_32 
REMARK   14  A    between atoms: C_32  and  C_33 
REMARK   15  A    between atoms: C_33  and  O_34 
REMARK   16  A    between atoms: O_34  and  C_35 
ROOT
HETATM    1  C   UNK     0     -56.069 -25.597 -11.728  0.00  0.00     0.126 C 
HETATM    2  C   UNK     0     -54.431 -25.136  -9.883  0.00  0.00     0.130 C 
HETATM    3  N   UNK     0     -55.322 -24.005  -9.431  0.00  0.00    -0.320 N 
HETATM    4  C   UNK     0     -56.502 -23.706 -10.098  0.00  0.00     0.319 C 
HETATM    5  N   UNK     0     -56.842 -24.466 -11.178  0.00  0.00    -0.343 N 
HETATM    6  O   UNK     0     -57.231 -22.794  -9.748  0.00  0.00    -0.247 OA
HETATM    7  C   UNK     0     -55.170 -26.242 -10.667  0.00  0.00     0.040 C 
HETATM    8  H   UNK     0     -57.724 -24.172 -11.597  0.00  0.00     0.164 HD
ENDROOT
BRANCH   3   9
HETATM    9  C   UNK     0     -54.931 -23.174  -8.239  0.00  0.00     0.184 C 
BRANCH   9  10
HETATM   10  C   UNK     0     -56.056 -23.251  -7.171  0.00  0.00     0.241 C 
HETATM   11  N   UNK     0     -56.546 -22.018  -6.830  0.00  0.00    -0.354 N 
HETATM   12  H   UNK     0     -56.095 -21.251  -7.328  0.00  0.00     0.162 HD
HETATM   13  O   UNK     0     -56.437 -24.326  -6.705  0.00  0.00    -0.271 OA
BRANCH  11  14
HETATM   14  C   UNK     0     -57.622 -21.781  -5.843  0.00  0.00     0.091 C 
BRANCH  14  15
HETATM   15  C   UNK     0     -57.156 -22.171  -4.421  0.00  0.00     0.063 C 
BRANCH  15  16
HETATM   16  C   UNK     0     -58.167 -22.784  -3.494  0.00  0.00    -0.056 A 
HETATM   17  C   UNK     0     -59.510 -22.971  -3.922  0.00  0.00     0.007 A 
HETATM   18  C   UNK     0     -60.470 -23.547  -3.059  0.00  0.00     0.001 A 
HETATM   19  C   UNK     0     -60.096 -23.943  -1.754  0.00  0.00     0.000 A 
HETATM   20  C   UNK     0     -58.761 -23.761  -1.321  0.00  0.00     0.001 A 
HETATM   21  C   UNK     0     -57.803 -23.184  -2.188  0.00  0.00     0.007 A 
ENDBRANCH  15  16
ENDBRANCH  14  15
BRANCH  14  22
HETATM   22  C   UNK     0     -58.012 -20.288  -5.777  0.00  0.00     0.059 C 
BRANCH  22  23
HETATM   23  C   UNK     0     -58.853 -19.767  -4.598  0.00  0.00     0.143 C 
BRANCH  23  24
HETATM   24  C   UNK     0     -58.604 -18.305  -4.146  0.00  0.00     0.117 C 
BRANCH  24  25
HETATM   25  N   UNK     0     -59.040 -17.402  -5.237  0.00  0.00    -0.352 N 
HETATM   26  C   UNK     0     -58.180 -16.727  -6.065  0.00  0.00     0.242 C 
HETATM   27  O   UNK     0     -56.947 -16.790  -6.009  0.00  0.00    -0.271 OA
HETATM   28  H   UNK     0     -60.025 -17.230  -5.437  0.00  0.00     0.163 HD
BRANCH  26  29
HETATM   29  C   UNK     0     -58.872 -15.828  -7.108  0.00  0.00     0.278 C 
BRANCH  29  30
HETATM   30  O   UNK     0     -58.086 -15.695  -8.307  0.00  0.00    -0.341 OA
BRANCH  30  31
HETATM   31  C   UNK     0     -58.129 -14.410  -8.880  0.00  0.00     0.081 A 
HETATM   32  C   UNK     0     -59.182 -14.015  -9.778  0.00  0.00    -0.028 A 
HETATM   33  C   UNK     0     -59.171 -12.703 -10.322  0.00  0.00     0.009 A 
HETATM   34  C   UNK     0     -60.306 -14.948 -10.165  0.00  0.00     0.051 C 
HETATM   35  C   UNK     0     -58.148 -11.790  -9.992  0.00  0.00     0.001 A 
HETATM   36  C   UNK     0     -57.114 -12.166  -9.112  0.00  0.00     0.009 A 
HETATM   37  C   UNK     0     -57.092 -13.465  -8.551  0.00  0.00    -0.028 A 
HETATM   38  C   UNK     0     -55.984 -13.829  -7.621  0.00  0.00     0.051 C 
ENDBRANCH  30  31
ENDBRANCH  29  30
ENDBRANCH  26  29
ENDBRANCH  24  25
BRANCH  24  39
HETATM   39  C   UNK     0     -59.425 -17.976  -2.864  0.00  0.00     0.066 C 
BRANCH  39  40
HETATM   40  C   UNK     0     -59.237 -18.956  -1.722  0.00  0.00    -0.056 A 
HETATM   41  C   UNK     0     -57.962 -19.106  -1.123  0.00  0.00     0.007 A 
HETATM   42  C   UNK     0     -57.761 -20.019  -0.059  0.00  0.00     0.001 A 
HETATM   43  C   UNK     0     -58.836 -20.792   0.419  0.00  0.00     0.000 A 
HETATM   44  C   UNK     0     -60.111 -20.651  -0.170  0.00  0.00     0.001 A 
HETATM   45  C   UNK     0     -60.312 -19.740  -1.233  0.00  0.00     0.007 A 
ENDBRANCH  39  40
ENDBRANCH  24  39
ENDBRANCH  23  24
BRANCH  23  46
HETATM   46  O   UNK     0     -60.194 -19.851  -5.015  0.00  0.00    -0.393 OA
HETATM   47  H   UNK     0     -60.430 -20.769  -4.949  0.00  0.00     0.210 HD
ENDBRANCH  23  46
ENDBRANCH  22  23
ENDBRANCH  14  22
ENDBRANCH  11  14
ENDBRANCH   9  10
BRANCH   9  48
HETATM   48  C   UNK     0     -54.590 -21.686  -8.644  0.00  0.00     0.010 C 
HETATM   49  C   UNK     0     -53.824 -20.913  -7.554  0.00  0.00     0.012 C 
HETATM   50  C   UNK     0     -53.759 -21.647  -9.947  0.00  0.00     0.012 C 
ENDBRANCH   9  48
ENDBRANCH   3   9
TORSDOF 16
ENDMDL
MODEL 10
REMARK VINA RESULT:      -7.8     13.429     18.211
REMARK  16 active torsions:
REMARK  status: ('A' for Active; 'I' for Inactive)
REMARK    1  A    between atoms: N_3  and  C_13 
REMARK    2  A    between atoms: C_6  and  C_37 
REMARK    3  A    between atoms: C_13  and  C_14 
REMARK    4  A    between atoms: C_13  and  C_17 
REMARK       I    between atoms: C_14  and  N_15 
REMARK    5  A    between atoms: N_15  and  C_16 
REMARK    6  A    between atoms: C_16  and  C_27 
REMARK    7  A    between atoms: C_16  and  C_28 
REMARK    8  A    between atoms: C_25  and  C_27 
REMARK    9  A    between atoms: C_28  and  C_29 
REMARK   10  A    between atoms: C_29  and  C_30 
REMARK   11  A    between atoms: C_29  and  O_36 
REMARK   12  A    between atoms: C_30  and  N_31 
REMARK   13  A    between atoms: C_30  and  C_37 
REMARK       I    between atoms: N_31  and  C_32 
REMARK   14  A    between atoms: C_32  and  C_33 
REMARK   15  A    between atoms: C_33  and  O_34 
REMARK   16  A    between atoms: O_34  and  C_35 
ROOT
HETATM    1  C   UNK     0     -54.752 -25.981 -16.331  0.00  0.00     0.126 C 
HETATM    2  C   UNK     0     -55.396 -23.744 -15.394  0.00  0.00     0.130 C 
HETATM    3  N   UNK     0     -53.970 -23.576 -14.926  0.00  0.00    -0.320 N 
HETATM    4  C   UNK     0     -53.016 -24.559 -15.154  0.00  0.00     0.319 C 
HETATM    5  N   UNK     0     -53.399 -25.686 -15.819  0.00  0.00    -0.343 N 
HETATM    6  O   UNK     0     -51.863 -24.440 -14.779  0.00  0.00    -0.247 OA
HETATM    7  C   UNK     0     -55.553 -24.700 -16.595  0.00  0.00     0.040 C 
HETATM    8  H   UNK     0     -52.630 -26.345 -15.941  0.00  0.00     0.164 HD
ENDROOT
BRANCH   3   9
HETATM    9  C   UNK     0     -53.566 -22.328 -14.190  0.00  0.00     0.184 C 
BRANCH   9  10
HETATM   10  C   UNK     0     -54.182 -22.353 -12.764  0.00  0.00     0.241 C 
HETATM   11  N   UNK     0     -53.348 -22.921 -11.838  0.00  0.00    -0.354 N 
HETATM   12  H   UNK     0     -52.462 -23.237 -12.231  0.00  0.00     0.162 HD
HETATM   13  O   UNK     0     -55.305 -21.900 -12.535  0.00  0.00    -0.271 OA
BRANCH  11  14
HETATM   14  C   UNK     0     -53.666 -23.079 -10.402  0.00  0.00     0.091 C 
BRANCH  14  15
HETATM   15  C   UNK     0     -53.831 -21.699  -9.723  0.00  0.00     0.063 C 
BRANCH  15  16
HETATM   16  C   UNK     0     -54.756 -21.604  -8.543  0.00  0.00    -0.056 A 
HETATM   17  C   UNK     0     -54.332 -22.051  -7.262  0.00  0.00     0.007 A 
HETATM   18  C   UNK     0     -55.194 -21.966  -6.145  0.00  0.00     0.001 A 
HETATM   19  C   UNK     0     -56.494 -21.431  -6.298  0.00  0.00     0.000 A 
HETATM   20  C   UNK     0     -56.924 -20.983  -7.570  0.00  0.00     0.001 A 
HETATM   21  C   UNK     0     -56.058 -21.070  -8.686  0.00  0.00     0.007 A 
ENDBRANCH  15  16
ENDBRANCH  14  15
BRANCH  14  22
HETATM   22  C   UNK     0     -55.002 -23.825 -10.196  0.00  0.00     0.059 C 
BRANCH  22  23
HETATM   23  C   UNK     0     -55.182 -25.246 -10.763  0.00  0.00     0.143 C 
BRANCH  23  24
HETATM   24  C   UNK     0     -56.232 -25.429 -11.888  0.00  0.00     0.117 C 
BRANCH  24  25
HETATM   25  N   UNK     0     -56.546 -26.872 -11.999  0.00  0.00    -0.352 N 
HETATM   26  C   UNK     0     -55.824 -27.760 -12.753  0.00  0.00     0.242 C 
HETATM   27  O   UNK     0     -54.827 -27.473 -13.425  0.00  0.00    -0.271 OA
HETATM   28  H   UNK     0     -57.335 -27.294 -11.509  0.00  0.00     0.163 HD
BRANCH  26  29
HETATM   29  C   UNK     0     -56.362 -29.204 -12.730  0.00  0.00     0.278 C 
BRANCH  29  30
HETATM   30  O   UNK     0     -56.656 -29.688 -14.053  0.00  0.00    -0.341 OA
BRANCH  30  31
HETATM   31  C   UNK     0     -58.030 -29.716 -14.360  0.00  0.00     0.081 A 
HETATM   32  C   UNK     0     -58.685 -28.608 -15.004  0.00  0.00    -0.028 A 
HETATM   33  C   UNK     0     -60.074 -28.697 -15.289  0.00  0.00     0.009 A 
HETATM   34  C   UNK     0     -57.949 -27.348 -15.390  0.00  0.00     0.051 C 
HETATM   35  C   UNK     0     -60.810 -29.853 -14.953  0.00  0.00     0.001 A 
HETATM   36  C   UNK     0     -60.177 -30.944 -14.325  0.00  0.00     0.009 A 
HETATM   37  C   UNK     0     -58.795 -30.891 -14.025  0.00  0.00    -0.028 A 
HETATM   38  C   UNK     0     -58.156 -32.064 -13.363  0.00  0.00     0.051 C 
ENDBRANCH  30  31
ENDBRANCH  29  30
ENDBRANCH  26  29
ENDBRANCH  24  25
BRANCH  24  39
HETATM   39  C   UNK     0     -57.540 -24.653 -11.554  0.00  0.00     0.066 C 
BRANCH  39  40
HETATM   40  C   UNK     0     -58.616 -24.737 -12.619  0.00  0.00    -0.056 A 
HETATM   41  C   UNK     0     -58.538 -23.913 -13.769  0.00  0.00     0.007 A 
HETATM   42  C   UNK     0     -59.534 -23.970 -14.775  0.00  0.00     0.001 A 
HETATM   43  C   UNK     0     -60.620 -24.855 -14.641  0.00  0.00     0.000 A 
HETATM   44  C   UNK     0     -60.709 -25.681 -13.500  0.00  0.00     0.001 A 
HETATM   45  C   UNK     0     -59.715 -25.624 -12.495  0.00  0.00     0.007 A 
ENDBRANCH  39  40
ENDBRANCH  24  39
ENDBRANCH  23  24
BRANCH  23  46
HETATM   46  O   UNK     0     -53.931 -25.607 -11.298  0.00  0.00    -0.393 OA
HETATM   47  H   UNK     0     -53.534 -26.188 -10.659  0.00  0.00     0.210 HD
ENDBRANCH  23  46
ENDBRANCH  22  23
ENDBRANCH  14  22
ENDBRANCH  11  14
ENDBRANCH   9  10
BRANCH   9  48
HETATM   48  C   UNK     0     -53.955 -21.021 -14.988  0.00  0.00     0.010 C 
HETATM   49  C   UNK     0     -53.488 -19.722 -14.303  0.00  0.00     0.012 C 
HETATM   50  C   UNK     0     -53.373 -21.056 -16.420  0.00  0.00     0.012 C 
ENDBRANCH   9  48
ENDBRANCH   3   9
TORSDOF 16
ENDMDL
