MODEL 1
REMARK VINA RESULT:      -8.6      0.000      0.000
REMARK  15 active torsions:
REMARK  status: ('A' for Active; 'I' for Inactive)
REMARK    1  A    between atoms: O_2  and  C_18 
REMARK    2  A    between atoms: O_2  and  C_22 
REMARK    3  A    between atoms: O_4  and  C_14 
REMARK    4  A    between atoms: O_5  and  C_21 
REMARK    5  A    between atoms: O_5  and  C_25 
REMARK    6  A    between atoms: O_6  and  C_15 
REMARK    7  A    between atoms: O_7  and  C_16 
REMARK    8  A    between atoms: O_8  and  C_17 
REMARK    9  A    between atoms: O_9  and  C_19 
REMARK   10  A    between atoms: O_10  and  C_20 
REMARK   11  A    between atoms: O_11  and  C_30 
REMARK   12  A    between atoms: O_12  and  C_32 
REMARK   13  A    between atoms: C_13  and  C_22 
REMARK   14  A    between atoms: C_25  and  C_26 
REMARK   15  A    between atoms: C_26  and  C_27 
ROOT
HETATM    1  O   UNK     0     -61.913 -23.398  -1.234  0.00  0.00    -0.348 OA
HETATM    2  C   UNK     0     -62.924 -24.339  -1.599  0.00  0.00     0.180 C 
HETATM    3  C   UNK     0     -62.401 -25.267  -2.697  0.00  0.00     0.180 C 
HETATM    4  C   UNK     0     -61.911 -24.463  -3.901  0.00  0.00     0.183 C 
HETATM    5  C   UNK     0     -60.967 -23.341  -3.469  0.00  0.00     0.204 C 
HETATM    6  C   UNK     0     -61.554 -22.535  -2.311  0.00  0.00     0.291 C 
ENDROOT
BRANCH   2   7
HETATM    7  C   UNK     0     -63.310 -25.111  -0.342  0.00  0.00     0.205 C 
BRANCH   7   8
HETATM    8  O   UNK     0     -62.806 -24.425   0.795  0.00  0.00    -0.356 OA
BRANCH   8   9
HETATM    9  C   UNK     0     -62.453 -25.331   1.835  0.00  0.00     0.291 C 
HETATM   10  O   UNK     0     -61.662 -24.711   2.855  0.00  0.00    -0.351 OA
HETATM   11  C   UNK     0     -60.382 -24.252   2.406  0.00  0.00     0.152 C 
HETATM   12  C   UNK     0     -59.547 -25.411   1.845  0.00  0.00     0.178 C 
HETATM   13  C   UNK     0     -59.705 -23.586   3.602  0.00  0.00     0.042 C 
HETATM   14  C   UNK     0     -60.328 -26.139   0.751  0.00  0.00     0.183 C 
HETATM   15  C   UNK     0     -61.721 -26.535   1.244  0.00  0.00     0.204 C 
BRANCH  12  16
HETATM   16  O   UNK     0     -58.339 -24.917   1.273  0.00  0.00    -0.390 OA
HETATM   17  H   UNK     0     -57.761 -24.621   1.997  0.00  0.00     0.210 HD
ENDBRANCH  12  16
BRANCH  14  18
HETATM   18  O   UNK     0     -59.606 -27.303   0.353  0.00  0.00    -0.390 OA
HETATM   19  H   UNK     0     -58.904 -27.018  -0.257  0.00  0.00     0.210 HD
ENDBRANCH  14  18
BRANCH  15  20
HETATM   20  O   UNK     0     -61.613 -27.524   2.269  0.00  0.00    -0.388 OA
HETATM   21  H   UNK     0     -61.885 -27.112   3.106  0.00  0.00     0.210 HD
ENDBRANCH  15  20
ENDBRANCH   8   9
ENDBRANCH   7   8
ENDBRANCH   2   7
BRANCH   6  22
HETATM   22  O   UNK     0     -60.562 -21.606  -1.874  0.00  0.00    -0.358 OA
BRANCH  22  23
HETATM   23  C   UNK     0     -59.668 -22.203  -0.948  0.00  0.00     0.175 C 
BRANCH  23  24
HETATM   24  C   UNK     0     -59.699 -21.432   0.367  0.00  0.00     0.065 C 
BRANCH  24  25
HETATM   25  C   UNK     0     -58.493 -20.542   0.539  0.00  0.00    -0.053 A 
HETATM   26  C   UNK     0     -57.970 -20.314   1.812  0.00  0.00     0.046 A 
HETATM   27  C   UNK     0     -56.854 -19.492   1.970  0.00  0.00     0.099 A 
HETATM   28  C   UNK     0     -56.262 -18.898   0.856  0.00  0.00     0.098 A 
HETATM   29  C   UNK     0     -56.785 -19.126  -0.416  0.00  0.00     0.040 A 
HETATM   30  C   UNK     0     -57.900 -19.948  -0.576  0.00  0.00     0.010 A 
BRANCH  27  31
HETATM   31  O   UNK     0     -56.351 -19.278   3.218  0.00  0.00    -0.358 OA
HETATM   32  H   UNK     0     -56.625 -20.009   3.799  0.00  0.00     0.217 HD
ENDBRANCH  27  31
BRANCH  28  33
HETATM   33  O   UNK     0     -55.171 -18.093   0.998  0.00  0.00    -0.358 OA
HETATM   34  H   UNK     0     -55.275 -17.315   0.424  0.00  0.00     0.217 HD
ENDBRANCH  28  33
ENDBRANCH  24  25
ENDBRANCH  23  24
ENDBRANCH  22  23
ENDBRANCH   6  22
BRANCH   3  35
HETATM   35  O   UNK     0     -63.445 -26.145  -3.109  0.00  0.00    -0.390 OA
HETATM   36  H   UNK     0     -63.879 -25.752  -3.885  0.00  0.00     0.210 HD
ENDBRANCH   3  35
BRANCH   5  37
HETATM   37  O   UNK     0     -60.752 -22.453  -4.567  0.00  0.00    -0.388 OA
HETATM   38  H   UNK     0     -60.308 -21.657  -4.228  0.00  0.00     0.210 HD
ENDBRANCH   5  37
BRANCH   4  39
HETATM   39  O   UNK     0     -61.219 -25.355  -4.777  0.00  0.00    -0.390 OA
HETATM   40  H   UNK     0     -61.782 -25.513  -5.555  0.00  0.00     0.210 HD
ENDBRANCH   4  39
TORSDOF 15
ENDMDL
MODEL 2
REMARK VINA RESULT:      -8.6      2.658      5.328
REMARK  15 active torsions:
REMARK  status: ('A' for Active; 'I' for Inactive)
REMARK    1  A    between atoms: O_2  and  C_18 
REMARK    2  A    between atoms: O_2  and  C_22 
REMARK    3  A    between atoms: O_4  and  C_14 
REMARK    4  A    between atoms: O_5  and  C_21 
REMARK    5  A    between atoms: O_5  and  C_25 
REMARK    6  A    between atoms: O_6  and  C_15 
REMARK    7  A    between atoms: O_7  and  C_16 
REMARK    8  A    between atoms: O_8  and  C_17 
REMARK    9  A    between atoms: O_9  and  C_19 
REMARK   10  A    between atoms: O_10  and  C_20 
REMARK   11  A    between atoms: O_11  and  C_30 
REMARK   12  A    between atoms: O_12  and  C_32 
REMARK   13  A    between atoms: C_13  and  C_22 
REMARK   14  A    between atoms: C_25  and  C_26 
REMARK   15  A    between atoms: C_26  and  C_27 
ROOT
HETATM    1  O   UNK     0     -61.201 -23.620  -1.158  0.00  0.00    -0.348 OA
HETATM    2  C   UNK     0     -62.389 -24.389  -1.349  0.00  0.00     0.180 C 
HETATM    3  C   UNK     0     -62.235 -25.293  -2.574  0.00  0.00     0.180 C 
HETATM    4  C   UNK     0     -61.884 -24.471  -3.815  0.00  0.00     0.183 C 
HETATM    5  C   UNK     0     -60.722 -23.519  -3.536  0.00  0.00     0.204 C 
HETATM    6  C   UNK     0     -60.943 -22.733  -2.245  0.00  0.00     0.291 C 
ENDROOT
BRANCH   2   7
HETATM    7  C   UNK     0     -62.624 -25.197  -0.076  0.00  0.00     0.205 C 
BRANCH   7   8
HETATM    8  O   UNK     0     -63.868 -24.814   0.492  0.00  0.00    -0.356 OA
BRANCH   8   9
HETATM    9  C   UNK     0     -64.814 -25.876   0.438  0.00  0.00     0.291 C 
HETATM   10  O   UNK     0     -65.772 -25.702  -0.612  0.00  0.00    -0.351 OA
HETATM   11  C   UNK     0     -66.615 -24.555  -0.452  0.00  0.00     0.152 C 
HETATM   12  C   UNK     0     -67.408 -24.632   0.861  0.00  0.00     0.178 C 
HETATM   13  C   UNK     0     -67.532 -24.503  -1.672  0.00  0.00     0.042 C 
HETATM   14  C   UNK     0     -66.454 -24.832   2.039  0.00  0.00     0.183 C 
HETATM   15  C   UNK     0     -65.514 -26.013   1.789  0.00  0.00     0.204 C 
BRANCH  12  16
HETATM   16  O   UNK     0     -68.128 -23.422   1.073  0.00  0.00    -0.390 OA
HETATM   17  H   UNK     0     -68.792 -23.583   1.766  0.00  0.00     0.210 HD
ENDBRANCH  12  16
BRANCH  14  18
HETATM   18  O   UNK     0     -67.213 -25.059   3.224  0.00  0.00    -0.390 OA
HETATM   19  H   UNK     0     -68.154 -24.996   2.986  0.00  0.00     0.210 HD
ENDBRANCH  14  18
BRANCH  15  20
HETATM   20  O   UNK     0     -66.258 -27.233   1.772  0.00  0.00    -0.388 OA
HETATM   21  H   UNK     0     -67.067 -27.091   2.291  0.00  0.00     0.210 HD
ENDBRANCH  15  20
ENDBRANCH   8   9
ENDBRANCH   7   8
ENDBRANCH   2   7
BRANCH   6  22
HETATM   22  O   UNK     0     -59.760 -21.978  -1.980  0.00  0.00    -0.358 OA
BRANCH  22  23
HETATM   23  C   UNK     0     -58.639 -22.827  -1.786  0.00  0.00     0.175 C 
BRANCH  23  24
HETATM   24  C   UNK     0     -58.310 -22.911  -0.300  0.00  0.00     0.065 C 
BRANCH  24  25
HETATM   25  C   UNK     0     -58.485 -24.306   0.249  0.00  0.00    -0.053 A 
HETATM   26  C   UNK     0     -59.143 -24.500   1.462  0.00  0.00     0.046 A 
HETATM   27  C   UNK     0     -59.306 -25.790   1.968  0.00  0.00     0.099 A 
HETATM   28  C   UNK     0     -58.810 -26.885   1.261  0.00  0.00     0.098 A 
HETATM   29  C   UNK     0     -58.151 -26.690   0.047  0.00  0.00     0.040 A 
HETATM   30  C   UNK     0     -57.988 -25.401  -0.460  0.00  0.00     0.010 A 
BRANCH  27  31
HETATM   31  O   UNK     0     -59.953 -25.968   3.154  0.00  0.00    -0.358 OA
HETATM   32  H   UNK     0     -60.019 -26.921   3.339  0.00  0.00     0.217 HD
ENDBRANCH  27  31
BRANCH  28  33
HETATM   33  O   UNK     0     -58.963 -28.150   1.745  0.00  0.00    -0.358 OA
HETATM   34  H   UNK     0     -59.360 -28.103   2.632  0.00  0.00     0.217 HD
ENDBRANCH  28  33
ENDBRANCH  24  25
ENDBRANCH  23  24
ENDBRANCH  22  23
ENDBRANCH   6  22
BRANCH   3  35
HETATM   35  O   UNK     0     -63.456 -25.992  -2.801  0.00  0.00    -0.390 OA
HETATM   36  H   UNK     0     -63.371 -26.482  -3.636  0.00  0.00     0.210 HD
ENDBRANCH   3  35
BRANCH   5  37
HETATM   37  O   UNK     0     -60.604 -22.588  -4.611  0.00  0.00    -0.388 OA
HETATM   38  H   UNK     0     -60.220 -23.054  -5.374  0.00  0.00     0.210 HD
ENDBRANCH   5  37
BRANCH   4  39
HETATM   39  O   UNK     0     -61.518 -25.378  -4.856  0.00  0.00    -0.390 OA
HETATM   40  H   UNK     0     -60.669 -25.789  -4.616  0.00  0.00     0.210 HD
ENDBRANCH   4  39
TORSDOF 15
ENDMDL
MODEL 3
REMARK VINA RESULT:      -8.5      2.363      7.226
REMARK  15 active torsions:
REMARK  status: ('A' for Active; 'I' for Inactive)
REMARK    1  A    between atoms: O_2  and  C_18 
REMARK    2  A    between atoms: O_2  and  C_22 
REMARK    3  A    between atoms: O_4  and  C_14 
REMARK    4  A    between atoms: O_5  and  C_21 
REMARK    5  A    between atoms: O_5  and  C_25 
REMARK    6  A    between atoms: O_6  and  C_15 
REMARK    7  A    between atoms: O_7  and  C_16 
REMARK    8  A    between atoms: O_8  and  C_17 
REMARK    9  A    between atoms: O_9  and  C_19 
REMARK   10  A    between atoms: O_10  and  C_20 
REMARK   11  A    between atoms: O_11  and  C_30 
REMARK   12  A    between atoms: O_12  and  C_32 
REMARK   13  A    between atoms: C_13  and  C_22 
REMARK   14  A    between atoms: C_25  and  C_26 
REMARK   15  A    between atoms: C_26  and  C_27 
ROOT
HETATM    1  O   UNK     0     -61.761 -23.834   0.662  0.00  0.00    -0.348 OA
HETATM    2  C   UNK     0     -60.382 -23.567   0.922  0.00  0.00     0.180 C 
HETATM    3  C   UNK     0     -59.503 -24.467   0.052  0.00  0.00     0.180 C 
HETATM    4  C   UNK     0     -59.849 -25.940   0.272  0.00  0.00     0.183 C 
HETATM    5  C   UNK     0     -61.355 -26.176   0.169  0.00  0.00     0.204 C 
HETATM    6  C   UNK     0     -62.135 -25.165   1.009  0.00  0.00     0.291 C 
ENDROOT
BRANCH   2   7
HETATM    7  C   UNK     0     -60.137 -22.089   0.635  0.00  0.00     0.205 C 
BRANCH   7   8
HETATM    8  O   UNK     0     -61.068 -21.647  -0.343  0.00  0.00    -0.356 OA
BRANCH   8   9
HETATM    9  C   UNK     0     -60.962 -20.246  -0.567  0.00  0.00     0.291 C 
HETATM   10  O   UNK     0     -62.087 -19.720  -1.279  0.00  0.00    -0.351 OA
HETATM   11  C   UNK     0     -62.228 -20.228  -2.610  0.00  0.00     0.152 C 
HETATM   12  C   UNK     0     -60.985 -19.915  -3.455  0.00  0.00     0.178 C 
HETATM   13  C   UNK     0     -63.490 -19.600  -3.195  0.00  0.00     0.042 C 
HETATM   14  C   UNK     0     -59.730 -20.435  -2.754  0.00  0.00     0.183 C 
HETATM   15  C   UNK     0     -59.663 -19.939  -1.309  0.00  0.00     0.204 C 
BRANCH  12  16
HETATM   16  O   UNK     0     -61.079 -20.550  -4.726  0.00  0.00    -0.390 OA
HETATM   17  H   UNK     0     -60.178 -20.752  -5.031  0.00  0.00     0.210 HD
ENDBRANCH  12  16
BRANCH  14  18
HETATM   18  O   UNK     0     -58.577 -19.998  -3.471  0.00  0.00    -0.390 OA
HETATM   19  H   UNK     0     -58.883 -19.593  -4.300  0.00  0.00     0.210 HD
ENDBRANCH  14  18
BRANCH  15  20
HETATM   20  O   UNK     0     -59.474 -18.523  -1.288  0.00  0.00    -0.388 OA
HETATM   21  H   UNK     0     -59.852 -18.164  -2.108  0.00  0.00     0.210 HD
ENDBRANCH  15  20
ENDBRANCH   8   9
ENDBRANCH   7   8
ENDBRANCH   2   7
BRANCH   6  22
HETATM   22  O   UNK     0     -63.526 -25.358   0.749  0.00  0.00    -0.358 OA
BRANCH  22  23
HETATM   23  C   UNK     0     -63.998 -24.450  -0.233  0.00  0.00     0.175 C 
BRANCH  23  24
HETATM   24  C   UNK     0     -64.400 -25.215  -1.489  0.00  0.00     0.065 C 
BRANCH  24  25
HETATM   25  C   UNK     0     -63.436 -24.993  -2.629  0.00  0.00    -0.053 A 
HETATM   26  C   UNK     0     -63.461 -25.838  -3.738  0.00  0.00     0.046 A 
HETATM   27  C   UNK     0     -62.571 -25.630  -4.793  0.00  0.00     0.099 A 
HETATM   28  C   UNK     0     -61.657 -24.579  -4.737  0.00  0.00     0.098 A 
HETATM   29  C   UNK     0     -61.632 -23.734  -3.628  0.00  0.00     0.040 A 
HETATM   30  C   UNK     0     -62.522 -23.940  -2.574  0.00  0.00     0.010 A 
BRANCH  27  31
HETATM   31  O   UNK     0     -62.606 -26.461  -5.872  0.00  0.00    -0.358 OA
HETATM   32  H   UNK     0     -62.718 -25.929  -6.678  0.00  0.00     0.217 HD
ENDBRANCH  27  31
BRANCH  28  33
HETATM   33  O   UNK     0     -60.783 -24.366  -5.761  0.00  0.00    -0.358 OA
HETATM   34  H   UNK     0     -60.917 -25.051  -6.439  0.00  0.00     0.217 HD
ENDBRANCH  28  33
ENDBRANCH  24  25
ENDBRANCH  23  24
ENDBRANCH  22  23
ENDBRANCH   6  22
BRANCH   3  35
HETATM   35  O   UNK     0     -58.134 -24.250   0.381  0.00  0.00    -0.390 OA
HETATM   36  H   UNK     0     -57.604 -24.401  -0.421  0.00  0.00     0.210 HD
ENDBRANCH   3  35
BRANCH   5  37
HETATM   37  O   UNK     0     -61.664 -27.486   0.645  0.00  0.00    -0.388 OA
HETATM   38  H   UNK     0     -62.546 -27.727   0.314  0.00  0.00     0.210 HD
ENDBRANCH   5  37
BRANCH   4  39
HETATM   39  O   UNK     0     -59.177 -26.706  -0.731  0.00  0.00    -0.390 OA
HETATM   40  H   UNK     0     -58.511 -26.136  -1.151  0.00  0.00     0.210 HD
ENDBRANCH   4  39
TORSDOF 15
ENDMDL
MODEL 4
REMARK VINA RESULT:      -8.4      3.269      8.249
REMARK  15 active torsions:
REMARK  status: ('A' for Active; 'I' for Inactive)
REMARK    1  A    between atoms: O_2  and  C_18 
REMARK    2  A    between atoms: O_2  and  C_22 
REMARK    3  A    between atoms: O_4  and  C_14 
REMARK    4  A    between atoms: O_5  and  C_21 
REMARK    5  A    between atoms: O_5  and  C_25 
REMARK    6  A    between atoms: O_6  and  C_15 
REMARK    7  A    between atoms: O_7  and  C_16 
REMARK    8  A    between atoms: O_8  and  C_17 
REMARK    9  A    between atoms: O_9  and  C_19 
REMARK   10  A    between atoms: O_10  and  C_20 
REMARK   11  A    between atoms: O_11  and  C_30 
REMARK   12  A    between atoms: O_12  and  C_32 
REMARK   13  A    between atoms: C_13  and  C_22 
REMARK   14  A    between atoms: C_25  and  C_26 
REMARK   15  A    between atoms: C_26  and  C_27 
ROOT
HETATM    1  O   UNK     0     -61.321 -23.919   1.097  0.00  0.00    -0.348 OA
HETATM    2  C   UNK     0     -60.118 -23.440   0.494  0.00  0.00     0.180 C 
HETATM    3  C   UNK     0     -60.031 -23.927  -0.954  0.00  0.00     0.180 C 
HETATM    4  C   UNK     0     -60.132 -25.451  -1.021  0.00  0.00     0.183 C 
HETATM    5  C   UNK     0     -61.327 -25.961  -0.216  0.00  0.00     0.204 C 
HETATM    6  C   UNK     0     -61.362 -25.343   1.181  0.00  0.00     0.291 C 
ENDROOT
BRANCH   2   7
HETATM    7  C   UNK     0     -60.137 -21.917   0.578  0.00  0.00     0.205 C 
BRANCH   7   8
HETATM    8  O   UNK     0     -61.124 -21.417  -0.312  0.00  0.00    -0.356 OA
BRANCH   8   9
HETATM    9  C   UNK     0     -60.916 -20.038  -0.599  0.00  0.00     0.291 C 
HETATM   10  O   UNK     0     -62.005 -19.461  -1.327  0.00  0.00    -0.351 OA
HETATM   11  C   UNK     0     -62.197 -20.015  -2.633  0.00  0.00     0.152 C 
HETATM   12  C   UNK     0     -60.943 -19.834  -3.499  0.00  0.00     0.178 C 
HETATM   13  C   UNK     0     -63.415 -19.319  -3.237  0.00  0.00     0.042 C 
HETATM   14  C   UNK     0     -59.723 -20.416  -2.784  0.00  0.00     0.183 C 
HETATM   15  C   UNK     0     -59.604 -19.863  -1.363  0.00  0.00     0.204 C 
BRANCH  12  16
HETATM   16  O   UNK     0     -61.097 -20.515  -4.740  0.00  0.00    -0.390 OA
HETATM   17  H   UNK     0     -60.300 -21.051  -4.892  0.00  0.00     0.210 HD
ENDBRANCH  12  16
BRANCH  14  18
HETATM   18  O   UNK     0     -58.548 -20.099  -3.528  0.00  0.00    -0.390 OA
HETATM   19  H   UNK     0     -58.832 -19.758  -4.394  0.00  0.00     0.210 HD
ENDBRANCH  14  18
BRANCH  15  20
HETATM   20  O   UNK     0     -59.309 -18.466  -1.407  0.00  0.00    -0.388 OA
HETATM   21  H   UNK     0     -59.400 -18.175  -2.330  0.00  0.00     0.210 HD
ENDBRANCH  15  20
ENDBRANCH   8   9
ENDBRANCH   7   8
ENDBRANCH   2   7
BRANCH   6  22
HETATM   22  O   UNK     0     -62.573 -25.754   1.814  0.00  0.00    -0.358 OA
BRANCH  22  23
HETATM   23  C   UNK     0     -63.710 -25.313   1.089  0.00  0.00     0.175 C 
BRANCH  23  24
HETATM   24  C   UNK     0     -64.909 -26.193   1.427  0.00  0.00     0.065 C 
BRANCH  24  25
HETATM   25  C   UNK     0     -66.209 -25.605   0.936  0.00  0.00    -0.053 A 
HETATM   26  C   UNK     0     -67.382 -25.801   1.663  0.00  0.00     0.046 A 
HETATM   27  C   UNK     0     -68.584 -25.256   1.210  0.00  0.00     0.099 A 
HETATM   28  C   UNK     0     -68.611 -24.516   0.028  0.00  0.00     0.098 A 
HETATM   29  C   UNK     0     -67.438 -24.320  -0.700  0.00  0.00     0.040 A 
HETATM   30  C   UNK     0     -66.236 -24.864  -0.246  0.00  0.00     0.010 A 
BRANCH  27  31
HETATM   31  O   UNK     0     -69.723 -25.453   1.930  0.00  0.00    -0.358 OA
HETATM   32  H   UNK     0     -70.017 -24.601   2.296  0.00  0.00     0.217 HD
ENDBRANCH  27  31
BRANCH  28  33
HETATM   33  O   UNK     0     -69.779 -23.979  -0.425  0.00  0.00    -0.358 OA
HETATM   34  H   UNK     0     -70.509 -24.286   0.140  0.00  0.00     0.217 HD
ENDBRANCH  28  33
ENDBRANCH  24  25
ENDBRANCH  23  24
ENDBRANCH  22  23
ENDBRANCH   6  22
BRANCH   3  35
HETATM   35  O   UNK     0     -58.789 -23.511  -1.516  0.00  0.00    -0.390 OA
HETATM   36  H   UNK     0     -58.073 -23.879  -0.969  0.00  0.00     0.210 HD
ENDBRANCH   3  35
BRANCH   5  37
HETATM   37  O   UNK     0     -61.232 -27.379  -0.074  0.00  0.00    -0.388 OA
HETATM   38  H   UNK     0     -61.929 -27.784  -0.618  0.00  0.00     0.210 HD
ENDBRANCH   5  37
BRANCH   4  39
HETATM   39  O   UNK     0     -60.288 -25.823  -2.392  0.00  0.00    -0.390 OA
HETATM   40  H   UNK     0     -60.807 -26.645  -2.426  0.00  0.00     0.210 HD
ENDBRANCH   4  39
TORSDOF 15
ENDMDL
MODEL 5
REMARK VINA RESULT:      -8.4      3.017      7.024
REMARK  15 active torsions:
REMARK  status: ('A' for Active; 'I' for Inactive)
REMARK    1  A    between atoms: O_2  and  C_18 
REMARK    2  A    between atoms: O_2  and  C_22 
REMARK    3  A    between atoms: O_4  and  C_14 
REMARK    4  A    between atoms: O_5  and  C_21 
REMARK    5  A    between atoms: O_5  and  C_25 
REMARK    6  A    between atoms: O_6  and  C_15 
REMARK    7  A    between atoms: O_7  and  C_16 
REMARK    8  A    between atoms: O_8  and  C_17 
REMARK    9  A    between atoms: O_9  and  C_19 
REMARK   10  A    between atoms: O_10  and  C_20 
REMARK   11  A    between atoms: O_11  and  C_30 
REMARK   12  A    between atoms: O_12  and  C_32 
REMARK   13  A    between atoms: C_13  and  C_22 
REMARK   14  A    between atoms: C_25  and  C_26 
REMARK   15  A    between atoms: C_26  and  C_27 
ROOT
HETATM    1  O   UNK     0     -61.456 -25.038  -1.813  0.00  0.00    -0.348 OA
HETATM    2  C   UNK     0     -60.070 -25.371  -1.721  0.00  0.00     0.180 C 
HETATM    3  C   UNK     0     -59.275 -24.161  -1.226  0.00  0.00     0.180 C 
HETATM    4  C   UNK     0     -59.510 -22.950  -2.130  0.00  0.00     0.183 C 
HETATM    5  C   UNK     0     -61.002 -22.718  -2.366  0.00  0.00     0.204 C 
HETATM    6  C   UNK     0     -61.709 -24.011  -2.769  0.00  0.00     0.291 C 
ENDROOT
BRANCH   2   7
HETATM    7  C   UNK     0     -59.943 -26.557  -0.770  0.00  0.00     0.205 C 
BRANCH   7   8
HETATM    8  O   UNK     0     -61.134 -26.663  -0.003  0.00  0.00    -0.356 OA
BRANCH   8   9
HETATM    9  C   UNK     0     -60.849 -26.927   1.367  0.00  0.00     0.291 C 
HETATM   10  O   UNK     0     -61.959 -27.515   2.053  0.00  0.00    -0.351 OA
HETATM   11  C   UNK     0     -63.109 -26.668   2.142  0.00  0.00     0.152 C 
HETATM   12  C   UNK     0     -62.777 -25.363   2.879  0.00  0.00     0.178 C 
HETATM   13  C   UNK     0     -64.197 -27.467   2.856  0.00  0.00     0.042 C 
HETATM   14  C   UNK     0     -61.586 -24.673   2.213  0.00  0.00     0.183 C 
HETATM   15  C   UNK     0     -60.409 -25.638   2.059  0.00  0.00     0.204 C 
BRANCH  12  16
HETATM   16  O   UNK     0     -63.888 -24.473   2.832  0.00  0.00    -0.390 OA
HETATM   17  H   UNK     0     -64.702 -25.003   2.882  0.00  0.00     0.210 HD
ENDBRANCH  12  16
BRANCH  14  18
HETATM   18  O   UNK     0     -61.193 -23.551   3.002  0.00  0.00    -0.390 OA
HETATM   19  H   UNK     0     -62.004 -23.120   3.322  0.00  0.00     0.210 HD
ENDBRANCH  14  18
BRANCH  15  20
HETATM   20  O   UNK     0     -59.895 -25.989   3.345  0.00  0.00    -0.388 OA
HETATM   21  H   UNK     0     -59.950 -26.956   3.430  0.00  0.00     0.210 HD
ENDBRANCH  15  20
ENDBRANCH   8   9
ENDBRANCH   7   8
ENDBRANCH   2   7
BRANCH   6  22
HETATM   22  O   UNK     0     -63.110 -23.745  -2.832  0.00  0.00    -0.358 OA
BRANCH  22  23
HETATM   23  C   UNK     0     -63.841 -24.628  -1.995  0.00  0.00     0.175 C 
BRANCH  23  24
HETATM   24  C   UNK     0     -65.304 -24.648  -2.421  0.00  0.00     0.065 C 
BRANCH  24  25
HETATM   25  C   UNK     0     -66.244 -24.753  -1.245  0.00  0.00    -0.053 A 
HETATM   26  C   UNK     0     -67.554 -24.290  -1.355  0.00  0.00     0.046 A 
HETATM   27  C   UNK     0     -68.423 -24.389  -0.267  0.00  0.00     0.099 A 
HETATM   28  C   UNK     0     -67.979 -24.951   0.930  0.00  0.00     0.098 A 
HETATM   29  C   UNK     0     -66.669 -25.414   1.040  0.00  0.00     0.040 A 
HETATM   30  C   UNK     0     -65.800 -25.316  -0.047  0.00  0.00     0.010 A 
BRANCH  27  31
HETATM   31  O   UNK     0     -69.701 -23.935  -0.387  0.00  0.00    -0.358 OA
HETATM   32  H   UNK     0     -70.050 -23.732   0.498  0.00  0.00     0.217 HD
ENDBRANCH  27  31
BRANCH  28  33
HETATM   33  O   UNK     0     -68.819 -25.053   1.999  0.00  0.00    -0.358 OA
HETATM   34  H   UNK     0     -69.729 -25.168   1.677  0.00  0.00     0.217 HD
ENDBRANCH  28  33
ENDBRANCH  24  25
ENDBRANCH  23  24
ENDBRANCH  22  23
ENDBRANCH   6  22
BRANCH   3  35
HETATM   35  O   UNK     0     -57.886 -24.481  -1.218  0.00  0.00    -0.390 OA
HETATM   36  H   UNK     0     -57.401 -23.707  -0.882  0.00  0.00     0.210 HD
ENDBRANCH   3  35
BRANCH   5  37
HETATM   37  O   UNK     0     -61.173 -21.768  -3.417  0.00  0.00    -0.388 OA
HETATM   38  H   UNK     0     -60.295 -21.431  -3.666  0.00  0.00     0.210 HD
ENDBRANCH   5  37
BRANCH   4  39
HETATM   39  O   UNK     0     -58.945 -21.804  -1.489  0.00  0.00    -0.390 OA
HETATM   40  H   UNK     0     -59.674 -21.264  -1.137  0.00  0.00     0.210 HD
ENDBRANCH   4  39
TORSDOF 15
ENDMDL
MODEL 6
REMARK VINA RESULT:      -8.3      2.477      6.545
REMARK  15 active torsions:
REMARK  status: ('A' for Active; 'I' for Inactive)
REMARK    1  A    between atoms: O_2  and  C_18 
REMARK    2  A    between atoms: O_2  and  C_22 
REMARK    3  A    between atoms: O_4  and  C_14 
REMARK    4  A    between atoms: O_5  and  C_21 
REMARK    5  A    between atoms: O_5  and  C_25 
REMARK    6  A    between atoms: O_6  and  C_15 
REMARK    7  A    between atoms: O_7  and  C_16 
REMARK    8  A    between atoms: O_8  and  C_17 
REMARK    9  A    between atoms: O_9  and  C_19 
REMARK   10  A    between atoms: O_10  and  C_20 
REMARK   11  A    between atoms: O_11  and  C_30 
REMARK   12  A    between atoms: O_12  and  C_32 
REMARK   13  A    between atoms: C_13  and  C_22 
REMARK   14  A    between atoms: C_25  and  C_26 
REMARK   15  A    between atoms: C_26  and  C_27 
ROOT
HETATM    1  O   UNK     0     -60.556 -23.184  -2.071  0.00  0.00    -0.348 OA
HETATM    2  C   UNK     0     -59.675 -22.135  -1.663  0.00  0.00     0.180 C 
HETATM    3  C   UNK     0     -60.441 -21.106  -0.829  0.00  0.00     0.180 C 
HETATM    4  C   UNK     0     -61.647 -20.570  -1.600  0.00  0.00     0.183 C 
HETATM    5  C   UNK     0     -62.480 -21.709  -2.185  0.00  0.00     0.204 C 
HETATM    6  C   UNK     0     -61.602 -22.721  -2.921  0.00  0.00     0.291 C 
ENDROOT
BRANCH   2   7
HETATM    7  C   UNK     0     -58.537 -22.771  -0.872  0.00  0.00     0.205 C 
BRANCH   7   8
HETATM    8  O   UNK     0     -58.981 -24.010  -0.338  0.00  0.00    -0.356 OA
BRANCH   8   9
HETATM    9  C   UNK     0     -58.662 -24.125   1.045  0.00  0.00     0.291 C 
HETATM   10  O   UNK     0     -58.155 -25.421   1.383  0.00  0.00    -0.351 OA
HETATM   11  C   UNK     0     -59.097 -26.484   1.201  0.00  0.00     0.152 C 
HETATM   12  C   UNK     0     -60.351 -26.263   2.058  0.00  0.00     0.178 C 
HETATM   13  C   UNK     0     -58.377 -27.782   1.562  0.00  0.00     0.042 C 
HETATM   14  C   UNK     0     -60.951 -24.888   1.766  0.00  0.00     0.183 C 
HETATM   15  C   UNK     0     -59.891 -23.791   1.887  0.00  0.00     0.204 C 
BRANCH  12  16
HETATM   16  O   UNK     0     -61.334 -27.250   1.758  0.00  0.00    -0.390 OA
HETATM   17  H   UNK     0     -62.092 -27.111   2.352  0.00  0.00     0.210 HD
ENDBRANCH  12  16
BRANCH  14  18
HETATM   18  O   UNK     0     -62.015 -24.637   2.681  0.00  0.00    -0.390 OA
HETATM   19  H   UNK     0     -62.849 -24.700   2.184  0.00  0.00     0.210 HD
ENDBRANCH  14  18
BRANCH  15  20
HETATM   20  O   UNK     0     -59.467 -23.670   3.246  0.00  0.00    -0.388 OA
HETATM   21  H   UNK     0     -59.241 -22.738   3.402  0.00  0.00     0.210 HD
ENDBRANCH  15  20
ENDBRANCH   8   9
ENDBRANCH   7   8
ENDBRANCH   2   7
BRANCH   6  22
HETATM   22  O   UNK     0     -62.428 -23.818  -3.311  0.00  0.00    -0.358 OA
BRANCH  22  23
HETATM   23  C   UNK     0     -62.893 -24.542  -2.182  0.00  0.00     0.175 C 
BRANCH  23  24
HETATM   24  C   UNK     0     -64.295 -25.074  -2.454  0.00  0.00     0.065 C 
BRANCH  24  25
HETATM   25  C   UNK     0     -65.223 -24.874  -1.281  0.00  0.00    -0.053 A 
HETATM   26  C   UNK     0     -64.732 -24.969   0.021  0.00  0.00     0.046 A 
HETATM   27  C   UNK     0     -65.590 -24.782   1.105  0.00  0.00     0.099 A 
HETATM   28  C   UNK     0     -66.939 -24.501   0.887  0.00  0.00     0.098 A 
HETATM   29  C   UNK     0     -67.429 -24.405  -0.415  0.00  0.00     0.040 A 
HETATM   30  C   UNK     0     -66.572 -24.591  -1.500  0.00  0.00     0.010 A 
BRANCH  27  31
HETATM   31  O   UNK     0     -65.099 -24.876   2.372  0.00  0.00    -0.358 OA
HETATM   32  H   UNK     0     -65.820 -25.132   2.973  0.00  0.00     0.217 HD
ENDBRANCH  27  31
BRANCH  28  33
HETATM   33  O   UNK     0     -67.786 -24.316   1.938  0.00  0.00    -0.358 OA
HETATM   34  H   UNK     0     -67.588 -23.461   2.358  0.00  0.00     0.217 HD
ENDBRANCH  28  33
ENDBRANCH  24  25
ENDBRANCH  23  24
ENDBRANCH  22  23
ENDBRANCH   6  22
BRANCH   3  35
HETATM   35  O   UNK     0     -59.572 -20.026  -0.500  0.00  0.00    -0.390 OA
HETATM   36  H   UNK     0     -58.895 -19.963  -1.195  0.00  0.00     0.210 HD
ENDBRANCH   3  35
BRANCH   5  37
HETATM   37  O   UNK     0     -63.424 -21.177  -3.115  0.00  0.00    -0.388 OA
HETATM   38  H   UNK     0     -64.274 -21.069  -2.655  0.00  0.00     0.210 HD
ENDBRANCH   5  37
BRANCH   4  39
HETATM   39  O   UNK     0     -62.449 -19.810  -0.694  0.00  0.00    -0.390 OA
HETATM   40  H   UNK     0     -62.115 -19.962   0.206  0.00  0.00     0.210 HD
ENDBRANCH   4  39
TORSDOF 15
ENDMDL
MODEL 7
REMARK VINA RESULT:      -8.3      3.031      5.700
REMARK  15 active torsions:
REMARK  status: ('A' for Active; 'I' for Inactive)
REMARK    1  A    between atoms: O_2  and  C_18 
REMARK    2  A    between atoms: O_2  and  C_22 
REMARK    3  A    between atoms: O_4  and  C_14 
REMARK    4  A    between atoms: O_5  and  C_21 
REMARK    5  A    between atoms: O_5  and  C_25 
REMARK    6  A    between atoms: O_6  and  C_15 
REMARK    7  A    between atoms: O_7  and  C_16 
REMARK    8  A    between atoms: O_8  and  C_17 
REMARK    9  A    between atoms: O_9  and  C_19 
REMARK   10  A    between atoms: O_10  and  C_20 
REMARK   11  A    between atoms: O_11  and  C_30 
REMARK   12  A    between atoms: O_12  and  C_32 
REMARK   13  A    between atoms: C_13  and  C_22 
REMARK   14  A    between atoms: C_25  and  C_26 
REMARK   15  A    between atoms: C_26  and  C_27 
ROOT
HETATM    1  O   UNK     0     -61.490 -24.301   2.763  0.00  0.00    -0.348 OA
HETATM    2  C   UNK     0     -62.327 -25.239   2.083  0.00  0.00     0.180 C 
HETATM    3  C   UNK     0     -61.741 -26.647   2.207  0.00  0.00     0.180 C 
HETATM    4  C   UNK     0     -60.304 -26.685   1.686  0.00  0.00     0.183 C 
HETATM    5  C   UNK     0     -59.467 -25.558   2.291  0.00  0.00     0.204 C 
HETATM    6  C   UNK     0     -60.188 -24.214   2.190  0.00  0.00     0.291 C 
ENDROOT
BRANCH   2   7
HETATM    7  C   UNK     0     -63.718 -25.149   2.703  0.00  0.00     0.205 C 
BRANCH   7   8
HETATM    8  O   UNK     0     -64.637 -24.710   1.713  0.00  0.00    -0.356 OA
BRANCH   8   9
HETATM    9  C   UNK     0     -65.308 -25.807   1.102  0.00  0.00     0.291 C 
HETATM   10  O   UNK     0     -65.613 -25.563  -0.275  0.00  0.00    -0.351 OA
HETATM   11  C   UNK     0     -66.535 -24.489  -0.490  0.00  0.00     0.152 C 
HETATM   12  C   UNK     0     -67.871 -24.759   0.217  0.00  0.00     0.178 C 
HETATM   13  C   UNK     0     -66.706 -24.344  -2.000  0.00  0.00     0.042 C 
HETATM   14  C   UNK     0     -67.632 -25.043   1.700  0.00  0.00     0.183 C 
HETATM   15  C   UNK     0     -66.577 -26.136   1.886  0.00  0.00     0.204 C 
BRANCH  12  16
HETATM   16  O   UNK     0     -68.722 -23.621   0.115  0.00  0.00    -0.390 OA
HETATM   17  H   UNK     0     -68.353 -22.917   0.675  0.00  0.00     0.210 HD
ENDBRANCH  12  16
BRANCH  14  18
HETATM   18  O   UNK     0     -68.859 -25.446   2.304  0.00  0.00    -0.390 OA
HETATM   19  H   UNK     0     -69.528 -25.500   1.601  0.00  0.00     0.210 HD
ENDBRANCH  14  18
BRANCH  15  20
HETATM   20  O   UNK     0     -67.077 -27.383   1.400  0.00  0.00    -0.388 OA
HETATM   21  H   UNK     0     -68.033 -27.281   1.258  0.00  0.00     0.210 HD
ENDBRANCH  15  20
ENDBRANCH   8   9
ENDBRANCH   7   8
ENDBRANCH   2   7
BRANCH   6  22
HETATM   22  O   UNK     0     -59.413 -23.245   2.897  0.00  0.00    -0.358 OA
BRANCH  22  23
HETATM   23  C   UNK     0     -59.272 -22.050   2.146  0.00  0.00     0.175 C 
BRANCH  23  24
HETATM   24  C   UNK     0     -59.410 -22.357   0.659  0.00  0.00     0.065 C 
BRANCH  24  25
HETATM   25  C   UNK     0     -59.675 -21.118  -0.161  0.00  0.00    -0.053 A 
HETATM   26  C   UNK     0     -58.610 -20.379  -0.673  0.00  0.00     0.046 A 
HETATM   27  C   UNK     0     -58.856 -19.235  -1.433  0.00  0.00     0.099 A 
HETATM   28  C   UNK     0     -60.168 -18.831  -1.679  0.00  0.00     0.098 A 
HETATM   29  C   UNK     0     -61.233 -19.570  -1.168  0.00  0.00     0.040 A 
HETATM   30  C   UNK     0     -60.988 -20.714  -0.409  0.00  0.00     0.010 A 
BRANCH  27  31
HETATM   31  O   UNK     0     -57.807 -18.522  -1.929  0.00  0.00    -0.358 OA
HETATM   32  H   UNK     0     -58.033 -17.576  -1.916  0.00  0.00     0.217 HD
ENDBRANCH  27  31
BRANCH  28  33
HETATM   33  O   UNK     0     -60.420 -17.715  -2.420  0.00  0.00    -0.358 OA
HETATM   34  H   UNK     0     -61.195 -17.879  -2.985  0.00  0.00     0.217 HD
ENDBRANCH  28  33
ENDBRANCH  24  25
ENDBRANCH  23  24
ENDBRANCH  22  23
ENDBRANCH   6  22
BRANCH   3  35
HETATM   35  O   UNK     0     -62.539 -27.557   1.455  0.00  0.00    -0.390 OA
HETATM   36  H   UNK     0     -63.376 -27.113   1.237  0.00  0.00     0.210 HD
ENDBRANCH   3  35
BRANCH   5  37
HETATM   37  O   UNK     0     -58.230 -25.455   1.586  0.00  0.00    -0.388 OA
HETATM   38  H   UNK     0     -57.507 -25.583   2.225  0.00  0.00     0.210 HD
ENDBRANCH   5  37
BRANCH   4  39
HETATM   39  O   UNK     0     -59.736 -27.945   2.048  0.00  0.00    -0.390 OA
HETATM   40  H   UNK     0     -60.374 -28.642   1.817  0.00  0.00     0.210 HD
ENDBRANCH   4  39
TORSDOF 15
ENDMDL
MODEL 8
REMARK VINA RESULT:      -8.3      3.776      7.960
REMARK  15 active torsions:
REMARK  status: ('A' for Active; 'I' for Inactive)
REMARK    1  A    between atoms: O_2  and  C_18 
REMARK    2  A    between atoms: O_2  and  C_22 
REMARK    3  A    between atoms: O_4  and  C_14 
REMARK    4  A    between atoms: O_5  and  C_21 
REMARK    5  A    between atoms: O_5  and  C_25 
REMARK    6  A    between atoms: O_6  and  C_15 
REMARK    7  A    between atoms: O_7  and  C_16 
REMARK    8  A    between atoms: O_8  and  C_17 
REMARK    9  A    between atoms: O_9  and  C_19 
REMARK   10  A    between atoms: O_10  and  C_20 
REMARK   11  A    between atoms: O_11  and  C_30 
REMARK   12  A    between atoms: O_12  and  C_32 
REMARK   13  A    between atoms: C_13  and  C_22 
REMARK   14  A    between atoms: C_25  and  C_26 
REMARK   15  A    between atoms: C_26  and  C_27 
ROOT
HETATM    1  O   UNK     0     -59.959 -20.565  -2.986  0.00  0.00    -0.348 OA
HETATM    2  C   UNK     0     -59.999 -19.399  -3.811  0.00  0.00     0.180 C 
HETATM    3  C   UNK     0     -61.141 -18.484  -3.365  0.00  0.00     0.180 C 
HETATM    4  C   UNK     0     -62.473 -19.233  -3.374  0.00  0.00     0.183 C 
HETATM    5  C   UNK     0     -62.362 -20.568  -2.639  0.00  0.00     0.204 C 
HETATM    6  C   UNK     0     -61.138 -21.358  -3.102  0.00  0.00     0.291 C 
ENDROOT
BRANCH   2   7
HETATM    7  C   UNK     0     -58.643 -18.709  -3.699  0.00  0.00     0.205 C 
BRANCH   7   8
HETATM    8  O   UNK     0     -58.103 -18.537  -5.001  0.00  0.00    -0.356 OA
BRANCH   8   9
HETATM    9  C   UNK     0     -56.736 -18.933  -5.053  0.00  0.00     0.291 C 
HETATM   10  O   UNK     0     -56.265 -19.092  -6.395  0.00  0.00    -0.351 OA
HETATM   11  C   UNK     0     -56.912 -20.141  -7.124  0.00  0.00     0.152 C 
HETATM   12  C   UNK     0     -56.721 -21.496  -6.427  0.00  0.00     0.178 C 
HETATM   13  C   UNK     0     -56.321 -20.135  -8.532  0.00  0.00     0.042 C 
HETATM   14  C   UNK     0     -57.192 -21.409  -4.975  0.00  0.00     0.183 C 
HETATM   15  C   UNK     0     -56.543 -20.223  -4.258  0.00  0.00     0.204 C 
BRANCH  12  16
HETATM   16  O   UNK     0     -57.489 -22.501  -7.083  0.00  0.00    -0.390 OA
HETATM   17  H   UNK     0     -58.319 -22.616  -6.589  0.00  0.00     0.210 HD
ENDBRANCH  12  16
BRANCH  14  18
HETATM   18  O   UNK     0     -56.863 -22.622  -4.301  0.00  0.00    -0.390 OA
HETATM   19  H   UNK     0     -56.427 -23.206  -4.946  0.00  0.00     0.210 HD
ENDBRANCH  14  18
BRANCH  15  20
HETATM   20  O   UNK     0     -55.138 -20.445  -4.124  0.00  0.00    -0.388 OA
HETATM   21  H   UNK     0     -54.681 -19.678  -4.510  0.00  0.00     0.210 HD
ENDBRANCH  15  20
ENDBRANCH   8   9
ENDBRANCH   7   8
ENDBRANCH   2   7
BRANCH   6  22
HETATM   22  O   UNK     0     -61.023 -22.517  -2.276  0.00  0.00    -0.358 OA
BRANCH  22  23
HETATM   23  C   UNK     0     -59.945 -23.341  -2.690  0.00  0.00     0.175 C 
BRANCH  23  24
HETATM   24  C   UNK     0     -58.876 -23.372  -1.604  0.00  0.00     0.065 C 
BRANCH  24  25
HETATM   25  C   UNK     0     -58.996 -24.585  -0.714  0.00  0.00    -0.053 A 
HETATM   26  C   UNK     0     -60.091 -25.438  -0.842  0.00  0.00     0.046 A 
HETATM   27  C   UNK     0     -60.200 -26.561  -0.020  0.00  0.00     0.099 A 
HETATM   28  C   UNK     0     -59.215 -26.828   0.930  0.00  0.00     0.098 A 
HETATM   29  C   UNK     0     -58.120 -25.975   1.057  0.00  0.00     0.040 A 
HETATM   30  C   UNK     0     -58.009 -24.853   0.236  0.00  0.00     0.010 A 
BRANCH  27  31
HETATM   31  O   UNK     0     -61.274 -27.388  -0.156  0.00  0.00    -0.358 OA
HETATM   32  H   UNK     0     -62.087 -26.882   0.014  0.00  0.00     0.217 HD
ENDBRANCH  27  31
BRANCH  28  33
HETATM   33  O   UNK     0     -59.311 -27.921   1.738  0.00  0.00    -0.358 OA
HETATM   34  H   UNK     0     -59.083 -27.663   2.648  0.00  0.00     0.217 HD
ENDBRANCH  28  33
ENDBRANCH  24  25
ENDBRANCH  23  24
ENDBRANCH  22  23
ENDBRANCH   6  22
BRANCH   3  35
HETATM   35  O   UNK     0     -61.221 -17.367  -4.247  0.00  0.00    -0.390 OA
HETATM   36  H   UNK     0     -62.064 -16.911  -4.078  0.00  0.00     0.210 HD
ENDBRANCH   3  35
BRANCH   5  37
HETATM   37  O   UNK     0     -63.525 -21.353  -2.901  0.00  0.00    -0.388 OA
HETATM   38  H   UNK     0     -64.072 -20.874  -3.548  0.00  0.00     0.210 HD
ENDBRANCH   5  37
BRANCH   4  39
HETATM   39  O   UNK     0     -63.446 -18.412  -2.725  0.00  0.00    -0.390 OA
HETATM   40  H   UNK     0     -63.567 -17.607  -3.257  0.00  0.00     0.210 HD
ENDBRANCH   4  39
TORSDOF 15
ENDMDL
MODEL 9
REMARK VINA RESULT:      -8.3      3.785      5.353
REMARK  15 active torsions:
REMARK  status: ('A' for Active; 'I' for Inactive)
REMARK    1  A    between atoms: O_2  and  C_18 
REMARK    2  A    between atoms: O_2  and  C_22 
REMARK    3  A    between atoms: O_4  and  C_14 
REMARK    4  A    between atoms: O_5  and  C_21 
REMARK    5  A    between atoms: O_5  and  C_25 
REMARK    6  A    between atoms: O_6  and  C_15 
REMARK    7  A    between atoms: O_7  and  C_16 
REMARK    8  A    between atoms: O_8  and  C_17 
REMARK    9  A    between atoms: O_9  and  C_19 
REMARK   10  A    between atoms: O_10  and  C_20 
REMARK   11  A    between atoms: O_11  and  C_30 
REMARK   12  A    between atoms: O_12  and  C_32 
REMARK   13  A    between atoms: C_13  and  C_22 
REMARK   14  A    between atoms: C_25  and  C_26 
REMARK   15  A    between atoms: C_26  and  C_27 
ROOT
HETATM    1  O   UNK     0     -59.355 -21.990  -3.178  0.00  0.00    -0.348 OA
HETATM    2  C   UNK     0     -60.063 -22.394  -2.005  0.00  0.00     0.180 C 
HETATM    3  C   UNK     0     -61.563 -22.159  -2.194  0.00  0.00     0.180 C 
HETATM    4  C   UNK     0     -61.844 -20.700  -2.552  0.00  0.00     0.183 C 
HETATM    5  C   UNK     0     -60.945 -20.229  -3.695  0.00  0.00     0.204 C 
HETATM    6  C   UNK     0     -59.483 -20.593  -3.440  0.00  0.00     0.291 C 
ENDROOT
BRANCH   2   7
HETATM    7  C   UNK     0     -59.747 -23.867  -1.762  0.00  0.00     0.205 C 
BRANCH   7   8
HETATM    8  O   UNK     0     -60.326 -24.266  -0.528  0.00  0.00    -0.356 OA
BRANCH   8   9
HETATM    9  C   UNK     0     -59.370 -24.248   0.526  0.00  0.00     0.291 C 
HETATM   10  O   UNK     0     -58.519 -25.399   0.512  0.00  0.00    -0.351 OA
HETATM   11  C   UNK     0     -59.203 -26.636   0.746  0.00  0.00     0.152 C 
HETATM   12  C   UNK     0     -59.909 -26.626   2.109  0.00  0.00     0.178 C 
HETATM   13  C   UNK     0     -58.159 -27.746   0.651  0.00  0.00     0.042 C 
HETATM   14  C   UNK     0     -60.833 -25.412   2.212  0.00  0.00     0.183 C 
HETATM   15  C   UNK     0     -60.085 -24.122   1.870  0.00  0.00     0.204 C 
BRANCH  12  16
HETATM   16  O   UNK     0     -60.700 -27.800   2.263  0.00  0.00    -0.390 OA
HETATM   17  H   UNK     0     -61.310 -27.855   1.507  0.00  0.00     0.210 HD
ENDBRANCH  12  16
BRANCH  14  18
HETATM   18  O   UNK     0     -61.357 -25.332   3.536  0.00  0.00    -0.390 OA
HETATM   19  H   UNK     0     -61.634 -24.412   3.686  0.00  0.00     0.210 HD
ENDBRANCH  14  18
BRANCH  15  20
HETATM   20  O   UNK     0     -59.096 -23.854   2.865  0.00  0.00    -0.388 OA
HETATM   21  H   UNK     0     -58.421 -23.282   2.463  0.00  0.00     0.210 HD
ENDBRANCH  15  20
ENDBRANCH   8   9
ENDBRANCH   7   8
ENDBRANCH   2   7
BRANCH   6  22
HETATM   22  O   UNK     0     -58.734 -20.251  -4.606  0.00  0.00    -0.358 OA
BRANCH  22  23
HETATM   23  C   UNK     0     -57.621 -19.433  -4.283  0.00  0.00     0.175 C 
BRANCH  23  24
HETATM   24  C   UNK     0     -56.460 -20.304  -3.819  0.00  0.00     0.065 C 
BRANCH  24  25
HETATM   25  C   UNK     0     -55.741 -20.965  -4.970  0.00  0.00    -0.053 A 
HETATM   26  C   UNK     0     -55.595 -22.351  -4.997  0.00  0.00     0.046 A 
HETATM   27  C   UNK     0     -54.932 -22.961  -6.062  0.00  0.00     0.099 A 
HETATM   28  C   UNK     0     -54.416 -22.184  -7.099  0.00  0.00     0.098 A 
HETATM   29  C   UNK     0     -54.562 -20.798  -7.072  0.00  0.00     0.040 A 
HETATM   30  C   UNK     0     -55.225 -20.187  -6.008  0.00  0.00     0.010 A 
BRANCH  27  31
HETATM   31  O   UNK     0     -54.797 -24.317  -6.079  0.00  0.00    -0.358 OA
HETATM   32  H   UNK     0     -55.294 -24.675  -6.834  0.00  0.00     0.217 HD
ENDBRANCH  27  31
BRANCH  28  33
HETATM   33  O   UNK     0     -53.766 -22.769  -8.145  0.00  0.00    -0.358 OA
HETATM   34  H   UNK     0     -54.014 -23.709  -8.186  0.00  0.00     0.217 HD
ENDBRANCH  28  33
ENDBRANCH  24  25
ENDBRANCH  23  24
ENDBRANCH  22  23
ENDBRANCH   6  22
BRANCH   3  35
HETATM   35  O   UNK     0     -62.247 -22.489  -0.987  0.00  0.00    -0.390 OA
HETATM   36  H   UNK     0     -61.602 -22.883  -0.375  0.00  0.00     0.210 HD
ENDBRANCH   3  35
BRANCH   5  37
HETATM   37  O   UNK     0     -61.037 -18.809  -3.815  0.00  0.00    -0.388 OA
HETATM   38  H   UNK     0     -61.972 -18.559  -3.727  0.00  0.00     0.210 HD
ENDBRANCH   5  37
BRANCH   4  39
HETATM   39  O   UNK     0     -63.212 -20.598  -2.949  0.00  0.00    -0.390 OA
HETATM   40  H   UNK     0     -63.644 -19.935  -2.383  0.00  0.00     0.210 HD
ENDBRANCH   4  39
TORSDOF 15
ENDMDL
MODEL 10
REMARK VINA RESULT:      -8.3      3.927      5.356
REMARK  15 active torsions:
REMARK  status: ('A' for Active; 'I' for Inactive)
REMARK    1  A    between atoms: O_2  and  C_18 
REMARK    2  A    between atoms: O_2  and  C_22 
REMARK    3  A    between atoms: O_4  and  C_14 
REMARK    4  A    between atoms: O_5  and  C_21 
REMARK    5  A    between atoms: O_5  and  C_25 
REMARK    6  A    between atoms: O_6  and  C_15 
REMARK    7  A    between atoms: O_7  and  C_16 
REMARK    8  A    between atoms: O_8  and  C_17 
REMARK    9  A    between atoms: O_9  and  C_19 
REMARK   10  A    between atoms: O_10  and  C_20 
REMARK   11  A    between atoms: O_11  and  C_30 
REMARK   12  A    between atoms: O_12  and  C_32 
REMARK   13  A    between atoms: C_13  and  C_22 
REMARK   14  A    between atoms: C_25  and  C_26 
REMARK   15  A    between atoms: C_26  and  C_27 
ROOT
HETATM    1  O   UNK     0     -59.503 -21.266  -2.742  0.00  0.00    -0.348 OA
HETATM    2  C   UNK     0     -60.777 -21.799  -2.373  0.00  0.00     0.180 C 
HETATM    3  C   UNK     0     -61.865 -21.226  -3.284  0.00  0.00     0.180 C 
HETATM    4  C   UNK     0     -61.856 -19.698  -3.247  0.00  0.00     0.183 C 
HETATM    5  C   UNK     0     -60.446 -19.149  -3.464  0.00  0.00     0.204 C 
HETATM    6  C   UNK     0     -59.430 -19.853  -2.566  0.00  0.00     0.291 C 
ENDROOT
BRANCH   2   7
HETATM    7  C   UNK     0     -60.690 -23.318  -2.483  0.00  0.00     0.205 C 
BRANCH   7   8
HETATM    8  O   UNK     0     -60.467 -23.862  -1.190  0.00  0.00    -0.356 OA
BRANCH   8   9
HETATM    9  C   UNK     0     -61.514 -23.513  -0.291  0.00  0.00     0.291 C 
HETATM   10  O   UNK     0     -61.020 -23.062   0.975  0.00  0.00    -0.351 OA
HETATM   11  C   UNK     0     -60.307 -24.059   1.715  0.00  0.00     0.152 C 
HETATM   12  C   UNK     0     -61.198 -25.277   1.998  0.00  0.00     0.178 C 
HETATM   13  C   UNK     0     -59.820 -23.395   3.001  0.00  0.00     0.042 C 
HETATM   14  C   UNK     0     -61.780 -25.817   0.691  0.00  0.00     0.183 C 
HETATM   15  C   UNK     0     -62.456 -24.702  -0.109  0.00  0.00     0.204 C 
BRANCH  12  16
HETATM   16  O   UNK     0     -60.434 -26.315   2.606  0.00  0.00    -0.390 OA
HETATM   17  H   UNK     0     -60.878 -26.572   3.432  0.00  0.00     0.210 HD
ENDBRANCH  12  16
BRANCH  14  18
HETATM   18  O   UNK     0     -62.724 -26.843   0.987  0.00  0.00    -0.390 OA
HETATM   19  H   UNK     0     -62.438 -27.277   1.809  0.00  0.00     0.210 HD
ENDBRANCH  14  18
BRANCH  15  20
HETATM   20  O   UNK     0     -63.614 -24.237   0.587  0.00  0.00    -0.388 OA
HETATM   21  H   UNK     0     -64.277 -24.947   0.562  0.00  0.00     0.210 HD
ENDBRANCH  15  20
ENDBRANCH   8   9
ENDBRANCH   7   8
ENDBRANCH   2   7
BRANCH   6  22
HETATM   22  O   UNK     0     -58.128 -19.390  -2.927  0.00  0.00    -0.358 OA
BRANCH  22  23
HETATM   23  C   UNK     0     -57.623 -20.094  -4.050  0.00  0.00     0.175 C 
BRANCH  23  24
HETATM   24  C   UNK     0     -56.129 -20.340  -3.873  0.00  0.00     0.065 C 
BRANCH  24  25
HETATM   25  C   UNK     0     -55.515 -21.030  -5.067  0.00  0.00    -0.053 A 
HETATM   26  C   UNK     0     -55.492 -22.423  -5.132  0.00  0.00     0.046 A 
HETATM   27  C   UNK     0     -54.926 -23.060  -6.236  0.00  0.00     0.099 A 
HETATM   28  C   UNK     0     -54.382 -22.304  -7.275  0.00  0.00     0.098 A 
HETATM   29  C   UNK     0     -54.406 -20.912  -7.210  0.00  0.00     0.040 A 
HETATM   30  C   UNK     0     -54.972 -20.273  -6.106  0.00  0.00     0.010 A 
BRANCH  27  31
HETATM   31  O   UNK     0     -54.911 -24.421  -6.289  0.00  0.00    -0.358 OA
HETATM   32  H   UNK     0     -54.003 -24.721  -6.469  0.00  0.00     0.217 HD
ENDBRANCH  27  31
BRANCH  28  33
HETATM   33  O   UNK     0     -53.827 -22.916  -8.359  0.00  0.00    -0.358 OA
HETATM   34  H   UNK     0     -52.871 -23.019  -8.209  0.00  0.00     0.217 HD
ENDBRANCH  28  33
ENDBRANCH  24  25
ENDBRANCH  23  24
ENDBRANCH  22  23
ENDBRANCH   6  22
BRANCH   3  35
HETATM   35  O   UNK     0     -63.138 -21.700  -2.852  0.00  0.00    -0.390 OA
HETATM   36  H   UNK     0     -63.592 -20.971  -2.396  0.00  0.00     0.210 HD
ENDBRANCH   3  35
BRANCH   5  37
HETATM   37  O   UNK     0     -60.427 -17.756  -3.153  0.00  0.00    -0.388 OA
HETATM   38  H   UNK     0     -60.758 -17.645  -2.244  0.00  0.00     0.210 HD
ENDBRANCH   5  37
BRANCH   4  39
HETATM   39  O   UNK     0     -62.716 -19.225  -4.285  0.00  0.00    -0.390 OA
HETATM   40  H   UNK     0     -63.458 -18.752  -3.872  0.00  0.00     0.210 HD
ENDBRANCH   4  39
TORSDOF 15
ENDMDL
