MODEL 1
REMARK VINA RESULT:      -8.6      0.000      0.000
REMARK  15 active torsions:
REMARK  status: ('A' for Active; 'I' for Inactive)
REMARK    1  A    between atoms: O_2  and  C_18 
REMARK    2  A    between atoms: O_2  and  C_22 
REMARK    3  A    between atoms: O_4  and  C_14 
REMARK    4  A    between atoms: O_5  and  C_21 
REMARK    5  A    between atoms: O_5  and  C_25 
REMARK    6  A    between atoms: O_6  and  C_15 
REMARK    7  A    between atoms: O_7  and  C_16 
REMARK    8  A    between atoms: O_8  and  C_17 
REMARK    9  A    between atoms: O_9  and  C_19 
REMARK   10  A    between atoms: O_10  and  C_20 
REMARK   11  A    between atoms: O_11  and  C_30 
REMARK   12  A    between atoms: O_12  and  C_32 
REMARK   13  A    between atoms: C_13  and  C_22 
REMARK   14  A    between atoms: C_25  and  C_26 
REMARK   15  A    between atoms: C_26  and  C_27 
ROOT
HETATM    1  O   UNK     0     -61.239 -23.690  -1.108  0.00  0.00    -0.348 OA
HETATM    2  C   UNK     0     -62.421 -24.466  -1.310  0.00  0.00     0.180 C 
HETATM    3  C   UNK     0     -62.262 -25.345  -2.552  0.00  0.00     0.180 C 
HETATM    4  C   UNK     0     -61.923 -24.496  -3.778  0.00  0.00     0.183 C 
HETATM    5  C   UNK     0     -60.768 -23.539  -3.485  0.00  0.00     0.204 C 
HETATM    6  C   UNK     0     -60.993 -22.780  -2.178  0.00  0.00     0.291 C 
ENDROOT
BRANCH   2   7
HETATM    7  C   UNK     0     -62.645 -25.300  -0.052  0.00  0.00     0.205 C 
BRANCH   7   8
HETATM    8  O   UNK     0     -63.871 -24.911   0.549  0.00  0.00    -0.356 OA
BRANCH   8   9
HETATM    9  C   UNK     0     -64.842 -25.949   0.470  0.00  0.00     0.291 C 
HETATM   10  O   UNK     0     -65.790 -25.733  -0.580  0.00  0.00    -0.351 OA
HETATM   11  C   UNK     0     -66.606 -24.569  -0.404  0.00  0.00     0.152 C 
HETATM   12  C   UNK     0     -67.407 -24.651   0.903  0.00  0.00     0.178 C 
HETATM   13  C   UNK     0     -67.514 -24.473  -1.627  0.00  0.00     0.042 C 
HETATM   14  C   UNK     0     -66.465 -24.896   2.082  0.00  0.00     0.183 C 
HETATM   15  C   UNK     0     -65.552 -26.094   1.815  0.00  0.00     0.204 C 
BRANCH  12  16
HETATM   16  O   UNK     0     -68.100 -23.428   1.134  0.00  0.00    -0.390 OA
HETATM   17  H   UNK     0     -68.333 -23.045   0.271  0.00  0.00     0.210 HD
ENDBRANCH  12  16
BRANCH  14  18
HETATM   18  O   UNK     0     -67.236 -25.126   3.259  0.00  0.00    -0.390 OA
HETATM   19  H   UNK     0     -67.056 -26.035   3.554  0.00  0.00     0.210 HD
ENDBRANCH  14  18
BRANCH  15  20
HETATM   20  O   UNK     0     -66.325 -27.295   1.772  0.00  0.00    -0.388 OA
HETATM   21  H   UNK     0     -66.623 -27.420   0.855  0.00  0.00     0.210 HD
ENDBRANCH  15  20
ENDBRANCH   8   9
ENDBRANCH   7   8
ENDBRANCH   2   7
BRANCH   6  22
HETATM   22  O   UNK     0     -59.816 -22.019  -1.903  0.00  0.00    -0.358 OA
BRANCH  22  23
HETATM   23  C   UNK     0     -58.679 -22.857  -1.774  0.00  0.00     0.175 C 
BRANCH  23  24
HETATM   24  C   UNK     0     -58.275 -22.954  -0.307  0.00  0.00     0.065 C 
BRANCH  24  25
HETATM   25  C   UNK     0     -58.468 -24.342   0.252  0.00  0.00    -0.053 A 
HETATM   26  C   UNK     0     -59.149 -24.521   1.455  0.00  0.00     0.046 A 
HETATM   27  C   UNK     0     -59.329 -25.805   1.970  0.00  0.00     0.099 A 
HETATM   28  C   UNK     0     -58.827 -26.909   1.282  0.00  0.00     0.098 A 
HETATM   29  C   UNK     0     -58.146 -26.730   0.078  0.00  0.00     0.040 A 
HETATM   30  C   UNK     0     -57.967 -25.447  -0.438  0.00  0.00     0.010 A 
BRANCH  27  31
HETATM   31  O   UNK     0     -59.998 -25.967   3.146  0.00  0.00    -0.358 OA
HETATM   32  H   UNK     0     -59.553 -26.655   3.671  0.00  0.00     0.217 HD
ENDBRANCH  27  31
BRANCH  28  33
HETATM   33  O   UNK     0     -58.997 -28.168   1.775  0.00  0.00    -0.358 OA
HETATM   34  H   UNK     0     -58.470 -28.790   1.245  0.00  0.00     0.217 HD
ENDBRANCH  28  33
ENDBRANCH  24  25
ENDBRANCH  23  24
ENDBRANCH  22  23
ENDBRANCH   6  22
BRANCH   3  35
HETATM   35  O   UNK     0     -63.478 -26.050  -2.789  0.00  0.00    -0.390 OA
HETATM   36  H   UNK     0     -63.255 -26.901  -3.205  0.00  0.00     0.210 HD
ENDBRANCH   3  35
BRANCH   5  37
HETATM   37  O   UNK     0     -60.663 -22.586  -4.543  0.00  0.00    -0.388 OA
HETATM   38  H   UNK     0     -61.401 -21.958  -4.458  0.00  0.00     0.210 HD
ENDBRANCH   5  37
BRANCH   4  39
HETATM   39  O   UNK     0     -61.551 -25.380  -4.838  0.00  0.00    -0.390 OA
HETATM   40  H   UNK     0     -62.297 -25.982  -5.005  0.00  0.00     0.210 HD
ENDBRANCH   4  39
TORSDOF 15
ENDMDL
MODEL 2
REMARK VINA RESULT:      -8.6      2.525      6.999
REMARK  15 active torsions:
REMARK  status: ('A' for Active; 'I' for Inactive)
REMARK    1  A    between atoms: O_2  and  C_18 
REMARK    2  A    between atoms: O_2  and  C_22 
REMARK    3  A    between atoms: O_4  and  C_14 
REMARK    4  A    between atoms: O_5  and  C_21 
REMARK    5  A    between atoms: O_5  and  C_25 
REMARK    6  A    between atoms: O_6  and  C_15 
REMARK    7  A    between atoms: O_7  and  C_16 
REMARK    8  A    between atoms: O_8  and  C_17 
REMARK    9  A    between atoms: O_9  and  C_19 
REMARK   10  A    between atoms: O_10  and  C_20 
REMARK   11  A    between atoms: O_11  and  C_30 
REMARK   12  A    between atoms: O_12  and  C_32 
REMARK   13  A    between atoms: C_13  and  C_22 
REMARK   14  A    between atoms: C_25  and  C_26 
REMARK   15  A    between atoms: C_26  and  C_27 
ROOT
HETATM    1  O   UNK     0     -61.709 -23.894   0.620  0.00  0.00    -0.348 OA
HETATM    2  C   UNK     0     -60.344 -23.570   0.890  0.00  0.00     0.180 C 
HETATM    3  C   UNK     0     -59.425 -24.382  -0.026  0.00  0.00     0.180 C 
HETATM    4  C   UNK     0     -59.694 -25.879   0.123  0.00  0.00     0.183 C 
HETATM    5  C   UNK     0     -61.187 -26.186   0.013  0.00  0.00     0.204 C 
HETATM    6  C   UNK     0     -62.013 -25.259   0.902  0.00  0.00     0.291 C 
ENDROOT
BRANCH   2   7
HETATM    7  C   UNK     0     -60.176 -22.069   0.674  0.00  0.00     0.205 C 
BRANCH   7   8
HETATM    8  O   UNK     0     -61.092 -21.641  -0.324  0.00  0.00    -0.356 OA
BRANCH   8   9
HETATM    9  C   UNK     0     -60.995 -20.239  -0.552  0.00  0.00     0.291 C 
HETATM   10  O   UNK     0     -62.116 -19.724  -1.277  0.00  0.00    -0.351 OA
HETATM   11  C   UNK     0     -62.240 -20.238  -2.607  0.00  0.00     0.152 C 
HETATM   12  C   UNK     0     -60.991 -19.918  -3.441  0.00  0.00     0.178 C 
HETATM   13  C   UNK     0     -63.502 -19.621  -3.207  0.00  0.00     0.042 C 
HETATM   14  C   UNK     0     -59.739 -20.426  -2.727  0.00  0.00     0.183 C 
HETATM   15  C   UNK     0     -59.690 -19.925  -1.282  0.00  0.00     0.204 C 
BRANCH  12  16
HETATM   16  O   UNK     0     -61.069 -20.558  -4.711  0.00  0.00    -0.390 OA
HETATM   17  H   UNK     0     -60.807 -19.913  -5.391  0.00  0.00     0.210 HD
ENDBRANCH  12  16
BRANCH  14  18
HETATM   18  O   UNK     0     -58.583 -19.983  -3.434  0.00  0.00    -0.390 OA
HETATM   19  H   UNK     0     -57.817 -20.460  -3.071  0.00  0.00     0.210 HD
ENDBRANCH  14  18
BRANCH  15  20
HETATM   20  O   UNK     0     -59.512 -18.507  -1.264  0.00  0.00    -0.388 OA
HETATM   21  H   UNK     0     -58.560 -18.329  -1.340  0.00  0.00     0.210 HD
ENDBRANCH  15  20
ENDBRANCH   8   9
ENDBRANCH   7   8
ENDBRANCH   2   7
BRANCH   6  22
HETATM   22  O   UNK     0     -63.394 -25.509   0.637  0.00  0.00    -0.358 OA
BRANCH  22  23
HETATM   23  C   UNK     0     -63.943 -24.521  -0.220  0.00  0.00     0.175 C 
BRANCH  23  24
HETATM   24  C   UNK     0     -64.422 -25.171  -1.513  0.00  0.00     0.065 C 
BRANCH  24  25
HETATM   25  C   UNK     0     -63.452 -24.970  -2.652  0.00  0.00    -0.053 A 
HETATM   26  C   UNK     0     -63.481 -25.825  -3.752  0.00  0.00     0.046 A 
HETATM   27  C   UNK     0     -62.585 -25.637  -4.805  0.00  0.00     0.099 A 
HETATM   28  C   UNK     0     -61.660 -24.595  -4.756  0.00  0.00     0.098 A 
HETATM   29  C   UNK     0     -61.631 -23.739  -3.655  0.00  0.00     0.040 A 
HETATM   30  C   UNK     0     -62.527 -23.926  -2.602  0.00  0.00     0.010 A 
BRANCH  27  31
HETATM   31  O   UNK     0     -62.624 -26.478  -5.876  0.00  0.00    -0.358 OA
HETATM   32  H   UNK     0     -62.744 -27.389  -5.559  0.00  0.00     0.217 HD
ENDBRANCH  27  31
BRANCH  28  33
HETATM   33  O   UNK     0     -60.780 -24.401  -5.778  0.00  0.00    -0.358 OA
HETATM   34  H   UNK     0     -60.368 -25.252  -6.007  0.00  0.00     0.217 HD
ENDBRANCH  28  33
ENDBRANCH  24  25
ENDBRANCH  23  24
ENDBRANCH  22  23
ENDBRANCH   6  22
BRANCH   3  35
HETATM   35  O   UNK     0     -58.067 -24.110   0.311  0.00  0.00    -0.390 OA
HETATM   36  H   UNK     0     -57.602 -24.960   0.391  0.00  0.00     0.210 HD
ENDBRANCH   3  35
BRANCH   5  37
HETATM   37  O   UNK     0     -61.426 -27.532   0.426  0.00  0.00    -0.388 OA
HETATM   38  H   UNK     0     -62.371 -27.724   0.293  0.00  0.00     0.210 HD
ENDBRANCH   5  37
BRANCH   4  39
HETATM   39  O   UNK     0     -58.989 -26.560  -0.917  0.00  0.00    -0.390 OA
HETATM   40  H   UNK     0     -59.498 -27.354  -1.157  0.00  0.00     0.210 HD
ENDBRANCH   4  39
TORSDOF 15
ENDMDL
MODEL 3
REMARK VINA RESULT:      -8.5      2.586      5.302
REMARK  15 active torsions:
REMARK  status: ('A' for Active; 'I' for Inactive)
REMARK    1  A    between atoms: O_2  and  C_18 
REMARK    2  A    between atoms: O_2  and  C_22 
REMARK    3  A    between atoms: O_4  and  C_14 
REMARK    4  A    between atoms: O_5  and  C_21 
REMARK    5  A    between atoms: O_5  and  C_25 
REMARK    6  A    between atoms: O_6  and  C_15 
REMARK    7  A    between atoms: O_7  and  C_16 
REMARK    8  A    between atoms: O_8  and  C_17 
REMARK    9  A    between atoms: O_9  and  C_19 
REMARK   10  A    between atoms: O_10  and  C_20 
REMARK   11  A    between atoms: O_11  and  C_30 
REMARK   12  A    between atoms: O_12  and  C_32 
REMARK   13  A    between atoms: C_13  and  C_22 
REMARK   14  A    between atoms: C_25  and  C_26 
REMARK   15  A    between atoms: C_26  and  C_27 
ROOT
HETATM    1  O   UNK     0     -62.104 -23.191  -1.388  0.00  0.00    -0.348 OA
HETATM    2  C   UNK     0     -63.013 -24.245  -1.711  0.00  0.00     0.180 C 
HETATM    3  C   UNK     0     -62.362 -25.208  -2.707  0.00  0.00     0.180 C 
HETATM    4  C   UNK     0     -61.890 -24.462  -3.955  0.00  0.00     0.183 C 
HETATM    5  C   UNK     0     -61.068 -23.228  -3.584  0.00  0.00     0.204 C 
HETATM    6  C   UNK     0     -61.773 -22.389  -2.520  0.00  0.00     0.291 C 
ENDROOT
BRANCH   2   7
HETATM    7  C   UNK     0     -63.386 -24.946  -0.409  0.00  0.00     0.205 C 
BRANCH   7   8
HETATM    8  O   UNK     0     -62.788 -24.253   0.677  0.00  0.00    -0.356 OA
BRANCH   8   9
HETATM    9  C   UNK     0     -62.484 -25.134   1.753  0.00  0.00     0.291 C 
HETATM   10  O   UNK     0     -61.694 -24.505   2.768  0.00  0.00    -0.351 OA
HETATM   11  C   UNK     0     -60.392 -24.101   2.331  0.00  0.00     0.152 C 
HETATM   12  C   UNK     0     -59.582 -25.303   1.825  0.00  0.00     0.178 C 
HETATM   13  C   UNK     0     -59.718 -23.416   3.518  0.00  0.00     0.042 C 
HETATM   14  C   UNK     0     -60.365 -26.042   0.739  0.00  0.00     0.183 C 
HETATM   15  C   UNK     0     -61.779 -26.379   1.216  0.00  0.00     0.204 C 
BRANCH  12  16
HETATM   16  O   UNK     0     -58.349 -24.864   1.262  0.00  0.00    -0.390 OA
HETATM   17  H   UNK     0     -58.290 -25.212   0.356  0.00  0.00     0.210 HD
ENDBRANCH  12  16
BRANCH  14  18
HETATM   18  O   UNK     0     -59.671 -27.239   0.394  0.00  0.00    -0.390 OA
HETATM   19  H   UNK     0     -59.457 -27.703   1.222  0.00  0.00     0.210 HD
ENDBRANCH  14  18
BRANCH  15  20
HETATM   20  O   UNK     0     -61.721 -27.336   2.274  0.00  0.00    -0.388 OA
HETATM   21  H   UNK     0     -62.561 -27.287   2.762  0.00  0.00     0.210 HD
ENDBRANCH  15  20
ENDBRANCH   8   9
ENDBRANCH   7   8
ENDBRANCH   2   7
BRANCH   6  22
HETATM   22  O   UNK     0     -60.886 -21.342  -2.125  0.00  0.00    -0.358 OA
BRANCH  22  23
HETATM   23  C   UNK     0     -59.597 -21.847  -1.817  0.00  0.00     0.175 C 
BRANCH  23  24
HETATM   24  C   UNK     0     -58.566 -20.729  -1.925  0.00  0.00     0.065 C 
BRANCH  24  25
HETATM   25  C   UNK     0     -58.012 -20.327  -0.581  0.00  0.00    -0.053 A 
HETATM   26  C   UNK     0     -56.964 -19.410  -0.504  0.00  0.00     0.046 A 
HETATM   27  C   UNK     0     -56.453 -19.038   0.740  0.00  0.00     0.099 A 
HETATM   28  C   UNK     0     -56.989 -19.583   1.906  0.00  0.00     0.098 A 
HETATM   29  C   UNK     0     -58.038 -20.499   1.829  0.00  0.00     0.040 A 
HETATM   30  C   UNK     0     -58.550 -20.872   0.586  0.00  0.00     0.010 A 
BRANCH  27  31
HETATM   31  O   UNK     0     -55.430 -18.140   0.802  0.00  0.00    -0.358 OA
HETATM   32  H   UNK     0     -54.587 -18.624   0.848  0.00  0.00     0.217 HD
ENDBRANCH  27  31
BRANCH  28  33
HETATM   33  O   UNK     0     -56.498 -19.227   3.127  0.00  0.00    -0.358 OA
HETATM   34  H   UNK     0     -56.012 -19.980   3.504  0.00  0.00     0.217 HD
ENDBRANCH  28  33
ENDBRANCH  24  25
ENDBRANCH  23  24
ENDBRANCH  22  23
ENDBRANCH   6  22
BRANCH   3  35
HETATM   35  O   UNK     0     -63.307 -26.206  -3.083  0.00  0.00    -0.390 OA
HETATM   36  H   UNK     0     -63.537 -26.717  -2.288  0.00  0.00     0.210 HD
ENDBRANCH   3  35
BRANCH   5  37
HETATM   37  O   UNK     0     -60.882 -22.416  -4.743  0.00  0.00    -0.388 OA
HETATM   38  H   UNK     0     -60.892 -22.997  -5.523  0.00  0.00     0.210 HD
ENDBRANCH   5  37
BRANCH   4  39
HETATM   39  O   UNK     0     -61.085 -25.356  -4.727  0.00  0.00    -0.390 OA
HETATM   40  H   UNK     0     -61.631 -25.704  -5.453  0.00  0.00     0.210 HD
ENDBRANCH   4  39
TORSDOF 15
ENDMDL
MODEL 4
REMARK VINA RESULT:      -8.5      1.837      6.748
REMARK  15 active torsions:
REMARK  status: ('A' for Active; 'I' for Inactive)
REMARK    1  A    between atoms: O_2  and  C_18 
REMARK    2  A    between atoms: O_2  and  C_22 
REMARK    3  A    between atoms: O_4  and  C_14 
REMARK    4  A    between atoms: O_5  and  C_21 
REMARK    5  A    between atoms: O_5  and  C_25 
REMARK    6  A    between atoms: O_6  and  C_15 
REMARK    7  A    between atoms: O_7  and  C_16 
REMARK    8  A    between atoms: O_8  and  C_17 
REMARK    9  A    between atoms: O_9  and  C_19 
REMARK   10  A    between atoms: O_10  and  C_20 
REMARK   11  A    between atoms: O_11  and  C_30 
REMARK   12  A    between atoms: O_12  and  C_32 
REMARK   13  A    between atoms: C_13  and  C_22 
REMARK   14  A    between atoms: C_25  and  C_26 
REMARK   15  A    between atoms: C_26  and  C_27 
ROOT
HETATM    1  O   UNK     0     -60.727 -23.266  -2.072  0.00  0.00    -0.348 OA
HETATM    2  C   UNK     0     -59.793 -22.241  -1.727  0.00  0.00     0.180 C 
HETATM    3  C   UNK     0     -60.486 -21.165  -0.889  0.00  0.00     0.180 C 
HETATM    4  C   UNK     0     -61.701 -20.601  -1.625  0.00  0.00     0.183 C 
HETATM    5  C   UNK     0     -62.599 -21.722  -2.147  0.00  0.00     0.204 C 
HETATM    6  C   UNK     0     -61.790 -22.783  -2.891  0.00  0.00     0.291 C 
ENDROOT
BRANCH   2   7
HETATM    7  C   UNK     0     -58.647 -22.901  -0.965  0.00  0.00     0.205 C 
BRANCH   7   8
HETATM    8  O   UNK     0     -59.126 -24.085  -0.344  0.00  0.00    -0.356 OA
BRANCH   8   9
HETATM    9  C   UNK     0     -58.686 -24.178   1.006  0.00  0.00     0.291 C 
HETATM   10  O   UNK     0     -58.085 -25.444   1.299  0.00  0.00    -0.351 OA
HETATM   11  C   UNK     0     -58.981 -26.556   1.196  0.00  0.00     0.152 C 
HETATM   12  C   UNK     0     -60.167 -26.399   2.157  0.00  0.00     0.178 C 
HETATM   13  C   UNK     0     -58.166 -27.813   1.493  0.00  0.00     0.042 C 
HETATM   14  C   UNK     0     -60.862 -25.059   1.918  0.00  0.00     0.183 C 
HETATM   15  C   UNK     0     -59.856 -23.907   1.950  0.00  0.00     0.204 C 
BRANCH  12  16
HETATM   16  O   UNK     0     -61.119 -27.437   1.939  0.00  0.00    -0.390 OA
HETATM   17  H   UNK     0     -61.252 -27.528   0.980  0.00  0.00     0.210 HD
ENDBRANCH  12  16
BRANCH  14  18
HETATM   18  O   UNK     0     -61.858 -24.861   2.919  0.00  0.00    -0.390 OA
HETATM   19  H   UNK     0     -61.519 -25.240   3.749  0.00  0.00     0.210 HD
ENDBRANCH  14  18
BRANCH  15  20
HETATM   20  O   UNK     0     -59.326 -23.759   3.269  0.00  0.00    -0.388 OA
HETATM   21  H   UNK     0     -59.884 -23.118   3.740  0.00  0.00     0.210 HD
ENDBRANCH  15  20
ENDBRANCH   8   9
ENDBRANCH   7   8
ENDBRANCH   2   7
BRANCH   6  22
HETATM   22  O   UNK     0     -62.671 -23.858  -3.220  0.00  0.00    -0.358 OA
BRANCH  22  23
HETATM   23  C   UNK     0     -63.220 -24.451  -2.054  0.00  0.00     0.175 C 
BRANCH  23  24
HETATM   24  C   UNK     0     -64.637 -24.934  -2.342  0.00  0.00     0.065 C 
BRANCH  24  25
HETATM   25  C   UNK     0     -65.543 -24.803  -1.142  0.00  0.00    -0.053 A 
HETATM   26  C   UNK     0     -66.866 -24.395  -1.308  0.00  0.00     0.046 A 
HETATM   27  C   UNK     0     -67.704 -24.275  -0.199  0.00  0.00     0.099 A 
HETATM   28  C   UNK     0     -67.217 -24.564   1.076  0.00  0.00     0.098 A 
HETATM   29  C   UNK     0     -65.894 -24.972   1.242  0.00  0.00     0.040 A 
HETATM   30  C   UNK     0     -65.056 -25.092   0.134  0.00  0.00     0.010 A 
BRANCH  27  31
HETATM   31  O   UNK     0     -68.995 -23.878  -0.374  0.00  0.00    -0.358 OA
HETATM   32  H   UNK     0     -69.218 -23.933  -1.319  0.00  0.00     0.217 HD
ENDBRANCH  27  31
BRANCH  28  33
HETATM   33  O   UNK     0     -68.026 -24.451   2.168  0.00  0.00    -0.358 OA
HETATM   34  H   UNK     0     -68.854 -24.013   1.904  0.00  0.00     0.217 HD
ENDBRANCH  28  33
ENDBRANCH  24  25
ENDBRANCH  23  24
ENDBRANCH  22  23
ENDBRANCH   6  22
BRANCH   3  35
HETATM   35  O   UNK     0     -59.565 -20.110  -0.623  0.00  0.00    -0.390 OA
HETATM   36  H   UNK     0     -58.764 -20.270  -1.151  0.00  0.00     0.210 HD
ENDBRANCH   3  35
BRANCH   5  37
HETATM   37  O   UNK     0     -63.560 -21.177  -3.052  0.00  0.00    -0.388 OA
HETATM   38  H   UNK     0     -63.164 -20.397  -3.478  0.00  0.00     0.210 HD
ENDBRANCH   5  37
BRANCH   4  39
HETATM   39  O   UNK     0     -62.437 -19.790  -0.708  0.00  0.00    -0.390 OA
HETATM   40  H   UNK     0     -63.294 -20.219  -0.544  0.00  0.00     0.210 HD
ENDBRANCH   4  39
TORSDOF 15
ENDMDL
MODEL 5
REMARK VINA RESULT:      -8.5      3.298      7.029
REMARK  15 active torsions:
REMARK  status: ('A' for Active; 'I' for Inactive)
REMARK    1  A    between atoms: O_2  and  C_18 
REMARK    2  A    between atoms: O_2  and  C_22 
REMARK    3  A    between atoms: O_4  and  C_14 
REMARK    4  A    between atoms: O_5  and  C_21 
REMARK    5  A    between atoms: O_5  and  C_25 
REMARK    6  A    between atoms: O_6  and  C_15 
REMARK    7  A    between atoms: O_7  and  C_16 
REMARK    8  A    between atoms: O_8  and  C_17 
REMARK    9  A    between atoms: O_9  and  C_19 
REMARK   10  A    between atoms: O_10  and  C_20 
REMARK   11  A    between atoms: O_11  and  C_30 
REMARK   12  A    between atoms: O_12  and  C_32 
REMARK   13  A    between atoms: C_13  and  C_22 
REMARK   14  A    between atoms: C_25  and  C_26 
REMARK   15  A    between atoms: C_26  and  C_27 
ROOT
HETATM    1  O   UNK     0     -62.203 -24.213   0.783  0.00  0.00    -0.348 OA
HETATM    2  C   UNK     0     -61.248 -24.024  -0.263  0.00  0.00     0.180 C 
HETATM    3  C   UNK     0     -60.797 -25.380  -0.809  0.00  0.00     0.180 C 
HETATM    4  C   UNK     0     -60.246 -26.262   0.312  0.00  0.00     0.183 C 
HETATM    5  C   UNK     0     -61.203 -26.306   1.502  0.00  0.00     0.204 C 
HETATM    6  C   UNK     0     -61.655 -24.903   1.905  0.00  0.00     0.291 C 
ENDROOT
BRANCH   2   7
HETATM    7  C   UNK     0     -61.909 -23.171  -1.341  0.00  0.00     0.205 C 
BRANCH   7   8
HETATM    8  O   UNK     0     -61.346 -21.868  -1.309  0.00  0.00    -0.356 OA
BRANCH   8   9
HETATM    9  C   UNK     0     -60.643 -21.575  -2.512  0.00  0.00     0.291 C 
HETATM   10  O   UNK     0     -59.436 -20.843  -2.275  0.00  0.00    -0.351 OA
HETATM   11  C   UNK     0     -59.640 -19.539  -1.720  0.00  0.00     0.152 C 
HETATM   12  C   UNK     0     -60.505 -18.675  -2.648  0.00  0.00     0.178 C 
HETATM   13  C   UNK     0     -58.258 -18.930  -1.495  0.00  0.00     0.042 C 
HETATM   14  C   UNK     0     -61.817 -19.394  -2.963  0.00  0.00     0.183 C 
HETATM   15  C   UNK     0     -61.556 -20.813  -3.471  0.00  0.00     0.204 C 
BRANCH  12  16
HETATM   16  O   UNK     0     -60.818 -17.436  -2.018  0.00  0.00    -0.390 OA
HETATM   17  H   UNK     0     -60.009 -16.897  -1.994  0.00  0.00     0.210 HD
ENDBRANCH  12  16
BRANCH  14  18
HETATM   18  O   UNK     0     -62.534 -18.651  -3.947  0.00  0.00    -0.390 OA
HETATM   19  H   UNK     0     -62.189 -18.909  -4.819  0.00  0.00     0.210 HD
ENDBRANCH  14  18
BRANCH  15  20
HETATM   20  O   UNK     0     -60.907 -20.764  -4.743  0.00  0.00    -0.388 OA
HETATM   21  H   UNK     0     -61.441 -20.196  -5.323  0.00  0.00     0.210 HD
ENDBRANCH  15  20
ENDBRANCH   8   9
ENDBRANCH   7   8
ENDBRANCH   2   7
BRANCH   6  22
HETATM   22  O   UNK     0     -62.650 -25.036   2.921  0.00  0.00    -0.358 OA
BRANCH  22  23
HETATM   23  C   UNK     0     -63.800 -25.708   2.433  0.00  0.00     0.175 C 
BRANCH  23  24
HETATM   24  C   UNK     0     -64.498 -26.431   3.579  0.00  0.00     0.065 C 
BRANCH  24  25
HETATM   25  C   UNK     0     -63.743 -27.658   4.029  0.00  0.00    -0.053 A 
HETATM   26  C   UNK     0     -62.969 -27.614   5.188  0.00  0.00     0.046 A 
HETATM   27  C   UNK     0     -62.273 -28.749   5.605  0.00  0.00     0.099 A 
HETATM   28  C   UNK     0     -62.351 -29.927   4.861  0.00  0.00     0.098 A 
HETATM   29  C   UNK     0     -63.125 -29.970   3.703  0.00  0.00     0.040 A 
HETATM   30  C   UNK     0     -63.822 -28.836   3.286  0.00  0.00     0.010 A 
BRANCH  27  31
HETATM   31  O   UNK     0     -61.522 -28.695   6.740  0.00  0.00    -0.358 OA
HETATM   32  H   UNK     0     -61.289 -29.600   7.009  0.00  0.00     0.217 HD
ENDBRANCH  27  31
BRANCH  28  33
HETATM   33  O   UNK     0     -61.675 -31.042   5.259  0.00  0.00    -0.358 OA
HETATM   34  H   UNK     0     -60.751 -30.974   4.964  0.00  0.00     0.217 HD
ENDBRANCH  28  33
ENDBRANCH  24  25
ENDBRANCH  23  24
ENDBRANCH  22  23
ENDBRANCH   6  22
BRANCH   3  35
HETATM   35  O   UNK     0     -59.785 -25.179  -1.792  0.00  0.00    -0.390 OA
HETATM   36  H   UNK     0     -59.005 -24.805  -1.348  0.00  0.00     0.210 HD
ENDBRANCH   3  35
BRANCH   5  37
HETATM   37  O   UNK     0     -60.543 -26.900   2.620  0.00  0.00    -0.388 OA
HETATM   38  H   UNK     0     -59.653 -27.170   2.336  0.00  0.00     0.210 HD
ENDBRANCH   5  37
BRANCH   4  39
HETATM   39  O   UNK     0     -60.072 -27.581  -0.208  0.00  0.00    -0.390 OA
HETATM   40  H   UNK     0     -59.296 -27.978   0.225  0.00  0.00     0.210 HD
ENDBRANCH   4  39
TORSDOF 15
ENDMDL
MODEL 6
REMARK VINA RESULT:      -8.4      7.643     11.420
REMARK  15 active torsions:
REMARK  status: ('A' for Active; 'I' for Inactive)
REMARK    1  A    between atoms: O_2  and  C_18 
REMARK    2  A    between atoms: O_2  and  C_22 
REMARK    3  A    between atoms: O_4  and  C_14 
REMARK    4  A    between atoms: O_5  and  C_21 
REMARK    5  A    between atoms: O_5  and  C_25 
REMARK    6  A    between atoms: O_6  and  C_15 
REMARK    7  A    between atoms: O_7  and  C_16 
REMARK    8  A    between atoms: O_8  and  C_17 
REMARK    9  A    between atoms: O_9  and  C_19 
REMARK   10  A    between atoms: O_10  and  C_20 
REMARK   11  A    between atoms: O_11  and  C_30 
REMARK   12  A    between atoms: O_12  and  C_32 
REMARK   13  A    between atoms: C_13  and  C_22 
REMARK   14  A    between atoms: C_25  and  C_26 
REMARK   15  A    between atoms: C_26  and  C_27 
ROOT
HETATM    1  O   UNK     0     -57.379 -20.354  -7.353  0.00  0.00    -0.348 OA
HETATM    2  C   UNK     0     -57.377 -21.550  -6.571  0.00  0.00     0.180 C 
HETATM    3  C   UNK     0     -55.939 -21.951  -6.236  0.00  0.00     0.180 C 
HETATM    4  C   UNK     0     -55.106 -22.102  -7.509  0.00  0.00     0.183 C 
HETATM    5  C   UNK     0     -55.265 -20.886  -8.421  0.00  0.00     0.204 C 
HETATM    6  C   UNK     0     -56.736 -20.524  -8.614  0.00  0.00     0.291 C 
ENDROOT
BRANCH   2   7
HETATM    7  C   UNK     0     -58.196 -21.279  -5.313  0.00  0.00     0.205 C 
BRANCH   7   8
HETATM    8  O   UNK     0     -57.312 -21.065  -4.223  0.00  0.00    -0.356 OA
BRANCH   8   9
HETATM    9  C   UNK     0     -57.027 -19.681  -4.047  0.00  0.00     0.291 C 
HETATM   10  O   UNK     0     -56.623 -19.372  -2.709  0.00  0.00    -0.351 OA
HETATM   11  C   UNK     0     -57.637 -19.599  -1.723  0.00  0.00     0.152 C 
HETATM   12  C   UNK     0     -58.887 -18.756  -2.013  0.00  0.00     0.178 C 
HETATM   13  C   UNK     0     -57.022 -19.263  -0.367  0.00  0.00     0.042 C 
HETATM   14  C   UNK     0     -59.379 -19.019  -3.436  0.00  0.00     0.183 C 
HETATM   15  C   UNK     0     -58.244 -18.850  -4.448  0.00  0.00     0.204 C 
BRANCH  12  16
HETATM   16  O   UNK     0     -59.934 -19.100  -1.111  0.00  0.00    -0.390 OA
HETATM   17  H   UNK     0     -59.537 -19.277  -0.240  0.00  0.00     0.210 HD
ENDBRANCH  12  16
BRANCH  14  18
HETATM   18  O   UNK     0     -60.439 -18.115  -3.741  0.00  0.00    -0.390 OA
HETATM   19  H   UNK     0     -60.717 -18.287  -4.657  0.00  0.00     0.210 HD
ENDBRANCH  14  18
BRANCH  15  20
HETATM   20  O   UNK     0     -57.837 -17.481  -4.501  0.00  0.00    -0.388 OA
HETATM   21  H   UNK     0     -57.518 -17.304  -5.401  0.00  0.00     0.210 HD
ENDBRANCH  15  20
ENDBRANCH   8   9
ENDBRANCH   7   8
ENDBRANCH   2   7
BRANCH   6  22
HETATM   22  O   UNK     0     -56.796 -19.304  -9.354  0.00  0.00    -0.358 OA
BRANCH  22  23
HETATM   23  C   UNK     0     -57.210 -18.223  -8.534  0.00  0.00     0.175 C 
BRANCH  23  24
HETATM   24  C   UNK     0     -57.461 -16.991  -9.395  0.00  0.00     0.065 C 
BRANCH  24  25
HETATM   25  C   UNK     0     -56.815 -15.751  -8.827  0.00  0.00    -0.053 A 
HETATM   26  C   UNK     0     -56.829 -15.526  -7.451  0.00  0.00     0.046 A 
HETATM   27  C   UNK     0     -56.229 -14.381  -6.926  0.00  0.00     0.099 A 
HETATM   28  C   UNK     0     -55.617 -13.461  -7.777  0.00  0.00     0.098 A 
HETATM   29  C   UNK     0     -55.604 -13.687  -9.153  0.00  0.00     0.040 A 
HETATM   30  C   UNK     0     -56.202 -14.832  -9.679  0.00  0.00     0.010 A 
BRANCH  27  31
HETATM   31  O   UNK     0     -56.248 -14.172  -5.580  0.00  0.00    -0.358 OA
HETATM   32  H   UNK     0     -55.355 -14.324  -5.224  0.00  0.00     0.217 HD
ENDBRANCH  27  31
BRANCH  28  33
HETATM   33  O   UNK     0     -55.029 -12.339  -7.276  0.00  0.00    -0.358 OA
HETATM   34  H   UNK     0     -55.227 -12.274  -6.326  0.00  0.00     0.217 HD
ENDBRANCH  28  33
ENDBRANCH  24  25
ENDBRANCH  23  24
ENDBRANCH  22  23
ENDBRANCH   6  22
BRANCH   3  35
HETATM   35  O   UNK     0     -55.948 -23.188  -5.528  0.00  0.00    -0.390 OA
HETATM   36  H   UNK     0     -56.304 -23.871  -6.122  0.00  0.00     0.210 HD
ENDBRANCH   3  35
BRANCH   5  37
HETATM   37  O   UNK     0     -54.704 -21.178  -9.701  0.00  0.00    -0.388 OA
HETATM   38  H   UNK     0     -54.304 -22.063  -9.661  0.00  0.00     0.210 HD
ENDBRANCH   5  37
BRANCH   4  39
HETATM   39  O   UNK     0     -53.735 -22.236  -7.127  0.00  0.00    -0.390 OA
HETATM   40  H   UNK     0     -53.446 -23.138  -7.348  0.00  0.00     0.210 HD
ENDBRANCH   4  39
TORSDOF 15
ENDMDL
MODEL 7
REMARK VINA RESULT:      -8.4      4.230      8.135
REMARK  15 active torsions:
REMARK  status: ('A' for Active; 'I' for Inactive)
REMARK    1  A    between atoms: O_2  and  C_18 
REMARK    2  A    between atoms: O_2  and  C_22 
REMARK    3  A    between atoms: O_4  and  C_14 
REMARK    4  A    between atoms: O_5  and  C_21 
REMARK    5  A    between atoms: O_5  and  C_25 
REMARK    6  A    between atoms: O_6  and  C_15 
REMARK    7  A    between atoms: O_7  and  C_16 
REMARK    8  A    between atoms: O_8  and  C_17 
REMARK    9  A    between atoms: O_9  and  C_19 
REMARK   10  A    between atoms: O_10  and  C_20 
REMARK   11  A    between atoms: O_11  and  C_30 
REMARK   12  A    between atoms: O_12  and  C_32 
REMARK   13  A    between atoms: C_13  and  C_22 
REMARK   14  A    between atoms: C_25  and  C_26 
REMARK   15  A    between atoms: C_26  and  C_27 
ROOT
HETATM    1  O   UNK     0     -59.279 -20.183  -1.816  0.00  0.00    -0.348 OA
HETATM    2  C   UNK     0     -59.514 -20.352  -3.215  0.00  0.00     0.180 C 
HETATM    3  C   UNK     0     -61.000 -20.151  -3.523  0.00  0.00     0.180 C 
HETATM    4  C   UNK     0     -61.861 -21.094  -2.684  0.00  0.00     0.183 C 
HETATM    5  C   UNK     0     -61.470 -21.034  -1.207  0.00  0.00     0.204 C 
HETATM    6  C   UNK     0     -59.958 -21.157  -1.026  0.00  0.00     0.291 C 
ENDROOT
BRANCH   2   7
HETATM    7  C   UNK     0     -58.642 -19.342  -3.954  0.00  0.00     0.205 C 
BRANCH   7   8
HETATM    8  O   UNK     0     -58.401 -19.815  -5.271  0.00  0.00    -0.356 OA
BRANCH   8   9
HETATM    9  C   UNK     0     -57.024 -19.709  -5.618  0.00  0.00     0.291 C 
HETATM   10  O   UNK     0     -56.771 -20.094  -6.974  0.00  0.00    -0.351 OA
HETATM   11  C   UNK     0     -57.048 -21.470  -7.253  0.00  0.00     0.152 C 
HETATM   12  C   UNK     0     -56.200 -22.394  -6.367  0.00  0.00     0.178 C 
HETATM   13  C   UNK     0     -56.768 -21.688  -8.739  0.00  0.00     0.042 C 
HETATM   14  C   UNK     0     -56.404 -22.039  -4.894  0.00  0.00     0.183 C 
HETATM   15  C   UNK     0     -56.183 -20.545  -4.655  0.00  0.00     0.204 C 
BRANCH  12  16
HETATM   16  O   UNK     0     -56.590 -23.752  -6.555  0.00  0.00    -0.390 OA
HETATM   17  H   UNK     0     -57.515 -23.761  -6.856  0.00  0.00     0.210 HD
ENDBRANCH  12  16
BRANCH  14  18
HETATM   18  O   UNK     0     -55.494 -22.797  -4.099  0.00  0.00    -0.390 OA
HETATM   19  H   UNK     0     -56.013 -23.254  -3.415  0.00  0.00     0.210 HD
ENDBRANCH  14  18
BRANCH  15  20
HETATM   20  O   UNK     0     -54.811 -20.213  -4.875  0.00  0.00    -0.388 OA
HETATM   21  H   UNK     0     -54.554 -19.563  -4.199  0.00  0.00     0.210 HD
ENDBRANCH  15  20
ENDBRANCH   8   9
ENDBRANCH   7   8
ENDBRANCH   2   7
BRANCH   6  22
HETATM   22  O   UNK     0     -59.662 -20.949   0.355  0.00  0.00    -0.358 OA
BRANCH  22  23
HETATM   23  C   UNK     0     -58.707 -21.888   0.825  0.00  0.00     0.175 C 
BRANCH  23  24
HETATM   24  C   UNK     0     -59.414 -23.002   1.589  0.00  0.00     0.065 C 
BRANCH  24  25
HETATM   25  C   UNK     0     -59.015 -24.374   1.103  0.00  0.00    -0.053 A 
HETATM   26  C   UNK     0     -59.467 -25.510   1.774  0.00  0.00     0.046 A 
HETATM   27  C   UNK     0     -59.099 -26.778   1.324  0.00  0.00     0.099 A 
HETATM   28  C   UNK     0     -58.280 -26.909   0.203  0.00  0.00     0.098 A 
HETATM   29  C   UNK     0     -57.828 -25.773  -0.468  0.00  0.00     0.040 A 
HETATM   30  C   UNK     0     -58.196 -24.505  -0.019  0.00  0.00     0.010 A 
BRANCH  27  31
HETATM   31  O   UNK     0     -59.548 -27.880   1.986  0.00  0.00    -0.358 OA
HETATM   32  H   UNK     0     -58.798 -28.476   2.155  0.00  0.00     0.217 HD
ENDBRANCH  27  31
BRANCH  28  33
HETATM   33  O   UNK     0     -57.914 -28.143  -0.247  0.00  0.00    -0.358 OA
HETATM   34  H   UNK     0     -58.628 -28.775  -0.053  0.00  0.00     0.217 HD
ENDBRANCH  28  33
ENDBRANCH  24  25
ENDBRANCH  23  24
ENDBRANCH  22  23
ENDBRANCH   6  22
BRANCH   3  35
HETATM   35  O   UNK     0     -61.233 -20.403  -4.906  0.00  0.00    -0.390 OA
HETATM   36  H   UNK     0     -60.590 -19.884  -5.419  0.00  0.00     0.210 HD
ENDBRANCH   3  35
BRANCH   5  37
HETATM   37  O   UNK     0     -62.094 -22.110  -0.508  0.00  0.00    -0.388 OA
HETATM   38  H   UNK     0     -62.892 -22.369  -1.000  0.00  0.00     0.210 HD
ENDBRANCH   5  37
BRANCH   4  39
HETATM   39  O   UNK     0     -63.225 -20.696  -2.832  0.00  0.00    -0.390 OA
HETATM   40  H   UNK     0     -63.648 -20.732  -1.957  0.00  0.00     0.210 HD
ENDBRANCH   4  39
TORSDOF 15
ENDMDL
MODEL 8
REMARK VINA RESULT:      -8.4      2.254      5.241
REMARK  15 active torsions:
REMARK  status: ('A' for Active; 'I' for Inactive)
REMARK    1  A    between atoms: O_2  and  C_18 
REMARK    2  A    between atoms: O_2  and  C_22 
REMARK    3  A    between atoms: O_4  and  C_14 
REMARK    4  A    between atoms: O_5  and  C_21 
REMARK    5  A    between atoms: O_5  and  C_25 
REMARK    6  A    between atoms: O_6  and  C_15 
REMARK    7  A    between atoms: O_7  and  C_16 
REMARK    8  A    between atoms: O_8  and  C_17 
REMARK    9  A    between atoms: O_9  and  C_19 
REMARK   10  A    between atoms: O_10  and  C_20 
REMARK   11  A    between atoms: O_11  and  C_30 
REMARK   12  A    between atoms: O_12  and  C_32 
REMARK   13  A    between atoms: C_13  and  C_22 
REMARK   14  A    between atoms: C_25  and  C_26 
REMARK   15  A    between atoms: C_26  and  C_27 
ROOT
HETATM    1  O   UNK     0     -60.795 -24.028   1.168  0.00  0.00    -0.348 OA
HETATM    2  C   UNK     0     -61.333 -25.313   1.486  0.00  0.00     0.180 C 
HETATM    3  C   UNK     0     -60.266 -26.170   2.170  0.00  0.00     0.180 C 
HETATM    4  C   UNK     0     -59.014 -26.277   1.300  0.00  0.00     0.183 C 
HETATM    5  C   UNK     0     -58.557 -24.900   0.817  0.00  0.00     0.204 C 
HETATM    6  C   UNK     0     -59.721 -24.101   0.234  0.00  0.00     0.291 C 
ENDROOT
BRANCH   2   7
HETATM    7  C   UNK     0     -62.546 -25.096   2.385  0.00  0.00     0.205 C 
BRANCH   7   8
HETATM    8  O   UNK     0     -63.664 -24.755   1.579  0.00  0.00    -0.356 OA
BRANCH   8   9
HETATM    9  C   UNK     0     -64.456 -25.899   1.277  0.00  0.00     0.291 C 
HETATM   10  O   UNK     0     -65.306 -25.692   0.145  0.00  0.00    -0.351 OA
HETATM   11  C   UNK     0     -66.300 -24.678   0.335  0.00  0.00     0.152 C 
HETATM   12  C   UNK     0     -67.217 -25.019   1.517  0.00  0.00     0.178 C 
HETATM   13  C   UNK     0     -67.075 -24.564  -0.976  0.00  0.00     0.042 C 
HETATM   14  C   UNK     0     -66.382 -25.269   2.773  0.00  0.00     0.183 C 
HETATM   15  C   UNK     0     -65.278 -26.294   2.503  0.00  0.00     0.204 C 
BRANCH  12  16
HETATM   16  O   UNK     0     -68.104 -23.937   1.782  0.00  0.00    -0.390 OA
HETATM   17  H   UNK     0     -67.759 -23.147   1.331  0.00  0.00     0.210 HD
ENDBRANCH  12  16
BRANCH  14  18
HETATM   18  O   UNK     0     -67.233 -25.738   3.817  0.00  0.00    -0.390 OA
HETATM   19  H   UNK     0     -66.740 -26.410   4.318  0.00  0.00     0.210 HD
ENDBRANCH  14  18
BRANCH  15  20
HETATM   20  O   UNK     0     -65.855 -27.575   2.245  0.00  0.00    -0.388 OA
HETATM   21  H   UNK     0     -66.391 -27.499   1.438  0.00  0.00     0.210 HD
ENDBRANCH  15  20
ENDBRANCH   8   9
ENDBRANCH   7   8
ENDBRANCH   2   7
BRANCH   6  22
HETATM   22  O   UNK     0     -59.248 -22.786  -0.060  0.00  0.00    -0.358 OA
BRANCH  22  23
HETATM   23  C   UNK     0     -60.128 -21.796   0.448  0.00  0.00     0.175 C 
BRANCH  23  24
HETATM   24  C   UNK     0     -59.778 -20.439  -0.153  0.00  0.00     0.065 C 
BRANCH  24  25
HETATM   25  C   UNK     0     -60.703 -20.055  -1.281  0.00  0.00    -0.053 A 
HETATM   26  C   UNK     0     -60.362 -20.361  -2.598  0.00  0.00     0.046 A 
HETATM   27  C   UNK     0     -61.218 -20.007  -3.641  0.00  0.00     0.099 A 
HETATM   28  C   UNK     0     -62.415 -19.346  -3.366  0.00  0.00     0.098 A 
HETATM   29  C   UNK     0     -62.756 -19.039  -2.049  0.00  0.00     0.040 A 
HETATM   30  C   UNK     0     -61.901 -19.394  -1.006  0.00  0.00     0.010 A 
BRANCH  27  31
HETATM   31  O   UNK     0     -60.875 -20.314  -4.923  0.00  0.00    -0.358 OA
HETATM   32  H   UNK     0     -61.674 -20.291  -5.479  0.00  0.00     0.217 HD
ENDBRANCH  27  31
BRANCH  28  33
HETATM   33  O   UNK     0     -63.260 -18.995  -4.376  0.00  0.00    -0.358 OA
HETATM   34  H   UNK     0     -63.951 -18.409  -4.022  0.00  0.00     0.217 HD
ENDBRANCH  28  33
ENDBRANCH  24  25
ENDBRANCH  23  24
ENDBRANCH  22  23
ENDBRANCH   6  22
BRANCH   3  35
HETATM   35  O   UNK     0     -60.789 -27.475   2.406  0.00  0.00    -0.390 OA
HETATM   36  H   UNK     0     -60.954 -27.564   3.360  0.00  0.00     0.210 HD
ENDBRANCH   3  35
BRANCH   5  37
HETATM   37  O   UNK     0     -57.569 -25.059  -0.200  0.00  0.00    -0.388 OA
HETATM   38  H   UNK     0     -57.596 -24.272  -0.772  0.00  0.00     0.210 HD
ENDBRANCH   5  37
BRANCH   4  39
HETATM   39  O   UNK     0     -57.979 -26.874   2.084  0.00  0.00    -0.390 OA
HETATM   40  H   UNK     0     -57.333 -26.183   2.310  0.00  0.00     0.210 HD
ENDBRANCH   4  39
TORSDOF 15
ENDMDL
MODEL 9
REMARK VINA RESULT:      -8.4      3.378      5.767
REMARK  15 active torsions:
REMARK  status: ('A' for Active; 'I' for Inactive)
REMARK    1  A    between atoms: O_2  and  C_18 
REMARK    2  A    between atoms: O_2  and  C_22 
REMARK    3  A    between atoms: O_4  and  C_14 
REMARK    4  A    between atoms: O_5  and  C_21 
REMARK    5  A    between atoms: O_5  and  C_25 
REMARK    6  A    between atoms: O_6  and  C_15 
REMARK    7  A    between atoms: O_7  and  C_16 
REMARK    8  A    between atoms: O_8  and  C_17 
REMARK    9  A    between atoms: O_9  and  C_19 
REMARK   10  A    between atoms: O_10  and  C_20 
REMARK   11  A    between atoms: O_11  and  C_30 
REMARK   12  A    between atoms: O_12  and  C_32 
REMARK   13  A    between atoms: C_13  and  C_22 
REMARK   14  A    between atoms: C_25  and  C_26 
REMARK   15  A    between atoms: C_26  and  C_27 
ROOT
HETATM    1  O   UNK     0     -60.561 -20.286  -1.797  0.00  0.00    -0.348 OA
HETATM    2  C   UNK     0     -61.853 -20.896  -1.816  0.00  0.00     0.180 C 
HETATM    3  C   UNK     0     -62.613 -20.469  -3.074  0.00  0.00     0.180 C 
HETATM    4  C   UNK     0     -62.703 -18.945  -3.163  0.00  0.00     0.183 C 
HETATM    5  C   UNK     0     -61.334 -18.298  -2.958  0.00  0.00     0.204 C 
HETATM    6  C   UNK     0     -60.630 -18.863  -1.725  0.00  0.00     0.291 C 
ENDROOT
BRANCH   2   7
HETATM    7  C   UNK     0     -61.649 -22.407  -1.765  0.00  0.00     0.205 C 
BRANCH   7   8
HETATM    8  O   UNK     0     -61.585 -22.819  -0.407  0.00  0.00    -0.356 OA
BRANCH   8   9
HETATM    9  C   UNK     0     -61.992 -24.175  -0.255  0.00  0.00     0.291 C 
HETATM   10  O   UNK     0     -62.043 -24.579   1.117  0.00  0.00    -0.351 OA
HETATM   11  C   UNK     0     -60.773 -24.570   1.778  0.00  0.00     0.152 C 
HETATM   12  C   UNK     0     -59.779 -25.508   1.079  0.00  0.00     0.178 C 
HETATM   13  C   UNK     0     -61.023 -24.980   3.228  0.00  0.00     0.042 C 
HETATM   14  C   UNK     0     -59.675 -25.149  -0.404  0.00  0.00     0.183 C 
HETATM   15  C   UNK     0     -61.059 -25.086  -1.051  0.00  0.00     0.204 C 
BRANCH  12  16
HETATM   16  O   UNK     0     -58.485 -25.377   1.659  0.00  0.00    -0.390 OA
HETATM   17  H   UNK     0     -57.834 -25.333   0.938  0.00  0.00     0.210 HD
ENDBRANCH  12  16
BRANCH  14  18
HETATM   18  O   UNK     0     -58.874 -26.125  -1.067  0.00  0.00    -0.390 OA
HETATM   19  H   UNK     0     -58.731 -26.859  -0.445  0.00  0.00     0.210 HD
ENDBRANCH  14  18
BRANCH  15  20
HETATM   20  O   UNK     0     -61.645 -26.389  -1.080  0.00  0.00    -0.388 OA
HETATM   21  H   UNK     0     -60.950 -27.028  -0.847  0.00  0.00     0.210 HD
ENDBRANCH  15  20
ENDBRANCH   8   9
ENDBRANCH   7   8
ENDBRANCH   2   7
BRANCH   6  22
HETATM   22  O   UNK     0     -59.311 -18.318  -1.683  0.00  0.00    -0.358 OA
BRANCH  22  23
HETATM   23  C   UNK     0     -58.331 -19.322  -1.897  0.00  0.00     0.175 C 
BRANCH  23  24
HETATM   24  C   UNK     0     -57.246 -19.217  -0.832  0.00  0.00     0.065 C 
BRANCH  24  25
HETATM   25  C   UNK     0     -57.641 -19.891   0.459  0.00  0.00    -0.053 A 
HETATM   26  C   UNK     0     -57.161 -19.406   1.675  0.00  0.00     0.046 A 
HETATM   27  C   UNK     0     -57.529 -20.028   2.868  0.00  0.00     0.099 A 
HETATM   28  C   UNK     0     -58.374 -21.137   2.845  0.00  0.00     0.098 A 
HETATM   29  C   UNK     0     -58.854 -21.623   1.629  0.00  0.00     0.040 A 
HETATM   30  C   UNK     0     -58.488 -21.000   0.436  0.00  0.00     0.010 A 
BRANCH  27  31
HETATM   31  O   UNK     0     -57.056 -19.543   4.050  0.00  0.00    -0.358 OA
HETATM   32  H   UNK     0     -56.277 -18.986   3.875  0.00  0.00     0.217 HD
ENDBRANCH  27  31
BRANCH  28  33
HETATM   33  O   UNK     0     -58.740 -21.753   4.004  0.00  0.00    -0.358 OA
HETATM   34  H   UNK     0     -59.633 -22.125   3.897  0.00  0.00     0.217 HD
ENDBRANCH  28  33
ENDBRANCH  24  25
ENDBRANCH  23  24
ENDBRANCH  22  23
ENDBRANCH   6  22
BRANCH   3  35
HETATM   35  O   UNK     0     -63.928 -21.018  -3.039  0.00  0.00    -0.390 OA
HETATM   36  H   UNK     0     -64.038 -21.583  -3.822  0.00  0.00     0.210 HD
ENDBRANCH   3  35
BRANCH   5  37
HETATM   37  O   UNK     0     -61.497 -16.892  -2.774  0.00  0.00    -0.388 OA
HETATM   38  H   UNK     0     -62.250 -16.751  -2.174  0.00  0.00     0.210 HD
ENDBRANCH   5  37
BRANCH   4  39
HETATM   39  O   UNK     0     -63.200 -18.607  -4.459  0.00  0.00    -0.390 OA
HETATM   40  H   UNK     0     -62.446 -18.570  -5.072  0.00  0.00     0.210 HD
ENDBRANCH   4  39
TORSDOF 15
ENDMDL
MODEL 10
REMARK VINA RESULT:      -8.4      2.018      7.448
REMARK  15 active torsions:
REMARK  status: ('A' for Active; 'I' for Inactive)
REMARK    1  A    between atoms: O_2  and  C_18 
REMARK    2  A    between atoms: O_2  and  C_22 
REMARK    3  A    between atoms: O_4  and  C_14 
REMARK    4  A    between atoms: O_5  and  C_21 
REMARK    5  A    between atoms: O_5  and  C_25 
REMARK    6  A    between atoms: O_6  and  C_15 
REMARK    7  A    between atoms: O_7  and  C_16 
REMARK    8  A    between atoms: O_8  and  C_17 
REMARK    9  A    between atoms: O_9  and  C_19 
REMARK   10  A    between atoms: O_10  and  C_20 
REMARK   11  A    between atoms: O_11  and  C_30 
REMARK   12  A    between atoms: O_12  and  C_32 
REMARK   13  A    between atoms: C_13  and  C_22 
REMARK   14  A    between atoms: C_25  and  C_26 
REMARK   15  A    between atoms: C_26  and  C_27 
ROOT
HETATM    1  O   UNK     0     -61.498 -24.391   2.192  0.00  0.00    -0.348 OA
HETATM    2  C   UNK     0     -60.090 -24.172   2.086  0.00  0.00     0.180 C 
HETATM    3  C   UNK     0     -59.453 -25.272   1.234  0.00  0.00     0.180 C 
HETATM    4  C   UNK     0     -59.772 -26.654   1.805  0.00  0.00     0.183 C 
HETATM    5  C   UNK     0     -61.267 -26.805   2.083  0.00  0.00     0.204 C 
HETATM    6  C   UNK     0     -61.812 -25.610   2.863  0.00  0.00     0.291 C 
ENDROOT
BRANCH   2   7
HETATM    7  C   UNK     0     -59.884 -22.791   1.472  0.00  0.00     0.205 C 
BRANCH   7   8
HETATM    8  O   UNK     0     -60.785 -22.629   0.386  0.00  0.00    -0.356 OA
BRANCH   8   9
HETATM    9  C   UNK     0     -60.093 -22.506  -0.851  0.00  0.00     0.291 C 
HETATM   10  O   UNK     0     -60.115 -21.168  -1.359  0.00  0.00    -0.351 OA
HETATM   11  C   UNK     0     -61.423 -20.691  -1.697  0.00  0.00     0.152 C 
HETATM   12  C   UNK     0     -62.075 -21.579  -2.765  0.00  0.00     0.178 C 
HETATM   13  C   UNK     0     -61.261 -19.249  -2.173  0.00  0.00     0.042 C 
HETATM   14  C   UNK     0     -62.080 -23.037  -2.304  0.00  0.00     0.183 C 
HETATM   15  C   UNK     0     -60.681 -23.479  -1.871  0.00  0.00     0.204 C 
BRANCH  12  16
HETATM   16  O   UNK     0     -63.425 -21.178  -2.983  0.00  0.00    -0.390 OA
HETATM   17  H   UNK     0     -63.893 -21.218  -2.131  0.00  0.00     0.210 HD
ENDBRANCH  12  16
BRANCH  14  18
HETATM   18  O   UNK     0     -62.542 -23.865  -3.369  0.00  0.00    -0.390 OA
HETATM   19  H   UNK     0     -63.252 -23.383  -3.827  0.00  0.00     0.210 HD
ENDBRANCH  14  18
BRANCH  15  20
HETATM   20  O   UNK     0     -59.807 -23.507  -3.000  0.00  0.00    -0.388 OA
HETATM   21  H   UNK     0     -59.303 -24.337  -2.962  0.00  0.00     0.210 HD
ENDBRANCH  15  20
ENDBRANCH   8   9
ENDBRANCH   7   8
ENDBRANCH   2   7
BRANCH   6  22
HETATM   22  O   UNK     0     -63.229 -25.755   2.958  0.00  0.00    -0.358 OA
BRANCH  22  23
HETATM   23  C   UNK     0     -63.853 -25.569   1.697  0.00  0.00     0.175 C 
BRANCH  23  24
HETATM   24  C   UNK     0     -65.041 -26.515   1.566  0.00  0.00     0.065 C 
BRANCH  24  25
HETATM   25  C   UNK     0     -66.274 -25.821   1.043  0.00  0.00    -0.053 A 
HETATM   26  C   UNK     0     -67.491 -25.966   1.707  0.00  0.00     0.046 A 
HETATM   27  C   UNK     0     -68.630 -25.321   1.225  0.00  0.00     0.099 A 
HETATM   28  C   UNK     0     -68.552 -24.534   0.076  0.00  0.00     0.098 A 
HETATM   29  C   UNK     0     -67.335 -24.389  -0.588  0.00  0.00     0.040 A 
HETATM   30  C   UNK     0     -66.195 -25.032  -0.106  0.00  0.00     0.010 A 
BRANCH  27  31
HETATM   31  O   UNK     0     -69.813 -25.469   1.884  0.00  0.00    -0.358 OA
HETATM   32  H   UNK     0     -69.878 -24.788   2.575  0.00  0.00     0.217 HD
ENDBRANCH  27  31
BRANCH  28  33
HETATM   33  O   UNK     0     -69.659 -23.900  -0.405  0.00  0.00    -0.358 OA
HETATM   34  H   UNK     0     -70.350 -24.560  -0.583  0.00  0.00     0.217 HD
ENDBRANCH  28  33
ENDBRANCH  24  25
ENDBRANCH  23  24
ENDBRANCH  22  23
ENDBRANCH   6  22
BRANCH   3  35
HETATM   35  O   UNK     0     -58.040 -25.088   1.206  0.00  0.00    -0.390 OA
HETATM   36  H   UNK     0     -57.744 -24.898   2.113  0.00  0.00     0.210 HD
ENDBRANCH   3  35
BRANCH   5  37
HETATM   37  O   UNK     0     -61.488 -27.983   2.860  0.00  0.00    -0.388 OA
HETATM   38  H   UNK     0     -62.435 -28.202   2.813  0.00  0.00     0.210 HD
ENDBRANCH   5  37
BRANCH   4  39
HETATM   39  O   UNK     0     -59.364 -27.632   0.847  0.00  0.00    -0.390 OA
HETATM   40  H   UNK     0     -59.668 -28.503   1.156  0.00  0.00     0.210 HD
ENDBRANCH   4  39
TORSDOF 15
ENDMDL
