REMARK  10 active torsions:
REMARK  status: ('A' for Active; 'I' for Inactive)
REMARK    1  A    between atoms: O_2  and  C_15 
REMARK    2  A    between atoms: O_2  and  C_18 
REMARK    3  A    between atoms: O_3  and  C_12 
REMARK    4  A    between atoms: O_4  and  C_13 
REMARK    5  A    between atoms: O_5  and  C_14 
REMARK    6  A    between atoms: O_6  and  C_17 
REMARK    7  A    between atoms: O_9  and  C_19 
REMARK    8  A    between atoms: O_10  and  C_23 
REMARK    9  A    between atoms: C_16  and  C_17 
REMARK   10  A    between atoms: C_25  and  C_27 
ROOT
HETATM    1  O   UNK     0      -2.859   0.464  -0.340  0.00  0.00    -0.340 OA
HETATM    2  C   UNK     0      -5.534   0.262   0.689  0.00  0.00     0.183 C 
HETATM    3  C   UNK     0      -4.304  -0.063   1.537  0.00  0.00     0.205 C 
HETATM    4  C   UNK     0      -5.178   1.177  -0.483  0.00  0.00     0.189 C 
HETATM    5  C   UNK     0      -3.132  -0.512   0.663  0.00  0.00     0.299 C 
HETATM    6  C   UNK     0      -3.956   0.652  -1.226  0.00  0.00     0.253 C 
ENDROOT
BRANCH   5   7
HETATM    7  O   UNK     0      -1.991  -0.671   1.504  0.00  0.00    -0.315 OA
BRANCH   7   8
HETATM    8  C   UNK     0      -0.834  -1.064   0.897  0.00  0.00     0.111 A 
HETATM    9  C   UNK     0       0.305  -0.260   0.955  0.00  0.00     0.137 A 
HETATM   10  C   UNK     0       1.481  -0.677   0.329  0.00  0.00     0.129 A 
HETATM   11  O   UNK     0       2.567   0.155   0.420  0.00  0.00    -0.306 OA
HETATM   12  C   UNK     0       1.514  -1.893  -0.351  0.00  0.00     0.084 A 
HETATM   13  C   UNK     0       3.751  -0.236  -0.186  0.00  0.00     0.090 A 
HETATM   14  C   UNK     0       3.907  -1.378  -0.875  0.00  0.00     0.094 A 
HETATM   15  C   UNK     0       2.766  -2.307  -1.003  0.00  0.00     0.190 A 
HETATM   16  O   UNK     0       2.866  -3.360  -1.618  0.00  0.00    -0.287 OA
HETATM   17  C   UNK     0       0.376  -2.700  -0.411  0.00  0.00     0.085 A 
HETATM   18  C   UNK     0      -0.798  -2.281   0.215  0.00  0.00     0.077 A 
BRANCH   9  19
HETATM   19  O   UNK     0       0.265   0.929   1.623  0.00  0.00    -0.351 OA
HETATM   20  C   UNK     0       0.606   0.905   3.007  0.00  0.00     0.210 C 
ENDBRANCH   9  19
BRANCH  13  21
HETATM   21  C   UNK     0       4.853   0.735  -0.033  0.00  0.00    -0.002 A 
HETATM   22  C   UNK     0       5.826   0.856  -1.029  0.00  0.00     0.014 A 
HETATM   23  C   UNK     0       6.866   1.774  -0.885  0.00  0.00     0.001 A 
HETATM   24  C   UNK     0       6.938   2.574   0.255  0.00  0.00     0.000 A 
HETATM   25  C   UNK     0       5.969   2.456   1.252  0.00  0.00     0.001 A 
HETATM   26  C   UNK     0       4.928   1.538   1.108  0.00  0.00     0.014 A 
ENDBRANCH  13  21
BRANCH  17  27
HETATM   27  O   UNK     0       0.358  -3.896  -1.064  0.00  0.00    -0.360 OA
HETATM   28  H   UNK     0       1.224  -4.082  -1.456  0.00  0.00     0.217 HD
ENDBRANCH  17  27
ENDBRANCH   7   8
ENDBRANCH   5   7
BRANCH   6  29
HETATM   29  C   UNK     0      -3.444   1.665  -2.198  0.00  0.00     0.172 C 
HETATM   30  O   UNK     0      -2.347   2.202  -2.139  0.00  0.00    -0.648 OA
BRANCH  29  31
HETATM   31  O   UNK     0      -4.365   1.916  -3.159  0.00  0.00    -0.774 OA
HETATM   32  H   UNK     0      -4.048   2.581  -3.807  0.00  0.00     0.167 HD
ENDBRANCH  29  31
ENDBRANCH   6  29
BRANCH   3  33
HETATM   33  O   UNK     0      -4.618  -1.121   2.441  0.00  0.00    -0.388 OA
HETATM   34  H   UNK     0      -5.299  -0.794   3.053  0.00  0.00     0.210 HD
ENDBRANCH   3  33
BRANCH   4  35
HETATM   35  O   UNK     0      -6.279   1.225  -1.389  0.00  0.00    -0.390 OA
HETATM   36  H   UNK     0      -6.435   0.325  -1.722  0.00  0.00     0.210 HD
ENDBRANCH   4  35
BRANCH   2  37
HETATM   37  O   UNK     0      -6.504   0.933   1.495  0.00  0.00    -0.390 OA
HETATM   38  H   UNK     0      -6.791   0.315   2.188  0.00  0.00     0.210 HD
ENDBRANCH   2  37
TORSDOF 10
