Untitled
  xed2sdf_05210316543D
 
 30 32  0  0  0  0  0  0  0  0999 V2000
  -49.0008   -4.2343   16.1678 O   0  0  0  0  0  0  0  0  0  0  0  0
  -50.4408   -0.6603   13.2338 O   0  0  0  0  0  0  0  0  0  0  0  0
  -47.9148    0.3007   13.2328 O   0  0  0  0  0  0  0  0  0  0  0  0
  -45.9458   -0.9753   14.6578 O   0  0  0  0  0  0  0  0  0  0  0  0
  -52.0928   -2.6243   14.1268 O   0  0  0  0  0  0  0  0  0  0  0  0
  -49.7988   -2.4773   14.6878 C   0  0  0  0  0  0  0  0  0  0  0  0
  -48.7908   -3.1153   15.4198 C   0  0  0  0  0  0  0  0  0  0  0  0
  -50.2708   -4.7523   16.2308 C   0  0  0  0  0  0  0  0  0  0  0  0
  -49.4918   -1.3193   13.9528 C   0  0  0  0  0  0  0  0  0  0  0  0
  -51.1238   -3.0673   14.7418 C   0  0  0  0  0  0  0  0  0  0  0  0
  -51.3218   -4.2173   15.5458 C   0  0  0  0  0  0  0  0  0  0  0  0
  -50.4588   -5.9463   17.0958 C   0  0  0  0  0  0  0  0  0  0  0  0
  -47.5088   -2.5973   15.3958 C   0  0  0  0  0  0  0  0  0  0  0  0
  -48.2098   -0.8263   13.9488 C   0  0  0  0  0  0  0  0  0  0  0  0
  -47.2118   -1.4673   14.6698 C   0  0  0  0  0  0  0  0  0  0  0  0
  -49.3578   -6.4813   17.7478 C   0  0  0  0  0  0  0  0  0  0  0  0
  -51.6938   -6.5523   17.2888 C   0  0  0  0  0  0  0  0  0  0  0  0
  -49.4838   -7.5813   18.5618 C   0  0  0  0  0  0  0  0  0  0  0  0
  -51.8188   -7.6523   18.1018 C   0  0  0  0  0  0  0  0  0  0  0  0
  -50.7148   -8.1693   18.7408 C   0  0  0  0  0  0  0  0  0  0  0  0
  -50.2998   -0.7513   12.2458 H   0  0  0  0  0  0  0  0  0  0  0  0
  -47.1398    0.1477   12.6108 H   0  0  0  0  0  0  0  0  0  0  0  0
  -45.5748   -0.9353   13.7228 H   0  0  0  0  0  0  0  0  0  0  0  0
  -52.2288   -4.6353   15.6108 H   0  0  0  0  0  0  0  0  0  0  0  0
  -46.7858   -3.0523   15.9138 H   0  0  0  0  0  0  0  0  0  0  0  0
  -48.4598   -6.0613   17.6238 H   0  0  0  0  0  0  0  0  0  0  0  0
  -52.5018   -6.1843   16.8288 H   0  0  0  0  0  0  0  0  0  0  0  0
  -48.6788   -7.9553   19.0238 H   0  0  0  0  0  0  0  0  0  0  0  0
  -52.7138   -8.0773   18.2308 H   0  0  0  0  0  0  0  0  0  0  0  0
  -50.8068   -8.9703   19.3328 H   0  0  0  0  0  0  0  0  0  0  0  0
  1  7  1  0
  1  8  1  0
  2  9  1  0
  3 14  1  0
  4 15  1  0
  5 10  2  0
  6  7  2  0
  6  9  1  0
  6 10  1  0
  7 13  1  0
  8 11  2  0
  8 12  1  0
  9 14  2  0
 10 11  1  0
 12 16  2  0
 12 17  1  0
 13 15  2  0
 14 15  1  0
 16 18  1  0
 17 19  2  0
 18 20  2  0
 19 20  1  0
  2 21  1  0
  3 22  1  0
  4 23  1  0
 11 24  1  0
 13 25  1  0
 16 26  1  0
 17 27  1  0
 18 28  1  0
 19 29  1  0
 20 30  1  0
M  END
>  <BioMolTech Lead Finder dG>
-7.101

>  <BioMolTech Lead Finder VSscore>
-8.817

>  <BioMolTech Lead Finder Rank score>
-10.661

>  <BioMolTech Lead Finder LE>
-0.355

>  <BioMolTech Lead Finder Structure Name>
/var/folders/xd/y7jw_xv579q2qqq7kks92xd80000gn/T/LeadFinder_49662_1/Ligand_1.sdf

>  <BioMolTech Lead Finder SDF id>
0

>  <BioMolTech Lead Finder Pose rank>
0

>  <BioMolTech Lead Finder version>
2001 1, 19 January 2019

>  <PUBCHEM_COMPOUND_CID>
5281605

>  <PUBCHEM_COMPOUND_CANONICALIZED>
1

>  <PUBCHEM_CACTVS_COMPLEXITY>
413

>  <PUBCHEM_CACTVS_HBOND_ACCEPTOR>
5

>  <PUBCHEM_CACTVS_HBOND_DONOR>
3

>  <PUBCHEM_CACTVS_ROTATABLE_BOND>
1

>  <PUBCHEM_CACTVS_SUBSKEYS>
AAADccBwOAAAAAAAAAAAAAAAAAAAAAAAAAAwYIAAAAAAAACBQAAAGgAACAAADASAmAAwBoAABgCIAqBSAAACCAAkIAAIiAEGiMgNJzaGNRqCeWGl4BUJuQfK7LzOIQABCAAIQABCAAIQABCAAAAAAAAAAA==

>  <PUBCHEM_IUPAC_OPENEYE_NAME>
5,6,7-trihydroxy-2-phenyl-chromen-4-one

>  <PUBCHEM_IUPAC_CAS_NAME>
5,6,7-trihydroxy-2-phenyl-1-benzopyran-4-one

>  <PUBCHEM_IUPAC_NAME_MARKUP>
5,6,7-trihydroxy-2-phenylchromen-4-one

>  <PUBCHEM_IUPAC_NAME>
5,6,7-trihydroxy-2-phenylchromen-4-one

>  <PUBCHEM_IUPAC_SYSTEMATIC_NAME>
5,6,7-tris(oxidanyl)-2-phenyl-chromen-4-one

>  <PUBCHEM_IUPAC_TRADITIONAL_NAME>
5,6,7-trihydroxy-2-phenyl-chromone

>  <PUBCHEM_IUPAC_INCHI>
InChI=1S/C15H10O5/c16-9-6-11(8-4-2-1-3-5-8)20-12-7-10(17)14(18)15(19)13(9)12/h1-7,17-19H

>  <PUBCHEM_IUPAC_INCHIKEY>
FXNFHKRTJBSTCS-UHFFFAOYSA-N

>  <PUBCHEM_XLOGP3>
1.7

>  <PUBCHEM_EXACT_MASS>
270.052823

>  <PUBCHEM_MOLECULAR_FORMULA>
C15H10O5

>  <PUBCHEM_MOLECULAR_WEIGHT>
270.24

>  <PUBCHEM_OPENEYE_CAN_SMILES>
C1=CC=C(C=C1)C2=CC(=O)C3=C(O2)C=C(C(=C3O)O)O

>  <PUBCHEM_OPENEYE_ISO_SMILES>
C1=CC=C(C=C1)C2=CC(=O)C3=C(O2)C=C(C(=C3O)O)O

>  <PUBCHEM_CACTVS_TPSA>
87

>  <PUBCHEM_MONOISOTOPIC_WEIGHT>
270.052823

>  <PUBCHEM_TOTAL_CHARGE>
0

>  <PUBCHEM_HEAVY_ATOM_COUNT>
20

>  <PUBCHEM_ATOM_DEF_STEREO_COUNT>
0

>  <PUBCHEM_ATOM_UDEF_STEREO_COUNT>
0

>  <PUBCHEM_BOND_DEF_STEREO_COUNT>
0

>  <PUBCHEM_BOND_UDEF_STEREO_COUNT>
0

>  <PUBCHEM_ISOTOPIC_ATOM_COUNT>
0

>  <PUBCHEM_COMPONENT_COUNT>
1

>  <PUBCHEM_CACTVS_TAUTO_COUNT>
-1

>  <PUBCHEM_COORDINATE_TYPE>
1
5
255

>  <PUBCHEM_BONDANNOTATIONS>
1  7  8
1  8  8
10  11  8
12  16  8
12  17  8
13  15  8
14  15  8
16  18  8
17  19  8
18  20  8
19  20  8
6  10  8
6  7  8
6  9  8
7  13  8
8  11  8
9  14  8

>  <LF dG>
-7.101

>  <LF VSscore>
-8.817

>  <LF Rank Score>
-10.661

>  <LF LE>
-0.355

>  <Preferred Pose_cresset>
true

>  <Favorite_cresset>
false

>  <Protein_cresset>
6M2N_Dimer_P

>  <MW_cresset>
270.2

>  <#Atoms_cresset>
20

>  <SlogP_cresset>
2.3

>  <TPSA_cresset>
87

>  <Flexibility_cresset>
1.7

>  <#RB_cresset>
4

>  <Rof5_cresset>
0

>  <Filename_cresset>
Baicalein.sdf

>  <Confs_cresset>
0

>  <Poses_cresset>
10

>  <_cresset_fieldpoints>
    -5     -52.436222      -0.816979      13.608786    -14.0282
    -5     -50.080566      -8.836565      15.602238     -2.8765
    -5     -51.069710      -5.151841      20.160461     -3.4375
    -6     -46.395226      -6.900669      18.530287      3.1436
    -6     -45.663769      -0.611582      11.992001     12.1689
    -6     -46.457016      -5.147861      17.040747      3.5814
    -6     -54.667229      -7.243228      17.023197      2.7881
    -6     -48.781593      -9.953665      20.452080      2.9993
    -6     -52.940247     -10.123568      19.679541      2.9017
    -7     -52.481209      -0.193582      14.751736     -1.6385
    -7     -48.021454      -3.953133      12.160355     -1.8164
    -7     -51.423622      -2.747869      11.652702     -1.7677
    -7     -49.453018      -0.354248      17.338161     -1.8097
    -7     -45.672043       1.431052      13.893925     -1.5312
    -7     -49.625137       1.444152      11.913895     -1.4562
    -7     -46.120861      -1.755053      11.520786     -1.3881
    -7     -44.112244      -2.655278      14.641554     -1.2323
    -7     -50.018082      -8.803194      15.237794     -1.7827
    -7     -51.127190      -4.919033      20.305275     -1.7864
    -7     -50.711887      -2.567301      18.115799     -2.4202
    -7     -53.168274     -10.246805      19.834507     -0.9674
    -7     -49.440132      -5.897008      13.689568     -2.3881
    -7     -48.725922     -10.150270      20.650578     -0.9670
    -8     -48.512367      -2.000218      14.695551      6.6002
    -8     -50.589367      -7.060893      17.921108      7.1498
    -8     -50.293667      -3.481411      15.294931      5.0057
    -8     -51.245644      -5.439553      16.520973      5.4459

$$$$
Untitled
  xed2sdf_05210316543D
 
 49 52  0  0  1  0  0  0  0  0999 V2000
  -51.4823   -6.8878   20.5456 O   0  0  0  0  0  0  0  0  0  0  0  0
  -49.7163   -8.0168   19.3496 O   0  0  0  0  0  0  0  0  0  0  0  0
  -51.2683   -9.7778   23.6036 O   0  0  0  0  0  0  0  0  0  0  0  0
  -49.8363  -10.1568   21.1466 O   0  0  0  0  0  0  0  0  0  0  0  0
  -53.4623   -7.9118   23.5236 O   0  0  0  0  0  0  0  0  0  0  0  0
  -52.4543   -4.6678   21.4916 O   0  5  0  0  0  0  0  0  0  0  0  0
  -54.4043   -5.6408   22.1726 O   0  0  0  0  0  0  0  0  0  0  0  0
  -47.6203   -4.3288   17.3726 O   0  0  0  0  0  0  0  0  0  0  0  0
  -51.8443   -7.8768   17.5176 O   0  0  0  0  0  0  0  0  0  0  0  0
  -51.7953   -5.9368   15.6096 O   0  0  0  0  0  0  0  0  0  0  0  0
  -50.5393   -3.9238   14.5986 O   0  0  0  0  0  0  0  0  0  0  0  0
  -51.6563   -9.1088   22.3956 C   0  0  0  0  0  0  0  0  0  0  0  0
  -50.4323   -8.8968   21.4886 C   0  0  0  0  0  0  0  0  0  0  0  0
  -52.2893   -7.7438   22.7146 C   0  0  0  0  0  0  0  0  0  0  0  0
  -50.8703   -8.1538   20.2106 C   0  0  0  0  0  0  0  0  0  0  0  0
  -52.6423   -7.0358   21.3916 C   0  0  0  0  0  0  0  0  0  0  0  0
  -53.2113   -5.6778   21.7086 C   0  0  0  0  0  0  0  0  0  0  0  0
  -49.7523   -7.0798   18.3996 C   0  0  0  0  0  0  0  0  0  0  0  0
  -48.7233   -6.1658   18.3426 C   0  0  0  0  0  0  0  0  0  0  0  0
  -50.7963   -6.9968   17.4756 C   0  0  0  0  0  0  0  0  0  0  0  0
  -48.6823   -5.1808   17.3746 C   0  0  0  0  0  0  0  0  0  0  0  0
  -49.7213   -5.1068   16.4476 C   0  0  0  0  0  0  0  0  0  0  0  0
  -50.7803   -6.0188   16.5106 C   0  0  0  0  0  0  0  0  0  0  0  0
  -49.6503   -4.0718   15.4366 C   0  0  0  0  0  0  0  0  0  0  0  0
  -47.5383   -3.3948   16.3696 C   0  0  0  0  0  0  0  0  0  0  0  0
  -48.5093   -3.2298   15.4236 C   0  0  0  0  0  0  0  0  0  0  0  0
  -46.3153   -2.5508   16.3646 C   0  0  0  0  0  0  0  0  0  0  0  0
  -46.1903   -1.5718   15.3896 C   0  0  0  0  0  0  0  0  0  0  0  0
  -45.2933   -2.6868   17.2946 C   0  0  0  0  0  0  0  0  0  0  0  0
  -45.0843   -0.7578   15.3426 C   0  0  0  0  0  0  0  0  0  0  0  0
  -44.1883   -1.8718   17.2466 C   0  0  0  0  0  0  0  0  0  0  0  0
  -44.0803   -0.9058   16.2716 C   0  0  0  0  0  0  0  0  0  0  0  0
  -52.3273   -9.6818   21.9246 H   0  0  0  0  0  0  0  0  0  0  0  0
  -49.7523   -8.3508   21.9766 H   0  0  0  0  0  0  0  0  0  0  0  0
  -51.6383   -7.1848   23.2286 H   0  0  0  0  0  0  0  0  0  0  0  0
  -51.5693   -8.6728   19.7186 H   0  0  0  0  0  0  0  0  0  0  0  0
  -53.3113   -7.5928   20.8986 H   0  0  0  0  0  0  0  0  0  0  0  0
  -52.0033   -9.7508   24.2896 H   0  0  0  0  0  0  0  0  0  0  0  0
  -50.5113  -10.7818   20.7406 H   0  0  0  0  0  0  0  0  0  0  0  0
  -53.3273   -8.6238   24.2206 H   0  0  0  0  0  0  0  0  0  0  0  0
  -52.0153   -8.2978   16.6206 H   0  0  0  0  0  0  0  0  0  0  0  0
  -51.8213   -6.7448   15.0106 H   0  0  0  0  0  0  0  0  0  0  0  0
  -47.9883   -6.2158   19.0186 H   0  0  0  0  0  0  0  0  0  0  0  0
  -48.4153   -2.5198   14.7256 H   0  0  0  0  0  0  0  0  0  0  0  0
  -46.9153   -1.4568   14.7116 H   0  0  0  0  0  0  0  0  0  0  0  0
  -45.3623   -3.3848   18.0066 H   0  0  0  0  0  0  0  0  0  0  0  0
  -45.0103   -0.0568   14.6326 H   0  0  0  0  0  0  0  0  0  0  0  0
  -43.4593   -1.9808   17.9226 H   0  0  0  0  0  0  0  0  0  0  0  0
  -43.2743   -0.3148   16.2376 H   0  0  0  0  0  0  0  0  0  0  0  0
  1 15  1  0
  1 16  1  0
  2 18  1  0
  6 17  1  0
  7 17  2  0
  8 21  1  0
  8 25  1  0
  9 20  1  0
 10 23  1  0
 11 24  2  0
 12  3  1  0
 12 13  1  0
 12 14  1  0
 13  4  1  0
 13 15  1  0
 14  5  1  0
 14 16  1  0
 15  2  1  0
 16 17  1  0
 18 19  2  0
 18 20  1  0
 19 21  1  0
 20 23  2  0
 21 22  2  0
 22 23  1  0
 22 24  1  0
 24 26  1  0
 25 26  2  0
 25 27  1  0
 27 28  2  0
 27 29  1  0
 28 30  1  0
 29 31  2  0
 30 32  2  0
 31 32  1  0
  3 38  1  0
  4 39  1  0
  5 40  1  0
  9 41  1  0
 10 42  1  0
 12 33  1  0
 13 34  1  0
 14 35  1  0
 15 36  1  0
 16 37  1  0
 19 43  1  0
 26 44  1  0
 28 45  1  0
 29 46  1  0
 30 47  1  0
 31 48  1  0
 32 49  1  0
M  CHG  1   6  -1
M  END
>  <BioMolTech Lead Finder dG>
-6.598

>  <BioMolTech Lead Finder VSscore>
-11.364

>  <BioMolTech Lead Finder Rank score>
-11.549

>  <BioMolTech Lead Finder LE>
-0.206

>  <BioMolTech Lead Finder Structure Name>
/var/folders/xd/y7jw_xv579q2qqq7kks92xd80000gn/T/LeadFinder_49663_1/Ligand_1.sdf

>  <BioMolTech Lead Finder SDF id>
0

>  <BioMolTech Lead Finder Pose rank>
0

>  <BioMolTech Lead Finder version>
2001 1, 19 January 2019

>  <PUBCHEM_COMPOUND_CID>
64982

>  <PUBCHEM_COMPOUND_CANONICALIZED>
1

>  <PUBCHEM_CACTVS_COMPLEXITY>
748

>  <PUBCHEM_CACTVS_HBOND_ACCEPTOR>
11

>  <PUBCHEM_CACTVS_HBOND_DONOR>
6

>  <PUBCHEM_CACTVS_ROTATABLE_BOND>
4

>  <PUBCHEM_CACTVS_SUBSKEYS>
AAADceB4PAAAAAAAAAAAAAAAAAAAAAAAAAA0YIEAAAAAAACBQAAAGgAACAAADBSwmAMwDoAABgCIAqDSCAICCAAkIAAIiAFGiMgdNzaGNR6ieWOl4BUPuQfK7LzOIQABCAAIQABCAAIQABCAAAAAAAAAAA==

>  <PUBCHEM_IUPAC_OPENEYE_NAME>
(2S,3S,4S,5R,6S)-6-(5,6-dihydroxy-4-oxo-2-phenyl-chromen-7-yl)oxy-3,4,5-trihydroxy-tetrahydropyran-2-carboxylic acid

>  <PUBCHEM_IUPAC_CAS_NAME>
(2S,3S,4S,5R,6S)-6-[(5,6-dihydroxy-4-oxo-2-phenyl-1-benzopyran-7-yl)oxy]-3,4,5-trihydroxy-2-oxanecarboxylic acid

>  <PUBCHEM_IUPAC_NAME_MARKUP>
(2<I>S</I>,3<I>S</I>,4<I>S</I>,5<I>R</I>,6<I>S</I>)-6-(5,6-dihydroxy-4-oxo-2-phenylchromen-7-yl)oxy-3,4,5-trihydroxyoxane-2-carboxylic acid

>  <PUBCHEM_IUPAC_NAME>
(2S,3S,4S,5R,6S)-6-(5,6-dihydroxy-4-oxo-2-phenylchromen-7-yl)oxy-3,4,5-trihydroxyoxane-2-carboxylic acid

>  <PUBCHEM_IUPAC_SYSTEMATIC_NAME>
(2S,3S,4S,5R,6S)-6-[5,6-bis(oxidanyl)-4-oxidanylidene-2-phenyl-chromen-7-yl]oxy-3,4,5-tris(oxidanyl)oxane-2-carboxylic acid

>  <PUBCHEM_IUPAC_TRADITIONAL_NAME>
(2S,3S,4S,5R,6S)-6-(5,6-dihydroxy-4-keto-2-phenyl-chromen-7-yl)oxy-3,4,5-trihydroxy-tetrahydropyran-2-carboxylic acid

>  <PUBCHEM_IUPAC_INCHI>
InChI=1S/C21H18O11/c22-9-6-10(8-4-2-1-3-5-8)30-11-7-12(14(23)15(24)13(9)11)31-21-18(27)16(25)17(26)19(32-21)20(28)29/h1-7,16-19,21,23-27H,(H,28,29)/t16-,17-,18+,19-,21+/m0/s1

>  <PUBCHEM_IUPAC_INCHIKEY>
IKIIZLYTISPENI-ZFORQUDYSA-N

>  <PUBCHEM_XLOGP3_AA>
1.1

>  <PUBCHEM_EXACT_MASS>
446.084911

>  <PUBCHEM_MOLECULAR_FORMULA>
C21H18O11

>  <PUBCHEM_MOLECULAR_WEIGHT>
446.4

>  <PUBCHEM_OPENEYE_CAN_SMILES>
C1=CC=C(C=C1)C2=CC(=O)C3=C(C(=C(C=C3O2)OC4C(C(C(C(O4)C(=O)O)O)O)O)O)O

>  <PUBCHEM_OPENEYE_ISO_SMILES>
C1=CC=C(C=C1)C2=CC(=O)C3=C(C(=C(C=C3O2)O[C@H]4[C@@H]([C@H]([C@@H]([C@H](O4)C(=O)O)O)O)O)O)O

>  <PUBCHEM_CACTVS_TPSA>
183

>  <PUBCHEM_MONOISOTOPIC_WEIGHT>
446.084911

>  <PUBCHEM_TOTAL_CHARGE>
0

>  <PUBCHEM_HEAVY_ATOM_COUNT>
32

>  <PUBCHEM_ATOM_DEF_STEREO_COUNT>
5

>  <PUBCHEM_ATOM_UDEF_STEREO_COUNT>
0

>  <PUBCHEM_BOND_DEF_STEREO_COUNT>
0

>  <PUBCHEM_BOND_UDEF_STEREO_COUNT>
0

>  <PUBCHEM_ISOTOPIC_ATOM_COUNT>
0

>  <PUBCHEM_COMPONENT_COUNT>
1

>  <PUBCHEM_CACTVS_TAUTO_COUNT>
-1

>  <PUBCHEM_COORDINATE_TYPE>
1
5
255

>  <PUBCHEM_BONDANNOTATIONS>
16  17  5
18  19  8
18  20  8
19  21  8
15  2  5
20  23  8
21  22  8
22  23  8
22  24  8
24  26  8
25  26  8
27  28  8
27  29  8
28  30  8
29  31  8
12  3  5
30  32  8
31  32  8
13  4  6
14  5  6
8  21  8
8  25  8

>  <LF dG>
-6.598

>  <LF VSscore>
-11.364

>  <LF Rank Score>
-11.549

>  <LF LE>
-0.206

>  <Preferred Pose_cresset>
true

>  <Favorite_cresset>
false

>  <Protein_cresset>
6M2N_Dimer_P

>  <MW_cresset>
445.4

>  <#Atoms_cresset>
32

>  <SlogP_cresset>
1.1

>  <TPSA_cresset>
186

>  <Flexibility_cresset>
7.6

>  <#RB_cresset>
9

>  <Rof5_cresset>
1

>  <Filename_cresset>
Baicalin.sdf

>  <Confs_cresset>
0

>  <Poses_cresset>
10

>  <_cresset_fieldpoints>
    -5     -50.864326      -4.991752      20.477081    -14.1440
    -5     -49.299324     -10.800077      22.984535    -10.7377
    -5     -48.073944     -10.039585      20.591217    -10.8827
    -5     -54.708710      -3.846319      22.414650    -11.9190
    -5     -55.166245      -7.183131      23.021595    -11.1575
    -5     -53.447319      -3.211983      21.939976    -12.2203
    -5     -43.868645      -3.753701      14.611309     -4.1486
    -5     -46.798145      -0.019597      18.218069     -4.9681
    -5     -52.428864      -4.185849      14.787724    -14.6730
    -6     -53.475060     -10.117921      25.076534     10.8196
    -6     -52.159821     -10.993615      20.016916      8.3147
    -6     -51.987591      -8.544050      14.888814      9.2720
    -6     -46.741432       0.097817      12.892073      1.8504
    -6     -41.378437      -0.463920      17.727394      1.8627
    -6     -43.002968      -3.434791      19.600906      1.3707
    -6     -42.978676       1.397500      14.472576      1.9566
    -7     -50.161507     -10.589199      18.348022     -2.1349
    -7     -50.199532     -11.932199      22.832703     -1.5243
    -7     -55.617649      -7.780651      22.495993     -1.7811
    -7     -55.069286      -9.260090      22.244198     -1.7655
    -7     -50.866604     -10.325662      17.831158     -2.1454
    -7     -47.336151      -8.060780      20.783569     -2.0018
    -7     -53.778893      -9.878361      19.741459     -1.9310
    -7     -49.924965      -5.321184      21.443703     -3.2277
    -7     -52.580345     -10.985646      19.661961     -1.7987
    -7     -49.703461      -8.309135      24.825237     -1.6556
    -7     -51.376381      -4.361056      19.509739     -3.0583
    -7     -54.170624      -5.903885      24.610672     -1.6085
    -7     -53.954865      -7.054745      16.326809     -1.6215
    -7     -53.847641      -6.805347      18.440247     -2.2721
    -7     -53.898811      -8.165396      18.492992     -2.2341
    -7     -48.048424      -7.879617      15.331316     -1.8684
    -7     -52.754581      -3.496540      15.778669     -1.6434
    -7     -50.417351      -6.086394      13.212490     -1.7986
    -7     -46.700874      -5.645209      14.698153     -2.4365
    -7     -49.372971      -1.992842      18.143757     -2.3833
    -7     -46.878876       0.262702      18.256702     -1.7849
    -7     -42.895519       1.650106      14.367573     -0.9670
    -7     -43.634716      -4.073221      19.855659     -1.0131
    -7     -41.183060      -0.477551      17.999126     -0.9675
    -7     -43.921028      -3.993442      14.371173     -1.7862
    -8     -49.713905      -6.066651      17.417021      6.5970
    -8     -51.666649      -8.304308      21.670630      5.1787
    -8     -45.196228      -1.723793      16.314571      7.1514
    -8     -48.864990      -4.216777      16.167555      5.0238
    -8     -47.188126      -2.495932      15.636360      5.5685

$$$$
Untitled
  xed2sdf_05210316543D
 
 62 64  0  0  1  0  0  0  0  0999 V2000
  -47.8983  -13.5074   22.3959 O   0  0  0  0  0  0  0  0  0  0  0  0
  -47.0163  -15.3264   23.9999 O   0  0  0  0  0  0  0  0  0  0  0  0
  -48.4103  -14.5524   25.8239 O   0  0  0  0  0  0  0  0  0  0  0  0
  -46.9513  -15.9014   19.7079 O   0  0  0  0  0  0  0  0  0  0  0  0
  -48.7803  -11.2754   22.3009 O   0  0  0  0  0  0  0  0  0  0  0  0
  -47.0623  -13.4124   18.2799 O   0  0  0  0  0  0  0  0  0  0  0  0
  -48.7083  -11.3654   19.4709 O   0  0  0  0  0  0  0  0  0  0  0  0
  -50.0633  -16.9334   25.3149 O   0  0  0  0  0  0  0  0  0  0  0  0
  -48.1833  -18.6824   26.4989 O   0  0  0  0  0  0  0  0  0  0  0  0
  -47.0523  -16.8704   28.4009 O   0  0  0  0  0  0  0  0  0  0  0  0
  -52.1993   -8.0074   17.9399 O   0  0  0  0  0  0  0  0  0  0  0  0
  -49.7273   -7.3584   16.9179 O   0  0  0  0  0  0  0  0  0  0  0  0
  -47.7873  -14.7814   21.7309 C   0  0  0  0  0  0  0  0  0  0  0  0
  -47.0343  -14.6404   20.3899 C   0  0  0  0  0  0  0  0  0  0  0  0
  -47.7743  -13.6174   19.5089 C   0  0  0  0  0  0  0  0  0  0  0  0
  -47.9363  -12.2824   20.2599 C   0  0  0  0  0  0  0  0  0  0  0  0
  -48.6733  -16.8404   24.9699 C   0  0  0  0  0  0  0  0  0  0  0  0
  -48.3053  -15.3784   24.6419 C   0  0  0  0  0  0  0  0  0  0  0  0
  -47.7973  -17.3504   26.1309 C   0  0  0  0  0  0  0  0  0  0  0  0
  -47.9083  -16.4074   27.3439 C   0  0  0  0  0  0  0  0  0  0  0  0
  -48.6273  -12.5314   21.6159 C   0  0  0  0  0  0  0  0  0  0  0  0
  -47.0673  -15.7934   22.6399 C   0  0  0  0  0  0  0  0  0  0  0  0
  -47.5373  -14.9794   26.8899 C   0  0  0  0  0  0  0  0  0  0  0  0
  -47.6533  -13.9994   28.0679 C   0  0  0  0  0  0  0  0  0  0  0  0
  -50.1433  -10.8224   22.2989 C   0  0  0  0  0  0  0  0  0  0  0  0
  -50.1923   -9.2874   22.2029 C   0  0  0  0  0  0  0  0  0  0  0  0
  -50.0643   -8.7654   20.7829 C   0  0  0  0  0  0  0  0  0  0  0  0
  -51.1903   -8.6204   19.9999 C   0  0  0  0  0  0  0  0  0  0  0  0
  -48.8293   -8.4364   20.2689 C   0  0  0  0  0  0  0  0  0  0  0  0
  -51.0843   -8.1494   18.7099 C   0  0  0  0  0  0  0  0  0  0  0  0
  -48.7153   -7.9674   18.9779 C   0  0  0  0  0  0  0  0  0  0  0  0
  -49.8393   -7.8224   18.1949 C   0  0  0  0  0  0  0  0  0  0  0  0
  -48.7093  -15.1164   21.5369 H   0  0  0  0  0  0  0  0  0  0  0  0
  -46.1023  -14.3284   20.5739 H   0  0  0  0  0  0  0  0  0  0  0  0
  -48.6833  -13.9774   19.2969 H   0  0  0  0  0  0  0  0  0  0  0  0
  -47.0333  -11.8844   20.4209 H   0  0  0  0  0  0  0  0  0  0  0  0
  -48.5073  -17.4094   24.1649 H   0  0  0  0  0  0  0  0  0  0  0  0
  -48.9583  -14.9984   23.9879 H   0  0  0  0  0  0  0  0  0  0  0  0
  -46.8453  -17.3654   25.8269 H   0  0  0  0  0  0  0  0  0  0  0  0
  -48.8423  -16.3964   27.7009 H   0  0  0  0  0  0  0  0  0  0  0  0
  -49.5373  -12.9194   21.4679 H   0  0  0  0  0  0  0  0  0  0  0  0
  -46.5933  -14.9884   26.5589 H   0  0  0  0  0  0  0  0  0  0  0  0
  -47.5133  -15.9034   18.8729 H   0  0  0  0  0  0  0  0  0  0  0  0
  -47.3423  -14.0774   17.5789 H   0  0  0  0  0  0  0  0  0  0  0  0
  -49.6953  -11.5154   19.5969 H   0  0  0  0  0  0  0  0  0  0  0  0
  -50.3663  -17.8914   25.3609 H   0  0  0  0  0  0  0  0  0  0  0  0
  -49.1333  -18.8764   26.2289 H   0  0  0  0  0  0  0  0  0  0  0  0
  -46.4363  -17.5994   28.0819 H   0  0  0  0  0  0  0  0  0  0  0  0
  -52.0153   -8.2414   16.9789 H   0  0  0  0  0  0  0  0  0  0  0  0
  -50.4093   -7.7824   16.3119 H   0  0  0  0  0  0  0  0  0  0  0  0
  -47.5553  -16.6654   22.6109 H   0  0  0  0  0  0  0  0  0  0  0  0
  -46.1303  -15.9034   22.3079 H   0  0  0  0  0  0  0  0  0  0  0  0
  -47.9463  -14.5014   28.8819 H   0  0  0  0  0  0  0  0  0  0  0  0
  -46.7663  -13.5704   28.2389 H   0  0  0  0  0  0  0  0  0  0  0  0
  -48.3223  -13.2884   27.8509 H   0  0  0  0  0  0  0  0  0  0  0  0
  -50.5933  -11.1174   23.1429 H   0  0  0  0  0  0  0  0  0  0  0  0
  -50.6163  -11.2124   21.5089 H   0  0  0  0  0  0  0  0  0  0  0  0
  -49.4453   -8.9114   22.7509 H   0  0  0  0  0  0  0  0  0  0  0  0
  -51.0893   -9.0004   22.5409 H   0  0  0  0  0  0  0  0  0  0  0  0
  -52.0883   -8.8574   20.3709 H   0  0  0  0  0  0  0  0  0  0  0  0
  -48.0123   -8.5394   20.8349 H   0  0  0  0  0  0  0  0  0  0  0  0
  -47.8163   -7.7314   18.6099 H   0  0  0  0  0  0  0  0  0  0  0  0
  1 13  1  0
  1 21  1  0
  2 22  1  0
  3 18  1  0
  3 23  1  0
  5 25  1  0
 11 30  1  0
 12 32  1  0
 13 14  1  0
 13 22  1  0
 14  4  1  0
 14 15  1  0
 15  6  1  0
 15 16  1  0
 16  7  1  0
 16 21  1  0
 17  8  1  0
 17 18  1  0
 17 19  1  0
 18  2  1  0
 19  9  1  0
 19 20  1  0
 20 10  1  0
 20 23  1  0
 21  5  1  0
 23 24  1  0
 25 26  1  0
 26 27  1  0
 27 28  2  0
 27 29  1  0
 28 30  1  0
 29 31  2  0
 30 32  2  0
 31 32  1  0
  4 43  1  0
  6 44  1  0
  7 45  1  0
  8 46  1  0
  9 47  1  0
 10 48  1  0
 11 49  1  0
 12 50  1  0
 13 33  1  0
 14 34  1  0
 15 35  1  0
 16 36  1  0
 17 37  1  0
 18 38  1  0
 19 39  1  0
 20 40  1  0
 21 41  1  0
 22 51  1  0
 22 52  1  0
 23 42  1  0
 24 53  1  0
 24 54  1  0
 24 55  1  0
 25 56  1  0
 25 57  1  0
 26 58  1  0
 26 59  1  0
 28 60  1  0
 29 61  1  0
 31 62  1  0
M  END
>  <BioMolTech Lead Finder dG>
-6.549

>  <BioMolTech Lead Finder VSscore>
-12.317

>  <BioMolTech Lead Finder Rank score>
-9.926

>  <BioMolTech Lead Finder LE>
-0.205

>  <BioMolTech Lead Finder Structure Name>
/var/folders/xd/y7jw_xv579q2qqq7kks92xd80000gn/T/LeadFinder_49661_1/Ligand_1.sdf

>  <BioMolTech Lead Finder SDF id>
0

>  <BioMolTech Lead Finder Pose rank>
0

>  <BioMolTech Lead Finder version>
2001 1, 19 January 2019

>  <PUBCHEM_COMPOUND_CID>
69634125

>  <PUBCHEM_COMPOUND_CANONICALIZED>
1

>  <PUBCHEM_CACTVS_COMPLEXITY>
581

>  <PUBCHEM_CACTVS_HBOND_ACCEPTOR>
12

>  <PUBCHEM_CACTVS_HBOND_DONOR>
8

>  <PUBCHEM_CACTVS_ROTATABLE_BOND>
7

>  <PUBCHEM_CACTVS_SUBSKEYS>
AAADceB4PAAAAAAAAAAAAAAAAAAAAAAAAAA0SIAAAAAAAAABAAAAGgAACAAADBSwmAMyDoAABgCAAiBCAAACAAAgIAAIiAAGiIgZNiKCERKicAElwBEPmAfA4LwOIAABAAAAQABAAAIAAACAAAAAAAAAAA==

>  <PUBCHEM_IUPAC_OPENEYE_NAME>
(2R,3R,4R,5R,6S)-2-[[(2R,3S,4S,5R,6R)-6-[2-(3,4-dihydroxyphenyl)ethoxy]-3,4,5-trihydroxy-tetrahydropyran-2-yl]methoxy]-6-methyl-tetrahydropyran-3,4,5-triol

>  <PUBCHEM_IUPAC_CAS_NAME>
(2R,3R,4R,5R,6S)-2-[[(2R,3S,4S,5R,6R)-6-[2-(3,4-dihydroxyphenyl)ethoxy]-3,4,5-trihydroxy-2-oxanyl]methoxy]-6-methyloxane-3,4,5-triol

>  <PUBCHEM_IUPAC_NAME_MARKUP>
(2<I>R</I>,3<I>R</I>,4<I>R</I>,5<I>R</I>,6<I>S</I>)-2-[[(2<I>R</I>,3<I>S</I>,4<I>S</I>,5<I>R</I>,6<I>R</I>)-6-[2-(3,4-dihydroxyphenyl)ethoxy]-3,4,5-trihydroxyoxan-2-yl]methoxy]-6-methyloxane-3,4,5-tri

>  <PUBCHEM_IUPAC_NAME>
(2R,3R,4R,5R,6S)-2-[[(2R,3S,4S,5R,6R)-6-[2-(3,4-dihydroxyphenyl)ethoxy]-3,4,5-trihydroxyoxan-2-yl]methoxy]-6-methyloxane-3,4,5-triol

>  <PUBCHEM_IUPAC_SYSTEMATIC_NAME>
(2R,3R,4R,5R,6S)-2-[[(2R,3S,4S,5R,6R)-6-[2-[3,4-bis(oxidanyl)phenyl]ethoxy]-3,4,5-tris(oxidanyl)oxan-2-yl]methoxy]-6-methyl-oxane-3,4,5-triol

>  <PUBCHEM_IUPAC_TRADITIONAL_NAME>
(2R,3R,4R,5R,6S)-2-[[(2R,3S,4S,5R,6R)-6-[2-(3,4-dihydroxyphenyl)ethoxy]-3,4,5-trihydroxy-tetrahydropyran-2-yl]methoxy]-6-methyl-tetrahydropyran-3,4,5-triol

>  <PUBCHEM_IUPAC_INCHI>
InChI=1S/C20H30O12/c1-8-13(23)15(25)17(27)20(31-8)30-7-12-14(24)16(26)18(28)19(32-12)29-5-4-9-2-3-10(21)11(22)6-9/h2-3,6,8,12-28H,4-5,7H2,1H3/t8-,12+,13-,14+,15+,16-,17+,18+,19+,20+/m0/s1

>  <PUBCHEM_IUPAC_INCHIKEY>
QIMGUQIHCNDUKU-OJJLXHDHSA-N

>  <PUBCHEM_XLOGP3_AA>
-2.5

>  <PUBCHEM_EXACT_MASS>
462.173726

>  <PUBCHEM_MOLECULAR_FORMULA>
C20H30O12

>  <PUBCHEM_MOLECULAR_WEIGHT>
462.4

>  <PUBCHEM_OPENEYE_CAN_SMILES>
CC1C(C(C(C(O1)OCC2C(C(C(C(O2)OCCC3=CC(=C(C=C3)O)O)O)O)O)O)O)O

>  <PUBCHEM_OPENEYE_ISO_SMILES>
C[C@H]1[C@@H]([C@H]([C@H]([C@@H](O1)OC[C@@H]2[C@H]([C@@H]([C@H]([C@@H](O2)OCCC3=CC(=C(C=C3)O)O)O)O)O)O)O)O

>  <PUBCHEM_CACTVS_TPSA>
199

>  <PUBCHEM_MONOISOTOPIC_WEIGHT>
462.173726

>  <PUBCHEM_TOTAL_CHARGE>
0

>  <PUBCHEM_HEAVY_ATOM_COUNT>
32

>  <PUBCHEM_ATOM_DEF_STEREO_COUNT>
10

>  <PUBCHEM_ATOM_UDEF_STEREO_COUNT>
0

>  <PUBCHEM_BOND_DEF_STEREO_COUNT>
0

>  <PUBCHEM_BOND_UDEF_STEREO_COUNT>
0

>  <PUBCHEM_ISOTOPIC_ATOM_COUNT>
0

>  <PUBCHEM_COMPONENT_COUNT>
1

>  <PUBCHEM_CACTVS_TAUTO_COUNT>
-1

>  <PUBCHEM_COORDINATE_TYPE>
1
5
255

>  <PUBCHEM_BONDANNOTATIONS>
20  10  5
13  22  5
18  2  5
23  24  6
27  28  8
27  29  8
28  30  8
29  31  8
30  32  8
31  32  8
14  4  6
21  5  5
15  6  5
16  7  6
17  8  6
19  9  6

>  <LF dG>
-6.549

>  <LF VSscore>
-12.317

>  <LF Rank Score>
-9.926

>  <LF LE>
-0.205

>  <Preferred Pose_cresset>
true

>  <Favorite_cresset>
false

>  <Protein_cresset>
6M2N_Dimer_P

>  <MW_cresset>
462.4

>  <#Atoms_cresset>
32

>  <SlogP_cresset>
-0.4

>  <TPSA_cresset>
198.8

>  <Flexibility_cresset>
15.9

>  <#RB_cresset>
15

>  <Rof5_cresset>
2

>  <Filename_cresset>
Forsythoside E.sdf

>  <Confs_cresset>
0

>  <Poses_cresset>
10

>  <_cresset_fieldpoints>
    -5     -47.078613     -12.921664      24.131279    -13.6592
    -5     -47.697273     -10.671697      18.086218    -12.4507
    -5     -50.407127     -14.731100      26.322929     -9.6583
    -5     -45.329330     -16.838234      19.829752     -5.1792
    -5     -50.132233      -5.513199      20.281708     -6.6802
    -5     -47.244038     -16.507145      30.163265     -9.9820
    -6     -50.102386     -19.496666      24.858496     13.1527
    -6     -44.963516     -18.112301      27.172413      3.3956
    -6     -48.514465     -15.476135      17.495090     14.5672
    -6     -50.867294     -12.973087      19.673752     11.9230
    -6     -51.582695      -8.702206      15.361090     10.9772
    -6     -49.797920     -17.255203      21.985798      7.8308
    -7     -44.861534     -15.954483      24.954784     -2.4492
    -7     -48.787941     -17.459476      20.192303     -2.0088
    -7     -45.452282     -15.370216      17.734867     -1.6361
    -7     -44.798279     -12.495729      18.948917     -1.6295
    -7     -49.092789     -15.626160      17.289013     -1.2979
    -7     -51.079422     -14.405466      22.799324     -2.3388
    -7     -50.304504     -15.882030      19.789246     -1.7347
    -7     -48.250229     -20.073036      24.395653     -1.4804
    -7     -48.008545     -19.227348      28.863031     -1.5756
    -7     -50.843071     -17.996983      27.528877     -1.8845
    -7     -44.605492     -16.545998      27.190216     -1.8824
    -7     -44.784355     -15.945691      28.345438     -1.8704
    -7     -53.325577     -10.561256      21.742847     -1.8184
    -7     -51.782318     -11.855609      19.364031     -2.4085
    -7     -51.928963      -6.013803      16.249222     -1.4990
    -7     -50.336243      -5.355600      20.819347     -1.8201
    -7     -51.315140     -12.933455      19.609226     -2.4298
    -7     -50.616699     -16.531479      22.451252     -2.1634
    -7     -48.155685     -12.266388      24.730259     -3.1224
    -7     -50.980423     -14.623970      20.325762     -2.0598
    -7     -46.151100     -18.738077      23.629824     -1.8075
    -7     -46.805420      -9.950996      22.478447     -2.7191
    -7     -50.811714     -14.874983      26.641781     -2.5075
    -7     -47.960384     -16.483398      30.582420     -1.4326
    -7     -49.645847     -11.091042      17.399616     -2.6502
    -8     -47.927433     -13.649029      20.587400      5.1943
    -8     -47.136093     -15.295609      21.578098      4.2141
    -8     -49.933128      -8.307358      19.547974      6.9154
    -8     -47.848343     -16.299784      26.094208      4.8427
    -8     -48.332886     -16.355309      23.793238      3.3327
    -8     -47.711422     -14.987501      27.745399      4.4575
    -8     -50.084503      -8.797865      20.809824      5.6609

$$$$
Untitled
  xed2sdf_05210316543D
 
 94 97  0  0  1  0  0  0  0  0999 V2000
  -49.3908   -9.1945   17.0938 O   0  0  0  0  0  0  0  0  0  0  0  0
  -44.6438   -9.5195   18.4648 O   0  0  0  0  0  0  0  0  0  0  0  0
  -43.8118  -13.0465   21.1758 O   0  0  0  0  0  0  0  0  0  0  0  0
  -48.2638   -5.6445   18.6048 O   0  0  0  0  0  0  0  0  0  0  0  0
  -49.4738   -3.8075   16.5788 O   0  0  0  0  0  0  0  0  0  0  0  0
  -42.8728  -11.3205   20.0628 N   0  0  0  0  0  0  0  0  0  0  0  0
  -46.1238  -10.5215   19.8758 N   0  0  0  0  0  0  0  0  0  0  0  0
  -50.0018   -6.8345   17.7328 N   0  0  0  0  0  0  0  0  0  0  0  0
  -42.1168  -13.5285   19.7998 N   0  0  0  0  0  0  0  0  0  0  0  0
  -47.2568  -10.3975   18.9448 C   0  0  0  0  0  0  0  0  0  0  0  0
  -43.8658  -10.3625   20.5878 C   0  0  0  0  0  0  0  0  0  0  0  0
  -47.9258   -9.0095   19.0458 C   0  0  0  0  0  0  0  0  0  0  0  0
  -49.3748   -9.0335   18.5188 C   0  0  0  0  0  0  0  0  0  0  0  0
  -43.2058   -9.0725   21.1308 C   0  0  0  0  0  0  0  0  0  0  0  0
  -50.1108   -7.7325   18.8918 C   0  0  0  0  0  0  0  0  0  0  0  0
  -48.2488  -11.5075   19.3518 C   0  0  0  0  0  0  0  0  0  0  0  0
  -44.9048  -10.0805   19.5198 C   0  0  0  0  0  0  0  0  0  0  0  0
  -41.8078  -10.7935   19.1908 C   0  0  0  0  0  0  0  0  0  0  0  0
  -40.5868  -11.7185   19.1748 C   0  0  0  0  0  0  0  0  0  0  0  0
  -51.5848   -8.0555   19.2168 C   0  0  0  0  0  0  0  0  0  0  0  0
  -42.9648  -12.6415   20.3728 C   0  0  0  0  0  0  0  0  0  0  0  0
  -42.1548   -9.4185   22.1998 C   0  0  0  0  0  0  0  0  0  0  0  0
  -44.2538   -8.1515   21.7768 C   0  0  0  0  0  0  0  0  0  0  0  0
  -41.0998  -13.1165   18.8198 C   0  0  0  0  0  0  0  0  0  0  0  0
  -47.6338  -12.8465   19.7318 C   0  0  0  0  0  0  0  0  0  0  0  0
  -51.9928   -7.8585   20.6698 C   0  0  0  0  0  0  0  0  0  0  0  0
  -49.0468   -5.8925   17.6998 C   0  0  0  0  0  0  0  0  0  0  0  0
  -46.7658  -13.4825   18.8718 C   0  0  0  0  0  0  0  0  0  0  0  0
  -47.9358  -13.4285   20.9438 C   0  0  0  0  0  0  0  0  0  0  0  0
  -52.7118   -6.7465   21.0488 C   0  0  0  0  0  0  0  0  0  0  0  0
  -51.6388   -8.7945   21.6168 C   0  0  0  0  0  0  0  0  0  0  0  0
  -49.0298   -5.1645   16.3778 C   0  0  0  0  0  0  0  0  0  0  0  0
  -46.2038  -14.6895   19.2198 C   0  0  0  0  0  0  0  0  0  0  0  0
  -47.3748  -14.6355   21.2928 C   0  0  0  0  0  0  0  0  0  0  0  0
  -46.5088  -15.2665   20.4308 C   0  0  0  0  0  0  0  0  0  0  0  0
  -53.0728   -6.5705   22.3648 C   0  0  0  0  0  0  0  0  0  0  0  0
  -51.9988   -8.6195   22.9338 C   0  0  0  0  0  0  0  0  0  0  0  0
  -52.7158   -7.5065   23.3078 C   0  0  0  0  0  0  0  0  0  0  0  0
  -49.1188   -2.8965   15.6608 C   0  0  0  0  0  0  0  0  0  0  0  0
  -47.8368   -2.3545   15.6198 C   0  0  0  0  0  0  0  0  0  0  0  0
  -50.0498   -2.4955   14.7108 C   0  0  0  0  0  0  0  0  0  0  0  0
  -47.5208   -1.4165   14.6648 C   0  0  0  0  0  0  0  0  0  0  0  0
  -49.7158   -1.5575   13.7628 C   0  0  0  0  0  0  0  0  0  0  0  0
  -46.7078   -2.7245   16.5698 C   0  0  0  0  0  0  0  0  0  0  0  0
  -51.4638   -3.0545   14.6748 C   0  0  0  0  0  0  0  0  0  0  0  0
  -48.4538   -1.0145   13.7388 C   0  0  0  0  0  0  0  0  0  0  0  0
  -46.9558  -10.4905   17.9958 H   0  0  0  0  0  0  0  0  0  0  0  0
  -44.3248  -10.7735   21.3748 H   0  0  0  0  0  0  0  0  0  0  0  0
  -49.8418   -9.8095   18.9438 H   0  0  0  0  0  0  0  0  0  0  0  0
  -49.7148   -7.2955   19.6988 H   0  0  0  0  0  0  0  0  0  0  0  0
  -48.4678   -9.3695   16.7368 H   0  0  0  0  0  0  0  0  0  0  0  0
  -46.2528  -10.8935   20.6638 H   0  0  0  0  0  0  0  0  0  0  0  0
  -50.5528   -6.9345   17.0528 H   0  0  0  0  0  0  0  0  0  0  0  0
  -42.1898  -14.3805   20.0088 H   0  0  0  0  0  0  0  0  0  0  0  0
  -47.3948   -8.3525   18.5108 H   0  0  0  0  0  0  0  0  0  0  0  0
  -47.9518   -8.7455   20.0108 H   0  0  0  0  0  0  0  0  0  0  0  0
  -42.7748   -8.6065   20.3578 H   0  0  0  0  0  0  0  0  0  0  0  0
  -48.8698  -11.6615   18.5828 H   0  0  0  0  0  0  0  0  0  0  0  0
  -48.6998  -11.1755   20.1798 H   0  0  0  0  0  0  0  0  0  0  0  0
  -41.5308   -9.8915   19.5228 H   0  0  0  0  0  0  0  0  0  0  0  0
  -42.1658  -10.7315   18.2588 H   0  0  0  0  0  0  0  0  0  0  0  0
  -40.1478  -11.7285   20.0738 H   0  0  0  0  0  0  0  0  0  0  0  0
  -39.9068  -11.4065   18.5118 H   0  0  0  0  0  0  0  0  0  0  0  0
  -51.7528   -9.0105   18.9738 H   0  0  0  0  0  0  0  0  0  0  0  0
  -52.1318   -7.4055   18.6888 H   0  0  0  0  0  0  0  0  0  0  0  0
  -42.4018   -8.9665   23.0568 H   0  0  0  0  0  0  0  0  0  0  0  0
  -42.1268  -10.4085   22.3378 H   0  0  0  0  0  0  0  0  0  0  0  0
  -41.2538   -9.1065   21.8998 H   0  0  0  0  0  0  0  0  0  0  0  0
  -44.0058   -7.9975   22.7338 H   0  0  0  0  0  0  0  0  0  0  0  0
  -44.2818   -7.2785   21.2908 H   0  0  0  0  0  0  0  0  0  0  0  0
  -45.1558   -8.5815   21.7268 H   0  0  0  0  0  0  0  0  0  0  0  0
  -41.5028  -13.1045   17.9048 H   0  0  0  0  0  0  0  0  0  0  0  0
  -40.3388  -13.7645   18.8368 H   0  0  0  0  0  0  0  0  0  0  0  0
  -46.5428  -13.0645   17.9908 H   0  0  0  0  0  0  0  0  0  0  0  0
  -48.5648  -12.9715   21.5728 H   0  0  0  0  0  0  0  0  0  0  0  0
  -52.9718   -6.0645   20.3648 H   0  0  0  0  0  0  0  0  0  0  0  0
  -51.1168   -9.6045   21.3468 H   0  0  0  0  0  0  0  0  0  0  0  0
  -48.1018   -5.1635   16.0068 H   0  0  0  0  0  0  0  0  0  0  0  0
  -49.6398   -5.6255   15.7338 H   0  0  0  0  0  0  0  0  0  0  0  0
  -45.5738  -15.1475   18.5918 H   0  0  0  0  0  0  0  0  0  0  0  0
  -47.5978  -15.0545   22.1728 H   0  0  0  0  0  0  0  0  0  0  0  0
  -46.1008  -16.1445   20.6838 H   0  0  0  0  0  0  0  0  0  0  0  0
  -53.5948   -5.7615   22.6358 H   0  0  0  0  0  0  0  0  0  0  0  0
  -51.7398   -9.3005   23.6178 H   0  0  0  0  0  0  0  0  0  0  0  0
  -52.9778   -7.3785   24.2648 H   0  0  0  0  0  0  0  0  0  0  0  0
  -46.6018   -1.0225   14.6438 H   0  0  0  0  0  0  0  0  0  0  0  0
  -50.3938   -1.2705   13.0868 H   0  0  0  0  0  0  0  0  0  0  0  0
  -45.8928   -2.1995   16.3268 H   0  0  0  0  0  0  0  0  0  0  0  0
  -46.9758   -2.5155   17.5108 H   0  0  0  0  0  0  0  0  0  0  0  0
  -46.5138   -3.7025   16.4978 H   0  0  0  0  0  0  0  0  0  0  0  0
  -51.9628   -2.6285   13.9208 H   0  0  0  0  0  0  0  0  0  0  0  0
  -51.4318   -4.0445   14.5408 H   0  0  0  0  0  0  0  0  0  0  0  0
  -51.9258   -2.8575   15.5398 H   0  0  0  0  0  0  0  0  0  0  0  0
  -48.2148   -0.3285   13.0508 H   0  0  0  0  0  0  0  0  0  0  0  0
  2 17  2  0
  3 21  2  0
  4 27  2  0
  5 32  1  0
  5 39  1  0
  6 11  1  0
  6 18  1  0
  6 21  1  0
  7 17  1  0
  8 27  1  0
  9 21  1  0
  9 24  1  0
 10  7  1  0
 10 12  1  0
 10 16  1  0
 11 14  1  0
 11 17  1  0
 12 13  1  0
 13  1  1  0
 13 15  1  0
 14 22  1  0
 14 23  1  0
 15  8  1  0
 15 20  1  0
 16 25  1  0
 18 19  1  0
 19 24  1  0
 20 26  1  0
 25 28  2  0
 25 29  1  0
 26 30  2  0
 26 31  1  0
 27 32  1  0
 28 33  1  0
 29 34  2  0
 30 36  1  0
 31 37  2  0
 33 35  2  0
 34 35  1  0
 36 38  2  0
 37 38  1  0
 39 40  2  0
 39 41  1  0
 40 42  1  0
 40 44  1  0
 41 43  2  0
 41 45  1  0
 42 46  2  0
 43 46  1  0
  1 51  1  0
  7 52  1  0
  8 53  1  0
  9 54  1  0
 10 47  1  0
 11 48  1  0
 12 55  1  0
 12 56  1  0
 13 49  1  0
 14 57  1  0
 15 50  1  0
 16 58  1  0
 16 59  1  0
 18 60  1  0
 18 61  1  0
 19 62  1  0
 19 63  1  0
 20 64  1  0
 20 65  1  0
 22 66  1  0
 22 67  1  0
 22 68  1  0
 23 69  1  0
 23 70  1  0
 23 71  1  0
 24 72  1  0
 24 73  1  0
 28 74  1  0
 29 75  1  0
 30 76  1  0
 31 77  1  0
 32 78  1  0
 32 79  1  0
 33 80  1  0
 34 81  1  0
 35 82  1  0
 36 83  1  0
 37 84  1  0
 38 85  1  0
 42 86  1  0
 43 87  1  0
 44 88  1  0
 44 89  1  0
 44 90  1  0
 45 91  1  0
 45 92  1  0
 45 93  1  0
 46 94  1  0
M  END
>  <BioMolTech Lead Finder dG>
-8.812

>  <BioMolTech Lead Finder VSscore>
-11.35

>  <BioMolTech Lead Finder Rank score>
-12.072

>  <BioMolTech Lead Finder LE>
-0.192

>  <BioMolTech Lead Finder Structure Name>
/var/folders/xd/y7jw_xv579q2qqq7kks92xd80000gn/T/LeadFinder_49662_1/Ligand_1.sdf

>  <BioMolTech Lead Finder SDF id>
0

>  <BioMolTech Lead Finder Pose rank>
0

>  <BioMolTech Lead Finder version>
2001 1, 19 January 2019

>  <PUBCHEM_COMPOUND_CID>
92727

>  <PUBCHEM_COMPOUND_CANONICALIZED>
1

>  <PUBCHEM_CACTVS_COMPLEXITY>
940

>  <PUBCHEM_CACTVS_HBOND_ACCEPTOR>
5

>  <PUBCHEM_CACTVS_HBOND_DONOR>
4

>  <PUBCHEM_CACTVS_ROTATABLE_BOND>
15

>  <PUBCHEM_CACTVS_SUBSKEYS>
AAADcfB/uAAAAAAAAAAAAAAAAAAAAAAAAAA8YMEAAAAAAAABUAAAHgAQCAAADTzhmAYzBoPABgCIAiFSEAICCAAgIAAIiIHMCIiOdjKE8T+XeCCu1hOYqAeQwPAOAAACAAAIAAAAAAQAABAAAAAAAAAAAA==

>  <PUBCHEM_IUPAC_OPENEYE_NAME>
(2S)-N-[(1S,3S,4S)-1-benzyl-4-[[2-(2,6-dimethylphenoxy)acetyl]amino]-3-hydroxy-5-phenyl-pentyl]-3-methyl-2-(2-oxohexahydropyrimidin-1-yl)butanamide

>  <PUBCHEM_IUPAC_CAS_NAME>
(2S)-N-[(2S,4S,5S)-5-[[2-(2,6-dimethylphenoxy)-1-oxoethyl]amino]-4-hydroxy-1,6-diphenylhexan-2-yl]-3-methyl-2-(2-oxo-1,3-diazinan-1-yl)butanamide

>  <PUBCHEM_IUPAC_NAME_MARKUP>
(2<I>S</I>)-<I>N</I>-[(2<I>S</I>,4<I>S</I>,5<I>S</I>)-5-[[2-(2,6-dimethylphenoxy)acetyl]amino]-4-hydroxy-1,6-diphenylhexan-2-yl]-3-methyl-2-(2-oxo-1,3-diazinan-1-yl)butanamide

>  <PUBCHEM_IUPAC_NAME>
(2S)-N-[(2S,4S,5S)-5-[[2-(2,6-dimethylphenoxy)acetyl]amino]-4-hydroxy-1,6-diphenylhexan-2-yl]-3-methyl-2-(2-oxo-1,3-diazinan-1-yl)butanamide

>  <PUBCHEM_IUPAC_SYSTEMATIC_NAME>
(2S)-N-[(2S,4S,5S)-5-[2-(2,6-dimethylphenoxy)ethanoylamino]-4-oxidanyl-1,6-diphenyl-hexan-2-yl]-3-methyl-2-(2-oxidanylidene-1,3-diazinan-1-yl)butanamide

>  <PUBCHEM_IUPAC_TRADITIONAL_NAME>
(2S)-N-[(1S,3S,4S)-1-benzyl-4-[[2-(2,6-dimethylphenoxy)acetyl]amino]-3-hydroxy-5-phenyl-pentyl]-2-(2-ketohexahydropyrimidin-1-yl)-3-methyl-butyramide

>  <PUBCHEM_IUPAC_INCHI>
InChI=1S/C37H48N4O5/c1-25(2)34(41-20-12-19-38-37(41)45)36(44)39-30(21-28-15-7-5-8-16-28)23-32(42)31(22-29-17-9-6-10-18-29)40-33(43)24-46-35-26(3)13-11-14-27(35)4/h5-11,13-18,25,30-32,34,42H,12,19-24H2

>  <PUBCHEM_IUPAC_INCHIKEY>
KJHKTHWMRKYKJE-SUGCFTRWSA-N

>  <PUBCHEM_XLOGP3_AA>
5.9

>  <PUBCHEM_EXACT_MASS>
628.362471

>  <PUBCHEM_MOLECULAR_FORMULA>
C37H48N4O5

>  <PUBCHEM_MOLECULAR_WEIGHT>
628.8

>  <PUBCHEM_OPENEYE_CAN_SMILES>
CC1=C(C(=CC=C1)C)OCC(=O)NC(CC2=CC=CC=C2)C(CC(CC3=CC=CC=C3)NC(=O)C(C(C)C)N4CCCNC4=O)O

>  <PUBCHEM_OPENEYE_ISO_SMILES>
CC1=C(C(=CC=C1)C)OCC(=O)N[C@@H](CC2=CC=CC=C2)[C@H](C[C@H](CC3=CC=CC=C3)NC(=O)[C@H](C(C)C)N4CCCNC4=O)O

>  <PUBCHEM_CACTVS_TPSA>
120

>  <PUBCHEM_MONOISOTOPIC_WEIGHT>
628.362471

>  <PUBCHEM_TOTAL_CHARGE>
0

>  <PUBCHEM_HEAVY_ATOM_COUNT>
46

>  <PUBCHEM_ATOM_DEF_STEREO_COUNT>
4

>  <PUBCHEM_ATOM_UDEF_STEREO_COUNT>
0

>  <PUBCHEM_BOND_DEF_STEREO_COUNT>
0

>  <PUBCHEM_BOND_UDEF_STEREO_COUNT>
0

>  <PUBCHEM_ISOTOPIC_ATOM_COUNT>
0

>  <PUBCHEM_COMPONENT_COUNT>
1

>  <PUBCHEM_CACTVS_TAUTO_COUNT>
-1

>  <PUBCHEM_COORDINATE_TYPE>
1
5
255

>  <PUBCHEM_BONDANNOTATIONS>
13  1  6
11  17  5
25  28  8
25  29  8
26  30  8
26  31  8
28  33  8
29  34  8
30  36  8
31  37  8
33  35  8
34  35  8
36  38  8
37  38  8
39  40  8
39  41  8
40  42  8
41  43  8
42  46  8
43  46  8
10  7  6
15  8  5

>  <LF dG>
-8.812

>  <LF VSscore>
-11.35

>  <LF Rank Score>
-12.072

>  <LF LE>
-0.192

>  <Preferred Pose_cresset>
true

>  <Favorite_cresset>
false

>  <Protein_cresset>
6M2N_Dimer_P

>  <MW_cresset>
628.8

>  <#Atoms_cresset>
46

>  <SlogP_cresset>
4.7

>  <TPSA_cresset>
120

>  <Flexibility_cresset>
16.1

>  <#RB_cresset>
16

>  <Rof5_cresset>
1

>  <Filename_cresset>
Lopinavir.sdf

>  <Confs_cresset>
0

>  <Poses_cresset>
10

>  <_cresset_fieldpoints>
    -5     -50.806938      -9.799681      16.131268     -5.4841
    -5     -49.199242     -15.531984      18.851883     -4.9672
    -5     -43.420158      -8.506603      17.733807    -10.1582
    -5     -44.352947     -14.331553      22.162457    -14.0252
    -5     -47.207214      -4.362474      19.098970    -13.0730
    -5     -44.223145     -12.190296      18.231428     -8.3896
    -5     -54.860893      -9.030050      21.522278     -4.4434
    -5     -47.703259      -3.813260      12.700137     -3.3223
    -5     -47.786789      -5.517653      20.323935    -11.7197
    -6     -51.786995      -6.443664      15.482553      5.9983
    -6     -47.657364     -10.703775      15.872354      5.1464
    -6     -50.962414     -11.500104      20.424885      5.1050
    -6     -38.847473     -13.082438      16.887447      3.7755
    -6     -49.784561     -11.166648      22.176603      5.7413
    -6     -41.178730     -16.138588      19.297358      4.0634
    -6     -39.209072      -9.093098      19.814369      2.8201
    -6     -54.344284      -5.715090      25.272419      1.5599
    -6     -44.441139      -0.688308      14.704227      1.6669
    -6     -45.915283       0.590896      12.770268      1.7904
    -6     -52.191063      -1.444271      11.760551      2.4401
    -7     -49.284073      -8.090239      15.076529     -2.3211
    -7     -51.572807      -9.077940      16.103537     -2.1365
    -7     -48.461060     -11.535841      16.072676     -2.4180
    -7     -45.800499      -8.603981      16.541752     -2.1647
    -7     -45.158806      -7.183766      18.776073     -2.8824
    -7     -46.089821      -6.232784      17.757978     -2.6265
    -7     -47.153656      -7.743812      16.065392     -2.6164
    -7     -43.624786     -15.234070      21.978666     -2.0183
    -7     -45.410271     -12.386137      22.788784     -3.0261
    -7     -48.687370      -7.404414      22.035187     -2.8608
    -7     -40.327694      -7.700315      19.857719     -1.7905
    -7     -41.066193     -11.335036      15.895633     -1.4344
    -7     -39.256748      -8.915888      20.303612     -1.7872
    -7     -40.918419     -12.682158      22.365114     -2.4336
    -7     -41.479939      -6.316290      21.204800     -1.5409
    -7     -46.709396      -6.383077      20.248434     -2.6811
    -7     -46.264778      -6.392109      19.697453     -2.6762
    -7     -44.194069     -12.153316      17.577290     -3.8345
    -7     -49.698044     -15.300459      18.619961     -1.8460
    -7     -55.027977      -9.334770      21.161472     -1.8325
    -7     -51.376240     -11.610601      19.884018     -3.0598
    -7     -43.935905     -12.177207      23.374773     -2.3327
    -7     -48.867104      -3.300138      19.191784     -2.5153
    -7     -54.403095      -5.233615      25.190083     -0.9684
    -7     -52.334068      -9.123793      26.274132     -0.9696
    -7     -48.368820      -9.852872      22.254379     -3.5124
    -7     -45.600983       0.619671      12.795279     -1.0060
    -7     -47.979404      -4.774144      13.201973     -2.5007
    -7     -49.815228       0.194377      16.864304     -1.9825
    -7     -51.855579      -4.811465      17.966274     -3.5400
    -7     -50.006027       0.449796      11.073435     -1.0011
    -8     -48.398499     -10.113806      19.064388      5.8813
    -8     -52.349617      -7.684606      21.982384      7.1975
    -8     -47.076553     -14.054162      20.077808      7.1818
    -8     -51.167252      -8.131363      20.014116      5.6124
    -8     -43.403759      -9.196171      21.613483      5.9788
    -8     -48.772522      -1.937984      14.671345      7.0725
    -8     -48.726170      -5.903670      16.359678      2.8612
    -8     -41.066612     -11.795027      18.796253      4.9418
    -8     -49.074478      -8.593954      19.277763      5.0599
    -8     -51.943413      -7.858011      20.647640      5.7499

$$$$
Untitled
  xed2sdf_05210316543D
 
 52 55  0  0  1  0  0  0  0  0999 V2000
  -47.5999  -13.4783   22.2887 O   0  0  0  0  0  0  0  0  0  0  0  0
  -47.3669  -11.5453   20.8577 O   0  0  0  0  0  0  0  0  0  0  0  0
  -46.3659  -15.9523   19.1017 O   0  0  0  0  0  0  0  0  0  0  0  0
  -46.9609  -13.1833   18.6457 O   0  0  0  0  0  0  0  0  0  0  0  0
  -47.4629  -17.1113   21.4977 O   0  0  0  0  0  0  0  0  0  0  0  0
  -48.6719  -16.1323   24.2507 O   0  5  0  0  0  0  0  0  0  0  0  0
  -46.6959  -14.9953   24.3757 O   0  0  0  0  0  0  0  0  0  0  0  0
  -50.9639   -8.6063   21.5377 O   0  0  0  0  0  0  0  0  0  0  0  0
  -49.1799  -10.4153   22.4707 O   0  0  0  0  0  0  0  0  0  0  0  0
  -49.1619   -9.2303   17.1237 O   0  0  0  0  0  0  0  0  0  0  0  0
  -51.1239   -7.6403   17.6117 O   0  0  0  0  0  0  0  0  0  0  0  0
  -47.2069  -15.2053   19.9927 C   0  0  0  0  0  0  0  0  0  0  0  0
  -46.8189  -13.7173   19.9697 C   0  0  0  0  0  0  0  0  0  0  0  0
  -47.0739  -15.7323   21.4317 C   0  0  0  0  0  0  0  0  0  0  0  0
  -47.7209  -12.9433   20.9517 C   0  0  0  0  0  0  0  0  0  0  0  0
  -47.9549  -14.8773   22.3617 C   0  0  0  0  0  0  0  0  0  0  0  0
  -47.7589  -15.3733   23.7707 C   0  0  0  0  0  0  0  0  0  0  0  0
  -48.2529  -10.6993   20.3257 C   0  0  0  0  0  0  0  0  0  0  0  0
  -49.1899  -10.1133   21.1577 C   0  0  0  0  0  0  0  0  0  0  0  0
  -48.2549  -10.4043   18.9667 C   0  0  0  0  0  0  0  0  0  0  0  0
  -50.1029   -9.1933   20.6597 C   0  0  0  0  0  0  0  0  0  0  0  0
  -50.0919   -8.8983   19.2977 C   0  0  0  0  0  0  0  0  0  0  0  0
  -49.1659   -9.5193   18.4517 C   0  0  0  0  0  0  0  0  0  0  0  0
  -51.0459   -7.9253   18.8067 C   0  0  0  0  0  0  0  0  0  0  0  0
  -51.8069   -7.6293   21.0677 C   0  0  0  0  0  0  0  0  0  0  0  0
  -51.8889   -7.2853   19.7497 C   0  0  0  0  0  0  0  0  0  0  0  0
  -52.6449   -6.9493   22.0887 C   0  0  0  0  0  0  0  0  0  0  0  0
  -50.2499  -11.2453   22.9677 C   0  0  0  0  0  0  0  0  0  0  0  0
  -53.5169   -5.9103   21.7917 C   0  0  0  0  0  0  0  0  0  0  0  0
  -52.5449   -7.3633   23.4087 C   0  0  0  0  0  0  0  0  0  0  0  0
  -54.2579   -5.3113   22.7817 C   0  0  0  0  0  0  0  0  0  0  0  0
  -53.2859   -6.7643   24.3977 C   0  0  0  0  0  0  0  0  0  0  0  0
  -54.1439   -5.7353   24.0867 C   0  0  0  0  0  0  0  0  0  0  0  0
  -48.1529  -15.3113   19.6857 H   0  0  0  0  0  0  0  0  0  0  0  0
  -45.8629  -13.6223   20.2467 H   0  0  0  0  0  0  0  0  0  0  0  0
  -46.1199  -15.6673   21.7237 H   0  0  0  0  0  0  0  0  0  0  0  0
  -48.6879  -13.0433   20.7157 H   0  0  0  0  0  0  0  0  0  0  0  0
  -48.9109  -14.9613   22.0797 H   0  0  0  0  0  0  0  0  0  0  0  0
  -46.8329  -16.1433   18.2317 H   0  0  0  0  0  0  0  0  0  0  0  0
  -47.4729  -13.8113   18.0507 H   0  0  0  0  0  0  0  0  0  0  0  0
  -48.4429  -17.2043   21.7087 H   0  0  0  0  0  0  0  0  0  0  0  0
  -48.2649   -9.4163   16.7087 H   0  0  0  0  0  0  0  0  0  0  0  0
  -47.5889  -10.8403   18.3617 H   0  0  0  0  0  0  0  0  0  0  0  0
  -52.5389   -6.5863   19.4507 H   0  0  0  0  0  0  0  0  0  0  0  0
  -50.8619  -11.4743   22.2107 H   0  0  0  0  0  0  0  0  0  0  0  0
  -49.8719  -12.0833   23.3607 H   0  0  0  0  0  0  0  0  0  0  0  0
  -50.7569  -10.7523   23.6747 H   0  0  0  0  0  0  0  0  0  0  0  0
  -53.6069   -5.5943   20.8467 H   0  0  0  0  0  0  0  0  0  0  0  0
  -51.9229   -8.1103   23.6437 H   0  0  0  0  0  0  0  0  0  0  0  0
  -54.8829   -4.5643   22.5537 H   0  0  0  0  0  0  0  0  0  0  0  0
  -53.2009   -7.0763   25.3437 H   0  0  0  0  0  0  0  0  0  0  0  0
  -54.6839   -5.2983   24.8057 H   0  0  0  0  0  0  0  0  0  0  0  0
  1 15  1  0
  1 16  1  0
  2 18  1  0
  6 17  1  0
  7 17  2  0
  8 21  1  0
  8 25  1  0
  9 19  1  0
  9 28  1  0
 10 23  1  0
 11 24  2  0
 12  3  1  0
 12 13  1  0
 12 14  1  0
 13  4  1  0
 13 15  1  0
 14  5  1  0
 14 16  1  0
 15  2  1  0
 16 17  1  0
 18 19  2  0
 18 20  1  0
 19 21  1  0
 20 23  2  0
 21 22  2  0
 22 23  1  0
 22 24  1  0
 24 26  1  0
 25 26  2  0
 25 27  1  0
 27 29  2  0
 27 30  1  0
 29 31  1  0
 30 32  2  0
 31 33  2  0
 32 33  1  0
  3 39  1  0
  4 40  1  0
  5 41  1  0
 10 42  1  0
 12 34  1  0
 13 35  1  0
 14 36  1  0
 15 37  1  0
 16 38  1  0
 20 43  1  0
 26 44  1  0
 28 45  1  0
 28 46  1  0
 28 47  1  0
 29 48  1  0
 30 49  1  0
 31 50  1  0
 32 51  1  0
 33 52  1  0
M  CHG  1   6  -1
M  END
>  <BioMolTech Lead Finder dG>
-7.886

>  <BioMolTech Lead Finder VSscore>
-11.405

>  <BioMolTech Lead Finder Rank score>
-11.544

>  <BioMolTech Lead Finder LE>
-0.239

>  <BioMolTech Lead Finder Structure Name>
/var/folders/xd/y7jw_xv579q2qqq7kks92xd80000gn/T/LeadFinder_49663_1/Ligand_1.sdf

>  <BioMolTech Lead Finder SDF id>
0

>  <BioMolTech Lead Finder Pose rank>
0

>  <BioMolTech Lead Finder version>
2001 1, 19 January 2019

>  <PUBCHEM_COMPOUND_CID>
3084961

>  <PUBCHEM_COMPOUND_CANONICALIZED>
1

>  <PUBCHEM_CACTVS_COMPLEXITY>
763

>  <PUBCHEM_CACTVS_HBOND_ACCEPTOR>
11

>  <PUBCHEM_CACTVS_HBOND_DONOR>
5

>  <PUBCHEM_CACTVS_ROTATABLE_BOND>
5

>  <PUBCHEM_CACTVS_SUBSKEYS>
AAADceB4PAAAAAAAAAAAAAAAAAAAAAAAAAA0YIEAAAAAAACBQAAAGgAACAAADBSwmAMyDoAABgCIAqDSCAICCAAkIAAIiAFGiMgdNzaGNR6ieWKl4BUPuQfK7LzOIQABCAAIQABCAAIQABCAAAAAAAAAAA==

>  <PUBCHEM_IUPAC_OPENEYE_NAME>
(2S,3S,4S,5R,6S)-3,4,5-trihydroxy-6-(5-hydroxy-8-methoxy-4-oxo-2-phenyl-chromen-7-yl)oxy-tetrahydropyran-2-carboxylic acid

>  <PUBCHEM_IUPAC_CAS_NAME>
(2S,3S,4S,5R,6S)-3,4,5-trihydroxy-6-[(5-hydroxy-8-methoxy-4-oxo-2-phenyl-1-benzopyran-7-yl)oxy]-2-oxanecarboxylic acid

>  <PUBCHEM_IUPAC_NAME_MARKUP>
(2<I>S</I>,3<I>S</I>,4<I>S</I>,5<I>R</I>,6<I>S</I>)-3,4,5-trihydroxy-6-(5-hydroxy-8-methoxy-4-oxo-2-phenylchromen-7-yl)oxyoxane-2-carboxylic acid

>  <PUBCHEM_IUPAC_NAME>
(2S,3S,4S,5R,6S)-3,4,5-trihydroxy-6-(5-hydroxy-8-methoxy-4-oxo-2-phenylchromen-7-yl)oxyoxane-2-carboxylic acid

>  <PUBCHEM_IUPAC_SYSTEMATIC_NAME>
(2S,3S,4S,5R,6S)-6-(8-methoxy-5-oxidanyl-4-oxidanylidene-2-phenyl-chromen-7-yl)oxy-3,4,5-tris(oxidanyl)oxane-2-carboxylic acid

>  <PUBCHEM_IUPAC_TRADITIONAL_NAME>
(2S,3S,4S,5R,6S)-3,4,5-trihydroxy-6-(5-hydroxy-4-keto-8-methoxy-2-phenyl-chromen-7-yl)oxy-tetrahydropyran-2-carboxylic acid

>  <PUBCHEM_IUPAC_INCHI>
InChI=1S/C22H20O11/c1-30-18-13(32-22-17(27)15(25)16(26)20(33-22)21(28)29)8-11(24)14-10(23)7-12(31-19(14)18)9-5-3-2-4-6-9/h2-8,15-17,20,22,24-27H,1H3,(H,28,29)/t15-,16-,17+,20-,22+/m0/s1

>  <PUBCHEM_IUPAC_INCHIKEY>
LNOHXHDWGCMVCO-NTKSAMNMSA-N

>  <PUBCHEM_XLOGP3_AA>
1.4

>  <PUBCHEM_EXACT_MASS>
460.100561

>  <PUBCHEM_MOLECULAR_FORMULA>
C22H20O11

>  <PUBCHEM_MOLECULAR_WEIGHT>
460.4

>  <PUBCHEM_OPENEYE_CAN_SMILES>
COC1=C(C=C(C2=C1OC(=CC2=O)C3=CC=CC=C3)O)OC4C(C(C(C(O4)C(=O)O)O)O)O

>  <PUBCHEM_OPENEYE_ISO_SMILES>
COC1=C(C=C(C2=C1OC(=CC2=O)C3=CC=CC=C3)O)O[C@H]4[C@@H]([C@H]([C@@H]([C@H](O4)C(=O)O)O)O)O

>  <PUBCHEM_CACTVS_TPSA>
172

>  <PUBCHEM_MONOISOTOPIC_WEIGHT>
460.100561

>  <PUBCHEM_TOTAL_CHARGE>
0

>  <PUBCHEM_HEAVY_ATOM_COUNT>
33

>  <PUBCHEM_ATOM_DEF_STEREO_COUNT>
5

>  <PUBCHEM_ATOM_UDEF_STEREO_COUNT>
0

>  <PUBCHEM_BOND_DEF_STEREO_COUNT>
0

>  <PUBCHEM_BOND_UDEF_STEREO_COUNT>
0

>  <PUBCHEM_ISOTOPIC_ATOM_COUNT>
0

>  <PUBCHEM_COMPONENT_COUNT>
1

>  <PUBCHEM_CACTVS_TAUTO_COUNT>
-1

>  <PUBCHEM_COORDINATE_TYPE>
1
5
255

>  <PUBCHEM_BONDANNOTATIONS>
16  17  5
18  19  8
18  20  8
19  21  8
15  2  5
20  23  8
21  22  8
22  23  8
22  24  8
24  26  8
25  26  8
27  29  8
27  30  8
29  31  8
12  3  5
30  32  8
31  33  8
32  33  8
13  4  6
14  5  6
8  21  8
8  25  8

>  <LF dG>
-7.886

>  <LF VSscore>
-11.405

>  <LF Rank Score>
-11.544

>  <LF LE>
-0.239

>  <Preferred Pose_cresset>
true

>  <Favorite_cresset>
false

>  <Protein_cresset>
6M2N_Dimer_P

>  <MW_cresset>
459.4

>  <#Atoms_cresset>
33

>  <SlogP_cresset>
1.4

>  <TPSA_cresset>
175

>  <Flexibility_cresset>
7.6

>  <#RB_cresset>
9

>  <Rof5_cresset>
1

>  <Filename_cresset>
Wogonoside.sdf

>  <Confs_cresset>
0

>  <Poses_cresset>
10

>  <_cresset_fieldpoints>
    -5     -46.034439     -17.929771      20.319159    -10.4536
    -5     -45.395157     -12.092206      18.277927     -6.9372
    -5     -46.708656     -15.746091      26.029585    -10.4401
    -5     -47.938309     -16.474651      25.972746     -9.4023
    -5     -50.416061      -8.194557      15.973688    -14.3805
    -5     -45.908882     -13.288082      23.524616    -11.5279
    -5     -50.994217      -4.589630      23.512196     -4.3426
    -5     -55.634903      -8.239668      22.701714     -3.1218
    -6     -48.231670     -15.284222      17.391861     13.4003
    -6     -49.913094     -16.436363      20.714664     10.0618
    -6     -47.111519     -10.612252      16.075804      4.5646
    -6     -50.199627     -14.711308      20.162487     10.0791
    -6     -55.160221      -3.917665      20.174217      2.4514
    -6     -54.732460      -6.020295      27.111046      2.2677
    -6     -52.282570      -9.797726      25.286968      2.5175
    -6     -56.321640      -3.497465      24.259985      2.4115
    -7     -45.243420     -13.322261      23.028877     -2.5336
    -7     -45.052895     -11.238523      19.062763     -2.0554
    -7     -45.416840     -14.575178      17.217064     -1.6941
    -7     -43.999763     -15.635271      19.931248     -1.5854
    -7     -50.987026     -12.562928      19.717205     -2.9254
    -7     -49.737728     -13.303923      18.379143     -2.8408
    -7     -51.001568     -13.676359      20.766064     -2.4537
    -7     -47.665531     -18.262486      19.340458     -1.5591
    -7     -50.315590     -16.486809      20.530661     -1.7475
    -7     -50.403564     -17.026814      22.811029     -1.5573
    -7     -50.731331     -14.482203      23.992798     -1.7450
    -7     -51.552395      -9.713791      16.204266     -1.6406
    -7     -48.895874      -6.765338      16.723099     -1.7261
    -7     -47.630466     -18.331009      23.569080     -1.6513
    -7     -47.318184      -7.243327      20.450644     -1.9128
    -7     -47.114410     -11.796385      23.840580     -2.8338
    -7     -53.094086     -10.257334      21.470013     -2.9192
    -7     -55.633305      -8.600037      22.420406     -1.7898
    -7     -56.436394      -3.240125      24.359814     -0.9675
    -7     -49.394325      -5.996095      21.208513     -2.4850
    -7     -49.355247      -7.819699      23.575087     -2.7094
    -7     -54.580711      -6.004121      27.445395     -0.9673
    -7     -50.863415      -4.324770      23.388523     -1.7932
    -8     -50.967331      -8.166183      19.856865      5.0176
    -8     -47.442719     -14.583939      20.849348      5.1921
    -8     -49.187355      -9.799011      19.780394      6.6168
    -8     -53.401512      -6.338924      23.088490      7.1509
    -8     -50.913269     -11.756332      23.219730      2.5377
    -8     -52.634750      -6.726664      21.016674      5.4235

$$$$
Untitled
  xed2sdf_05210316543D
 
 33 35  0  0  0  0  0  0  0  0999 V2000
  -48.6404   -4.0871   15.9112 O   0  0  0  0  0  0  0  0  0  0  0  0
  -46.2624   -2.8081   15.7192 O   0  0  0  0  0  0  0  0  0  0  0  0
  -50.6574   -0.4231   13.4732 O   0  0  0  0  0  0  0  0  0  0  0  0
  -46.0484   -0.4101   14.4392 O   0  0  0  0  0  0  0  0  0  0  0  0
  -52.0424   -2.5921   14.3332 O   0  0  0  0  0  0  0  0  0  0  0  0
  -49.7244   -2.2851   14.6952 C   0  0  0  0  0  0  0  0  0  0  0  0
  -48.5974   -2.8851   15.2702 C   0  0  0  0  0  0  0  0  0  0  0  0
  -49.8524   -4.7121   16.0582 C   0  0  0  0  0  0  0  0  0  0  0  0
  -47.3664   -2.2461   15.1872 C   0  0  0  0  0  0  0  0  0  0  0  0
  -50.9854   -2.9961   14.8162 C   0  0  0  0  0  0  0  0  0  0  0  0
  -49.5924   -1.0481   14.0422 C   0  0  0  0  0  0  0  0  0  0  0  0
  -51.0094   -4.2191   15.5322 C   0  0  0  0  0  0  0  0  0  0  0  0
  -49.8494   -5.9781   16.8352 C   0  0  0  0  0  0  0  0  0  0  0  0
  -47.2524   -1.0351   14.5332 C   0  0  0  0  0  0  0  0  0  0  0  0
  -48.3674   -0.4411   13.9672 C   0  0  0  0  0  0  0  0  0  0  0  0
  -48.6404   -6.4601   17.3132 C   0  0  0  0  0  0  0  0  0  0  0  0
  -51.0014   -6.7031   17.1112 C   0  0  0  0  0  0  0  0  0  0  0  0
  -48.5814   -7.6231   18.0422 C   0  0  0  0  0  0  0  0  0  0  0  0
  -50.9414   -7.8661   17.8402 C   0  0  0  0  0  0  0  0  0  0  0  0
  -49.7324   -8.3291   18.3082 C   0  0  0  0  0  0  0  0  0  0  0  0
  -45.7794   -2.2761   16.9702 C   0  0  0  0  0  0  0  0  0  0  0  0
  -50.6914   -0.5601   12.4812 H   0  0  0  0  0  0  0  0  0  0  0  0
  -45.6134   -0.5661   13.5452 H   0  0  0  0  0  0  0  0  0  0  0  0
  -51.8694   -4.7161   15.6502 H   0  0  0  0  0  0  0  0  0  0  0  0
  -48.2774    0.4379   13.5002 H   0  0  0  0  0  0  0  0  0  0  0  0
  -47.7984   -5.9541   17.1252 H   0  0  0  0  0  0  0  0  0  0  0  0
  -51.8844   -6.3741   16.7752 H   0  0  0  0  0  0  0  0  0  0  0  0
  -47.7014   -7.9571   18.3802 H   0  0  0  0  0  0  0  0  0  0  0  0
  -51.7784   -8.3771   18.0322 H   0  0  0  0  0  0  0  0  0  0  0  0
  -49.6904   -9.1751   18.8392 H   0  0  0  0  0  0  0  0  0  0  0  0
  -46.3794   -1.5301   17.2592 H   0  0  0  0  0  0  0  0  0  0  0  0
  -45.7774   -2.9961   17.6642 H   0  0  0  0  0  0  0  0  0  0  0  0
  -44.8474   -1.9341   16.8532 H   0  0  0  0  0  0  0  0  0  0  0  0
  1  7  1  0
  1  8  1  0
  2  9  1  0
  2 21  1  0
  3 11  1  0
  4 14  1  0
  5 10  2  0
  6  7  2  0
  6 10  1  0
  6 11  1  0
  7  9  1  0
  8 12  2  0
  8 13  1  0
  9 14  2  0
 10 12  1  0
 11 15  2  0
 13 16  2  0
 13 17  1  0
 14 15  1  0
 16 18  1  0
 17 19  2  0
 18 20  2  0
 19 20  1  0
  3 22  1  0
  4 23  1  0
 12 24  1  0
 15 25  1  0
 16 26  1  0
 17 27  1  0
 18 28  1  0
 19 29  1  0
 20 30  1  0
 21 31  1  0
 21 32  1  0
 21 33  1  0
M  END
>  <BioMolTech Lead Finder dG>
-6.547

>  <BioMolTech Lead Finder VSscore>
-7.958

>  <BioMolTech Lead Finder Rank score>
-10.173

>  <BioMolTech Lead Finder LE>
-0.312

>  <BioMolTech Lead Finder Structure Name>
/var/folders/xd/y7jw_xv579q2qqq7kks92xd80000gn/T/LeadFinder_48575_1/Ligand_1.sdf

>  <BioMolTech Lead Finder SDF id>
0

>  <BioMolTech Lead Finder Pose rank>
0

>  <BioMolTech Lead Finder version>
2001 1, 19 January 2019

>  <PUBCHEM_COMPOUND_CID>
5281703

>  <PUBCHEM_COMPOUND_CANONICALIZED>
1

>  <PUBCHEM_CACTVS_COMPLEXITY>
426

>  <PUBCHEM_CACTVS_HBOND_ACCEPTOR>
5

>  <PUBCHEM_CACTVS_HBOND_DONOR>
2

>  <PUBCHEM_CACTVS_ROTATABLE_BOND>
2

>  <PUBCHEM_CACTVS_SUBSKEYS>
AAADccB4OAAAAAAAAAAAAAAAAAAAAAAAAAAwYIAAAAAAAACBQAAAGgAACAAADASAmAIyBoAABgCIAqBSAAACCAAkIAAIiAEGiMgNJzaGNRqCeWOl4BULuQfK7LzOIQABCAAIQABCAAIQABCAAAAAAAAAAA==

>  <PUBCHEM_IUPAC_OPENEYE_NAME>
5,7-dihydroxy-8-methoxy-2-phenyl-chromen-4-one

>  <PUBCHEM_IUPAC_CAS_NAME>
5,7-dihydroxy-8-methoxy-2-phenyl-1-benzopyran-4-one

>  <PUBCHEM_IUPAC_NAME_MARKUP>
5,7-dihydroxy-8-methoxy-2-phenylchromen-4-one

>  <PUBCHEM_IUPAC_NAME>
5,7-dihydroxy-8-methoxy-2-phenylchromen-4-one

>  <PUBCHEM_IUPAC_SYSTEMATIC_NAME>
8-methoxy-5,7-bis(oxidanyl)-2-phenyl-chromen-4-one

>  <PUBCHEM_IUPAC_TRADITIONAL_NAME>
5,7-dihydroxy-8-methoxy-2-phenyl-chromone

>  <PUBCHEM_IUPAC_INCHI>
InChI=1S/C16H12O5/c1-20-15-12(19)7-10(17)14-11(18)8-13(21-16(14)15)9-5-3-2-4-6-9/h2-8,17,19H,1H3

>  <PUBCHEM_IUPAC_INCHIKEY>
XLTFNNCXVBYBSX-UHFFFAOYSA-N

>  <PUBCHEM_XLOGP3_AA>
3

>  <PUBCHEM_EXACT_MASS>
284.068473

>  <PUBCHEM_MOLECULAR_FORMULA>
C16H12O5

>  <PUBCHEM_MOLECULAR_WEIGHT>
284.26

>  <PUBCHEM_OPENEYE_CAN_SMILES>
COC1=C(C=C(C2=C1OC(=CC2=O)C3=CC=CC=C3)O)O

>  <PUBCHEM_OPENEYE_ISO_SMILES>
COC1=C(C=C(C2=C1OC(=CC2=O)C3=CC=CC=C3)O)O

>  <PUBCHEM_CACTVS_TPSA>
76

>  <PUBCHEM_MONOISOTOPIC_WEIGHT>
284.068473

>  <PUBCHEM_TOTAL_CHARGE>
0

>  <PUBCHEM_HEAVY_ATOM_COUNT>
21

>  <PUBCHEM_ATOM_DEF_STEREO_COUNT>
0

>  <PUBCHEM_ATOM_UDEF_STEREO_COUNT>
0

>  <PUBCHEM_BOND_DEF_STEREO_COUNT>
0

>  <PUBCHEM_BOND_UDEF_STEREO_COUNT>
0

>  <PUBCHEM_ISOTOPIC_ATOM_COUNT>
0

>  <PUBCHEM_COMPONENT_COUNT>
1

>  <PUBCHEM_CACTVS_TAUTO_COUNT>
-1

>  <PUBCHEM_COORDINATE_TYPE>
1
5
255

>  <PUBCHEM_BONDANNOTATIONS>
1  7  8
1  8  8
10  12  8
11  15  8
13  16  8
13  17  8
14  15  8
16  18  8
17  19  8
18  20  8
19  20  8
6  10  8
6  11  8
6  7  8
7  9  8
8  12  8
9  14  8

>  <LF dG>
-6.547

>  <LF VSscore>
-7.958

>  <LF Rank Score>
-10.173

>  <LF LE>
-0.312

>  <Preferred Pose_cresset>
true

>  <Favorite_cresset>
false

>  <Protein_cresset>
6M2N_Dimer_P

>  <MW_cresset>
284.3

>  <#Atoms_cresset>
21

>  <SlogP_cresset>
2.6

>  <TPSA_cresset>
76

>  <Flexibility_cresset>
1.7

>  <#RB_cresset>
4

>  <Rof5_cresset>
0

>  <Filename_cresset>
Wogonin.sdf

>  <Confs_cresset>
0

>  <Poses_cresset>
10

>  <_cresset_fieldpoints>
    -5     -45.602188      -4.685465      14.995356     -5.3860
    -5     -45.590004       0.904617      15.752899     -6.9285
    -5     -49.332870      -8.756165      15.167080     -2.6496
    -5     -52.424736      -0.726010      14.145279    -21.3294
    -5     -50.113495      -5.717063      20.096592     -2.5905
    -6     -46.099541      -2.030331      19.877304      1.9333
    -6     -45.534088      -0.597633      11.706560      9.0540
    -6     -45.707375      -6.766539      18.285528      2.6828
    -6     -45.959644      -5.444578      18.317589      2.7375
    -6     -49.703720      -0.367667      10.852842      8.1119
    -6     -48.055161      -3.034880      18.748430      1.9710
    -6     -53.700752      -6.023383      16.123352      3.6545
    -6     -45.865273      -8.523763      19.096615      2.6132
    -6     -47.620934     -10.022223      19.683928      2.7240
    -6     -51.782467     -10.393446      19.278175      2.7651
    -7     -48.011738      -3.387620      11.924728     -1.8533
    -7     -50.391510       1.789473      12.366975     -1.2710
    -7     -51.496071      -2.674531      11.799919     -1.7673
    -7     -45.334412       0.911537      16.357716     -1.6437
    -7     -43.992828      -2.020123      14.202330     -1.8538
    -7     -45.854813       1.793014      13.334475     -1.2866
    -7     -48.885361      -0.489541      17.629318     -2.2320
    -7     -52.574005      -0.265819      15.190260     -1.6428
    -7     -49.395035      -8.643823      14.713152     -1.7829
    -7     -49.037453      -5.590067      13.420271     -2.4073
    -7     -48.528503      -3.285702      18.473663     -2.9546
    -7     -50.196106      -5.227999      20.156948     -1.7955
    -7     -47.376091     -10.260443      19.812511     -0.9672
    -7     -51.877983     -10.703028      19.455292     -0.9674
    -7     -46.700851      -5.526661      14.869129     -2.5568
    -8     -49.791988      -7.158438      17.573212      7.1501
    -8     -48.512238      -1.648561      14.609946      6.6062
    -8     -50.076908      -3.372321      15.254738      4.9927
    -8     -50.729511      -5.500626      16.388775      5.4352
    -8     -45.526901      -1.932775      17.735735      2.5204

$$$$
