W_DAR_D
  xed2sdf_05210316543D
 
 82 86  0  0  1  0  0  0  0  0999 V2000
  -39.6164   -9.3153   20.7268 O   0  0  0  0  0  0  0  0  0  0  0  0
  -40.2344  -10.3193   20.4168 C   0  0  0  0  0  0  0  0  0  0  0  0
  -40.4134  -11.4753   21.3708 C   0  0  0  0  0  0  0  0  0  0  0  0
  -41.8384  -12.0173   21.2688 C   0  0  0  0  0  0  0  0  0  0  0  0
  -42.0014  -12.5153   19.8288 C   0  0  0  0  0  0  0  0  0  0  0  0
  -43.4084  -12.9123   19.6788 N   0  0  0  0  0  0  0  0  0  0  0  0
  -44.4504  -12.0113   19.1558 C   0  0  0  0  0  0  0  0  0  0  0  0
  -45.6094  -12.7813   19.8178 C   0  0  0  0  0  0  0  0  0  0  0  0
  -47.0734  -12.5513   19.5058 C   0  0  0  0  0  0  0  0  0  0  0  0
  -47.3534  -11.3323   18.9578 N   0  0  0  0  0  0  0  0  0  0  0  0
  -47.4954  -10.1713   19.8458 C   0  0  0  0  0  0  0  0  0  0  0  0
  -48.8094   -9.3963   19.6538 C   0  0  0  0  0  0  0  0  0  0  0  0
  -48.8224   -8.8213   18.2288 C   0  0  0  0  0  0  0  0  0  0  0  0
  -47.9634   -7.5513   18.1418 C   0  0  0  0  0  0  0  0  0  0  0  0
  -48.8034   -6.4553   17.4678 C   0  0  0  0  0  0  0  0  0  0  0  0
  -48.1444   -5.0773   17.6268 C   0  0  0  0  0  0  0  0  0  0  0  0
  -48.8114   -4.2003   16.6548 N   0  0  0  0  0  0  0  0  0  0  0  0
  -48.0884   -3.4493   15.7958 C   0  0  0  0  0  0  0  0  0  0  0  0
  -46.8724   -3.5583   15.6578 O   0  0  0  0  0  0  0  0  0  0  0  0
  -48.7694   -2.4033   14.9858 C   0  0  0  0  0  0  0  0  0  0  0  0
  -50.1164   -2.5173   14.7028 C   0  0  0  0  0  0  0  0  0  0  0  0
  -50.7634   -1.5453   13.9838 C   0  0  0  0  0  0  0  0  0  0  0  0
  -50.1604   -0.4383   13.5118 N   0  0  0  0  0  0  0  0  0  0  0  0
  -48.8494   -0.3343   13.7868 C   0  0  0  0  0  0  0  0  0  0  0  0
  -48.1214   -1.2703   14.5028 C   0  0  0  0  0  0  0  0  0  0  0  0
  -46.7504   -1.0803   14.7158 N   0  0  0  0  0  0  0  0  0  0  0  0
  -46.1834   -0.5783   15.8318 C   0  0  0  0  0  0  0  0  0  0  0  0
  -46.7804   -0.3113   16.8638 O   0  0  0  0  0  0  0  0  0  0  0  0
  -44.6894   -0.3763   15.7038 C   0  0  0  0  0  0  0  0  0  0  0  0
  -44.0294   -0.6503   17.0428 C   0  0  0  0  0  0  0  0  0  0  0  0
  -43.6764   -1.9363   17.3868 C   0  0  0  0  0  0  0  0  0  0  0  0
  -43.0684   -2.1863   18.5958 C   0  0  0  0  0  0  0  0  0  0  0  0
  -42.8094   -1.1513   19.4638 C   0  0  0  0  0  0  0  0  0  0  0  0
  -43.1594    0.1357   19.1228 C   0  0  0  0  0  0  0  0  0  0  0  0
  -42.8294    1.4467   20.2168 Cl  0  0  0  0  0  0  0  0  0  0  0  0
  -43.7694    0.3847   17.9128 C   0  0  0  0  0  0  0  0  0  0  0  0
  -47.9694  -13.5133   19.7858 C   0  0  0  0  0  0  0  0  0  0  0  0
  -47.5254  -14.7713   20.3868 C   0  0  0  0  0  0  0  0  0  0  0  0
  -46.2474  -15.1293   20.2958 C   0  0  0  0  0  0  0  0  0  0  0  0
  -45.2534  -14.2523   19.5808 C   0  0  0  0  0  0  0  0  0  0  0  0
  -43.8144  -14.1523   19.9888 C   0  0  0  0  0  0  0  0  0  0  0  0
  -43.1404  -15.0363   20.4988 O   0  0  0  0  0  0  0  0  0  0  0  0
  -41.6034  -11.4963   18.7788 C   0  0  0  0  0  0  0  0  0  0  0  0
  -42.0104  -11.5763   17.6318 O   0  0  0  0  0  0  0  0  0  0  0  0
  -40.8014  -10.4933   19.2038 N   0  0  0  0  0  0  0  0  0  0  0  0
  -41.3794  -13.2833   19.6748 H   0  0  0  0  0  0  0  0  0  0  0  0
  -45.6314  -12.4183   20.7488 H   0  0  0  0  0  0  0  0  0  0  0  0
  -45.3204  -14.6933   18.6858 H   0  0  0  0  0  0  0  0  0  0  0  0
  -40.2394  -11.1663   22.3058 H   0  0  0  0  0  0  0  0  0  0  0  0
  -39.7684  -12.2023   21.1328 H   0  0  0  0  0  0  0  0  0  0  0  0
  -42.5004  -11.2943   21.4658 H   0  0  0  0  0  0  0  0  0  0  0  0
  -41.9984  -12.7513   21.9288 H   0  0  0  0  0  0  0  0  0  0  0  0
  -44.5004  -12.0033   18.1568 H   0  0  0  0  0  0  0  0  0  0  0  0
  -44.3664  -11.0333   19.3448 H   0  0  0  0  0  0  0  0  0  0  0  0
  -47.1264  -11.1873   18.1188 H   0  0  0  0  0  0  0  0  0  0  0  0
  -46.7314   -9.5483   19.6758 H   0  0  0  0  0  0  0  0  0  0  0  0
  -47.5014  -10.5213   20.7828 H   0  0  0  0  0  0  0  0  0  0  0  0
  -48.8674   -8.6533   20.3218 H   0  0  0  0  0  0  0  0  0  0  0  0
  -49.5914  -10.0043   19.7878 H   0  0  0  0  0  0  0  0  0  0  0  0
  -49.7634   -8.6023   17.9718 H   0  0  0  0  0  0  0  0  0  0  0  0
  -48.4424   -9.5053   17.6058 H   0  0  0  0  0  0  0  0  0  0  0  0
  -47.1414   -7.7323   17.6018 H   0  0  0  0  0  0  0  0  0  0  0  0
  -47.6824   -7.2583   19.0558 H   0  0  0  0  0  0  0  0  0  0  0  0
  -49.7124   -6.4363   17.8848 H   0  0  0  0  0  0  0  0  0  0  0  0
  -48.8724   -6.6623   16.4918 H   0  0  0  0  0  0  0  0  0  0  0  0
  -47.1644   -5.1343   17.4348 H   0  0  0  0  0  0  0  0  0  0  0  0
  -48.2374   -4.7303   18.5598 H   0  0  0  0  0  0  0  0  0  0  0  0
  -49.6904   -4.1473   16.6598 H   0  0  0  0  0  0  0  0  0  0  0  0
  -50.6244   -3.3163   15.0248 H   0  0  0  0  0  0  0  0  0  0  0  0
  -51.7394   -1.6663   13.7998 H   0  0  0  0  0  0  0  0  0  0  0  0
  -48.3654    0.4737   13.4518 H   0  0  0  0  0  0  0  0  0  0  0  0
  -46.2144   -1.2973   14.0528 H   0  0  0  0  0  0  0  0  0  0  0  0
  -44.5014    0.5657   15.4228 H   0  0  0  0  0  0  0  0  0  0  0  0
  -44.3244   -1.0033   15.0168 H   0  0  0  0  0  0  0  0  0  0  0  0
  -43.8624   -2.6903   16.7568 H   0  0  0  0  0  0  0  0  0  0  0  0
  -42.8144   -3.1223   18.8428 H   0  0  0  0  0  0  0  0  0  0  0  0
  -42.3674   -1.3333   20.3418 H   0  0  0  0  0  0  0  0  0  0  0  0
  -44.0244    1.3197   17.6658 H   0  0  0  0  0  0  0  0  0  0  0  0
  -48.9374  -13.3703   19.5828 H   0  0  0  0  0  0  0  0  0  0  0  0
  -48.1794  -15.3583   20.8638 H   0  0  0  0  0  0  0  0  0  0  0  0
  -45.9434  -15.9893   20.7048 H   0  0  0  0  0  0  0  0  0  0  0  0
  -40.6354   -9.8623   18.6118 H   0  0  0  0  0  0  0  0  0  0  0  0
  1  2  2  0
  2  3  1  0
  2 45  1  0
  3  4  1  0
  4  5  1  0
  5  6  1  0
  5 43  1  0
  6  7  1  0
  6 41  1  0
  7  8  1  0
  8  9  1  0
  8 40  1  0
  9 10  1  0
  9 37  2  0
 10 11  1  0
 11 12  1  0
 12 13  1  0
 13 14  1  0
 14 15  1  0
 15 16  1  0
 16 17  1  0
 17 18  1  0
 18 19  2  0
 18 20  1  0
 20 21  2  0
 20 25  1  0
 21 22  1  0
 22 23  2  0
 23 24  1  0
 24 25  2  0
 25 26  1  0
 26 27  1  0
 27 28  2  0
 27 29  1  0
 29 30  1  0
 30 31  2  0
 30 36  1  0
 31 32  1  0
 32 33  2  0
 33 34  1  0
 34 35  1  0
 34 36  2  0
 37 38  1  0
 38 39  2  0
 39 40  1  0
 40 41  1  0
 41 42  2  0
 43 44  2  0
 43 45  1  0
  3 49  1  0
  3 50  1  0
  4 51  1  0
  4 52  1  0
  5 46  1  0
  7 53  1  0
  7 54  1  0
  8 47  1  0
 10 55  1  0
 11 56  1  0
 11 57  1  0
 12 58  1  0
 12 59  1  0
 13 60  1  0
 13 61  1  0
 14 62  1  0
 14 63  1  0
 15 64  1  0
 15 65  1  0
 16 66  1  0
 16 67  1  0
 17 68  1  0
 21 69  1  0
 22 70  1  0
 24 71  1  0
 26 72  1  0
 29 73  1  0
 29 74  1  0
 31 75  1  0
 32 76  1  0
 33 77  1  0
 36 78  1  0
 37 79  1  0
 38 80  1  0
 39 81  1  0
 40 48  1  0
 45 82  1  0
M  END
>  <BioMolTech Lead Finder dG>
-10.649

>  <BioMolTech Lead Finder VSscore>
-12.272

>  <BioMolTech Lead Finder Rank score>
-4.467

>  <BioMolTech Lead Finder LE>
-0.237

>  <BioMolTech Lead Finder Structure Name>
/var/folders/xd/y7jw_xv579q2qqq7kks92xd80000gn/T/LeadFinder_50698_1/Ligand_1.sdf

>  <BioMolTech Lead Finder SDF id>
0

>  <BioMolTech Lead Finder Pose rank>
0

>  <BioMolTech Lead Finder version>
2001 1, 19 January 2019

>  <LF dG>
-10.649

>  <LF VSscore>
-12.272

>  <LF Rank Score>
-4.467

>  <LF LE>
-0.237

>  <Preferred Pose_cresset>
true

>  <Favorite_cresset>
false

>  <Protein_cresset>
6M2N_Dimer_P

>  <MW_cresset>
633.1

>  <#Atoms_cresset>
45

>  <SlogP_cresset>
2.9

>  <TPSA_cresset>
149.6

>  <Flexibility_cresset>
10.4

>  <#RB_cresset>
13

>  <Rof5_cresset>
2

>  <Filename_cresset>
DAR-DIA-9e4459de-1.mol

>  <Confs_cresset>
0

>  <Poses_cresset>
10

>  <_cresset_fieldpoints>
    -5     -38.674431      -8.560361      22.096109    -13.1586
    -5     -43.472382     -16.699215      20.947708    -16.7173
    -5     -45.350994      -4.720902      15.683786    -11.2467
    -5     -51.144783       0.935816      12.612892    -10.4331
    -5     -40.688522      -0.496863      17.242559     -2.6424
    -5     -48.355011      -0.520953      17.711750    -16.0286
    -5     -46.604156      -0.214271      18.682053    -17.1189
    -5     -47.746811     -15.595831      18.077469     -4.5435
    -5     -42.718048     -13.128819      16.875820    -12.8087
    -6     -40.572922      -8.398546      17.380245      6.3081
    -6     -46.015778     -10.233543      16.885237     11.1671
    -6     -39.242844     -12.870390      19.110413      5.9709
    -6     -39.579605     -13.393305      23.236290      3.1127
    -6     -42.227959     -10.621020      23.763676      3.2392
    -6     -44.381165      -9.756460      21.090755      6.1395
    -6     -49.172623      -5.981281      20.533897      3.7490
    -6     -51.562103      -4.472069      16.425983      9.5927
    -6     -44.862488      -0.707533      12.832651     10.5658
    -6     -43.982559       2.649817      15.805246      3.6940
    -6     -42.869675      -5.238391      18.776495      2.6236
    -6     -41.847004      -3.649382      20.923843      2.4593
    -6     -43.206978      -9.452449      20.231434      6.3669
    -7     -38.790054     -12.378338      18.604671     -1.9650
    -7     -45.397568      -9.551878      17.304165     -2.7946
    -7     -42.957359      -9.055059      20.069691     -2.7191
    -7     -37.648689      -9.897720      22.079224     -1.1332
    -7     -44.913063      -4.878663      16.347681     -2.2867
    -7     -44.417702     -13.557207      22.779392     -2.6196
    -7     -40.963989     -15.184381      21.487335     -1.9202
    -7     -47.500145     -12.520706      22.558533     -2.4112
    -7     -44.820633     -10.144385      21.797016     -2.6018
    -7     -42.900928     -13.925426      17.070135     -2.5377
    -7     -49.557472     -11.945179      17.551455     -2.5506
    -7     -49.325760      -5.705996      14.212822     -2.3562
    -7     -49.649025      -6.156875      20.621117     -2.1521
    -7     -46.663902      -7.364610      21.365227     -1.7892
    -7     -47.004715      -5.977568      14.701768     -2.2874
    -7     -45.034164      -4.913705      18.778759     -2.0031
    -7     -46.866009      -2.230152      18.229782     -3.7509
    -7     -51.081184      -4.218328      18.750292     -1.5890
    -7     -47.713631      -8.677382      15.076427     -1.6466
    -7     -46.513584       2.117792      17.018276     -2.0673
    -7     -48.463650      -3.151528      11.654715     -1.5507
    -7     -48.552101       1.210281      16.791977     -1.8692
    -7     -45.898956       1.177162      13.157645     -2.0474
    -7     -44.822319      -3.441813      14.455083     -2.7069
    -7     -41.783714      -3.821279      21.284515     -0.9812
    -7     -40.616272      -0.367779      16.724072     -1.8646
    -7     -46.728065       2.103914      14.823805     -1.9548
    -7     -46.639221     -13.323070      16.705299     -2.3969
    -7     -49.240486     -12.034279      21.946468     -2.0800
    -7     -43.845963     -17.175755      19.498571     -1.5635
    -8     -41.213684     -11.888455      20.683933      5.5686
    -8     -46.538727     -13.836699      19.900352      7.0536
    -8     -48.233177      -8.702209      18.899757      5.9255
    -8     -48.655720      -7.623689      17.947029      5.8224
    -8     -48.180771      -6.447422      17.863039      5.5418
    -8     -49.311073      -1.756702      14.478778      5.3641
    -8     -43.418533      -0.898306      18.250559      7.1822
    -8     -43.113182       0.310334      19.263597      5.6045

$$$$
DAR_D
  xed2sdf_05210316543D
 
 82 86  0  0  1  0  0  0  0  0999 V2000
  -48.9203    0.6218   13.1338 O   0  0  0  0  0  0  0  0  0  0  0  0
  -49.1003   -0.3762   13.8108 C   0  0  0  0  0  0  0  0  0  0  0  0
  -49.2293   -0.3122   15.3128 C   0  0  0  0  0  0  0  0  0  0  0  0
  -50.3383   -1.2552   15.7788 C   0  0  0  0  0  0  0  0  0  0  0  0
  -49.8993   -2.6652   15.3648 C   0  0  0  0  0  0  0  0  0  0  0  0
  -51.0173   -3.5632   15.6848 N   0  0  0  0  0  0  0  0  0  0  0  0
  -50.9883   -4.5212   16.8038 C   0  0  0  0  0  0  0  0  0  0  0  0
  -52.0693   -5.4372   16.1978 C   0  0  0  0  0  0  0  0  0  0  0  0
  -52.7553   -6.5592   16.9488 C   0  0  0  0  0  0  0  0  0  0  0  0
  -52.0643   -7.0242   18.0308 N   0  0  0  0  0  0  0  0  0  0  0  0
  -51.0623   -8.0802   17.8328 C   0  0  0  0  0  0  0  0  0  0  0  0
  -49.6503   -7.6972   18.3058 C   0  0  0  0  0  0  0  0  0  0  0  0
  -48.8203   -8.9842   18.4288 C   0  0  0  0  0  0  0  0  0  0  0  0
  -47.3173   -8.6712   18.4108 C   0  0  0  0  0  0  0  0  0  0  0  0
  -46.6183   -9.6412   19.3748 C   0  0  0  0  0  0  0  0  0  0  0  0
  -45.1063   -9.3752   19.4258 C   0  0  0  0  0  0  0  0  0  0  0  0
  -44.4743  -10.6922   19.5888 N   0  0  0  0  0  0  0  0  0  0  0  0
  -43.2403  -10.8022   20.1268 C   0  0  0  0  0  0  0  0  0  0  0  0
  -42.6433   -9.8642   20.6488 O   0  0  0  0  0  0  0  0  0  0  0  0
  -42.5293  -12.1082   20.0688 C   0  0  0  0  0  0  0  0  0  0  0  0
  -41.1833  -12.1492   19.7648 C   0  0  0  0  0  0  0  0  0  0  0  0
  -40.5083  -13.3422   19.7398 C   0  0  0  0  0  0  0  0  0  0  0  0
  -41.0843  -14.5322   19.9998 N   0  0  0  0  0  0  0  0  0  0  0  0
  -42.3943  -14.4862   20.2918 C   0  0  0  0  0  0  0  0  0  0  0  0
  -43.1473  -13.3262   20.3358 C   0  0  0  0  0  0  0  0  0  0  0  0
  -44.5173  -13.3882   20.6268 N   0  0  0  0  0  0  0  0  0  0  0  0
  -45.4703  -13.9252   19.8378 C   0  0  0  0  0  0  0  0  0  0  0  0
  -45.2643  -14.5312   18.7988 O   0  0  0  0  0  0  0  0  0  0  0  0
  -46.8723  -13.7202   20.3718 C   0  0  0  0  0  0  0  0  0  0  0  0
  -47.2443  -14.8892   21.2658 C   0  0  0  0  0  0  0  0  0  0  0  0
  -47.4063  -16.1452   20.7268 C   0  0  0  0  0  0  0  0  0  0  0  0
  -47.7333  -17.2092   21.5368 C   0  0  0  0  0  0  0  0  0  0  0  0
  -47.8973  -17.0192   22.8898 C   0  0  0  0  0  0  0  0  0  0  0  0
  -47.7333  -15.7642   23.4328 C   0  0  0  0  0  0  0  0  0  0  0  0
  -47.9363  -15.5232   25.1428 Cl  0  0  0  0  0  0  0  0  0  0  0  0
  -47.4083  -14.7002   22.6208 C   0  0  0  0  0  0  0  0  0  0  0  0
  -53.9423   -7.0162   16.5168 C   0  0  0  0  0  0  0  0  0  0  0  0
  -54.5623   -6.4282   15.3288 C   0  0  0  0  0  0  0  0  0  0  0  0
  -54.1803   -5.2222   14.9158 C   0  0  0  0  0  0  0  0  0  0  0  0
  -53.1163   -4.4582   15.6578 C   0  0  0  0  0  0  0  0  0  0  0  0
  -52.1553   -3.5312   14.9768 C   0  0  0  0  0  0  0  0  0  0  0  0
  -52.3723   -2.8682   13.9718 O   0  0  0  0  0  0  0  0  0  0  0  0
  -49.5013   -2.7792   13.9068 C   0  0  0  0  0  0  0  0  0  0  0  0
  -49.4933   -3.8562   13.3348 O   0  0  0  0  0  0  0  0  0  0  0  0
  -49.1913   -1.6182   13.2858 N   0  0  0  0  0  0  0  0  0  0  0  0
  -49.0693   -2.9102   15.8668 H   0  0  0  0  0  0  0  0  0  0  0  0
  -51.5573   -6.0172   15.5648 H   0  0  0  0  0  0  0  0  0  0  0  0
  -53.7293   -3.9332   16.2478 H   0  0  0  0  0  0  0  0  0  0  0  0
  -49.4493    0.6228   15.5898 H   0  0  0  0  0  0  0  0  0  0  0  0
  -48.3653   -0.5912   15.7308 H   0  0  0  0  0  0  0  0  0  0  0  0
  -51.2053   -1.0172   15.3418 H   0  0  0  0  0  0  0  0  0  0  0  0
  -50.4793   -1.1932   16.7668 H   0  0  0  0  0  0  0  0  0  0  0  0
  -51.2573   -4.1162   17.6778 H   0  0  0  0  0  0  0  0  0  0  0  0
  -50.1103   -4.9302   17.0518 H   0  0  0  0  0  0  0  0  0  0  0  0
  -51.9783   -6.4972   18.7318 H   0  0  0  0  0  0  0  0  0  0  0  0
  -51.0213   -8.2982   16.8578 H   0  0  0  0  0  0  0  0  0  0  0  0
  -51.3503   -8.8612   18.3868 H   0  0  0  0  0  0  0  0  0  0  0  0
  -49.7023   -7.2382   19.1938 H   0  0  0  0  0  0  0  0  0  0  0  0
  -49.2243   -7.0722   17.6518 H   0  0  0  0  0  0  0  0  0  0  0  0
  -49.0403   -9.5912   17.6658 H   0  0  0  0  0  0  0  0  0  0  0  0
  -49.0433   -9.4252   19.2978 H   0  0  0  0  0  0  0  0  0  0  0  0
  -47.1613   -7.7272   18.7028 H   0  0  0  0  0  0  0  0  0  0  0  0
  -46.9513   -8.7782   17.4858 H   0  0  0  0  0  0  0  0  0  0  0  0
  -46.7773  -10.5802   19.0678 H   0  0  0  0  0  0  0  0  0  0  0  0
  -46.9943   -9.5052   20.2908 H   0  0  0  0  0  0  0  0  0  0  0  0
  -44.8813   -8.7802   20.1978 H   0  0  0  0  0  0  0  0  0  0  0  0
  -44.7853   -8.9132   18.5988 H   0  0  0  0  0  0  0  0  0  0  0  0
  -44.8983  -11.4082   19.3008 H   0  0  0  0  0  0  0  0  0  0  0  0
  -40.6953  -11.2992   19.5618 H   0  0  0  0  0  0  0  0  0  0  0  0
  -39.5343  -13.3282   19.5138 H   0  0  0  0  0  0  0  0  0  0  0  0
  -42.8563  -15.3502   20.4898 H   0  0  0  0  0  0  0  0  0  0  0  0
  -44.7763  -13.0302   21.3868 H   0  0  0  0  0  0  0  0  0  0  0  0
  -47.5163  -13.6612   19.6088 H   0  0  0  0  0  0  0  0  0  0  0  0
  -46.9093  -12.8712   20.8998 H   0  0  0  0  0  0  0  0  0  0  0  0
  -47.2863  -16.2852   19.7438 H   0  0  0  0  0  0  0  0  0  0  0  0
  -47.8513  -18.1202   21.1418 H   0  0  0  0  0  0  0  0  0  0  0  0
  -48.1343  -17.7922   23.4788 H   0  0  0  0  0  0  0  0  0  0  0  0
  -47.2903  -13.7892   23.0148 H   0  0  0  0  0  0  0  0  0  0  0  0
  -54.4023   -7.7562   17.0068 H   0  0  0  0  0  0  0  0  0  0  0  0
  -55.2693   -6.9302   14.8298 H   0  0  0  0  0  0  0  0  0  0  0  0
  -54.6043   -4.8192   14.1048 H   0  0  0  0  0  0  0  0  0  0  0  0
  -49.0363   -1.6782   12.4218 H   0  0  0  0  0  0  0  0  0  0  0  0
  1  2  2  0
  2  3  1  0
  2 45  1  0
  3  4  1  0
  4  5  1  0
  5  6  1  0
  5 43  1  0
  6  7  1  0
  6 41  1  0
  7  8  1  0
  8  9  1  0
  8 40  1  0
  9 10  1  0
  9 37  2  0
 10 11  1  0
 11 12  1  0
 12 13  1  0
 13 14  1  0
 14 15  1  0
 15 16  1  0
 16 17  1  0
 17 18  1  0
 18 19  2  0
 18 20  1  0
 20 21  2  0
 20 25  1  0
 21 22  1  0
 22 23  2  0
 23 24  1  0
 24 25  2  0
 25 26  1  0
 26 27  1  0
 27 28  2  0
 27 29  1  0
 29 30  1  0
 30 31  2  0
 30 36  1  0
 31 32  1  0
 32 33  2  0
 33 34  1  0
 34 35  1  0
 34 36  2  0
 37 38  1  0
 38 39  2  0
 39 40  1  0
 40 41  1  0
 41 42  2  0
 43 44  2  0
 43 45  1  0
  3 49  1  0
  3 50  1  0
  4 51  1  0
  4 52  1  0
  5 46  1  0
  7 53  1  0
  7 54  1  0
  8 47  1  0
 10 55  1  0
 11 56  1  0
 11 57  1  0
 12 58  1  0
 12 59  1  0
 13 60  1  0
 13 61  1  0
 14 62  1  0
 14 63  1  0
 15 64  1  0
 15 65  1  0
 16 66  1  0
 16 67  1  0
 17 68  1  0
 21 69  1  0
 22 70  1  0
 24 71  1  0
 26 72  1  0
 29 73  1  0
 29 74  1  0
 31 75  1  0
 32 76  1  0
 33 77  1  0
 36 78  1  0
 37 79  1  0
 38 80  1  0
 39 81  1  0
 40 48  1  0
 45 82  1  0
M  END
>  <BioMolTech Lead Finder dG>
-10.012

>  <BioMolTech Lead Finder VSscore>
-14.275

>  <BioMolTech Lead Finder Rank score>
-3.721

>  <BioMolTech Lead Finder LE>
-0.222

>  <BioMolTech Lead Finder Structure Name>
/var/folders/xd/y7jw_xv579q2qqq7kks92xd80000gn/T/LeadFinder_48575_1/Ligand_1.sdf

>  <BioMolTech Lead Finder SDF id>
0

>  <BioMolTech Lead Finder Pose rank>
0

>  <BioMolTech Lead Finder version>
2001 1, 19 January 2019

>  <LF dG>
-10.012

>  <LF VSscore>
-14.275

>  <LF Rank Score>
-3.721

>  <LF LE>
-0.222

>  <Preferred Pose_cresset>
true

>  <Favorite_cresset>
false

>  <Protein_cresset>
6M2N_Dimer_P

>  <MW_cresset>
633.1

>  <#Atoms_cresset>
45

>  <SlogP_cresset>
2.9

>  <TPSA_cresset>
149.6

>  <Flexibility_cresset>
10.4

>  <#RB_cresset>
13

>  <Rof5_cresset>
2

>  <Filename_cresset>
DAR-DIA-9e4459de-1.mol

>  <Confs_cresset>
0

>  <Poses_cresset>
10

>  <_cresset_fieldpoints>
    -5     -48.780617       2.435983      13.208789    -13.7110
    -5     -53.677322      -2.789052      12.810022    -17.4309
    -5     -51.396362      -3.796219      12.611373    -17.6856
    -5     -43.918522     -15.087882      17.639919    -14.1295
    -5     -43.467514     -10.671701      17.466240     -2.3950
    -5     -40.128410     -16.182178      19.831961    -10.9867
    -5     -41.127983      -9.405161      21.725735    -13.6132
    -5     -50.513695     -15.684958      21.759804     -1.9253
    -5     -44.765720     -17.023838      22.309902     -1.9008
    -5     -48.539612     -17.715931      26.473557     -1.2727
    -5     -55.949127      -5.251297      16.975491     -4.3997
    -6     -51.110802      -5.111968      19.728424     12.8734
    -6     -46.138535     -12.184564      18.011314      6.3260
    -6     -45.878075     -12.116436      22.657625     13.2920
    -6     -48.693817      -7.912320      21.367302      4.3750
    -6     -38.371582     -11.484594      18.877789      2.7737
    -6     -48.906479      -2.977139      18.081299      8.1271
    -6     -48.450005     -19.960876      22.591347      2.9181
    -6     -48.157463      -1.844295      10.728808      4.7142
    -7     -51.255661      -5.416881      12.996934     -2.6241
    -7     -51.762085      -1.034587      12.706918     -2.6028
    -7     -47.402870       2.182529      14.274731     -1.1330
    -7     -48.996193      -5.899108      14.814455     -2.7962
    -7     -52.847649      -1.924378      17.688911     -2.4170
    -7     -53.819145      -4.618639      18.891834     -2.3695
    -7     -48.962303      -2.636121      18.527279     -1.9379
    -7     -50.359825      -4.903028      19.983921     -1.9499
    -7     -53.890030      -8.143122      19.535864     -1.8306
    -7     -50.884422      -8.771477      21.138702     -1.6676
    -7     -46.063210     -12.381243      17.370241     -2.7366
    -7     -48.051037      -7.276869      21.298725     -2.0421
    -7     -44.470078     -12.682775      17.283298     -2.6849
    -7     -45.635571     -10.962309      22.184498     -3.3016
    -7     -41.450134     -12.686291      23.240456     -1.5685
    -7     -38.117241     -10.970162      18.961826     -0.9194
    -7     -44.582066     -16.795940      19.329044     -2.4248
    -7     -47.088970     -15.271927      17.450970     -1.8982
    -7     -48.991577     -11.363970      20.961916     -2.4956
    -7     -48.469612     -20.347298      22.615788     -0.9775
    -7     -44.336456     -15.898680      22.506447     -2.9909
    -7     -50.658302     -15.142221      21.543819     -1.8651
    -7     -52.180725      -8.260881      14.437304     -2.4006
    -7     -50.764278     -10.939089      16.319149     -1.3862
    -7     -54.625401      -1.971250      14.265429     -1.6653
    -7     -46.646935      -2.198284      14.372309     -1.9717
    -8     -49.616291      -1.377286      15.320308      5.5588
    -8     -53.398781      -5.794745      15.905464      7.0512
    -8     -49.804344      -8.422887      18.163834      5.6534
    -8     -48.542442      -8.338825      18.387085      5.7643
    -8     -47.653591      -9.176483      18.825611      5.8119
    -8     -46.394058      -9.067839      18.971302      5.5281
    -8     -41.974617     -12.919756      20.029184      5.3634
    -8     -47.757446     -15.729582      23.657028      5.6093
    -8     -47.567505     -15.951660      22.076178      7.1927

$$$$
W_Baicalein_D
  xed2sdf_05210316543D
 
 30 32  0  0  0  0  0  0  0  0999 V2000
  -48.9433   -4.4833   16.0259 O   0  0  0  0  0  0  0  0  0  0  0  0
  -52.1043   -1.7753   13.5499 O   0  0  0  0  0  0  0  0  0  0  0  0
  -50.1293    0.0017   13.0519 O   0  0  0  0  0  0  0  0  0  0  0  0
  -47.5923   -0.4423   14.0039 O   0  0  0  0  0  0  0  0  0  0  0  0
  -52.7483   -4.1453   14.7119 O   0  0  0  0  0  0  0  0  0  0  0  0
  -50.5873   -3.1843   14.7909 C   0  0  0  0  0  0  0  0  0  0  0  0
  -49.2943   -3.3973   15.2809 C   0  0  0  0  0  0  0  0  0  0  0  0
  -49.9113   -5.4053   16.3369 C   0  0  0  0  0  0  0  0  0  0  0  0
  -50.8603   -2.0293   14.0389 C   0  0  0  0  0  0  0  0  0  0  0  0
  -51.5823   -4.1953   15.1019 C   0  0  0  0  0  0  0  0  0  0  0  0
  -51.1983   -5.3023   15.8979 C   0  0  0  0  0  0  0  0  0  0  0  0
  -49.4913   -6.5483   17.1899 C   0  0  0  0  0  0  0  0  0  0  0  0
  -48.3073   -2.4693   15.0059 C   0  0  0  0  0  0  0  0  0  0  0  0
  -49.8603   -1.1223   13.7829 C   0  0  0  0  0  0  0  0  0  0  0  0
  -48.5773   -1.3423   14.2639 C   0  0  0  0  0  0  0  0  0  0  0  0
  -48.1693   -6.6253   17.6029 C   0  0  0  0  0  0  0  0  0  0  0  0
  -50.3653   -7.5453   17.6009 C   0  0  0  0  0  0  0  0  0  0  0  0
  -47.7343   -7.6593   18.3959 C   0  0  0  0  0  0  0  0  0  0  0  0
  -49.9303   -8.5793   18.3929 C   0  0  0  0  0  0  0  0  0  0  0  0
  -48.6153   -8.6393   18.7939 C   0  0  0  0  0  0  0  0  0  0  0  0
  -52.5373   -2.5953   13.1699 H   0  0  0  0  0  0  0  0  0  0  0  0
  -50.8853   -0.1523   12.4059 H   0  0  0  0  0  0  0  0  0  0  0  0
  -47.0113   -0.7453   13.2399 H   0  0  0  0  0  0  0  0  0  0  0  0
  -51.8693   -6.0053   16.1379 H   0  0  0  0  0  0  0  0  0  0  0  0
  -47.3803   -2.6193   15.3509 H   0  0  0  0  0  0  0  0  0  0  0  0
  -47.5223   -5.9173   17.3189 H   0  0  0  0  0  0  0  0  0  0  0  0
  -51.3233   -7.5113   17.3149 H   0  0  0  0  0  0  0  0  0  0  0  0
  -46.7783   -7.7003   18.6839 H   0  0  0  0  0  0  0  0  0  0  0  0
  -50.5723   -9.2913   18.6809 H   0  0  0  0  0  0  0  0  0  0  0  0
  -48.3003   -9.3933   19.3709 H   0  0  0  0  0  0  0  0  0  0  0  0
  1  7  1  0
  1  8  1  0
  2  9  1  0
  3 14  1  0
  4 15  1  0
  5 10  2  0
  6  7  2  0
  6  9  1  0
  6 10  1  0
  7 13  1  0
  8 11  2  0
  8 12  1  0
  9 14  2  0
 10 11  1  0
 12 16  2  0
 12 17  1  0
 13 15  2  0
 14 15  1  0
 16 18  1  0
 17 19  2  0
 18 20  2  0
 19 20  1  0
  2 21  1  0
  3 22  1  0
  4 23  1  0
 11 24  1  0
 13 25  1  0
 16 26  1  0
 17 27  1  0
 18 28  1  0
 19 29  1  0
 20 30  1  0
M  END
>  <BioMolTech Lead Finder dG>
-6.717

>  <BioMolTech Lead Finder VSscore>
-8.286

>  <BioMolTech Lead Finder Rank score>
-11.124

>  <BioMolTech Lead Finder LE>
-0.336

>  <BioMolTech Lead Finder Structure Name>
/var/folders/xd/y7jw_xv579q2qqq7kks92xd80000gn/T/LeadFinder_51777_1/Ligand_1.sdf

>  <BioMolTech Lead Finder SDF id>
0

>  <BioMolTech Lead Finder Pose rank>
0

>  <BioMolTech Lead Finder version>
2001 1, 19 January 2019

>  <PUBCHEM_COMPOUND_CID>
5281605

>  <PUBCHEM_COMPOUND_CANONICALIZED>
1

>  <PUBCHEM_CACTVS_COMPLEXITY>
413

>  <PUBCHEM_CACTVS_HBOND_ACCEPTOR>
5

>  <PUBCHEM_CACTVS_HBOND_DONOR>
3

>  <PUBCHEM_CACTVS_ROTATABLE_BOND>
1

>  <PUBCHEM_CACTVS_SUBSKEYS>
AAADccBwOAAAAAAAAAAAAAAAAAAAAAAAAAAwYIAAAAAAAACBQAAAGgAACAAADASAmAAwBoAABgCIAqBSAAACCAAkIAAIiAEGiMgNJzaGNRqCeWGl4BUJuQfK7LzOIQABCAAIQABCAAIQABCAAAAAAAAAAA==

>  <PUBCHEM_IUPAC_OPENEYE_NAME>
5,6,7-trihydroxy-2-phenyl-chromen-4-one

>  <PUBCHEM_IUPAC_CAS_NAME>
5,6,7-trihydroxy-2-phenyl-1-benzopyran-4-one

>  <PUBCHEM_IUPAC_NAME_MARKUP>
5,6,7-trihydroxy-2-phenylchromen-4-one

>  <PUBCHEM_IUPAC_NAME>
5,6,7-trihydroxy-2-phenylchromen-4-one

>  <PUBCHEM_IUPAC_SYSTEMATIC_NAME>
5,6,7-tris(oxidanyl)-2-phenyl-chromen-4-one

>  <PUBCHEM_IUPAC_TRADITIONAL_NAME>
5,6,7-trihydroxy-2-phenyl-chromone

>  <PUBCHEM_IUPAC_INCHI>
InChI=1S/C15H10O5/c16-9-6-11(8-4-2-1-3-5-8)20-12-7-10(17)14(18)15(19)13(9)12/h1-7,17-19H

>  <PUBCHEM_IUPAC_INCHIKEY>
FXNFHKRTJBSTCS-UHFFFAOYSA-N

>  <PUBCHEM_XLOGP3>
1.7

>  <PUBCHEM_EXACT_MASS>
270.052823

>  <PUBCHEM_MOLECULAR_FORMULA>
C15H10O5

>  <PUBCHEM_MOLECULAR_WEIGHT>
270.24

>  <PUBCHEM_OPENEYE_CAN_SMILES>
C1=CC=C(C=C1)C2=CC(=O)C3=C(O2)C=C(C(=C3O)O)O

>  <PUBCHEM_OPENEYE_ISO_SMILES>
C1=CC=C(C=C1)C2=CC(=O)C3=C(O2)C=C(C(=C3O)O)O

>  <PUBCHEM_CACTVS_TPSA>
87

>  <PUBCHEM_MONOISOTOPIC_WEIGHT>
270.052823

>  <PUBCHEM_TOTAL_CHARGE>
0

>  <PUBCHEM_HEAVY_ATOM_COUNT>
20

>  <PUBCHEM_ATOM_DEF_STEREO_COUNT>
0

>  <PUBCHEM_ATOM_UDEF_STEREO_COUNT>
0

>  <PUBCHEM_BOND_DEF_STEREO_COUNT>
0

>  <PUBCHEM_BOND_UDEF_STEREO_COUNT>
0

>  <PUBCHEM_ISOTOPIC_ATOM_COUNT>
0

>  <PUBCHEM_COMPONENT_COUNT>
1

>  <PUBCHEM_CACTVS_TAUTO_COUNT>
-1

>  <PUBCHEM_COORDINATE_TYPE>
1
5
255

>  <PUBCHEM_BONDANNOTATIONS>
1  7  8
1  8  8
10  11  8
12  16  8
12  17  8
13  15  8
14  15  8
16  18  8
17  19  8
18  20  8
19  20  8
6  10  8
6  7  8
6  9  8
7  13  8
8  11  8
9  14  8

>  <LF dG>
-6.717

>  <LF VSscore>
-8.286

>  <LF Rank Score>
-11.124

>  <LF LE>
-0.336

>  <Preferred Pose_cresset>
true

>  <Favorite_cresset>
false

>  <Protein_cresset>
6M2N_Dimer_P

>  <MW_cresset>
270.2

>  <#Atoms_cresset>
20

>  <SlogP_cresset>
2.3

>  <TPSA_cresset>
87

>  <Flexibility_cresset>
1.7

>  <#RB_cresset>
4

>  <Rof5_cresset>
0

>  <Filename_cresset>
Baicalein.sdf

>  <Confs_cresset>
0

>  <Poses_cresset>
10

>  <_cresset_fieldpoints>
    -5     -53.772930      -2.385258      15.069807     -8.5218
    -5     -49.027592       1.604320      14.021502     -7.3170
    -5     -48.330009      -9.214339      15.608088     -2.4177
    -5     -54.390587      -5.003077      15.131428     -8.1864
    -5     -49.695801      -5.939643      20.387293     -2.9622
    -6     -46.141693      -4.411182      16.300594      4.0227
    -6     -45.856102      -1.905623      12.573782      5.9031
    -6     -52.181793      -3.020216      11.378325      3.2014
    -6     -51.530930      -0.891263      10.884366      3.8875
    -6     -49.267853      -5.991369      13.541990      1.9812
    -6     -52.976257      -9.033848      17.716545      3.4471
    -6     -53.211609      -8.087076      16.746758      3.4047
    -6     -45.204697      -5.830083      17.683777      3.4113
    -6     -49.856640     -11.202618      20.067547      3.2181
    -6     -45.908367      -9.554257      20.061626      3.2235
    -7     -53.939331      -1.993707      15.211378     -1.7383
    -7     -52.098953      -1.612625      11.035656     -1.4211
    -7     -52.799858       0.618089      13.433556     -1.3768
    -7     -48.953777      -4.077967      11.917234     -1.8140
    -7     -48.073303       1.094917      12.020420     -1.4101
    -7     -50.470932      -0.944938      17.363762     -1.8103
    -7     -52.067905      -4.692111      12.182831     -1.7632
    -7     -45.273975      -0.911022      14.848358     -1.2608
    -7     -49.856277      -5.676657      20.489147     -1.7867
    -7     -50.679375      -3.421228      18.331696     -2.4208
    -7     -49.282768      -6.309021      13.642395     -2.3875
    -7     -45.728210      -9.666001      20.264881     -0.9671
    -7     -48.406979      -9.139321      15.207346     -1.7823
    -7     -49.907158     -11.418945      20.256466     -0.9674
    -8     -49.578072      -2.290968      14.545864      6.6003
    -8     -49.054131      -7.598173      17.995728      7.1499
    -8     -50.565521      -4.263661      15.458018      5.0100
    -8     -50.500313      -6.378423      16.794792      5.4466

$$$$
Untitled
  xed2sdf_05210316543D
 
 30 32  0  0  0  0  0  0  0  0999 V2000
  -49.0008   -4.2343   16.1678 O   0  0  0  0  0  0  0  0  0  0  0  0
  -50.4408   -0.6603   13.2338 O   0  0  0  0  0  0  0  0  0  0  0  0
  -47.9148    0.3007   13.2328 O   0  0  0  0  0  0  0  0  0  0  0  0
  -45.9458   -0.9753   14.6578 O   0  0  0  0  0  0  0  0  0  0  0  0
  -52.0928   -2.6243   14.1268 O   0  0  0  0  0  0  0  0  0  0  0  0
  -49.7988   -2.4773   14.6878 C   0  0  0  0  0  0  0  0  0  0  0  0
  -48.7908   -3.1153   15.4198 C   0  0  0  0  0  0  0  0  0  0  0  0
  -50.2708   -4.7523   16.2308 C   0  0  0  0  0  0  0  0  0  0  0  0
  -49.4918   -1.3193   13.9528 C   0  0  0  0  0  0  0  0  0  0  0  0
  -51.1238   -3.0673   14.7418 C   0  0  0  0  0  0  0  0  0  0  0  0
  -51.3218   -4.2173   15.5458 C   0  0  0  0  0  0  0  0  0  0  0  0
  -50.4588   -5.9463   17.0958 C   0  0  0  0  0  0  0  0  0  0  0  0
  -47.5088   -2.5973   15.3958 C   0  0  0  0  0  0  0  0  0  0  0  0
  -48.2098   -0.8263   13.9488 C   0  0  0  0  0  0  0  0  0  0  0  0
  -47.2118   -1.4673   14.6698 C   0  0  0  0  0  0  0  0  0  0  0  0
  -49.3578   -6.4813   17.7478 C   0  0  0  0  0  0  0  0  0  0  0  0
  -51.6938   -6.5523   17.2888 C   0  0  0  0  0  0  0  0  0  0  0  0
  -49.4838   -7.5813   18.5618 C   0  0  0  0  0  0  0  0  0  0  0  0
  -51.8188   -7.6523   18.1018 C   0  0  0  0  0  0  0  0  0  0  0  0
  -50.7148   -8.1693   18.7408 C   0  0  0  0  0  0  0  0  0  0  0  0
  -50.2998   -0.7513   12.2458 H   0  0  0  0  0  0  0  0  0  0  0  0
  -47.1398    0.1477   12.6108 H   0  0  0  0  0  0  0  0  0  0  0  0
  -45.5748   -0.9353   13.7228 H   0  0  0  0  0  0  0  0  0  0  0  0
  -52.2288   -4.6353   15.6108 H   0  0  0  0  0  0  0  0  0  0  0  0
  -46.7858   -3.0523   15.9138 H   0  0  0  0  0  0  0  0  0  0  0  0
  -48.4598   -6.0613   17.6238 H   0  0  0  0  0  0  0  0  0  0  0  0
  -52.5018   -6.1843   16.8288 H   0  0  0  0  0  0  0  0  0  0  0  0
  -48.6788   -7.9553   19.0238 H   0  0  0  0  0  0  0  0  0  0  0  0
  -52.7138   -8.0773   18.2308 H   0  0  0  0  0  0  0  0  0  0  0  0
  -50.8068   -8.9703   19.3328 H   0  0  0  0  0  0  0  0  0  0  0  0
  1  7  1  0
  1  8  1  0
  2  9  1  0
  3 14  1  0
  4 15  1  0
  5 10  2  0
  6  7  2  0
  6  9  1  0
  6 10  1  0
  7 13  1  0
  8 11  2  0
  8 12  1  0
  9 14  2  0
 10 11  1  0
 12 16  2  0
 12 17  1  0
 13 15  2  0
 14 15  1  0
 16 18  1  0
 17 19  2  0
 18 20  2  0
 19 20  1  0
  2 21  1  0
  3 22  1  0
  4 23  1  0
 11 24  1  0
 13 25  1  0
 16 26  1  0
 17 27  1  0
 18 28  1  0
 19 29  1  0
 20 30  1  0
M  END
>  <BioMolTech Lead Finder dG>
-7.101

>  <BioMolTech Lead Finder VSscore>
-8.817

>  <BioMolTech Lead Finder Rank score>
-10.661

>  <BioMolTech Lead Finder LE>
-0.355

>  <BioMolTech Lead Finder Structure Name>
/var/folders/xd/y7jw_xv579q2qqq7kks92xd80000gn/T/LeadFinder_49662_1/Ligand_1.sdf

>  <BioMolTech Lead Finder SDF id>
0

>  <BioMolTech Lead Finder Pose rank>
0

>  <BioMolTech Lead Finder version>
2001 1, 19 January 2019

>  <PUBCHEM_COMPOUND_CID>
5281605

>  <PUBCHEM_COMPOUND_CANONICALIZED>
1

>  <PUBCHEM_CACTVS_COMPLEXITY>
413

>  <PUBCHEM_CACTVS_HBOND_ACCEPTOR>
5

>  <PUBCHEM_CACTVS_HBOND_DONOR>
3

>  <PUBCHEM_CACTVS_ROTATABLE_BOND>
1

>  <PUBCHEM_CACTVS_SUBSKEYS>
AAADccBwOAAAAAAAAAAAAAAAAAAAAAAAAAAwYIAAAAAAAACBQAAAGgAACAAADASAmAAwBoAABgCIAqBSAAACCAAkIAAIiAEGiMgNJzaGNRqCeWGl4BUJuQfK7LzOIQABCAAIQABCAAIQABCAAAAAAAAAAA==

>  <PUBCHEM_IUPAC_OPENEYE_NAME>
5,6,7-trihydroxy-2-phenyl-chromen-4-one

>  <PUBCHEM_IUPAC_CAS_NAME>
5,6,7-trihydroxy-2-phenyl-1-benzopyran-4-one

>  <PUBCHEM_IUPAC_NAME_MARKUP>
5,6,7-trihydroxy-2-phenylchromen-4-one

>  <PUBCHEM_IUPAC_NAME>
5,6,7-trihydroxy-2-phenylchromen-4-one

>  <PUBCHEM_IUPAC_SYSTEMATIC_NAME>
5,6,7-tris(oxidanyl)-2-phenyl-chromen-4-one

>  <PUBCHEM_IUPAC_TRADITIONAL_NAME>
5,6,7-trihydroxy-2-phenyl-chromone

>  <PUBCHEM_IUPAC_INCHI>
InChI=1S/C15H10O5/c16-9-6-11(8-4-2-1-3-5-8)20-12-7-10(17)14(18)15(19)13(9)12/h1-7,17-19H

>  <PUBCHEM_IUPAC_INCHIKEY>
FXNFHKRTJBSTCS-UHFFFAOYSA-N

>  <PUBCHEM_XLOGP3>
1.7

>  <PUBCHEM_EXACT_MASS>
270.052823

>  <PUBCHEM_MOLECULAR_FORMULA>
C15H10O5

>  <PUBCHEM_MOLECULAR_WEIGHT>
270.24

>  <PUBCHEM_OPENEYE_CAN_SMILES>
C1=CC=C(C=C1)C2=CC(=O)C3=C(O2)C=C(C(=C3O)O)O

>  <PUBCHEM_OPENEYE_ISO_SMILES>
C1=CC=C(C=C1)C2=CC(=O)C3=C(O2)C=C(C(=C3O)O)O

>  <PUBCHEM_CACTVS_TPSA>
87

>  <PUBCHEM_MONOISOTOPIC_WEIGHT>
270.052823

>  <PUBCHEM_TOTAL_CHARGE>
0

>  <PUBCHEM_HEAVY_ATOM_COUNT>
20

>  <PUBCHEM_ATOM_DEF_STEREO_COUNT>
0

>  <PUBCHEM_ATOM_UDEF_STEREO_COUNT>
0

>  <PUBCHEM_BOND_DEF_STEREO_COUNT>
0

>  <PUBCHEM_BOND_UDEF_STEREO_COUNT>
0

>  <PUBCHEM_ISOTOPIC_ATOM_COUNT>
0

>  <PUBCHEM_COMPONENT_COUNT>
1

>  <PUBCHEM_CACTVS_TAUTO_COUNT>
-1

>  <PUBCHEM_COORDINATE_TYPE>
1
5
255

>  <PUBCHEM_BONDANNOTATIONS>
1  7  8
1  8  8
10  11  8
12  16  8
12  17  8
13  15  8
14  15  8
16  18  8
17  19  8
18  20  8
19  20  8
6  10  8
6  7  8
6  9  8
7  13  8
8  11  8
9  14  8

>  <LF dG>
-7.101

>  <LF VSscore>
-8.817

>  <LF Rank Score>
-10.661

>  <LF LE>
-0.355

>  <Preferred Pose_cresset>
true

>  <Favorite_cresset>
false

>  <Protein_cresset>
6M2N_Dimer_P

>  <MW_cresset>
270.2

>  <#Atoms_cresset>
20

>  <SlogP_cresset>
2.3

>  <TPSA_cresset>
87

>  <Flexibility_cresset>
1.7

>  <#RB_cresset>
4

>  <Rof5_cresset>
0

>  <Filename_cresset>
Baicalein.sdf

>  <Confs_cresset>
0

>  <Poses_cresset>
10

>  <_cresset_fieldpoints>
    -5     -52.436222      -0.816979      13.608786    -14.0282
    -5     -50.080566      -8.836565      15.602238     -2.8765
    -5     -51.069710      -5.151841      20.160461     -3.4375
    -6     -46.395226      -6.900669      18.530287      3.1436
    -6     -45.663769      -0.611582      11.992001     12.1689
    -6     -46.457016      -5.147861      17.040747      3.5814
    -6     -54.667229      -7.243228      17.023197      2.7881
    -6     -48.781593      -9.953665      20.452080      2.9993
    -6     -52.940247     -10.123568      19.679541      2.9017
    -7     -52.481209      -0.193582      14.751736     -1.6385
    -7     -48.021454      -3.953133      12.160355     -1.8164
    -7     -51.423622      -2.747869      11.652702     -1.7677
    -7     -49.453018      -0.354248      17.338161     -1.8097
    -7     -45.672043       1.431052      13.893925     -1.5312
    -7     -49.625137       1.444152      11.913895     -1.4562
    -7     -46.120861      -1.755053      11.520786     -1.3881
    -7     -44.112244      -2.655278      14.641554     -1.2323
    -7     -50.018082      -8.803194      15.237794     -1.7827
    -7     -51.127190      -4.919033      20.305275     -1.7864
    -7     -50.711887      -2.567301      18.115799     -2.4202
    -7     -53.168274     -10.246805      19.834507     -0.9674
    -7     -49.440132      -5.897008      13.689568     -2.3881
    -7     -48.725922     -10.150270      20.650578     -0.9670
    -8     -48.512367      -2.000218      14.695551      6.6002
    -8     -50.589367      -7.060893      17.921108      7.1498
    -8     -50.293667      -3.481411      15.294931      5.0057
    -8     -51.245644      -5.439553      16.520973      5.4459

$$$$
W_Baicalin_D
  xed2sdf_05210316543D
 
 49 52  0  0  1  0  0  0  0  0999 V2000
  -44.1063  -12.8837   19.8497 O   0  0  0  0  0  0  0  0  0  0  0  0
  -46.4552  -12.3317   19.8887 O   0  0  0  0  0  0  0  0  0  0  0  0
  -43.2062   -8.9907   18.5117 O   0  0  0  0  0  0  0  0  0  0  0  0
  -45.9263   -9.8957   18.6187 O   0  0  0  0  0  0  0  0  0  0  0  0
  -41.1833  -11.0427   18.4687 O   0  0  0  0  0  0  0  0  0  0  0  0
  -41.9543  -13.7177   21.1337 O   0  5  0  0  0  0  0  0  0  0  0  0
  -40.7723  -13.8697   19.1867 O   0  0  0  0  0  0  0  0  0  0  0  0
  -47.7243  -14.8967   23.5907 O   0  0  0  0  0  0  0  0  0  0  0  0
  -46.3312  -14.6187   18.2587 O   0  0  0  0  0  0  0  0  0  0  0  0
  -46.9373  -17.0337   19.3557 O   0  0  0  0  0  0  0  0  0  0  0  0
  -47.6533  -18.3377   21.4627 O   0  0  0  0  0  0  0  0  0  0  0  0
  -43.5363  -10.3867   18.4967 C   0  0  0  0  0  0  0  0  0  0  0  0
  -44.8613  -10.6277   19.2417 C   0  0  0  0  0  0  0  0  0  0  0  0
  -42.4243  -11.2107   19.1687 C   0  0  0  0  0  0  0  0  0  0  0  0
  -45.1792  -12.1357   19.2337 C   0  0  0  0  0  0  0  0  0  0  0  0
  -42.8413  -12.6947   19.1797 C   0  0  0  0  0  0  0  0  0  0  0  0
  -41.7743  -13.4897   19.8877 C   0  0  0  0  0  0  0  0  0  0  0  0
  -46.7303  -13.5437   20.3737 C   0  0  0  0  0  0  0  0  0  0  0  0
  -47.0653  -13.6547   21.7057 C   0  0  0  0  0  0  0  0  0  0  0  0
  -46.6813  -14.6917   19.5797 C   0  0  0  0  0  0  0  0  0  0  0  0
  -47.3833  -14.8737   22.2737 C   0  0  0  0  0  0  0  0  0  0  0  0
  -47.3433  -16.0167   21.4757 C   0  0  0  0  0  0  0  0  0  0  0  0
  -46.9832  -15.9157   20.1267 C   0  0  0  0  0  0  0  0  0  0  0  0
  -47.6893  -17.2807   22.0917 C   0  0  0  0  0  0  0  0  0  0  0  0
  -48.1092  -16.0937   24.1417 C   0  0  0  0  0  0  0  0  0  0  0  0
  -48.0913  -17.2717   23.4517 C   0  0  0  0  0  0  0  0  0  0  0  0
  -48.5573  -16.0447   25.5577 C   0  0  0  0  0  0  0  0  0  0  0  0
  -48.9403  -17.2277   26.1727 C   0  0  0  0  0  0  0  0  0  0  0  0
  -48.6022  -14.8737   26.3007 C   0  0  0  0  0  0  0  0  0  0  0  0
  -49.3543  -17.2427   27.4817 C   0  0  0  0  0  0  0  0  0  0  0  0
  -49.0173  -14.8887   27.6107 C   0  0  0  0  0  0  0  0  0  0  0  0
  -49.3942  -16.0717   28.2047 C   0  0  0  0  0  0  0  0  0  0  0  0
  -43.6302  -10.6747   17.5437 H   0  0  0  0  0  0  0  0  0  0  0  0
  -44.7702  -10.3087   20.1847 H   0  0  0  0  0  0  0  0  0  0  0  0
  -42.2933  -10.8937   20.1077 H   0  0  0  0  0  0  0  0  0  0  0  0
  -45.2513  -12.4807   18.2987 H   0  0  0  0  0  0  0  0  0  0  0  0
  -42.9453  -13.0057   18.2347 H   0  0  0  0  0  0  0  0  0  0  0  0
  -42.6362   -8.7417   17.7207 H   0  0  0  0  0  0  0  0  0  0  0  0
  -46.0723  -10.1967   17.6707 H   0  0  0  0  0  0  0  0  0  0  0  0
  -41.1073  -10.1207   18.0747 H   0  0  0  0  0  0  0  0  0  0  0  0
  -47.1372  -14.6217   17.6577 H   0  0  0  0  0  0  0  0  0  0  0  0
  -47.4762  -16.9227   18.5127 H   0  0  0  0  0  0  0  0  0  0  0  0
  -47.0793  -12.8327   22.2747 H   0  0  0  0  0  0  0  0  0  0  0  0
  -48.3602  -18.1237   23.9017 H   0  0  0  0  0  0  0  0  0  0  0  0
  -48.9132  -18.0827   25.6547 H   0  0  0  0  0  0  0  0  0  0  0  0
  -48.3302  -14.0087   25.8787 H   0  0  0  0  0  0  0  0  0  0  0  0
  -49.6273  -18.1037   27.9107 H   0  0  0  0  0  0  0  0  0  0  0  0
  -49.0452  -14.0377   28.1347 H   0  0  0  0  0  0  0  0  0  0  0  0
  -49.6963  -16.0807   29.1577 H   0  0  0  0  0  0  0  0  0  0  0  0
  1 15  1  0
  1 16  1  0
  2 18  1  0
  6 17  1  0
  7 17  2  0
  8 21  1  0
  8 25  1  0
  9 20  1  0
 10 23  1  0
 11 24  2  0
 12  3  1  0
 12 13  1  0
 12 14  1  0
 13  4  1  0
 13 15  1  0
 14  5  1  0
 14 16  1  0
 15  2  1  0
 16 17  1  0
 18 19  2  0
 18 20  1  0
 19 21  1  0
 20 23  2  0
 21 22  2  0
 22 23  1  0
 22 24  1  0
 24 26  1  0
 25 26  2  0
 25 27  1  0
 27 28  2  0
 27 29  1  0
 28 30  1  0
 29 31  2  0
 30 32  2  0
 31 32  1  0
  3 38  1  0
  4 39  1  0
  5 40  1  0
  9 41  1  0
 10 42  1  0
 12 33  1  0
 13 34  1  0
 14 35  1  0
 15 36  1  0
 16 37  1  0
 19 43  1  0
 26 44  1  0
 28 45  1  0
 29 46  1  0
 30 47  1  0
 31 48  1  0
 32 49  1  0
M  CHG  1   6  -1
M  END
>  <BioMolTech Lead Finder dG>
-6.236

>  <BioMolTech Lead Finder VSscore>
-10.982

>  <BioMolTech Lead Finder Rank score>
-11.925

>  <BioMolTech Lead Finder LE>
-0.195

>  <BioMolTech Lead Finder Structure Name>
/var/folders/xd/y7jw_xv579q2qqq7kks92xd80000gn/T/LeadFinder_51776_1/Ligand_1.sdf

>  <BioMolTech Lead Finder SDF id>
0

>  <BioMolTech Lead Finder Pose rank>
0

>  <BioMolTech Lead Finder version>
2001 1, 19 January 2019

>  <PUBCHEM_COMPOUND_CID>
64982

>  <PUBCHEM_COMPOUND_CANONICALIZED>
1

>  <PUBCHEM_CACTVS_COMPLEXITY>
748

>  <PUBCHEM_CACTVS_HBOND_ACCEPTOR>
11

>  <PUBCHEM_CACTVS_HBOND_DONOR>
6

>  <PUBCHEM_CACTVS_ROTATABLE_BOND>
4

>  <PUBCHEM_CACTVS_SUBSKEYS>
AAADceB4PAAAAAAAAAAAAAAAAAAAAAAAAAA0YIEAAAAAAACBQAAAGgAACAAADBSwmAMwDoAABgCIAqDSCAICCAAkIAAIiAFGiMgdNzaGNR6ieWOl4BUPuQfK7LzOIQABCAAIQABCAAIQABCAAAAAAAAAAA==

>  <PUBCHEM_IUPAC_OPENEYE_NAME>
(2S,3S,4S,5R,6S)-6-(5,6-dihydroxy-4-oxo-2-phenyl-chromen-7-yl)oxy-3,4,5-trihydroxy-tetrahydropyran-2-carboxylic acid

>  <PUBCHEM_IUPAC_CAS_NAME>
(2S,3S,4S,5R,6S)-6-[(5,6-dihydroxy-4-oxo-2-phenyl-1-benzopyran-7-yl)oxy]-3,4,5-trihydroxy-2-oxanecarboxylic acid

>  <PUBCHEM_IUPAC_NAME_MARKUP>
(2<I>S</I>,3<I>S</I>,4<I>S</I>,5<I>R</I>,6<I>S</I>)-6-(5,6-dihydroxy-4-oxo-2-phenylchromen-7-yl)oxy-3,4,5-trihydroxyoxane-2-carboxylic acid

>  <PUBCHEM_IUPAC_NAME>
(2S,3S,4S,5R,6S)-6-(5,6-dihydroxy-4-oxo-2-phenylchromen-7-yl)oxy-3,4,5-trihydroxyoxane-2-carboxylic acid

>  <PUBCHEM_IUPAC_SYSTEMATIC_NAME>
(2S,3S,4S,5R,6S)-6-[5,6-bis(oxidanyl)-4-oxidanylidene-2-phenyl-chromen-7-yl]oxy-3,4,5-tris(oxidanyl)oxane-2-carboxylic acid

>  <PUBCHEM_IUPAC_TRADITIONAL_NAME>
(2S,3S,4S,5R,6S)-6-(5,6-dihydroxy-4-keto-2-phenyl-chromen-7-yl)oxy-3,4,5-trihydroxy-tetrahydropyran-2-carboxylic acid

>  <PUBCHEM_IUPAC_INCHI>
InChI=1S/C21H18O11/c22-9-6-10(8-4-2-1-3-5-8)30-11-7-12(14(23)15(24)13(9)11)31-21-18(27)16(25)17(26)19(32-21)20(28)29/h1-7,16-19,21,23-27H,(H,28,29)/t16-,17-,18+,19-,21+/m0/s1

>  <PUBCHEM_IUPAC_INCHIKEY>
IKIIZLYTISPENI-ZFORQUDYSA-N

>  <PUBCHEM_XLOGP3_AA>
1.1

>  <PUBCHEM_EXACT_MASS>
446.084911

>  <PUBCHEM_MOLECULAR_FORMULA>
C21H18O11

>  <PUBCHEM_MOLECULAR_WEIGHT>
446.4

>  <PUBCHEM_OPENEYE_CAN_SMILES>
C1=CC=C(C=C1)C2=CC(=O)C3=C(C(=C(C=C3O2)OC4C(C(C(C(O4)C(=O)O)O)O)O)O)O

>  <PUBCHEM_OPENEYE_ISO_SMILES>
C1=CC=C(C=C1)C2=CC(=O)C3=C(C(=C(C=C3O2)O[C@H]4[C@@H]([C@H]([C@@H]([C@H](O4)C(=O)O)O)O)O)O)O

>  <PUBCHEM_CACTVS_TPSA>
183

>  <PUBCHEM_MONOISOTOPIC_WEIGHT>
446.084911

>  <PUBCHEM_TOTAL_CHARGE>
0

>  <PUBCHEM_HEAVY_ATOM_COUNT>
32

>  <PUBCHEM_ATOM_DEF_STEREO_COUNT>
5

>  <PUBCHEM_ATOM_UDEF_STEREO_COUNT>
0

>  <PUBCHEM_BOND_DEF_STEREO_COUNT>
0

>  <PUBCHEM_BOND_UDEF_STEREO_COUNT>
0

>  <PUBCHEM_ISOTOPIC_ATOM_COUNT>
0

>  <PUBCHEM_COMPONENT_COUNT>
1

>  <PUBCHEM_CACTVS_TAUTO_COUNT>
-1

>  <PUBCHEM_COORDINATE_TYPE>
1
5
255

>  <PUBCHEM_BONDANNOTATIONS>
16  17  5
18  19  8
18  20  8
19  21  8
15  2  5
20  23  8
21  22  8
22  23  8
22  24  8
24  26  8
25  26  8
27  28  8
27  29  8
28  30  8
29  31  8
12  3  5
30  32  8
31  32  8
13  4  6
14  5  6
8  21  8
8  25  8

>  <LF dG>
-6.236

>  <LF VSscore>
-10.982

>  <LF Rank Score>
-11.925

>  <LF LE>
-0.195

>  <Preferred Pose_cresset>
true

>  <Favorite_cresset>
false

>  <Protein_cresset>
6M2N_Dimer_P

>  <MW_cresset>
445.4

>  <#Atoms_cresset>
32

>  <SlogP_cresset>
1.1

>  <TPSA_cresset>
186

>  <Flexibility_cresset>
7.6

>  <#RB_cresset>
9

>  <Rof5_cresset>
1

>  <Filename_cresset>
Baicalin.sdf

>  <Confs_cresset>
0

>  <Poses_cresset>
10

>  <_cresset_fieldpoints>
    -5     -43.765335     -13.441173      21.762459    -13.5988
    -5     -39.735031     -14.775572      20.401203    -12.2869
    -5     -40.028755     -12.473073      17.933136    -10.6338
    -5     -40.512604     -14.708900      21.642006    -12.5461
    -5     -46.531792     -18.890076      20.022209    -15.4257
    -5     -51.732647     -15.544697      25.933918     -4.2020
    -5     -46.542259      -8.402508      19.487537    -10.1497
    -5     -46.023769     -16.395824      27.421074     -5.1033
    -6     -48.264191     -15.884715      17.154148      8.9655
    -6     -41.605354      -9.334114      16.503168     11.6424
    -6     -45.520050     -11.222023      16.295601     10.1859
    -6     -49.916847     -14.121258      30.561665      1.8064
    -6     -48.743172     -11.838628      27.645039      1.3261
    -6     -49.705025     -20.166937      26.617344      1.7204
    -6     -50.469658     -18.132107      30.280434      1.8854
    -7     -50.190742     -14.495836      20.304123     -1.8680
    -7     -47.066551     -10.264414      21.639641     -2.0039
    -7     -41.519249     -11.832252      16.160049     -1.7871
    -7     -42.943069      -8.346922      20.932953     -1.5996
    -7     -44.421783     -14.651293      16.976938     -2.2299
    -7     -45.151901      -7.980444      17.219233     -1.5887
    -7     -41.119438      -8.283262      19.527145     -1.6037
    -7     -44.249977     -12.703106      15.996483     -1.9247
    -7     -45.449562     -11.637870      15.923649     -1.7983
    -7     -47.686874     -12.263809      17.292349     -2.2356
    -7     -40.441650     -12.760181      16.981276     -1.7853
    -7     -39.209274     -11.961630      19.398455     -1.5819
    -7     -43.915154     -12.408936      22.194366     -3.2590
    -7     -43.907784     -14.927670      21.535549     -3.1473
    -7     -50.625504     -15.638136      22.722775     -2.4367
    -7     -45.681641     -16.602816      17.038452     -1.6060
    -7     -49.369442     -15.546656      17.831602     -1.4307
    -7     -44.004402     -15.402889      17.967857     -2.2597
    -7     -49.291595     -18.165665      19.510147     -1.7896
    -7     -45.298492     -18.703701      20.572271     -1.6423
    -7     -51.958252     -15.575003      25.683306     -1.7861
    -7     -45.847702     -16.566448      27.603642     -1.7850
    -7     -45.222492     -16.423557      24.311649     -2.3837
    -7     -48.175171     -11.604898      26.911346     -1.0131
    -7     -50.471298     -18.329803      30.502583     -0.9671
    -7     -49.908310     -13.843653      30.719440     -0.9674
    -8     -43.731796     -11.360655      18.923584      5.1773
    -8     -47.044357     -14.787249      20.958132      6.5968
    -8     -48.975021     -16.059309      26.888243      7.1514
    -8     -47.734924     -16.346092      22.636009      5.0237
    -8     -48.494408     -16.964876      24.891005      5.5686

$$$$
Untitled
  xed2sdf_05210316543D
 
 49 52  0  0  1  0  0  0  0  0999 V2000
  -51.4823   -6.8878   20.5456 O   0  0  0  0  0  0  0  0  0  0  0  0
  -49.7163   -8.0168   19.3496 O   0  0  0  0  0  0  0  0  0  0  0  0
  -51.2683   -9.7778   23.6036 O   0  0  0  0  0  0  0  0  0  0  0  0
  -49.8363  -10.1568   21.1466 O   0  0  0  0  0  0  0  0  0  0  0  0
  -53.4623   -7.9118   23.5236 O   0  0  0  0  0  0  0  0  0  0  0  0
  -52.4543   -4.6678   21.4916 O   0  5  0  0  0  0  0  0  0  0  0  0
  -54.4043   -5.6408   22.1726 O   0  0  0  0  0  0  0  0  0  0  0  0
  -47.6203   -4.3288   17.3726 O   0  0  0  0  0  0  0  0  0  0  0  0
  -51.8443   -7.8768   17.5176 O   0  0  0  0  0  0  0  0  0  0  0  0
  -51.7953   -5.9368   15.6096 O   0  0  0  0  0  0  0  0  0  0  0  0
  -50.5393   -3.9238   14.5986 O   0  0  0  0  0  0  0  0  0  0  0  0
  -51.6563   -9.1088   22.3956 C   0  0  0  0  0  0  0  0  0  0  0  0
  -50.4323   -8.8968   21.4886 C   0  0  0  0  0  0  0  0  0  0  0  0
  -52.2893   -7.7438   22.7146 C   0  0  0  0  0  0  0  0  0  0  0  0
  -50.8703   -8.1538   20.2106 C   0  0  0  0  0  0  0  0  0  0  0  0
  -52.6423   -7.0358   21.3916 C   0  0  0  0  0  0  0  0  0  0  0  0
  -53.2113   -5.6778   21.7086 C   0  0  0  0  0  0  0  0  0  0  0  0
  -49.7523   -7.0798   18.3996 C   0  0  0  0  0  0  0  0  0  0  0  0
  -48.7233   -6.1658   18.3426 C   0  0  0  0  0  0  0  0  0  0  0  0
  -50.7963   -6.9968   17.4756 C   0  0  0  0  0  0  0  0  0  0  0  0
  -48.6823   -5.1808   17.3746 C   0  0  0  0  0  0  0  0  0  0  0  0
  -49.7213   -5.1068   16.4476 C   0  0  0  0  0  0  0  0  0  0  0  0
  -50.7803   -6.0188   16.5106 C   0  0  0  0  0  0  0  0  0  0  0  0
  -49.6503   -4.0718   15.4366 C   0  0  0  0  0  0  0  0  0  0  0  0
  -47.5383   -3.3948   16.3696 C   0  0  0  0  0  0  0  0  0  0  0  0
  -48.5093   -3.2298   15.4236 C   0  0  0  0  0  0  0  0  0  0  0  0
  -46.3153   -2.5508   16.3646 C   0  0  0  0  0  0  0  0  0  0  0  0
  -46.1903   -1.5718   15.3896 C   0  0  0  0  0  0  0  0  0  0  0  0
  -45.2933   -2.6868   17.2946 C   0  0  0  0  0  0  0  0  0  0  0  0
  -45.0843   -0.7578   15.3426 C   0  0  0  0  0  0  0  0  0  0  0  0
  -44.1883   -1.8718   17.2466 C   0  0  0  0  0  0  0  0  0  0  0  0
  -44.0803   -0.9058   16.2716 C   0  0  0  0  0  0  0  0  0  0  0  0
  -52.3273   -9.6818   21.9246 H   0  0  0  0  0  0  0  0  0  0  0  0
  -49.7523   -8.3508   21.9766 H   0  0  0  0  0  0  0  0  0  0  0  0
  -51.6383   -7.1848   23.2286 H   0  0  0  0  0  0  0  0  0  0  0  0
  -51.5693   -8.6728   19.7186 H   0  0  0  0  0  0  0  0  0  0  0  0
  -53.3113   -7.5928   20.8986 H   0  0  0  0  0  0  0  0  0  0  0  0
  -52.0033   -9.7508   24.2896 H   0  0  0  0  0  0  0  0  0  0  0  0
  -50.5113  -10.7818   20.7406 H   0  0  0  0  0  0  0  0  0  0  0  0
  -53.3273   -8.6238   24.2206 H   0  0  0  0  0  0  0  0  0  0  0  0
  -52.0153   -8.2978   16.6206 H   0  0  0  0  0  0  0  0  0  0  0  0
  -51.8213   -6.7448   15.0106 H   0  0  0  0  0  0  0  0  0  0  0  0
  -47.9883   -6.2158   19.0186 H   0  0  0  0  0  0  0  0  0  0  0  0
  -48.4153   -2.5198   14.7256 H   0  0  0  0  0  0  0  0  0  0  0  0
  -46.9153   -1.4568   14.7116 H   0  0  0  0  0  0  0  0  0  0  0  0
  -45.3623   -3.3848   18.0066 H   0  0  0  0  0  0  0  0  0  0  0  0
  -45.0103   -0.0568   14.6326 H   0  0  0  0  0  0  0  0  0  0  0  0
  -43.4593   -1.9808   17.9226 H   0  0  0  0  0  0  0  0  0  0  0  0
  -43.2743   -0.3148   16.2376 H   0  0  0  0  0  0  0  0  0  0  0  0
  1 15  1  0
  1 16  1  0
  2 18  1  0
  6 17  1  0
  7 17  2  0
  8 21  1  0
  8 25  1  0
  9 20  1  0
 10 23  1  0
 11 24  2  0
 12  3  1  0
 12 13  1  0
 12 14  1  0
 13  4  1  0
 13 15  1  0
 14  5  1  0
 14 16  1  0
 15  2  1  0
 16 17  1  0
 18 19  2  0
 18 20  1  0
 19 21  1  0
 20 23  2  0
 21 22  2  0
 22 23  1  0
 22 24  1  0
 24 26  1  0
 25 26  2  0
 25 27  1  0
 27 28  2  0
 27 29  1  0
 28 30  1  0
 29 31  2  0
 30 32  2  0
 31 32  1  0
  3 38  1  0
  4 39  1  0
  5 40  1  0
  9 41  1  0
 10 42  1  0
 12 33  1  0
 13 34  1  0
 14 35  1  0
 15 36  1  0
 16 37  1  0
 19 43  1  0
 26 44  1  0
 28 45  1  0
 29 46  1  0
 30 47  1  0
 31 48  1  0
 32 49  1  0
M  CHG  1   6  -1
M  END
>  <BioMolTech Lead Finder dG>
-6.598

>  <BioMolTech Lead Finder VSscore>
-11.364

>  <BioMolTech Lead Finder Rank score>
-11.549

>  <BioMolTech Lead Finder LE>
-0.206

>  <BioMolTech Lead Finder Structure Name>
/var/folders/xd/y7jw_xv579q2qqq7kks92xd80000gn/T/LeadFinder_49663_1/Ligand_1.sdf

>  <BioMolTech Lead Finder SDF id>
0

>  <BioMolTech Lead Finder Pose rank>
0

>  <BioMolTech Lead Finder version>
2001 1, 19 January 2019

>  <PUBCHEM_COMPOUND_CID>
64982

>  <PUBCHEM_COMPOUND_CANONICALIZED>
1

>  <PUBCHEM_CACTVS_COMPLEXITY>
748

>  <PUBCHEM_CACTVS_HBOND_ACCEPTOR>
11

>  <PUBCHEM_CACTVS_HBOND_DONOR>
6

>  <PUBCHEM_CACTVS_ROTATABLE_BOND>
4

>  <PUBCHEM_CACTVS_SUBSKEYS>
AAADceB4PAAAAAAAAAAAAAAAAAAAAAAAAAA0YIEAAAAAAACBQAAAGgAACAAADBSwmAMwDoAABgCIAqDSCAICCAAkIAAIiAFGiMgdNzaGNR6ieWOl4BUPuQfK7LzOIQABCAAIQABCAAIQABCAAAAAAAAAAA==

>  <PUBCHEM_IUPAC_OPENEYE_NAME>
(2S,3S,4S,5R,6S)-6-(5,6-dihydroxy-4-oxo-2-phenyl-chromen-7-yl)oxy-3,4,5-trihydroxy-tetrahydropyran-2-carboxylic acid

>  <PUBCHEM_IUPAC_CAS_NAME>
(2S,3S,4S,5R,6S)-6-[(5,6-dihydroxy-4-oxo-2-phenyl-1-benzopyran-7-yl)oxy]-3,4,5-trihydroxy-2-oxanecarboxylic acid

>  <PUBCHEM_IUPAC_NAME_MARKUP>
(2<I>S</I>,3<I>S</I>,4<I>S</I>,5<I>R</I>,6<I>S</I>)-6-(5,6-dihydroxy-4-oxo-2-phenylchromen-7-yl)oxy-3,4,5-trihydroxyoxane-2-carboxylic acid

>  <PUBCHEM_IUPAC_NAME>
(2S,3S,4S,5R,6S)-6-(5,6-dihydroxy-4-oxo-2-phenylchromen-7-yl)oxy-3,4,5-trihydroxyoxane-2-carboxylic acid

>  <PUBCHEM_IUPAC_SYSTEMATIC_NAME>
(2S,3S,4S,5R,6S)-6-[5,6-bis(oxidanyl)-4-oxidanylidene-2-phenyl-chromen-7-yl]oxy-3,4,5-tris(oxidanyl)oxane-2-carboxylic acid

>  <PUBCHEM_IUPAC_TRADITIONAL_NAME>
(2S,3S,4S,5R,6S)-6-(5,6-dihydroxy-4-keto-2-phenyl-chromen-7-yl)oxy-3,4,5-trihydroxy-tetrahydropyran-2-carboxylic acid

>  <PUBCHEM_IUPAC_INCHI>
InChI=1S/C21H18O11/c22-9-6-10(8-4-2-1-3-5-8)30-11-7-12(14(23)15(24)13(9)11)31-21-18(27)16(25)17(26)19(32-21)20(28)29/h1-7,16-19,21,23-27H,(H,28,29)/t16-,17-,18+,19-,21+/m0/s1

>  <PUBCHEM_IUPAC_INCHIKEY>
IKIIZLYTISPENI-ZFORQUDYSA-N

>  <PUBCHEM_XLOGP3_AA>
1.1

>  <PUBCHEM_EXACT_MASS>
446.084911

>  <PUBCHEM_MOLECULAR_FORMULA>
C21H18O11

>  <PUBCHEM_MOLECULAR_WEIGHT>
446.4

>  <PUBCHEM_OPENEYE_CAN_SMILES>
C1=CC=C(C=C1)C2=CC(=O)C3=C(C(=C(C=C3O2)OC4C(C(C(C(O4)C(=O)O)O)O)O)O)O

>  <PUBCHEM_OPENEYE_ISO_SMILES>
C1=CC=C(C=C1)C2=CC(=O)C3=C(C(=C(C=C3O2)O[C@H]4[C@@H]([C@H]([C@@H]([C@H](O4)C(=O)O)O)O)O)O)O

>  <PUBCHEM_CACTVS_TPSA>
183

>  <PUBCHEM_MONOISOTOPIC_WEIGHT>
446.084911

>  <PUBCHEM_TOTAL_CHARGE>
0

>  <PUBCHEM_HEAVY_ATOM_COUNT>
32

>  <PUBCHEM_ATOM_DEF_STEREO_COUNT>
5

>  <PUBCHEM_ATOM_UDEF_STEREO_COUNT>
0

>  <PUBCHEM_BOND_DEF_STEREO_COUNT>
0

>  <PUBCHEM_BOND_UDEF_STEREO_COUNT>
0

>  <PUBCHEM_ISOTOPIC_ATOM_COUNT>
0

>  <PUBCHEM_COMPONENT_COUNT>
1

>  <PUBCHEM_CACTVS_TAUTO_COUNT>
-1

>  <PUBCHEM_COORDINATE_TYPE>
1
5
255

>  <PUBCHEM_BONDANNOTATIONS>
16  17  5
18  19  8
18  20  8
19  21  8
15  2  5
20  23  8
21  22  8
22  23  8
22  24  8
24  26  8
25  26  8
27  28  8
27  29  8
28  30  8
29  31  8
12  3  5
30  32  8
31  32  8
13  4  6
14  5  6
8  21  8
8  25  8

>  <LF dG>
-6.598

>  <LF VSscore>
-11.364

>  <LF Rank Score>
-11.549

>  <LF LE>
-0.206

>  <Preferred Pose_cresset>
true

>  <Favorite_cresset>
false

>  <Protein_cresset>
6M2N_Dimer_P

>  <MW_cresset>
445.4

>  <#Atoms_cresset>
32

>  <SlogP_cresset>
1.1

>  <TPSA_cresset>
186

>  <Flexibility_cresset>
7.6

>  <#RB_cresset>
9

>  <Rof5_cresset>
1

>  <Filename_cresset>
Baicalin.sdf

>  <Confs_cresset>
0

>  <Poses_cresset>
10

>  <_cresset_fieldpoints>
    -5     -50.864326      -4.991752      20.477081    -14.1440
    -5     -49.299324     -10.800077      22.984535    -10.7377
    -5     -48.073944     -10.039585      20.591217    -10.8827
    -5     -54.708710      -3.846319      22.414650    -11.9190
    -5     -55.166245      -7.183131      23.021595    -11.1575
    -5     -53.447319      -3.211983      21.939976    -12.2203
    -5     -43.868645      -3.753701      14.611309     -4.1486
    -5     -46.798145      -0.019597      18.218069     -4.9681
    -5     -52.428864      -4.185849      14.787724    -14.6730
    -6     -53.475060     -10.117921      25.076534     10.8196
    -6     -52.159821     -10.993615      20.016916      8.3147
    -6     -51.987591      -8.544050      14.888814      9.2720
    -6     -46.741432       0.097817      12.892073      1.8504
    -6     -41.378437      -0.463920      17.727394      1.8627
    -6     -43.002968      -3.434791      19.600906      1.3707
    -6     -42.978676       1.397500      14.472576      1.9566
    -7     -50.161507     -10.589199      18.348022     -2.1349
    -7     -50.199532     -11.932199      22.832703     -1.5243
    -7     -55.617649      -7.780651      22.495993     -1.7811
    -7     -55.069286      -9.260090      22.244198     -1.7655
    -7     -50.866604     -10.325662      17.831158     -2.1454
    -7     -47.336151      -8.060780      20.783569     -2.0018
    -7     -53.778893      -9.878361      19.741459     -1.9310
    -7     -49.924965      -5.321184      21.443703     -3.2277
    -7     -52.580345     -10.985646      19.661961     -1.7987
    -7     -49.703461      -8.309135      24.825237     -1.6556
    -7     -51.376381      -4.361056      19.509739     -3.0583
    -7     -54.170624      -5.903885      24.610672     -1.6085
    -7     -53.954865      -7.054745      16.326809     -1.6215
    -7     -53.847641      -6.805347      18.440247     -2.2721
    -7     -53.898811      -8.165396      18.492992     -2.2341
    -7     -48.048424      -7.879617      15.331316     -1.8684
    -7     -52.754581      -3.496540      15.778669     -1.6434
    -7     -50.417351      -6.086394      13.212490     -1.7986
    -7     -46.700874      -5.645209      14.698153     -2.4365
    -7     -49.372971      -1.992842      18.143757     -2.3833
    -7     -46.878876       0.262702      18.256702     -1.7849
    -7     -42.895519       1.650106      14.367573     -0.9670
    -7     -43.634716      -4.073221      19.855659     -1.0131
    -7     -41.183060      -0.477551      17.999126     -0.9675
    -7     -43.921028      -3.993442      14.371173     -1.7862
    -8     -49.713905      -6.066651      17.417021      6.5970
    -8     -51.666649      -8.304308      21.670630      5.1787
    -8     -45.196228      -1.723793      16.314571      7.1514
    -8     -48.864990      -4.216777      16.167555      5.0238
    -8     -47.188126      -2.495932      15.636360      5.5685

$$$$
W_Forsythoside E_D
  xed2sdf_05210316543D
 
 62 64  0  0  1  0  0  0  0  0999 V2000
  -48.1293  -13.3625   22.4189 O   0  0  0  0  0  0  0  0  0  0  0  0
  -48.2663  -15.6085   24.0429 O   0  0  0  0  0  0  0  0  0  0  0  0
  -49.7413  -16.7395   25.5959 O   0  0  0  0  0  0  0  0  0  0  0  0
  -47.4353  -15.9345   19.8189 O   0  0  0  0  0  0  0  0  0  0  0  0
  -48.6533  -11.0255   22.2449 O   0  0  0  0  0  0  0  0  0  0  0  0
  -47.0953  -13.4915   18.3479 O   0  0  0  0  0  0  0  0  0  0  0  0
  -48.4633  -11.1905   19.4229 O   0  0  0  0  0  0  0  0  0  0  0  0
  -48.0053  -19.0885   25.2369 O   0  0  0  0  0  0  0  0  0  0  0  0
  -45.9373  -17.9955   26.8269 O   0  0  0  0  0  0  0  0  0  0  0  0
  -47.5433  -16.4055   28.5809 O   0  0  0  0  0  0  0  0  0  0  0  0
  -52.1053   -8.2485   17.9499 O   0  0  0  0  0  0  0  0  0  0  0  0
  -49.6773   -7.4985   16.8939 O   0  0  0  0  0  0  0  0  0  0  0  0
  -48.1833  -14.6545   21.7799 C   0  0  0  0  0  0  0  0  0  0  0  0
  -47.3553  -14.6605   20.4769 C   0  0  0  0  0  0  0  0  0  0  0  0
  -47.8883  -13.5575   19.5429 C   0  0  0  0  0  0  0  0  0  0  0  0
  -47.8783  -12.1965   20.2639 C   0  0  0  0  0  0  0  0  0  0  0  0
  -47.5703  -17.7355   25.0279 C   0  0  0  0  0  0  0  0  0  0  0  0
  -48.7513  -16.8675   24.5499 C   0  0  0  0  0  0  0  0  0  0  0  0
  -46.9873  -17.1525   26.3299 C   0  0  0  0  0  0  0  0  0  0  0  0
  -48.0923  -16.9915   27.3909 C   0  0  0  0  0  0  0  0  0  0  0  0
  -48.6623  -12.3055   21.5869 C   0  0  0  0  0  0  0  0  0  0  0  0
  -47.6713  -15.7415   22.7399 C   0  0  0  0  0  0  0  0  0  0  0  0
  -49.2213  -16.1255   26.7929 C   0  0  0  0  0  0  0  0  0  0  0  0
  -50.3583  -15.9545   27.8139 C   0  0  0  0  0  0  0  0  0  0  0  0
  -49.9813  -10.5525   22.5249 C   0  0  0  0  0  0  0  0  0  0  0  0
  -50.0583   -9.0315   22.3139 C   0  0  0  0  0  0  0  0  0  0  0  0
  -49.9533   -8.6145   20.8569 C   0  0  0  0  0  0  0  0  0  0  0  0
  -51.0773   -8.6185   20.0589 C   0  0  0  0  0  0  0  0  0  0  0  0
  -48.7403   -8.2355   20.3249 C   0  0  0  0  0  0  0  0  0  0  0  0
  -50.9913   -8.2455   18.7349 C   0  0  0  0  0  0  0  0  0  0  0  0
  -48.6473   -7.8635   19.0019 C   0  0  0  0  0  0  0  0  0  0  0  0
  -49.7693   -7.8665   18.2029 C   0  0  0  0  0  0  0  0  0  0  0  0
  -49.1363  -14.8485   21.5449 H   0  0  0  0  0  0  0  0  0  0  0  0
  -46.3963  -14.4895   20.7019 H   0  0  0  0  0  0  0  0  0  0  0  0
  -48.8303  -13.7805   19.2919 H   0  0  0  0  0  0  0  0  0  0  0  0
  -46.9333  -11.9365   20.4639 H   0  0  0  0  0  0  0  0  0  0  0  0
  -46.8583  -17.7365   24.3259 H   0  0  0  0  0  0  0  0  0  0  0  0
  -49.2203  -17.3135   23.7879 H   0  0  0  0  0  0  0  0  0  0  0  0
  -46.6053  -16.2505   26.1299 H   0  0  0  0  0  0  0  0  0  0  0  0
  -48.4723  -17.8815   27.6439 H   0  0  0  0  0  0  0  0  0  0  0  0
  -49.6133  -12.5535   21.3999 H   0  0  0  0  0  0  0  0  0  0  0  0
  -48.8443  -15.2275   26.5649 H   0  0  0  0  0  0  0  0  0  0  0  0
  -47.8853  -15.8565   18.9229 H   0  0  0  0  0  0  0  0  0  0  0  0
  -47.3993  -14.1695   17.6699 H   0  0  0  0  0  0  0  0  0  0  0  0
  -49.4683  -11.2245   19.4569 H   0  0  0  0  0  0  0  0  0  0  0  0
  -48.9943  -19.1315   25.4139 H   0  0  0  0  0  0  0  0  0  0  0  0
  -45.8733  -17.9465   27.8299 H   0  0  0  0  0  0  0  0  0  0  0  0
  -46.9593  -17.0585   29.0759 H   0  0  0  0  0  0  0  0  0  0  0  0
  -51.8753   -8.4175   16.9859 H   0  0  0  0  0  0  0  0  0  0  0  0
  -50.4273   -7.8875   16.3489 H   0  0  0  0  0  0  0  0  0  0  0  0
  -47.8963  -16.6415   22.3669 H   0  0  0  0  0  0  0  0  0  0  0  0
  -46.6813  -15.6385   22.8329 H   0  0  0  0  0  0  0  0  0  0  0  0
  -50.1183  -16.4455   28.6519 H   0  0  0  0  0  0  0  0  0  0  0  0
  -50.4863  -14.9835   28.0179 H   0  0  0  0  0  0  0  0  0  0  0  0
  -51.2073  -16.3235   27.4379 H   0  0  0  0  0  0  0  0  0  0  0  0
  -50.2173  -10.7705   23.4719 H   0  0  0  0  0  0  0  0  0  0  0  0
  -50.6243  -11.0005   21.9039 H   0  0  0  0  0  0  0  0  0  0  0  0
  -49.3123   -8.6015   22.8239 H   0  0  0  0  0  0  0  0  0  0  0  0
  -50.9563   -8.7345   22.6389 H   0  0  0  0  0  0  0  0  0  0  0  0
  -51.9593   -8.8925   20.4419 H   0  0  0  0  0  0  0  0  0  0  0  0
  -47.9243   -8.2305   20.9019 H   0  0  0  0  0  0  0  0  0  0  0  0
  -47.7633   -7.5905   18.6209 H   0  0  0  0  0  0  0  0  0  0  0  0
  1 13  1  0
  1 21  1  0
  2 22  1  0
  3 18  1  0
  3 23  1  0
  5 25  1  0
 11 30  1  0
 12 32  1  0
 13 14  1  0
 13 22  1  0
 14  4  1  0
 14 15  1  0
 15  6  1  0
 15 16  1  0
 16  7  1  0
 16 21  1  0
 17  8  1  0
 17 18  1  0
 17 19  1  0
 18  2  1  0
 19  9  1  0
 19 20  1  0
 20 10  1  0
 20 23  1  0
 21  5  1  0
 23 24  1  0
 25 26  1  0
 26 27  1  0
 27 28  2  0
 27 29  1  0
 28 30  1  0
 29 31  2  0
 30 32  2  0
 31 32  1  0
  4 43  1  0
  6 44  1  0
  7 45  1  0
  8 46  1  0
  9 47  1  0
 10 48  1  0
 11 49  1  0
 12 50  1  0
 13 33  1  0
 14 34  1  0
 15 35  1  0
 16 36  1  0
 17 37  1  0
 18 38  1  0
 19 39  1  0
 20 40  1  0
 21 41  1  0
 22 51  1  0
 22 52  1  0
 23 42  1  0
 24 53  1  0
 24 54  1  0
 24 55  1  0
 25 56  1  0
 25 57  1  0
 26 58  1  0
 26 59  1  0
 28 60  1  0
 29 61  1  0
 31 62  1  0
M  END
>  <BioMolTech Lead Finder dG>
-6.007

>  <BioMolTech Lead Finder VSscore>
-12.195

>  <BioMolTech Lead Finder Rank score>
-9.725

>  <BioMolTech Lead Finder LE>
-0.188

>  <BioMolTech Lead Finder Structure Name>
/var/folders/xd/y7jw_xv579q2qqq7kks92xd80000gn/T/LeadFinder_51774_1/Ligand_1.sdf

>  <BioMolTech Lead Finder SDF id>
0

>  <BioMolTech Lead Finder Pose rank>
0

>  <BioMolTech Lead Finder version>
2001 1, 19 January 2019

>  <PUBCHEM_COMPOUND_CID>
69634125

>  <PUBCHEM_COMPOUND_CANONICALIZED>
1

>  <PUBCHEM_CACTVS_COMPLEXITY>
581

>  <PUBCHEM_CACTVS_HBOND_ACCEPTOR>
12

>  <PUBCHEM_CACTVS_HBOND_DONOR>
8

>  <PUBCHEM_CACTVS_ROTATABLE_BOND>
7

>  <PUBCHEM_CACTVS_SUBSKEYS>
AAADceB4PAAAAAAAAAAAAAAAAAAAAAAAAAA0SIAAAAAAAAABAAAAGgAACAAADBSwmAMyDoAABgCAAiBCAAACAAAgIAAIiAAGiIgZNiKCERKicAElwBEPmAfA4LwOIAABAAAAQABAAAIAAACAAAAAAAAAAA==

>  <PUBCHEM_IUPAC_OPENEYE_NAME>
(2R,3R,4R,5R,6S)-2-[[(2R,3S,4S,5R,6R)-6-[2-(3,4-dihydroxyphenyl)ethoxy]-3,4,5-trihydroxy-tetrahydropyran-2-yl]methoxy]-6-methyl-tetrahydropyran-3,4,5-triol

>  <PUBCHEM_IUPAC_CAS_NAME>
(2R,3R,4R,5R,6S)-2-[[(2R,3S,4S,5R,6R)-6-[2-(3,4-dihydroxyphenyl)ethoxy]-3,4,5-trihydroxy-2-oxanyl]methoxy]-6-methyloxane-3,4,5-triol

>  <PUBCHEM_IUPAC_NAME_MARKUP>
(2<I>R</I>,3<I>R</I>,4<I>R</I>,5<I>R</I>,6<I>S</I>)-2-[[(2<I>R</I>,3<I>S</I>,4<I>S</I>,5<I>R</I>,6<I>R</I>)-6-[2-(3,4-dihydroxyphenyl)ethoxy]-3,4,5-trihydroxyoxan-2-yl]methoxy]-6-methyloxane-3,4,5-tri

>  <PUBCHEM_IUPAC_NAME>
(2R,3R,4R,5R,6S)-2-[[(2R,3S,4S,5R,6R)-6-[2-(3,4-dihydroxyphenyl)ethoxy]-3,4,5-trihydroxyoxan-2-yl]methoxy]-6-methyloxane-3,4,5-triol

>  <PUBCHEM_IUPAC_SYSTEMATIC_NAME>
(2R,3R,4R,5R,6S)-2-[[(2R,3S,4S,5R,6R)-6-[2-[3,4-bis(oxidanyl)phenyl]ethoxy]-3,4,5-tris(oxidanyl)oxan-2-yl]methoxy]-6-methyl-oxane-3,4,5-triol

>  <PUBCHEM_IUPAC_TRADITIONAL_NAME>
(2R,3R,4R,5R,6S)-2-[[(2R,3S,4S,5R,6R)-6-[2-(3,4-dihydroxyphenyl)ethoxy]-3,4,5-trihydroxy-tetrahydropyran-2-yl]methoxy]-6-methyl-tetrahydropyran-3,4,5-triol

>  <PUBCHEM_IUPAC_INCHI>
InChI=1S/C20H30O12/c1-8-13(23)15(25)17(27)20(31-8)30-7-12-14(24)16(26)18(28)19(32-12)29-5-4-9-2-3-10(21)11(22)6-9/h2-3,6,8,12-28H,4-5,7H2,1H3/t8-,12+,13-,14+,15+,16-,17+,18+,19+,20+/m0/s1

>  <PUBCHEM_IUPAC_INCHIKEY>
QIMGUQIHCNDUKU-OJJLXHDHSA-N

>  <PUBCHEM_XLOGP3_AA>
-2.5

>  <PUBCHEM_EXACT_MASS>
462.173726

>  <PUBCHEM_MOLECULAR_FORMULA>
C20H30O12

>  <PUBCHEM_MOLECULAR_WEIGHT>
462.4

>  <PUBCHEM_OPENEYE_CAN_SMILES>
CC1C(C(C(C(O1)OCC2C(C(C(C(O2)OCCC3=CC(=C(C=C3)O)O)O)O)O)O)O)O

>  <PUBCHEM_OPENEYE_ISO_SMILES>
C[C@H]1[C@@H]([C@H]([C@H]([C@@H](O1)OC[C@@H]2[C@H]([C@@H]([C@H]([C@@H](O2)OCCC3=CC(=C(C=C3)O)O)O)O)O)O)O)O

>  <PUBCHEM_CACTVS_TPSA>
199

>  <PUBCHEM_MONOISOTOPIC_WEIGHT>
462.173726

>  <PUBCHEM_TOTAL_CHARGE>
0

>  <PUBCHEM_HEAVY_ATOM_COUNT>
32

>  <PUBCHEM_ATOM_DEF_STEREO_COUNT>
10

>  <PUBCHEM_ATOM_UDEF_STEREO_COUNT>
0

>  <PUBCHEM_BOND_DEF_STEREO_COUNT>
0

>  <PUBCHEM_BOND_UDEF_STEREO_COUNT>
0

>  <PUBCHEM_ISOTOPIC_ATOM_COUNT>
0

>  <PUBCHEM_COMPONENT_COUNT>
1

>  <PUBCHEM_CACTVS_TAUTO_COUNT>
-1

>  <PUBCHEM_COORDINATE_TYPE>
1
5
255

>  <PUBCHEM_BONDANNOTATIONS>
20  10  5
13  22  5
18  2  5
23  24  6
27  28  8
27  29  8
28  30  8
29  31  8
30  32  8
31  32  8
14  4  6
21  5  5
15  6  5
16  7  6
17  8  6
19  9  6

>  <LF dG>
-6.007

>  <LF VSscore>
-12.195

>  <LF Rank Score>
-9.725

>  <LF LE>
-0.188

>  <Preferred Pose_cresset>
true

>  <Favorite_cresset>
false

>  <Protein_cresset>
6M2N_Dimer_P

>  <MW_cresset>
462.4

>  <#Atoms_cresset>
32

>  <SlogP_cresset>
-0.4

>  <TPSA_cresset>
198.8

>  <Flexibility_cresset>
15.9

>  <#RB_cresset>
15

>  <Rof5_cresset>
2

>  <Filename_cresset>
Forsythoside E.sdf

>  <Confs_cresset>
0

>  <Poses_cresset>
10

>  <_cresset_fieldpoints>
    -5     -47.323414     -10.486911      18.187466    -12.9301
    -5     -48.080505     -13.480567      24.430517    -11.2479
    -5     -46.251575     -19.858356      25.974735    -11.6733
    -5     -46.140678     -17.241049      20.176464     -5.7959
    -5     -46.946877     -10.274609      22.688677     -9.6481
    -5     -47.604305     -14.592331      28.978563     -7.3351
    -5     -50.216194      -5.426317      20.137281     -6.0698
    -6     -50.857006     -12.472209      19.534393     10.7701
    -6     -48.750828     -15.345996      17.486799     13.8400
    -6     -50.590443     -19.435501      24.683613      4.3760
    -6     -50.273369     -19.458807      26.611874      4.4021
    -6     -46.120987     -18.467215      29.515476     10.1843
    -6     -51.534752      -8.824871      15.342284     11.1028
    -7     -49.518616     -13.553867      24.537525     -3.3558
    -7     -50.953163     -18.821083      26.312717     -2.3127
    -7     -45.899719     -17.584248      20.804623     -1.7233
    -7     -45.683060     -15.650312      17.975929     -1.6270
    -7     -45.757721     -18.134209      21.916340     -1.5771
    -7     -47.173416     -20.227627      27.238884     -1.9127
    -7     -49.474491     -17.212154      20.221161     -2.0497
    -7     -44.745537     -12.948898      19.111332     -1.6166
    -7     -48.060944     -19.216347      22.192635     -1.6626
    -7     -45.151031     -15.737118      28.523487     -1.6226
    -7     -44.637558     -16.137177      24.278605     -1.7685
    -7     -48.688782     -17.491676      30.533564     -1.5501
    -7     -46.816765     -14.099768      27.941463     -1.8037
    -7     -52.002342      -6.179426      16.294403     -1.4765
    -7     -51.205360     -11.581461      18.387623     -2.2121
    -7     -49.256973     -11.061380      17.252903     -2.5412
    -7     -51.265968     -13.908781      20.138538     -2.0608
    -7     -45.692551     -12.891361      22.852472     -2.4364
    -7     -50.477997      -5.245109      20.627857     -1.8206
    -7     -53.227200     -10.248572      22.113956     -1.8047
    -7     -51.464622     -11.960389      19.647530     -2.8654
    -7     -46.632641      -9.805887      22.356091     -2.6831
    -8     -48.087154     -13.539909      20.612974      5.1897
    -8     -47.983109     -16.842270      26.146633      4.8480
    -8     -49.410217     -16.351902      27.621874      4.4631
    -8     -47.466431     -15.236570      21.703091      4.2575
    -8     -49.841721      -8.250292      19.587349      6.9167
    -8     -47.761452     -17.196209      23.830330      3.2576
    -8     -49.973732      -8.633857      20.865620      5.6528

$$$$
Untitled
  xed2sdf_05210316543D
 
 62 64  0  0  1  0  0  0  0  0999 V2000
  -47.8983  -13.5074   22.3959 O   0  0  0  0  0  0  0  0  0  0  0  0
  -47.0163  -15.3264   23.9999 O   0  0  0  0  0  0  0  0  0  0  0  0
  -48.4103  -14.5524   25.8239 O   0  0  0  0  0  0  0  0  0  0  0  0
  -46.9513  -15.9014   19.7079 O   0  0  0  0  0  0  0  0  0  0  0  0
  -48.7803  -11.2754   22.3009 O   0  0  0  0  0  0  0  0  0  0  0  0
  -47.0623  -13.4124   18.2799 O   0  0  0  0  0  0  0  0  0  0  0  0
  -48.7083  -11.3654   19.4709 O   0  0  0  0  0  0  0  0  0  0  0  0
  -50.0633  -16.9334   25.3149 O   0  0  0  0  0  0  0  0  0  0  0  0
  -48.1833  -18.6824   26.4989 O   0  0  0  0  0  0  0  0  0  0  0  0
  -47.0523  -16.8704   28.4009 O   0  0  0  0  0  0  0  0  0  0  0  0
  -52.1993   -8.0074   17.9399 O   0  0  0  0  0  0  0  0  0  0  0  0
  -49.7273   -7.3584   16.9179 O   0  0  0  0  0  0  0  0  0  0  0  0
  -47.7873  -14.7814   21.7309 C   0  0  0  0  0  0  0  0  0  0  0  0
  -47.0343  -14.6404   20.3899 C   0  0  0  0  0  0  0  0  0  0  0  0
  -47.7743  -13.6174   19.5089 C   0  0  0  0  0  0  0  0  0  0  0  0
  -47.9363  -12.2824   20.2599 C   0  0  0  0  0  0  0  0  0  0  0  0
  -48.6733  -16.8404   24.9699 C   0  0  0  0  0  0  0  0  0  0  0  0
  -48.3053  -15.3784   24.6419 C   0  0  0  0  0  0  0  0  0  0  0  0
  -47.7973  -17.3504   26.1309 C   0  0  0  0  0  0  0  0  0  0  0  0
  -47.9083  -16.4074   27.3439 C   0  0  0  0  0  0  0  0  0  0  0  0
  -48.6273  -12.5314   21.6159 C   0  0  0  0  0  0  0  0  0  0  0  0
  -47.0673  -15.7934   22.6399 C   0  0  0  0  0  0  0  0  0  0  0  0
  -47.5373  -14.9794   26.8899 C   0  0  0  0  0  0  0  0  0  0  0  0
  -47.6533  -13.9994   28.0679 C   0  0  0  0  0  0  0  0  0  0  0  0
  -50.1433  -10.8224   22.2989 C   0  0  0  0  0  0  0  0  0  0  0  0
  -50.1923   -9.2874   22.2029 C   0  0  0  0  0  0  0  0  0  0  0  0
  -50.0643   -8.7654   20.7829 C   0  0  0  0  0  0  0  0  0  0  0  0
  -51.1903   -8.6204   19.9999 C   0  0  0  0  0  0  0  0  0  0  0  0
  -48.8293   -8.4364   20.2689 C   0  0  0  0  0  0  0  0  0  0  0  0
  -51.0843   -8.1494   18.7099 C   0  0  0  0  0  0  0  0  0  0  0  0
  -48.7153   -7.9674   18.9779 C   0  0  0  0  0  0  0  0  0  0  0  0
  -49.8393   -7.8224   18.1949 C   0  0  0  0  0  0  0  0  0  0  0  0
  -48.7093  -15.1164   21.5369 H   0  0  0  0  0  0  0  0  0  0  0  0
  -46.1023  -14.3284   20.5739 H   0  0  0  0  0  0  0  0  0  0  0  0
  -48.6833  -13.9774   19.2969 H   0  0  0  0  0  0  0  0  0  0  0  0
  -47.0333  -11.8844   20.4209 H   0  0  0  0  0  0  0  0  0  0  0  0
  -48.5073  -17.4094   24.1649 H   0  0  0  0  0  0  0  0  0  0  0  0
  -48.9583  -14.9984   23.9879 H   0  0  0  0  0  0  0  0  0  0  0  0
  -46.8453  -17.3654   25.8269 H   0  0  0  0  0  0  0  0  0  0  0  0
  -48.8423  -16.3964   27.7009 H   0  0  0  0  0  0  0  0  0  0  0  0
  -49.5373  -12.9194   21.4679 H   0  0  0  0  0  0  0  0  0  0  0  0
  -46.5933  -14.9884   26.5589 H   0  0  0  0  0  0  0  0  0  0  0  0
  -47.5133  -15.9034   18.8729 H   0  0  0  0  0  0  0  0  0  0  0  0
  -47.3423  -14.0774   17.5789 H   0  0  0  0  0  0  0  0  0  0  0  0
  -49.6953  -11.5154   19.5969 H   0  0  0  0  0  0  0  0  0  0  0  0
  -50.3663  -17.8914   25.3609 H   0  0  0  0  0  0  0  0  0  0  0  0
  -49.1333  -18.8764   26.2289 H   0  0  0  0  0  0  0  0  0  0  0  0
  -46.4363  -17.5994   28.0819 H   0  0  0  0  0  0  0  0  0  0  0  0
  -52.0153   -8.2414   16.9789 H   0  0  0  0  0  0  0  0  0  0  0  0
  -50.4093   -7.7824   16.3119 H   0  0  0  0  0  0  0  0  0  0  0  0
  -47.5553  -16.6654   22.6109 H   0  0  0  0  0  0  0  0  0  0  0  0
  -46.1303  -15.9034   22.3079 H   0  0  0  0  0  0  0  0  0  0  0  0
  -47.9463  -14.5014   28.8819 H   0  0  0  0  0  0  0  0  0  0  0  0
  -46.7663  -13.5704   28.2389 H   0  0  0  0  0  0  0  0  0  0  0  0
  -48.3223  -13.2884   27.8509 H   0  0  0  0  0  0  0  0  0  0  0  0
  -50.5933  -11.1174   23.1429 H   0  0  0  0  0  0  0  0  0  0  0  0
  -50.6163  -11.2124   21.5089 H   0  0  0  0  0  0  0  0  0  0  0  0
  -49.4453   -8.9114   22.7509 H   0  0  0  0  0  0  0  0  0  0  0  0
  -51.0893   -9.0004   22.5409 H   0  0  0  0  0  0  0  0  0  0  0  0
  -52.0883   -8.8574   20.3709 H   0  0  0  0  0  0  0  0  0  0  0  0
  -48.0123   -8.5394   20.8349 H   0  0  0  0  0  0  0  0  0  0  0  0
  -47.8163   -7.7314   18.6099 H   0  0  0  0  0  0  0  0  0  0  0  0
  1 13  1  0
  1 21  1  0
  2 22  1  0
  3 18  1  0
  3 23  1  0
  5 25  1  0
 11 30  1  0
 12 32  1  0
 13 14  1  0
 13 22  1  0
 14  4  1  0
 14 15  1  0
 15  6  1  0
 15 16  1  0
 16  7  1  0
 16 21  1  0
 17  8  1  0
 17 18  1  0
 17 19  1  0
 18  2  1  0
 19  9  1  0
 19 20  1  0
 20 10  1  0
 20 23  1  0
 21  5  1  0
 23 24  1  0
 25 26  1  0
 26 27  1  0
 27 28  2  0
 27 29  1  0
 28 30  1  0
 29 31  2  0
 30 32  2  0
 31 32  1  0
  4 43  1  0
  6 44  1  0
  7 45  1  0
  8 46  1  0
  9 47  1  0
 10 48  1  0
 11 49  1  0
 12 50  1  0
 13 33  1  0
 14 34  1  0
 15 35  1  0
 16 36  1  0
 17 37  1  0
 18 38  1  0
 19 39  1  0
 20 40  1  0
 21 41  1  0
 22 51  1  0
 22 52  1  0
 23 42  1  0
 24 53  1  0
 24 54  1  0
 24 55  1  0
 25 56  1  0
 25 57  1  0
 26 58  1  0
 26 59  1  0
 28 60  1  0
 29 61  1  0
 31 62  1  0
M  END
>  <BioMolTech Lead Finder dG>
-6.549

>  <BioMolTech Lead Finder VSscore>
-12.317

>  <BioMolTech Lead Finder Rank score>
-9.926

>  <BioMolTech Lead Finder LE>
-0.205

>  <BioMolTech Lead Finder Structure Name>
/var/folders/xd/y7jw_xv579q2qqq7kks92xd80000gn/T/LeadFinder_49661_1/Ligand_1.sdf

>  <BioMolTech Lead Finder SDF id>
0

>  <BioMolTech Lead Finder Pose rank>
0

>  <BioMolTech Lead Finder version>
2001 1, 19 January 2019

>  <PUBCHEM_COMPOUND_CID>
69634125

>  <PUBCHEM_COMPOUND_CANONICALIZED>
1

>  <PUBCHEM_CACTVS_COMPLEXITY>
581

>  <PUBCHEM_CACTVS_HBOND_ACCEPTOR>
12

>  <PUBCHEM_CACTVS_HBOND_DONOR>
8

>  <PUBCHEM_CACTVS_ROTATABLE_BOND>
7

>  <PUBCHEM_CACTVS_SUBSKEYS>
AAADceB4PAAAAAAAAAAAAAAAAAAAAAAAAAA0SIAAAAAAAAABAAAAGgAACAAADBSwmAMyDoAABgCAAiBCAAACAAAgIAAIiAAGiIgZNiKCERKicAElwBEPmAfA4LwOIAABAAAAQABAAAIAAACAAAAAAAAAAA==

>  <PUBCHEM_IUPAC_OPENEYE_NAME>
(2R,3R,4R,5R,6S)-2-[[(2R,3S,4S,5R,6R)-6-[2-(3,4-dihydroxyphenyl)ethoxy]-3,4,5-trihydroxy-tetrahydropyran-2-yl]methoxy]-6-methyl-tetrahydropyran-3,4,5-triol

>  <PUBCHEM_IUPAC_CAS_NAME>
(2R,3R,4R,5R,6S)-2-[[(2R,3S,4S,5R,6R)-6-[2-(3,4-dihydroxyphenyl)ethoxy]-3,4,5-trihydroxy-2-oxanyl]methoxy]-6-methyloxane-3,4,5-triol

>  <PUBCHEM_IUPAC_NAME_MARKUP>
(2<I>R</I>,3<I>R</I>,4<I>R</I>,5<I>R</I>,6<I>S</I>)-2-[[(2<I>R</I>,3<I>S</I>,4<I>S</I>,5<I>R</I>,6<I>R</I>)-6-[2-(3,4-dihydroxyphenyl)ethoxy]-3,4,5-trihydroxyoxan-2-yl]methoxy]-6-methyloxane-3,4,5-tri

>  <PUBCHEM_IUPAC_NAME>
(2R,3R,4R,5R,6S)-2-[[(2R,3S,4S,5R,6R)-6-[2-(3,4-dihydroxyphenyl)ethoxy]-3,4,5-trihydroxyoxan-2-yl]methoxy]-6-methyloxane-3,4,5-triol

>  <PUBCHEM_IUPAC_SYSTEMATIC_NAME>
(2R,3R,4R,5R,6S)-2-[[(2R,3S,4S,5R,6R)-6-[2-[3,4-bis(oxidanyl)phenyl]ethoxy]-3,4,5-tris(oxidanyl)oxan-2-yl]methoxy]-6-methyl-oxane-3,4,5-triol

>  <PUBCHEM_IUPAC_TRADITIONAL_NAME>
(2R,3R,4R,5R,6S)-2-[[(2R,3S,4S,5R,6R)-6-[2-(3,4-dihydroxyphenyl)ethoxy]-3,4,5-trihydroxy-tetrahydropyran-2-yl]methoxy]-6-methyl-tetrahydropyran-3,4,5-triol

>  <PUBCHEM_IUPAC_INCHI>
InChI=1S/C20H30O12/c1-8-13(23)15(25)17(27)20(31-8)30-7-12-14(24)16(26)18(28)19(32-12)29-5-4-9-2-3-10(21)11(22)6-9/h2-3,6,8,12-28H,4-5,7H2,1H3/t8-,12+,13-,14+,15+,16-,17+,18+,19+,20+/m0/s1

>  <PUBCHEM_IUPAC_INCHIKEY>
QIMGUQIHCNDUKU-OJJLXHDHSA-N

>  <PUBCHEM_XLOGP3_AA>
-2.5

>  <PUBCHEM_EXACT_MASS>
462.173726

>  <PUBCHEM_MOLECULAR_FORMULA>
C20H30O12

>  <PUBCHEM_MOLECULAR_WEIGHT>
462.4

>  <PUBCHEM_OPENEYE_CAN_SMILES>
CC1C(C(C(C(O1)OCC2C(C(C(C(O2)OCCC3=CC(=C(C=C3)O)O)O)O)O)O)O)O

>  <PUBCHEM_OPENEYE_ISO_SMILES>
C[C@H]1[C@@H]([C@H]([C@H]([C@@H](O1)OC[C@@H]2[C@H]([C@@H]([C@H]([C@@H](O2)OCCC3=CC(=C(C=C3)O)O)O)O)O)O)O)O

>  <PUBCHEM_CACTVS_TPSA>
199

>  <PUBCHEM_MONOISOTOPIC_WEIGHT>
462.173726

>  <PUBCHEM_TOTAL_CHARGE>
0

>  <PUBCHEM_HEAVY_ATOM_COUNT>
32

>  <PUBCHEM_ATOM_DEF_STEREO_COUNT>
10

>  <PUBCHEM_ATOM_UDEF_STEREO_COUNT>
0

>  <PUBCHEM_BOND_DEF_STEREO_COUNT>
0

>  <PUBCHEM_BOND_UDEF_STEREO_COUNT>
0

>  <PUBCHEM_ISOTOPIC_ATOM_COUNT>
0

>  <PUBCHEM_COMPONENT_COUNT>
1

>  <PUBCHEM_CACTVS_TAUTO_COUNT>
-1

>  <PUBCHEM_COORDINATE_TYPE>
1
5
255

>  <PUBCHEM_BONDANNOTATIONS>
20  10  5
13  22  5
18  2  5
23  24  6
27  28  8
27  29  8
28  30  8
29  31  8
30  32  8
31  32  8
14  4  6
21  5  5
15  6  5
16  7  6
17  8  6
19  9  6

>  <LF dG>
-6.549

>  <LF VSscore>
-12.317

>  <LF Rank Score>
-9.926

>  <LF LE>
-0.205

>  <Preferred Pose_cresset>
true

>  <Favorite_cresset>
false

>  <Protein_cresset>
6M2N_Dimer_P

>  <MW_cresset>
462.4

>  <#Atoms_cresset>
32

>  <SlogP_cresset>
-0.4

>  <TPSA_cresset>
198.8

>  <Flexibility_cresset>
15.9

>  <#RB_cresset>
15

>  <Rof5_cresset>
2

>  <Filename_cresset>
Forsythoside E.sdf

>  <Confs_cresset>
0

>  <Poses_cresset>
10

>  <_cresset_fieldpoints>
    -5     -47.078613     -12.921664      24.131279    -13.6592
    -5     -47.697273     -10.671697      18.086218    -12.4507
    -5     -50.407127     -14.731100      26.322929     -9.6583
    -5     -45.329330     -16.838234      19.829752     -5.1792
    -5     -50.132233      -5.513199      20.281708     -6.6802
    -5     -47.244038     -16.507145      30.163265     -9.9820
    -6     -50.102386     -19.496666      24.858496     13.1527
    -6     -44.963516     -18.112301      27.172413      3.3956
    -6     -48.514465     -15.476135      17.495090     14.5672
    -6     -50.867294     -12.973087      19.673752     11.9230
    -6     -51.582695      -8.702206      15.361090     10.9772
    -6     -49.797920     -17.255203      21.985798      7.8308
    -7     -44.861534     -15.954483      24.954784     -2.4492
    -7     -48.787941     -17.459476      20.192303     -2.0088
    -7     -45.452282     -15.370216      17.734867     -1.6361
    -7     -44.798279     -12.495729      18.948917     -1.6295
    -7     -49.092789     -15.626160      17.289013     -1.2979
    -7     -51.079422     -14.405466      22.799324     -2.3388
    -7     -50.304504     -15.882030      19.789246     -1.7347
    -7     -48.250229     -20.073036      24.395653     -1.4804
    -7     -48.008545     -19.227348      28.863031     -1.5756
    -7     -50.843071     -17.996983      27.528877     -1.8845
    -7     -44.605492     -16.545998      27.190216     -1.8824
    -7     -44.784355     -15.945691      28.345438     -1.8704
    -7     -53.325577     -10.561256      21.742847     -1.8184
    -7     -51.782318     -11.855609      19.364031     -2.4085
    -7     -51.928963      -6.013803      16.249222     -1.4990
    -7     -50.336243      -5.355600      20.819347     -1.8201
    -7     -51.315140     -12.933455      19.609226     -2.4298
    -7     -50.616699     -16.531479      22.451252     -2.1634
    -7     -48.155685     -12.266388      24.730259     -3.1224
    -7     -50.980423     -14.623970      20.325762     -2.0598
    -7     -46.151100     -18.738077      23.629824     -1.8075
    -7     -46.805420      -9.950996      22.478447     -2.7191
    -7     -50.811714     -14.874983      26.641781     -2.5075
    -7     -47.960384     -16.483398      30.582420     -1.4326
    -7     -49.645847     -11.091042      17.399616     -2.6502
    -8     -47.927433     -13.649029      20.587400      5.1943
    -8     -47.136093     -15.295609      21.578098      4.2141
    -8     -49.933128      -8.307358      19.547974      6.9154
    -8     -47.848343     -16.299784      26.094208      4.8427
    -8     -48.332886     -16.355309      23.793238      3.3327
    -8     -47.711422     -14.987501      27.745399      4.4575
    -8     -50.084503      -8.797865      20.809824      5.6609

$$$$
W_Lopinavir_D
  xed2sdf_05210316543D
 
 94 97  0  0  1  0  0  0  0  0999 V2000
  -45.6357  -14.6065   18.4149 O   0  0  0  0  0  0  0  0  0  0  0  0
  -48.9207  -11.5765   18.9809 O   0  0  0  0  0  0  0  0  0  0  0  0
  -47.0757   -8.0275   18.8359 O   0  0  0  0  0  0  0  0  0  0  0  0
  -48.4967  -17.2465   20.3729 O   0  0  0  0  0  0  0  0  0  0  0  0
  -46.1447  -18.8595   18.2859 O   0  0  0  0  0  0  0  0  0  0  0  0
  -49.1897   -8.6465   19.3349 N   0  0  0  0  0  0  0  0  0  0  0  0
  -46.9137  -11.0715   19.9329 N   0  0  0  0  0  0  0  0  0  0  0  0
  -46.3897  -16.7395   19.6629 N   0  0  0  0  0  0  0  0  0  0  0  0
  -48.7257   -6.9495   17.7799 N   0  0  0  0  0  0  0  0  0  0  0  0
  -46.2137  -12.2075   19.3119 C   0  0  0  0  0  0  0  0  0  0  0  0
  -48.7307   -9.6045   20.3589 C   0  0  0  0  0  0  0  0  0  0  0  0
  -45.5847  -13.1365   20.3719 C   0  0  0  0  0  0  0  0  0  0  0  0
  -45.3557  -14.5585   19.8209 C   0  0  0  0  0  0  0  0  0  0  0  0
  -49.8227   -9.9045   21.4139 C   0  0  0  0  0  0  0  0  0  0  0  0
  -46.2527  -15.5765   20.5519 C   0  0  0  0  0  0  0  0  0  0  0  0
  -45.1197  -11.5805   18.4229 C   0  0  0  0  0  0  0  0  0  0  0  0
  -48.2157  -10.8585   19.6789 C   0  0  0  0  0  0  0  0  0  0  0  0
  -50.6377   -8.5665   19.0729 C   0  0  0  0  0  0  0  0  0  0  0  0
  -50.9247   -8.0235   17.6689 C   0  0  0  0  0  0  0  0  0  0  0  0
  -45.5947  -15.9665   21.8919 C   0  0  0  0  0  0  0  0  0  0  0  0
  -48.2897   -7.8835   18.6579 C   0  0  0  0  0  0  0  0  0  0  0  0
  -49.9137   -8.7545   22.4309 C   0  0  0  0  0  0  0  0  0  0  0  0
  -49.4987  -11.1945   22.1849 C   0  0  0  0  0  0  0  0  0  0  0  0
  -50.1567   -6.7055   17.5419 C   0  0  0  0  0  0  0  0  0  0  0  0
  -43.8837  -11.0655   19.1459 C   0  0  0  0  0  0  0  0  0  0  0  0
  -46.5427  -16.4935   22.9579 C   0  0  0  0  0  0  0  0  0  0  0  0
  -47.5337  -17.4395   19.6439 C   0  0  0  0  0  0  0  0  0  0  0  0
  -43.9647   -9.9545   19.9569 C   0  0  0  0  0  0  0  0  0  0  0  0
  -42.6757  -11.7115   18.9999 C   0  0  0  0  0  0  0  0  0  0  0  0
  -46.6097  -17.8425   23.2289 C   0  0  0  0  0  0  0  0  0  0  0  0
  -47.3467  -15.6195   23.6579 C   0  0  0  0  0  0  0  0  0  0  0  0
  -47.5137  -18.5095   18.5809 C   0  0  0  0  0  0  0  0  0  0  0  0
  -42.8487   -9.4935   20.6169 C   0  0  0  0  0  0  0  0  0  0  0  0
  -41.5587  -11.2515   19.6589 C   0  0  0  0  0  0  0  0  0  0  0  0
  -41.6447  -10.1425   20.4679 C   0  0  0  0  0  0  0  0  0  0  0  0
  -47.4737  -18.3155   24.1899 C   0  0  0  0  0  0  0  0  0  0  0  0
  -48.2117  -16.0905   24.6189 C   0  0  0  0  0  0  0  0  0  0  0  0
  -48.2747  -17.4395   24.8859 C   0  0  0  0  0  0  0  0  0  0  0  0
  -45.9047  -19.5075   17.1369 C   0  0  0  0  0  0  0  0  0  0  0  0
  -46.0137  -18.8765   15.9009 C   0  0  0  0  0  0  0  0  0  0  0  0
  -45.5167  -20.8405   17.1819 C   0  0  0  0  0  0  0  0  0  0  0  0
  -45.7647  -19.5845   14.7469 C   0  0  0  0  0  0  0  0  0  0  0  0
  -45.2697  -21.5315   16.0189 C   0  0  0  0  0  0  0  0  0  0  0  0
  -46.3927  -17.4175   15.7019 C   0  0  0  0  0  0  0  0  0  0  0  0
  -45.3537  -21.5945   18.4919 C   0  0  0  0  0  0  0  0  0  0  0  0
  -45.3967  -20.9075   14.8009 C   0  0  0  0  0  0  0  0  0  0  0  0
  -46.8467  -12.7755   18.7859 H   0  0  0  0  0  0  0  0  0  0  0  0
  -47.9777   -9.1925   20.8719 H   0  0  0  0  0  0  0  0  0  0  0  0
  -44.3967  -14.7955   19.9749 H   0  0  0  0  0  0  0  0  0  0  0  0
  -47.1547  -15.1985   20.7599 H   0  0  0  0  0  0  0  0  0  0  0  0
  -46.5987  -14.8315   18.2419 H   0  0  0  0  0  0  0  0  0  0  0  0
  -46.4677  -10.5325   20.4679 H   0  0  0  0  0  0  0  0  0  0  0  0
  -45.7257  -16.9575   19.1279 H   0  0  0  0  0  0  0  0  0  0  0  0
  -48.1307   -6.4865   17.3239 H   0  0  0  0  0  0  0  0  0  0  0  0
  -46.1937  -13.1875   21.1629 H   0  0  0  0  0  0  0  0  0  0  0  0
  -44.6957  -12.7575   20.6299 H   0  0  0  0  0  0  0  0  0  0  0  0
  -50.6897  -10.0085   20.9269 H   0  0  0  0  0  0  0  0  0  0  0  0
  -45.5287  -10.8135   17.9269 H   0  0  0  0  0  0  0  0  0  0  0  0
  -44.7957  -12.3205   17.8329 H   0  0  0  0  0  0  0  0  0  0  0  0
  -51.0597   -7.9635   19.7499 H   0  0  0  0  0  0  0  0  0  0  0  0
  -51.0197   -9.4885   19.1359 H   0  0  0  0  0  0  0  0  0  0  0  0
  -51.9057   -7.8675   17.5519 H   0  0  0  0  0  0  0  0  0  0  0  0
  -50.6387   -8.6745   16.9659 H   0  0  0  0  0  0  0  0  0  0  0  0
  -45.1347  -15.1565   22.2579 H   0  0  0  0  0  0  0  0  0  0  0  0
  -44.9717  -16.7205   21.6829 H   0  0  0  0  0  0  0  0  0  0  0  0
  -49.7417   -9.1155   23.3469 H   0  0  0  0  0  0  0  0  0  0  0  0
  -49.2337   -8.0545   22.2109 H   0  0  0  0  0  0  0  0  0  0  0  0
  -50.8257   -8.3445   22.3949 H   0  0  0  0  0  0  0  0  0  0  0  0
  -49.4247  -10.9815   23.1589 H   0  0  0  0  0  0  0  0  0  0  0  0
  -50.2257  -11.8665   22.0409 H   0  0  0  0  0  0  0  0  0  0  0  0
  -48.6347  -11.5755   21.8559 H   0  0  0  0  0  0  0  0  0  0  0  0
  -50.2847   -6.3285   16.6249 H   0  0  0  0  0  0  0  0  0  0  0  0
  -50.5007   -6.0535   18.2179 H   0  0  0  0  0  0  0  0  0  0  0  0
  -44.8387   -9.4805   20.0659 H   0  0  0  0  0  0  0  0  0  0  0  0
  -42.6107  -12.5185   18.4139 H   0  0  0  0  0  0  0  0  0  0  0  0
  -46.0277  -18.4805   22.7249 H   0  0  0  0  0  0  0  0  0  0  0  0
  -47.3017  -14.6395   23.4659 H   0  0  0  0  0  0  0  0  0  0  0  0
  -48.0027  -19.3185   18.9079 H   0  0  0  0  0  0  0  0  0  0  0  0
  -47.9587  -18.1685   17.7539 H   0  0  0  0  0  0  0  0  0  0  0  0
  -42.9127   -8.6865   21.2039 H   0  0  0  0  0  0  0  0  0  0  0  0
  -40.6837  -11.7245   19.5499 H   0  0  0  0  0  0  0  0  0  0  0  0
  -40.8337   -9.8075   20.9469 H   0  0  0  0  0  0  0  0  0  0  0  0
  -47.5187  -19.2955   24.3839 H   0  0  0  0  0  0  0  0  0  0  0  0
  -48.7937  -15.4535   25.1239 H   0  0  0  0  0  0  0  0  0  0  0  0
  -48.9037  -17.7825   25.5839 H   0  0  0  0  0  0  0  0  0  0  0  0
  -45.8527  -19.1305   13.8609 H   0  0  0  0  0  0  0  0  0  0  0  0
  -44.9977  -22.4925   16.0599 H   0  0  0  0  0  0  0  0  0  0  0  0
  -46.3957  -17.2125   14.7229 H   0  0  0  0  0  0  0  0  0  0  0  0
  -47.3007  -17.2485   16.0839 H   0  0  0  0  0  0  0  0  0  0  0  0
  -45.7297  -16.8305   16.1669 H   0  0  0  0  0  0  0  0  0  0  0  0
  -45.0767  -22.5345   18.2939 H   0  0  0  0  0  0  0  0  0  0  0  0
  -44.6577  -21.1485   19.0549 H   0  0  0  0  0  0  0  0  0  0  0  0
  -46.2217  -21.5965   18.9889 H   0  0  0  0  0  0  0  0  0  0  0  0
  -45.2217  -21.4145   13.9569 H   0  0  0  0  0  0  0  0  0  0  0  0
  2 17  2  0
  3 21  2  0
  4 27  2  0
  5 32  1  0
  5 39  1  0
  6 11  1  0
  6 18  1  0
  6 21  1  0
  7 17  1  0
  8 27  1  0
  9 21  1  0
  9 24  1  0
 10  7  1  0
 10 12  1  0
 10 16  1  0
 11 14  1  0
 11 17  1  0
 12 13  1  0
 13  1  1  0
 13 15  1  0
 14 22  1  0
 14 23  1  0
 15  8  1  0
 15 20  1  0
 16 25  1  0
 18 19  1  0
 19 24  1  0
 20 26  1  0
 25 28  2  0
 25 29  1  0
 26 30  2  0
 26 31  1  0
 27 32  1  0
 28 33  1  0
 29 34  2  0
 30 36  1  0
 31 37  2  0
 33 35  2  0
 34 35  1  0
 36 38  2  0
 37 38  1  0
 39 40  2  0
 39 41  1  0
 40 42  1  0
 40 44  1  0
 41 43  2  0
 41 45  1  0
 42 46  2  0
 43 46  1  0
  1 51  1  0
  7 52  1  0
  8 53  1  0
  9 54  1  0
 10 47  1  0
 11 48  1  0
 12 55  1  0
 12 56  1  0
 13 49  1  0
 14 57  1  0
 15 50  1  0
 16 58  1  0
 16 59  1  0
 18 60  1  0
 18 61  1  0
 19 62  1  0
 19 63  1  0
 20 64  1  0
 20 65  1  0
 22 66  1  0
 22 67  1  0
 22 68  1  0
 23 69  1  0
 23 70  1  0
 23 71  1  0
 24 72  1  0
 24 73  1  0
 28 74  1  0
 29 75  1  0
 30 76  1  0
 31 77  1  0
 32 78  1  0
 32 79  1  0
 33 80  1  0
 34 81  1  0
 35 82  1  0
 36 83  1  0
 37 84  1  0
 38 85  1  0
 42 86  1  0
 43 87  1  0
 44 88  1  0
 44 89  1  0
 44 90  1  0
 45 91  1  0
 45 92  1  0
 45 93  1  0
 46 94  1  0
M  END
>  <BioMolTech Lead Finder dG>
-11.003

>  <BioMolTech Lead Finder VSscore>
-12.505

>  <BioMolTech Lead Finder Rank score>
-12.74

>  <BioMolTech Lead Finder LE>
-0.239

>  <BioMolTech Lead Finder Structure Name>
/var/folders/xd/y7jw_xv579q2qqq7kks92xd80000gn/T/LeadFinder_51777_1/Ligand_1.sdf

>  <BioMolTech Lead Finder SDF id>
0

>  <BioMolTech Lead Finder Pose rank>
0

>  <BioMolTech Lead Finder version>
2001 1, 19 January 2019

>  <PUBCHEM_COMPOUND_CID>
92727

>  <PUBCHEM_COMPOUND_CANONICALIZED>
1

>  <PUBCHEM_CACTVS_COMPLEXITY>
940

>  <PUBCHEM_CACTVS_HBOND_ACCEPTOR>
5

>  <PUBCHEM_CACTVS_HBOND_DONOR>
4

>  <PUBCHEM_CACTVS_ROTATABLE_BOND>
15

>  <PUBCHEM_CACTVS_SUBSKEYS>
AAADcfB/uAAAAAAAAAAAAAAAAAAAAAAAAAA8YMEAAAAAAAABUAAAHgAQCAAADTzhmAYzBoPABgCIAiFSEAICCAAgIAAIiIHMCIiOdjKE8T+XeCCu1hOYqAeQwPAOAAACAAAIAAAAAAQAABAAAAAAAAAAAA==

>  <PUBCHEM_IUPAC_OPENEYE_NAME>
(2S)-N-[(1S,3S,4S)-1-benzyl-4-[[2-(2,6-dimethylphenoxy)acetyl]amino]-3-hydroxy-5-phenyl-pentyl]-3-methyl-2-(2-oxohexahydropyrimidin-1-yl)butanamide

>  <PUBCHEM_IUPAC_CAS_NAME>
(2S)-N-[(2S,4S,5S)-5-[[2-(2,6-dimethylphenoxy)-1-oxoethyl]amino]-4-hydroxy-1,6-diphenylhexan-2-yl]-3-methyl-2-(2-oxo-1,3-diazinan-1-yl)butanamide

>  <PUBCHEM_IUPAC_NAME_MARKUP>
(2<I>S</I>)-<I>N</I>-[(2<I>S</I>,4<I>S</I>,5<I>S</I>)-5-[[2-(2,6-dimethylphenoxy)acetyl]amino]-4-hydroxy-1,6-diphenylhexan-2-yl]-3-methyl-2-(2-oxo-1,3-diazinan-1-yl)butanamide

>  <PUBCHEM_IUPAC_NAME>
(2S)-N-[(2S,4S,5S)-5-[[2-(2,6-dimethylphenoxy)acetyl]amino]-4-hydroxy-1,6-diphenylhexan-2-yl]-3-methyl-2-(2-oxo-1,3-diazinan-1-yl)butanamide

>  <PUBCHEM_IUPAC_SYSTEMATIC_NAME>
(2S)-N-[(2S,4S,5S)-5-[2-(2,6-dimethylphenoxy)ethanoylamino]-4-oxidanyl-1,6-diphenyl-hexan-2-yl]-3-methyl-2-(2-oxidanylidene-1,3-diazinan-1-yl)butanamide

>  <PUBCHEM_IUPAC_TRADITIONAL_NAME>
(2S)-N-[(1S,3S,4S)-1-benzyl-4-[[2-(2,6-dimethylphenoxy)acetyl]amino]-3-hydroxy-5-phenyl-pentyl]-2-(2-ketohexahydropyrimidin-1-yl)-3-methyl-butyramide

>  <PUBCHEM_IUPAC_INCHI>
InChI=1S/C37H48N4O5/c1-25(2)34(41-20-12-19-38-37(41)45)36(44)39-30(21-28-15-7-5-8-16-28)23-32(42)31(22-29-17-9-6-10-18-29)40-33(43)24-46-35-26(3)13-11-14-27(35)4/h5-11,13-18,25,30-32,34,42H,12,19-24H2

>  <PUBCHEM_IUPAC_INCHIKEY>
KJHKTHWMRKYKJE-SUGCFTRWSA-N

>  <PUBCHEM_XLOGP3_AA>
5.9

>  <PUBCHEM_EXACT_MASS>
628.362471

>  <PUBCHEM_MOLECULAR_FORMULA>
C37H48N4O5

>  <PUBCHEM_MOLECULAR_WEIGHT>
628.8

>  <PUBCHEM_OPENEYE_CAN_SMILES>
CC1=C(C(=CC=C1)C)OCC(=O)NC(CC2=CC=CC=C2)C(CC(CC3=CC=CC=C3)NC(=O)C(C(C)C)N4CCCNC4=O)O

>  <PUBCHEM_OPENEYE_ISO_SMILES>
CC1=C(C(=CC=C1)C)OCC(=O)N[C@@H](CC2=CC=CC=C2)[C@H](C[C@H](CC3=CC=CC=C3)NC(=O)[C@H](C(C)C)N4CCCNC4=O)O

>  <PUBCHEM_CACTVS_TPSA>
120

>  <PUBCHEM_MONOISOTOPIC_WEIGHT>
628.362471

>  <PUBCHEM_TOTAL_CHARGE>
0

>  <PUBCHEM_HEAVY_ATOM_COUNT>
46

>  <PUBCHEM_ATOM_DEF_STEREO_COUNT>
4

>  <PUBCHEM_ATOM_UDEF_STEREO_COUNT>
0

>  <PUBCHEM_BOND_DEF_STEREO_COUNT>
0

>  <PUBCHEM_BOND_UDEF_STEREO_COUNT>
0

>  <PUBCHEM_ISOTOPIC_ATOM_COUNT>
0

>  <PUBCHEM_COMPONENT_COUNT>
1

>  <PUBCHEM_CACTVS_TAUTO_COUNT>
-1

>  <PUBCHEM_COORDINATE_TYPE>
1
5
255

>  <PUBCHEM_BONDANNOTATIONS>
13  1  6
11  17  5
25  28  8
25  29  8
26  30  8
26  31  8
28  33  8
29  34  8
30  36  8
31  37  8
33  35  8
34  35  8
36  38  8
37  38  8
39  40  8
39  41  8
40  42  8
41  43  8
42  46  8
43  46  8
10  7  6
15  8  5

>  <LF dG>
-11.003

>  <LF VSscore>
-12.505

>  <LF Rank Score>
-12.74

>  <LF LE>
-0.239

>  <Preferred Pose_cresset>
true

>  <Favorite_cresset>
false

>  <Protein_cresset>
6M2N_Dimer_P

>  <MW_cresset>
628.8

>  <#Atoms_cresset>
46

>  <SlogP_cresset>
4.7

>  <TPSA_cresset>
120

>  <Flexibility_cresset>
16.1

>  <#RB_cresset>
16

>  <Rof5_cresset>
1

>  <Filename_cresset>
Lopinavir.sdf

>  <Confs_cresset>
0

>  <Poses_cresset>
10

>  <_cresset_fieldpoints>
    -5     -50.479813     -11.653515      18.237820    -11.6763
    -5     -44.417610     -14.622933      17.067019     -7.3753
    -5     -45.519623      -7.799088      18.071533    -13.0603
    -5     -49.494598     -17.050243      21.862099    -14.9747
    -5     -42.888420     -19.352455      16.239525     -4.7338
    -5     -45.205418     -18.882534      20.488319     -4.0207
    -5     -42.872467     -12.186050      22.304073     -3.2939
    -5     -45.358208     -16.740494      25.903294     -5.2929
    -5     -48.380165     -21.264980      15.666691     -3.3345
    -6     -48.007126     -15.489328      17.396065      3.7565
    -6     -42.737450     -14.960823      21.630703      2.2326
    -6     -43.544533     -17.094540      19.608360      2.3335
    -6     -52.839745      -6.239090      19.245798      4.4091
    -6     -48.396980      -4.851792      15.925768      3.7039
    -6     -46.697319     -12.441723      23.335300      3.7711
    -6     -46.382195      -9.844149      22.416542      5.8130
    -6     -53.013680      -8.371166      20.910686      3.7944
    -6     -44.565933     -24.515026      16.836235      2.3922
    -6     -49.506317     -18.133909      16.042551      1.7451
    -6     -46.465820     -17.744249      12.280489      2.3852
    -6     -40.846848      -8.051933      22.687866      1.6317
    -6     -38.636948     -11.023712      20.909374      1.6790
    -6     -45.330391     -20.488670      21.653252      1.3105
    -6     -45.581001     -20.128555      11.694502      2.2236
    -6     -44.579613     -23.948063      14.174303      2.2086
    -7     -43.699696     -14.550516      17.111347     -2.7512
    -7     -46.026623     -14.044888      16.224831     -2.6699
    -7     -46.109848      -7.598948      20.988041     -2.6781
    -7     -45.356010      -8.326298      17.346474     -2.3713
    -7     -44.872711     -19.005077      20.586075     -3.9352
    -7     -49.325020      -6.011620      20.659803     -2.7893
    -7     -52.776802      -6.017549      19.675915     -1.5031
    -7     -46.588120     -12.200680      23.358955     -2.9573
    -7     -53.105522      -9.105873      21.133511     -1.8937
    -7     -51.165901     -12.079876      19.346249     -2.4812
    -7     -48.088432     -10.172514      16.928673     -3.2582
    -7     -42.745224     -13.712585      21.870686     -2.9509
    -7     -42.320175      -8.799774      17.140141     -1.8394
    -7     -38.394993     -11.039635      20.870258     -0.9697
    -7     -40.839447      -7.666862      22.653690     -0.9697
    -7     -49.149979     -19.245871      21.467804     -2.3822
    -7     -49.270279     -20.440372      26.131042     -0.9690
    -7     -46.219170     -11.041170      22.782890     -3.3709
    -7     -49.225166     -14.197432      21.318554     -3.1406
    -7     -44.913494     -16.520596      25.954277     -1.8339
    -7     -45.272491     -20.156549      11.468016     -1.0060
    -7     -44.638622     -24.139027      13.986216     -1.0010
    -7     -49.013451     -13.705016      20.209179     -3.7494
    -7     -48.884483     -20.652184      16.382057     -2.4705
    -7     -42.633820     -19.113859      16.397648     -2.0177
    -7     -43.768524     -16.664047      17.795395     -2.9090
    -8     -42.772713     -10.609964      19.808838      7.2176
    -8     -45.663887     -14.658936      20.954002      5.5926
    -8     -44.878975     -12.025923      19.368305      5.7976
    -8     -49.424683      -9.881327      21.772028      6.0025
    -8     -46.035263     -18.811115      15.707691      5.4993
    -8     -50.844738      -7.653749      18.162628      4.9359
    -8     -43.930725     -11.151181      19.199173      5.8087
    -8     -47.406036     -16.962761      23.919922      7.1852
    -8     -48.094818     -18.107136      18.545475      2.7484
    -8     -45.640121     -20.221691      15.939411      7.0734

$$$$
Untitled
  xed2sdf_05210316543D
 
 94 97  0  0  1  0  0  0  0  0999 V2000
  -49.3908   -9.1945   17.0938 O   0  0  0  0  0  0  0  0  0  0  0  0
  -44.6438   -9.5195   18.4648 O   0  0  0  0  0  0  0  0  0  0  0  0
  -43.8118  -13.0465   21.1758 O   0  0  0  0  0  0  0  0  0  0  0  0
  -48.2638   -5.6445   18.6048 O   0  0  0  0  0  0  0  0  0  0  0  0
  -49.4738   -3.8075   16.5788 O   0  0  0  0  0  0  0  0  0  0  0  0
  -42.8728  -11.3205   20.0628 N   0  0  0  0  0  0  0  0  0  0  0  0
  -46.1238  -10.5215   19.8758 N   0  0  0  0  0  0  0  0  0  0  0  0
  -50.0018   -6.8345   17.7328 N   0  0  0  0  0  0  0  0  0  0  0  0
  -42.1168  -13.5285   19.7998 N   0  0  0  0  0  0  0  0  0  0  0  0
  -47.2568  -10.3975   18.9448 C   0  0  0  0  0  0  0  0  0  0  0  0
  -43.8658  -10.3625   20.5878 C   0  0  0  0  0  0  0  0  0  0  0  0
  -47.9258   -9.0095   19.0458 C   0  0  0  0  0  0  0  0  0  0  0  0
  -49.3748   -9.0335   18.5188 C   0  0  0  0  0  0  0  0  0  0  0  0
  -43.2058   -9.0725   21.1308 C   0  0  0  0  0  0  0  0  0  0  0  0
  -50.1108   -7.7325   18.8918 C   0  0  0  0  0  0  0  0  0  0  0  0
  -48.2488  -11.5075   19.3518 C   0  0  0  0  0  0  0  0  0  0  0  0
  -44.9048  -10.0805   19.5198 C   0  0  0  0  0  0  0  0  0  0  0  0
  -41.8078  -10.7935   19.1908 C   0  0  0  0  0  0  0  0  0  0  0  0
  -40.5868  -11.7185   19.1748 C   0  0  0  0  0  0  0  0  0  0  0  0
  -51.5848   -8.0555   19.2168 C   0  0  0  0  0  0  0  0  0  0  0  0
  -42.9648  -12.6415   20.3728 C   0  0  0  0  0  0  0  0  0  0  0  0
  -42.1548   -9.4185   22.1998 C   0  0  0  0  0  0  0  0  0  0  0  0
  -44.2538   -8.1515   21.7768 C   0  0  0  0  0  0  0  0  0  0  0  0
  -41.0998  -13.1165   18.8198 C   0  0  0  0  0  0  0  0  0  0  0  0
  -47.6338  -12.8465   19.7318 C   0  0  0  0  0  0  0  0  0  0  0  0
  -51.9928   -7.8585   20.6698 C   0  0  0  0  0  0  0  0  0  0  0  0
  -49.0468   -5.8925   17.6998 C   0  0  0  0  0  0  0  0  0  0  0  0
  -46.7658  -13.4825   18.8718 C   0  0  0  0  0  0  0  0  0  0  0  0
  -47.9358  -13.4285   20.9438 C   0  0  0  0  0  0  0  0  0  0  0  0
  -52.7118   -6.7465   21.0488 C   0  0  0  0  0  0  0  0  0  0  0  0
  -51.6388   -8.7945   21.6168 C   0  0  0  0  0  0  0  0  0  0  0  0
  -49.0298   -5.1645   16.3778 C   0  0  0  0  0  0  0  0  0  0  0  0
  -46.2038  -14.6895   19.2198 C   0  0  0  0  0  0  0  0  0  0  0  0
  -47.3748  -14.6355   21.2928 C   0  0  0  0  0  0  0  0  0  0  0  0
  -46.5088  -15.2665   20.4308 C   0  0  0  0  0  0  0  0  0  0  0  0
  -53.0728   -6.5705   22.3648 C   0  0  0  0  0  0  0  0  0  0  0  0
  -51.9988   -8.6195   22.9338 C   0  0  0  0  0  0  0  0  0  0  0  0
  -52.7158   -7.5065   23.3078 C   0  0  0  0  0  0  0  0  0  0  0  0
  -49.1188   -2.8965   15.6608 C   0  0  0  0  0  0  0  0  0  0  0  0
  -47.8368   -2.3545   15.6198 C   0  0  0  0  0  0  0  0  0  0  0  0
  -50.0498   -2.4955   14.7108 C   0  0  0  0  0  0  0  0  0  0  0  0
  -47.5208   -1.4165   14.6648 C   0  0  0  0  0  0  0  0  0  0  0  0
  -49.7158   -1.5575   13.7628 C   0  0  0  0  0  0  0  0  0  0  0  0
  -46.7078   -2.7245   16.5698 C   0  0  0  0  0  0  0  0  0  0  0  0
  -51.4638   -3.0545   14.6748 C   0  0  0  0  0  0  0  0  0  0  0  0
  -48.4538   -1.0145   13.7388 C   0  0  0  0  0  0  0  0  0  0  0  0
  -46.9558  -10.4905   17.9958 H   0  0  0  0  0  0  0  0  0  0  0  0
  -44.3248  -10.7735   21.3748 H   0  0  0  0  0  0  0  0  0  0  0  0
  -49.8418   -9.8095   18.9438 H   0  0  0  0  0  0  0  0  0  0  0  0
  -49.7148   -7.2955   19.6988 H   0  0  0  0  0  0  0  0  0  0  0  0
  -48.4678   -9.3695   16.7368 H   0  0  0  0  0  0  0  0  0  0  0  0
  -46.2528  -10.8935   20.6638 H   0  0  0  0  0  0  0  0  0  0  0  0
  -50.5528   -6.9345   17.0528 H   0  0  0  0  0  0  0  0  0  0  0  0
  -42.1898  -14.3805   20.0088 H   0  0  0  0  0  0  0  0  0  0  0  0
  -47.3948   -8.3525   18.5108 H   0  0  0  0  0  0  0  0  0  0  0  0
  -47.9518   -8.7455   20.0108 H   0  0  0  0  0  0  0  0  0  0  0  0
  -42.7748   -8.6065   20.3578 H   0  0  0  0  0  0  0  0  0  0  0  0
  -48.8698  -11.6615   18.5828 H   0  0  0  0  0  0  0  0  0  0  0  0
  -48.6998  -11.1755   20.1798 H   0  0  0  0  0  0  0  0  0  0  0  0
  -41.5308   -9.8915   19.5228 H   0  0  0  0  0  0  0  0  0  0  0  0
  -42.1658  -10.7315   18.2588 H   0  0  0  0  0  0  0  0  0  0  0  0
  -40.1478  -11.7285   20.0738 H   0  0  0  0  0  0  0  0  0  0  0  0
  -39.9068  -11.4065   18.5118 H   0  0  0  0  0  0  0  0  0  0  0  0
  -51.7528   -9.0105   18.9738 H   0  0  0  0  0  0  0  0  0  0  0  0
  -52.1318   -7.4055   18.6888 H   0  0  0  0  0  0  0  0  0  0  0  0
  -42.4018   -8.9665   23.0568 H   0  0  0  0  0  0  0  0  0  0  0  0
  -42.1268  -10.4085   22.3378 H   0  0  0  0  0  0  0  0  0  0  0  0
  -41.2538   -9.1065   21.8998 H   0  0  0  0  0  0  0  0  0  0  0  0
  -44.0058   -7.9975   22.7338 H   0  0  0  0  0  0  0  0  0  0  0  0
  -44.2818   -7.2785   21.2908 H   0  0  0  0  0  0  0  0  0  0  0  0
  -45.1558   -8.5815   21.7268 H   0  0  0  0  0  0  0  0  0  0  0  0
  -41.5028  -13.1045   17.9048 H   0  0  0  0  0  0  0  0  0  0  0  0
  -40.3388  -13.7645   18.8368 H   0  0  0  0  0  0  0  0  0  0  0  0
  -46.5428  -13.0645   17.9908 H   0  0  0  0  0  0  0  0  0  0  0  0
  -48.5648  -12.9715   21.5728 H   0  0  0  0  0  0  0  0  0  0  0  0
  -52.9718   -6.0645   20.3648 H   0  0  0  0  0  0  0  0  0  0  0  0
  -51.1168   -9.6045   21.3468 H   0  0  0  0  0  0  0  0  0  0  0  0
  -48.1018   -5.1635   16.0068 H   0  0  0  0  0  0  0  0  0  0  0  0
  -49.6398   -5.6255   15.7338 H   0  0  0  0  0  0  0  0  0  0  0  0
  -45.5738  -15.1475   18.5918 H   0  0  0  0  0  0  0  0  0  0  0  0
  -47.5978  -15.0545   22.1728 H   0  0  0  0  0  0  0  0  0  0  0  0
  -46.1008  -16.1445   20.6838 H   0  0  0  0  0  0  0  0  0  0  0  0
  -53.5948   -5.7615   22.6358 H   0  0  0  0  0  0  0  0  0  0  0  0
  -51.7398   -9.3005   23.6178 H   0  0  0  0  0  0  0  0  0  0  0  0
  -52.9778   -7.3785   24.2648 H   0  0  0  0  0  0  0  0  0  0  0  0
  -46.6018   -1.0225   14.6438 H   0  0  0  0  0  0  0  0  0  0  0  0
  -50.3938   -1.2705   13.0868 H   0  0  0  0  0  0  0  0  0  0  0  0
  -45.8928   -2.1995   16.3268 H   0  0  0  0  0  0  0  0  0  0  0  0
  -46.9758   -2.5155   17.5108 H   0  0  0  0  0  0  0  0  0  0  0  0
  -46.5138   -3.7025   16.4978 H   0  0  0  0  0  0  0  0  0  0  0  0
  -51.9628   -2.6285   13.9208 H   0  0  0  0  0  0  0  0  0  0  0  0
  -51.4318   -4.0445   14.5408 H   0  0  0  0  0  0  0  0  0  0  0  0
  -51.9258   -2.8575   15.5398 H   0  0  0  0  0  0  0  0  0  0  0  0
  -48.2148   -0.3285   13.0508 H   0  0  0  0  0  0  0  0  0  0  0  0
  2 17  2  0
  3 21  2  0
  4 27  2  0
  5 32  1  0
  5 39  1  0
  6 11  1  0
  6 18  1  0
  6 21  1  0
  7 17  1  0
  8 27  1  0
  9 21  1  0
  9 24  1  0
 10  7  1  0
 10 12  1  0
 10 16  1  0
 11 14  1  0
 11 17  1  0
 12 13  1  0
 13  1  1  0
 13 15  1  0
 14 22  1  0
 14 23  1  0
 15  8  1  0
 15 20  1  0
 16 25  1  0
 18 19  1  0
 19 24  1  0
 20 26  1  0
 25 28  2  0
 25 29  1  0
 26 30  2  0
 26 31  1  0
 27 32  1  0
 28 33  1  0
 29 34  2  0
 30 36  1  0
 31 37  2  0
 33 35  2  0
 34 35  1  0
 36 38  2  0
 37 38  1  0
 39 40  2  0
 39 41  1  0
 40 42  1  0
 40 44  1  0
 41 43  2  0
 41 45  1  0
 42 46  2  0
 43 46  1  0
  1 51  1  0
  7 52  1  0
  8 53  1  0
  9 54  1  0
 10 47  1  0
 11 48  1  0
 12 55  1  0
 12 56  1  0
 13 49  1  0
 14 57  1  0
 15 50  1  0
 16 58  1  0
 16 59  1  0
 18 60  1  0
 18 61  1  0
 19 62  1  0
 19 63  1  0
 20 64  1  0
 20 65  1  0
 22 66  1  0
 22 67  1  0
 22 68  1  0
 23 69  1  0
 23 70  1  0
 23 71  1  0
 24 72  1  0
 24 73  1  0
 28 74  1  0
 29 75  1  0
 30 76  1  0
 31 77  1  0
 32 78  1  0
 32 79  1  0
 33 80  1  0
 34 81  1  0
 35 82  1  0
 36 83  1  0
 37 84  1  0
 38 85  1  0
 42 86  1  0
 43 87  1  0
 44 88  1  0
 44 89  1  0
 44 90  1  0
 45 91  1  0
 45 92  1  0
 45 93  1  0
 46 94  1  0
M  END
>  <BioMolTech Lead Finder dG>
-8.812

>  <BioMolTech Lead Finder VSscore>
-11.35

>  <BioMolTech Lead Finder Rank score>
-12.072

>  <BioMolTech Lead Finder LE>
-0.192

>  <BioMolTech Lead Finder Structure Name>
/var/folders/xd/y7jw_xv579q2qqq7kks92xd80000gn/T/LeadFinder_49662_1/Ligand_1.sdf

>  <BioMolTech Lead Finder SDF id>
0

>  <BioMolTech Lead Finder Pose rank>
0

>  <BioMolTech Lead Finder version>
2001 1, 19 January 2019

>  <PUBCHEM_COMPOUND_CID>
92727

>  <PUBCHEM_COMPOUND_CANONICALIZED>
1

>  <PUBCHEM_CACTVS_COMPLEXITY>
940

>  <PUBCHEM_CACTVS_HBOND_ACCEPTOR>
5

>  <PUBCHEM_CACTVS_HBOND_DONOR>
4

>  <PUBCHEM_CACTVS_ROTATABLE_BOND>
15

>  <PUBCHEM_CACTVS_SUBSKEYS>
AAADcfB/uAAAAAAAAAAAAAAAAAAAAAAAAAA8YMEAAAAAAAABUAAAHgAQCAAADTzhmAYzBoPABgCIAiFSEAICCAAgIAAIiIHMCIiOdjKE8T+XeCCu1hOYqAeQwPAOAAACAAAIAAAAAAQAABAAAAAAAAAAAA==

>  <PUBCHEM_IUPAC_OPENEYE_NAME>
(2S)-N-[(1S,3S,4S)-1-benzyl-4-[[2-(2,6-dimethylphenoxy)acetyl]amino]-3-hydroxy-5-phenyl-pentyl]-3-methyl-2-(2-oxohexahydropyrimidin-1-yl)butanamide

>  <PUBCHEM_IUPAC_CAS_NAME>
(2S)-N-[(2S,4S,5S)-5-[[2-(2,6-dimethylphenoxy)-1-oxoethyl]amino]-4-hydroxy-1,6-diphenylhexan-2-yl]-3-methyl-2-(2-oxo-1,3-diazinan-1-yl)butanamide

>  <PUBCHEM_IUPAC_NAME_MARKUP>
(2<I>S</I>)-<I>N</I>-[(2<I>S</I>,4<I>S</I>,5<I>S</I>)-5-[[2-(2,6-dimethylphenoxy)acetyl]amino]-4-hydroxy-1,6-diphenylhexan-2-yl]-3-methyl-2-(2-oxo-1,3-diazinan-1-yl)butanamide

>  <PUBCHEM_IUPAC_NAME>
(2S)-N-[(2S,4S,5S)-5-[[2-(2,6-dimethylphenoxy)acetyl]amino]-4-hydroxy-1,6-diphenylhexan-2-yl]-3-methyl-2-(2-oxo-1,3-diazinan-1-yl)butanamide

>  <PUBCHEM_IUPAC_SYSTEMATIC_NAME>
(2S)-N-[(2S,4S,5S)-5-[2-(2,6-dimethylphenoxy)ethanoylamino]-4-oxidanyl-1,6-diphenyl-hexan-2-yl]-3-methyl-2-(2-oxidanylidene-1,3-diazinan-1-yl)butanamide

>  <PUBCHEM_IUPAC_TRADITIONAL_NAME>
(2S)-N-[(1S,3S,4S)-1-benzyl-4-[[2-(2,6-dimethylphenoxy)acetyl]amino]-3-hydroxy-5-phenyl-pentyl]-2-(2-ketohexahydropyrimidin-1-yl)-3-methyl-butyramide

>  <PUBCHEM_IUPAC_INCHI>
InChI=1S/C37H48N4O5/c1-25(2)34(41-20-12-19-38-37(41)45)36(44)39-30(21-28-15-7-5-8-16-28)23-32(42)31(22-29-17-9-6-10-18-29)40-33(43)24-46-35-26(3)13-11-14-27(35)4/h5-11,13-18,25,30-32,34,42H,12,19-24H2

>  <PUBCHEM_IUPAC_INCHIKEY>
KJHKTHWMRKYKJE-SUGCFTRWSA-N

>  <PUBCHEM_XLOGP3_AA>
5.9

>  <PUBCHEM_EXACT_MASS>
628.362471

>  <PUBCHEM_MOLECULAR_FORMULA>
C37H48N4O5

>  <PUBCHEM_MOLECULAR_WEIGHT>
628.8

>  <PUBCHEM_OPENEYE_CAN_SMILES>
CC1=C(C(=CC=C1)C)OCC(=O)NC(CC2=CC=CC=C2)C(CC(CC3=CC=CC=C3)NC(=O)C(C(C)C)N4CCCNC4=O)O

>  <PUBCHEM_OPENEYE_ISO_SMILES>
CC1=C(C(=CC=C1)C)OCC(=O)N[C@@H](CC2=CC=CC=C2)[C@H](C[C@H](CC3=CC=CC=C3)NC(=O)[C@H](C(C)C)N4CCCNC4=O)O

>  <PUBCHEM_CACTVS_TPSA>
120

>  <PUBCHEM_MONOISOTOPIC_WEIGHT>
628.362471

>  <PUBCHEM_TOTAL_CHARGE>
0

>  <PUBCHEM_HEAVY_ATOM_COUNT>
46

>  <PUBCHEM_ATOM_DEF_STEREO_COUNT>
4

>  <PUBCHEM_ATOM_UDEF_STEREO_COUNT>
0

>  <PUBCHEM_BOND_DEF_STEREO_COUNT>
0

>  <PUBCHEM_BOND_UDEF_STEREO_COUNT>
0

>  <PUBCHEM_ISOTOPIC_ATOM_COUNT>
0

>  <PUBCHEM_COMPONENT_COUNT>
1

>  <PUBCHEM_CACTVS_TAUTO_COUNT>
-1

>  <PUBCHEM_COORDINATE_TYPE>
1
5
255

>  <PUBCHEM_BONDANNOTATIONS>
13  1  6
11  17  5
25  28  8
25  29  8
26  30  8
26  31  8
28  33  8
29  34  8
30  36  8
31  37  8
33  35  8
34  35  8
36  38  8
37  38  8
39  40  8
39  41  8
40  42  8
41  43  8
42  46  8
43  46  8
10  7  6
15  8  5

>  <LF dG>
-8.812

>  <LF VSscore>
-11.35

>  <LF Rank Score>
-12.072

>  <LF LE>
-0.192

>  <Preferred Pose_cresset>
true

>  <Favorite_cresset>
false

>  <Protein_cresset>
6M2N_Dimer_P

>  <MW_cresset>
628.8

>  <#Atoms_cresset>
46

>  <SlogP_cresset>
4.7

>  <TPSA_cresset>
120

>  <Flexibility_cresset>
16.1

>  <#RB_cresset>
16

>  <Rof5_cresset>
1

>  <Filename_cresset>
Lopinavir.sdf

>  <Confs_cresset>
0

>  <Poses_cresset>
10

>  <_cresset_fieldpoints>
    -5     -50.806938      -9.799681      16.131268     -5.4841
    -5     -49.199242     -15.531984      18.851883     -4.9672
    -5     -43.420158      -8.506603      17.733807    -10.1582
    -5     -44.352947     -14.331553      22.162457    -14.0252
    -5     -47.207214      -4.362474      19.098970    -13.0730
    -5     -44.223145     -12.190296      18.231428     -8.3896
    -5     -54.860893      -9.030050      21.522278     -4.4434
    -5     -47.703259      -3.813260      12.700137     -3.3223
    -5     -47.786789      -5.517653      20.323935    -11.7197
    -6     -51.786995      -6.443664      15.482553      5.9983
    -6     -47.657364     -10.703775      15.872354      5.1464
    -6     -50.962414     -11.500104      20.424885      5.1050
    -6     -38.847473     -13.082438      16.887447      3.7755
    -6     -49.784561     -11.166648      22.176603      5.7413
    -6     -41.178730     -16.138588      19.297358      4.0634
    -6     -39.209072      -9.093098      19.814369      2.8201
    -6     -54.344284      -5.715090      25.272419      1.5599
    -6     -44.441139      -0.688308      14.704227      1.6669
    -6     -45.915283       0.590896      12.770268      1.7904
    -6     -52.191063      -1.444271      11.760551      2.4401
    -7     -49.284073      -8.090239      15.076529     -2.3211
    -7     -51.572807      -9.077940      16.103537     -2.1365
    -7     -48.461060     -11.535841      16.072676     -2.4180
    -7     -45.800499      -8.603981      16.541752     -2.1647
    -7     -45.158806      -7.183766      18.776073     -2.8824
    -7     -46.089821      -6.232784      17.757978     -2.6265
    -7     -47.153656      -7.743812      16.065392     -2.6164
    -7     -43.624786     -15.234070      21.978666     -2.0183
    -7     -45.410271     -12.386137      22.788784     -3.0261
    -7     -48.687370      -7.404414      22.035187     -2.8608
    -7     -40.327694      -7.700315      19.857719     -1.7905
    -7     -41.066193     -11.335036      15.895633     -1.4344
    -7     -39.256748      -8.915888      20.303612     -1.7872
    -7     -40.918419     -12.682158      22.365114     -2.4336
    -7     -41.479939      -6.316290      21.204800     -1.5409
    -7     -46.709396      -6.383077      20.248434     -2.6811
    -7     -46.264778      -6.392109      19.697453     -2.6762
    -7     -44.194069     -12.153316      17.577290     -3.8345
    -7     -49.698044     -15.300459      18.619961     -1.8460
    -7     -55.027977      -9.334770      21.161472     -1.8325
    -7     -51.376240     -11.610601      19.884018     -3.0598
    -7     -43.935905     -12.177207      23.374773     -2.3327
    -7     -48.867104      -3.300138      19.191784     -2.5153
    -7     -54.403095      -5.233615      25.190083     -0.9684
    -7     -52.334068      -9.123793      26.274132     -0.9696
    -7     -48.368820      -9.852872      22.254379     -3.5124
    -7     -45.600983       0.619671      12.795279     -1.0060
    -7     -47.979404      -4.774144      13.201973     -2.5007
    -7     -49.815228       0.194377      16.864304     -1.9825
    -7     -51.855579      -4.811465      17.966274     -3.5400
    -7     -50.006027       0.449796      11.073435     -1.0011
    -8     -48.398499     -10.113806      19.064388      5.8813
    -8     -52.349617      -7.684606      21.982384      7.1975
    -8     -47.076553     -14.054162      20.077808      7.1818
    -8     -51.167252      -8.131363      20.014116      5.6124
    -8     -43.403759      -9.196171      21.613483      5.9788
    -8     -48.772522      -1.937984      14.671345      7.0725
    -8     -48.726170      -5.903670      16.359678      2.8612
    -8     -41.066612     -11.795027      18.796253      4.9418
    -8     -49.074478      -8.593954      19.277763      5.0599
    -8     -51.943413      -7.858011      20.647640      5.7499

$$$$
W_Wogonoside_D
  xed2sdf_05210316543D
 
 52 55  0  0  1  0  0  0  0  0999 V2000
  -51.0454   -7.4082   20.1357 O   0  0  0  0  0  0  0  0  0  0  0  0
  -49.4074   -8.3942   18.6557 O   0  0  0  0  0  0  0  0  0  0  0  0
  -50.1374  -10.3292   23.0407 O   0  0  0  0  0  0  0  0  0  0  0  0
  -49.0994  -10.5582   20.3767 O   0  0  0  0  0  0  0  0  0  0  0  0
  -52.4294   -8.6172   23.3707 O   0  0  0  0  0  0  0  0  0  0  0  0
  -51.8404   -5.3312   21.6257 O   0  5  0  0  0  0  0  0  0  0  0  0
  -53.8554   -6.3522   21.9627 O   0  0  0  0  0  0  0  0  0  0  0  0
  -47.5344   -4.3462   17.1907 O   0  0  0  0  0  0  0  0  0  0  0  0
  -47.4774   -6.5432   18.7727 O   0  0  0  0  0  0  0  0  0  0  0  0
  -51.7554   -5.8262   15.4287 O   0  0  0  0  0  0  0  0  0  0  0  0
  -50.6344   -3.6322   14.6907 O   0  0  0  0  0  0  0  0  0  0  0  0
  -50.7604   -9.6682   21.9297 C   0  0  0  0  0  0  0  0  0  0  0  0
  -49.7164   -9.3502   20.8467 C   0  0  0  0  0  0  0  0  0  0  0  0
  -51.4214   -8.3552   22.3837 C   0  0  0  0  0  0  0  0  0  0  0  0
  -50.4064   -8.6212   19.6767 C   0  0  0  0  0  0  0  0  0  0  0  0
  -52.0374   -7.6542   21.1567 C   0  0  0  0  0  0  0  0  0  0  0  0
  -52.6224   -6.3452   21.6167 C   0  0  0  0  0  0  0  0  0  0  0  0
  -49.5214   -7.3072   17.8877 C   0  0  0  0  0  0  0  0  0  0  0  0
  -48.5234   -6.3502   17.9447 C   0  0  0  0  0  0  0  0  0  0  0  0
  -50.6114   -7.1202   17.0447 C   0  0  0  0  0  0  0  0  0  0  0  0
  -48.5734   -5.2252   17.1327 C   0  0  0  0  0  0  0  0  0  0  0  0
  -49.6664   -5.0512   16.2837 C   0  0  0  0  0  0  0  0  0  0  0  0
  -50.6904   -6.0042   16.2537 C   0  0  0  0  0  0  0  0  0  0  0  0
  -49.6874   -3.8762   15.4377 C   0  0  0  0  0  0  0  0  0  0  0  0
  -47.5324   -3.2812   16.3247 C   0  0  0  0  0  0  0  0  0  0  0  0
  -48.5654   -3.0092   15.4737 C   0  0  0  0  0  0  0  0  0  0  0  0
  -46.3234   -2.4182   16.3587 C   0  0  0  0  0  0  0  0  0  0  0  0
  -46.5344   -7.5742   18.4197 C   0  0  0  0  0  0  0  0  0  0  0  0
  -45.2634   -2.6252   17.2307 C   0  0  0  0  0  0  0  0  0  0  0  0
  -46.2534   -1.3442   15.4837 C   0  0  0  0  0  0  0  0  0  0  0  0
  -44.1754   -1.7852   17.2237 C   0  0  0  0  0  0  0  0  0  0  0  0
  -45.1664   -0.5062   15.4767 C   0  0  0  0  0  0  0  0  0  0  0  0
  -44.1244   -0.7242   16.3477 C   0  0  0  0  0  0  0  0  0  0  0  0
  -51.4574  -10.2802   21.5577 H   0  0  0  0  0  0  0  0  0  0  0  0
  -49.0064   -8.7642   21.2357 H   0  0  0  0  0  0  0  0  0  0  0  0
  -50.7324   -7.7602   22.7967 H   0  0  0  0  0  0  0  0  0  0  0  0
  -51.1424   -9.1732   19.2847 H   0  0  0  0  0  0  0  0  0  0  0  0
  -52.7394   -8.2452   20.7587 H   0  0  0  0  0  0  0  0  0  0  0  0
  -50.7544  -11.0092   23.4547 H   0  0  0  0  0  0  0  0  0  0  0  0
  -49.7874  -11.2492   20.1307 H   0  0  0  0  0  0  0  0  0  0  0  0
  -52.0404   -8.6152   24.2987 H   0  0  0  0  0  0  0  0  0  0  0  0
  -52.0334   -6.6912   14.9957 H   0  0  0  0  0  0  0  0  0  0  0  0
  -51.3404   -7.8042   17.0147 H   0  0  0  0  0  0  0  0  0  0  0  0
  -48.5314   -2.2052   14.8807 H   0  0  0  0  0  0  0  0  0  0  0  0
  -46.8274   -8.0052   17.5657 H   0  0  0  0  0  0  0  0  0  0  0  0
  -45.6254   -7.1752   18.2997 H   0  0  0  0  0  0  0  0  0  0  0  0
  -46.4964   -8.2592   19.1477 H   0  0  0  0  0  0  0  0  0  0  0  0
  -45.2914   -3.3932   17.8707 H   0  0  0  0  0  0  0  0  0  0  0  0
  -47.0064   -1.1792   14.8467 H   0  0  0  0  0  0  0  0  0  0  0  0
  -43.4184   -1.9452   17.8567 H   0  0  0  0  0  0  0  0  0  0  0  0
  -45.1324    0.2628   14.8387 H   0  0  0  0  0  0  0  0  0  0  0  0
  -43.3314   -0.1132   16.3447 H   0  0  0  0  0  0  0  0  0  0  0  0
  1 15  1  0
  1 16  1  0
  2 18  1  0
  6 17  1  0
  7 17  2  0
  8 21  1  0
  8 25  1  0
  9 19  1  0
  9 28  1  0
 10 23  1  0
 11 24  2  0
 12  3  1  0
 12 13  1  0
 12 14  1  0
 13  4  1  0
 13 15  1  0
 14  5  1  0
 14 16  1  0
 15  2  1  0
 16 17  1  0
 18 19  2  0
 18 20  1  0
 19 21  1  0
 20 23  2  0
 21 22  2  0
 22 23  1  0
 22 24  1  0
 24 26  1  0
 25 26  2  0
 25 27  1  0
 27 29  2  0
 27 30  1  0
 29 31  1  0
 30 32  2  0
 31 33  2  0
 32 33  1  0
  3 39  1  0
  4 40  1  0
  5 41  1  0
 10 42  1  0
 12 34  1  0
 13 35  1  0
 14 36  1  0
 15 37  1  0
 16 38  1  0
 20 43  1  0
 26 44  1  0
 28 45  1  0
 28 46  1  0
 28 47  1  0
 29 48  1  0
 30 49  1  0
 31 50  1  0
 32 51  1  0
 33 52  1  0
M  CHG  1   6  -1
M  END
>  <BioMolTech Lead Finder dG>
-7.381

>  <BioMolTech Lead Finder VSscore>
-11.304

>  <BioMolTech Lead Finder Rank score>
-11.536

>  <BioMolTech Lead Finder LE>
-0.224

>  <BioMolTech Lead Finder Structure Name>
/var/folders/xd/y7jw_xv579q2qqq7kks92xd80000gn/T/LeadFinder_51776_1/Ligand_1.sdf

>  <BioMolTech Lead Finder SDF id>
0

>  <BioMolTech Lead Finder Pose rank>
0

>  <BioMolTech Lead Finder version>
2001 1, 19 January 2019

>  <PUBCHEM_COMPOUND_CID>
3084961

>  <PUBCHEM_COMPOUND_CANONICALIZED>
1

>  <PUBCHEM_CACTVS_COMPLEXITY>
763

>  <PUBCHEM_CACTVS_HBOND_ACCEPTOR>
11

>  <PUBCHEM_CACTVS_HBOND_DONOR>
5

>  <PUBCHEM_CACTVS_ROTATABLE_BOND>
5

>  <PUBCHEM_CACTVS_SUBSKEYS>
AAADceB4PAAAAAAAAAAAAAAAAAAAAAAAAAA0YIEAAAAAAACBQAAAGgAACAAADBSwmAMyDoAABgCIAqDSCAICCAAkIAAIiAFGiMgdNzaGNR6ieWKl4BUPuQfK7LzOIQABCAAIQABCAAIQABCAAAAAAAAAAA==

>  <PUBCHEM_IUPAC_OPENEYE_NAME>
(2S,3S,4S,5R,6S)-3,4,5-trihydroxy-6-(5-hydroxy-8-methoxy-4-oxo-2-phenyl-chromen-7-yl)oxy-tetrahydropyran-2-carboxylic acid

>  <PUBCHEM_IUPAC_CAS_NAME>
(2S,3S,4S,5R,6S)-3,4,5-trihydroxy-6-[(5-hydroxy-8-methoxy-4-oxo-2-phenyl-1-benzopyran-7-yl)oxy]-2-oxanecarboxylic acid

>  <PUBCHEM_IUPAC_NAME_MARKUP>
(2<I>S</I>,3<I>S</I>,4<I>S</I>,5<I>R</I>,6<I>S</I>)-3,4,5-trihydroxy-6-(5-hydroxy-8-methoxy-4-oxo-2-phenylchromen-7-yl)oxyoxane-2-carboxylic acid

>  <PUBCHEM_IUPAC_NAME>
(2S,3S,4S,5R,6S)-3,4,5-trihydroxy-6-(5-hydroxy-8-methoxy-4-oxo-2-phenylchromen-7-yl)oxyoxane-2-carboxylic acid

>  <PUBCHEM_IUPAC_SYSTEMATIC_NAME>
(2S,3S,4S,5R,6S)-6-(8-methoxy-5-oxidanyl-4-oxidanylidene-2-phenyl-chromen-7-yl)oxy-3,4,5-tris(oxidanyl)oxane-2-carboxylic acid

>  <PUBCHEM_IUPAC_TRADITIONAL_NAME>
(2S,3S,4S,5R,6S)-3,4,5-trihydroxy-6-(5-hydroxy-4-keto-8-methoxy-2-phenyl-chromen-7-yl)oxy-tetrahydropyran-2-carboxylic acid

>  <PUBCHEM_IUPAC_INCHI>
InChI=1S/C22H20O11/c1-30-18-13(32-22-17(27)15(25)16(26)20(33-22)21(28)29)8-11(24)14-10(23)7-12(31-19(14)18)9-5-3-2-4-6-9/h2-8,15-17,20,22,24-27H,1H3,(H,28,29)/t15-,16-,17+,20-,22+/m0/s1

>  <PUBCHEM_IUPAC_INCHIKEY>
LNOHXHDWGCMVCO-NTKSAMNMSA-N

>  <PUBCHEM_XLOGP3_AA>
1.4

>  <PUBCHEM_EXACT_MASS>
460.100561

>  <PUBCHEM_MOLECULAR_FORMULA>
C22H20O11

>  <PUBCHEM_MOLECULAR_WEIGHT>
460.4

>  <PUBCHEM_OPENEYE_CAN_SMILES>
COC1=C(C=C(C2=C1OC(=CC2=O)C3=CC=CC=C3)O)OC4C(C(C(C(O4)C(=O)O)O)O)O

>  <PUBCHEM_OPENEYE_ISO_SMILES>
COC1=C(C=C(C2=C1OC(=CC2=O)C3=CC=CC=C3)O)O[C@H]4[C@@H]([C@H]([C@@H]([C@H](O4)C(=O)O)O)O)O

>  <PUBCHEM_CACTVS_TPSA>
172

>  <PUBCHEM_MONOISOTOPIC_WEIGHT>
460.100561

>  <PUBCHEM_TOTAL_CHARGE>
0

>  <PUBCHEM_HEAVY_ATOM_COUNT>
33

>  <PUBCHEM_ATOM_DEF_STEREO_COUNT>
5

>  <PUBCHEM_ATOM_UDEF_STEREO_COUNT>
0

>  <PUBCHEM_BOND_DEF_STEREO_COUNT>
0

>  <PUBCHEM_BOND_UDEF_STEREO_COUNT>
0

>  <PUBCHEM_ISOTOPIC_ATOM_COUNT>
0

>  <PUBCHEM_COMPONENT_COUNT>
1

>  <PUBCHEM_CACTVS_TAUTO_COUNT>
-1

>  <PUBCHEM_COORDINATE_TYPE>
1
5
255

>  <PUBCHEM_BONDANNOTATIONS>
16  17  5
18  19  8
18  20  8
19  21  8
15  2  5
20  23  8
21  22  8
22  23  8
22  24  8
24  26  8
25  26  8
27  29  8
27  30  8
29  31  8
12  3  5
30  32  8
31  33  8
32  33  8
13  4  6
14  5  6
8  21  8
8  25  8

>  <LF dG>
-7.381

>  <LF VSscore>
-11.304

>  <LF Rank Score>
-11.536

>  <LF LE>
-0.224

>  <Preferred Pose_cresset>
true

>  <Favorite_cresset>
false

>  <Protein_cresset>
6M2N_Dimer_P

>  <MW_cresset>
459.4

>  <#Atoms_cresset>
33

>  <SlogP_cresset>
1.4

>  <TPSA_cresset>
175

>  <Flexibility_cresset>
7.6

>  <#RB_cresset>
9

>  <Rof5_cresset>
1

>  <Filename_cresset>
Wogonoside.sdf

>  <Confs_cresset>
0

>  <Poses_cresset>
10

>  <_cresset_fieldpoints>
    -5     -47.277733     -10.664227      20.420067     -9.9220
    -5     -50.159897      -5.569369      20.583134    -13.6222
    -5     -54.168762      -4.590585      22.420090    -11.2810
    -5     -52.859283      -3.920868      22.166569    -11.6903
    -5     -54.297913      -8.109303      23.056473     -9.3472
    -5     -52.466114      -4.091981      14.720926    -15.6764
    -5     -43.957855      -3.383949      14.397685     -4.4111
    -5     -46.848572      -0.249450      18.563221     -5.4700
    -6     -51.505852     -11.531782      19.645769      9.9285
    -6     -51.860973     -12.248772      22.784229      7.6124
    -6     -51.777069     -10.502300      24.882210      6.5655
    -6     -52.547455      -8.445801      15.199703      5.7798
    -6     -52.449875      -9.736813      17.636478      6.0084
    -6     -46.876423       0.632404      13.202082      1.5619
    -6     -41.350571      -0.318891      17.660257      1.6218
    -6     -43.117516       1.763040      14.743889      1.7527
    -7     -49.087570     -12.384165      22.102791     -1.6261
    -7     -48.413052      -8.698875      23.931358     -1.6189
    -7     -53.047260     -10.853592      23.920013     -1.5980
    -7     -51.957973     -11.594713      19.359522     -1.7509
    -7     -49.325432      -5.916348      21.110086     -3.6666
    -7     -54.159615     -10.038491      22.253799     -1.6914
    -7     -49.971432      -9.264672      25.160576     -1.5763
    -7     -53.240295     -10.577164      19.703913     -1.8544
    -7     -49.190765      -2.249034      18.472397     -2.3912
    -7     -53.648136      -6.841431      24.389111     -1.6682
    -7     -54.746620      -8.511154      22.759695     -1.7565
    -7     -50.980484      -5.436178      23.957973     -1.4269
    -7     -45.653877      -5.713389      15.847887     -2.9528
    -7     -50.957993      -5.549063      13.031886     -1.7738
    -7     -52.792736      -3.489707      16.030979     -1.6391
    -7     -47.628197      -7.651967      14.974312     -2.3042
    -7     -51.071457      -4.794139      19.514605     -3.1825
    -7     -53.901447      -6.877964      16.558655     -1.3516
    -7     -47.942535     -10.566879      18.257309     -2.5218
    -7     -46.872684       0.174912      18.539545     -1.7874
    -7     -43.993057      -3.620701      14.149253     -1.7910
    -7     -46.991486      -3.910170      19.693207     -2.6038
    -7     -43.066212       2.048178      14.689632     -0.9671
    -7     -41.171192      -0.399155      17.996384     -0.9676
    -8     -49.613571      -6.169829      17.065029      6.6027
    -8     -50.937767      -8.854153      21.236990      5.1846
    -8     -45.221191      -1.566209      16.352505      7.1520
    -8     -45.969093      -8.201553      18.166298      2.5187
    -8     -48.847755      -4.103927      16.078934      5.0137
    -8     -47.235664      -2.294974      15.690087      5.5701

$$$$
Untitled
  xed2sdf_05210316543D
 
 52 55  0  0  1  0  0  0  0  0999 V2000
  -47.5999  -13.4783   22.2887 O   0  0  0  0  0  0  0  0  0  0  0  0
  -47.3669  -11.5453   20.8577 O   0  0  0  0  0  0  0  0  0  0  0  0
  -46.3659  -15.9523   19.1017 O   0  0  0  0  0  0  0  0  0  0  0  0
  -46.9609  -13.1833   18.6457 O   0  0  0  0  0  0  0  0  0  0  0  0
  -47.4629  -17.1113   21.4977 O   0  0  0  0  0  0  0  0  0  0  0  0
  -48.6719  -16.1323   24.2507 O   0  5  0  0  0  0  0  0  0  0  0  0
  -46.6959  -14.9953   24.3757 O   0  0  0  0  0  0  0  0  0  0  0  0
  -50.9639   -8.6063   21.5377 O   0  0  0  0  0  0  0  0  0  0  0  0
  -49.1799  -10.4153   22.4707 O   0  0  0  0  0  0  0  0  0  0  0  0
  -49.1619   -9.2303   17.1237 O   0  0  0  0  0  0  0  0  0  0  0  0
  -51.1239   -7.6403   17.6117 O   0  0  0  0  0  0  0  0  0  0  0  0
  -47.2069  -15.2053   19.9927 C   0  0  0  0  0  0  0  0  0  0  0  0
  -46.8189  -13.7173   19.9697 C   0  0  0  0  0  0  0  0  0  0  0  0
  -47.0739  -15.7323   21.4317 C   0  0  0  0  0  0  0  0  0  0  0  0
  -47.7209  -12.9433   20.9517 C   0  0  0  0  0  0  0  0  0  0  0  0
  -47.9549  -14.8773   22.3617 C   0  0  0  0  0  0  0  0  0  0  0  0
  -47.7589  -15.3733   23.7707 C   0  0  0  0  0  0  0  0  0  0  0  0
  -48.2529  -10.6993   20.3257 C   0  0  0  0  0  0  0  0  0  0  0  0
  -49.1899  -10.1133   21.1577 C   0  0  0  0  0  0  0  0  0  0  0  0
  -48.2549  -10.4043   18.9667 C   0  0  0  0  0  0  0  0  0  0  0  0
  -50.1029   -9.1933   20.6597 C   0  0  0  0  0  0  0  0  0  0  0  0
  -50.0919   -8.8983   19.2977 C   0  0  0  0  0  0  0  0  0  0  0  0
  -49.1659   -9.5193   18.4517 C   0  0  0  0  0  0  0  0  0  0  0  0
  -51.0459   -7.9253   18.8067 C   0  0  0  0  0  0  0  0  0  0  0  0
  -51.8069   -7.6293   21.0677 C   0  0  0  0  0  0  0  0  0  0  0  0
  -51.8889   -7.2853   19.7497 C   0  0  0  0  0  0  0  0  0  0  0  0
  -52.6449   -6.9493   22.0887 C   0  0  0  0  0  0  0  0  0  0  0  0
  -50.2499  -11.2453   22.9677 C   0  0  0  0  0  0  0  0  0  0  0  0
  -53.5169   -5.9103   21.7917 C   0  0  0  0  0  0  0  0  0  0  0  0
  -52.5449   -7.3633   23.4087 C   0  0  0  0  0  0  0  0  0  0  0  0
  -54.2579   -5.3113   22.7817 C   0  0  0  0  0  0  0  0  0  0  0  0
  -53.2859   -6.7643   24.3977 C   0  0  0  0  0  0  0  0  0  0  0  0
  -54.1439   -5.7353   24.0867 C   0  0  0  0  0  0  0  0  0  0  0  0
  -48.1529  -15.3113   19.6857 H   0  0  0  0  0  0  0  0  0  0  0  0
  -45.8629  -13.6223   20.2467 H   0  0  0  0  0  0  0  0  0  0  0  0
  -46.1199  -15.6673   21.7237 H   0  0  0  0  0  0  0  0  0  0  0  0
  -48.6879  -13.0433   20.7157 H   0  0  0  0  0  0  0  0  0  0  0  0
  -48.9109  -14.9613   22.0797 H   0  0  0  0  0  0  0  0  0  0  0  0
  -46.8329  -16.1433   18.2317 H   0  0  0  0  0  0  0  0  0  0  0  0
  -47.4729  -13.8113   18.0507 H   0  0  0  0  0  0  0  0  0  0  0  0
  -48.4429  -17.2043   21.7087 H   0  0  0  0  0  0  0  0  0  0  0  0
  -48.2649   -9.4163   16.7087 H   0  0  0  0  0  0  0  0  0  0  0  0
  -47.5889  -10.8403   18.3617 H   0  0  0  0  0  0  0  0  0  0  0  0
  -52.5389   -6.5863   19.4507 H   0  0  0  0  0  0  0  0  0  0  0  0
  -50.8619  -11.4743   22.2107 H   0  0  0  0  0  0  0  0  0  0  0  0
  -49.8719  -12.0833   23.3607 H   0  0  0  0  0  0  0  0  0  0  0  0
  -50.7569  -10.7523   23.6747 H   0  0  0  0  0  0  0  0  0  0  0  0
  -53.6069   -5.5943   20.8467 H   0  0  0  0  0  0  0  0  0  0  0  0
  -51.9229   -8.1103   23.6437 H   0  0  0  0  0  0  0  0  0  0  0  0
  -54.8829   -4.5643   22.5537 H   0  0  0  0  0  0  0  0  0  0  0  0
  -53.2009   -7.0763   25.3437 H   0  0  0  0  0  0  0  0  0  0  0  0
  -54.6839   -5.2983   24.8057 H   0  0  0  0  0  0  0  0  0  0  0  0
  1 15  1  0
  1 16  1  0
  2 18  1  0
  6 17  1  0
  7 17  2  0
  8 21  1  0
  8 25  1  0
  9 19  1  0
  9 28  1  0
 10 23  1  0
 11 24  2  0
 12  3  1  0
 12 13  1  0
 12 14  1  0
 13  4  1  0
 13 15  1  0
 14  5  1  0
 14 16  1  0
 15  2  1  0
 16 17  1  0
 18 19  2  0
 18 20  1  0
 19 21  1  0
 20 23  2  0
 21 22  2  0
 22 23  1  0
 22 24  1  0
 24 26  1  0
 25 26  2  0
 25 27  1  0
 27 29  2  0
 27 30  1  0
 29 31  1  0
 30 32  2  0
 31 33  2  0
 32 33  1  0
  3 39  1  0
  4 40  1  0
  5 41  1  0
 10 42  1  0
 12 34  1  0
 13 35  1  0
 14 36  1  0
 15 37  1  0
 16 38  1  0
 20 43  1  0
 26 44  1  0
 28 45  1  0
 28 46  1  0
 28 47  1  0
 29 48  1  0
 30 49  1  0
 31 50  1  0
 32 51  1  0
 33 52  1  0
M  CHG  1   6  -1
M  END
>  <BioMolTech Lead Finder dG>
-7.886

>  <BioMolTech Lead Finder VSscore>
-11.405

>  <BioMolTech Lead Finder Rank score>
-11.544

>  <BioMolTech Lead Finder LE>
-0.239

>  <BioMolTech Lead Finder Structure Name>
/var/folders/xd/y7jw_xv579q2qqq7kks92xd80000gn/T/LeadFinder_49663_1/Ligand_1.sdf

>  <BioMolTech Lead Finder SDF id>
0

>  <BioMolTech Lead Finder Pose rank>
0

>  <BioMolTech Lead Finder version>
2001 1, 19 January 2019

>  <PUBCHEM_COMPOUND_CID>
3084961

>  <PUBCHEM_COMPOUND_CANONICALIZED>
1

>  <PUBCHEM_CACTVS_COMPLEXITY>
763

>  <PUBCHEM_CACTVS_HBOND_ACCEPTOR>
11

>  <PUBCHEM_CACTVS_HBOND_DONOR>
5

>  <PUBCHEM_CACTVS_ROTATABLE_BOND>
5

>  <PUBCHEM_CACTVS_SUBSKEYS>
AAADceB4PAAAAAAAAAAAAAAAAAAAAAAAAAA0YIEAAAAAAACBQAAAGgAACAAADBSwmAMyDoAABgCIAqDSCAICCAAkIAAIiAFGiMgdNzaGNR6ieWKl4BUPuQfK7LzOIQABCAAIQABCAAIQABCAAAAAAAAAAA==

>  <PUBCHEM_IUPAC_OPENEYE_NAME>
(2S,3S,4S,5R,6S)-3,4,5-trihydroxy-6-(5-hydroxy-8-methoxy-4-oxo-2-phenyl-chromen-7-yl)oxy-tetrahydropyran-2-carboxylic acid

>  <PUBCHEM_IUPAC_CAS_NAME>
(2S,3S,4S,5R,6S)-3,4,5-trihydroxy-6-[(5-hydroxy-8-methoxy-4-oxo-2-phenyl-1-benzopyran-7-yl)oxy]-2-oxanecarboxylic acid

>  <PUBCHEM_IUPAC_NAME_MARKUP>
(2<I>S</I>,3<I>S</I>,4<I>S</I>,5<I>R</I>,6<I>S</I>)-3,4,5-trihydroxy-6-(5-hydroxy-8-methoxy-4-oxo-2-phenylchromen-7-yl)oxyoxane-2-carboxylic acid

>  <PUBCHEM_IUPAC_NAME>
(2S,3S,4S,5R,6S)-3,4,5-trihydroxy-6-(5-hydroxy-8-methoxy-4-oxo-2-phenylchromen-7-yl)oxyoxane-2-carboxylic acid

>  <PUBCHEM_IUPAC_SYSTEMATIC_NAME>
(2S,3S,4S,5R,6S)-6-(8-methoxy-5-oxidanyl-4-oxidanylidene-2-phenyl-chromen-7-yl)oxy-3,4,5-tris(oxidanyl)oxane-2-carboxylic acid

>  <PUBCHEM_IUPAC_TRADITIONAL_NAME>
(2S,3S,4S,5R,6S)-3,4,5-trihydroxy-6-(5-hydroxy-4-keto-8-methoxy-2-phenyl-chromen-7-yl)oxy-tetrahydropyran-2-carboxylic acid

>  <PUBCHEM_IUPAC_INCHI>
InChI=1S/C22H20O11/c1-30-18-13(32-22-17(27)15(25)16(26)20(33-22)21(28)29)8-11(24)14-10(23)7-12(31-19(14)18)9-5-3-2-4-6-9/h2-8,15-17,20,22,24-27H,1H3,(H,28,29)/t15-,16-,17+,20-,22+/m0/s1

>  <PUBCHEM_IUPAC_INCHIKEY>
LNOHXHDWGCMVCO-NTKSAMNMSA-N

>  <PUBCHEM_XLOGP3_AA>
1.4

>  <PUBCHEM_EXACT_MASS>
460.100561

>  <PUBCHEM_MOLECULAR_FORMULA>
C22H20O11

>  <PUBCHEM_MOLECULAR_WEIGHT>
460.4

>  <PUBCHEM_OPENEYE_CAN_SMILES>
COC1=C(C=C(C2=C1OC(=CC2=O)C3=CC=CC=C3)O)OC4C(C(C(C(O4)C(=O)O)O)O)O

>  <PUBCHEM_OPENEYE_ISO_SMILES>
COC1=C(C=C(C2=C1OC(=CC2=O)C3=CC=CC=C3)O)O[C@H]4[C@@H]([C@H]([C@@H]([C@H](O4)C(=O)O)O)O)O

>  <PUBCHEM_CACTVS_TPSA>
172

>  <PUBCHEM_MONOISOTOPIC_WEIGHT>
460.100561

>  <PUBCHEM_TOTAL_CHARGE>
0

>  <PUBCHEM_HEAVY_ATOM_COUNT>
33

>  <PUBCHEM_ATOM_DEF_STEREO_COUNT>
5

>  <PUBCHEM_ATOM_UDEF_STEREO_COUNT>
0

>  <PUBCHEM_BOND_DEF_STEREO_COUNT>
0

>  <PUBCHEM_BOND_UDEF_STEREO_COUNT>
0

>  <PUBCHEM_ISOTOPIC_ATOM_COUNT>
0

>  <PUBCHEM_COMPONENT_COUNT>
1

>  <PUBCHEM_CACTVS_TAUTO_COUNT>
-1

>  <PUBCHEM_COORDINATE_TYPE>
1
5
255

>  <PUBCHEM_BONDANNOTATIONS>
16  17  5
18  19  8
18  20  8
19  21  8
15  2  5
20  23  8
21  22  8
22  23  8
22  24  8
24  26  8
25  26  8
27  29  8
27  30  8
29  31  8
12  3  5
30  32  8
31  33  8
32  33  8
13  4  6
14  5  6
8  21  8
8  25  8

>  <LF dG>
-7.886

>  <LF VSscore>
-11.405

>  <LF Rank Score>
-11.544

>  <LF LE>
-0.239

>  <Preferred Pose_cresset>
true

>  <Favorite_cresset>
false

>  <Protein_cresset>
6M2N_Dimer_P

>  <MW_cresset>
459.4

>  <#Atoms_cresset>
33

>  <SlogP_cresset>
1.4

>  <TPSA_cresset>
175

>  <Flexibility_cresset>
7.6

>  <#RB_cresset>
9

>  <Rof5_cresset>
1

>  <Filename_cresset>
Wogonoside.sdf

>  <Confs_cresset>
0

>  <Poses_cresset>
10

>  <_cresset_fieldpoints>
    -5     -46.034439     -17.929771      20.319159    -10.4536
    -5     -45.395157     -12.092206      18.277927     -6.9372
    -5     -46.708656     -15.746091      26.029585    -10.4401
    -5     -47.938309     -16.474651      25.972746     -9.4023
    -5     -50.416061      -8.194557      15.973688    -14.3805
    -5     -45.908882     -13.288082      23.524616    -11.5279
    -5     -50.994217      -4.589630      23.512196     -4.3426
    -5     -55.634903      -8.239668      22.701714     -3.1218
    -6     -48.231670     -15.284222      17.391861     13.4003
    -6     -49.913094     -16.436363      20.714664     10.0618
    -6     -47.111519     -10.612252      16.075804      4.5646
    -6     -50.199627     -14.711308      20.162487     10.0791
    -6     -55.160221      -3.917665      20.174217      2.4514
    -6     -54.732460      -6.020295      27.111046      2.2677
    -6     -52.282570      -9.797726      25.286968      2.5175
    -6     -56.321640      -3.497465      24.259985      2.4115
    -7     -45.243420     -13.322261      23.028877     -2.5336
    -7     -45.052895     -11.238523      19.062763     -2.0554
    -7     -45.416840     -14.575178      17.217064     -1.6941
    -7     -43.999763     -15.635271      19.931248     -1.5854
    -7     -50.987026     -12.562928      19.717205     -2.9254
    -7     -49.737728     -13.303923      18.379143     -2.8408
    -7     -51.001568     -13.676359      20.766064     -2.4537
    -7     -47.665531     -18.262486      19.340458     -1.5591
    -7     -50.315590     -16.486809      20.530661     -1.7475
    -7     -50.403564     -17.026814      22.811029     -1.5573
    -7     -50.731331     -14.482203      23.992798     -1.7450
    -7     -51.552395      -9.713791      16.204266     -1.6406
    -7     -48.895874      -6.765338      16.723099     -1.7261
    -7     -47.630466     -18.331009      23.569080     -1.6513
    -7     -47.318184      -7.243327      20.450644     -1.9128
    -7     -47.114410     -11.796385      23.840580     -2.8338
    -7     -53.094086     -10.257334      21.470013     -2.9192
    -7     -55.633305      -8.600037      22.420406     -1.7898
    -7     -56.436394      -3.240125      24.359814     -0.9675
    -7     -49.394325      -5.996095      21.208513     -2.4850
    -7     -49.355247      -7.819699      23.575087     -2.7094
    -7     -54.580711      -6.004121      27.445395     -0.9673
    -7     -50.863415      -4.324770      23.388523     -1.7932
    -8     -50.967331      -8.166183      19.856865      5.0176
    -8     -47.442719     -14.583939      20.849348      5.1921
    -8     -49.187355      -9.799011      19.780394      6.6168
    -8     -53.401512      -6.338924      23.088490      7.1509
    -8     -50.913269     -11.756332      23.219730      2.5377
    -8     -52.634750      -6.726664      21.016674      5.4235

$$$$
W_Wogonin_D
  xed2sdf_05210316543D
 
 33 35  0  0  0  0  0  0  0  0999 V2000
  -48.7147   -3.8833   15.8088 O   0  0  0  0  0  0  0  0  0  0  0  0
  -46.2707   -2.7293   15.6578 O   0  0  0  0  0  0  0  0  0  0  0  0
  -50.5087   -0.0953   13.3868 O   0  0  0  0  0  0  0  0  0  0  0  0
  -45.9157   -0.3333   14.4048 O   0  0  0  0  0  0  0  0  0  0  0  0
  -52.0147   -2.1973   14.2088 O   0  0  0  0  0  0  0  0  0  0  0  0
  -49.6887   -2.0153   14.6008 C   0  0  0  0  0  0  0  0  0  0  0  0
  -48.6017   -2.6793   15.1818 C   0  0  0  0  0  0  0  0  0  0  0  0
  -49.9597   -4.4453   15.9368 C   0  0  0  0  0  0  0  0  0  0  0  0
  -47.3367   -2.1053   15.1188 C   0  0  0  0  0  0  0  0  0  0  0  0
  -50.9857   -2.6603   14.6988 C   0  0  0  0  0  0  0  0  0  0  0  0
  -49.4837   -0.7803   13.9618 C   0  0  0  0  0  0  0  0  0  0  0  0
  -51.0827   -3.8873   15.4028 C   0  0  0  0  0  0  0  0  0  0  0  0
  -50.0317   -5.7173   16.6998 C   0  0  0  0  0  0  0  0  0  0  0  0
  -47.1527   -0.8953   14.4788 C   0  0  0  0  0  0  0  0  0  0  0  0
  -48.2287   -0.2383   13.9068 C   0  0  0  0  0  0  0  0  0  0  0  0
  -48.8557   -6.2653   17.1908 C   0  0  0  0  0  0  0  0  0  0  0  0
  -51.2227   -6.3853   16.9518 C   0  0  0  0  0  0  0  0  0  0  0  0
  -48.8657   -7.4363   17.9088 C   0  0  0  0  0  0  0  0  0  0  0  0
  -51.2317   -7.5573   17.6698 C   0  0  0  0  0  0  0  0  0  0  0  0
  -50.0557   -8.0853   18.1498 C   0  0  0  0  0  0  0  0  0  0  0  0
  -45.7757   -2.2363   16.9188 C   0  0  0  0  0  0  0  0  0  0  0  0
  -50.8277   -0.5293   12.5418 H   0  0  0  0  0  0  0  0  0  0  0  0
  -45.4527   -0.5593   13.5408 H   0  0  0  0  0  0  0  0  0  0  0  0
  -51.9677   -4.3393   15.5058 H   0  0  0  0  0  0  0  0  0  0  0  0
  -48.0867    0.6397   13.4498 H   0  0  0  0  0  0  0  0  0  0  0  0
  -47.9867   -5.8003   17.0188 H   0  0  0  0  0  0  0  0  0  0  0  0
  -52.0827   -6.0093   16.6068 H   0  0  0  0  0  0  0  0  0  0  0  0
  -48.0097   -7.8173   18.2558 H   0  0  0  0  0  0  0  0  0  0  0  0
  -52.0967   -8.0273   17.8438 H   0  0  0  0  0  0  0  0  0  0  0  0
  -50.0647   -8.9373   18.6728 H   0  0  0  0  0  0  0  0  0  0  0  0
  -46.3387   -1.4623   17.2098 H   0  0  0  0  0  0  0  0  0  0  0  0
  -45.8197   -2.9613   17.6058 H   0  0  0  0  0  0  0  0  0  0  0  0
  -44.8247   -1.9423   16.8168 H   0  0  0  0  0  0  0  0  0  0  0  0
  1  7  1  0
  1  8  1  0
  2  9  1  0
  2 21  1  0
  3 11  1  0
  4 14  1  0
  5 10  2  0
  6  7  2  0
  6 10  1  0
  6 11  1  0
  7  9  1  0
  8 12  2  0
  8 13  1  0
  9 14  2  0
 10 12  1  0
 11 15  2  0
 13 16  2  0
 13 17  1  0
 14 15  1  0
 16 18  1  0
 17 19  2  0
 18 20  2  0
 19 20  1  0
  3 22  1  0
  4 23  1  0
 12 24  1  0
 15 25  1  0
 16 26  1  0
 17 27  1  0
 18 28  1  0
 19 29  1  0
 20 30  1  0
 21 31  1  0
 21 32  1  0
 21 33  1  0
M  END
>  <BioMolTech Lead Finder dG>
-6.611

>  <BioMolTech Lead Finder VSscore>
-8.113

>  <BioMolTech Lead Finder Rank score>
-10.519

>  <BioMolTech Lead Finder LE>
-0.315

>  <BioMolTech Lead Finder Structure Name>
/var/folders/xd/y7jw_xv579q2qqq7kks92xd80000gn/T/LeadFinder_50698_1/Ligand_1.sdf

>  <BioMolTech Lead Finder SDF id>
0

>  <BioMolTech Lead Finder Pose rank>
0

>  <BioMolTech Lead Finder version>
2001 1, 19 January 2019

>  <PUBCHEM_COMPOUND_CID>
5281703

>  <PUBCHEM_COMPOUND_CANONICALIZED>
1

>  <PUBCHEM_CACTVS_COMPLEXITY>
426

>  <PUBCHEM_CACTVS_HBOND_ACCEPTOR>
5

>  <PUBCHEM_CACTVS_HBOND_DONOR>
2

>  <PUBCHEM_CACTVS_ROTATABLE_BOND>
2

>  <PUBCHEM_CACTVS_SUBSKEYS>
AAADccB4OAAAAAAAAAAAAAAAAAAAAAAAAAAwYIAAAAAAAACBQAAAGgAACAAADASAmAIyBoAABgCIAqBSAAACCAAkIAAIiAEGiMgNJzaGNRqCeWOl4BULuQfK7LzOIQABCAAIQABCAAIQABCAAAAAAAAAAA==

>  <PUBCHEM_IUPAC_OPENEYE_NAME>
5,7-dihydroxy-8-methoxy-2-phenyl-chromen-4-one

>  <PUBCHEM_IUPAC_CAS_NAME>
5,7-dihydroxy-8-methoxy-2-phenyl-1-benzopyran-4-one

>  <PUBCHEM_IUPAC_NAME_MARKUP>
5,7-dihydroxy-8-methoxy-2-phenylchromen-4-one

>  <PUBCHEM_IUPAC_NAME>
5,7-dihydroxy-8-methoxy-2-phenylchromen-4-one

>  <PUBCHEM_IUPAC_SYSTEMATIC_NAME>
8-methoxy-5,7-bis(oxidanyl)-2-phenyl-chromen-4-one

>  <PUBCHEM_IUPAC_TRADITIONAL_NAME>
5,7-dihydroxy-8-methoxy-2-phenyl-chromone

>  <PUBCHEM_IUPAC_INCHI>
InChI=1S/C16H12O5/c1-20-15-12(19)7-10(17)14-11(18)8-13(21-16(14)15)9-5-3-2-4-6-9/h2-8,17,19H,1H3

>  <PUBCHEM_IUPAC_INCHIKEY>
XLTFNNCXVBYBSX-UHFFFAOYSA-N

>  <PUBCHEM_XLOGP3_AA>
3

>  <PUBCHEM_EXACT_MASS>
284.068473

>  <PUBCHEM_MOLECULAR_FORMULA>
C16H12O5

>  <PUBCHEM_MOLECULAR_WEIGHT>
284.26

>  <PUBCHEM_OPENEYE_CAN_SMILES>
COC1=C(C=C(C2=C1OC(=CC2=O)C3=CC=CC=C3)O)O

>  <PUBCHEM_OPENEYE_ISO_SMILES>
COC1=C(C=C(C2=C1OC(=CC2=O)C3=CC=CC=C3)O)O

>  <PUBCHEM_CACTVS_TPSA>
76

>  <PUBCHEM_MONOISOTOPIC_WEIGHT>
284.068473

>  <PUBCHEM_TOTAL_CHARGE>
0

>  <PUBCHEM_HEAVY_ATOM_COUNT>
21

>  <PUBCHEM_ATOM_DEF_STEREO_COUNT>
0

>  <PUBCHEM_ATOM_UDEF_STEREO_COUNT>
0

>  <PUBCHEM_BOND_DEF_STEREO_COUNT>
0

>  <PUBCHEM_BOND_UDEF_STEREO_COUNT>
0

>  <PUBCHEM_ISOTOPIC_ATOM_COUNT>
0

>  <PUBCHEM_COMPONENT_COUNT>
1

>  <PUBCHEM_CACTVS_TAUTO_COUNT>
-1

>  <PUBCHEM_COORDINATE_TYPE>
1
5
255

>  <PUBCHEM_BONDANNOTATIONS>
1  7  8
1  8  8
10  12  8
11  15  8
13  16  8
13  17  8
14  15  8
16  18  8
17  19  8
18  20  8
19  20  8
6  10  8
6  11  8
6  7  8
7  9  8
8  12  8
9  14  8

>  <LF dG>
-6.611

>  <LF VSscore>
-8.113

>  <LF Rank Score>
-10.519

>  <LF LE>
-0.315

>  <Preferred Pose_cresset>
true

>  <Favorite_cresset>
false

>  <Protein_cresset>
6M2N_Dimer_P

>  <MW_cresset>
284.3

>  <#Atoms_cresset>
21

>  <SlogP_cresset>
2.6

>  <TPSA_cresset>
76

>  <Flexibility_cresset>
1.7

>  <#RB_cresset>
4

>  <Rof5_cresset>
0

>  <Filename_cresset>
Wogonin.sdf

>  <Confs_cresset>
0

>  <Poses_cresset>
10

>  <_cresset_fieldpoints>
    -5     -52.202957      -0.292444      14.256059    -18.8458
    -5     -45.737572      -4.654724      14.948221     -5.2922
    -5     -45.426910       0.991349      15.697269     -7.0513
    -5     -53.909920      -2.319985      14.203327    -15.0807
    -5     -53.577415      -1.116925      14.445665    -15.1024
    -5     -49.625931      -8.511774      15.016302     -2.6038
    -5     -50.332756      -5.481759      19.966660     -2.5544
    -6     -49.389809      -4.960805      13.127047      1.5166
    -6     -45.121208      -0.784950      11.754822      8.7610
    -6     -50.299191      -1.013137      10.766290      6.7187
    -6     -48.057785      -3.027062      18.684090      2.0243
    -6     -48.046944      -9.895514      19.533188      2.7376
    -6     -45.963341      -6.640222      18.178623      2.7110
    -6     -53.858528      -5.559057      15.904554      3.7796
    -6     -52.247658     -10.042176      19.056244      2.7833
    -6     -46.145576      -5.384597      18.242565      2.7795
    -6     -46.211838      -2.035954      19.814220      1.9517
    -7     -43.944805      -2.124756      14.172806     -1.8360
    -7     -52.483269       0.177543      14.911082     -1.6672
    -7     -48.010052      -3.191168      11.844551     -1.8534
    -7     -50.022285       1.494615      11.545864     -1.2633
    -7     -48.791580      -0.294575      17.563950     -2.2320
    -7     -45.571732       1.794125      13.189078     -1.2850
    -7     -45.160637       0.932677      16.349941     -1.6438
    -7     -48.595901      -3.108475      18.379322     -2.9544
    -7     -46.835373      -5.411618      14.779076     -2.5583
    -7     -51.257305      -2.699914      11.704340     -1.7634
    -7     -49.166904      -5.336411      13.292890     -2.4071
    -7     -50.385937      -4.985155      20.028915     -1.7954
    -7     -52.327496     -10.364556      19.241390     -0.9675
    -7     -47.822281     -10.150642      19.667141     -0.9672
    -7     -49.688293      -8.383217      14.556414     -1.7828
    -8     -50.046196      -6.906712      17.427464      7.1503
    -8     -48.443771      -1.443568      14.531830      6.6061
    -8     -45.512825      -1.914726      17.689283      2.5205
    -8     -50.878773      -5.193216      16.249191      5.4354
    -8     -50.102776      -3.085913      15.145948      4.9941

$$$$
Untitled
  xed2sdf_05210316543D
 
 33 35  0  0  0  0  0  0  0  0999 V2000
  -48.6404   -4.0871   15.9112 O   0  0  0  0  0  0  0  0  0  0  0  0
  -46.2624   -2.8081   15.7192 O   0  0  0  0  0  0  0  0  0  0  0  0
  -50.6574   -0.4231   13.4732 O   0  0  0  0  0  0  0  0  0  0  0  0
  -46.0484   -0.4101   14.4392 O   0  0  0  0  0  0  0  0  0  0  0  0
  -52.0424   -2.5921   14.3332 O   0  0  0  0  0  0  0  0  0  0  0  0
  -49.7244   -2.2851   14.6952 C   0  0  0  0  0  0  0  0  0  0  0  0
  -48.5974   -2.8851   15.2702 C   0  0  0  0  0  0  0  0  0  0  0  0
  -49.8524   -4.7121   16.0582 C   0  0  0  0  0  0  0  0  0  0  0  0
  -47.3664   -2.2461   15.1872 C   0  0  0  0  0  0  0  0  0  0  0  0
  -50.9854   -2.9961   14.8162 C   0  0  0  0  0  0  0  0  0  0  0  0
  -49.5924   -1.0481   14.0422 C   0  0  0  0  0  0  0  0  0  0  0  0
  -51.0094   -4.2191   15.5322 C   0  0  0  0  0  0  0  0  0  0  0  0
  -49.8494   -5.9781   16.8352 C   0  0  0  0  0  0  0  0  0  0  0  0
  -47.2524   -1.0351   14.5332 C   0  0  0  0  0  0  0  0  0  0  0  0
  -48.3674   -0.4411   13.9672 C   0  0  0  0  0  0  0  0  0  0  0  0
  -48.6404   -6.4601   17.3132 C   0  0  0  0  0  0  0  0  0  0  0  0
  -51.0014   -6.7031   17.1112 C   0  0  0  0  0  0  0  0  0  0  0  0
  -48.5814   -7.6231   18.0422 C   0  0  0  0  0  0  0  0  0  0  0  0
  -50.9414   -7.8661   17.8402 C   0  0  0  0  0  0  0  0  0  0  0  0
  -49.7324   -8.3291   18.3082 C   0  0  0  0  0  0  0  0  0  0  0  0
  -45.7794   -2.2761   16.9702 C   0  0  0  0  0  0  0  0  0  0  0  0
  -50.6914   -0.5601   12.4812 H   0  0  0  0  0  0  0  0  0  0  0  0
  -45.6134   -0.5661   13.5452 H   0  0  0  0  0  0  0  0  0  0  0  0
  -51.8694   -4.7161   15.6502 H   0  0  0  0  0  0  0  0  0  0  0  0
  -48.2774    0.4379   13.5002 H   0  0  0  0  0  0  0  0  0  0  0  0
  -47.7984   -5.9541   17.1252 H   0  0  0  0  0  0  0  0  0  0  0  0
  -51.8844   -6.3741   16.7752 H   0  0  0  0  0  0  0  0  0  0  0  0
  -47.7014   -7.9571   18.3802 H   0  0  0  0  0  0  0  0  0  0  0  0
  -51.7784   -8.3771   18.0322 H   0  0  0  0  0  0  0  0  0  0  0  0
  -49.6904   -9.1751   18.8392 H   0  0  0  0  0  0  0  0  0  0  0  0
  -46.3794   -1.5301   17.2592 H   0  0  0  0  0  0  0  0  0  0  0  0
  -45.7774   -2.9961   17.6642 H   0  0  0  0  0  0  0  0  0  0  0  0
  -44.8474   -1.9341   16.8532 H   0  0  0  0  0  0  0  0  0  0  0  0
  1  7  1  0
  1  8  1  0
  2  9  1  0
  2 21  1  0
  3 11  1  0
  4 14  1  0
  5 10  2  0
  6  7  2  0
  6 10  1  0
  6 11  1  0
  7  9  1  0
  8 12  2  0
  8 13  1  0
  9 14  2  0
 10 12  1  0
 11 15  2  0
 13 16  2  0
 13 17  1  0
 14 15  1  0
 16 18  1  0
 17 19  2  0
 18 20  2  0
 19 20  1  0
  3 22  1  0
  4 23  1  0
 12 24  1  0
 15 25  1  0
 16 26  1  0
 17 27  1  0
 18 28  1  0
 19 29  1  0
 20 30  1  0
 21 31  1  0
 21 32  1  0
 21 33  1  0
M  END
>  <BioMolTech Lead Finder dG>
-6.547

>  <BioMolTech Lead Finder VSscore>
-7.958

>  <BioMolTech Lead Finder Rank score>
-10.173

>  <BioMolTech Lead Finder LE>
-0.312

>  <BioMolTech Lead Finder Structure Name>
/var/folders/xd/y7jw_xv579q2qqq7kks92xd80000gn/T/LeadFinder_48575_1/Ligand_1.sdf

>  <BioMolTech Lead Finder SDF id>
0

>  <BioMolTech Lead Finder Pose rank>
0

>  <BioMolTech Lead Finder version>
2001 1, 19 January 2019

>  <PUBCHEM_COMPOUND_CID>
5281703

>  <PUBCHEM_COMPOUND_CANONICALIZED>
1

>  <PUBCHEM_CACTVS_COMPLEXITY>
426

>  <PUBCHEM_CACTVS_HBOND_ACCEPTOR>
5

>  <PUBCHEM_CACTVS_HBOND_DONOR>
2

>  <PUBCHEM_CACTVS_ROTATABLE_BOND>
2

>  <PUBCHEM_CACTVS_SUBSKEYS>
AAADccB4OAAAAAAAAAAAAAAAAAAAAAAAAAAwYIAAAAAAAACBQAAAGgAACAAADASAmAIyBoAABgCIAqBSAAACCAAkIAAIiAEGiMgNJzaGNRqCeWOl4BULuQfK7LzOIQABCAAIQABCAAIQABCAAAAAAAAAAA==

>  <PUBCHEM_IUPAC_OPENEYE_NAME>
5,7-dihydroxy-8-methoxy-2-phenyl-chromen-4-one

>  <PUBCHEM_IUPAC_CAS_NAME>
5,7-dihydroxy-8-methoxy-2-phenyl-1-benzopyran-4-one

>  <PUBCHEM_IUPAC_NAME_MARKUP>
5,7-dihydroxy-8-methoxy-2-phenylchromen-4-one

>  <PUBCHEM_IUPAC_NAME>
5,7-dihydroxy-8-methoxy-2-phenylchromen-4-one

>  <PUBCHEM_IUPAC_SYSTEMATIC_NAME>
8-methoxy-5,7-bis(oxidanyl)-2-phenyl-chromen-4-one

>  <PUBCHEM_IUPAC_TRADITIONAL_NAME>
5,7-dihydroxy-8-methoxy-2-phenyl-chromone

>  <PUBCHEM_IUPAC_INCHI>
InChI=1S/C16H12O5/c1-20-15-12(19)7-10(17)14-11(18)8-13(21-16(14)15)9-5-3-2-4-6-9/h2-8,17,19H,1H3

>  <PUBCHEM_IUPAC_INCHIKEY>
XLTFNNCXVBYBSX-UHFFFAOYSA-N

>  <PUBCHEM_XLOGP3_AA>
3

>  <PUBCHEM_EXACT_MASS>
284.068473

>  <PUBCHEM_MOLECULAR_FORMULA>
C16H12O5

>  <PUBCHEM_MOLECULAR_WEIGHT>
284.26

>  <PUBCHEM_OPENEYE_CAN_SMILES>
COC1=C(C=C(C2=C1OC(=CC2=O)C3=CC=CC=C3)O)O

>  <PUBCHEM_OPENEYE_ISO_SMILES>
COC1=C(C=C(C2=C1OC(=CC2=O)C3=CC=CC=C3)O)O

>  <PUBCHEM_CACTVS_TPSA>
76

>  <PUBCHEM_MONOISOTOPIC_WEIGHT>
284.068473

>  <PUBCHEM_TOTAL_CHARGE>
0

>  <PUBCHEM_HEAVY_ATOM_COUNT>
21

>  <PUBCHEM_ATOM_DEF_STEREO_COUNT>
0

>  <PUBCHEM_ATOM_UDEF_STEREO_COUNT>
0

>  <PUBCHEM_BOND_DEF_STEREO_COUNT>
0

>  <PUBCHEM_BOND_UDEF_STEREO_COUNT>
0

>  <PUBCHEM_ISOTOPIC_ATOM_COUNT>
0

>  <PUBCHEM_COMPONENT_COUNT>
1

>  <PUBCHEM_CACTVS_TAUTO_COUNT>
-1

>  <PUBCHEM_COORDINATE_TYPE>
1
5
255

>  <PUBCHEM_BONDANNOTATIONS>
1  7  8
1  8  8
10  12  8
11  15  8
13  16  8
13  17  8
14  15  8
16  18  8
17  19  8
18  20  8
19  20  8
6  10  8
6  11  8
6  7  8
7  9  8
8  12  8
9  14  8

>  <LF dG>
-6.547

>  <LF VSscore>
-7.958

>  <LF Rank Score>
-10.173

>  <LF LE>
-0.312

>  <Preferred Pose_cresset>
true

>  <Favorite_cresset>
false

>  <Protein_cresset>
6M2N_Dimer_P

>  <MW_cresset>
284.3

>  <#Atoms_cresset>
21

>  <SlogP_cresset>
2.6

>  <TPSA_cresset>
76

>  <Flexibility_cresset>
1.7

>  <#RB_cresset>
4

>  <Rof5_cresset>
0

>  <Filename_cresset>
Wogonin.sdf

>  <Confs_cresset>
0

>  <Poses_cresset>
10

>  <_cresset_fieldpoints>
    -5     -45.602188      -4.685465      14.995356     -5.3860
    -5     -45.590004       0.904617      15.752899     -6.9285
    -5     -49.332870      -8.756165      15.167080     -2.6496
    -5     -52.424736      -0.726010      14.145279    -21.3294
    -5     -50.113495      -5.717063      20.096592     -2.5905
    -6     -46.099541      -2.030331      19.877304      1.9333
    -6     -45.534088      -0.597633      11.706560      9.0540
    -6     -45.707375      -6.766539      18.285528      2.6828
    -6     -45.959644      -5.444578      18.317589      2.7375
    -6     -49.703720      -0.367667      10.852842      8.1119
    -6     -48.055161      -3.034880      18.748430      1.9710
    -6     -53.700752      -6.023383      16.123352      3.6545
    -6     -45.865273      -8.523763      19.096615      2.6132
    -6     -47.620934     -10.022223      19.683928      2.7240
    -6     -51.782467     -10.393446      19.278175      2.7651
    -7     -48.011738      -3.387620      11.924728     -1.8533
    -7     -50.391510       1.789473      12.366975     -1.2710
    -7     -51.496071      -2.674531      11.799919     -1.7673
    -7     -45.334412       0.911537      16.357716     -1.6437
    -7     -43.992828      -2.020123      14.202330     -1.8538
    -7     -45.854813       1.793014      13.334475     -1.2866
    -7     -48.885361      -0.489541      17.629318     -2.2320
    -7     -52.574005      -0.265819      15.190260     -1.6428
    -7     -49.395035      -8.643823      14.713152     -1.7829
    -7     -49.037453      -5.590067      13.420271     -2.4073
    -7     -48.528503      -3.285702      18.473663     -2.9546
    -7     -50.196106      -5.227999      20.156948     -1.7955
    -7     -47.376091     -10.260443      19.812511     -0.9672
    -7     -51.877983     -10.703028      19.455292     -0.9674
    -7     -46.700851      -5.526661      14.869129     -2.5568
    -8     -49.791988      -7.158438      17.573212      7.1501
    -8     -48.512238      -1.648561      14.609946      6.6062
    -8     -50.076908      -3.372321      15.254738      4.9927
    -8     -50.729511      -5.500626      16.388775      5.4352
    -8     -45.526901      -1.932775      17.735735      2.5204

$$$$
W_VTRRT_D
  xed2sdf_05210316543D
 
 92 97  0  0  1  0  0  0  0  0999 V2000
  -49.7620   -3.3311   13.9198 C   0  0  0  0  0  0  0  0  0  0  0  0
  -50.0630   -4.4641   14.6418 C   0  0  0  0  0  0  0  0  0  0  0  0
  -50.7740   -4.3691   15.8178 C   0  0  0  0  0  0  0  0  0  0  0  0
  -51.1840   -3.1321   16.2658 C   0  0  0  0  0  0  0  0  0  0  0  0
  -50.8840   -1.9991   15.5448 C   0  0  0  0  0  0  0  0  0  0  0  0
  -50.1730   -2.0981   14.3718 C   0  0  0  0  0  0  0  0  0  0  0  0
  -51.1070   -5.6211   16.6148 C   0  0  0  0  0  0  0  0  0  0  0  0
  -49.8840   -6.4111   17.1308 C   0  0  0  0  0  0  0  0  0  0  0  0
  -50.1400   -7.8841   16.9668 N   0  3  0  0  0  0  0  0  0  0  0  0
  -49.6210   -6.0421   18.6078 C   0  0  0  0  0  0  0  0  0  0  0  0
  -48.2150   -6.1481   18.8898 O   0  0  0  0  0  0  0  0  0  0  0  0
  -50.4180   -6.9511   19.5668 C   0  0  0  0  0  0  0  0  0  0  0  0
  -49.4840   -7.8111   20.4448 C   0  0  0  0  0  0  0  0  0  0  0  0
  -49.7730   -7.5741   21.9418 C   0  0  0  0  0  0  0  0  0  0  0  0
  -51.2390   -7.3691   22.2988 C   0  0  0  0  0  0  0  0  0  0  0  0
  -52.1230   -8.4231   22.2228 C   0  0  0  0  0  0  0  0  0  0  0  0
  -53.4480   -8.2421   22.5458 C   0  0  0  0  0  0  0  0  0  0  0  0
  -53.8960   -7.0041   22.9478 C   0  0  0  0  0  0  0  0  0  0  0  0
  -53.0170   -5.9491   23.0258 C   0  0  0  0  0  0  0  0  0  0  0  0
  -51.6920   -6.1321   22.7028 C   0  0  0  0  0  0  0  0  0  0  0  0
  -49.6970   -9.2171   20.0688 N   0  0  0  0  0  0  0  0  0  0  0  0
  -48.4600  -10.0791   20.0718 P   0  0  0  0  0  0  0  0  0  0  0  0
  -47.3800   -9.4471   19.0638 O   0  0  0  0  0  0  0  0  0  0  0  0
  -48.7130  -11.5521   19.4598 O   0  0  0  0  0  0  0  0  0  0  0  0
  -47.8740  -10.1701   21.4578 O   0  0  0  0  0  0  0  0  0  0  0  0
  -46.0440   -9.2231   19.5388 C   0  0  0  0  0  0  0  0  0  0  0  0
  -47.9080  -12.6191   19.7548 C   0  0  0  0  0  0  0  0  0  0  0  0
  -48.0120  -13.2111   20.9998 C   0  0  0  0  0  0  0  0  0  0  0  0
  -47.2220  -14.2881   21.3268 C   0  0  0  0  0  0  0  0  0  0  0  0
  -46.3170  -14.7811   20.4138 C   0  0  0  0  0  0  0  0  0  0  0  0
  -46.2040  -14.1951   19.1738 C   0  0  0  0  0  0  0  0  0  0  0  0
  -46.9960  -13.1201   18.8448 C   0  0  0  0  0  0  0  0  0  0  0  0
  -45.1430  -10.4151   19.1758 C   0  0  0  0  0  0  0  0  0  0  0  0
  -44.2810  -10.7951   20.2618 O   0  0  0  0  0  0  0  0  0  0  0  0
  -43.0490  -11.3451   19.7488 C   0  0  0  0  0  0  0  0  0  0  0  0
  -43.1300  -11.1931   18.2098 C   0  0  0  0  0  0  0  0  0  0  0  0
  -44.2040  -10.1221   17.9968 C   0  0  0  0  0  0  0  0  0  0  0  0
  -43.6150   -8.8151   18.0948 O   0  0  0  0  0  0  0  0  0  0  0  0
  -41.8860  -10.8221   17.5938 O   0  0  0  0  0  0  0  0  0  0  0  0
  -41.8700  -10.6411   20.4178 C   0  0  0  0  0  0  0  0  0  0  0  0
  -43.0020  -12.7711   20.0948 C   0  0  0  0  0  0  0  0  0  0  0  0
  -42.9650  -13.8751   20.3618 N   0  0  0  0  0  0  0  0  0  0  0  0
  -40.6000  -11.1131   20.3418 N   0  0  0  0  0  0  0  0  0  0  0  0
  -39.8490  -10.2331   21.0518 C   0  0  0  0  0  0  0  0  0  0  0  0
  -40.6130   -9.2331   21.5638 C   0  0  0  0  0  0  0  0  0  0  0  0
  -41.9190   -9.5081   21.1488 C   0  0  0  0  0  0  0  0  0  0  0  0
  -40.0320  -12.1991   19.7398 N   0  0  0  0  0  0  0  0  0  0  0  0
  -38.7360  -12.3601   19.8688 C   0  0  0  0  0  0  0  0  0  0  0  0
  -37.8800  -11.5391   20.5578 N   0  0  0  0  0  0  0  0  0  0  0  0
  -38.4540  -10.4791   21.1448 C   0  0  0  0  0  0  0  0  0  0  0  0
  -37.6340   -9.6301   21.8498 N   0  0  0  0  0  0  0  0  0  0  0  0
  -49.0690   -6.1741   16.6028 H   0  0  0  0  0  0  0  0  0  0  0  0
  -49.9250   -5.1001   18.7518 H   0  0  0  0  0  0  0  0  0  0  0  0
  -48.5270   -7.5611   20.2948 H   0  0  0  0  0  0  0  0  0  0  0  0
  -45.7890  -11.1421   18.9448 H   0  0  0  0  0  0  0  0  0  0  0  0
  -43.3490  -12.0671   17.7758 H   0  0  0  0  0  0  0  0  0  0  0  0
  -44.6610  -10.1391   17.1078 H   0  0  0  0  0  0  0  0  0  0  0  0
  -49.2450   -3.4051   13.0668 H   0  0  0  0  0  0  0  0  0  0  0  0
  -49.7640   -5.3591   14.3108 H   0  0  0  0  0  0  0  0  0  0  0  0
  -51.7010   -3.0581   17.1188 H   0  0  0  0  0  0  0  0  0  0  0  0
  -51.1840   -1.1031   15.8738 H   0  0  0  0  0  0  0  0  0  0  0  0
  -49.9540   -1.2751   13.8478 H   0  0  0  0  0  0  0  0  0  0  0  0
  -51.6480   -6.2281   16.0318 H   0  0  0  0  0  0  0  0  0  0  0  0
  -51.6020   -5.3121   17.4268 H   0  0  0  0  0  0  0  0  0  0  0  0
  -50.6890   -8.2091   17.6158 H   0  0  0  0  0  0  0  0  0  0  0  0
  -50.5350   -8.0701   16.1678 H   0  0  0  0  0  0  0  0  0  0  0  0
  -49.3730   -8.3721   16.9938 H   0  0  0  0  0  0  0  0  0  0  0  0
  -47.7940   -6.9001   18.3718 H   0  0  0  0  0  0  0  0  0  0  0  0
  -51.0080   -7.5541   19.0298 H   0  0  0  0  0  0  0  0  0  0  0  0
  -50.9620   -6.3681   20.1708 H   0  0  0  0  0  0  0  0  0  0  0  0
  -49.2670   -6.7611   22.2308 H   0  0  0  0  0  0  0  0  0  0  0  0
  -49.4900   -8.4091   22.4128 H   0  0  0  0  0  0  0  0  0  0  0  0
  -51.8000   -9.3231   21.9318 H   0  0  0  0  0  0  0  0  0  0  0  0
  -54.0860   -9.0101   22.4888 H   0  0  0  0  0  0  0  0  0  0  0  0
  -54.8590   -6.8721   23.1818 H   0  0  0  0  0  0  0  0  0  0  0  0
  -53.3400   -5.0491   23.3178 H   0  0  0  0  0  0  0  0  0  0  0  0
  -51.0540   -5.3641   22.7608 H   0  0  0  0  0  0  0  0  0  0  0  0
  -50.4270   -9.6411   20.6538 H   0  0  0  0  0  0  0  0  0  0  0  0
  -46.0600   -9.1071   20.5318 H   0  0  0  0  0  0  0  0  0  0  0  0
  -45.6800   -8.3971   19.1068 H   0  0  0  0  0  0  0  0  0  0  0  0
  -48.6650  -12.8541   21.6668 H   0  0  0  0  0  0  0  0  0  0  0  0
  -47.3050  -14.7131   22.2278 H   0  0  0  0  0  0  0  0  0  0  0  0
  -45.7420  -15.5641   20.6528 H   0  0  0  0  0  0  0  0  0  0  0  0
  -45.5460  -14.5521   18.5108 H   0  0  0  0  0  0  0  0  0  0  0  0
  -46.9110  -12.6991   17.9418 H   0  0  0  0  0  0  0  0  0  0  0  0
  -42.7010   -8.7931   17.6728 H   0  0  0  0  0  0  0  0  0  0  0  0
  -41.6120   -9.8901   17.8558 H   0  0  0  0  0  0  0  0  0  0  0  0
  -40.3050   -8.4631   22.1208 H   0  0  0  0  0  0  0  0  0  0  0  0
  -42.7340   -8.9671   21.3538 H   0  0  0  0  0  0  0  0  0  0  0  0
  -38.3330  -13.1581   19.4208 H   0  0  0  0  0  0  0  0  0  0  0  0
  -36.7710   -9.7961   21.8988 H   0  0  0  0  0  0  0  0  0  0  0  0
  -37.9670   -8.9211   22.2528 H   0  0  0  0  0  0  0  0  0  0  0  0
  1  2  2  0
  2  3  1  0
  3  4  2  0
  3  7  1  0
  4  5  1  0
  5  6  2  0
  6  1  1  0
  7  8  1  0
  8  9  1  0
  8 10  1  0
 10 11  1  0
 10 12  1  0
 12 13  1  0
 13 14  1  0
 13 21  1  0
 14 15  1  0
 15 16  2  0
 16 17  1  0
 17 18  2  0
 18 19  1  0
 19 20  2  0
 20 15  1  0
 21 22  1  0
 22 23  1  0
 22 24  1  0
 22 25  2  0
 23 26  1  0
 24 27  1  0
 27 28  2  0
 28 29  1  0
 29 30  2  0
 30 31  1  0
 31 32  2  0
 32 27  1  0
 33 26  1  0
 33 34  1  0
 34 35  1  0
 35 36  1  0
 35 40  1  0
 35 41  1  0
 36 37  1  0
 36 39  1  0
 37 33  1  0
 37 38  1  0
 40 43  1  0
 41 42  3  0
 43 44  1  0
 43 47  1  0
 44 45  2  0
 45 46  1  0
 46 40  2  0
 47 48  2  0
 48 49  1  0
 49 50  2  0
 50 44  1  0
 50 51  1  0
  1 58  1  0
  2 59  1  0
  4 60  1  0
  5 61  1  0
  6 62  1  0
  7 63  1  0
  7 64  1  0
  8 52  1  0
  9 65  1  0
  9 66  1  0
  9 67  1  0
 10 53  1  0
 11 68  1  0
 12 69  1  0
 12 70  1  0
 13 54  1  0
 14 71  1  0
 14 72  1  0
 16 73  1  0
 17 74  1  0
 18 75  1  0
 19 76  1  0
 20 77  1  0
 21 78  1  0
 26 79  1  0
 26 80  1  0
 28 81  1  0
 29 82  1  0
 30 83  1  0
 31 84  1  0
 32 85  1  0
 33 55  1  0
 36 56  1  0
 37 57  1  0
 38 86  1  0
 39 87  1  0
 45 88  1  0
 46 89  1  0
 48 90  1  0
 51 91  1  0
 51 92  1  0
M  CHG  1   9   1
M  END
>  <BioMolTech Lead Finder dG>
-5.892

>  <BioMolTech Lead Finder VSscore>
-12.128

>  <BioMolTech Lead Finder Rank score>
-12.729

>  <BioMolTech Lead Finder LE>
-0.116

>  <BioMolTech Lead Finder Structure Name>
/var/folders/xd/y7jw_xv579q2qqq7kks92xd80000gn/T/LeadFinder_50698_1/Ligand_1.sdf

>  <BioMolTech Lead Finder SDF id>
0

>  <BioMolTech Lead Finder Pose rank>
0

>  <BioMolTech Lead Finder version>
2001 1, 19 January 2019

>  <LF dG>
-5.892

>  <LF VSscore>
-12.128

>  <LF Rank Score>
-12.729

>  <LF LE>
-0.116

>  <Preferred Pose_cresset>
true

>  <Favorite_cresset>
false

>  <Protein_cresset>
6M2N_Dimer_P

>  <MW_cresset>
714.7

>  <#Atoms_cresset>
51

>  <SlogP_cresset>
4

>  <TPSA_cresset>
225.1

>  <Flexibility_cresset>
17.1

>  <#RB_cresset>
18

>  <Rof5_cresset>
3

>  <Filename_cresset>
VTRRT-13V2.1.sdf

>  <Confs_cresset>
0

>  <Poses_cresset>
10

>  <_cresset_fieldpoints>
    -5     -52.898952      -3.469832      13.659345     -3.7175
    -5     -47.367279      -4.682631      19.738228    -12.2265
    -5     -53.689827      -6.420349      20.046436     -2.1307
    -5     -45.293915     -11.400316      21.774565     -8.7909
    -5     -51.992790      -7.821321      25.332417     -3.5761
    -5     -50.173615     -12.069668      18.335768     -7.9925
    -5     -47.527023     -10.042814      17.250355     -3.5767
    -5     -49.157661     -15.393372      19.041891     -4.1001
    -5     -43.898567      -7.071055      18.830158     -7.3305
    -5     -40.561630     -12.171133      17.896954    -14.9852
    -5     -36.094276     -12.220013      20.670094     -8.8079
    -5     -41.690983     -15.195744      20.908754    -14.0466
    -6     -45.353512     -12.335724      16.546600      6.8672
    -6     -47.362305      -7.776202      16.725368      9.5890
    -6     -52.768074      -8.036253      17.613884      5.4571
    -6     -52.038742      -3.955047      19.202038      4.4780
    -6     -50.781860       0.949306      14.789425      2.3059
    -6     -50.851593     -11.067032      21.690584      9.9459
    -6     -44.410496      -7.658165      21.744633      2.6009
    -6     -40.951256      -8.199302      17.623587     15.6529
    -6     -55.508434      -4.440431      23.840870      2.5062
    -6     -49.210060      -4.431420      22.878399      3.0250
    -6     -46.738487      -7.378427      21.943821      2.8318
    -6     -36.549141      -7.963809      23.111855     10.0434
    -6     -50.372765      -7.594474      14.237982      6.6414
    -6     -38.717361      -7.363628      23.074625     11.3871
    -7     -48.545704      -1.274399      11.502932     -0.9687
    -7     -53.299034      -3.814105      13.598597     -1.8358
    -7     -43.444485      -7.111307      19.631775     -2.4914
    -7     -46.560112      -6.158233      20.591393     -2.5826
    -7     -47.566338     -10.372219      16.848732     -3.4869
    -7     -50.964821      -7.509177      13.760651     -1.9054
    -7     -48.737846      -7.605017      14.375471     -2.1091
    -7     -53.413063      -6.106660      19.473074     -3.1682
    -7     -49.253380      -4.302937      21.278816     -2.6616
    -7     -52.356689      -4.295574      19.674915     -3.1391
    -7     -50.693237       1.253308      14.585497     -0.9684
    -7     -47.845123      -3.696971      17.199146     -2.7535
    -7     -52.000313      -9.906425      19.213470     -3.2062
    -7     -50.041031     -10.970768      22.746876     -3.1763
    -7     -56.767197      -8.824657      22.993412     -0.9696
    -7     -55.749729      -9.090565      24.857418     -0.9574
    -7     -55.157143      -5.245193      25.546062     -0.9572
    -7     -55.952774      -4.460176      23.866383     -0.9695
    -7     -51.624115      -8.011027      25.621243     -1.8405
    -7     -46.848312      -8.512037      22.829124     -2.5590
    -7     -49.399857     -15.693802      18.916901     -1.6998
    -7     -40.829895     -13.068296      22.486755     -2.4030
    -7     -43.305649     -14.633581      17.497204     -2.0228
    -7     -45.264526     -12.629058      16.092663     -2.3280
    -7     -40.686447      -7.999699      18.390207     -2.3106
    -7     -42.083855      -9.472875      15.579653     -1.6603
    -7     -46.959221      -8.232163      16.742443     -3.0959
    -7     -40.837654     -13.191939      17.559843     -2.2381
    -7     -38.949707      -9.968981      24.455570     -1.5177
    -7     -38.194962      -7.217508      20.262402     -1.5204
    -7     -45.568268     -11.318985      22.150579     -4.1236
    -7     -35.430229     -11.867861      20.839588     -1.1830
    -7     -39.499756      -9.945198      17.771227     -2.4556
    -8     -50.473602      -3.237029      15.097662      7.1963
    -8     -50.382465      -5.231133      16.056423      5.6525
    -8     -50.455788      -7.266033      21.187084      5.9048
    -8     -50.747986      -4.400348      15.852026      5.7522
    -8     -52.560692      -7.185925      22.611399      7.2192
    -8     -44.187897     -11.087702      18.473301      4.6960
    -8     -41.165096      -9.625257      21.205925      4.9142
    -8     -51.183098      -7.352263      22.176395      5.8326
    -8     -47.086948     -13.724365      20.090748      7.0434
    -8     -45.305187      -9.962933      18.567928      4.0740
    -8     -38.185211     -13.367872      19.313278      1.2366
    -8     -43.268757     -11.877739      19.015224      4.0475

$$$$
VTRRT_D
  xed2sdf_05210316543D
 
 92 97  0  0  1  0  0  0  0  0999 V2000
  -55.4046   -4.5861   23.3284 C   0  0  0  0  0  0  0  0  0  0  0  0
  -54.4846   -5.5451   22.9674 C   0  0  0  0  0  0  0  0  0  0  0  0
  -53.5576   -5.9961   23.8804 C   0  0  0  0  0  0  0  0  0  0  0  0
  -53.5576   -5.4821   25.1594 C   0  0  0  0  0  0  0  0  0  0  0  0
  -54.4776   -4.5241   25.5214 C   0  0  0  0  0  0  0  0  0  0  0  0
  -55.4006   -4.0751   24.6054 C   0  0  0  0  0  0  0  0  0  0  0  0
  -52.5416   -7.0551   23.4814 C   0  0  0  0  0  0  0  0  0  0  0  0
  -53.0116   -8.0271   22.3774 C   0  0  0  0  0  0  0  0  0  0  0  0
  -53.0046   -9.4311   22.9164 N   0  3  0  0  0  0  0  0  0  0  0  0
  -52.0906   -7.8881   21.1444 C   0  0  0  0  0  0  0  0  0  0  0  0
  -50.7186   -8.0411   21.5454 O   0  0  0  0  0  0  0  0  0  0  0  0
  -52.2846   -6.5241   20.4474 C   0  0  0  0  0  0  0  0  0  0  0  0
  -51.8536   -6.5761   18.9664 C   0  0  0  0  0  0  0  0  0  0  0  0
  -52.4916   -5.4151   18.1734 C   0  0  0  0  0  0  0  0  0  0  0  0
  -53.3196   -5.8281   16.9654 C   0  0  0  0  0  0  0  0  0  0  0  0
  -53.5136   -7.1621   16.6824 C   0  0  0  0  0  0  0  0  0  0  0  0
  -54.2626   -7.5391   15.5914 C   0  0  0  0  0  0  0  0  0  0  0  0
  -54.8226   -6.5821   14.7764 C   0  0  0  0  0  0  0  0  0  0  0  0
  -54.6336   -5.2481   15.0554 C   0  0  0  0  0  0  0  0  0  0  0  0
  -53.8836   -4.8731   16.1474 C   0  0  0  0  0  0  0  0  0  0  0  0
  -50.3846   -6.5121   18.9314 N   0  0  0  0  0  0  0  0  0  0  0  0
  -49.7366   -7.2191   17.7694 P   0  0  0  0  0  0  0  0  0  0  0  0
  -48.1546   -7.3101   18.0284 O   0  0  0  0  0  0  0  0  0  0  0  0
  -49.8316   -6.3861   16.3874 O   0  0  0  0  0  0  0  0  0  0  0  0
  -50.3076   -8.6031   17.5974 O   0  0  0  0  0  0  0  0  0  0  0  0
  -47.5336   -8.6041   18.0494 C   0  0  0  0  0  0  0  0  0  0  0  0
  -49.4546   -5.0741   16.2924 C   0  0  0  0  0  0  0  0  0  0  0  0
  -50.0636   -4.2691   15.3494 C   0  0  0  0  0  0  0  0  0  0  0  0
  -49.7116   -2.9451   15.2314 C   0  0  0  0  0  0  0  0  0  0  0  0
  -48.7426   -2.4131   16.0524 C   0  0  0  0  0  0  0  0  0  0  0  0
  -48.1286   -3.2091   16.9924 C   0  0  0  0  0  0  0  0  0  0  0  0
  -48.4826   -4.5321   17.1134 C   0  0  0  0  0  0  0  0  0  0  0  0
  -47.4506   -9.1321   19.4914 C   0  0  0  0  0  0  0  0  0  0  0  0
  -46.4366  -10.1401   19.6444 O   0  0  0  0  0  0  0  0  0  0  0  0
  -46.8156  -11.0741   20.6774 C   0  0  0  0  0  0  0  0  0  0  0  0
  -48.2376  -10.6511   21.1244 C   0  0  0  0  0  0  0  0  0  0  0  0
  -48.7526   -9.7931   19.9644 C   0  0  0  0  0  0  0  0  0  0  0  0
  -49.3236  -10.6371   18.9524 O   0  0  0  0  0  0  0  0  0  0  0  0
  -49.1156  -11.7551   21.3964 O   0  0  0  0  0  0  0  0  0  0  0  0
  -46.6936  -12.4961   20.1364 C   0  0  0  0  0  0  0  0  0  0  0  0
  -45.8856  -10.9181   21.8034 C   0  0  0  0  0  0  0  0  0  0  0  0
  -45.1646  -10.7981   22.6734 N   0  0  0  0  0  0  0  0  0  0  0  0
  -46.9416  -13.5911   20.8984 N   0  0  0  0  0  0  0  0  0  0  0  0
  -46.7266  -14.6531   20.0794 C   0  0  0  0  0  0  0  0  0  0  0  0
  -46.3536  -14.2501   18.8374 C   0  0  0  0  0  0  0  0  0  0  0  0
  -46.3336  -12.8531   18.8854 C   0  0  0  0  0  0  0  0  0  0  0  0
  -47.3246  -13.7691   22.1964 N   0  0  0  0  0  0  0  0  0  0  0  0
  -47.4806  -15.0001   22.6244 C   0  0  0  0  0  0  0  0  0  0  0  0
  -47.2926  -16.1441   21.8914 N   0  0  0  0  0  0  0  0  0  0  0  0
  -46.9146  -15.9521   20.6194 C   0  0  0  0  0  0  0  0  0  0  0  0
  -46.7126  -17.0721   19.8474 N   0  0  0  0  0  0  0  0  0  0  0  0
  -53.9446   -7.8061   22.0934 H   0  0  0  0  0  0  0  0  0  0  0  0
  -52.3346   -8.6051   20.4924 H   0  0  0  0  0  0  0  0  0  0  0  0
  -52.1666   -7.4231   18.5354 H   0  0  0  0  0  0  0  0  0  0  0  0
  -47.2456   -8.3171   20.0334 H   0  0  0  0  0  0  0  0  0  0  0  0
  -48.2056  -10.1621   21.9964 H   0  0  0  0  0  0  0  0  0  0  0  0
  -49.4716   -9.1391   20.1984 H   0  0  0  0  0  0  0  0  0  0  0  0
  -56.0756   -4.2611   22.6614 H   0  0  0  0  0  0  0  0  0  0  0  0
  -54.4896   -5.9151   22.0384 H   0  0  0  0  0  0  0  0  0  0  0  0
  -52.8876   -5.8061   25.8264 H   0  0  0  0  0  0  0  0  0  0  0  0
  -54.4736   -4.1541   26.4504 H   0  0  0  0  0  0  0  0  0  0  0  0
  -56.0686   -3.3791   24.8684 H   0  0  0  0  0  0  0  0  0  0  0  0
  -52.3156   -7.5921   24.2944 H   0  0  0  0  0  0  0  0  0  0  0  0
  -51.7576   -6.5631   23.1034 H   0  0  0  0  0  0  0  0  0  0  0  0
  -52.2126   -9.8521   22.7604 H   0  0  0  0  0  0  0  0  0  0  0  0
  -53.1406   -9.4471   23.8164 H   0  0  0  0  0  0  0  0  0  0  0  0
  -53.6586   -9.9451   22.5484 H   0  0  0  0  0  0  0  0  0  0  0  0
  -50.5456   -8.9611   21.9134 H   0  0  0  0  0  0  0  0  0  0  0  0
  -51.7386   -5.8341   20.9224 H   0  0  0  0  0  0  0  0  0  0  0  0
  -53.2566   -6.2921   20.4804 H   0  0  0  0  0  0  0  0  0  0  0  0
  -51.7566   -4.8161   17.8564 H   0  0  0  0  0  0  0  0  0  0  0  0
  -53.1286   -4.9691   18.8024 H   0  0  0  0  0  0  0  0  0  0  0  0
  -53.1076   -7.8601   17.2724 H   0  0  0  0  0  0  0  0  0  0  0  0
  -54.4006   -8.5091   15.3894 H   0  0  0  0  0  0  0  0  0  0  0  0
  -55.3676   -6.8551   13.9834 H   0  0  0  0  0  0  0  0  0  0  0  0
  -55.0396   -4.5511   14.4654 H   0  0  0  0  0  0  0  0  0  0  0  0
  -53.7476   -3.9031   16.3484 H   0  0  0  0  0  0  0  0  0  0  0  0
  -50.0646   -5.5371   18.9794 H   0  0  0  0  0  0  0  0  0  0  0  0
  -46.6116   -8.5351   17.6664 H   0  0  0  0  0  0  0  0  0  0  0  0
  -48.0816   -9.2371   17.5024 H   0  0  0  0  0  0  0  0  0  0  0  0
  -50.7656   -4.6511   14.7484 H   0  0  0  0  0  0  0  0  0  0  0  0
  -50.1596   -2.3681   14.5484 H   0  0  0  0  0  0  0  0  0  0  0  0
  -48.4866   -1.4511   15.9664 H   0  0  0  0  0  0  0  0  0  0  0  0
  -47.4236   -2.8241   17.5884 H   0  0  0  0  0  0  0  0  0  0  0  0
  -48.0336   -5.1061   17.7984 H   0  0  0  0  0  0  0  0  0  0  0  0
  -50.0106  -11.2621   19.3394 H   0  0  0  0  0  0  0  0  0  0  0  0
  -49.9906  -11.6541   20.9104 H   0  0  0  0  0  0  0  0  0  0  0  0
  -46.1376  -14.8311   18.0534 H   0  0  0  0  0  0  0  0  0  0  0  0
  -46.0986  -12.2361   18.1344 H   0  0  0  0  0  0  0  0  0  0  0  0
  -47.7636  -15.1151   23.5764 H   0  0  0  0  0  0  0  0  0  0  0  0
  -46.8326  -17.8711   20.1954 H   0  0  0  0  0  0  0  0  0  0  0  0
  -46.4626  -16.9941   19.0064 H   0  0  0  0  0  0  0  0  0  0  0  0
  1  2  2  0
  2  3  1  0
  3  4  2  0
  3  7  1  0
  4  5  1  0
  5  6  2  0
  6  1  1  0
  7  8  1  0
  8  9  1  0
  8 10  1  0
 10 11  1  0
 10 12  1  0
 12 13  1  0
 13 14  1  0
 13 21  1  0
 14 15  1  0
 15 16  2  0
 16 17  1  0
 17 18  2  0
 18 19  1  0
 19 20  2  0
 20 15  1  0
 21 22  1  0
 22 23  1  0
 22 24  1  0
 22 25  2  0
 23 26  1  0
 24 27  1  0
 27 28  2  0
 28 29  1  0
 29 30  2  0
 30 31  1  0
 31 32  2  0
 32 27  1  0
 33 26  1  0
 33 34  1  0
 34 35  1  0
 35 36  1  0
 35 40  1  0
 35 41  1  0
 36 37  1  0
 36 39  1  0
 37 33  1  0
 37 38  1  0
 40 43  1  0
 41 42  3  0
 43 44  1  0
 43 47  1  0
 44 45  2  0
 45 46  1  0
 46 40  2  0
 47 48  2  0
 48 49  1  0
 49 50  2  0
 50 44  1  0
 50 51  1  0
  1 58  1  0
  2 59  1  0
  4 60  1  0
  5 61  1  0
  6 62  1  0
  7 63  1  0
  7 64  1  0
  8 52  1  0
  9 65  1  0
  9 66  1  0
  9 67  1  0
 10 53  1  0
 11 68  1  0
 12 69  1  0
 12 70  1  0
 13 54  1  0
 14 71  1  0
 14 72  1  0
 16 73  1  0
 17 74  1  0
 18 75  1  0
 19 76  1  0
 20 77  1  0
 21 78  1  0
 26 79  1  0
 26 80  1  0
 28 81  1  0
 29 82  1  0
 30 83  1  0
 31 84  1  0
 32 85  1  0
 33 55  1  0
 36 56  1  0
 37 57  1  0
 38 86  1  0
 39 87  1  0
 45 88  1  0
 46 89  1  0
 48 90  1  0
 51 91  1  0
 51 92  1  0
M  CHG  1   9   1
M  END
>  <BioMolTech Lead Finder dG>
-6.578

>  <BioMolTech Lead Finder VSscore>
-12.452

>  <BioMolTech Lead Finder Rank score>
-11.845

>  <BioMolTech Lead Finder LE>
-0.129

>  <BioMolTech Lead Finder Structure Name>
/var/folders/xd/y7jw_xv579q2qqq7kks92xd80000gn/T/LeadFinder_49663_1/Ligand_1.sdf

>  <BioMolTech Lead Finder SDF id>
0

>  <BioMolTech Lead Finder Pose rank>
0

>  <BioMolTech Lead Finder version>
2001 1, 19 January 2019

>  <LF dG>
-6.578

>  <LF VSscore>
-12.452

>  <LF Rank Score>
-11.845

>  <LF LE>
-0.129

>  <Preferred Pose_cresset>
true

>  <Favorite_cresset>
false

>  <Protein_cresset>
6M2N_Dimer_P

>  <MW_cresset>
714.7

>  <#Atoms_cresset>
51

>  <SlogP_cresset>
4

>  <TPSA_cresset>
225.1

>  <Flexibility_cresset>
17.1

>  <#RB_cresset>
18

>  <Rof5_cresset>
3

>  <Filename_cresset>
VTRRT-13V2.1.sdf

>  <Confs_cresset>
0

>  <Poses_cresset>
10

>  <_cresset_fieldpoints>
    -5     -52.558884      -2.994298      23.511185     -2.8527
    -5     -56.458870      -6.914035      25.243906     -1.8225
    -5     -49.442696      -6.737811      21.076649     -6.4687
    -5     -56.595436      -6.104023      17.279104     -1.9021
    -5     -51.031776      -7.167228      14.879816     -7.0085
    -5     -47.208374      -4.897056      14.231050     -4.9116
    -5     -49.814362     -10.602652      17.107128     -4.6214
    -5     -48.712860     -11.463543      17.380894     -4.6434
    -5     -44.445560      -9.803253      19.138025     -3.9324
    -5     -48.783264     -12.658710      23.003643     -6.4562
    -5     -44.162613     -12.191015      23.802284     -9.4025
    -6     -57.809898      -2.721949      22.827660      3.6735
    -6     -53.562180      -2.543392      18.292603      3.9079
    -6     -51.311256     -10.630093      20.869520     19.6471
    -6     -56.196129      -2.455527      27.169165      3.3739
    -6     -50.086884      -4.046699      19.729420      6.3054
    -6     -56.504578      -5.080441      12.543701      3.2711
    -6     -46.024582     -16.911156      17.114742      9.4479
    -6     -54.525639      -2.051671      14.999762      3.5524
    -6     -49.947052       0.074642      14.424506      2.9148
    -6     -46.958549      -0.372856      17.669146      2.8339
    -7     -52.926960      -3.450329      20.977394     -2.7332
    -7     -50.334545      -3.653981      19.770885     -3.2695
    -7     -48.973759      -6.552903      21.037361     -4.1799
    -7     -55.595207      -8.544588      24.290096     -2.4948
    -7     -51.731312      -3.907659      27.464008     -0.9939
    -7     -56.221817      -2.255558      27.355715     -0.9683
    -7     -52.741768      -5.089090      28.406185     -0.9983
    -7     -57.928276      -2.319719      23.160168     -0.9706
    -7     -51.956841      -3.627497      22.125425     -2.5843
    -7     -51.993538     -11.037321      20.454332     -2.7179
    -7     -51.795715     -10.025957      18.521914     -3.7264
    -7     -49.949242      -9.011492      23.925434     -2.6748
    -7     -48.199745     -12.104069      23.896187     -2.1610
    -7     -55.740765      -9.452079      13.207439     -0.9707
    -7     -55.200684      -7.530512      19.573143     -3.3250
    -7     -56.288246      -5.091025      12.097851     -0.9714
    -7     -52.587448      -3.214390      13.415043     -1.9738
    -7     -50.036263     -10.766199      16.789997     -2.4563
    -7     -46.656456      -0.199506      17.567562     -0.9692
    -7     -49.966759       0.359364      14.500322     -0.9736
    -7     -51.955788      -2.298212      17.591171     -2.8272
    -7     -50.430527       0.364828      15.100241     -0.9743
    -7     -48.721802     -11.687487      17.033142     -2.6693
    -7     -46.820282      -4.666564      14.047924     -1.7365
    -7     -49.789558     -13.519842      19.783241     -3.0723
    -7     -44.327522     -13.741968      22.180035     -2.3860
    -7     -48.741837     -16.452744      17.810471     -1.5199
    -7     -44.426971     -10.120613      18.456314     -2.4761
    -7     -47.630554      -7.443218      15.058499     -2.2164
    -7     -51.066292      -7.368286      14.515066     -3.2073
    -7     -47.576836     -18.477585      22.703861     -1.1829
    -7     -43.877262     -16.559250      19.244810     -1.5180
    -8     -54.476383      -5.040345      24.241955      7.2013
    -8     -52.807869      -6.388055      17.776688      5.9448
    -8     -53.410999      -6.657360      22.916176      5.9809
    -8     -52.384907      -7.070252      20.078850      5.1194
    -8     -54.067291      -6.202050      15.875607      7.2051
    -8     -52.743294      -6.976383      21.917118      5.6424
    -8     -52.593258      -6.107774      19.221376      5.3876
    -8     -47.907356      -9.761337      20.624998      4.6322
    -8     -49.093719      -3.707989      16.174530      7.0531
    -8     -46.425331     -13.560358      19.163239      4.9071
    -8     -53.296364      -5.850276      17.013199      5.7639
    -8     -47.830177     -15.190624      23.836103      1.2352
    -8     -47.193146     -10.629019      21.374290      3.9969

$$$$
