W_DAR_D
  xed2sdf_05210316543D
 
 82 86  0  0  1  0  0  0  0  0999 V2000
  -42.8889    0.9408   18.8281 O   0  0  0  0  0  0  0  0  0  0  0  0
  -43.8459    0.6318   18.1391 C   0  0  0  0  0  0  0  0  0  0  0  0
  -45.1929    1.2968   18.3031 C   0  0  0  0  0  0  0  0  0  0  0  0
  -46.3279    0.2978   18.0821 C   0  0  0  0  0  0  0  0  0  0  0  0
  -46.1559   -0.2182   16.6491 C   0  0  0  0  0  0  0  0  0  0  0  0
  -47.2299   -1.1922   16.4071 N   0  0  0  0  0  0  0  0  0  0  0  0
  -48.3379   -0.9422   15.4701 C   0  0  0  0  0  0  0  0  0  0  0  0
  -48.6499   -2.4362   15.2631 C   0  0  0  0  0  0  0  0  0  0  0  0
  -49.9009   -2.9372   14.5731 C   0  0  0  0  0  0  0  0  0  0  0  0
  -50.5079   -2.0082   13.7801 N   0  0  0  0  0  0  0  0  0  0  0  0
  -51.7159   -1.3242   14.2591 C   0  0  0  0  0  0  0  0  0  0  0  0
  -51.4769    0.1948   14.2351 C   0  0  0  0  0  0  0  0  0  0  0  0
  -52.6179    0.9328   14.9561 C   0  0  0  0  0  0  0  0  0  0  0  0
  -52.2369    1.1398   16.4321 C   0  0  0  0  0  0  0  0  0  0  0  0
  -51.7779    2.5888   16.6591 C   0  0  0  0  0  0  0  0  0  0  0  0
  -52.8209    3.5638   16.0851 C   0  0  0  0  0  0  0  0  0  0  0  0
  -52.3079    4.2038   14.8651 N   0  0  0  0  0  0  0  0  0  0  0  0
  -53.1199    4.3778   13.8011 C   0  0  0  0  0  0  0  0  0  0  0  0
  -54.2959    4.0228   13.7671 O   0  0  0  0  0  0  0  0  0  0  0  0
  -52.5749    5.0118   12.5771 C   0  0  0  0  0  0  0  0  0  0  0  0
  -51.4739    5.8358   12.6711 C   0  0  0  0  0  0  0  0  0  0  0  0
  -50.9729    6.4408   11.5481 C   0  0  0  0  0  0  0  0  0  0  0  0
  -51.4949    6.2818   10.3151 N   0  0  0  0  0  0  0  0  0  0  0  0
  -52.5599    5.4648   10.2371 C   0  0  0  0  0  0  0  0  0  0  0  0
  -53.1269    4.8138   11.3191 C   0  0  0  0  0  0  0  0  0  0  0  0
  -54.2119    3.9428   11.1471 N   0  0  0  0  0  0  0  0  0  0  0  0
  -54.2049    2.7598   10.5001 C   0  0  0  0  0  0  0  0  0  0  0  0
  -53.2579    2.2948    9.8851 O   0  0  0  0  0  0  0  0  0  0  0  0
  -55.5269    2.0288   10.5921 C   0  0  0  0  0  0  0  0  0  0  0  0
  -55.7699    1.2118    9.3341 C   0  0  0  0  0  0  0  0  0  0  0  0
  -55.9959    1.8388    8.1291 C   0  0  0  0  0  0  0  0  0  0  0  0
  -56.2219    1.0948    6.9931 C   0  0  0  0  0  0  0  0  0  0  0  0
  -56.2229   -0.2792    7.0591 C   0  0  0  0  0  0  0  0  0  0  0  0
  -55.9969   -0.9102    8.2621 C   0  0  0  0  0  0  0  0  0  0  0  0
  -55.9989   -2.6472    8.3491 Cl  0  0  0  0  0  0  0  0  0  0  0  0
  -55.7699   -0.1642    9.3971 C   0  0  0  0  0  0  0  0  0  0  0  0
  -50.2989   -4.2032   14.7801 C   0  0  0  0  0  0  0  0  0  0  0  0
  -49.5329   -5.0702   15.6771 C   0  0  0  0  0  0  0  0  0  0  0  0
  -48.7129   -4.5262   16.5751 C   0  0  0  0  0  0  0  0  0  0  0  0
  -48.5609   -3.0302   16.6711 C   0  0  0  0  0  0  0  0  0  0  0  0
  -47.2799   -2.3592   17.0691 C   0  0  0  0  0  0  0  0  0  0  0  0
  -46.4469   -2.7912   17.8531 O   0  0  0  0  0  0  0  0  0  0  0  0
  -44.7809   -0.8052   16.4011 C   0  0  0  0  0  0  0  0  0  0  0  0
  -44.5979   -1.6682   15.5601 O   0  0  0  0  0  0  0  0  0  0  0  0
  -43.7879   -0.3182   17.1791 N   0  0  0  0  0  0  0  0  0  0  0  0
  -46.2249    0.5418   16.0031 H   0  0  0  0  0  0  0  0  0  0  0  0
  -47.9939   -2.7282   14.5671 H   0  0  0  0  0  0  0  0  0  0  0  0
  -49.2469   -2.8752   17.3821 H   0  0  0  0  0  0  0  0  0  0  0  0
  -45.2739    2.0408   17.6401 H   0  0  0  0  0  0  0  0  0  0  0  0
  -45.2609    1.6528   19.2351 H   0  0  0  0  0  0  0  0  0  0  0  0
  -47.2149    0.7468   18.1881 H   0  0  0  0  0  0  0  0  0  0  0  0
  -46.2969   -0.4482   18.7461 H   0  0  0  0  0  0  0  0  0  0  0  0
  -48.0499   -0.4782   14.6321 H   0  0  0  0  0  0  0  0  0  0  0  0
  -49.0819   -0.3432   15.7671 H   0  0  0  0  0  0  0  0  0  0  0  0
  -50.3729   -2.0512   12.9101 H   0  0  0  0  0  0  0  0  0  0  0  0
  -51.9209   -1.6182   15.1931 H   0  0  0  0  0  0  0  0  0  0  0  0
  -52.4899   -1.5522   13.6681 H   0  0  0  0  0  0  0  0  0  0  0  0
  -51.4289    0.5068   13.2861 H   0  0  0  0  0  0  0  0  0  0  0  0
  -50.6179    0.3948   14.7051 H   0  0  0  0  0  0  0  0  0  0  0  0
  -53.4569    0.3908   14.8981 H   0  0  0  0  0  0  0  0  0  0  0  0
  -52.7689    1.8208   14.5221 H   0  0  0  0  0  0  0  0  0  0  0  0
  -51.4969    0.5138   16.6751 H   0  0  0  0  0  0  0  0  0  0  0  0
  -53.0369    0.9578   17.0041 H   0  0  0  0  0  0  0  0  0  0  0  0
  -50.8989    2.7358   16.2051 H   0  0  0  0  0  0  0  0  0  0  0  0
  -51.6789    2.7538   17.6401 H   0  0  0  0  0  0  0  0  0  0  0  0
  -53.0279    4.2658   16.7661 H   0  0  0  0  0  0  0  0  0  0  0  0
  -53.6509    3.0538   15.8581 H   0  0  0  0  0  0  0  0  0  0  0  0
  -51.4629    4.4498   14.8241 H   0  0  0  0  0  0  0  0  0  0  0  0
  -51.0419    5.9928   13.5591 H   0  0  0  0  0  0  0  0  0  0  0  0
  -50.1749    7.0358   11.6491 H   0  0  0  0  0  0  0  0  0  0  0  0
  -52.9689    5.3188    9.3371 H   0  0  0  0  0  0  0  0  0  0  0  0
  -54.9719    4.1898   11.5181 H   0  0  0  0  0  0  0  0  0  0  0  0
  -56.2659    2.6928   10.7031 H   0  0  0  0  0  0  0  0  0  0  0  0
  -55.5019    1.4108   11.3781 H   0  0  0  0  0  0  0  0  0  0  0  0
  -55.9959    2.8378    8.0791 H   0  0  0  0  0  0  0  0  0  0  0  0
  -56.3849    1.5538    6.1191 H   0  0  0  0  0  0  0  0  0  0  0  0
  -56.3869   -0.8202    6.2341 H   0  0  0  0  0  0  0  0  0  0  0  0
  -55.6059   -0.6232   10.2701 H   0  0  0  0  0  0  0  0  0  0  0  0
  -51.1159   -4.5532   14.3221 H   0  0  0  0  0  0  0  0  0  0  0  0
  -49.6249   -6.0632   15.6161 H   0  0  0  0  0  0  0  0  0  0  0  0
  -48.1929   -5.1172   17.1911 H   0  0  0  0  0  0  0  0  0  0  0  0
  -42.9939   -0.6752   17.0471 H   0  0  0  0  0  0  0  0  0  0  0  0
  1  2  2  0
  2  3  1  0
  2 45  1  0
  3  4  1  0
  4  5  1  0
  5  6  1  0
  5 43  1  0
  6  7  1  0
  6 41  1  0
  7  8  1  0
  8  9  1  0
  8 40  1  0
  9 10  1  0
  9 37  2  0
 10 11  1  0
 11 12  1  0
 12 13  1  0
 13 14  1  0
 14 15  1  0
 15 16  1  0
 16 17  1  0
 17 18  1  0
 18 19  2  0
 18 20  1  0
 20 21  2  0
 20 25  1  0
 21 22  1  0
 22 23  2  0
 23 24  1  0
 24 25  2  0
 25 26  1  0
 26 27  1  0
 27 28  2  0
 27 29  1  0
 29 30  1  0
 30 31  2  0
 30 36  1  0
 31 32  1  0
 32 33  2  0
 33 34  1  0
 34 35  1  0
 34 36  2  0
 37 38  1  0
 38 39  2  0
 39 40  1  0
 40 41  1  0
 41 42  2  0
 43 44  2  0
 43 45  1  0
  3 49  1  0
  3 50  1  0
  4 51  1  0
  4 52  1  0
  5 46  1  0
  7 53  1  0
  7 54  1  0
  8 47  1  0
 10 55  1  0
 11 56  1  0
 11 57  1  0
 12 58  1  0
 12 59  1  0
 13 60  1  0
 13 61  1  0
 14 62  1  0
 14 63  1  0
 15 64  1  0
 15 65  1  0
 16 66  1  0
 16 67  1  0
 17 68  1  0
 21 69  1  0
 22 70  1  0
 24 71  1  0
 26 72  1  0
 29 73  1  0
 29 74  1  0
 31 75  1  0
 32 76  1  0
 33 77  1  0
 36 78  1  0
 37 79  1  0
 38 80  1  0
 39 81  1  0
 40 48  1  0
 45 82  1  0
M  END
>  <BioMolTech Lead Finder dG>
-7.543

>  <BioMolTech Lead Finder VSscore>
-9.15

>  <BioMolTech Lead Finder Rank score>
-2.357

>  <BioMolTech Lead Finder LE>
-0.168

>  <BioMolTech Lead Finder Structure Name>
/var/folders/xd/y7jw_xv579q2qqq7kks92xd80000gn/T/LeadFinder_88760_1/Ligand_1.sdf

>  <BioMolTech Lead Finder SDF id>
0

>  <BioMolTech Lead Finder Pose rank>
0

>  <BioMolTech Lead Finder version>
2001 1, 19 January 2019

>  <LF dG>
-7.543

>  <LF VSscore>
-9.15

>  <LF Rank Score>
-2.357

>  <LF LE>
-0.168

>  <Preferred Pose_cresset>
true

>  <Favorite_cresset>
false

>  <Protein_cresset>
6M2N_Monomer_P

>  <MW_cresset>
633.1

>  <#Atoms_cresset>
45

>  <SlogP_cresset>
2.9

>  <TPSA_cresset>
149.6

>  <Flexibility_cresset>
10.4

>  <#RB_cresset>
13

>  <Rof5_cresset>
2

>  <Filename_cresset>
DAR-DIA-9e4459de-1.mol

>  <Confs_cresset>
0

>  <Poses_cresset>
10

>  <_cresset_fieldpoints>
    -5     -41.214687       0.622501      19.475565     -8.0787
    -5     -42.526810       1.981935      20.233397     -8.5350
    -5     -46.290257      -4.339453      18.606094    -13.4706
    -5     -44.949696      -3.576424      16.751083    -12.0180
    -5     -45.559361      -3.129917      15.070108    -12.3316
    -5     -51.299278      -4.612453      17.438694     -4.6866
    -5     -52.909142       0.986184       8.689292    -12.0953
    -5     -55.820515       3.434366      14.820537     -3.5589
    -5     -50.616753       6.907480       8.676203     -5.9874
    -5     -51.576832       2.644425       9.359922    -10.2758
    -5     -58.945915       0.120229       8.525492     -2.6214
    -6     -48.240631       2.066392      16.124481     10.0725
    -6     -49.594620       5.031680      15.081470     11.0663
    -6     -54.716118      -0.426883      12.583921      4.9296
    -6     -56.838173       4.809402      11.059173      7.6473
    -6     -57.071899       0.707528       4.061584      2.3955
    -6     -49.063499      -0.857142      11.960014      6.1642
    -6     -54.238983      -1.336324      16.498482      3.0037
    -6     -41.228420      -0.581525      16.132259      2.4323
    -7     -42.840332       3.382523      19.141228     -1.1351
    -7     -44.400940      -2.297604      18.942261     -2.5976
    -7     -43.795631       1.796297      15.306431     -2.0045
    -7     -48.458115       2.162098      16.193205     -3.0684
    -7     -49.657181      -0.296875      18.285158     -3.3180
    -7     -45.830738      -1.627794      13.565601     -2.3216
    -7     -52.080338      -3.750139      12.082925     -1.7228
    -7     -48.920792      -0.107974      12.284895     -2.2557
    -7     -55.416111       1.934043      13.880892     -3.0091
    -7     -51.788277      -3.106355      17.171074     -2.7178
    -7     -54.001282      -1.615642      16.711353     -1.8290
    -7     -54.660072       2.408496      18.484875     -1.5222
    -7     -52.523865       6.793414      15.689631     -2.1410
    -7     -55.736164       6.038970      13.171194     -1.8839
    -7     -51.378700       2.093122      11.411894     -3.0086
    -7     -54.212234       7.982026      12.134785     -1.5481
    -7     -51.113247       8.003720       8.540232     -1.0256
    -7     -50.057381       2.882418      13.578125     -3.4576
    -7     -55.796600       5.059879       9.159904     -2.7050
    -7     -56.772640       0.214494       3.751945     -0.9772
    -7     -53.109451       3.273617       7.719433     -2.4731
    -7     -53.055740       0.073177      11.363122     -3.3024
    -7     -52.714897       0.831297       8.080817     -2.3895
    -7     -51.708458       1.236763      11.064797     -2.4328
    -7     -56.525208      -3.216563       5.420994     -1.2902
    -7     -59.127151       0.549563       9.016037     -1.8664
    -7     -45.621807      -3.783720      15.202236     -2.6004
    -7     -51.485191      -1.865432      17.592802     -2.8835
    -7     -47.685715      -3.863437      19.659840     -1.6555
    -8     -45.652100       0.538759      17.600323      5.5618
    -8     -52.422676       1.964495      15.929539      6.1351
    -8     -49.224388      -3.658784      15.625697      7.0705
    -8     -51.968658       0.682200      15.283957      5.9558
    -8     -52.150284       5.472893      11.836718      5.3675
    -8     -55.998825       0.468219       8.199415      7.1824
    -8     -55.998230      -1.137520       8.279430      5.6068

$$$$
DAR_D
  xed2sdf_05210316543D
 
 82 86  0  0  1  0  0  0  0  0999 V2000
  -58.3525   -3.9124    7.2915 O   0  0  0  0  0  0  0  0  0  0  0  0
  -57.8065   -2.8604    7.5725 C   0  0  0  0  0  0  0  0  0  0  0  0
  -56.3075   -2.6904    7.4765 C   0  0  0  0  0  0  0  0  0  0  0  0
  -55.7855   -1.7904    8.5965 C   0  0  0  0  0  0  0  0  0  0  0  0
  -56.4905   -0.4434    8.4105 C   0  0  0  0  0  0  0  0  0  0  0  0
  -56.0165    0.4456    9.4825 N   0  0  0  0  0  0  0  0  0  0  0  0
  -55.2965    1.7026    9.2165 C   0  0  0  0  0  0  0  0  0  0  0  0
  -55.6595    2.3306   10.5755 C   0  0  0  0  0  0  0  0  0  0  0  0
  -55.0125    3.5896   11.1095 C   0  0  0  0  0  0  0  0  0  0  0  0
  -54.4175    4.3586   10.1525 N   0  0  0  0  0  0  0  0  0  0  0  0
  -53.0575    4.0316    9.7015 C   0  0  0  0  0  0  0  0  0  0  0  0
  -52.0445    4.8286   10.5395 C   0  0  0  0  0  0  0  0  0  0  0  0
  -51.0395    3.8816   11.2155 C   0  0  0  0  0  0  0  0  0  0  0  0
  -49.7925    4.6776   11.6345 C   0  0  0  0  0  0  0  0  0  0  0  0
  -48.7195    3.7246   12.1875 C   0  0  0  0  0  0  0  0  0  0  0  0
  -48.6885    2.4326   11.3515 C   0  0  0  0  0  0  0  0  0  0  0  0
  -49.2775    1.3186   12.1095 N   0  0  0  0  0  0  0  0  0  0  0  0
  -48.4835    0.4896   12.8185 C   0  0  0  0  0  0  0  0  0  0  0  0
  -47.2595    0.5906   12.8755 O   0  0  0  0  0  0  0  0  0  0  0  0
  -49.0985   -0.6344   13.5615 C   0  0  0  0  0  0  0  0  0  0  0  0
  -50.4455   -0.8894   13.4155 C   0  0  0  0  0  0  0  0  0  0  0  0
  -51.0285   -1.9164   14.1125 C   0  0  0  0  0  0  0  0  0  0  0  0
  -50.3575   -2.7254   14.9565 N   0  0  0  0  0  0  0  0  0  0  0  0
  -49.0435   -2.4724   15.0785 C   0  0  0  0  0  0  0  0  0  0  0  0
  -48.3745   -1.4594   14.4125 C   0  0  0  0  0  0  0  0  0  0  0  0
  -46.9915   -1.2894   14.5605 N   0  0  0  0  0  0  0  0  0  0  0  0
  -46.3395   -0.9014   15.6755 C   0  0  0  0  0  0  0  0  0  0  0  0
  -46.8675   -0.5564   16.7205 O   0  0  0  0  0  0  0  0  0  0  0  0
  -44.8345   -0.9194   15.5155 C   0  0  0  0  0  0  0  0  0  0  0  0
  -44.1565   -0.9024   16.8755 C   0  0  0  0  0  0  0  0  0  0  0  0
  -43.6975   -2.0724   17.4395 C   0  0  0  0  0  0  0  0  0  0  0  0
  -43.0905   -2.0544   18.6745 C   0  0  0  0  0  0  0  0  0  0  0  0
  -42.9405   -0.8644   19.3505 C   0  0  0  0  0  0  0  0  0  0  0  0
  -43.3985    0.3066   18.7895 C   0  0  0  0  0  0  0  0  0  0  0  0
  -43.2125    1.8106   19.6425 Cl  0  0  0  0  0  0  0  0  0  0  0  0
  -44.0055    0.2866   17.5535 C   0  0  0  0  0  0  0  0  0  0  0  0
  -55.0725    3.8476   12.4265 C   0  0  0  0  0  0  0  0  0  0  0  0
  -55.7435    2.9046   13.3225 C   0  0  0  0  0  0  0  0  0  0  0  0
  -55.9325    1.6456   12.9305 C   0  0  0  0  0  0  0  0  0  0  0  0
  -55.4705    1.1846   11.5735 C   0  0  0  0  0  0  0  0  0  0  0  0
  -56.1815    0.1316   10.7765 C   0  0  0  0  0  0  0  0  0  0  0  0
  -56.7865   -0.8324   11.2245 O   0  0  0  0  0  0  0  0  0  0  0  0
  -58.0005   -0.5714    8.3965 C   0  0  0  0  0  0  0  0  0  0  0  0
  -58.7215    0.3476    8.7455 O   0  0  0  0  0  0  0  0  0  0  0  0
  -58.4835   -1.7664    7.9865 N   0  0  0  0  0  0  0  0  0  0  0  0
  -56.2625   -0.0594    7.5155 H   0  0  0  0  0  0  0  0  0  0  0  0
  -56.5745    2.7066   10.4325 H   0  0  0  0  0  0  0  0  0  0  0  0
  -54.5755    0.8366   11.8525 H   0  0  0  0  0  0  0  0  0  0  0  0
  -56.0795   -2.2834    6.5915 H   0  0  0  0  0  0  0  0  0  0  0  0
  -55.8785   -3.5894    7.5655 H   0  0  0  0  0  0  0  0  0  0  0  0
  -54.7945   -1.6804    8.5235 H   0  0  0  0  0  0  0  0  0  0  0  0
  -55.9705   -2.1804    9.4985 H   0  0  0  0  0  0  0  0  0  0  0  0
  -55.6615    2.2096    8.4355 H   0  0  0  0  0  0  0  0  0  0  0  0
  -54.3295    1.6486    8.9665 H   0  0  0  0  0  0  0  0  0  0  0  0
  -54.7025    5.1856   10.0455 H   0  0  0  0  0  0  0  0  0  0  0  0
  -52.9575    4.2686    8.7355 H   0  0  0  0  0  0  0  0  0  0  0  0
  -52.8915    3.0516    9.8155 H   0  0  0  0  0  0  0  0  0  0  0  0
  -52.5325    5.3496   11.2405 H   0  0  0  0  0  0  0  0  0  0  0  0
  -51.5455    5.4506    9.9365 H   0  0  0  0  0  0  0  0  0  0  0  0
  -50.7785    3.1586   10.5765 H   0  0  0  0  0  0  0  0  0  0  0  0
  -51.4605    3.4706   12.0245 H   0  0  0  0  0  0  0  0  0  0  0  0
  -50.0425    5.3416   12.3385 H   0  0  0  0  0  0  0  0  0  0  0  0
  -49.4245    5.1546   10.8355 H   0  0  0  0  0  0  0  0  0  0  0  0
  -48.9305    3.5026   13.1395 H   0  0  0  0  0  0  0  0  0  0  0  0
  -47.8255    4.1696   12.1375 H   0  0  0  0  0  0  0  0  0  0  0  0
  -47.7415    2.2126   11.1185 H   0  0  0  0  0  0  0  0  0  0  0  0
  -49.2205    2.5736   10.5165 H   0  0  0  0  0  0  0  0  0  0  0  0
  -50.1475    1.1816   12.0785 H   0  0  0  0  0  0  0  0  0  0  0  0
  -50.9975   -0.3244   12.8025 H   0  0  0  0  0  0  0  0  0  0  0  0
  -52.0085   -2.0744   13.9865 H   0  0  0  0  0  0  0  0  0  0  0  0
  -48.5115   -3.0564   15.6925 H   0  0  0  0  0  0  0  0  0  0  0  0
  -46.4995   -1.4734   13.8545 H   0  0  0  0  0  0  0  0  0  0  0  0
  -44.5475   -0.1174   14.9925 H   0  0  0  0  0  0  0  0  0  0  0  0
  -44.5695   -1.7544   15.0335 H   0  0  0  0  0  0  0  0  0  0  0  0
  -43.8065   -2.9374   16.9495 H   0  0  0  0  0  0  0  0  0  0  0  0
  -42.7575   -2.9054   19.0805 H   0  0  0  0  0  0  0  0  0  0  0  0
  -42.4995   -0.8514   20.2475 H   0  0  0  0  0  0  0  0  0  0  0  0
  -44.3365    1.1376   17.1465 H   0  0  0  0  0  0  0  0  0  0  0  0
  -54.6595    4.6806   12.7935 H   0  0  0  0  0  0  0  0  0  0  0  0
  -56.0575    3.2036   14.2235 H   0  0  0  0  0  0  0  0  0  0  0  0
  -56.3865    0.9996   13.5445 H   0  0  0  0  0  0  0  0  0  0  0  0
  -59.3595   -1.8454    7.9985 H   0  0  0  0  0  0  0  0  0  0  0  0
  1  2  2  0
  2  3  1  0
  2 45  1  0
  3  4  1  0
  4  5  1  0
  5  6  1  0
  5 43  1  0
  6  7  1  0
  6 41  1  0
  7  8  1  0
  8  9  1  0
  8 40  1  0
  9 10  1  0
  9 37  2  0
 10 11  1  0
 11 12  1  0
 12 13  1  0
 13 14  1  0
 14 15  1  0
 15 16  1  0
 16 17  1  0
 17 18  1  0
 18 19  2  0
 18 20  1  0
 20 21  2  0
 20 25  1  0
 21 22  1  0
 22 23  2  0
 23 24  1  0
 24 25  2  0
 25 26  1  0
 26 27  1  0
 27 28  2  0
 27 29  1  0
 29 30  1  0
 30 31  2  0
 30 36  1  0
 31 32  1  0
 32 33  2  0
 33 34  1  0
 34 35  1  0
 34 36  2  0
 37 38  1  0
 38 39  2  0
 39 40  1  0
 40 41  1  0
 41 42  2  0
 43 44  2  0
 43 45  1  0
  3 49  1  0
  3 50  1  0
  4 51  1  0
  4 52  1  0
  5 46  1  0
  7 53  1  0
  7 54  1  0
  8 47  1  0
 10 55  1  0
 11 56  1  0
 11 57  1  0
 12 58  1  0
 12 59  1  0
 13 60  1  0
 13 61  1  0
 14 62  1  0
 14 63  1  0
 15 64  1  0
 15 65  1  0
 16 66  1  0
 16 67  1  0
 17 68  1  0
 21 69  1  0
 22 70  1  0
 24 71  1  0
 26 72  1  0
 29 73  1  0
 29 74  1  0
 31 75  1  0
 32 76  1  0
 33 77  1  0
 36 78  1  0
 37 79  1  0
 38 80  1  0
 39 81  1  0
 40 48  1  0
 45 82  1  0
M  END
>  <BioMolTech Lead Finder dG>
-7.044

>  <BioMolTech Lead Finder VSscore>
-9.2

>  <BioMolTech Lead Finder Rank score>
-2.82

>  <BioMolTech Lead Finder LE>
-0.157

>  <BioMolTech Lead Finder Structure Name>
/var/folders/xd/y7jw_xv579q2qqq7kks92xd80000gn/T/LeadFinder_88078_1/Ligand_1.sdf

>  <BioMolTech Lead Finder SDF id>
0

>  <BioMolTech Lead Finder Pose rank>
0

>  <BioMolTech Lead Finder version>
2001 1, 19 January 2019

>  <LF dG>
-7.044

>  <LF VSscore>
-9.2

>  <LF Rank Score>
-2.82

>  <LF LE>
-0.157

>  <Preferred Pose_cresset>
true

>  <Favorite_cresset>
false

>  <Protein_cresset>
6M2N_Monomer_P

>  <MW_cresset>
633.1

>  <#Atoms_cresset>
45

>  <SlogP_cresset>
2.9

>  <TPSA_cresset>
149.6

>  <Flexibility_cresset>
10.4

>  <#RB_cresset>
13

>  <Rof5_cresset>
2

>  <Filename_cresset>
DAR-DIA-9e4459de-1.mol

>  <Confs_cresset>
0

>  <Poses_cresset>
10

>  <_cresset_fieldpoints>
    -5     -57.274330      -1.336781      12.830029    -16.9994
    -5     -58.040241      -5.632319       6.773468    -13.6058
    -5     -58.679626       1.070095      10.518263    -15.7303
    -5     -48.500889      -0.279134      17.459988    -16.1812
    -5     -46.724037      -0.290085      18.530930    -17.0860
    -5     -45.791397       1.816840      12.802318    -11.0793
    -5     -51.256001      -3.995885      16.071381    -10.9931
    -5     -40.864349      -0.327074      17.040958     -2.6582
    -5     -53.435722       2.378295      13.881072     -3.6281
    -6     -61.225128      -1.854579       7.567859      5.0111
    -6     -54.520664      -0.301314       6.298596      7.5679
    -6     -51.949642       0.929225      11.484479     12.4222
    -6     -56.918602      -0.499519       5.571935      7.2611
    -6     -54.253738       0.284013       6.746440      7.6181
    -6     -54.822060       7.005032       9.463387      9.6201
    -6     -53.478592       2.376708       7.081190      6.3526
    -6     -45.138588      -2.570646      13.073725      9.4124
    -6     -41.637047      -3.111245      21.063633      2.6010
    -6     -43.756939       2.025534      15.100929      2.3031
    -7     -57.261040      -4.973562       5.363286     -1.1352
    -7     -58.029873      -0.699398       5.411899     -2.0055
    -7     -58.795937       1.301259      10.924242     -2.6295
    -7     -57.050476      -5.853618       6.711553     -1.1214
    -7     -53.637115       0.095807       6.857653     -1.9674
    -7     -58.359879      -2.499545      10.610236     -2.6025
    -7     -58.295189       2.609758       8.436940     -2.2050
    -7     -57.371738       5.251100      10.913181     -1.8216
    -7     -53.531662       7.202711       8.885439     -1.3802
    -7     -54.433998       6.986446      11.754248     -1.7934
    -7     -50.888660       7.744771      11.348955     -1.4826
    -7     -56.552097       4.679487       8.425439     -2.0381
    -7     -52.253220       0.834277      10.821785     -4.0871
    -7     -53.263241       2.477684       6.763783     -1.5365
    -7     -52.647659       1.711530      13.193040     -3.8107
    -7     -50.962975       2.278208      14.233593     -3.1712
    -7     -49.702339       3.997877       8.284843     -2.3164
    -7     -45.019192      -0.128063      12.332495     -2.0254
    -7     -48.799603      -3.452086      11.651391     -1.5623
    -7     -46.956131       1.869491      14.995499     -3.1495
    -7     -46.632607      -1.294829      11.285587     -1.9764
    -7     -40.773613      -0.368993      16.529537     -1.8600
    -7     -46.055527      -3.915056      15.748832     -2.5967
    -7     -46.973717      -2.698855      17.889660     -2.6099
    -7     -46.762920      -1.586063      18.831146     -2.4925
    -7     -41.558540      -3.045137      21.547867     -0.9772
    -8     -56.390594      -1.684854       7.982784      5.5578
    -8     -55.493614       2.522239      11.954340      7.0792
    -8     -49.683235       3.665687      11.479016      6.2120
    -8     -50.914352       4.566400      11.094606      5.8167
    -8     -51.915688       4.095281      10.509548      5.5938
    -8     -49.589802      -1.338276      14.008190      5.3666
    -8     -43.544456      -0.883078      18.109507      7.1795
    -8     -43.374908       0.502779      18.900576      5.6032

$$$$
W_Baicalein_D
  xed2sdf_05210316543D
 
 30 32  0  0  0  0  0  0  0  0999 V2000
  -46.8152   -3.0030   17.1332 O   0  0  0  0  0  0  0  0  0  0  0  0
  -50.0112   -3.0850   13.4952 O   0  0  0  0  0  0  0  0  0  0  0  0
  -51.0672   -5.3490   14.5292 O   0  0  0  0  0  0  0  0  0  0  0  0
  -50.0372   -6.4310   16.8332 O   0  0  0  0  0  0  0  0  0  0  0  0
  -48.1442   -1.1360   13.8052 O   0  0  0  0  0  0  0  0  0  0  0  0
  -48.3922   -2.9690   15.2822 C   0  0  0  0  0  0  0  0  0  0  0  0
  -47.8672   -3.5340   16.4502 C   0  0  0  0  0  0  0  0  0  0  0  0
  -46.2182   -1.8700   16.6402 C   0  0  0  0  0  0  0  0  0  0  0  0
  -49.4742   -3.5930   14.6382 C   0  0  0  0  0  0  0  0  0  0  0  0
  -47.7662   -1.7490   14.8032 C   0  0  0  0  0  0  0  0  0  0  0  0
  -46.6572   -1.2300   15.5182 C   0  0  0  0  0  0  0  0  0  0  0  0
  -45.0462   -1.3560   17.3962 C   0  0  0  0  0  0  0  0  0  0  0  0
  -48.4332   -4.6910   16.9522 C   0  0  0  0  0  0  0  0  0  0  0  0
  -50.0142   -4.7440   15.1582 C   0  0  0  0  0  0  0  0  0  0  0  0
  -49.4962   -5.2960   16.3222 C   0  0  0  0  0  0  0  0  0  0  0  0
  -43.8462   -2.0470   17.4912 C   0  0  0  0  0  0  0  0  0  0  0  0
  -45.1512   -0.1330   18.0432 C   0  0  0  0  0  0  0  0  0  0  0  0
  -42.7922   -1.5320   18.2072 C   0  0  0  0  0  0  0  0  0  0  0  0
  -44.0972    0.3820   18.7582 C   0  0  0  0  0  0  0  0  0  0  0  0
  -42.9142   -0.3170   18.8422 C   0  0  0  0  0  0  0  0  0  0  0  0
  -49.3202   -2.9440   12.7822 H   0  0  0  0  0  0  0  0  0  0  0  0
  -50.9692   -6.3510   14.5302 H   0  0  0  0  0  0  0  0  0  0  0  0
  -50.4922   -6.9760   16.1202 H   0  0  0  0  0  0  0  0  0  0  0  0
  -46.2002   -0.3990   15.2022 H   0  0  0  0  0  0  0  0  0  0  0  0
  -48.0632   -5.0950   17.7892 H   0  0  0  0  0  0  0  0  0  0  0  0
  -43.7472   -2.9300   17.0342 H   0  0  0  0  0  0  0  0  0  0  0  0
  -46.0062    0.3810   17.9882 H   0  0  0  0  0  0  0  0  0  0  0  0
  -41.9332   -2.0410   18.2662 H   0  0  0  0  0  0  0  0  0  0  0  0
  -44.1892    1.2650   19.2182 H   0  0  0  0  0  0  0  0  0  0  0  0
  -42.1462    0.0570   19.3622 H   0  0  0  0  0  0  0  0  0  0  0  0
  1  7  1  0
  1  8  1  0
  2  9  1  0
  3 14  1  0
  4 15  1  0
  5 10  2  0
  6  7  2  0
  6  9  1  0
  6 10  1  0
  7 13  1  0
  8 11  2  0
  8 12  1  0
  9 14  2  0
 10 11  1  0
 12 16  2  0
 12 17  1  0
 13 15  2  0
 14 15  1  0
 16 18  1  0
 17 19  2  0
 18 20  2  0
 19 20  1  0
  2 21  1  0
  3 22  1  0
  4 23  1  0
 11 24  1  0
 13 25  1  0
 16 26  1  0
 17 27  1  0
 18 28  1  0
 19 29  1  0
 20 30  1  0
M  END
>  <BioMolTech Lead Finder dG>
-6.546

>  <BioMolTech Lead Finder VSscore>
-7.308

>  <BioMolTech Lead Finder Rank score>
-9.074

>  <BioMolTech Lead Finder LE>
-0.327

>  <BioMolTech Lead Finder Structure Name>
/var/folders/xd/y7jw_xv579q2qqq7kks92xd80000gn/T/LeadFinder_88757_1/Ligand_1.sdf

>  <BioMolTech Lead Finder SDF id>
0

>  <BioMolTech Lead Finder Pose rank>
0

>  <BioMolTech Lead Finder version>
2001 1, 19 January 2019

>  <PUBCHEM_COMPOUND_CID>
5281605

>  <PUBCHEM_COMPOUND_CANONICALIZED>
1

>  <PUBCHEM_CACTVS_COMPLEXITY>
413

>  <PUBCHEM_CACTVS_HBOND_ACCEPTOR>
5

>  <PUBCHEM_CACTVS_HBOND_DONOR>
3

>  <PUBCHEM_CACTVS_ROTATABLE_BOND>
1

>  <PUBCHEM_CACTVS_SUBSKEYS>
AAADccBwOAAAAAAAAAAAAAAAAAAAAAAAAAAwYIAAAAAAAACBQAAAGgAACAAADASAmAAwBoAABgCIAqBSAAACCAAkIAAIiAEGiMgNJzaGNRqCeWGl4BUJuQfK7LzOIQABCAAIQABCAAIQABCAAAAAAAAAAA==

>  <PUBCHEM_IUPAC_OPENEYE_NAME>
5,6,7-trihydroxy-2-phenyl-chromen-4-one

>  <PUBCHEM_IUPAC_CAS_NAME>
5,6,7-trihydroxy-2-phenyl-1-benzopyran-4-one

>  <PUBCHEM_IUPAC_NAME_MARKUP>
5,6,7-trihydroxy-2-phenylchromen-4-one

>  <PUBCHEM_IUPAC_NAME>
5,6,7-trihydroxy-2-phenylchromen-4-one

>  <PUBCHEM_IUPAC_SYSTEMATIC_NAME>
5,6,7-tris(oxidanyl)-2-phenyl-chromen-4-one

>  <PUBCHEM_IUPAC_TRADITIONAL_NAME>
5,6,7-trihydroxy-2-phenyl-chromone

>  <PUBCHEM_IUPAC_INCHI>
InChI=1S/C15H10O5/c16-9-6-11(8-4-2-1-3-5-8)20-12-7-10(17)14(18)15(19)13(9)12/h1-7,17-19H

>  <PUBCHEM_IUPAC_INCHIKEY>
FXNFHKRTJBSTCS-UHFFFAOYSA-N

>  <PUBCHEM_XLOGP3>
1.7

>  <PUBCHEM_EXACT_MASS>
270.052823

>  <PUBCHEM_MOLECULAR_FORMULA>
C15H10O5

>  <PUBCHEM_MOLECULAR_WEIGHT>
270.24

>  <PUBCHEM_OPENEYE_CAN_SMILES>
C1=CC=C(C=C1)C2=CC(=O)C3=C(O2)C=C(C(=C3O)O)O

>  <PUBCHEM_OPENEYE_ISO_SMILES>
C1=CC=C(C=C1)C2=CC(=O)C3=C(O2)C=C(C(=C3O)O)O

>  <PUBCHEM_CACTVS_TPSA>
87

>  <PUBCHEM_MONOISOTOPIC_WEIGHT>
270.052823

>  <PUBCHEM_TOTAL_CHARGE>
0

>  <PUBCHEM_HEAVY_ATOM_COUNT>
20

>  <PUBCHEM_ATOM_DEF_STEREO_COUNT>
0

>  <PUBCHEM_ATOM_UDEF_STEREO_COUNT>
0

>  <PUBCHEM_BOND_DEF_STEREO_COUNT>
0

>  <PUBCHEM_BOND_UDEF_STEREO_COUNT>
0

>  <PUBCHEM_ISOTOPIC_ATOM_COUNT>
0

>  <PUBCHEM_COMPONENT_COUNT>
1

>  <PUBCHEM_CACTVS_TAUTO_COUNT>
-1

>  <PUBCHEM_COORDINATE_TYPE>
1
5
255

>  <PUBCHEM_BONDANNOTATIONS>
1  7  8
1  8  8
10  11  8
12  16  8
12  17  8
13  15  8
14  15  8
16  18  8
17  19  8
18  20  8
19  20  8
6  10  8
6  7  8
6  9  8
7  13  8
8  11  8
9  14  8

>  <LF dG>
-6.546

>  <LF VSscore>
-7.308

>  <LF Rank Score>
-9.074

>  <LF LE>
-0.327

>  <Preferred Pose_cresset>
true

>  <Favorite_cresset>
false

>  <Protein_cresset>
6M2N_Monomer_P

>  <MW_cresset>
270.2

>  <#Atoms_cresset>
20

>  <SlogP_cresset>
2.3

>  <TPSA_cresset>
87

>  <Flexibility_cresset>
1.7

>  <#RB_cresset>
4

>  <Rof5_cresset>
0

>  <Filename_cresset>
Baicalein.sdf

>  <Confs_cresset>
0

>  <Poses_cresset>
10

>  <_cresset_fieldpoints>
    -5     -46.445702      -3.229539      19.160763     -3.5542
    -5     -45.027267      -2.256583      20.447117     -2.8370
    -5     -51.746887      -3.863886      13.280699    -13.1301
    -5     -50.036678      -1.050632      13.532759    -17.0745
    -5     -47.879990       0.544140      12.953831    -14.8626
    -5     -50.680748      -6.381096      18.636080     -6.4150
    -5     -42.727356       0.600054      15.855316     -2.2046
    -6     -46.499557      -5.937000      18.955671      1.7424
    -6     -42.004272      -4.297285      16.907761      3.0607
    -6     -50.817993      -8.145340      14.737762     16.9524
    -6     -48.170227      -3.994318      11.668936      5.5161
    -6     -46.401382       2.416907      18.906151      2.9795
    -6     -47.356144       1.473446      16.983494      2.7907
    -6     -44.665672      -4.062592      15.415018      3.4389
    -6     -42.361279       2.201443      20.470873      2.7759
    -6     -47.921738       0.801978      17.605358      2.7849
    -6     -40.052795      -1.224598      19.467632      2.7904
    -7     -47.014236      -3.036342      12.227102     -1.7698
    -7     -50.593941      -0.695307      13.545999     -1.6874
    -7     -52.727524      -6.426942      16.148548     -1.4816
    -7     -51.170830      -4.762950      12.019881     -1.3869
    -7     -46.671043      -5.623921      14.014616     -1.8278
    -7     -50.803154      -2.125332      17.548347     -1.8048
    -7     -49.244461      -7.952809      14.349245     -1.3738
    -7     -48.601124      -0.511651      17.777658     -2.5879
    -7     -45.030212      -3.779287      14.708925     -2.5855
    -7     -46.415817      -3.417099      19.520706     -2.4278
    -7     -39.723503      -1.191430      19.624540     -0.9674
    -7     -41.688515      -4.643719      17.350391     -0.9904
    -7     -42.209526       2.451968      20.678167     -0.9670
    -7     -43.617500       0.409040      15.022115     -2.0344
    -8     -47.413345      -2.266858      15.680408      5.0092
    -8     -48.916855      -4.116736      15.812302      6.5997
    -8     -43.977222      -0.834187      18.119944      7.1509

$$$$
Untitled
  xed2sdf_05210316543D
 
 30 32  0  0  0  0  0  0  0  0999 V2000
  -51.5695    2.8500   12.8021 O   0  0  0  0  0  0  0  0  0  0  0  0
  -47.2625    0.7440   12.1121 O   0  0  0  0  0  0  0  0  0  0  0  0
  -47.9845   -1.2040   13.8421 O   0  0  0  0  0  0  0  0  0  0  0  0
  -50.4575   -1.1520   15.0341 O   0  0  0  0  0  0  0  0  0  0  0  0
  -48.0395    3.0190   10.8441 O   0  0  0  0  0  0  0  0  0  0  0  0
  -49.3905    1.8480   12.3951 C   0  0  0  0  0  0  0  0  0  0  0  0
  -50.6445    1.8720   13.0151 C   0  0  0  0  0  0  0  0  0  0  0  0
  -51.2485    3.8820   11.9561 C   0  0  0  0  0  0  0  0  0  0  0  0
  -48.4965    0.8030   12.6841 C   0  0  0  0  0  0  0  0  0  0  0  0
  -49.0915    2.9320   11.4751 C   0  0  0  0  0  0  0  0  0  0  0  0
  -50.0605    3.9500   11.2891 C   0  0  0  0  0  0  0  0  0  0  0  0
  -52.2725    4.9470   11.7921 C   0  0  0  0  0  0  0  0  0  0  0  0
  -50.9825    0.8590   13.8931 C   0  0  0  0  0  0  0  0  0  0  0  0
  -48.8575   -0.1890   13.5621 C   0  0  0  0  0  0  0  0  0  0  0  0
  -50.1055   -0.1650   14.1691 C   0  0  0  0  0  0  0  0  0  0  0  0
  -52.3205    6.0790   12.5941 C   0  0  0  0  0  0  0  0  0  0  0  0
  -53.2295    4.8080   10.7981 C   0  0  0  0  0  0  0  0  0  0  0  0
  -53.2905    7.0340   12.4061 C   0  0  0  0  0  0  0  0  0  0  0  0
  -54.1985    5.7630   10.6101 C   0  0  0  0  0  0  0  0  0  0  0  0
  -54.2315    6.8790   11.4151 C   0  0  0  0  0  0  0  0  0  0  0  0
  -46.8485   -0.1650   12.1951 H   0  0  0  0  0  0  0  0  0  0  0  0
  -47.3855   -1.4000   13.0581 H   0  0  0  0  0  0  0  0  0  0  0  0
  -50.2895   -2.0630   14.6401 H   0  0  0  0  0  0  0  0  0  0  0  0
  -49.8735    4.7140   10.6721 H   0  0  0  0  0  0  0  0  0  0  0  0
  -51.8785    0.8700   14.3351 H   0  0  0  0  0  0  0  0  0  0  0  0
  -51.6415    6.2010   13.3181 H   0  0  0  0  0  0  0  0  0  0  0  0
  -53.2135    4.0000   10.2081 H   0  0  0  0  0  0  0  0  0  0  0  0
  -53.3115    7.8440   12.9921 H   0  0  0  0  0  0  0  0  0  0  0  0
  -54.8815    5.6470    9.8881 H   0  0  0  0  0  0  0  0  0  0  0  0
  -54.9365    7.5750   11.2791 H   0  0  0  0  0  0  0  0  0  0  0  0
  1  7  1  0
  1  8  1  0
  2  9  1  0
  3 14  1  0
  4 15  1  0
  5 10  2  0
  6  7  2  0
  6  9  1  0
  6 10  1  0
  7 13  1  0
  8 11  2  0
  8 12  1  0
  9 14  2  0
 10 11  1  0
 12 16  2  0
 12 17  1  0
 13 15  2  0
 14 15  1  0
 16 18  1  0
 17 19  2  0
 18 20  2  0
 19 20  1  0
  2 21  1  0
  3 22  1  0
  4 23  1  0
 11 24  1  0
 13 25  1  0
 16 26  1  0
 17 27  1  0
 18 28  1  0
 19 29  1  0
 20 30  1  0
M  END
>  <BioMolTech Lead Finder dG>
-4.973

>  <BioMolTech Lead Finder VSscore>
-6.577

>  <BioMolTech Lead Finder Rank score>
-9.348

>  <BioMolTech Lead Finder LE>
-0.249

>  <BioMolTech Lead Finder Structure Name>
/var/folders/xd/y7jw_xv579q2qqq7kks92xd80000gn/T/LeadFinder_88081_1/Ligand_1.sdf

>  <BioMolTech Lead Finder SDF id>
0

>  <BioMolTech Lead Finder Pose rank>
0

>  <BioMolTech Lead Finder version>
2001 1, 19 January 2019

>  <PUBCHEM_COMPOUND_CID>
5281605

>  <PUBCHEM_COMPOUND_CANONICALIZED>
1

>  <PUBCHEM_CACTVS_COMPLEXITY>
413

>  <PUBCHEM_CACTVS_HBOND_ACCEPTOR>
5

>  <PUBCHEM_CACTVS_HBOND_DONOR>
3

>  <PUBCHEM_CACTVS_ROTATABLE_BOND>
1

>  <PUBCHEM_CACTVS_SUBSKEYS>
AAADccBwOAAAAAAAAAAAAAAAAAAAAAAAAAAwYIAAAAAAAACBQAAAGgAACAAADASAmAAwBoAABgCIAqBSAAACCAAkIAAIiAEGiMgNJzaGNRqCeWGl4BUJuQfK7LzOIQABCAAIQABCAAIQABCAAAAAAAAAAA==

>  <PUBCHEM_IUPAC_OPENEYE_NAME>
5,6,7-trihydroxy-2-phenyl-chromen-4-one

>  <PUBCHEM_IUPAC_CAS_NAME>
5,6,7-trihydroxy-2-phenyl-1-benzopyran-4-one

>  <PUBCHEM_IUPAC_NAME_MARKUP>
5,6,7-trihydroxy-2-phenylchromen-4-one

>  <PUBCHEM_IUPAC_NAME>
5,6,7-trihydroxy-2-phenylchromen-4-one

>  <PUBCHEM_IUPAC_SYSTEMATIC_NAME>
5,6,7-tris(oxidanyl)-2-phenyl-chromen-4-one

>  <PUBCHEM_IUPAC_TRADITIONAL_NAME>
5,6,7-trihydroxy-2-phenyl-chromone

>  <PUBCHEM_IUPAC_INCHI>
InChI=1S/C15H10O5/c16-9-6-11(8-4-2-1-3-5-8)20-12-7-10(17)14(18)15(19)13(9)12/h1-7,17-19H

>  <PUBCHEM_IUPAC_INCHIKEY>
FXNFHKRTJBSTCS-UHFFFAOYSA-N

>  <PUBCHEM_XLOGP3>
1.7

>  <PUBCHEM_EXACT_MASS>
270.052823

>  <PUBCHEM_MOLECULAR_FORMULA>
C15H10O5

>  <PUBCHEM_MOLECULAR_WEIGHT>
270.24

>  <PUBCHEM_OPENEYE_CAN_SMILES>
C1=CC=C(C=C1)C2=CC(=O)C3=C(O2)C=C(C(=C3O)O)O

>  <PUBCHEM_OPENEYE_ISO_SMILES>
C1=CC=C(C=C1)C2=CC(=O)C3=C(O2)C=C(C(=C3O)O)O

>  <PUBCHEM_CACTVS_TPSA>
87

>  <PUBCHEM_MONOISOTOPIC_WEIGHT>
270.052823

>  <PUBCHEM_TOTAL_CHARGE>
0

>  <PUBCHEM_HEAVY_ATOM_COUNT>
20

>  <PUBCHEM_ATOM_DEF_STEREO_COUNT>
0

>  <PUBCHEM_ATOM_UDEF_STEREO_COUNT>
0

>  <PUBCHEM_BOND_DEF_STEREO_COUNT>
0

>  <PUBCHEM_BOND_UDEF_STEREO_COUNT>
0

>  <PUBCHEM_ISOTOPIC_ATOM_COUNT>
0

>  <PUBCHEM_COMPONENT_COUNT>
1

>  <PUBCHEM_CACTVS_TAUTO_COUNT>
-1

>  <PUBCHEM_COORDINATE_TYPE>
1
5
255

>  <PUBCHEM_BONDANNOTATIONS>
1  7  8
1  8  8
10  11  8
12  16  8
12  17  8
13  15  8
14  15  8
16  18  8
17  19  8
18  20  8
19  20  8
6  10  8
6  7  8
6  9  8
7  13  8
8  11  8
9  14  8

>  <LF dG>
-4.973

>  <LF VSscore>
-6.577

>  <LF Rank Score>
-9.348

>  <LF LE>
-0.249

>  <Preferred Pose_cresset>
true

>  <Favorite_cresset>
false

>  <Protein_cresset>
6M2N_Monomer_P

>  <MW_cresset>
270.2

>  <#Atoms_cresset>
20

>  <SlogP_cresset>
2.3

>  <TPSA_cresset>
87

>  <Flexibility_cresset>
1.7

>  <#RB_cresset>
4

>  <Rof5_cresset>
0

>  <Filename_cresset>
Baicalein.sdf

>  <Confs_cresset>
0

>  <Poses_cresset>
10

>  <_cresset_fieldpoints>
    -5     -53.418446       3.058788      13.665150     -3.8236
    -5     -50.054420      -0.746089      16.860489     -8.2725
    -5     -47.742416      -1.326039      15.737350     -6.9756
    -5     -46.434677       2.090747      11.031652    -22.2278
    -5     -54.836159       4.363117      13.509321     -2.9417
    -5     -51.723194       7.560385       9.672188     -2.3013
    -6     -53.975418       0.800820      14.554078      1.5210
    -6     -51.555847       8.036757      14.723790      2.8866
    -6     -52.357475       2.119857       9.835644      3.1017
    -6     -50.013241       5.333326      14.293882      2.7806
    -6     -46.249802      -1.895232      11.786299     16.6230
    -6     -50.168655      -3.506663      13.409679      8.3058
    -6     -54.624901       3.509204       8.517321      2.9746
    -6     -56.591881       7.270584       9.506578      2.7515
    -6     -54.993607       9.544748      12.682518      2.7399
    -7     -47.762619      -1.777249      10.749522     -1.3988
    -7     -51.771336       1.814594       9.858923     -2.6078
    -7     -46.050453       2.982301      12.431145     -1.6462
    -7     -45.572670      -0.274264      14.107054     -1.4752
    -7     -51.003792      -0.626971      10.676233     -1.8149
    -7     -48.832886      -3.465655      13.429481     -1.3733
    -7     -48.393951      -2.570358      15.885895     -1.4002
    -7     -52.742569      -2.074499      14.730865     -1.2156
    -7     -48.569511       2.868978      15.540045     -1.8167
    -7     -47.378441       0.884644       9.616924     -1.6789
    -7     -50.847404       6.994678       9.602716     -2.0523
    -7     -51.380844       8.368101      14.895155     -0.9873
    -7     -49.531586       4.801905      14.217478     -2.6073
    -7     -55.135338       9.864073      12.765226     -0.9674
    -7     -54.838814       3.511814       8.128026     -0.9922
    -7     -56.821983       7.485313       9.301712     -0.9669
    -7     -53.772987       2.958226      13.877419     -2.4578
    -8     -53.252838       5.919663      11.600730      7.1507
    -8     -49.766747       0.868754      13.274327      6.5996
    -8     -50.026741       2.883949      12.016710      5.0055

$$$$
W_Baicalin_D
  xed2sdf_05210316543D
 
 49 52  0  0  1  0  0  0  0  0999 V2000
  -48.2432   -2.1842   16.4162 O   0  0  0  0  0  0  0  0  0  0  0  0
  -50.4212   -3.1092   15.7362 O   0  0  0  0  0  0  0  0  0  0  0  0
  -48.1332    0.1368   12.9162 O   0  0  0  0  0  0  0  0  0  0  0  0
  -50.2052   -1.8142   13.2902 O   0  0  0  0  0  0  0  0  0  0  0  0
  -45.7332   -0.2632   14.4632 O   0  0  0  0  0  0  0  0  0  0  0  0
  -45.6882   -0.1792   17.1582 O   0  5  0  0  0  0  0  0  0  0  0  0
  -45.7462   -2.3302   17.9222 O   0  0  0  0  0  0  0  0  0  0  0  0
  -48.3342   -6.9282   17.6042 O   0  0  0  0  0  0  0  0  0  0  0  0
  -52.8792   -4.2932   15.9102 O   0  0  0  0  0  0  0  0  0  0  0  0
  -53.0892   -6.8162   16.9102 O   0  0  0  0  0  0  0  0  0  0  0  0
  -51.8842   -8.8552   17.8802 O   0  0  0  0  0  0  0  0  0  0  0  0
  -47.9722   -0.9782   13.8042 C   0  0  0  0  0  0  0  0  0  0  0  0
  -49.3362   -1.4252   14.3632 C   0  0  0  0  0  0  0  0  0  0  0  0
  -47.0342   -0.6022   14.9642 C   0  0  0  0  0  0  0  0  0  0  0  0
  -49.1252   -2.5962   15.3472 C   0  0  0  0  0  0  0  0  0  0  0  0
  -46.9382   -1.7932   15.9372 C   0  0  0  0  0  0  0  0  0  0  0  0
  -46.0552   -1.4042   17.0932 C   0  0  0  0  0  0  0  0  0  0  0  0
  -50.5012   -4.3522   16.2152 C   0  0  0  0  0  0  0  0  0  0  0  0
  -49.3812   -5.0402   16.6442 C   0  0  0  0  0  0  0  0  0  0  0  0
  -51.7532   -4.9562   16.3162 C   0  0  0  0  0  0  0  0  0  0  0  0
  -49.4742   -6.3152   17.1762 C   0  0  0  0  0  0  0  0  0  0  0  0
  -50.7322   -6.9142   17.2582 C   0  0  0  0  0  0  0  0  0  0  0  0
  -51.8682   -6.2262   16.8222 C   0  0  0  0  0  0  0  0  0  0  0  0
  -50.8152   -8.2492   17.8092 C   0  0  0  0  0  0  0  0  0  0  0  0
  -48.4382   -8.1732   18.1792 C   0  0  0  0  0  0  0  0  0  0  0  0
  -49.6212   -8.8482   18.2832 C   0  0  0  0  0  0  0  0  0  0  0  0
  -47.1782   -8.7712   18.6952 C   0  0  0  0  0  0  0  0  0  0  0  0
  -45.9992   -8.0532   18.5622 C   0  0  0  0  0  0  0  0  0  0  0  0
  -47.1222  -10.0162   19.3082 C   0  0  0  0  0  0  0  0  0  0  0  0
  -44.8072   -8.5572   19.0212 C   0  0  0  0  0  0  0  0  0  0  0  0
  -45.9292  -10.5212   19.7682 C   0  0  0  0  0  0  0  0  0  0  0  0
  -44.7692   -9.7932   19.6252 C   0  0  0  0  0  0  0  0  0  0  0  0
  -47.5692   -1.7342   13.2892 H   0  0  0  0  0  0  0  0  0  0  0  0
  -49.7642   -0.6642   14.8512 H   0  0  0  0  0  0  0  0  0  0  0  0
  -47.3992    0.1948   15.4462 H   0  0  0  0  0  0  0  0  0  0  0  0
  -48.6512   -3.3712   14.9302 H   0  0  0  0  0  0  0  0  0  0  0  0
  -46.5482   -2.5772   15.4542 H   0  0  0  0  0  0  0  0  0  0  0  0
  -48.2862   -0.1692   11.9702 H   0  0  0  0  0  0  0  0  0  0  0  0
  -49.7722   -1.6652   12.3952 H   0  0  0  0  0  0  0  0  0  0  0  0
  -45.6262   -0.5432   13.5032 H   0  0  0  0  0  0  0  0  0  0  0  0
  -53.3092   -4.7342   15.1162 H   0  0  0  0  0  0  0  0  0  0  0  0
  -53.1792   -7.5772   16.2572 H   0  0  0  0  0  0  0  0  0  0  0  0
  -48.4832   -4.6072   16.5682 H   0  0  0  0  0  0  0  0  0  0  0  0
  -49.6442   -9.7612   18.6922 H   0  0  0  0  0  0  0  0  0  0  0  0
  -46.0172   -7.1542   18.1242 H   0  0  0  0  0  0  0  0  0  0  0  0
  -47.9592  -10.5522   19.4162 H   0  0  0  0  0  0  0  0  0  0  0  0
  -43.9662   -8.0262   18.9172 H   0  0  0  0  0  0  0  0  0  0  0  0
  -45.9032  -11.4192   20.2072 H   0  0  0  0  0  0  0  0  0  0  0  0
  -43.9022  -10.1622   19.9592 H   0  0  0  0  0  0  0  0  0  0  0  0
  1 15  1  0
  1 16  1  0
  2 18  1  0
  6 17  1  0
  7 17  2  0
  8 21  1  0
  8 25  1  0
  9 20  1  0
 10 23  1  0
 11 24  2  0
 12  3  1  0
 12 13  1  0
 12 14  1  0
 13  4  1  0
 13 15  1  0
 14  5  1  0
 14 16  1  0
 15  2  1  0
 16 17  1  0
 18 19  2  0
 18 20  1  0
 19 21  1  0
 20 23  2  0
 21 22  2  0
 22 23  1  0
 22 24  1  0
 24 26  1  0
 25 26  2  0
 25 27  1  0
 27 28  2  0
 27 29  1  0
 28 30  1  0
 29 31  2  0
 30 32  2  0
 31 32  1  0
  3 38  1  0
  4 39  1  0
  5 40  1  0
  9 41  1  0
 10 42  1  0
 12 33  1  0
 13 34  1  0
 14 35  1  0
 15 36  1  0
 16 37  1  0
 19 43  1  0
 26 44  1  0
 28 45  1  0
 29 46  1  0
 30 47  1  0
 31 48  1  0
 32 49  1  0
M  CHG  1   6  -1
M  END
>  <BioMolTech Lead Finder dG>
-5.937

>  <BioMolTech Lead Finder VSscore>
-9.543

>  <BioMolTech Lead Finder Rank score>
-9.344

>  <BioMolTech Lead Finder LE>
-0.186

>  <BioMolTech Lead Finder Structure Name>
/var/folders/xd/y7jw_xv579q2qqq7kks92xd80000gn/T/LeadFinder_88758_1/Ligand_1.sdf

>  <BioMolTech Lead Finder SDF id>
0

>  <BioMolTech Lead Finder Pose rank>
0

>  <BioMolTech Lead Finder version>
2001 1, 19 January 2019

>  <PUBCHEM_COMPOUND_CID>
64982

>  <PUBCHEM_COMPOUND_CANONICALIZED>
1

>  <PUBCHEM_CACTVS_COMPLEXITY>
748

>  <PUBCHEM_CACTVS_HBOND_ACCEPTOR>
11

>  <PUBCHEM_CACTVS_HBOND_DONOR>
6

>  <PUBCHEM_CACTVS_ROTATABLE_BOND>
4

>  <PUBCHEM_CACTVS_SUBSKEYS>
AAADceB4PAAAAAAAAAAAAAAAAAAAAAAAAAA0YIEAAAAAAACBQAAAGgAACAAADBSwmAMwDoAABgCIAqDSCAICCAAkIAAIiAFGiMgdNzaGNR6ieWOl4BUPuQfK7LzOIQABCAAIQABCAAIQABCAAAAAAAAAAA==

>  <PUBCHEM_IUPAC_OPENEYE_NAME>
(2S,3S,4S,5R,6S)-6-(5,6-dihydroxy-4-oxo-2-phenyl-chromen-7-yl)oxy-3,4,5-trihydroxy-tetrahydropyran-2-carboxylic acid

>  <PUBCHEM_IUPAC_CAS_NAME>
(2S,3S,4S,5R,6S)-6-[(5,6-dihydroxy-4-oxo-2-phenyl-1-benzopyran-7-yl)oxy]-3,4,5-trihydroxy-2-oxanecarboxylic acid

>  <PUBCHEM_IUPAC_NAME_MARKUP>
(2<I>S</I>,3<I>S</I>,4<I>S</I>,5<I>R</I>,6<I>S</I>)-6-(5,6-dihydroxy-4-oxo-2-phenylchromen-7-yl)oxy-3,4,5-trihydroxyoxane-2-carboxylic acid

>  <PUBCHEM_IUPAC_NAME>
(2S,3S,4S,5R,6S)-6-(5,6-dihydroxy-4-oxo-2-phenylchromen-7-yl)oxy-3,4,5-trihydroxyoxane-2-carboxylic acid

>  <PUBCHEM_IUPAC_SYSTEMATIC_NAME>
(2S,3S,4S,5R,6S)-6-[5,6-bis(oxidanyl)-4-oxidanylidene-2-phenyl-chromen-7-yl]oxy-3,4,5-tris(oxidanyl)oxane-2-carboxylic acid

>  <PUBCHEM_IUPAC_TRADITIONAL_NAME>
(2S,3S,4S,5R,6S)-6-(5,6-dihydroxy-4-keto-2-phenyl-chromen-7-yl)oxy-3,4,5-trihydroxy-tetrahydropyran-2-carboxylic acid

>  <PUBCHEM_IUPAC_INCHI>
InChI=1S/C21H18O11/c22-9-6-10(8-4-2-1-3-5-8)30-11-7-12(14(23)15(24)13(9)11)31-21-18(27)16(25)17(26)19(32-21)20(28)29/h1-7,16-19,21,23-27H,(H,28,29)/t16-,17-,18+,19-,21+/m0/s1

>  <PUBCHEM_IUPAC_INCHIKEY>
IKIIZLYTISPENI-ZFORQUDYSA-N

>  <PUBCHEM_XLOGP3_AA>
1.1

>  <PUBCHEM_EXACT_MASS>
446.084911

>  <PUBCHEM_MOLECULAR_FORMULA>
C21H18O11

>  <PUBCHEM_MOLECULAR_WEIGHT>
446.4

>  <PUBCHEM_OPENEYE_CAN_SMILES>
C1=CC=C(C=C1)C2=CC(=O)C3=C(C(=C(C=C3O2)OC4C(C(C(C(O4)C(=O)O)O)O)O)O)O

>  <PUBCHEM_OPENEYE_ISO_SMILES>
C1=CC=C(C=C1)C2=CC(=O)C3=C(C(=C(C=C3O2)O[C@H]4[C@@H]([C@H]([C@@H]([C@H](O4)C(=O)O)O)O)O)O)O

>  <PUBCHEM_CACTVS_TPSA>
183

>  <PUBCHEM_MONOISOTOPIC_WEIGHT>
446.084911

>  <PUBCHEM_TOTAL_CHARGE>
0

>  <PUBCHEM_HEAVY_ATOM_COUNT>
32

>  <PUBCHEM_ATOM_DEF_STEREO_COUNT>
5

>  <PUBCHEM_ATOM_UDEF_STEREO_COUNT>
0

>  <PUBCHEM_BOND_DEF_STEREO_COUNT>
0

>  <PUBCHEM_BOND_UDEF_STEREO_COUNT>
0

>  <PUBCHEM_ISOTOPIC_ATOM_COUNT>
0

>  <PUBCHEM_COMPONENT_COUNT>
1

>  <PUBCHEM_CACTVS_TAUTO_COUNT>
-1

>  <PUBCHEM_COORDINATE_TYPE>
1
5
255

>  <PUBCHEM_BONDANNOTATIONS>
16  17  5
18  19  8
18  20  8
19  21  8
15  2  5
20  23  8
21  22  8
22  23  8
22  24  8
24  26  8
25  26  8
27  28  8
27  29  8
28  30  8
29  31  8
12  3  5
30  32  8
31  32  8
13  4  6
14  5  6
8  21  8
8  25  8

>  <LF dG>
-5.937

>  <LF VSscore>
-9.543

>  <LF Rank Score>
-9.344

>  <LF LE>
-0.186

>  <Preferred Pose_cresset>
true

>  <Favorite_cresset>
false

>  <Protein_cresset>
6M2N_Monomer_P

>  <MW_cresset>
445.4

>  <#Atoms_cresset>
32

>  <SlogP_cresset>
1.1

>  <TPSA_cresset>
186

>  <Flexibility_cresset>
7.6

>  <#RB_cresset>
9

>  <Rof5_cresset>
1

>  <Filename_cresset>
Baicalin.sdf

>  <Confs_cresset>
0

>  <Poses_cresset>
10

>  <_cresset_fieldpoints>
    -5     -44.627441      -0.065590      18.656727    -12.3070
    -5     -48.960594      -2.027770      18.184830     -9.5191
    -5     -51.834801      -2.392405      14.111822    -15.9517
    -5     -52.565712      -2.420222      15.666822    -13.1182
    -5     -44.958488       0.909996      15.762955    -17.9684
    -5     -47.637878       1.887541      13.512228    -11.6792
    -5     -46.908630      -3.774112      18.398756     -7.9150
    -5     -53.436756      -7.893476      18.454178    -19.1299
    -5     -52.709450     -10.320837      18.764896    -15.0960
    -5     -45.328995     -10.565754      16.612152     -2.4944
    -5     -44.685471      -1.288241      19.127979    -11.8201
    -5     -46.322006      -7.922169      21.736984     -2.9482
    -6     -48.374580      -1.779498      11.091187     19.4699
    -6     -46.900757      -3.710624      13.569960      9.9412
    -6     -53.621925      -6.529940      14.529306      9.9214
    -6     -46.255547      -1.059754      11.770605     13.8128
    -6     -49.425987     -11.855512      19.512081      3.8195
    -6     -43.956299     -12.432856      21.010777      2.6997
    -6     -41.833103      -9.232203      19.817352      2.5749
    -7     -48.229469      -2.858124      18.730198     -2.5828
    -7     -49.272949      -0.285179      17.586405     -2.3753
    -7     -52.299377      -2.930966      13.699760     -2.3881
    -7     -46.181831       1.530664      12.628578     -1.5693
    -7     -48.298943      -2.366976      10.865728     -1.3280
    -7     -50.486931       0.568938      12.157629     -1.6277
    -7     -49.176414       1.980905      14.281523     -1.5887
    -7     -50.450798      -4.221631      12.902037     -2.4303
    -7     -45.112427      -2.781414      13.282858     -1.7791
    -7     -50.854782      -4.528840      19.763905     -1.8854
    -7     -44.066643      -2.039516      14.431967     -1.6733
    -7     -44.329208      -0.595368      19.306736     -0.8492
    -7     -47.273170      -7.884023      15.390287     -2.3694
    -7     -55.109959      -5.818444      16.045906     -1.4895
    -7     -50.089371      -6.714915      13.747287     -1.9431
    -7     -53.505295      -6.831530      14.036177     -1.4106
    -7     -53.564583      -7.600033      19.281063     -1.6783
    -7     -51.930428      -9.307602      15.237568     -1.7758
    -7     -45.661457     -10.587902      16.202171     -1.7827
    -7     -41.508141      -8.852463      19.781208     -0.9671
    -7     -46.231071      -4.713959      17.501476     -3.0115
    -7     -49.349834      -6.657741      20.503117     -2.4393
    -7     -43.628738     -12.608166      21.149200     -0.9674
    -7     -46.715115      -7.802940      21.957792     -1.7867
    -7     -48.455528      -8.931971      15.372541     -2.3843
    -8     -48.005199      -1.515112      14.744244      5.1711
    -8     -50.586342      -5.655681      16.747849      6.6070
    -8     -49.879326      -7.708751      17.753441      5.0240
    -8     -45.969376      -9.285525      19.163960      7.1485
    -8     -48.170143      -9.233990      18.732475      5.4375

$$$$
Untitled
  xed2sdf_05210316543D
 
 49 52  0  0  1  0  0  0  0  0999 V2000
  -52.4463   -2.2508   15.0757 O   0  0  0  0  0  0  0  0  0  0  0  0
  -50.2823   -1.0848   15.2077 O   0  0  0  0  0  0  0  0  0  0  0  0
  -50.4893   -5.9388   15.5617 O   0  0  0  0  0  0  0  0  0  0  0  0
  -48.9663   -3.5298   15.2207 O   0  0  0  0  0  0  0  0  0  0  0  0
  -53.2063   -5.8568   14.5957 O   0  0  0  0  0  0  0  0  0  0  0  0
  -54.9533   -3.3158   16.0527 O   0  5  0  0  0  0  0  0  0  0  0  0
  -55.3713   -3.2958   13.8077 O   0  0  0  0  0  0  0  0  0  0  0  0
  -51.5623    2.8472   12.9007 O   0  0  0  0  0  0  0  0  0  0  0  0
  -47.8973   -1.1638   13.8717 O   0  0  0  0  0  0  0  0  0  0  0  0
  -47.3293    0.7472   12.0187 O   0  0  0  0  0  0  0  0  0  0  0  0
  -48.1083    2.8532   10.7887 O   0  0  0  0  0  0  0  0  0  0  0  0
  -51.0443   -4.7748   14.9307 C   0  0  0  0  0  0  0  0  0  0  0  0
  -50.3783   -3.4968   15.4757 C   0  0  0  0  0  0  0  0  0  0  0  0
  -52.5623   -4.7118   15.1717 C   0  0  0  0  0  0  0  0  0  0  0  0
  -51.0243   -2.2618   14.8117 C   0  0  0  0  0  0  0  0  0  0  0  0
  -53.1143   -3.4168   14.5457 C   0  0  0  0  0  0  0  0  0  0  0  0
  -54.5933   -3.3378   14.8237 C   0  0  0  0  0  0  0  0  0  0  0  0
  -50.0283   -0.1478   14.2917 C   0  0  0  0  0  0  0  0  0  0  0  0
  -50.9273    0.8682   14.0227 C   0  0  0  0  0  0  0  0  0  0  0  0
  -48.8103   -0.1768   13.6167 C   0  0  0  0  0  0  0  0  0  0  0  0
  -50.6433    1.8602   13.0997 C   0  0  0  0  0  0  0  0  0  0  0  0
  -49.4263    1.8102   12.4197 C   0  0  0  0  0  0  0  0  0  0  0  0
  -48.5143    0.7852   12.6837 C   0  0  0  0  0  0  0  0  0  0  0  0
  -49.1453    2.8492   11.4527 C   0  0  0  0  0  0  0  0  0  0  0  0
  -51.2543    3.8592   12.0207 C   0  0  0  0  0  0  0  0  0  0  0  0
  -50.0993    3.8862   11.2927 C   0  0  0  0  0  0  0  0  0  0  0  0
  -52.2563    4.9502   11.8897 C   0  0  0  0  0  0  0  0  0  0  0  0
  -53.4113    4.8872   12.6547 C   0  0  0  0  0  0  0  0  0  0  0  0
  -52.0933    6.0352   11.0367 C   0  0  0  0  0  0  0  0  0  0  0  0
  -54.3693    5.8682   12.5737 C   0  0  0  0  0  0  0  0  0  0  0  0
  -53.0523    7.0162   10.9557 C   0  0  0  0  0  0  0  0  0  0  0  0
  -54.1913    6.9352   11.7227 C   0  0  0  0  0  0  0  0  0  0  0  0
  -50.8703   -4.8368   13.9487 H   0  0  0  0  0  0  0  0  0  0  0  0
  -50.5153   -3.4428   16.4647 H   0  0  0  0  0  0  0  0  0  0  0  0
  -52.7453   -4.7128   16.1547 H   0  0  0  0  0  0  0  0  0  0  0  0
  -50.9663   -2.2848   13.8137 H   0  0  0  0  0  0  0  0  0  0  0  0
  -52.9503   -3.4358   13.5587 H   0  0  0  0  0  0  0  0  0  0  0  0
  -50.9763   -6.7728   15.2807 H   0  0  0  0  0  0  0  0  0  0  0  0
  -48.7233   -4.2828   14.5997 H   0  0  0  0  0  0  0  0  0  0  0  0
  -52.6633   -6.6918   14.7377 H   0  0  0  0  0  0  0  0  0  0  0  0
  -47.3293   -1.3668   13.0677 H   0  0  0  0  0  0  0  0  0  0  0  0
  -46.9053   -0.1628   12.0717 H   0  0  0  0  0  0  0  0  0  0  0  0
  -51.8023    0.8862   14.5057 H   0  0  0  0  0  0  0  0  0  0  0  0
  -49.9273    4.6332   10.6507 H   0  0  0  0  0  0  0  0  0  0  0  0
  -53.5483    4.1152   13.2757 H   0  0  0  0  0  0  0  0  0  0  0  0
  -51.2683    6.1022   10.4757 H   0  0  0  0  0  0  0  0  0  0  0  0
  -55.1963    5.8062   13.1337 H   0  0  0  0  0  0  0  0  0  0  0  0
  -52.9213    7.7912   10.3377 H   0  0  0  0  0  0  0  0  0  0  0  0
  -54.8893    7.6492   11.6627 H   0  0  0  0  0  0  0  0  0  0  0  0
  1 15  1  0
  1 16  1  0
  2 18  1  0
  6 17  1  0
  7 17  2  0
  8 21  1  0
  8 25  1  0
  9 20  1  0
 10 23  1  0
 11 24  2  0
 12  3  1  0
 12 13  1  0
 12 14  1  0
 13  4  1  0
 13 15  1  0
 14  5  1  0
 14 16  1  0
 15  2  1  0
 16 17  1  0
 18 19  2  0
 18 20  1  0
 19 21  1  0
 20 23  2  0
 21 22  2  0
 22 23  1  0
 22 24  1  0
 24 26  1  0
 25 26  2  0
 25 27  1  0
 27 28  2  0
 27 29  1  0
 28 30  1  0
 29 31  2  0
 30 32  2  0
 31 32  1  0
  3 38  1  0
  4 39  1  0
  5 40  1  0
  9 41  1  0
 10 42  1  0
 12 33  1  0
 13 34  1  0
 14 35  1  0
 15 36  1  0
 16 37  1  0
 19 43  1  0
 26 44  1  0
 28 45  1  0
 29 46  1  0
 30 47  1  0
 31 48  1  0
 32 49  1  0
M  CHG  1   6  -1
M  END
>  <BioMolTech Lead Finder dG>
-4.114

>  <BioMolTech Lead Finder VSscore>
-9.404

>  <BioMolTech Lead Finder Rank score>
-10.354

>  <BioMolTech Lead Finder LE>
-0.129

>  <BioMolTech Lead Finder Structure Name>
/var/folders/xd/y7jw_xv579q2qqq7kks92xd80000gn/T/LeadFinder_88079_1/Ligand_1.sdf

>  <BioMolTech Lead Finder SDF id>
0

>  <BioMolTech Lead Finder Pose rank>
0

>  <BioMolTech Lead Finder version>
2001 1, 19 January 2019

>  <PUBCHEM_COMPOUND_CID>
64982

>  <PUBCHEM_COMPOUND_CANONICALIZED>
1

>  <PUBCHEM_CACTVS_COMPLEXITY>
748

>  <PUBCHEM_CACTVS_HBOND_ACCEPTOR>
11

>  <PUBCHEM_CACTVS_HBOND_DONOR>
6

>  <PUBCHEM_CACTVS_ROTATABLE_BOND>
4

>  <PUBCHEM_CACTVS_SUBSKEYS>
AAADceB4PAAAAAAAAAAAAAAAAAAAAAAAAAA0YIEAAAAAAACBQAAAGgAACAAADBSwmAMwDoAABgCIAqDSCAICCAAkIAAIiAFGiMgdNzaGNR6ieWOl4BUPuQfK7LzOIQABCAAIQABCAAIQABCAAAAAAAAAAA==

>  <PUBCHEM_IUPAC_OPENEYE_NAME>
(2S,3S,4S,5R,6S)-6-(5,6-dihydroxy-4-oxo-2-phenyl-chromen-7-yl)oxy-3,4,5-trihydroxy-tetrahydropyran-2-carboxylic acid

>  <PUBCHEM_IUPAC_CAS_NAME>
(2S,3S,4S,5R,6S)-6-[(5,6-dihydroxy-4-oxo-2-phenyl-1-benzopyran-7-yl)oxy]-3,4,5-trihydroxy-2-oxanecarboxylic acid

>  <PUBCHEM_IUPAC_NAME_MARKUP>
(2<I>S</I>,3<I>S</I>,4<I>S</I>,5<I>R</I>,6<I>S</I>)-6-(5,6-dihydroxy-4-oxo-2-phenylchromen-7-yl)oxy-3,4,5-trihydroxyoxane-2-carboxylic acid

>  <PUBCHEM_IUPAC_NAME>
(2S,3S,4S,5R,6S)-6-(5,6-dihydroxy-4-oxo-2-phenylchromen-7-yl)oxy-3,4,5-trihydroxyoxane-2-carboxylic acid

>  <PUBCHEM_IUPAC_SYSTEMATIC_NAME>
(2S,3S,4S,5R,6S)-6-[5,6-bis(oxidanyl)-4-oxidanylidene-2-phenyl-chromen-7-yl]oxy-3,4,5-tris(oxidanyl)oxane-2-carboxylic acid

>  <PUBCHEM_IUPAC_TRADITIONAL_NAME>
(2S,3S,4S,5R,6S)-6-(5,6-dihydroxy-4-keto-2-phenyl-chromen-7-yl)oxy-3,4,5-trihydroxy-tetrahydropyran-2-carboxylic acid

>  <PUBCHEM_IUPAC_INCHI>
InChI=1S/C21H18O11/c22-9-6-10(8-4-2-1-3-5-8)30-11-7-12(14(23)15(24)13(9)11)31-21-18(27)16(25)17(26)19(32-21)20(28)29/h1-7,16-19,21,23-27H,(H,28,29)/t16-,17-,18+,19-,21+/m0/s1

>  <PUBCHEM_IUPAC_INCHIKEY>
IKIIZLYTISPENI-ZFORQUDYSA-N

>  <PUBCHEM_XLOGP3_AA>
1.1

>  <PUBCHEM_EXACT_MASS>
446.084911

>  <PUBCHEM_MOLECULAR_FORMULA>
C21H18O11

>  <PUBCHEM_MOLECULAR_WEIGHT>
446.4

>  <PUBCHEM_OPENEYE_CAN_SMILES>
C1=CC=C(C=C1)C2=CC(=O)C3=C(C(=C(C=C3O2)OC4C(C(C(C(O4)C(=O)O)O)O)O)O)O

>  <PUBCHEM_OPENEYE_ISO_SMILES>
C1=CC=C(C=C1)C2=CC(=O)C3=C(C(=C(C=C3O2)O[C@H]4[C@@H]([C@H]([C@@H]([C@H](O4)C(=O)O)O)O)O)O)O

>  <PUBCHEM_CACTVS_TPSA>
183

>  <PUBCHEM_MONOISOTOPIC_WEIGHT>
446.084911

>  <PUBCHEM_TOTAL_CHARGE>
0

>  <PUBCHEM_HEAVY_ATOM_COUNT>
32

>  <PUBCHEM_ATOM_DEF_STEREO_COUNT>
5

>  <PUBCHEM_ATOM_UDEF_STEREO_COUNT>
0

>  <PUBCHEM_BOND_DEF_STEREO_COUNT>
0

>  <PUBCHEM_BOND_UDEF_STEREO_COUNT>
0

>  <PUBCHEM_ISOTOPIC_ATOM_COUNT>
0

>  <PUBCHEM_COMPONENT_COUNT>
1

>  <PUBCHEM_CACTVS_TAUTO_COUNT>
-1

>  <PUBCHEM_COORDINATE_TYPE>
1
5
255

>  <PUBCHEM_BONDANNOTATIONS>
16  17  5
18  19  8
18  20  8
19  21  8
15  2  5
20  23  8
21  22  8
22  23  8
22  24  8
24  26  8
25  26  8
27  28  8
27  29  8
28  30  8
29  31  8
12  3  5
30  32  8
31  32  8
13  4  6
14  5  6
8  21  8
8  25  8

>  <LF dG>
-4.114

>  <LF VSscore>
-9.404

>  <LF Rank Score>
-10.354

>  <LF LE>
-0.129

>  <Preferred Pose_cresset>
true

>  <Favorite_cresset>
false

>  <Protein_cresset>
6M2N_Monomer_P

>  <MW_cresset>
445.4

>  <#Atoms_cresset>
32

>  <SlogP_cresset>
1.1

>  <TPSA_cresset>
186

>  <Flexibility_cresset>
7.6

>  <#RB_cresset>
9

>  <Rof5_cresset>
1

>  <Filename_cresset>
Baicalin.sdf

>  <Confs_cresset>
0

>  <Poses_cresset>
10

>  <_cresset_fieldpoints>
    -5     -53.322655      -1.971630      17.009068     -8.6726
    -5     -56.779861      -3.214191      15.992844    -10.7483
    -5     -47.992405      -2.057957      15.867647    -14.3978
    -5     -55.047928      -5.952691      14.077574     -7.1608
    -5     -57.050720      -3.212777      14.565019    -10.5534
    -5     -54.614059       4.343301       9.729654     -4.2318
    -5     -46.370922       2.155324      10.925320    -13.9166
    -5     -47.043564       3.843439       9.602081    -11.6999
    -5     -51.813370       7.268923      14.077223     -4.5370
    -6     -51.514378      -7.804246      14.041576     12.4411
    -6     -48.941147      -4.604308      12.788702      7.9573
    -6     -46.615864      -1.875624      11.600590      9.4817
    -6     -50.913269       7.902898       8.913891      2.0349
    -6     -56.940674       7.781049      12.828829      1.7689
    -6     -54.591194       9.586395      10.094636      2.0170
    -7     -52.908913      -2.271963      17.509048     -2.4592
    -7     -49.616318       4.845691      14.225712     -2.4352
    -7     -48.198425      -5.711663      16.373112     -1.5342
    -7     -48.810303      -3.254492      12.574970     -2.8580
    -7     -45.485931      -0.163339      13.904657     -1.5035
    -7     -53.428299      -0.375116      16.003204     -2.3765
    -7     -50.969475      -3.498290      11.678284     -2.0877
    -7     -50.993244      -5.791418      17.982615     -1.6355
    -7     -55.355453      -6.013193      15.936579     -1.5211
    -7     -54.648064      -5.564756      12.660320     -1.6973
    -7     -52.737213      -5.835485      12.171589     -1.7631
    -7     -53.156708       1.779267      11.035709     -2.3607
    -7     -52.332500      -1.271360      11.910042     -2.5200
    -7     -46.127918       3.025295      12.379035     -1.6634
    -7     -47.712318      -1.802109      16.290476     -2.2945
    -7     -52.183472       1.847799      10.138079     -2.3841
    -7     -47.656746       0.681724       9.537270     -1.7006
    -7     -48.441460       2.846450      15.539629     -1.8543
    -7     -51.562428       7.402231      14.187159     -1.7866
    -7     -55.753742       8.384907      14.352686     -0.9549
    -7     -54.537594       4.134158       9.448959     -1.7823
    -7     -54.691818       9.860170      10.066043     -0.9674
    -7     -57.232727       7.627252      13.070543     -0.9671
    -8     -49.750912       0.856355      13.342463      6.6097
    -8     -50.050285       2.844678      12.046062      5.0212
    -8     -53.224312       5.947329      11.803967      7.1484
    -8     -51.583160      -3.837619      14.871847      5.1604
    -8     -51.304401       4.882609      11.344290      5.4377

$$$$
W_Forsythoside E_D
  xed2sdf_05210316543D
 
 62 64  0  0  1  0  0  0  0  0999 V2000
  -48.6470    0.1663   14.1034 O   0  0  0  0  0  0  0  0  0  0  0  0
  -45.6990   -0.0207   15.9154 O   0  0  0  0  0  0  0  0  0  0  0  0
  -46.4040   -1.1717   17.9254 O   0  0  0  0  0  0  0  0  0  0  0  0
  -47.0860   -3.1187   14.9264 O   0  0  0  0  0  0  0  0  0  0  0  0
  -50.9380    0.7533   13.6434 O   0  0  0  0  0  0  0  0  0  0  0  0
  -49.5880   -3.9047   13.7754 O   0  0  0  0  0  0  0  0  0  0  0  0
  -51.7010   -1.9377   13.9654 O   0  0  0  0  0  0  0  0  0  0  0  0
  -44.0270   -2.8777   17.5474 O   0  0  0  0  0  0  0  0  0  0  0  0
  -42.2750   -0.9387   18.5154 O   0  0  0  0  0  0  0  0  0  0  0  0
  -44.0590    0.5693   20.2214 O   0  0  0  0  0  0  0  0  0  0  0  0
  -51.8400    4.6743    9.6794 O   0  0  0  0  0  0  0  0  0  0  0  0
  -51.4000    7.0723   10.9564 O   0  0  0  0  0  0  0  0  0  0  0  0
  -47.7600   -0.7497   14.7794 C   0  0  0  0  0  0  0  0  0  0  0  0
  -47.9250   -2.1847   14.2294 C   0  0  0  0  0  0  0  0  0  0  0  0
  -49.3960   -2.6167   14.3764 C   0  0  0  0  0  0  0  0  0  0  0  0
  -50.3320   -1.5847   13.7194 C   0  0  0  0  0  0  0  0  0  0  0  0
  -44.1360   -1.5337   17.0564 C   0  0  0  0  0  0  0  0  0  0  0  0
  -45.6080   -1.2117   16.7224 C   0  0  0  0  0  0  0  0  0  0  0  0
  -43.5910   -0.5397   18.1014 C   0  0  0  0  0  0  0  0  0  0  0  0
  -44.5220   -0.4557   19.3274 C   0  0  0  0  0  0  0  0  0  0  0  0
  -50.0410   -0.1777   14.2754 C   0  0  0  0  0  0  0  0  0  0  0  0
  -46.3020   -0.2767   14.6314 C   0  0  0  0  0  0  0  0  0  0  0  0
  -45.9610   -0.1627   18.8564 C   0  0  0  0  0  0  0  0  0  0  0  0
  -46.9060   -0.1347   20.0674 C   0  0  0  0  0  0  0  0  0  0  0  0
  -51.4050    1.7623   14.5524 C   0  0  0  0  0  0  0  0  0  0  0  0
  -52.6430    2.4623   13.9664 C   0  0  0  0  0  0  0  0  0  0  0  0
  -52.3110    3.6993   13.1494 C   0  0  0  0  0  0  0  0  0  0  0  0
  -52.2270    3.6253   11.7754 C   0  0  0  0  0  0  0  0  0  0  0  0
  -52.0940    4.9023   13.7834 C   0  0  0  0  0  0  0  0  0  0  0  0
  -51.9230    4.7493   11.0374 C   0  0  0  0  0  0  0  0  0  0  0  0
  -51.7900    6.0303   13.0524 C   0  0  0  0  0  0  0  0  0  0  0  0
  -51.7030    5.9573   11.6794 C   0  0  0  0  0  0  0  0  0  0  0  0
  -47.9970   -0.7647   15.7504 H   0  0  0  0  0  0  0  0  0  0  0  0
  -47.6540   -2.1827   13.2674 H   0  0  0  0  0  0  0  0  0  0  0  0
  -49.6170   -2.6697   15.3504 H   0  0  0  0  0  0  0  0  0  0  0  0
  -50.1690   -1.5837   12.7324 H   0  0  0  0  0  0  0  0  0  0  0  0
  -43.5920   -1.4467   16.2214 H   0  0  0  0  0  0  0  0  0  0  0  0
  -45.9930   -1.9467   16.1644 H   0  0  0  0  0  0  0  0  0  0  0  0
  -43.5480    0.3653   17.6784 H   0  0  0  0  0  0  0  0  0  0  0  0
  -44.5150   -1.3267   19.8184 H   0  0  0  0  0  0  0  0  0  0  0  0
  -50.2040   -0.1457   15.2614 H   0  0  0  0  0  0  0  0  0  0  0  0
  -45.9720    0.7263   18.3994 H   0  0  0  0  0  0  0  0  0  0  0  0
  -46.8660   -3.9157   14.3534 H   0  0  0  0  0  0  0  0  0  0  0  0
  -48.7240   -4.4187   13.7264 H   0  0  0  0  0  0  0  0  0  0  0  0
  -51.8590   -2.9187   13.8104 H   0  0  0  0  0  0  0  0  0  0  0  0
  -43.7850   -3.5187   16.8104 H   0  0  0  0  0  0  0  0  0  0  0  0
  -41.9310   -1.6997   17.9554 H   0  0  0  0  0  0  0  0  0  0  0  0
  -44.0430    1.4683   19.7694 H   0  0  0  0  0  0  0  0  0  0  0  0
  -51.1940    3.9603    9.3884 H   0  0  0  0  0  0  0  0  0  0  0  0
  -50.4250    7.3073   11.0354 H   0  0  0  0  0  0  0  0  0  0  0  0
  -45.7750   -0.9827   14.1584 H   0  0  0  0  0  0  0  0  0  0  0  0
  -46.3010    0.5753   14.1084 H   0  0  0  0  0  0  0  0  0  0  0  0
  -46.3770   -0.3137   20.8974 H   0  0  0  0  0  0  0  0  0  0  0  0
  -47.3440    0.7613   20.1334 H   0  0  0  0  0  0  0  0  0  0  0  0
  -47.6120   -0.8347   19.9604 H   0  0  0  0  0  0  0  0  0  0  0  0
  -50.6810    2.4343   14.7034 H   0  0  0  0  0  0  0  0  0  0  0  0
  -51.6520    1.3333   15.4214 H   0  0  0  0  0  0  0  0  0  0  0  0
  -53.2440    2.7303   14.7204 H   0  0  0  0  0  0  0  0  0  0  0  0
  -53.0830    1.8123   13.3464 H   0  0  0  0  0  0  0  0  0  0  0  0
  -52.3860    2.7533   11.3124 H   0  0  0  0  0  0  0  0  0  0  0  0
  -52.1570    4.9593   14.7794 H   0  0  0  0  0  0  0  0  0  0  0  0
  -51.6320    6.9003   13.5174 H   0  0  0  0  0  0  0  0  0  0  0  0
  1 13  1  0
  1 21  1  0
  2 22  1  0
  3 18  1  0
  3 23  1  0
  5 25  1  0
 11 30  1  0
 12 32  1  0
 13 14  1  0
 13 22  1  0
 14  4  1  0
 14 15  1  0
 15  6  1  0
 15 16  1  0
 16  7  1  0
 16 21  1  0
 17  8  1  0
 17 18  1  0
 17 19  1  0
 18  2  1  0
 19  9  1  0
 19 20  1  0
 20 10  1  0
 20 23  1  0
 21  5  1  0
 23 24  1  0
 25 26  1  0
 26 27  1  0
 27 28  2  0
 27 29  1  0
 28 30  1  0
 29 31  2  0
 30 32  2  0
 31 32  1  0
  4 43  1  0
  6 44  1  0
  7 45  1  0
  8 46  1  0
  9 47  1  0
 10 48  1  0
 11 49  1  0
 12 50  1  0
 13 33  1  0
 14 34  1  0
 15 35  1  0
 16 36  1  0
 17 37  1  0
 18 38  1  0
 19 39  1  0
 20 40  1  0
 21 41  1  0
 22 51  1  0
 22 52  1  0
 23 42  1  0
 24 53  1  0
 24 54  1  0
 24 55  1  0
 25 56  1  0
 25 57  1  0
 26 58  1  0
 26 59  1  0
 28 60  1  0
 29 61  1  0
 31 62  1  0
M  END
>  <BioMolTech Lead Finder dG>
-4.843

>  <BioMolTech Lead Finder VSscore>
-10.115

>  <BioMolTech Lead Finder Rank score>
-7.327

>  <BioMolTech Lead Finder LE>
-0.151

>  <BioMolTech Lead Finder Structure Name>
/var/folders/xd/y7jw_xv579q2qqq7kks92xd80000gn/T/LeadFinder_88759_1/Ligand_1.sdf

>  <BioMolTech Lead Finder SDF id>
0

>  <BioMolTech Lead Finder Pose rank>
0

>  <BioMolTech Lead Finder version>
2001 1, 19 January 2019

>  <PUBCHEM_COMPOUND_CID>
69634125

>  <PUBCHEM_COMPOUND_CANONICALIZED>
1

>  <PUBCHEM_CACTVS_COMPLEXITY>
581

>  <PUBCHEM_CACTVS_HBOND_ACCEPTOR>
12

>  <PUBCHEM_CACTVS_HBOND_DONOR>
8

>  <PUBCHEM_CACTVS_ROTATABLE_BOND>
7

>  <PUBCHEM_CACTVS_SUBSKEYS>
AAADceB4PAAAAAAAAAAAAAAAAAAAAAAAAAA0SIAAAAAAAAABAAAAGgAACAAADBSwmAMyDoAABgCAAiBCAAACAAAgIAAIiAAGiIgZNiKCERKicAElwBEPmAfA4LwOIAABAAAAQABAAAIAAACAAAAAAAAAAA==

>  <PUBCHEM_IUPAC_OPENEYE_NAME>
(2R,3R,4R,5R,6S)-2-[[(2R,3S,4S,5R,6R)-6-[2-(3,4-dihydroxyphenyl)ethoxy]-3,4,5-trihydroxy-tetrahydropyran-2-yl]methoxy]-6-methyl-tetrahydropyran-3,4,5-triol

>  <PUBCHEM_IUPAC_CAS_NAME>
(2R,3R,4R,5R,6S)-2-[[(2R,3S,4S,5R,6R)-6-[2-(3,4-dihydroxyphenyl)ethoxy]-3,4,5-trihydroxy-2-oxanyl]methoxy]-6-methyloxane-3,4,5-triol

>  <PUBCHEM_IUPAC_NAME_MARKUP>
(2<I>R</I>,3<I>R</I>,4<I>R</I>,5<I>R</I>,6<I>S</I>)-2-[[(2<I>R</I>,3<I>S</I>,4<I>S</I>,5<I>R</I>,6<I>R</I>)-6-[2-(3,4-dihydroxyphenyl)ethoxy]-3,4,5-trihydroxyoxan-2-yl]methoxy]-6-methyloxane-3,4,5-tri

>  <PUBCHEM_IUPAC_NAME>
(2R,3R,4R,5R,6S)-2-[[(2R,3S,4S,5R,6R)-6-[2-(3,4-dihydroxyphenyl)ethoxy]-3,4,5-trihydroxyoxan-2-yl]methoxy]-6-methyloxane-3,4,5-triol

>  <PUBCHEM_IUPAC_SYSTEMATIC_NAME>
(2R,3R,4R,5R,6S)-2-[[(2R,3S,4S,5R,6R)-6-[2-[3,4-bis(oxidanyl)phenyl]ethoxy]-3,4,5-tris(oxidanyl)oxan-2-yl]methoxy]-6-methyl-oxane-3,4,5-triol

>  <PUBCHEM_IUPAC_TRADITIONAL_NAME>
(2R,3R,4R,5R,6S)-2-[[(2R,3S,4S,5R,6R)-6-[2-(3,4-dihydroxyphenyl)ethoxy]-3,4,5-trihydroxy-tetrahydropyran-2-yl]methoxy]-6-methyl-tetrahydropyran-3,4,5-triol

>  <PUBCHEM_IUPAC_INCHI>
InChI=1S/C20H30O12/c1-8-13(23)15(25)17(27)20(31-8)30-7-12-14(24)16(26)18(28)19(32-12)29-5-4-9-2-3-10(21)11(22)6-9/h2-3,6,8,12-28H,4-5,7H2,1H3/t8-,12+,13-,14+,15+,16-,17+,18+,19+,20+/m0/s1

>  <PUBCHEM_IUPAC_INCHIKEY>
QIMGUQIHCNDUKU-OJJLXHDHSA-N

>  <PUBCHEM_XLOGP3_AA>
-2.5

>  <PUBCHEM_EXACT_MASS>
462.173726

>  <PUBCHEM_MOLECULAR_FORMULA>
C20H30O12

>  <PUBCHEM_MOLECULAR_WEIGHT>
462.4

>  <PUBCHEM_OPENEYE_CAN_SMILES>
CC1C(C(C(C(O1)OCC2C(C(C(C(O2)OCCC3=CC(=C(C=C3)O)O)O)O)O)O)O)O

>  <PUBCHEM_OPENEYE_ISO_SMILES>
C[C@H]1[C@@H]([C@H]([C@H]([C@@H](O1)OC[C@@H]2[C@H]([C@@H]([C@H]([C@@H](O2)OCCC3=CC(=C(C=C3)O)O)O)O)O)O)O)O

>  <PUBCHEM_CACTVS_TPSA>
199

>  <PUBCHEM_MONOISOTOPIC_WEIGHT>
462.173726

>  <PUBCHEM_TOTAL_CHARGE>
0

>  <PUBCHEM_HEAVY_ATOM_COUNT>
32

>  <PUBCHEM_ATOM_DEF_STEREO_COUNT>
10

>  <PUBCHEM_ATOM_UDEF_STEREO_COUNT>
0

>  <PUBCHEM_BOND_DEF_STEREO_COUNT>
0

>  <PUBCHEM_BOND_UDEF_STEREO_COUNT>
0

>  <PUBCHEM_ISOTOPIC_ATOM_COUNT>
0

>  <PUBCHEM_COMPONENT_COUNT>
1

>  <PUBCHEM_CACTVS_TAUTO_COUNT>
-1

>  <PUBCHEM_COORDINATE_TYPE>
1
5
255

>  <PUBCHEM_BONDANNOTATIONS>
20  10  5
13  22  5
18  2  5
23  24  6
27  28  8
27  29  8
28  30  8
29  31  8
30  32  8
31  32  8
14  4  6
21  5  5
15  6  5
16  7  6
17  8  6
19  9  6

>  <LF dG>
-4.843

>  <LF VSscore>
-10.115

>  <LF Rank Score>
-7.327

>  <LF LE>
-0.151

>  <Preferred Pose_cresset>
true

>  <Favorite_cresset>
false

>  <Protein_cresset>
6M2N_Monomer_P

>  <MW_cresset>
462.4

>  <#Atoms_cresset>
32

>  <SlogP_cresset>
-0.4

>  <TPSA_cresset>
198.8

>  <Flexibility_cresset>
15.9

>  <#RB_cresset>
15

>  <Rof5_cresset>
2

>  <Filename_cresset>
Forsythoside E.sdf

>  <Confs_cresset>
0

>  <Poses_cresset>
10

>  <_cresset_fieldpoints>
    -5     -49.789566       1.484695      12.297934    -10.4922
    -5     -48.891117       1.582836      12.839599    -10.2752
    -5     -52.594028      -0.430250      13.193277    -15.8039
    -5     -52.136734       6.553527       9.124004    -12.9382
    -5     -45.541954       1.863103      16.216553     -6.0883
    -5     -45.565502      -3.189406      18.642208    -14.6056
    -5     -50.944176      -5.201831      13.395550     -5.7464
    -5     -50.892704      -5.235294      14.214561     -5.7882
    -5     -50.723732      -4.679584      12.442715     -5.7832
    -5     -42.217899      -0.169569      20.267548    -19.6710
    -5     -47.438362      -3.402257      16.786865     -9.6777
    -6     -44.495888       2.656389      18.418737      9.0364
    -6     -50.182098       0.808706      17.238199      3.3344
    -6     -50.175037       2.502959       8.940956      8.0016
    -6     -52.964897      -4.444199      13.470348      5.3674
    -6     -47.063957      -4.872452      12.890505     18.5844
    -6     -41.956711      -3.009324      16.558708     13.1888
    -6     -44.141361      -3.639152      14.933228     12.7690
    -6     -48.702835       7.735993      11.569357      8.0900
    -6     -52.020905       3.861865      16.700626      3.6060
    -6     -51.018936       7.798242      15.355044      2.4316
    -7     -48.546593       1.177546      17.229670     -2.9373
    -7     -48.519073      -2.253335      17.731979     -3.1875
    -7     -46.068493      -3.442089      18.998152     -2.5727
    -7     -44.670784      -3.363110      14.380732     -2.5928
    -7     -51.544926      -4.872892      14.951494     -1.3160
    -7     -48.913330      -3.702492      11.380310     -1.7447
    -7     -51.851227       0.288570      11.466320     -2.7303
    -7     -45.964005      -4.442111      16.549683     -2.2523
    -7     -51.062599      -4.170842      11.912772     -1.4905
    -7     -42.678596      -3.345452      19.475714     -1.9428
    -7     -41.022896      -0.443479      16.196514     -1.3475
    -7     -45.014694       2.156688      16.482899     -2.5059
    -7     -45.682625       2.947617      19.981899     -1.6318
    -7     -45.281494       2.240234      21.493942     -1.6521
    -7     -41.655106       1.025236      20.111946     -1.4997
    -7     -50.274033       6.440129       8.699827     -1.4446
    -7     -52.960297       2.613638       8.633270     -1.2832
    -7     -51.144859       9.261570      12.155317     -1.2566
    -7     -41.529984      -3.367970      16.506603     -1.3274
    -7     -48.125843       0.091786      11.670433     -2.4466
    -7     -53.507526      -0.665957      14.672798     -2.1720
    -7     -51.959953       3.810561      16.997702     -1.7968
    -7     -55.221489       5.300527      12.333385     -1.8197
    -7     -49.087589       2.270085      12.443160     -2.9194
    -8     -47.070595      -1.171668      14.330248      4.2799
    -8     -49.102524      -1.566970      14.393673      5.1637
    -8     -44.654362      -0.566905      18.075228      4.8202
    -8     -45.927605      -0.220521      19.729790      4.4884
    -8     -52.014881       4.795028      12.469004      6.9288
    -8     -50.740494       1.112958      15.295696      2.3742

$$$$
Untitled
  xed2sdf_05210316543D
 
 62 64  0  0  1  0  0  0  0  0999 V2000
  -48.7550   -0.1797   15.5626 O   0  0  0  0  0  0  0  0  0  0  0  0
  -50.9700    2.0063   14.4226 O   0  0  0  0  0  0  0  0  0  0  0  0
  -50.2630    1.5783   12.1466 O   0  0  0  0  0  0  0  0  0  0  0  0
  -51.2970   -1.5897   13.2266 O   0  0  0  0  0  0  0  0  0  0  0  0
  -46.5190   -0.9097   16.0896 O   0  0  0  0  0  0  0  0  0  0  0  0
  -49.5040   -3.7957   13.5796 O   0  0  0  0  0  0  0  0  0  0  0  0
  -46.8000   -3.0767   14.3156 O   0  0  0  0  0  0  0  0  0  0  0  0
  -52.6930    3.0373   11.3266 O   0  0  0  0  0  0  0  0  0  0  0  0
  -51.5780    5.5333   11.8696 O   0  0  0  0  0  0  0  0  0  0  0  0
  -48.7680    4.9263   11.5596 O   0  0  0  0  0  0  0  0  0  0  0  0
  -43.5770    1.9283   19.5636 O   0  0  0  0  0  0  0  0  0  0  0  0
  -42.7570    0.0223   21.3726 O   0  0  0  0  0  0  0  0  0  0  0  0
  -49.8040   -0.1577   14.5716 C   0  0  0  0  0  0  0  0  0  0  0  0
  -50.2880   -1.5897   14.2496 C   0  0  0  0  0  0  0  0  0  0  0  0
  -49.0900   -2.4367   13.7816 C   0  0  0  0  0  0  0  0  0  0  0  0
  -47.9510   -2.3817   14.8156 C   0  0  0  0  0  0  0  0  0  0  0  0
  -52.0180    3.2413   12.5766 C   0  0  0  0  0  0  0  0  0  0  0  0
  -51.3470    1.9293   13.0336 C   0  0  0  0  0  0  0  0  0  0  0  0
  -50.9700    4.3633   12.4376 C   0  0  0  0  0  0  0  0  0  0  0  0
  -49.7840    3.9123   11.5626 C   0  0  0  0  0  0  0  0  0  0  0  0
  -47.5890   -0.9167   15.1266 C   0  0  0  0  0  0  0  0  0  0  0  0
  -50.9730    0.7143   15.0606 C   0  0  0  0  0  0  0  0  0  0  0  0
  -49.2270    2.5803   12.1046 C   0  0  0  0  0  0  0  0  0  0  0  0
  -48.0820    2.0933   11.2036 C   0  0  0  0  0  0  0  0  0  0  0  0
  -45.2480   -0.6167   15.4876 C   0  0  0  0  0  0  0  0  0  0  0  0
  -44.1550   -1.4957   16.1196 C   0  0  0  0  0  0  0  0  0  0  0  0
  -43.7820   -1.0797   17.5316 C   0  0  0  0  0  0  0  0  0  0  0  0
  -43.8500    0.2453   17.9096 C   0  0  0  0  0  0  0  0  0  0  0  0
  -43.3750   -2.0297   18.4426 C   0  0  0  0  0  0  0  0  0  0  0  0
  -43.5090    0.6193   19.1916 C   0  0  0  0  0  0  0  0  0  0  0  0
  -43.0330   -1.6627   19.7256 C   0  0  0  0  0  0  0  0  0  0  0  0
  -43.0980   -0.3397   20.1036 C   0  0  0  0  0  0  0  0  0  0  0  0
  -49.4370    0.2383   13.7296 H   0  0  0  0  0  0  0  0  0  0  0  0
  -50.6890   -1.9767   15.0796 H   0  0  0  0  0  0  0  0  0  0  0  0
  -48.7530   -2.0627   12.9176 H   0  0  0  0  0  0  0  0  0  0  0  0
  -48.2580   -2.8257   15.6576 H   0  0  0  0  0  0  0  0  0  0  0  0
  -52.6880    3.5153   13.2666 H   0  0  0  0  0  0  0  0  0  0  0  0
  -52.0040    1.1783   12.9736 H   0  0  0  0  0  0  0  0  0  0  0  0
  -50.6220    4.5783   13.3506 H   0  0  0  0  0  0  0  0  0  0  0  0
  -50.0920    3.7733   10.6216 H   0  0  0  0  0  0  0  0  0  0  0  0
  -47.2700   -0.4487   14.3036 H   0  0  0  0  0  0  0  0  0  0  0  0
  -48.8860    2.7303   13.0316 H   0  0  0  0  0  0  0  0  0  0  0  0
  -51.2650   -0.7477   12.6776 H   0  0  0  0  0  0  0  0  0  0  0  0
  -48.7240   -4.4277   13.6386 H   0  0  0  0  0  0  0  0  0  0  0  0
  -46.4730   -2.6707   13.4546 H   0  0  0  0  0  0  0  0  0  0  0  0
  -52.6130    2.0833   11.0176 H   0  0  0  0  0  0  0  0  0  0  0  0
  -51.4550    5.5603   10.8716 H   0  0  0  0  0  0  0  0  0  0  0  0
  -48.5910    5.2703   12.4876 H   0  0  0  0  0  0  0  0  0  0  0  0
  -44.0390    2.4853   18.8646 H   0  0  0  0  0  0  0  0  0  0  0  0
  -41.9030    0.5533   21.3856 H   0  0  0  0  0  0  0  0  0  0  0  0
  -51.8350    0.2513   14.8556 H   0  0  0  0  0  0  0  0  0  0  0  0
  -50.8710    0.8503   16.0466 H   0  0  0  0  0  0  0  0  0  0  0  0
  -47.9500    2.7503   10.4606 H   0  0  0  0  0  0  0  0  0  0  0  0
  -47.2410    2.0153   11.7376 H   0  0  0  0  0  0  0  0  0  0  0  0
  -48.3100    1.1963   10.8236 H   0  0  0  0  0  0  0  0  0  0  0  0
  -45.0260    0.3483   15.6316 H   0  0  0  0  0  0  0  0  0  0  0  0
  -45.2970   -0.8067   14.5076 H   0  0  0  0  0  0  0  0  0  0  0  0
  -43.3370   -1.4457   15.5466 H   0  0  0  0  0  0  0  0  0  0  0  0
  -44.5210   -2.4247   16.1746 H   0  0  0  0  0  0  0  0  0  0  0  0
  -44.1460    0.9363   17.2516 H   0  0  0  0  0  0  0  0  0  0  0  0
  -43.3290   -2.9907   18.1706 H   0  0  0  0  0  0  0  0  0  0  0  0
  -42.7370   -2.3567   20.3816 H   0  0  0  0  0  0  0  0  0  0  0  0
  1 13  1  0
  1 21  1  0
  2 22  1  0
  3 18  1  0
  3 23  1  0
  5 25  1  0
 11 30  1  0
 12 32  1  0
 13 14  1  0
 13 22  1  0
 14  4  1  0
 14 15  1  0
 15  6  1  0
 15 16  1  0
 16  7  1  0
 16 21  1  0
 17  8  1  0
 17 18  1  0
 17 19  1  0
 18  2  1  0
 19  9  1  0
 19 20  1  0
 20 10  1  0
 20 23  1  0
 21  5  1  0
 23 24  1  0
 25 26  1  0
 26 27  1  0
 27 28  2  0
 27 29  1  0
 28 30  1  0
 29 31  2  0
 30 32  2  0
 31 32  1  0
  4 43  1  0
  6 44  1  0
  7 45  1  0
  8 46  1  0
  9 47  1  0
 10 48  1  0
 11 49  1  0
 12 50  1  0
 13 33  1  0
 14 34  1  0
 15 35  1  0
 16 36  1  0
 17 37  1  0
 18 38  1  0
 19 39  1  0
 20 40  1  0
 21 41  1  0
 22 51  1  0
 22 52  1  0
 23 42  1  0
 24 53  1  0
 24 54  1  0
 24 55  1  0
 25 56  1  0
 25 57  1  0
 26 58  1  0
 26 59  1  0
 28 60  1  0
 29 61  1  0
 31 62  1  0
M  END
>  <BioMolTech Lead Finder dG>
-4.511

>  <BioMolTech Lead Finder VSscore>
-10.094

>  <BioMolTech Lead Finder Rank score>
-7.608

>  <BioMolTech Lead Finder LE>
-0.141

>  <BioMolTech Lead Finder Structure Name>
/var/folders/xd/y7jw_xv579q2qqq7kks92xd80000gn/T/LeadFinder_88080_1/Ligand_1.sdf

>  <BioMolTech Lead Finder SDF id>
0

>  <BioMolTech Lead Finder Pose rank>
0

>  <BioMolTech Lead Finder version>
2001 1, 19 January 2019

>  <PUBCHEM_COMPOUND_CID>
69634125

>  <PUBCHEM_COMPOUND_CANONICALIZED>
1

>  <PUBCHEM_CACTVS_COMPLEXITY>
581

>  <PUBCHEM_CACTVS_HBOND_ACCEPTOR>
12

>  <PUBCHEM_CACTVS_HBOND_DONOR>
8

>  <PUBCHEM_CACTVS_ROTATABLE_BOND>
7

>  <PUBCHEM_CACTVS_SUBSKEYS>
AAADceB4PAAAAAAAAAAAAAAAAAAAAAAAAAA0SIAAAAAAAAABAAAAGgAACAAADBSwmAMyDoAABgCAAiBCAAACAAAgIAAIiAAGiIgZNiKCERKicAElwBEPmAfA4LwOIAABAAAAQABAAAIAAACAAAAAAAAAAA==

>  <PUBCHEM_IUPAC_OPENEYE_NAME>
(2R,3R,4R,5R,6S)-2-[[(2R,3S,4S,5R,6R)-6-[2-(3,4-dihydroxyphenyl)ethoxy]-3,4,5-trihydroxy-tetrahydropyran-2-yl]methoxy]-6-methyl-tetrahydropyran-3,4,5-triol

>  <PUBCHEM_IUPAC_CAS_NAME>
(2R,3R,4R,5R,6S)-2-[[(2R,3S,4S,5R,6R)-6-[2-(3,4-dihydroxyphenyl)ethoxy]-3,4,5-trihydroxy-2-oxanyl]methoxy]-6-methyloxane-3,4,5-triol

>  <PUBCHEM_IUPAC_NAME_MARKUP>
(2<I>R</I>,3<I>R</I>,4<I>R</I>,5<I>R</I>,6<I>S</I>)-2-[[(2<I>R</I>,3<I>S</I>,4<I>S</I>,5<I>R</I>,6<I>R</I>)-6-[2-(3,4-dihydroxyphenyl)ethoxy]-3,4,5-trihydroxyoxan-2-yl]methoxy]-6-methyloxane-3,4,5-tri

>  <PUBCHEM_IUPAC_NAME>
(2R,3R,4R,5R,6S)-2-[[(2R,3S,4S,5R,6R)-6-[2-(3,4-dihydroxyphenyl)ethoxy]-3,4,5-trihydroxyoxan-2-yl]methoxy]-6-methyloxane-3,4,5-triol

>  <PUBCHEM_IUPAC_SYSTEMATIC_NAME>
(2R,3R,4R,5R,6S)-2-[[(2R,3S,4S,5R,6R)-6-[2-[3,4-bis(oxidanyl)phenyl]ethoxy]-3,4,5-tris(oxidanyl)oxan-2-yl]methoxy]-6-methyl-oxane-3,4,5-triol

>  <PUBCHEM_IUPAC_TRADITIONAL_NAME>
(2R,3R,4R,5R,6S)-2-[[(2R,3S,4S,5R,6R)-6-[2-(3,4-dihydroxyphenyl)ethoxy]-3,4,5-trihydroxy-tetrahydropyran-2-yl]methoxy]-6-methyl-tetrahydropyran-3,4,5-triol

>  <PUBCHEM_IUPAC_INCHI>
InChI=1S/C20H30O12/c1-8-13(23)15(25)17(27)20(31-8)30-7-12-14(24)16(26)18(28)19(32-12)29-5-4-9-2-3-10(21)11(22)6-9/h2-3,6,8,12-28H,4-5,7H2,1H3/t8-,12+,13-,14+,15+,16-,17+,18+,19+,20+/m0/s1

>  <PUBCHEM_IUPAC_INCHIKEY>
QIMGUQIHCNDUKU-OJJLXHDHSA-N

>  <PUBCHEM_XLOGP3_AA>
-2.5

>  <PUBCHEM_EXACT_MASS>
462.173726

>  <PUBCHEM_MOLECULAR_FORMULA>
C20H30O12

>  <PUBCHEM_MOLECULAR_WEIGHT>
462.4

>  <PUBCHEM_OPENEYE_CAN_SMILES>
CC1C(C(C(C(O1)OCC2C(C(C(C(O2)OCCC3=CC(=C(C=C3)O)O)O)O)O)O)O)O

>  <PUBCHEM_OPENEYE_ISO_SMILES>
C[C@H]1[C@@H]([C@H]([C@H]([C@@H](O1)OC[C@@H]2[C@H]([C@@H]([C@H]([C@@H](O2)OCCC3=CC(=C(C=C3)O)O)O)O)O)O)O)O

>  <PUBCHEM_CACTVS_TPSA>
199

>  <PUBCHEM_MONOISOTOPIC_WEIGHT>
462.173726

>  <PUBCHEM_TOTAL_CHARGE>
0

>  <PUBCHEM_HEAVY_ATOM_COUNT>
32

>  <PUBCHEM_ATOM_DEF_STEREO_COUNT>
10

>  <PUBCHEM_ATOM_UDEF_STEREO_COUNT>
0

>  <PUBCHEM_BOND_DEF_STEREO_COUNT>
0

>  <PUBCHEM_BOND_UDEF_STEREO_COUNT>
0

>  <PUBCHEM_ISOTOPIC_ATOM_COUNT>
0

>  <PUBCHEM_COMPONENT_COUNT>
1

>  <PUBCHEM_CACTVS_TAUTO_COUNT>
-1

>  <PUBCHEM_COORDINATE_TYPE>
1
5
255

>  <PUBCHEM_BONDANNOTATIONS>
20  10  5
13  22  5
18  2  5
23  24  6
27  28  8
27  29  8
28  30  8
29  31  8
30  32  8
31  32  8
14  4  6
21  5  5
15  6  5
16  7  6
17  8  6
19  9  6

>  <LF dG>
-4.511

>  <LF VSscore>
-10.094

>  <LF Rank Score>
-7.608

>  <LF LE>
-0.141

>  <Preferred Pose_cresset>
true

>  <Favorite_cresset>
false

>  <Protein_cresset>
6M2N_Monomer_P

>  <MW_cresset>
462.4

>  <#Atoms_cresset>
32

>  <SlogP_cresset>
-0.4

>  <TPSA_cresset>
198.8

>  <Flexibility_cresset>
15.9

>  <#RB_cresset>
15

>  <Rof5_cresset>
2

>  <Filename_cresset>
Forsythoside E.sdf

>  <Confs_cresset>
0

>  <Poses_cresset>
10

>  <_cresset_fieldpoints>
    -5     -46.787971      -1.145260      17.969921    -13.1407
    -5     -51.261299      -3.474310      12.891794    -20.4792
    -5     -50.766190       3.435932      15.679737     -6.1245
    -5     -46.002110      -4.224459      15.623619    -10.4483
    -5     -53.572880       4.732585      11.193230    -13.2199
    -5     -53.006989       6.413781      12.749192    -13.0146
    -5     -47.876923       5.504944       9.968391    -11.0135
    -5     -44.296421       0.835974      22.168465    -10.4631
    -5     -40.733109      -0.580055      17.767628     -2.7624
    -6     -48.321350       4.779334      14.258533      9.9620
    -6     -44.563969       3.004340      17.098587     10.5832
    -6     -49.873924      -0.706260      11.363039      7.4073
    -6     -46.598824      -1.119789      12.355845     15.4521
    -6     -51.199379       5.351485       8.985939      6.3123
    -6     -40.093685       1.112211      21.543680      6.9498
    -6     -52.338623       0.202507      11.242754     13.7647
    -6     -42.800285      -4.337156      16.490641      2.2504
    -7     -49.691933      -1.354336      17.590103     -2.4054
    -7     -49.314507       3.451514      15.391253     -2.7271
    -7     -53.539619      -0.854138      13.274836     -2.0318
    -7     -50.270088      -4.686342      15.758062     -1.6871
    -7     -49.991249      -0.613121      11.019541     -3.1536
    -7     -47.088387      -4.311512      12.060852     -1.5869
    -7     -46.942139      -5.410038      14.768019     -1.3822
    -7     -44.528561      -3.671634      13.820065     -1.9180
    -7     -54.499001       1.208624      12.083155     -1.4251
    -7     -50.986374       1.089224       9.864527     -2.6080
    -7     -53.985435       1.948485      15.019571     -1.6291
    -7     -52.279594       4.051133       9.268024     -1.9155
    -7     -49.733124       7.182957      11.431105     -1.6495
    -7     -46.700645       4.323129      13.242259     -1.7980
    -7     -47.575302       5.140040       9.504211     -1.4356
    -7     -43.118660       2.505110      21.950695     -1.4151
    -7     -44.207565       2.784514      15.704838     -1.4548
    -7     -42.426270       1.164327      15.055813     -1.8278
    -7     -47.595085       2.199361      15.100168     -2.9338
    -7     -40.464718      -0.358457      17.559452     -1.8491
    -7     -41.086746      -1.390429      22.561539     -1.2417
    -7     -46.666817      -0.802202      11.933470     -2.8402
    -7     -42.017197      -3.935271      16.052364     -1.4689
    -7     -42.884201      -5.074980      19.800468     -0.9988
    -7     -46.866306      -2.149750      18.113075     -2.9550
    -8     -50.529854       3.391940      12.425499      4.8469
    -8     -48.772472       2.837070      11.406599      4.4952
    -8     -50.668633      -0.413186      14.757601      4.3089
    -8     -48.945766      -1.510507      14.343528      5.1785
    -8     -44.184387      -0.572017      16.716640      5.6417
    -8     -43.448128      -0.749460      18.769985      6.9248
    -8     -46.179733      -0.593475      14.598116      2.4494

$$$$
W_Lopinavir_D
  xed2sdf_05210316543D
 
 94 97  0  0  1  0  0  0  0  0999 V2000
  -48.5779   -3.0081   12.8518 O   0  0  0  0  0  0  0  0  0  0  0  0
  -54.0299   -1.0951   13.8088 O   0  0  0  0  0  0  0  0  0  0  0  0
  -54.9778   -5.9731   14.0498 O   0  0  0  0  0  0  0  0  0  0  0  0
  -48.2458   -2.6731   17.7298 O   0  0  0  0  0  0  0  0  0  0  0  0
  -48.3318   -5.3711   18.3438 O   0  0  0  0  0  0  0  0  0  0  0  0
  -55.4039   -4.0021   15.0608 N   0  0  0  0  0  0  0  0  0  0  0  0
  -52.8998   -2.9291   14.5438 N   0  0  0  0  0  0  0  0  0  0  0  0
  -47.8508   -3.2201   15.5528 N   0  0  0  0  0  0  0  0  0  0  0  0
  -55.4659   -6.0351   16.2338 N   0  0  0  0  0  0  0  0  0  0  0  0
  -51.6809   -2.1761   14.8628 C   0  0  0  0  0  0  0  0  0  0  0  0
  -55.1288   -3.2511   13.8178 C   0  0  0  0  0  0  0  0  0  0  0  0
  -50.5038   -3.0581   14.3958 C   0  0  0  0  0  0  0  0  0  0  0  0
  -49.2908   -2.2691   13.8568 C   0  0  0  0  0  0  0  0  0  0  0  0
  -56.3909   -2.5221   13.2958 C   0  0  0  0  0  0  0  0  0  0  0  0
  -48.3468   -1.9381   15.0298 C   0  0  0  0  0  0  0  0  0  0  0  0
  -51.6959   -1.9061   16.3818 C   0  0  0  0  0  0  0  0  0  0  0  0
  -53.9739   -2.2951   14.0428 C   0  0  0  0  0  0  0  0  0  0  0  0
  -55.7908   -3.2351   16.2578 C   0  0  0  0  0  0  0  0  0  0  0  0
  -56.6138   -4.0971   17.2208 C   0  0  0  0  0  0  0  0  0  0  0  0
  -47.1928   -1.0301   14.5538 C   0  0  0  0  0  0  0  0  0  0  0  0
  -55.2709   -5.3541   15.0788 C   0  0  0  0  0  0  0  0  0  0  0  0
  -57.6348   -3.4211   13.3938 C   0  0  0  0  0  0  0  0  0  0  0  0
  -56.2208   -2.1251   11.8188 C   0  0  0  0  0  0  0  0  0  0  0  0
  -55.7878   -5.3551   17.4978 C   0  0  0  0  0  0  0  0  0  0  0  0
  -51.4389   -0.4661   16.7958 C   0  0  0  0  0  0  0  0  0  0  0  0
  -46.0038   -0.9681   15.4998 C   0  0  0  0  0  0  0  0  0  0  0  0
  -47.9249   -3.4781   16.8668 C   0  0  0  0  0  0  0  0  0  0  0  0
  -52.2519    0.5459   16.3318 C   0  0  0  0  0  0  0  0  0  0  0  0
  -50.3948   -0.1651   17.6418 C   0  0  0  0  0  0  0  0  0  0  0  0
  -46.0489   -0.1651   16.6188 C   0  0  0  0  0  0  0  0  0  0  0  0
  -44.8738   -1.7141   15.2448 C   0  0  0  0  0  0  0  0  0  0  0  0
  -47.6078   -4.9201   17.1808 C   0  0  0  0  0  0  0  0  0  0  0  0
  -52.0188    1.8489   16.7068 C   0  0  0  0  0  0  0  0  0  0  0  0
  -50.1609    1.1379   18.0178 C   0  0  0  0  0  0  0  0  0  0  0  0
  -50.9729    2.1459   17.5508 C   0  0  0  0  0  0  0  0  0  0  0  0
  -44.9729   -0.1081   17.4758 C   0  0  0  0  0  0  0  0  0  0  0  0
  -43.7979   -1.6591   16.1008 C   0  0  0  0  0  0  0  0  0  0  0  0
  -43.8468   -0.8551   17.2168 C   0  0  0  0  0  0  0  0  0  0  0  0
  -49.0438   -6.4981   18.2118 C   0  0  0  0  0  0  0  0  0  0  0  0
  -50.3969   -6.4671   17.8868 C   0  0  0  0  0  0  0  0  0  0  0  0
  -48.4258   -7.7261   18.4118 C   0  0  0  0  0  0  0  0  0  0  0  0
  -51.0938   -7.6441   17.7438 C   0  0  0  0  0  0  0  0  0  0  0  0
  -49.1389   -8.8921   18.2658 C   0  0  0  0  0  0  0  0  0  0  0  0
  -51.1998   -5.1931   17.6668 C   0  0  0  0  0  0  0  0  0  0  0  0
  -46.9558   -7.8441   18.7838 C   0  0  0  0  0  0  0  0  0  0  0  0
  -50.4708   -8.8551   17.9288 C   0  0  0  0  0  0  0  0  0  0  0  0
  -51.6049   -1.2881   14.4078 H   0  0  0  0  0  0  0  0  0  0  0  0
  -54.8668   -3.9011   13.1048 H   0  0  0  0  0  0  0  0  0  0  0  0
  -49.6259   -1.4291   13.4318 H   0  0  0  0  0  0  0  0  0  0  0  0
  -48.8228   -1.4351   15.7508 H   0  0  0  0  0  0  0  0  0  0  0  0
  -48.5528   -2.5131   11.9768 H   0  0  0  0  0  0  0  0  0  0  0  0
  -52.9268   -3.7971   14.6918 H   0  0  0  0  0  0  0  0  0  0  0  0
  -47.5499   -3.8301   14.9928 H   0  0  0  0  0  0  0  0  0  0  0  0
  -55.3778   -6.9111   16.2298 H   0  0  0  0  0  0  0  0  0  0  0  0
  -50.8328   -3.6641   13.6718 H   0  0  0  0  0  0  0  0  0  0  0  0
  -50.1838   -3.5571   15.2018 H   0  0  0  0  0  0  0  0  0  0  0  0
  -56.5089   -1.7091   13.8658 H   0  0  0  0  0  0  0  0  0  0  0  0
  -50.9939   -2.4801   16.8048 H   0  0  0  0  0  0  0  0  0  0  0  0
  -52.6238   -2.1151   16.6878 H   0  0  0  0  0  0  0  0  0  0  0  0
  -56.3339   -2.4431   15.9788 H   0  0  0  0  0  0  0  0  0  0  0  0
  -54.9599   -2.9401   16.7288 H   0  0  0  0  0  0  0  0  0  0  0  0
  -57.4898   -4.3411   16.8038 H   0  0  0  0  0  0  0  0  0  0  0  0
  -56.8119   -3.6031   18.0668 H   0  0  0  0  0  0  0  0  0  0  0  0
  -47.5508   -0.1041   14.4378 H   0  0  0  0  0  0  0  0  0  0  0  0
  -46.8528   -1.4271   13.7018 H   0  0  0  0  0  0  0  0  0  0  0  0
  -58.0308   -3.5301   12.4818 H   0  0  0  0  0  0  0  0  0  0  0  0
  -57.3778   -4.3161   13.7578 H   0  0  0  0  0  0  0  0  0  0  0  0
  -58.3059   -3.0021   14.0048 H   0  0  0  0  0  0  0  0  0  0  0  0
  -56.9548   -2.5431   11.2828 H   0  0  0  0  0  0  0  0  0  0  0  0
  -56.2638   -1.1301   11.7298 H   0  0  0  0  0  0  0  0  0  0  0  0
  -55.3339   -2.4431   11.4838 H   0  0  0  0  0  0  0  0  0  0  0  0
  -54.9398   -5.1011   17.9648 H   0  0  0  0  0  0  0  0  0  0  0  0
  -56.3178   -5.9741   18.0778 H   0  0  0  0  0  0  0  0  0  0  0  0
  -53.0128    0.3319   15.7208 H   0  0  0  0  0  0  0  0  0  0  0  0
  -49.8038   -0.8961   17.9838 H   0  0  0  0  0  0  0  0  0  0  0  0
  -46.8658    0.3779   16.8098 H   0  0  0  0  0  0  0  0  0  0  0  0
  -44.8349   -2.2991   14.4348 H   0  0  0  0  0  0  0  0  0  0  0  0
  -47.8578   -5.4901   16.3978 H   0  0  0  0  0  0  0  0  0  0  0  0
  -46.6288   -4.9951   17.3678 H   0  0  0  0  0  0  0  0  0  0  0  0
  -52.6098    2.5799   16.3678 H   0  0  0  0  0  0  0  0  0  0  0  0
  -49.4008    1.3529   18.6318 H   0  0  0  0  0  0  0  0  0  0  0  0
  -50.8028    3.0929   17.8228 H   0  0  0  0  0  0  0  0  0  0  0  0
  -45.0098    0.4769   18.2858 H   0  0  0  0  0  0  0  0  0  0  0  0
  -42.9799   -2.2021   15.9118 H   0  0  0  0  0  0  0  0  0  0  0  0
  -43.0648   -0.8141   17.8388 H   0  0  0  0  0  0  0  0  0  0  0  0
  -52.0639   -7.6181   17.5028 H   0  0  0  0  0  0  0  0  0  0  0  0
  -48.6858   -9.7731   18.4048 H   0  0  0  0  0  0  0  0  0  0  0  0
  -52.1438   -5.4381   17.4438 H   0  0  0  0  0  0  0  0  0  0  0  0
  -51.1828   -4.6351   18.4958 H   0  0  0  0  0  0  0  0  0  0  0  0
  -50.8008   -4.6691   16.9138 H   0  0  0  0  0  0  0  0  0  0  0  0
  -46.7188   -8.8121   18.8698 H   0  0  0  0  0  0  0  0  0  0  0  0
  -46.3928   -7.4221   18.0738 H   0  0  0  0  0  0  0  0  0  0  0  0
  -46.7898   -7.3771   19.6518 H   0  0  0  0  0  0  0  0  0  0  0  0
  -50.9848   -9.7061   17.8198 H   0  0  0  0  0  0  0  0  0  0  0  0
  2 17  2  0
  3 21  2  0
  4 27  2  0
  5 32  1  0
  5 39  1  0
  6 11  1  0
  6 18  1  0
  6 21  1  0
  7 17  1  0
  8 27  1  0
  9 21  1  0
  9 24  1  0
 10  7  1  0
 10 12  1  0
 10 16  1  0
 11 14  1  0
 11 17  1  0
 12 13  1  0
 13  1  1  0
 13 15  1  0
 14 22  1  0
 14 23  1  0
 15  8  1  0
 15 20  1  0
 16 25  1  0
 18 19  1  0
 19 24  1  0
 20 26  1  0
 25 28  2  0
 25 29  1  0
 26 30  2  0
 26 31  1  0
 27 32  1  0
 28 33  1  0
 29 34  2  0
 30 36  1  0
 31 37  2  0
 33 35  2  0
 34 35  1  0
 36 38  2  0
 37 38  1  0
 39 40  2  0
 39 41  1  0
 40 42  1  0
 40 44  1  0
 41 43  2  0
 41 45  1  0
 42 46  2  0
 43 46  1  0
  1 51  1  0
  7 52  1  0
  8 53  1  0
  9 54  1  0
 10 47  1  0
 11 48  1  0
 12 55  1  0
 12 56  1  0
 13 49  1  0
 14 57  1  0
 15 50  1  0
 16 58  1  0
 16 59  1  0
 18 60  1  0
 18 61  1  0
 19 62  1  0
 19 63  1  0
 20 64  1  0
 20 65  1  0
 22 66  1  0
 22 67  1  0
 22 68  1  0
 23 69  1  0
 23 70  1  0
 23 71  1  0
 24 72  1  0
 24 73  1  0
 28 74  1  0
 29 75  1  0
 30 76  1  0
 31 77  1  0
 32 78  1  0
 32 79  1  0
 33 80  1  0
 34 81  1  0
 35 82  1  0
 36 83  1  0
 37 84  1  0
 38 85  1  0
 42 86  1  0
 43 87  1  0
 44 88  1  0
 44 89  1  0
 44 90  1  0
 45 91  1  0
 45 92  1  0
 45 93  1  0
 46 94  1  0
M  END
>  <BioMolTech Lead Finder dG>
-6.639

>  <BioMolTech Lead Finder VSscore>
-8.928

>  <BioMolTech Lead Finder Rank score>
-7.968

>  <BioMolTech Lead Finder LE>
-0.144

>  <BioMolTech Lead Finder Structure Name>
/var/folders/xd/y7jw_xv579q2qqq7kks92xd80000gn/T/LeadFinder_88757_1/Ligand_1.sdf

>  <BioMolTech Lead Finder SDF id>
0

>  <BioMolTech Lead Finder Pose rank>
0

>  <BioMolTech Lead Finder version>
2001 1, 19 January 2019

>  <PUBCHEM_COMPOUND_CID>
92727

>  <PUBCHEM_COMPOUND_CANONICALIZED>
1

>  <PUBCHEM_CACTVS_COMPLEXITY>
940

>  <PUBCHEM_CACTVS_HBOND_ACCEPTOR>
5

>  <PUBCHEM_CACTVS_HBOND_DONOR>
4

>  <PUBCHEM_CACTVS_ROTATABLE_BOND>
15

>  <PUBCHEM_CACTVS_SUBSKEYS>
AAADcfB/uAAAAAAAAAAAAAAAAAAAAAAAAAA8YMEAAAAAAAABUAAAHgAQCAAADTzhmAYzBoPABgCIAiFSEAICCAAgIAAIiIHMCIiOdjKE8T+XeCCu1hOYqAeQwPAOAAACAAAIAAAAAAQAABAAAAAAAAAAAA==

>  <PUBCHEM_IUPAC_OPENEYE_NAME>
(2S)-N-[(1S,3S,4S)-1-benzyl-4-[[2-(2,6-dimethylphenoxy)acetyl]amino]-3-hydroxy-5-phenyl-pentyl]-3-methyl-2-(2-oxohexahydropyrimidin-1-yl)butanamide

>  <PUBCHEM_IUPAC_CAS_NAME>
(2S)-N-[(2S,4S,5S)-5-[[2-(2,6-dimethylphenoxy)-1-oxoethyl]amino]-4-hydroxy-1,6-diphenylhexan-2-yl]-3-methyl-2-(2-oxo-1,3-diazinan-1-yl)butanamide

>  <PUBCHEM_IUPAC_NAME_MARKUP>
(2<I>S</I>)-<I>N</I>-[(2<I>S</I>,4<I>S</I>,5<I>S</I>)-5-[[2-(2,6-dimethylphenoxy)acetyl]amino]-4-hydroxy-1,6-diphenylhexan-2-yl]-3-methyl-2-(2-oxo-1,3-diazinan-1-yl)butanamide

>  <PUBCHEM_IUPAC_NAME>
(2S)-N-[(2S,4S,5S)-5-[[2-(2,6-dimethylphenoxy)acetyl]amino]-4-hydroxy-1,6-diphenylhexan-2-yl]-3-methyl-2-(2-oxo-1,3-diazinan-1-yl)butanamide

>  <PUBCHEM_IUPAC_SYSTEMATIC_NAME>
(2S)-N-[(2S,4S,5S)-5-[2-(2,6-dimethylphenoxy)ethanoylamino]-4-oxidanyl-1,6-diphenyl-hexan-2-yl]-3-methyl-2-(2-oxidanylidene-1,3-diazinan-1-yl)butanamide

>  <PUBCHEM_IUPAC_TRADITIONAL_NAME>
(2S)-N-[(1S,3S,4S)-1-benzyl-4-[[2-(2,6-dimethylphenoxy)acetyl]amino]-3-hydroxy-5-phenyl-pentyl]-2-(2-ketohexahydropyrimidin-1-yl)-3-methyl-butyramide

>  <PUBCHEM_IUPAC_INCHI>
InChI=1S/C37H48N4O5/c1-25(2)34(41-20-12-19-38-37(41)45)36(44)39-30(21-28-15-7-5-8-16-28)23-32(42)31(22-29-17-9-6-10-18-29)40-33(43)24-46-35-26(3)13-11-14-27(35)4/h5-11,13-18,25,30-32,34,42H,12,19-24H2

>  <PUBCHEM_IUPAC_INCHIKEY>
KJHKTHWMRKYKJE-SUGCFTRWSA-N

>  <PUBCHEM_XLOGP3_AA>
5.9

>  <PUBCHEM_EXACT_MASS>
628.362471

>  <PUBCHEM_MOLECULAR_FORMULA>
C37H48N4O5

>  <PUBCHEM_MOLECULAR_WEIGHT>
628.8

>  <PUBCHEM_OPENEYE_CAN_SMILES>
CC1=C(C(=CC=C1)C)OCC(=O)NC(CC2=CC=CC=C2)C(CC(CC3=CC=CC=C3)NC(=O)C(C(C)C)N4CCCNC4=O)O

>  <PUBCHEM_OPENEYE_ISO_SMILES>
CC1=C(C(=CC=C1)C)OCC(=O)N[C@@H](CC2=CC=CC=C2)[C@H](C[C@H](CC3=CC=CC=C3)NC(=O)[C@H](C(C)C)N4CCCNC4=O)O

>  <PUBCHEM_CACTVS_TPSA>
120

>  <PUBCHEM_MONOISOTOPIC_WEIGHT>
628.362471

>  <PUBCHEM_TOTAL_CHARGE>
0

>  <PUBCHEM_HEAVY_ATOM_COUNT>
46

>  <PUBCHEM_ATOM_DEF_STEREO_COUNT>
4

>  <PUBCHEM_ATOM_UDEF_STEREO_COUNT>
0

>  <PUBCHEM_BOND_DEF_STEREO_COUNT>
0

>  <PUBCHEM_BOND_UDEF_STEREO_COUNT>
0

>  <PUBCHEM_ISOTOPIC_ATOM_COUNT>
0

>  <PUBCHEM_COMPONENT_COUNT>
1

>  <PUBCHEM_CACTVS_TAUTO_COUNT>
-1

>  <PUBCHEM_COORDINATE_TYPE>
1
5
255

>  <PUBCHEM_BONDANNOTATIONS>
13  1  6
11  17  5
25  28  8
25  29  8
26  30  8
26  31  8
28  33  8
29  34  8
30  36  8
31  37  8
33  35  8
34  35  8
36  38  8
37  38  8
39  40  8
39  41  8
40  42  8
41  43  8
42  46  8
43  46  8
10  7  6
15  8  5

>  <LF dG>
-6.639

>  <LF VSscore>
-8.928

>  <LF Rank Score>
-7.968

>  <LF LE>
-0.144

>  <Preferred Pose_cresset>
true

>  <Favorite_cresset>
false

>  <Protein_cresset>
6M2N_Monomer_P

>  <MW_cresset>
628.8

>  <#Atoms_cresset>
46

>  <SlogP_cresset>
4.7

>  <TPSA_cresset>
120

>  <Flexibility_cresset>
16.1

>  <#RB_cresset>
16

>  <Rof5_cresset>
1

>  <Filename_cresset>
Lopinavir.sdf

>  <Confs_cresset>
0

>  <Poses_cresset>
10

>  <_cresset_fieldpoints>
    -5     -48.639816      -4.915578      12.697844     -8.9770
    -5     -54.765717      -7.482546      13.162329    -16.7059
    -5     -54.849140       0.402801      13.216587    -14.3284
    -5     -48.441498      -3.249301      19.411594    -19.9063
    -5     -43.854259       1.246493      14.899505     -4.0872
    -5     -52.797897       0.476964      19.463417     -4.2626
    -5     -49.673721       1.708944      14.912058     -2.6125
    -5     -49.536850      -8.140695      15.159163     -2.7227
    -6     -48.464882      -0.698244      11.497715     10.6540
    -6     -54.395927      -8.170650      17.396641      6.3435
    -6     -52.023392      -5.462719      14.964358      5.0832
    -6     -53.618767      -3.402163      18.504974      5.8414
    -6     -58.513428      -1.910556      16.412376      3.8499
    -6     -47.237911       1.939074      18.648037      2.8744
    -6     -46.342354      -5.297886      14.737188      7.5943
    -6     -47.156689     -11.196569      18.672506      2.8584
    -7     -49.665970      -4.636677      11.514055     -1.4828
    -7     -46.298851      -3.778700      12.849642     -2.6916
    -7     -52.435318      -6.157388      14.880569     -3.5345
    -7     -48.088242      -0.252526      11.568777     -1.7562
    -7     -49.608055      -6.081643      14.710613     -3.5163
    -7     -55.372555      -0.083233      15.534482     -3.2658
    -7     -52.533844       0.524841      13.011341     -2.4978
    -7     -56.057999      -5.781785      11.863039     -2.2967
    -7     -49.675369      -2.923292      19.445000     -3.4538
    -7     -46.114113      -2.777702      19.059544     -2.8121
    -7     -58.825287      -0.358303      12.927366     -1.5127
    -7     -54.268028      -1.247198      18.516909     -2.5884
    -7     -58.758194      -1.698463      16.153261     -1.8916
    -7     -58.017944      -6.367551      15.180328     -2.4351
    -7     -52.499386      -2.895730      11.674432     -2.7326
    -7     -53.508026      -6.466097      19.669209     -2.1541
    -7     -43.927101       1.540727      14.473021     -1.8335
    -7     -45.287445      -4.905232      14.982372     -2.3759
    -7     -52.273270       5.227565      16.950476     -0.9697
    -7     -49.777557       1.042448      14.250640     -3.6926
    -7     -53.461121      -3.138310      18.844551     -3.1609
    -7     -51.171417       4.970372      15.700844     -0.9638
    -7     -40.867817      -2.435516      17.626564     -0.9703
    -7     -43.050861       0.590850      20.186367     -0.9715
    -7     -46.373482      -4.780631      20.147041     -2.0448
    -7     -50.396164      -7.318839      21.216906     -1.9980
    -7     -47.665703      -1.137027      19.312588     -2.8604
    -7     -54.240692      -7.872913      18.581181     -1.9648
    -7     -49.766739     -12.193590      18.084560     -1.0015
    -8     -44.928234      -0.910953      16.357540      7.1904
    -8     -50.317852      -2.175940      14.769377      5.6043
    -8     -51.743362      -0.936165      16.051968      5.6938
    -8     -56.457062      -2.878381      12.892023      5.9171
    -8     -55.990307      -4.077692      17.238293      4.9619
    -8     -49.773994      -7.703429      18.067894      7.0797
    -8     -51.203255       0.832714      17.168880      7.2147
    -8     -48.340347      -1.308157      14.393376      4.9282
    -8     -51.426807      -0.505677      16.741898      5.7896
    -8     -47.205536      -4.612044      16.605156      2.8799

$$$$
Untitled
  xed2sdf_05210316543D
 
 94 97  0  0  1  0  0  0  0  0999 V2000
  -48.7336   -3.2972   13.8142 O   0  0  0  0  0  0  0  0  0  0  0  0
  -52.8866   -0.4482   14.1972 O   0  0  0  0  0  0  0  0  0  0  0  0
  -51.7266    3.9478   15.6912 O   0  0  0  0  0  0  0  0  0  0  0  0
  -48.1206   -3.3382   18.0632 O   0  0  0  0  0  0  0  0  0  0  0  0
  -47.9706   -6.0622   18.5312 O   0  0  0  0  0  0  0  0  0  0  0  0
  -53.3396    2.6998   14.7292 N   0  0  0  0  0  0  0  0  0  0  0  0
  -50.9856    0.7058   14.6812 N   0  0  0  0  0  0  0  0  0  0  0  0
  -47.4686   -3.6922   15.9072 N   0  0  0  0  0  0  0  0  0  0  0  0
  -52.8836    4.8918   14.0242 N   0  0  0  0  0  0  0  0  0  0  0  0
  -50.1226   -0.1872   13.8972 C   0  0  0  0  0  0  0  0  0  0  0  0
  -53.0116    1.5358   15.5772 C   0  0  0  0  0  0  0  0  0  0  0  0
  -49.6046   -1.2522   14.8872 C   0  0  0  0  0  0  0  0  0  0  0  0
  -48.3686   -2.0332   14.3922 C   0  0  0  0  0  0  0  0  0  0  0  0
  -54.2646    0.9718   16.2902 C   0  0  0  0  0  0  0  0  0  0  0  0
  -47.4096   -2.2602   15.5782 C   0  0  0  0  0  0  0  0  0  0  0  0
  -49.0096    0.6828   13.2762 C   0  0  0  0  0  0  0  0  0  0  0  0
  -52.3086    0.4798   14.7472 C   0  0  0  0  0  0  0  0  0  0  0  0
  -54.4386    2.5568   13.7572 C   0  0  0  0  0  0  0  0  0  0  0  0
  -55.0606    3.9178   13.4262 C   0  0  0  0  0  0  0  0  0  0  0  0
  -45.9786   -1.8162   15.2082 C   0  0  0  0  0  0  0  0  0  0  0  0
  -52.6196    3.8468   14.8432 C   0  0  0  0  0  0  0  0  0  0  0  0
  -54.9556    2.0508   17.1412 C   0  0  0  0  0  0  0  0  0  0  0  0
  -53.8856   -0.1862   17.2292 C   0  0  0  0  0  0  0  0  0  0  0  0
  -53.9126    4.8248   12.9752 C   0  0  0  0  0  0  0  0  0  0  0  0
  -49.4856    1.8798   12.4692 C   0  0  0  0  0  0  0  0  0  0  0  0
  -45.1466   -1.3162   16.3782 C   0  0  0  0  0  0  0  0  0  0  0  0
  -47.8976   -4.0822   17.1172 C   0  0  0  0  0  0  0  0  0  0  0  0
  -50.8336    2.1018   12.2842 C   0  0  0  0  0  0  0  0  0  0  0  0
  -48.5726    2.7538   11.9232 C   0  0  0  0  0  0  0  0  0  0  0  0
  -45.4766   -0.1372   17.0102 C   0  0  0  0  0  0  0  0  0  0  0  0
  -44.0576   -2.0382   16.8152 C   0  0  0  0  0  0  0  0  0  0  0  0
  -48.1286   -5.5722   17.1842 C   0  0  0  0  0  0  0  0  0  0  0  0
  -51.2646    3.1858   11.5542 C   0  0  0  0  0  0  0  0  0  0  0  0
  -49.0016    3.8388   11.1922 C   0  0  0  0  0  0  0  0  0  0  0  0
  -50.3476    4.0538   11.0072 C   0  0  0  0  0  0  0  0  0  0  0  0
  -44.7246    0.3168   18.0702 C   0  0  0  0  0  0  0  0  0  0  0  0
  -43.3046   -1.5862   17.8742 C   0  0  0  0  0  0  0  0  0  0  0  0
  -43.6376   -0.4082   18.5022 C   0  0  0  0  0  0  0  0  0  0  0  0
  -48.3376   -7.3312   18.7582 C   0  0  0  0  0  0  0  0  0  0  0  0
  -49.6686   -7.6722   18.9742 C   0  0  0  0  0  0  0  0  0  0  0  0
  -47.3706   -8.3282   18.7872 C   0  0  0  0  0  0  0  0  0  0  0  0
  -50.0126   -8.9862   19.1882 C   0  0  0  0  0  0  0  0  0  0  0  0
  -47.7326   -9.6372   19.0042 C   0  0  0  0  0  0  0  0  0  0  0  0
  -50.8206   -6.6782   18.9932 C   0  0  0  0  0  0  0  0  0  0  0  0
  -45.8936   -8.0352   18.5742 C   0  0  0  0  0  0  0  0  0  0  0  0
  -49.0516   -9.9702   19.2012 C   0  0  0  0  0  0  0  0  0  0  0  0
  -50.5806   -0.6582   13.1432 H   0  0  0  0  0  0  0  0  0  0  0  0
  -52.3906    1.8338   16.3012 H   0  0  0  0  0  0  0  0  0  0  0  0
  -47.9196   -1.4942   13.6792 H   0  0  0  0  0  0  0  0  0  0  0  0
  -47.6776   -1.7142   16.3722 H   0  0  0  0  0  0  0  0  0  0  0  0
  -47.9286   -3.8862   13.6762 H   0  0  0  0  0  0  0  0  0  0  0  0
  -50.6326    1.3958   15.0982 H   0  0  0  0  0  0  0  0  0  0  0  0
  -47.2656   -4.2872   15.2902 H   0  0  0  0  0  0  0  0  0  0  0  0
  -52.4086    5.6298   14.1102 H   0  0  0  0  0  0  0  0  0  0  0  0
  -50.3416   -1.9042   15.0622 H   0  0  0  0  0  0  0  0  0  0  0  0
  -49.3196   -0.7612   15.7112 H   0  0  0  0  0  0  0  0  0  0  0  0
  -54.8836    0.6528   15.5732 H   0  0  0  0  0  0  0  0  0  0  0  0
  -48.4626    0.1018   12.6752 H   0  0  0  0  0  0  0  0  0  0  0  0
  -48.4966    1.0618   14.0462 H   0  0  0  0  0  0  0  0  0  0  0  0
  -55.1416    1.9588   14.1422 H   0  0  0  0  0  0  0  0  0  0  0  0
  -54.0696    2.1638   12.9152 H   0  0  0  0  0  0  0  0  0  0  0  0
  -55.5086    4.2988   14.2342 H   0  0  0  0  0  0  0  0  0  0  0  0
  -55.7536    3.8318   12.7102 H   0  0  0  0  0  0  0  0  0  0  0  0
  -46.0426   -1.0822   14.5312 H   0  0  0  0  0  0  0  0  0  0  0  0
  -45.5126   -2.6292   14.8582 H   0  0  0  0  0  0  0  0  0  0  0  0
  -54.9916    1.7428   18.0922 H   0  0  0  0  0  0  0  0  0  0  0  0
  -54.4416    2.9068   17.0842 H   0  0  0  0  0  0  0  0  0  0  0  0
  -55.8826    2.2058   16.8012 H   0  0  0  0  0  0  0  0  0  0  0  0
  -54.1776    0.0388   18.1592 H   0  0  0  0  0  0  0  0  0  0  0  0
  -54.3376   -1.0262   16.9292 H   0  0  0  0  0  0  0  0  0  0  0  0
  -52.8956   -0.3252   17.2102 H   0  0  0  0  0  0  0  0  0  0  0  0
  -53.5096    4.4618   12.1362 H   0  0  0  0  0  0  0  0  0  0  0  0
  -54.2696    5.7438   12.8072 H   0  0  0  0  0  0  0  0  0  0  0  0
  -51.5006    1.4718   12.6822 H   0  0  0  0  0  0  0  0  0  0  0  0
  -47.5936    2.5998   12.0582 H   0  0  0  0  0  0  0  0  0  0  0  0
  -46.2666    0.3908   16.6992 H   0  0  0  0  0  0  0  0  0  0  0  0
  -43.8126   -2.8952   16.3602 H   0  0  0  0  0  0  0  0  0  0  0  0
  -49.0546   -5.7762   16.8672 H   0  0  0  0  0  0  0  0  0  0  0  0
  -47.4526   -6.0232   16.6012 H   0  0  0  0  0  0  0  0  0  0  0  0
  -52.2426    3.3418   11.4202 H   0  0  0  0  0  0  0  0  0  0  0  0
  -48.3346    4.4698   10.7962 H   0  0  0  0  0  0  0  0  0  0  0  0
  -50.6596    4.8418   10.4752 H   0  0  0  0  0  0  0  0  0  0  0  0
  -44.9676    1.1728   18.5252 H   0  0  0  0  0  0  0  0  0  0  0  0
  -42.5156   -2.1142   18.1882 H   0  0  0  0  0  0  0  0  0  0  0  0
  -43.0906   -0.0792   19.2722 H   0  0  0  0  0  0  0  0  0  0  0  0
  -50.9716   -9.2292   19.3362 H   0  0  0  0  0  0  0  0  0  0  0  0
  -47.0326  -10.3512   19.0172 H   0  0  0  0  0  0  0  0  0  0  0  0
  -51.6726   -7.1702   19.1672 H   0  0  0  0  0  0  0  0  0  0  0  0
  -50.6696   -6.0012   19.7142 H   0  0  0  0  0  0  0  0  0  0  0  0
  -50.8746   -6.2082   18.1122 H   0  0  0  0  0  0  0  0  0  0  0  0
  -45.3806   -8.8922   18.6282 H   0  0  0  0  0  0  0  0  0  0  0  0
  -45.7586   -7.6172   17.6762 H   0  0  0  0  0  0  0  0  0  0  0  0
  -45.5716   -7.4032   19.2792 H   0  0  0  0  0  0  0  0  0  0  0  0
  -49.3116  -10.9232   19.3542 H   0  0  0  0  0  0  0  0  0  0  0  0
  2 17  2  0
  3 21  2  0
  4 27  2  0
  5 32  1  0
  5 39  1  0
  6 11  1  0
  6 18  1  0
  6 21  1  0
  7 17  1  0
  8 27  1  0
  9 21  1  0
  9 24  1  0
 10  7  1  0
 10 12  1  0
 10 16  1  0
 11 14  1  0
 11 17  1  0
 12 13  1  0
 13  1  1  0
 13 15  1  0
 14 22  1  0
 14 23  1  0
 15  8  1  0
 15 20  1  0
 16 25  1  0
 18 19  1  0
 19 24  1  0
 20 26  1  0
 25 28  2  0
 25 29  1  0
 26 30  2  0
 26 31  1  0
 27 32  1  0
 28 33  1  0
 29 34  2  0
 30 36  1  0
 31 37  2  0
 33 35  2  0
 34 35  1  0
 36 38  2  0
 37 38  1  0
 39 40  2  0
 39 41  1  0
 40 42  1  0
 40 44  1  0
 41 43  2  0
 41 45  1  0
 42 46  2  0
 43 46  1  0
  1 51  1  0
  7 52  1  0
  8 53  1  0
  9 54  1  0
 10 47  1  0
 11 48  1  0
 12 55  1  0
 12 56  1  0
 13 49  1  0
 14 57  1  0
 15 50  1  0
 16 58  1  0
 16 59  1  0
 18 60  1  0
 18 61  1  0
 19 62  1  0
 19 63  1  0
 20 64  1  0
 20 65  1  0
 22 66  1  0
 22 67  1  0
 22 68  1  0
 23 69  1  0
 23 70  1  0
 23 71  1  0
 24 72  1  0
 24 73  1  0
 28 74  1  0
 29 75  1  0
 30 76  1  0
 31 77  1  0
 32 78  1  0
 32 79  1  0
 33 80  1  0
 34 81  1  0
 35 82  1  0
 36 83  1  0
 37 84  1  0
 38 85  1  0
 42 86  1  0
 43 87  1  0
 44 88  1  0
 44 89  1  0
 44 90  1  0
 45 91  1  0
 45 92  1  0
 45 93  1  0
 46 94  1  0
M  END
>  <BioMolTech Lead Finder dG>
-5.873

>  <BioMolTech Lead Finder VSscore>
-9.477

>  <BioMolTech Lead Finder Rank score>
-9.345

>  <BioMolTech Lead Finder LE>
-0.128

>  <BioMolTech Lead Finder Structure Name>
/var/folders/xd/y7jw_xv579q2qqq7kks92xd80000gn/T/LeadFinder_88081_1/Ligand_1.sdf

>  <BioMolTech Lead Finder SDF id>
0

>  <BioMolTech Lead Finder Pose rank>
0

>  <BioMolTech Lead Finder version>
2001 1, 19 January 2019

>  <PUBCHEM_COMPOUND_CID>
92727

>  <PUBCHEM_COMPOUND_CANONICALIZED>
1

>  <PUBCHEM_CACTVS_COMPLEXITY>
940

>  <PUBCHEM_CACTVS_HBOND_ACCEPTOR>
5

>  <PUBCHEM_CACTVS_HBOND_DONOR>
4

>  <PUBCHEM_CACTVS_ROTATABLE_BOND>
15

>  <PUBCHEM_CACTVS_SUBSKEYS>
AAADcfB/uAAAAAAAAAAAAAAAAAAAAAAAAAA8YMEAAAAAAAABUAAAHgAQCAAADTzhmAYzBoPABgCIAiFSEAICCAAgIAAIiIHMCIiOdjKE8T+XeCCu1hOYqAeQwPAOAAACAAAIAAAAAAQAABAAAAAAAAAAAA==

>  <PUBCHEM_IUPAC_OPENEYE_NAME>
(2S)-N-[(1S,3S,4S)-1-benzyl-4-[[2-(2,6-dimethylphenoxy)acetyl]amino]-3-hydroxy-5-phenyl-pentyl]-3-methyl-2-(2-oxohexahydropyrimidin-1-yl)butanamide

>  <PUBCHEM_IUPAC_CAS_NAME>
(2S)-N-[(2S,4S,5S)-5-[[2-(2,6-dimethylphenoxy)-1-oxoethyl]amino]-4-hydroxy-1,6-diphenylhexan-2-yl]-3-methyl-2-(2-oxo-1,3-diazinan-1-yl)butanamide

>  <PUBCHEM_IUPAC_NAME_MARKUP>
(2<I>S</I>)-<I>N</I>-[(2<I>S</I>,4<I>S</I>,5<I>S</I>)-5-[[2-(2,6-dimethylphenoxy)acetyl]amino]-4-hydroxy-1,6-diphenylhexan-2-yl]-3-methyl-2-(2-oxo-1,3-diazinan-1-yl)butanamide

>  <PUBCHEM_IUPAC_NAME>
(2S)-N-[(2S,4S,5S)-5-[[2-(2,6-dimethylphenoxy)acetyl]amino]-4-hydroxy-1,6-diphenylhexan-2-yl]-3-methyl-2-(2-oxo-1,3-diazinan-1-yl)butanamide

>  <PUBCHEM_IUPAC_SYSTEMATIC_NAME>
(2S)-N-[(2S,4S,5S)-5-[2-(2,6-dimethylphenoxy)ethanoylamino]-4-oxidanyl-1,6-diphenyl-hexan-2-yl]-3-methyl-2-(2-oxidanylidene-1,3-diazinan-1-yl)butanamide

>  <PUBCHEM_IUPAC_TRADITIONAL_NAME>
(2S)-N-[(1S,3S,4S)-1-benzyl-4-[[2-(2,6-dimethylphenoxy)acetyl]amino]-3-hydroxy-5-phenyl-pentyl]-2-(2-ketohexahydropyrimidin-1-yl)-3-methyl-butyramide

>  <PUBCHEM_IUPAC_INCHI>
InChI=1S/C37H48N4O5/c1-25(2)34(41-20-12-19-38-37(41)45)36(44)39-30(21-28-15-7-5-8-16-28)23-32(42)31(22-29-17-9-6-10-18-29)40-33(43)24-46-35-26(3)13-11-14-27(35)4/h5-11,13-18,25,30-32,34,42H,12,19-24H2

>  <PUBCHEM_IUPAC_INCHIKEY>
KJHKTHWMRKYKJE-SUGCFTRWSA-N

>  <PUBCHEM_XLOGP3_AA>
5.9

>  <PUBCHEM_EXACT_MASS>
628.362471

>  <PUBCHEM_MOLECULAR_FORMULA>
C37H48N4O5

>  <PUBCHEM_MOLECULAR_WEIGHT>
628.8

>  <PUBCHEM_OPENEYE_CAN_SMILES>
CC1=C(C(=CC=C1)C)OCC(=O)NC(CC2=CC=CC=C2)C(CC(CC3=CC=CC=C3)NC(=O)C(C(C)C)N4CCCNC4=O)O

>  <PUBCHEM_OPENEYE_ISO_SMILES>
CC1=C(C(=CC=C1)C)OCC(=O)N[C@@H](CC2=CC=CC=C2)[C@H](C[C@H](CC3=CC=CC=C3)NC(=O)[C@H](C(C)C)N4CCCNC4=O)O

>  <PUBCHEM_CACTVS_TPSA>
120

>  <PUBCHEM_MONOISOTOPIC_WEIGHT>
628.362471

>  <PUBCHEM_TOTAL_CHARGE>
0

>  <PUBCHEM_HEAVY_ATOM_COUNT>
46

>  <PUBCHEM_ATOM_DEF_STEREO_COUNT>
4

>  <PUBCHEM_ATOM_UDEF_STEREO_COUNT>
0

>  <PUBCHEM_BOND_DEF_STEREO_COUNT>
0

>  <PUBCHEM_BOND_UDEF_STEREO_COUNT>
0

>  <PUBCHEM_ISOTOPIC_ATOM_COUNT>
0

>  <PUBCHEM_COMPONENT_COUNT>
1

>  <PUBCHEM_CACTVS_TAUTO_COUNT>
-1

>  <PUBCHEM_COORDINATE_TYPE>
1
5
255

>  <PUBCHEM_BONDANNOTATIONS>
13  1  6
11  17  5
25  28  8
25  29  8
26  30  8
26  31  8
28  33  8
29  34  8
30  36  8
31  37  8
33  35  8
34  35  8
36  38  8
37  38  8
39  40  8
39  41  8
40  42  8
41  43  8
42  46  8
43  46  8
10  7  6
15  8  5

>  <LF dG>
-5.873

>  <LF VSscore>
-9.477

>  <LF Rank Score>
-9.345

>  <LF LE>
-0.128

>  <Preferred Pose_cresset>
true

>  <Favorite_cresset>
false

>  <Protein_cresset>
6M2N_Monomer_P

>  <MW_cresset>
628.8

>  <#Atoms_cresset>
46

>  <SlogP_cresset>
4.7

>  <TPSA_cresset>
120

>  <Flexibility_cresset>
16.1

>  <#RB_cresset>
16

>  <Rof5_cresset>
1

>  <Filename_cresset>
Lopinavir.sdf

>  <Confs_cresset>
0

>  <Poses_cresset>
10

>  <_cresset_fieldpoints>
    -5     -50.552200      -3.692356      13.365396    -12.4424
    -5     -54.363449      -1.426235      13.942568    -15.0600
    -5     -52.859875      -2.083346      13.396037    -14.9919
    -5     -50.523270       5.060554      16.296400    -17.1673
    -5     -48.388405      -4.032428      19.684887    -20.7654
    -5     -47.149101      -2.083208      19.035126    -17.3991
    -5     -49.925499       1.348583       9.425385     -3.9954
    -5     -42.650585       0.596980      15.749365     -3.6077
    -5     -49.234428      -9.523644      16.248537     -2.4991
    -6     -48.099876       1.092024      16.173000      6.3951
    -6     -52.282204       7.350636      13.224276      5.0776
    -6     -57.340271       2.361034      14.635295      3.7580
    -6     -56.284081       0.211296      19.506516      1.1849
    -6     -46.330521      -0.706038      12.365372      6.4597
    -6     -54.309120       3.032203      10.633913      5.9422
    -6     -46.361061      -4.906436      13.720949     16.5333
    -6     -45.182175     -11.317966      18.716339      2.8387
    -6     -53.061264      -9.179674      19.434071      2.6587
    -7     -50.339790      -4.531008      15.074957     -2.7651
    -7     -46.251717      -3.163577      12.278990     -1.9546
    -7     -52.769386      -2.515507      15.270541     -2.4829
    -7     -55.008179      -0.597311      13.313853     -2.3336
    -7     -53.194611      -0.103626      11.918447     -2.9247
    -7     -52.151943       3.674577      18.029837     -2.0876
    -7     -49.513069       3.676474      15.126375     -3.1878
    -7     -50.465576       0.570458      17.508331     -3.0022
    -7     -48.884590      -4.136035      20.179214     -2.4207
    -7     -45.035542      -5.113422      16.671846     -3.3203
    -7     -49.797569       4.570018      14.516743     -3.1222
    -7     -57.213676      -0.352161      16.664532     -1.5368
    -7     -57.566879       2.183136      14.878256     -1.8900
    -7     -54.498215       5.392644      16.369308     -2.4709
    -7     -52.134956       2.116409      18.825352     -1.9963
    -7     -45.983376       1.428455      14.059251     -3.0197
    -7     -49.994621      -0.840878      10.552376     -2.1593
    -7     -49.710289       0.616807       9.421852     -1.9107
    -7     -49.219307      -2.009974      11.278646     -2.2490
    -7     -54.368027       2.643839      10.354906     -2.2259
    -7     -48.464809       1.429997      16.552124     -3.2644
    -7     -51.640755       6.876667      11.986976     -1.8639
    -7     -43.634258       2.207878      20.669239     -0.9688
    -7     -45.226913      -4.782053      18.182152     -3.3056
    -7     -40.913200      -1.387592      20.277245     -0.9687
    -7     -48.257668      -1.016746      18.626705     -2.6002
    -7     -50.694580      -3.401832      17.244877     -2.8755
    -7     -42.688705       0.682733      15.139111     -1.8425
    -7     -51.969482     -11.670105      19.710461     -1.0053
    -7     -48.246124      -7.936704      22.098217     -1.9928
    -7     -47.445038     -12.978544      19.334396     -1.0013
    -7     -48.921936      -8.457757      15.715000     -2.5182
    -8     -44.394638      -0.863275      17.436440      7.1926
    -8     -49.041977      -0.621552      14.029289      5.7717
    -8     -48.349525      -1.384230      15.095118      5.1901
    -8     -47.191372      -1.591943      14.949280      5.1992
    -8     -54.031670       1.074007      16.768385      5.9520
    -8     -49.917061       2.964458      11.740520      7.1985
    -8     -48.704094      -8.679740      18.986423      7.0732
    -8     -54.550407       3.682567      13.100946      4.9919
    -8     -46.025146      -1.241123      16.088795      5.6213
    -8     -49.870216       1.119992      12.853600      5.5720
    -8     -48.290459      -5.268585      16.529177      2.8194
    -8     -47.312653      -8.492680      18.785522      5.4634

$$$$
W_Diammonium_D
  xed2sdf_05210316543D
 
117123  0  0  1  0  0  0  0  0999 V2000
  -53.6443   -2.8732   16.0969 O   0  0  0  0  0  0  0  0  0  0  0  0
  -57.7273   -4.2322   10.9459 O   0  0  0  0  0  0  0  0  0  0  0  0
  -53.7833   -4.6652   17.7409 O   0  0  0  0  0  0  0  0  0  0  0  0
  -59.8553   -4.6492    6.3069 O   0  5  0  0  0  0  0  0  0  0  0  0
  -61.2263   -3.9822    4.6109 O   0  0  0  0  0  0  0  0  0  0  0  0
  -51.4543   -4.1212   14.9109 O   0  0  0  0  0  0  0  0  0  0  0  0
  -50.2843   -6.4822   16.3269 O   0  0  0  0  0  0  0  0  0  0  0  0
  -52.1293   -7.9782   17.9059 O   0  0  0  0  0  0  0  0  0  0  0  0
  -49.3573   -3.8002   16.0789 O   0  0  0  0  0  0  0  0  0  0  0  0
  -55.0043   -7.4162   19.3909 O   0  5  0  0  0  0  0  0  0  0  0  0
  -53.7323   -5.7422   20.2819 O   0  0  0  0  0  0  0  0  0  0  0  0
  -50.5883   -2.3752   12.8829 O   0  0  0  0  0  0  0  0  0  0  0  0
  -48.2573   -0.7632   13.3959 O   0  0  0  0  0  0  0  0  0  0  0  0
  -46.2893   -1.9232   15.1549 O   0  0  0  0  0  0  0  0  0  0  0  0
  -47.2223   -4.7852   17.8349 O   0  5  0  0  0  0  0  0  0  0  0  0
  -46.8513   -2.5322   17.7959 O   0  0  0  0  0  0  0  0  0  0  0  0
  -56.8003   -0.7742   10.4679 C   0  0  0  0  0  0  0  0  0  0  0  0
  -56.1923   -2.3282   12.5859 C   0  0  0  0  0  0  0  0  0  0  0  0
  -56.4433   -2.1822   11.0439 C   0  0  0  0  0  0  0  0  0  0  0  0
  -56.7643   -0.8502    8.8899 C   0  0  0  0  0  0  0  0  0  0  0  0
  -55.2343   -1.1812   13.0529 C   0  0  0  0  0  0  0  0  0  0  0  0
  -55.8183    0.2788   11.0489 C   0  0  0  0  0  0  0  0  0  0  0  0
  -54.6983   -1.2812   14.5229 C   0  0  0  0  0  0  0  0  0  0  0  0
  -55.6953    0.2258   12.5889 C   0  0  0  0  0  0  0  0  0  0  0  0
  -57.8353   -1.8412    8.4509 C   0  0  0  0  0  0  0  0  0  0  0  0
  -58.6543   -1.6732    7.1819 C   0  0  0  0  0  0  0  0  0  0  0  0
  -58.8023   -0.2222    6.6489 C   0  0  0  0  0  0  0  0  0  0  0  0
  -56.9163    0.5618    8.2449 C   0  0  0  0  0  0  0  0  0  0  0  0
  -55.4363   -3.6672   12.8229 C   0  0  0  0  0  0  0  0  0  0  0  0
  -57.4793    0.5658    6.8069 C   0  0  0  0  0  0  0  0  0  0  0  0
  -54.0103   -2.6622   14.7149 C   0  0  0  0  0  0  0  0  0  0  0  0
  -57.4053   -3.1802   10.4299 C   0  0  0  0  0  0  0  0  0  0  0  0
  -58.2383   -0.3632   10.9009 C   0  0  0  0  0  0  0  0  0  0  0  0
  -54.8863   -3.8502   14.2569 C   0  0  0  0  0  0  0  0  0  0  0  0
  -57.5503   -2.4002   13.3359 C   0  0  0  0  0  0  0  0  0  0  0  0
  -55.4733   -1.4832    8.3039 C   0  0  0  0  0  0  0  0  0  0  0  0
  -58.1283   -2.9092    9.2049 C   0  0  0  0  0  0  0  0  0  0  0  0
  -58.1143   -2.6032    6.0749 C   0  0  0  0  0  0  0  0  0  0  0  0
  -59.1753   -0.2182    5.1389 C   0  0  0  0  0  0  0  0  0  0  0  0
  -59.1833   -2.7882    4.9649 C   0  0  0  0  0  0  0  0  0  0  0  0
  -53.6053   -0.2172   14.7719 C   0  0  0  0  0  0  0  0  0  0  0  0
  -55.7633   -1.0362   15.6189 C   0  0  0  0  0  0  0  0  0  0  0  0
  -59.9713   -1.4732    4.7189 C   0  0  0  0  0  0  0  0  0  0  0  0
  -59.9313    0.4818    7.4329 C   0  0  0  0  0  0  0  0  0  0  0  0
  -58.4743   -3.2222    3.6709 C   0  0  0  0  0  0  0  0  0  0  0  0
  -60.1613   -3.8922    5.3179 C   0  0  0  0  0  0  0  0  0  0  0  0
  -53.3463   -4.2472   16.4289 C   0  0  0  0  0  0  0  0  0  0  0  0
  -51.8503   -4.5772   16.2229 C   0  0  0  0  0  0  0  0  0  0  0  0
  -51.6653   -6.1042   16.4109 C   0  0  0  0  0  0  0  0  0  0  0  0
  -53.6783   -6.0892   17.9299 C   0  0  0  0  0  0  0  0  0  0  0  0
  -52.2163   -6.5512   17.7789 C   0  0  0  0  0  0  0  0  0  0  0  0
  -50.0563   -3.7762   14.8139 C   0  0  0  0  0  0  0  0  0  0  0  0
  -54.1743   -6.4442   19.3069 C   0  0  0  0  0  0  0  0  0  0  0  0
  -49.9163   -2.3922   14.1509 C   0  0  0  0  0  0  0  0  0  0  0  0
  -48.4213   -2.0692   13.9669 C   0  0  0  0  0  0  0  0  0  0  0  0
  -47.9443   -3.5442   15.9389 C   0  0  0  0  0  0  0  0  0  0  0  0
  -47.6963   -2.1532   15.3239 C   0  0  0  0  0  0  0  0  0  0  0  0
  -47.2863   -3.6272   17.2929 C   0  0  0  0  0  0  0  0  0  0  0  0
  -55.5043   -2.3812   10.7639 H   0  0  0  0  0  0  0  0  0  0  0  0
  -54.3883   -1.3462   12.5459 H   0  0  0  0  0  0  0  0  0  0  0  0
  -59.5833   -1.9332    7.4449 H   0  0  0  0  0  0  0  0  0  0  0  0
  -53.1953   -2.6342   14.1359 H   0  0  0  0  0  0  0  0  0  0  0  0
  -53.8923   -4.7792   15.7809 H   0  0  0  0  0  0  0  0  0  0  0  0
  -51.2653   -4.1142   16.8879 H   0  0  0  0  0  0  0  0  0  0  0  0
  -52.1713   -6.5522   15.6749 H   0  0  0  0  0  0  0  0  0  0  0  0
  -54.2313   -6.5492   17.2349 H   0  0  0  0  0  0  0  0  0  0  0  0
  -51.6683   -6.1332   18.5039 H   0  0  0  0  0  0  0  0  0  0  0  0
  -49.6233   -4.4812   14.2509 H   0  0  0  0  0  0  0  0  0  0  0  0
  -50.3383   -1.6992   14.7359 H   0  0  0  0  0  0  0  0  0  0  0  0
  -48.0213   -2.7402   13.3439 H   0  0  0  0  0  0  0  0  0  0  0  0
  -47.5533   -4.2322   15.3269 H   0  0  0  0  0  0  0  0  0  0  0  0
  -48.0523   -1.4482   15.9369 H   0  0  0  0  0  0  0  0  0  0  0  0
  -50.1843   -7.4452   16.0549 H   0  0  0  0  0  0  0  0  0  0  0  0
  -52.0373   -8.4202   17.0069 H   0  0  0  0  0  0  0  0  0  0  0  0
  -49.9823   -2.0412   12.1519 H   0  0  0  0  0  0  0  0  0  0  0  0
  -48.2633   -0.8002   12.3909 H   0  0  0  0  0  0  0  0  0  0  0  0
  -46.0443   -1.8522   14.1819 H   0  0  0  0  0  0  0  0  0  0  0  0
  -56.1373    1.1898   10.7859 H   0  0  0  0  0  0  0  0  0  0  0  0
  -54.9143    0.0738   10.6759 H   0  0  0  0  0  0  0  0  0  0  0  0
  -55.0283    0.9078   12.8909 H   0  0  0  0  0  0  0  0  0  0  0  0
  -56.5903    0.4198   12.9889 H   0  0  0  0  0  0  0  0  0  0  0  0
  -56.0153    0.9948    8.2289 H   0  0  0  0  0  0  0  0  0  0  0  0
  -57.5823    1.0538    8.8059 H   0  0  0  0  0  0  0  0  0  0  0  0
  -54.6683   -3.7112   12.1839 H   0  0  0  0  0  0  0  0  0  0  0  0
  -56.1033   -4.3982   12.6819 H   0  0  0  0  0  0  0  0  0  0  0  0
  -57.6403    1.5138    6.5319 H   0  0  0  0  0  0  0  0  0  0  0  0
  -56.8003    0.1118    6.2299 H   0  0  0  0  0  0  0  0  0  0  0  0
  -58.1883    0.4738   11.4449 H   0  0  0  0  0  0  0  0  0  0  0  0
  -58.8023   -0.2052   10.0899 H   0  0  0  0  0  0  0  0  0  0  0  0
  -58.6483   -1.0962   11.4439 H   0  0  0  0  0  0  0  0  0  0  0  0
  -54.3373   -4.6852   14.2869 H   0  0  0  0  0  0  0  0  0  0  0  0
  -55.6693   -3.9032   14.8769 H   0  0  0  0  0  0  0  0  0  0  0  0
  -57.6223   -3.2862   13.7949 H   0  0  0  0  0  0  0  0  0  0  0  0
  -57.6023   -1.6662   14.0129 H   0  0  0  0  0  0  0  0  0  0  0  0
  -58.3013   -2.2962   12.6839 H   0  0  0  0  0  0  0  0  0  0  0  0
  -55.0573   -0.8382    7.6619 H   0  0  0  0  0  0  0  0  0  0  0  0
  -54.8313   -1.6852    9.0429 H   0  0  0  0  0  0  0  0  0  0  0  0
  -55.7013   -2.3332    7.8289 H   0  0  0  0  0  0  0  0  0  0  0  0
  -58.8583   -3.5292    8.9169 H   0  0  0  0  0  0  0  0  0  0  0  0
  -57.8873   -3.4932    6.4699 H   0  0  0  0  0  0  0  0  0  0  0  0
  -57.2953   -2.1932    5.6729 H   0  0  0  0  0  0  0  0  0  0  0  0
  -58.3333   -0.1752    4.5999 H   0  0  0  0  0  0  0  0  0  0  0  0
  -59.7573    0.5778    4.9729 H   0  0  0  0  0  0  0  0  0  0  0  0
  -53.8673    0.3408   15.5589 H   0  0  0  0  0  0  0  0  0  0  0  0
  -52.7313   -0.6662   14.9529 H   0  0  0  0  0  0  0  0  0  0  0  0
  -53.5113    0.3638   13.9629 H   0  0  0  0  0  0  0  0  0  0  0  0
  -55.4723   -0.2682   16.1899 H   0  0  0  0  0  0  0  0  0  0  0  0
  -56.6433   -0.8242   15.1939 H   0  0  0  0  0  0  0  0  0  0  0  0
  -55.8623   -1.8562   16.1819 H   0  0  0  0  0  0  0  0  0  0  0  0
  -60.1903   -1.4052    3.7459 H   0  0  0  0  0  0  0  0  0  0  0  0
  -60.7993   -1.5082    5.2789 H   0  0  0  0  0  0  0  0  0  0  0  0
  -60.6383    0.7768    6.7899 H   0  0  0  0  0  0  0  0  0  0  0  0
  -60.3243   -0.1502    8.0999 H   0  0  0  0  0  0  0  0  0  0  0  0
  -59.5613    1.2758    7.9159 H   0  0  0  0  0  0  0  0  0  0  0  0
  -58.8303   -4.1132    3.3879 H   0  0  0  0  0  0  0  0  0  0  0  0
  -58.6433   -2.5482    2.9509 H   0  0  0  0  0  0  0  0  0  0  0  0
  -57.4893   -3.2872    3.8309 H   0  0  0  0  0  0  0  0  0  0  0  0
  2 32  2  0
  3 47  1  0
  3 50  1  0
  4 46  1  0
  5 46  2  0
  9 52  1  0
  9 56  1  0
 10 53  1  0
 11 53  2  0
 15 58  1  0
 16 58  2  0
 17 19  1  0
 17 20  1  0
 17 22  1  0
 17 33  1  0
 18 19  1  0
 18 21  1  0
 18 29  1  0
 18 35  1  0
 19 32  1  0
 20 25  1  0
 20 28  1  0
 20 36  1  0
 21 23  1  0
 21 24  1  0
 22 24  1  0
 23 31  1  0
 23 41  1  0
 23 42  1  0
 25 26  1  0
 25 37  2  0
 26 27  1  0
 26 38  1  0
 27 30  1  0
 27 39  1  0
 27 44  1  0
 28 30  1  0
 29 34  1  0
 31  1  1  0
 31 34  1  0
 32 37  1  0
 38 40  1  0
 39 43  1  0
 40 43  1  0
 40 45  1  0
 40 46  1  0
 47  1  1  0
 47 48  1  0
 48  6  1  0
 48 49  1  0
 49  7  1  0
 49 51  1  0
 50 51  1  0
 50 53  1  0
 51  8  1  0
 52  6  1  0
 52 54  1  0
 54 12  1  0
 54 55  1  0
 55 13  1  0
 55 57  1  0
 56 57  1  0
 56 58  1  0
 57 14  1  0
  7 73  1  0
  8 74  1  0
 12 75  1  0
 13 76  1  0
 14 77  1  0
 19 59  1  0
 21 60  1  0
 22 78  1  0
 22 79  1  0
 24 80  1  0
 24 81  1  0
 26 61  1  0
 28 82  1  0
 28 83  1  0
 29 84  1  0
 29 85  1  0
 30 86  1  0
 30 87  1  0
 31 62  1  0
 33 88  1  0
 33 89  1  0
 33 90  1  0
 34 91  1  0
 34 92  1  0
 35 93  1  0
 35 94  1  0
 35 95  1  0
 36 96  1  0
 36 97  1  0
 36 98  1  0
 37 99  1  0
 38100  1  0
 38101  1  0
 39102  1  0
 39103  1  0
 41104  1  0
 41105  1  0
 41106  1  0
 42107  1  0
 42108  1  0
 42109  1  0
 43110  1  0
 43111  1  0
 44112  1  0
 44113  1  0
 44114  1  0
 45115  1  0
 45116  1  0
 45117  1  0
 47 63  1  0
 48 64  1  0
 49 65  1  0
 50 66  1  0
 51 67  1  0
 52 68  1  0
 54 69  1  0
 55 70  1  0
 56 71  1  0
 57 72  1  0
M  CHG  3   4  -1  10  -1  15  -1
M  END
>  <BioMolTech Lead Finder dG>
-5.112

>  <BioMolTech Lead Finder VSscore>
-11.394

>  <BioMolTech Lead Finder Rank score>
-6.53

>  <BioMolTech Lead Finder LE>
-0.088

>  <BioMolTech Lead Finder Structure Name>
/var/folders/xd/y7jw_xv579q2qqq7kks92xd80000gn/T/LeadFinder_25107_1/Ligand_1.sdf

>  <BioMolTech Lead Finder SDF id>
0

>  <BioMolTech Lead Finder Pose rank>
0

>  <BioMolTech Lead Finder version>
2001 1, 19 January 2019

>  <PUBCHEM_COMPOUND_CID>
656656

>  <PUBCHEM_COMPOUND_CANONICALIZED>
1

>  <PUBCHEM_CACTVS_COMPLEXITY>
1730

>  <PUBCHEM_CACTVS_HBOND_ACCEPTOR>
18

>  <PUBCHEM_CACTVS_HBOND_DONOR>
10

>  <PUBCHEM_CACTVS_ROTATABLE_BOND>
7

>  <PUBCHEM_CACTVS_SUBSKEYS>
AAADcfB/PgAAAAAAAAAAAAAAAAAAAAAAAAA0aMGCAAAAAADAAAAAGgAQCAAADxSwgAMCCAAABgCIAqDSCAIAAAAgAAAACAFAAEgREBYAAQQiQAAFoAAPAQPK7PzPgAAAAAAAAADAAAYAADAAAAAAAAAAAA==

>  <PUBCHEM_IUPAC_OPENEYE_NAME>
(2S,3S,4S,5R,6R)-6-[(2S,3R,4S,5S,6S)-2-[[(3S,4aR,6aR,6bS,8aS,11S,12aR,14aR,14bS)-11-carboxy-4,4,6a,6b,8a,11,14b-heptamethyl-14-oxo-2,3,4a,5,6,7,8,9,10,12,12a,14a-dodecahydro-1H-picen-3-yl]oxy]-6-carbo

>  <PUBCHEM_IUPAC_CAS_NAME>
(2S,3S,4S,5R,6R)-6-[[(2S,3R,4S,5S,6S)-2-[[(3S,4aR,6aR,6bS,8aS,11S,12aR,14aR,14bS)-11-carboxy-4,4,6a,6b,8a,11,14b-heptamethyl-14-oxo-2,3,4a,5,6,7,8,9,10,12,12a,14a-dodecahydro-1H-picen-3-yl]oxy]-6-carb

>  <PUBCHEM_IUPAC_NAME_MARKUP>
(2<I>S</I>,3<I>S</I>,4<I>S</I>,5<I>R</I>,6<I>R</I>)-6-[(2<I>S</I>,3<I>R</I>,4<I>S</I>,5<I>S</I>,6<I>S</I>)-2-[[(3<I>S</I>,4<I>a</I><I>R</I>,6<I>a</I><I>R</I>,6<I>b</I><I>S</I>,8<I>a</I><I>S</I>,11<I>S

>  <PUBCHEM_IUPAC_NAME>
(2S,3S,4S,5R,6R)-6-[(2S,3R,4S,5S,6S)-2-[[(3S,4aR,6aR,6bS,8aS,11S,12aR,14aR,14bS)-11-carboxy-4,4,6a,6b,8a,11,14b-heptamethyl-14-oxo-2,3,4a,5,6,7,8,9,10,12,12a,14a-dodecahydro-1H-picen-3-yl]oxy]-6-carbo

>  <PUBCHEM_IUPAC_SYSTEMATIC_NAME>
(2S,3S,4S,5R,6R)-6-[(2S,3R,4S,5S,6S)-2-[[(3S,4aR,6aR,6bS,8aS,11S,12aR,14aR,14bS)-11-carboxy-4,4,6a,6b,8a,11,14b-heptamethyl-14-oxidanylidene-2,3,4a,5,6,7,8,9,10,12,12a,14a-dodecahydro-1H-picen-3-yl]ox

>  <PUBCHEM_IUPAC_TRADITIONAL_NAME>
(2S,3S,4S,5R,6R)-6-[(2S,3R,4S,5S,6S)-2-[[(3S,4aR,6aR,6bS,8aS,11S,12aR,14aR,14bS)-11-carboxy-14-keto-4,4,6a,6b,8a,11,14b-heptamethyl-2,3,4a,5,6,7,8,9,10,12,12a,14a-dodecahydro-1H-picen-3-yl]oxy]-6-carb

>  <PUBCHEM_IUPAC_INCHI>
InChI=1S/C42H62O16.2H3N/c1-37(2)21-8-11-42(7)31(20(43)16-18-19-17-39(4,36(53)54)13-12-38(19,3)14-15-41(18,42)6)40(21,5)10-9-22(37)55-35-30(26(47)25(46)29(57-35)33(51)52)58-34-27(48)23(44)24(45)28(56-3

>  <PUBCHEM_IUPAC_INCHIKEY>
SPPIIOPGDLITJE-VLQRKCJKSA-N

>  <PUBCHEM_EXACT_MASS>
856.456884

>  <PUBCHEM_MOLECULAR_FORMULA>
C42H68N2O16

>  <PUBCHEM_MOLECULAR_WEIGHT>
857

>  <PUBCHEM_OPENEYE_CAN_SMILES>
CC1(C2CCC3(C(C2(CCC1OC4C(C(C(C(O4)C(=O)O)O)O)OC5C(C(C(C(O5)C(=O)O)O)O)O)C)C(=O)C=C6C3(CCC7(C6CC(CC7)(C)C(=O)O)C)C)C)C.N.N

>  <PUBCHEM_OPENEYE_ISO_SMILES>
C[C@]12CC[C@](C[C@H]1C3=CC(=O)[C@@H]4[C@]5(CC[C@@H](C([C@@H]5CC[C@]4([C@@]3(CC2)C)C)(C)C)O[C@@H]6[C@@H]([C@H]([C@@H]([C@H](O6)C(=O)O)O)O)O[C@H]7[C@@H]([C@H]([C@@H]([C@H](O7)C(=O)O)O)O)O)C)(C)C(=O)O.N.

>  <PUBCHEM_CACTVS_TPSA>
269

>  <PUBCHEM_MONOISOTOPIC_WEIGHT>
856.456884

>  <PUBCHEM_TOTAL_CHARGE>
0

>  <PUBCHEM_HEAVY_ATOM_COUNT>
60

>  <PUBCHEM_ATOM_DEF_STEREO_COUNT>
19

>  <PUBCHEM_ATOM_UDEF_STEREO_COUNT>
0

>  <PUBCHEM_BOND_DEF_STEREO_COUNT>
0

>  <PUBCHEM_BOND_UDEF_STEREO_COUNT>
0

>  <PUBCHEM_ISOTOPIC_ATOM_COUNT>
0

>  <PUBCHEM_COMPONENT_COUNT>
3

>  <PUBCHEM_CACTVS_TAUTO_COUNT>
-1

>  <PUBCHEM_COORDINATE_TYPE>
1
5
255

>  <PUBCHEM_BONDANNOTATIONS>
33  1  5
49  1  6
56  12  6
57  13  5
59  14  6
19  35  5
20  37  5
21  61  6
22  38  6
23  62  6
28  67  5
29  46  5
42  47  6
52  55  5
58  60  5
50  6  6
54  6  5
51  7  5
53  8  6

>  <LF dG>
-5.112

>  <LF VSscore>
-11.394

>  <LF Rank Score>
-6.53

>  <LF LE>
-0.088

>  <Preferred Pose_cresset>
true

>  <Favorite_cresset>
false

>  <Protein_cresset>
6M2N_Monomer_P

>  <MW_cresset>
819.9

>  <#Atoms_cresset>
58

>  <SlogP_cresset>
4.1

>  <TPSA_cresset>
275.5

>  <Flexibility_cresset>
17.3

>  <#RB_cresset>
12

>  <Rof5_cresset>
2

>  <Filename_cresset>
Diammonium Glycyrrhizinate.sdf

>  <Confs_cresset>
0

>  <Poses_cresset>
10

>  <_cresset_fieldpoints>
    -5     -58.804031      -5.617072      10.521191    -14.8136
    -5     -61.326012      -5.813570       6.346740    -12.0732
    -5     -55.262939      -7.440397      21.278816    -12.5170
    -5     -62.058083      -5.455433       5.446494    -12.0262
    -5     -62.142811      -3.269360       3.089266     -8.3044
    -5     -51.878147      -3.789610      12.878421    -14.1965
    -5     -48.866356      -5.689602      17.340120    -19.9974
    -5     -52.445541      -8.733656      19.635983    -13.4952
    -5     -54.554592      -6.491182      21.764551    -12.7631
    -5     -53.878235      -2.109777      17.836494    -13.2870
    -5     -47.902237       0.740034      14.526717    -11.4630
    -5     -45.664188      -1.328710      16.863861    -17.8956
    -5     -46.133125      -3.048193      19.416054    -13.0309
    -5     -46.390457      -4.379358      19.468391    -12.8335
    -5     -53.241318      -4.039520      19.556995    -14.6408
    -6     -51.367348      -8.756939      15.316109     17.4242
    -6     -62.100468       1.126215       4.894567      1.6481
    -6     -46.384277      -1.802866      12.298560     13.3704
    -6     -48.400902      -2.038260      11.073635     19.0725
    -6     -53.601875       0.934584       8.838751      3.0981
    -6     -58.018925       2.764050      10.304703      2.7268
    -6     -58.683289       0.578582      13.991577      2.0387
    -6     -55.905281       2.228598      14.912432      1.3073
    -6     -61.921089      -1.847723       7.454699      1.5556
    -6     -47.490097      -4.711196      13.063302      7.7484
    -6     -56.041615      -0.975630       4.190016      3.6156
    -6     -59.302963       3.012926       5.504384      2.0286
    -6     -60.901894      -1.885268       9.489738      1.7917
    -6     -58.692932       2.616979      10.025379      2.6973
    -6     -53.113724      -1.507982      10.501624      3.5895
    -7     -55.029037      -4.556965       9.435982     -2.8438
    -7     -58.111290      -5.609066       7.710150     -2.2387
    -7     -54.516228      -7.155162      14.747953     -2.5701
    -7     -60.289291      -3.032954      11.184484     -2.6948
    -7     -60.806908      -1.965744       9.825768     -3.1546
    -7     -57.562202      -3.745128      16.432995     -2.3706
    -7     -56.245949      -4.777182       8.104513     -2.8013
    -7     -58.398148      -5.517432      12.752028     -2.1226
    -7     -57.870590      -5.911637       5.525732     -2.0326
    -7     -61.441849      -3.301421       2.339814     -1.9460
    -7     -61.953476      -2.421511       7.353553     -2.7020
    -7     -50.133041      -6.943403      13.766486     -1.8946
    -7     -48.352859      -6.660457      14.988544     -2.2127
    -7     -51.490433      -8.965761      14.870201     -1.3307
    -7     -48.027630      -6.659332      16.535057     -2.2835
    -7     -54.162476      -9.291357      17.881479     -1.8365
    -7     -47.520981      -5.234663      12.933609     -1.7971
    -7     -56.334106      -4.128380      17.328581     -2.8376
    -7     -54.885162      -7.099901      22.075058     -0.8431
    -7     -57.496162      -5.765736      14.524946     -1.9173
    -7     -52.273460      -3.669082      19.507732     -2.4556
    -7     -51.876694      -7.515942      20.853748     -1.4036
    -7     -51.513153      -1.508875      17.022173     -3.4436
    -7     -48.332020      -2.589592      10.745232     -1.3309
    -7     -49.491264      -4.257221      11.535044     -1.8154
    -7     -52.508430      -2.459387      11.564188     -3.8799
    -7     -45.633713      -4.020368      13.531998     -1.7716
    -7     -53.513371       1.076363       8.812561     -2.2319
    -7     -44.596924      -2.459253      16.686718     -1.5758
    -7     -46.259796       0.450624      14.002949     -1.5539
    -7     -46.819042      -3.585484      20.171059     -0.8503
    -7     -44.548782      -3.071751      16.216887     -1.5705
    -7     -49.544693      -4.763032      18.660034     -2.7417
    -7     -58.796227       0.552209      14.084053     -2.6595
    -7     -55.943146       2.163368      15.105019     -2.2780
    -7     -52.126488      -0.932751      11.921618     -3.5884
    -7     -58.820129       2.697480      10.102863     -2.4175
    -7     -54.312531       1.084676       6.148571     -1.8007
    -7     -55.229107      -1.249198       4.886394     -2.6625
    -7     -58.339256       3.481943       8.385052     -1.9122
    -7     -62.507225       0.538770       5.046318     -1.7454
    -7     -59.449234       3.132757       5.629441     -1.9729
    -7     -55.970909      -0.931097       4.028121     -2.8300
    -7     -58.323723      -0.192448       1.990697     -1.7810
    -7     -52.142036      -4.337333      12.523708     -3.6592
    -8     -56.043091      -0.999105      11.789629      7.3807
    -8     -55.129025      -2.476357      13.619081      7.2475
    -8     -57.205383      -1.786016       9.776003      7.4891
    -8     -57.750431      -0.546416       7.683722      7.2431
    -8     -52.552109      -5.624248      16.822521      5.1699
    -8     -58.964813      -1.466557       5.805888      7.4569
    -8     -48.714836      -2.798401      14.708059      5.1660
    -8     -54.711658      -1.169235      14.352527      6.4220
    -8     -55.957405      -2.290047      12.510771      6.6575

$$$$
Diammonium_D
  xed2sdf_05210316543D
 
117123  0  0  1  0  0  0  0  0999 V2000
  -51.7673   -1.2966   15.7415 O   0  0  0  0  0  0  0  0  0  0  0  0
  -54.9753   -7.0636   14.5225 O   0  0  0  0  0  0  0  0  0  0  0  0
  -49.6443   -2.2376   16.4785 O   0  0  0  0  0  0  0  0  0  0  0  0
  -57.8763  -10.8146   12.4015 O   0  5  0  0  0  0  0  0  0  0  0  0
  -59.8673  -11.9206   12.4855 O   0  0  0  0  0  0  0  0  0  0  0  0
  -50.4743   -0.0146   13.6325 O   0  0  0  0  0  0  0  0  0  0  0  0
  -47.4843   -0.0906   13.6025 O   0  0  0  0  0  0  0  0  0  0  0  0
  -46.3233   -2.3846   14.8385 O   0  0  0  0  0  0  0  0  0  0  0  0
  -51.8993    1.8904   14.0845 O   0  0  0  0  0  0  0  0  0  0  0  0
  -47.7873   -4.6536   17.4205 O   0  5  0  0  0  0  0  0  0  0  0  0
  -46.9973   -2.5716   17.9285 O   0  0  0  0  0  0  0  0  0  0  0  0
  -48.9563    1.5474   11.8515 O   0  0  0  0  0  0  0  0  0  0  0  0
  -50.0373    4.0854   11.0275 O   0  0  0  0  0  0  0  0  0  0  0  0
  -51.7153    5.4224   12.9535 O   0  0  0  0  0  0  0  0  0  0  0  0
  -54.3283    3.0624   14.2215 O   0  5  0  0  0  0  0  0  0  0  0  0
  -53.3953    4.7054   15.5035 O   0  0  0  0  0  0  0  0  0  0  0  0
  -57.5273   -4.5286   14.1895 C   0  0  0  0  0  0  0  0  0  0  0  0
  -54.9893   -4.1616   15.0215 C   0  0  0  0  0  0  0  0  0  0  0  0
  -56.0163   -4.9166   14.1075 C   0  0  0  0  0  0  0  0  0  0  0  0
  -58.3003   -5.2536   13.0165 C   0  0  0  0  0  0  0  0  0  0  0  0
  -55.2633   -2.6226   14.9255 C   0  0  0  0  0  0  0  0  0  0  0  0
  -57.6613   -2.9836   14.1425 C   0  0  0  0  0  0  0  0  0  0  0  0
  -54.2053   -1.6866   15.6055 C   0  0  0  0  0  0  0  0  0  0  0  0
  -56.7523   -2.2526   15.1585 C   0  0  0  0  0  0  0  0  0  0  0  0
  -58.1703   -6.7556   13.2365 C   0  0  0  0  0  0  0  0  0  0  0  0
  -59.2763   -7.7436   12.9025 C   0  0  0  0  0  0  0  0  0  0  0  0
  -60.7203   -7.1736   12.8845 C   0  0  0  0  0  0  0  0  0  0  0  0
  -59.7753   -4.7606   12.9125 C   0  0  0  0  0  0  0  0  0  0  0  0
  -53.5653   -4.3996   14.4415 C   0  0  0  0  0  0  0  0  0  0  0  0
  -60.7533   -5.7596   12.2555 C   0  0  0  0  0  0  0  0  0  0  0  0
  -52.7993   -2.0146   15.0305 C   0  0  0  0  0  0  0  0  0  0  0  0
  -55.9353   -6.4306   14.1275 C   0  0  0  0  0  0  0  0  0  0  0  0
  -58.1353   -5.0116   15.5395 C   0  0  0  0  0  0  0  0  0  0  0  0
  -52.4583   -3.5206   15.0705 C   0  0  0  0  0  0  0  0  0  0  0  0
  -55.0303   -4.7516   16.4585 C   0  0  0  0  0  0  0  0  0  0  0  0
  -57.6583   -5.0726   11.6145 C   0  0  0  0  0  0  0  0  0  0  0  0
  -57.0613   -7.2736   13.7795 C   0  0  0  0  0  0  0  0  0  0  0  0
  -58.9613   -8.4636   11.5745 C   0  0  0  0  0  0  0  0  0  0  0  0
  -61.6673   -8.0826   12.0475 C   0  0  0  0  0  0  0  0  0  0  0  0
  -59.8043   -9.7606   11.4585 C   0  0  0  0  0  0  0  0  0  0  0  0
  -54.4843   -0.2096   15.2475 C   0  0  0  0  0  0  0  0  0  0  0  0
  -54.1963   -1.7356   17.1535 C   0  0  0  0  0  0  0  0  0  0  0  0
  -61.2253   -9.5626   12.0505 C   0  0  0  0  0  0  0  0  0  0  0  0
  -61.2513   -7.1186   14.3335 C   0  0  0  0  0  0  0  0  0  0  0  0
  -59.9063  -10.1476    9.9725 C   0  0  0  0  0  0  0  0  0  0  0  0
  -59.1313  -10.9216   12.1655 C   0  0  0  0  0  0  0  0  0  0  0  0
  -50.4213   -1.6896   15.3905 C   0  0  0  0  0  0  0  0  0  0  0  0
  -49.6503   -0.5446   14.6935 C   0  0  0  0  0  0  0  0  0  0  0  0
  -48.3033   -1.1146   14.1835 C   0  0  0  0  0  0  0  0  0  0  0  0
  -48.4083   -2.8276   16.0305 C   0  0  0  0  0  0  0  0  0  0  0  0
  -47.5233   -1.7756   15.3365 C   0  0  0  0  0  0  0  0  0  0  0  0
  -50.5993    1.4224   13.6575 C   0  0  0  0  0  0  0  0  0  0  0  0
  -47.6723   -3.3946   17.2165 C   0  0  0  0  0  0  0  0  0  0  0  0
  -50.2563    1.9894   12.2655 C   0  0  0  0  0  0  0  0  0  0  0  0
  -50.3043    3.5284   12.3225 C   0  0  0  0  0  0  0  0  0  0  0  0
  -51.9653    3.3284   14.1905 C   0  0  0  0  0  0  0  0  0  0  0  0
  -51.6823    3.9934   12.8295 C   0  0  0  0  0  0  0  0  0  0  0  0
  -53.3343    3.7284   14.6775 C   0  0  0  0  0  0  0  0  0  0  0  0
  -55.6703   -4.5586   13.2405 H   0  0  0  0  0  0  0  0  0  0  0  0
  -55.0993   -2.4036   13.9645 H   0  0  0  0  0  0  0  0  0  0  0  0
  -59.2773   -8.3876   13.6665 H   0  0  0  0  0  0  0  0  0  0  0  0
  -52.8323   -1.7276   14.0735 H   0  0  0  0  0  0  0  0  0  0  0  0
  -50.5473   -2.4416   14.7435 H   0  0  0  0  0  0  0  0  0  0  0  0
  -49.4473    0.2094   15.3175 H   0  0  0  0  0  0  0  0  0  0  0  0
  -48.5203   -1.7946   13.4835 H   0  0  0  0  0  0  0  0  0  0  0  0
  -48.6163   -3.5526   15.3745 H   0  0  0  0  0  0  0  0  0  0  0  0
  -47.2703   -1.0736   16.0035 H   0  0  0  0  0  0  0  0  0  0  0  0
  -49.9513    1.7574   14.3425 H   0  0  0  0  0  0  0  0  0  0  0  0
  -50.9253    1.6604   11.5985 H   0  0  0  0  0  0  0  0  0  0  0  0
  -49.6003    3.8494   12.9565 H   0  0  0  0  0  0  0  0  0  0  0  0
  -51.2693    3.6344   14.8395 H   0  0  0  0  0  0  0  0  0  0  0  0
  -52.3873    3.7244   12.1735 H   0  0  0  0  0  0  0  0  0  0  0  0
  -46.7383   -0.4856   13.0545 H   0  0  0  0  0  0  0  0  0  0  0  0
  -46.2153   -2.2246   13.8505 H   0  0  0  0  0  0  0  0  0  0  0  0
  -48.9743    0.5854   11.5565 H   0  0  0  0  0  0  0  0  0  0  0  0
  -50.4003    3.4994   10.2945 H   0  0  0  0  0  0  0  0  0  0  0  0
  -50.9463    5.7604   13.5065 H   0  0  0  0  0  0  0  0  0  0  0  0
  -58.6123   -2.7406   14.3335 H   0  0  0  0  0  0  0  0  0  0  0  0
  -57.3733   -2.6916   13.2305 H   0  0  0  0  0  0  0  0  0  0  0  0
  -56.8673   -1.2646   15.0535 H   0  0  0  0  0  0  0  0  0  0  0  0
  -57.0133   -2.5326   16.0815 H   0  0  0  0  0  0  0  0  0  0  0  0
  -59.7853   -3.9156   12.3765 H   0  0  0  0  0  0  0  0  0  0  0  0
  -60.0953   -4.6366   13.8515 H   0  0  0  0  0  0  0  0  0  0  0  0
  -53.5923   -4.2146   13.4585 H   0  0  0  0  0  0  0  0  0  0  0  0
  -53.3283   -5.3476   14.6525 H   0  0  0  0  0  0  0  0  0  0  0  0
  -61.6813   -5.3966   12.3395 H   0  0  0  0  0  0  0  0  0  0  0  0
  -60.4673   -5.8586   11.3025 H   0  0  0  0  0  0  0  0  0  0  0  0
  -58.4643   -4.2176   16.0505 H   0  0  0  0  0  0  0  0  0  0  0  0
  -58.8953   -5.6366   15.3635 H   0  0  0  0  0  0  0  0  0  0  0  0
  -57.4363   -5.4896   16.0715 H   0  0  0  0  0  0  0  0  0  0  0  0
  -51.6053   -3.6726   14.5715 H   0  0  0  0  0  0  0  0  0  0  0  0
  -52.3743   -3.7846   16.0315 H   0  0  0  0  0  0  0  0  0  0  0  0
  -54.1363   -5.1446   16.6745 H   0  0  0  0  0  0  0  0  0  0  0  0
  -55.2473   -4.0286   17.1145 H   0  0  0  0  0  0  0  0  0  0  0  0
  -55.7323   -5.4606   16.5115 H   0  0  0  0  0  0  0  0  0  0  0  0
  -58.3403   -4.6876   10.9915 H   0  0  0  0  0  0  0  0  0  0  0  0
  -56.8743   -4.4546   11.6785 H   0  0  0  0  0  0  0  0  0  0  0  0
  -57.3473   -5.9576   11.2695 H   0  0  0  0  0  0  0  0  0  0  0  0
  -57.0093   -8.2576   13.9485 H   0  0  0  0  0  0  0  0  0  0  0  0
  -57.9893   -8.6936   11.5435 H   0  0  0  0  0  0  0  0  0  0  0  0
  -59.1893   -7.8576   10.8115 H   0  0  0  0  0  0  0  0  0  0  0  0
  -61.6803   -7.7506   11.1045 H   0  0  0  0  0  0  0  0  0  0  0  0
  -62.5753   -8.0386   12.4645 H   0  0  0  0  0  0  0  0  0  0  0  0
  -54.5853    0.3174   16.0925 H   0  0  0  0  0  0  0  0  0  0  0  0
  -53.7253    0.1574   14.7105 H   0  0  0  0  0  0  0  0  0  0  0  0
  -55.3253   -0.1466   14.7095 H   0  0  0  0  0  0  0  0  0  0  0  0
  -54.3703   -0.8176   17.5095 H   0  0  0  0  0  0  0  0  0  0  0  0
  -54.9063   -2.3626   17.4755 H   0  0  0  0  0  0  0  0  0  0  0  0
  -53.3063   -2.0596   17.4745 H   0  0  0  0  0  0  0  0  0  0  0  0
  -61.8783  -10.0936   11.5085 H   0  0  0  0  0  0  0  0  0  0  0  0
  -61.2033   -9.8706   13.0005 H   0  0  0  0  0  0  0  0  0  0  0  0
  -62.0783   -7.6766   14.3985 H   0  0  0  0  0  0  0  0  0  0  0  0
  -60.5573   -7.4696   14.9615 H   0  0  0  0  0  0  0  0  0  0  0  0
  -61.4633   -6.1716   14.5775 H   0  0  0  0  0  0  0  0  0  0  0  0
  -59.5083  -11.0556    9.8445 H   0  0  0  0  0  0  0  0  0  0  0  0
  -60.8653  -10.1566    9.6905 H   0  0  0  0  0  0  0  0  0  0  0  0
  -59.4103   -9.4796    9.4165 H   0  0  0  0  0  0  0  0  0  0  0  0
  2 32  2  0
  3 47  1  0
  3 50  1  0
  4 46  1  0
  5 46  2  0
  9 52  1  0
  9 56  1  0
 10 53  1  0
 11 53  2  0
 15 58  1  0
 16 58  2  0
 17 19  1  0
 17 20  1  0
 17 22  1  0
 17 33  1  0
 18 19  1  0
 18 21  1  0
 18 29  1  0
 18 35  1  0
 19 32  1  0
 20 25  1  0
 20 28  1  0
 20 36  1  0
 21 23  1  0
 21 24  1  0
 22 24  1  0
 23 31  1  0
 23 41  1  0
 23 42  1  0
 25 26  1  0
 25 37  2  0
 26 27  1  0
 26 38  1  0
 27 30  1  0
 27 39  1  0
 27 44  1  0
 28 30  1  0
 29 34  1  0
 31  1  1  0
 31 34  1  0
 32 37  1  0
 38 40  1  0
 39 43  1  0
 40 43  1  0
 40 45  1  0
 40 46  1  0
 47  1  1  0
 47 48  1  0
 48  6  1  0
 48 49  1  0
 49  7  1  0
 49 51  1  0
 50 51  1  0
 50 53  1  0
 51  8  1  0
 52  6  1  0
 52 54  1  0
 54 12  1  0
 54 55  1  0
 55 13  1  0
 55 57  1  0
 56 57  1  0
 56 58  1  0
 57 14  1  0
  7 73  1  0
  8 74  1  0
 12 75  1  0
 13 76  1  0
 14 77  1  0
 19 59  1  0
 21 60  1  0
 22 78  1  0
 22 79  1  0
 24 80  1  0
 24 81  1  0
 26 61  1  0
 28 82  1  0
 28 83  1  0
 29 84  1  0
 29 85  1  0
 30 86  1  0
 30 87  1  0
 31 62  1  0
 33 88  1  0
 33 89  1  0
 33 90  1  0
 34 91  1  0
 34 92  1  0
 35 93  1  0
 35 94  1  0
 35 95  1  0
 36 96  1  0
 36 97  1  0
 36 98  1  0
 37 99  1  0
 38100  1  0
 38101  1  0
 39102  1  0
 39103  1  0
 41104  1  0
 41105  1  0
 41106  1  0
 42107  1  0
 42108  1  0
 42109  1  0
 43110  1  0
 43111  1  0
 44112  1  0
 44113  1  0
 44114  1  0
 45115  1  0
 45116  1  0
 45117  1  0
 47 63  1  0
 48 64  1  0
 49 65  1  0
 50 66  1  0
 51 67  1  0
 52 68  1  0
 54 69  1  0
 55 70  1  0
 56 71  1  0
 57 72  1  0
M  CHG  3   4  -1  10  -1  15  -1
M  END
>  <BioMolTech Lead Finder dG>
-4.383

>  <BioMolTech Lead Finder VSscore>
-11.258

>  <BioMolTech Lead Finder Rank score>
-6.078

>  <BioMolTech Lead Finder LE>
-0.076

>  <BioMolTech Lead Finder Structure Name>
/var/folders/xd/y7jw_xv579q2qqq7kks92xd80000gn/T/LeadFinder_23857_1/Ligand_1.sdf

>  <BioMolTech Lead Finder SDF id>
0

>  <BioMolTech Lead Finder Pose rank>
0

>  <BioMolTech Lead Finder version>
2001 1, 19 January 2019

>  <PUBCHEM_COMPOUND_CID>
656656

>  <PUBCHEM_COMPOUND_CANONICALIZED>
1

>  <PUBCHEM_CACTVS_COMPLEXITY>
1730

>  <PUBCHEM_CACTVS_HBOND_ACCEPTOR>
18

>  <PUBCHEM_CACTVS_HBOND_DONOR>
10

>  <PUBCHEM_CACTVS_ROTATABLE_BOND>
7

>  <PUBCHEM_CACTVS_SUBSKEYS>
AAADcfB/PgAAAAAAAAAAAAAAAAAAAAAAAAA0aMGCAAAAAADAAAAAGgAQCAAADxSwgAMCCAAABgCIAqDSCAIAAAAgAAAACAFAAEgREBYAAQQiQAAFoAAPAQPK7PzPgAAAAAAAAADAAAYAADAAAAAAAAAAAA==

>  <PUBCHEM_IUPAC_OPENEYE_NAME>
(2S,3S,4S,5R,6R)-6-[(2S,3R,4S,5S,6S)-2-[[(3S,4aR,6aR,6bS,8aS,11S,12aR,14aR,14bS)-11-carboxy-4,4,6a,6b,8a,11,14b-heptamethyl-14-oxo-2,3,4a,5,6,7,8,9,10,12,12a,14a-dodecahydro-1H-picen-3-yl]oxy]-6-carbo

>  <PUBCHEM_IUPAC_CAS_NAME>
(2S,3S,4S,5R,6R)-6-[[(2S,3R,4S,5S,6S)-2-[[(3S,4aR,6aR,6bS,8aS,11S,12aR,14aR,14bS)-11-carboxy-4,4,6a,6b,8a,11,14b-heptamethyl-14-oxo-2,3,4a,5,6,7,8,9,10,12,12a,14a-dodecahydro-1H-picen-3-yl]oxy]-6-carb

>  <PUBCHEM_IUPAC_NAME_MARKUP>
(2<I>S</I>,3<I>S</I>,4<I>S</I>,5<I>R</I>,6<I>R</I>)-6-[(2<I>S</I>,3<I>R</I>,4<I>S</I>,5<I>S</I>,6<I>S</I>)-2-[[(3<I>S</I>,4<I>a</I><I>R</I>,6<I>a</I><I>R</I>,6<I>b</I><I>S</I>,8<I>a</I><I>S</I>,11<I>S

>  <PUBCHEM_IUPAC_NAME>
(2S,3S,4S,5R,6R)-6-[(2S,3R,4S,5S,6S)-2-[[(3S,4aR,6aR,6bS,8aS,11S,12aR,14aR,14bS)-11-carboxy-4,4,6a,6b,8a,11,14b-heptamethyl-14-oxo-2,3,4a,5,6,7,8,9,10,12,12a,14a-dodecahydro-1H-picen-3-yl]oxy]-6-carbo

>  <PUBCHEM_IUPAC_SYSTEMATIC_NAME>
(2S,3S,4S,5R,6R)-6-[(2S,3R,4S,5S,6S)-2-[[(3S,4aR,6aR,6bS,8aS,11S,12aR,14aR,14bS)-11-carboxy-4,4,6a,6b,8a,11,14b-heptamethyl-14-oxidanylidene-2,3,4a,5,6,7,8,9,10,12,12a,14a-dodecahydro-1H-picen-3-yl]ox

>  <PUBCHEM_IUPAC_TRADITIONAL_NAME>
(2S,3S,4S,5R,6R)-6-[(2S,3R,4S,5S,6S)-2-[[(3S,4aR,6aR,6bS,8aS,11S,12aR,14aR,14bS)-11-carboxy-14-keto-4,4,6a,6b,8a,11,14b-heptamethyl-2,3,4a,5,6,7,8,9,10,12,12a,14a-dodecahydro-1H-picen-3-yl]oxy]-6-carb

>  <PUBCHEM_IUPAC_INCHI>
InChI=1S/C42H62O16.2H3N/c1-37(2)21-8-11-42(7)31(20(43)16-18-19-17-39(4,36(53)54)13-12-38(19,3)14-15-41(18,42)6)40(21,5)10-9-22(37)55-35-30(26(47)25(46)29(57-35)33(51)52)58-34-27(48)23(44)24(45)28(56-3

>  <PUBCHEM_IUPAC_INCHIKEY>
SPPIIOPGDLITJE-VLQRKCJKSA-N

>  <PUBCHEM_EXACT_MASS>
856.456884

>  <PUBCHEM_MOLECULAR_FORMULA>
C42H68N2O16

>  <PUBCHEM_MOLECULAR_WEIGHT>
857

>  <PUBCHEM_OPENEYE_CAN_SMILES>
CC1(C2CCC3(C(C2(CCC1OC4C(C(C(C(O4)C(=O)O)O)O)OC5C(C(C(C(O5)C(=O)O)O)O)O)C)C(=O)C=C6C3(CCC7(C6CC(CC7)(C)C(=O)O)C)C)C)C.N.N

>  <PUBCHEM_OPENEYE_ISO_SMILES>
C[C@]12CC[C@](C[C@H]1C3=CC(=O)[C@@H]4[C@]5(CC[C@@H](C([C@@H]5CC[C@]4([C@@]3(CC2)C)C)(C)C)O[C@@H]6[C@@H]([C@H]([C@@H]([C@H](O6)C(=O)O)O)O)O[C@H]7[C@@H]([C@H]([C@@H]([C@H](O7)C(=O)O)O)O)O)C)(C)C(=O)O.N.

>  <PUBCHEM_CACTVS_TPSA>
269

>  <PUBCHEM_MONOISOTOPIC_WEIGHT>
856.456884

>  <PUBCHEM_TOTAL_CHARGE>
0

>  <PUBCHEM_HEAVY_ATOM_COUNT>
60

>  <PUBCHEM_ATOM_DEF_STEREO_COUNT>
19

>  <PUBCHEM_ATOM_UDEF_STEREO_COUNT>
0

>  <PUBCHEM_BOND_DEF_STEREO_COUNT>
0

>  <PUBCHEM_BOND_UDEF_STEREO_COUNT>
0

>  <PUBCHEM_ISOTOPIC_ATOM_COUNT>
0

>  <PUBCHEM_COMPONENT_COUNT>
3

>  <PUBCHEM_CACTVS_TAUTO_COUNT>
-1

>  <PUBCHEM_COORDINATE_TYPE>
1
5
255

>  <PUBCHEM_BONDANNOTATIONS>
33  1  5
49  1  6
56  12  6
57  13  5
59  14  6
19  35  5
20  37  5
21  61  6
22  38  6
23  62  6
28  67  5
29  46  5
42  47  6
52  55  5
58  60  5
50  6  6
54  6  5
51  7  5
53  8  6

>  <LF dG>
-4.383

>  <LF VSscore>
-11.258

>  <LF Rank Score>
-6.078

>  <LF LE>
-0.076

>  <Preferred Pose_cresset>
true

>  <Favorite_cresset>
false

>  <Protein_cresset>
6M2N_Monomer_P

>  <MW_cresset>
819.9

>  <#Atoms_cresset>
58

>  <SlogP_cresset>
4.1

>  <TPSA_cresset>
275.5

>  <Flexibility_cresset>
17.3

>  <#RB_cresset>
12

>  <Rof5_cresset>
2

>  <Filename_cresset>
Diammonium Glycyrrhizinate.sdf

>  <Confs_cresset>
0

>  <Poses_cresset>
10

>  <_cresset_fieldpoints>
    -5     -51.999123       0.554345      16.172565    -12.7253
    -5     -50.811695      -1.872806      17.951048    -11.4178
    -5     -57.521156     -12.440172      13.264076    -12.1175
    -5     -58.580795     -13.028167      13.311714    -12.0614
    -5     -51.958103      -0.536338      12.541388     -5.1181
    -5     -53.696453       1.615938      13.138693    -12.2548
    -5     -47.570282       1.768207      13.153502    -18.4144
    -5     -47.963905       3.032187      11.162390    -14.3216
    -5     -50.893513       5.793756      11.148642    -15.5462
    -5     -45.092354      -2.823396      16.236860    -13.0629
    -5     -46.713913      -4.833072      18.977493    -12.2641
    -5     -47.539253      -6.420215      18.114681     -8.9576
    -5     -53.104721       6.440644      12.146992    -13.5540
    -5     -55.786179       3.877307      15.054079    -12.1228
    -5     -55.263134       4.835608      15.767580    -11.9913
    -5     -54.523056      -8.801094      14.699999    -14.8572
    -5     -61.513996     -12.891386      12.596525     -8.2816
    -5     -46.262321      -3.665987      19.244152    -12.4539
    -6     -46.553612      -2.026651      12.038328     18.7150
    -6     -49.675316       5.195430      14.822539     10.3487
    -6     -51.467312       2.138782       9.500009      9.6602
    -6     -54.998413      -2.988037      11.714308      4.2335
    -6     -58.618820      -2.150476      11.211365      2.6832
    -6     -61.067890      -3.933745      15.789120      2.5900
    -6     -60.777534      -3.247780      15.559090      2.5913
    -6     -57.366985      -3.362805      18.234379      1.9043
    -6     -60.091484      -9.806157      15.288982      1.4756
    -6     -49.441853      -3.721387      13.281706      8.2405
    -6     -63.981602      -5.998916      12.988151      1.9587
    -6     -58.697571      -8.357863      15.997493      1.8135
    -6     -60.459785      -6.962860       9.126513      3.5241
    -7     -51.907318       1.007612      16.587128     -4.0108
    -7     -53.283752      -7.498671      16.039043     -2.1215
    -7     -55.782551      -9.579439      12.190056     -2.2393
    -7     -58.427475      -8.141064      16.193050     -3.1534
    -7     -56.694511      -7.868680      16.627985     -2.6945
    -7     -55.530975      -7.701941      11.386854     -2.8017
    -7     -54.550186      -6.194114      11.566633     -2.8410
    -7     -48.949612      -0.375559      18.040022     -2.3797
    -7     -56.652565     -10.554497      10.306030     -2.0403
    -7     -58.401752     -10.258154      14.915605     -2.5451
    -7     -59.835007     -10.268114      15.097532     -2.7093
    -7     -51.166431      -1.739552      12.124939     -3.3154
    -7     -49.683815      -4.046538      12.970695     -2.5371
    -7     -44.956627      -0.198273      14.407747     -1.5875
    -7     -46.725731      -2.318515      11.625035     -1.3513
    -7     -51.804588      -6.278244      16.659168     -1.9130
    -7     -51.078926      -3.216969      18.129738     -2.9049
    -7     -47.300266      -4.190397      13.147869     -1.8416
    -7     -44.778809      -2.565147      16.774910     -1.5590
    -7     -48.203899       2.742898       9.874580     -1.5798
    -7     -52.504234       2.704892       9.779739     -1.6300
    -7     -49.301880       5.243662      15.106096     -1.7112
    -7     -52.481697       6.760341      14.809603     -1.7130
    -7     -51.630249       6.311497      15.534224     -1.7294
    -7     -48.665562       3.623457      15.386398     -1.9831
    -7     -50.329491       6.582206      11.283772     -1.5142
    -7     -55.749954       2.658928      16.144949     -1.5891
    -7     -53.609993       1.177611      12.397875     -3.3405
    -7     -56.973923      -0.085258      17.484203     -2.2842
    -7     -53.099464       0.129342      12.283056     -3.2421
    -7     -58.626831      -1.992285      11.134048     -2.2303
    -7     -62.452694      -3.804490      14.493786     -1.9121
    -7     -64.057396      -5.958513      13.198561     -1.9729
    -7     -60.547340      -6.946805       8.972668     -2.8300
    -7     -55.681938      -0.994123      12.095109     -2.7463
    -7     -61.113541      -3.848948      15.916992     -2.4175
    -7     -54.941231      -2.762935      11.604216     -3.4053
    -7     -52.385246      -4.232734      18.456882     -2.3266
    -7     -60.344032      -3.685690       9.753864     -1.8007
    -7     -59.572838      -6.282240       9.035321     -2.6624
    -7     -63.511597      -9.805021      14.351433     -1.7461
    -7     -57.334820      -3.386312      18.368492     -2.6596
    -7     -63.057449      -8.914013       9.217833     -1.7809
    -7     -61.591866     -12.721110      11.039301     -1.9576
    -7     -47.421440       2.207633      13.881353     -2.7123
    -8     -48.835537      -1.639985      14.970555      5.1692
    -8     -53.933716      -3.110198      15.024858      7.2465
    -8     -56.375454      -3.592968      14.591816      7.3807
    -8     -59.534286      -6.235205      12.865204      7.2434
    -8     -60.284775      -8.425654      12.161413      7.4576
    -8     -50.852341       2.962971      13.070834      5.1625
    -8     -54.387768      -1.704550      15.510384      6.4186
    -8     -57.275780      -5.728162      13.775997      7.4891
    -8     -54.973927      -4.020483      14.816301      6.6574

$$$$
W_Wogonoside_D
  xed2sdf_05210316543D
 
 52 55  0  0  1  0  0  0  0  0999 V2000
  -49.4869   -3.8162   17.6854 O   0  0  0  0  0  0  0  0  0  0  0  0
  -49.6989   -1.7162   16.4874 O   0  0  0  0  0  0  0  0  0  0  0  0
  -51.7759   -5.7492   14.7254 O   0  0  0  0  0  0  0  0  0  0  0  0
  -51.4999   -2.8942   14.7074 O   0  0  0  0  0  0  0  0  0  0  0  0
  -51.2569   -7.0552   17.2444 O   0  0  0  0  0  0  0  0  0  0  0  0
  -49.7689   -6.5772   19.8444 O   0  5  0  0  0  0  0  0  0  0  0  0
  -47.9749   -5.7862   18.6734 O   0  0  0  0  0  0  0  0  0  0  0  0
  -45.5659   -0.3072   18.3474 O   0  0  0  0  0  0  0  0  0  0  0  0
  -48.2439   -0.3962   18.4574 O   0  0  0  0  0  0  0  0  0  0  0  0
  -45.7119   -2.8502   14.2684 O   0  0  0  0  0  0  0  0  0  0  0  0
  -43.5159   -2.0412   15.3174 O   0  0  0  0  0  0  0  0  0  0  0  0
  -51.4329   -5.0172   15.9114 C   0  0  0  0  0  0  0  0  0  0  0  0
  -50.6809   -3.7252   15.5434 C   0  0  0  0  0  0  0  0  0  0  0  0
  -50.5519   -5.8742   16.8364 C   0  0  0  0  0  0  0  0  0  0  0  0
  -50.3069   -2.9792   16.8394 C   0  0  0  0  0  0  0  0  0  0  0  0
  -50.1499   -5.0392   18.0684 C   0  0  0  0  0  0  0  0  0  0  0  0
  -49.2269   -5.8642   18.9284 C   0  0  0  0  0  0  0  0  0  0  0  0
  -48.3649   -1.6522   16.4444 C   0  0  0  0  0  0  0  0  0  0  0  0
  -47.6269   -1.0032   17.4254 C   0  0  0  0  0  0  0  0  0  0  0  0
  -47.7089   -2.2782   15.3944 C   0  0  0  0  0  0  0  0  0  0  0  0
  -46.2409   -0.9592   17.3564 C   0  0  0  0  0  0  0  0  0  0  0  0
  -45.5979   -1.5822   16.2874 C   0  0  0  0  0  0  0  0  0  0  0  0
  -46.3429   -2.2432   15.3064 C   0  0  0  0  0  0  0  0  0  0  0  0
  -44.1529   -1.5242   16.2354 C   0  0  0  0  0  0  0  0  0  0  0  0
  -44.1919   -0.2802   18.2934 C   0  0  0  0  0  0  0  0  0  0  0  0
  -43.4749   -0.8542   17.2844 C   0  0  0  0  0  0  0  0  0  0  0  0
  -43.4999    0.4178   19.4104 C   0  0  0  0  0  0  0  0  0  0  0  0
  -48.5469    1.0038   18.3024 C   0  0  0  0  0  0  0  0  0  0  0  0
  -44.2659    0.9888   20.4154 C   0  0  0  0  0  0  0  0  0  0  0  0
  -42.1179    0.5248   19.5014 C   0  0  0  0  0  0  0  0  0  0  0  0
  -43.6779    1.6418   21.4714 C   0  0  0  0  0  0  0  0  0  0  0  0
  -41.5289    1.1778   20.5574 C   0  0  0  0  0  0  0  0  0  0  0  0
  -42.3069    1.7378   21.5454 C   0  0  0  0  0  0  0  0  0  0  0  0
  -52.2799   -4.7812   16.3884 H   0  0  0  0  0  0  0  0  0  0  0  0
  -49.8489   -3.9542   15.0364 H   0  0  0  0  0  0  0  0  0  0  0  0
  -49.7299   -6.1562   16.3424 H   0  0  0  0  0  0  0  0  0  0  0  0
  -51.1209   -2.7732   17.3834 H   0  0  0  0  0  0  0  0  0  0  0  0
  -50.9779   -4.7942   18.5724 H   0  0  0  0  0  0  0  0  0  0  0  0
  -51.6619   -6.7392   14.8614 H   0  0  0  0  0  0  0  0  0  0  0  0
  -51.0059   -2.6082   13.8794 H   0  0  0  0  0  0  0  0  0  0  0  0
  -51.5069   -7.6242   16.4534 H   0  0  0  0  0  0  0  0  0  0  0  0
  -46.1839   -3.6952   13.9934 H   0  0  0  0  0  0  0  0  0  0  0  0
  -48.2379   -2.7592   14.6954 H   0  0  0  0  0  0  0  0  0  0  0  0
  -42.4759   -0.8022   17.2844 H   0  0  0  0  0  0  0  0  0  0  0  0
  -48.2309    1.3078   17.4034 H   0  0  0  0  0  0  0  0  0  0  0  0
  -49.5339    1.1468   18.3774 H   0  0  0  0  0  0  0  0  0  0  0  0
  -48.0869    1.5298   19.0174 H   0  0  0  0  0  0  0  0  0  0  0  0
  -45.2629    0.9248   20.3714 H   0  0  0  0  0  0  0  0  0  0  0  0
  -41.5439    0.1208   18.7884 H   0  0  0  0  0  0  0  0  0  0  0  0
  -44.2459    2.0478   22.1874 H   0  0  0  0  0  0  0  0  0  0  0  0
  -40.5329    1.2458   20.6084 H   0  0  0  0  0  0  0  0  0  0  0  0
  -41.8779    2.2118   22.3144 H   0  0  0  0  0  0  0  0  0  0  0  0
  1 15  1  0
  1 16  1  0
  2 18  1  0
  6 17  1  0
  7 17  2  0
  8 21  1  0
  8 25  1  0
  9 19  1  0
  9 28  1  0
 10 23  1  0
 11 24  2  0
 12  3  1  0
 12 13  1  0
 12 14  1  0
 13  4  1  0
 13 15  1  0
 14  5  1  0
 14 16  1  0
 15  2  1  0
 16 17  1  0
 18 19  2  0
 18 20  1  0
 19 21  1  0
 20 23  2  0
 21 22  2  0
 22 23  1  0
 22 24  1  0
 24 26  1  0
 25 26  2  0
 25 27  1  0
 27 29  2  0
 27 30  1  0
 29 31  1  0
 30 32  2  0
 31 33  2  0
 32 33  1  0
  3 39  1  0
  4 40  1  0
  5 41  1  0
 10 42  1  0
 12 34  1  0
 13 35  1  0
 14 36  1  0
 15 37  1  0
 16 38  1  0
 20 43  1  0
 26 44  1  0
 28 45  1  0
 28 46  1  0
 28 47  1  0
 29 48  1  0
 30 49  1  0
 31 50  1  0
 32 51  1  0
 33 52  1  0
M  CHG  1   6  -1
M  END
>  <BioMolTech Lead Finder dG>
-5.967

>  <BioMolTech Lead Finder VSscore>
-9.243

>  <BioMolTech Lead Finder Rank score>
-8.919

>  <BioMolTech Lead Finder LE>
-0.181

>  <BioMolTech Lead Finder Structure Name>
/var/folders/xd/y7jw_xv579q2qqq7kks92xd80000gn/T/LeadFinder_44147_1/Ligand_1.sdf

>  <BioMolTech Lead Finder SDF id>
0

>  <BioMolTech Lead Finder Pose rank>
0

>  <BioMolTech Lead Finder version>
2001 1, 19 January 2019

>  <PUBCHEM_COMPOUND_CID>
3084961

>  <PUBCHEM_COMPOUND_CANONICALIZED>
1

>  <PUBCHEM_CACTVS_COMPLEXITY>
763

>  <PUBCHEM_CACTVS_HBOND_ACCEPTOR>
11

>  <PUBCHEM_CACTVS_HBOND_DONOR>
5

>  <PUBCHEM_CACTVS_ROTATABLE_BOND>
5

>  <PUBCHEM_CACTVS_SUBSKEYS>
AAADceB4PAAAAAAAAAAAAAAAAAAAAAAAAAA0YIEAAAAAAACBQAAAGgAACAAADBSwmAMyDoAABgCIAqDSCAICCAAkIAAIiAFGiMgdNzaGNR6ieWKl4BUPuQfK7LzOIQABCAAIQABCAAIQABCAAAAAAAAAAA==

>  <PUBCHEM_IUPAC_OPENEYE_NAME>
(2S,3S,4S,5R,6S)-3,4,5-trihydroxy-6-(5-hydroxy-8-methoxy-4-oxo-2-phenyl-chromen-7-yl)oxy-tetrahydropyran-2-carboxylic acid

>  <PUBCHEM_IUPAC_CAS_NAME>
(2S,3S,4S,5R,6S)-3,4,5-trihydroxy-6-[(5-hydroxy-8-methoxy-4-oxo-2-phenyl-1-benzopyran-7-yl)oxy]-2-oxanecarboxylic acid

>  <PUBCHEM_IUPAC_NAME_MARKUP>
(2<I>S</I>,3<I>S</I>,4<I>S</I>,5<I>R</I>,6<I>S</I>)-3,4,5-trihydroxy-6-(5-hydroxy-8-methoxy-4-oxo-2-phenylchromen-7-yl)oxyoxane-2-carboxylic acid

>  <PUBCHEM_IUPAC_NAME>
(2S,3S,4S,5R,6S)-3,4,5-trihydroxy-6-(5-hydroxy-8-methoxy-4-oxo-2-phenylchromen-7-yl)oxyoxane-2-carboxylic acid

>  <PUBCHEM_IUPAC_SYSTEMATIC_NAME>
(2S,3S,4S,5R,6S)-6-(8-methoxy-5-oxidanyl-4-oxidanylidene-2-phenyl-chromen-7-yl)oxy-3,4,5-tris(oxidanyl)oxane-2-carboxylic acid

>  <PUBCHEM_IUPAC_TRADITIONAL_NAME>
(2S,3S,4S,5R,6S)-3,4,5-trihydroxy-6-(5-hydroxy-4-keto-8-methoxy-2-phenyl-chromen-7-yl)oxy-tetrahydropyran-2-carboxylic acid

>  <PUBCHEM_IUPAC_INCHI>
InChI=1S/C22H20O11/c1-30-18-13(32-22-17(27)15(25)16(26)20(33-22)21(28)29)8-11(24)14-10(23)7-12(31-19(14)18)9-5-3-2-4-6-9/h2-8,15-17,20,22,24-27H,1H3,(H,28,29)/t15-,16-,17+,20-,22+/m0/s1

>  <PUBCHEM_IUPAC_INCHIKEY>
LNOHXHDWGCMVCO-NTKSAMNMSA-N

>  <PUBCHEM_XLOGP3_AA>
1.4

>  <PUBCHEM_EXACT_MASS>
460.100561

>  <PUBCHEM_MOLECULAR_FORMULA>
C22H20O11

>  <PUBCHEM_MOLECULAR_WEIGHT>
460.4

>  <PUBCHEM_OPENEYE_CAN_SMILES>
COC1=C(C=C(C2=C1OC(=CC2=O)C3=CC=CC=C3)O)OC4C(C(C(C(O4)C(=O)O)O)O)O

>  <PUBCHEM_OPENEYE_ISO_SMILES>
COC1=C(C=C(C2=C1OC(=CC2=O)C3=CC=CC=C3)O)O[C@H]4[C@@H]([C@H]([C@@H]([C@H](O4)C(=O)O)O)O)O

>  <PUBCHEM_CACTVS_TPSA>
172

>  <PUBCHEM_MONOISOTOPIC_WEIGHT>
460.100561

>  <PUBCHEM_TOTAL_CHARGE>
0

>  <PUBCHEM_HEAVY_ATOM_COUNT>
33

>  <PUBCHEM_ATOM_DEF_STEREO_COUNT>
5

>  <PUBCHEM_ATOM_UDEF_STEREO_COUNT>
0

>  <PUBCHEM_BOND_DEF_STEREO_COUNT>
0

>  <PUBCHEM_BOND_UDEF_STEREO_COUNT>
0

>  <PUBCHEM_ISOTOPIC_ATOM_COUNT>
0

>  <PUBCHEM_COMPONENT_COUNT>
1

>  <PUBCHEM_CACTVS_TAUTO_COUNT>
-1

>  <PUBCHEM_COORDINATE_TYPE>
1
5
255

>  <PUBCHEM_BONDANNOTATIONS>
16  17  5
18  19  8
18  20  8
19  21  8
15  2  5
20  23  8
21  22  8
22  23  8
22  24  8
24  26  8
25  26  8
27  29  8
27  30  8
29  31  8
12  3  5
30  32  8
31  33  8
32  33  8
13  4  6
14  5  6
8  21  8
8  25  8

>  <LF dG>
-5.967

>  <LF VSscore>
-9.243

>  <LF Rank Score>
-8.919

>  <LF LE>
-0.181

>  <Preferred Pose_cresset>
true

>  <Favorite_cresset>
false

>  <Protein_cresset>
6M2N_Monomer_P

>  <MW_cresset>
459.4

>  <#Atoms_cresset>
33

>  <SlogP_cresset>
1.4

>  <TPSA_cresset>
175

>  <Flexibility_cresset>
7.6

>  <#RB_cresset>
9

>  <Rof5_cresset>
1

>  <Filename_cresset>
Wogonoside.sdf

>  <Confs_cresset>
0

>  <Poses_cresset>
10

>  <_cresset_fieldpoints>
    -5     -48.353107      -7.400103      20.668152    -11.0392
    -5     -47.180550      -6.858713      19.925388    -11.0984
    -5     -53.038170      -3.912838      13.974498     -9.2467
    -5     -51.582207      -7.398368      19.167751     -9.8959
    -5     -47.389198      -4.219933      17.792675    -11.0531
    -5     -43.842674      -2.667079      13.584551    -14.7801
    -5     -41.856209      -2.416336      14.525158    -12.1528
    -5     -43.035759       3.599551      18.936592     -4.0419
    -5     -43.200706      -1.648219      21.789803     -5.1512
    -6     -49.476059      -2.986099      12.964348      7.8945
    -6     -50.903938      -8.277527      14.964493     11.6696
    -6     -47.850201      -4.583741      13.612495      7.9163
    -6     -53.002033      -3.690904      18.417856      1.5881
    -6     -39.107815       0.362732      18.847126      1.8416
    -6     -46.910831       2.466846      21.123356      1.5506
    -6     -43.070553       3.363569      24.076492      1.8511
    -6     -39.414925       2.493090      22.463928      1.9552
    -7     -51.566086       0.058362      17.117922     -2.0096
    -7     -53.696915      -7.212266      16.161036     -1.5308
    -7     -51.296371      -4.617641      12.581501     -1.5668
    -7     -49.234856      -3.379910      12.573692     -1.7840
    -7     -53.485840      -2.247690      16.111115     -1.6760
    -7     -49.944839      -8.148962      14.623408     -1.3685
    -7     -53.259686      -6.313092      18.512959     -1.7104
    -7     -49.408646      -6.179591      13.654293     -1.8732
    -7     -50.692966      -0.439458      14.356108     -2.1856
    -7     -47.138039       1.283285      14.951593     -2.2900
    -7     -53.311184      -3.650570      18.466568     -1.7763
    -7     -52.132080      -7.215265      19.473244     -1.7537
    -7     -44.604557      -2.929985      19.436214     -2.4682
    -7     -50.174698      -8.692692      18.550140     -1.6211
    -7     -44.235573      -1.004268      13.108980     -1.6438
    -7     -47.295898      -5.228492      16.490526     -3.2862
    -7     -44.038727      -4.537685      15.113121     -1.7630
    -7     -46.655899      -4.043395      18.345644     -2.9650
    -7     -47.104149      -3.705121      18.993423     -2.9504
    -7     -49.661079       3.580374      19.985712     -0.6655
    -7     -50.577950       0.699712      15.715897     -2.0150
    -7     -46.609444      -1.251717      20.606686     -2.6743
    -7     -43.267365       3.374501      24.366148     -0.9672
    -7     -45.608624       2.229791      17.466290     -2.9572
    -7     -39.175156       2.477366      22.636818     -0.9672
    -7     -42.906746      -1.820849      21.943842     -1.7874
    -7     -43.128288       3.735842      18.622782     -1.7917
    -8     -46.958694      -1.628177      16.347038      6.6078
    -8     -50.760376      -4.564765      16.630932      5.1802
    -8     -42.898247       1.079580      20.482090      7.1490
    -8     -44.714905      -1.072930      17.041451      5.0123
    -8     -43.011570      -0.073185      18.561207      5.4383
    -8     -48.704491       1.855461      18.169556      2.5275

$$$$
Untitled
  xed2sdf_05210316543D
 
 52 55  0  0  1  0  0  0  0  0999 V2000
  -48.7622   -0.1826   16.4128 O   0  0  0  0  0  0  0  0  0  0  0  0
  -50.3372   -1.1546   14.8428 O   0  0  0  0  0  0  0  0  0  0  0  0
  -46.6032   -3.7976   16.4998 O   0  0  0  0  0  0  0  0  0  0  0  0
  -49.1302   -3.6536   15.1518 O   0  0  0  0  0  0  0  0  0  0  0  0
  -46.1072   -1.7606   18.4808 O   0  0  0  0  0  0  0  0  0  0  0  0
  -46.0032    0.9594   17.6418 O   0  5  0  0  0  0  0  0  0  0  0  0
  -47.9342    1.7274   18.5868 O   0  0  0  0  0  0  0  0  0  0  0  0
  -51.6382    2.9134   12.7728 O   0  0  0  0  0  0  0  0  0  0  0  0
  -52.2062    0.8604   14.4008 O   0  0  0  0  0  0  0  0  0  0  0  0
  -47.3072    0.9894   11.9568 O   0  0  0  0  0  0  0  0  0  0  0  0
  -48.0802    3.1734   10.8578 O   0  0  0  0  0  0  0  0  0  0  0  0
  -47.5722   -2.7896   16.8208 C   0  0  0  0  0  0  0  0  0  0  0  0
  -48.4422   -2.4726   15.5908 C   0  0  0  0  0  0  0  0  0  0  0  0
  -46.8742   -1.5036   17.2968 C   0  0  0  0  0  0  0  0  0  0  0  0
  -49.4532   -1.3716   15.9648 C   0  0  0  0  0  0  0  0  0  0  0  0
  -47.9382   -0.4226   17.5728 C   0  0  0  0  0  0  0  0  0  0  0  0
  -47.2382    0.8524   17.9638 C   0  0  0  0  0  0  0  0  0  0  0  0
  -50.0772   -0.1286   14.0268 C   0  0  0  0  0  0  0  0  0  0  0  0
  -50.9982    0.8874   13.8038 C   0  0  0  0  0  0  0  0  0  0  0  0
  -48.8362   -0.0766   13.4078 C   0  0  0  0  0  0  0  0  0  0  0  0
  -50.6962    1.9434   12.9558 C   0  0  0  0  0  0  0  0  0  0  0  0
  -49.4492    1.9734   12.3318 C   0  0  0  0  0  0  0  0  0  0  0  0
  -48.5212    0.9544   12.5658 C   0  0  0  0  0  0  0  0  0  0  0  0
  -49.1552    3.0844   11.4518 C   0  0  0  0  0  0  0  0  0  0  0  0
  -51.3342    3.9724   11.9498 C   0  0  0  0  0  0  0  0  0  0  0  0
  -50.1442    4.0854   11.2898 C   0  0  0  0  0  0  0  0  0  0  0  0
  -52.3812    5.0194   11.8038 C   0  0  0  0  0  0  0  0  0  0  0  0
  -52.3072    1.4924   15.6918 C   0  0  0  0  0  0  0  0  0  0  0  0
  -53.5752    4.8674   12.4928 C   0  0  0  0  0  0  0  0  0  0  0  0
  -52.2232    6.1484   11.0108 C   0  0  0  0  0  0  0  0  0  0  0  0
  -54.5742    5.8054   12.3968 C   0  0  0  0  0  0  0  0  0  0  0  0
  -53.2232    7.0874   10.9148 C   0  0  0  0  0  0  0  0  0  0  0  0
  -54.4002    6.9194   11.6068 C   0  0  0  0  0  0  0  0  0  0  0  0
  -48.1542   -3.1386   17.5548 H   0  0  0  0  0  0  0  0  0  0  0  0
  -47.8612   -2.1536   14.8418 H   0  0  0  0  0  0  0  0  0  0  0  0
  -46.2512   -1.1826   16.5838 H   0  0  0  0  0  0  0  0  0  0  0  0
  -50.0212   -1.6516   16.7378 H   0  0  0  0  0  0  0  0  0  0  0  0
  -48.5332   -0.7406   18.3108 H   0  0  0  0  0  0  0  0  0  0  0  0
  -46.8512   -4.2886   15.6578 H   0  0  0  0  0  0  0  0  0  0  0  0
  -48.5192   -4.2626   14.6338 H   0  0  0  0  0  0  0  0  0  0  0  0
  -45.1982   -1.3316   18.4288 H   0  0  0  0  0  0  0  0  0  0  0  0
  -46.8482    0.0944   11.9978 H   0  0  0  0  0  0  0  0  0  0  0  0
  -48.1662   -0.7996   13.5798 H   0  0  0  0  0  0  0  0  0  0  0  0
  -49.9712    4.8714   10.6958 H   0  0  0  0  0  0  0  0  0  0  0  0
  -51.4142    1.8664   15.9418 H   0  0  0  0  0  0  0  0  0  0  0  0
  -52.9822    2.2294   15.6548 H   0  0  0  0  0  0  0  0  0  0  0  0
  -52.5952    0.8204   16.3738 H   0  0  0  0  0  0  0  0  0  0  0  0
  -53.7112    4.0614   13.0698 H   0  0  0  0  0  0  0  0  0  0  0  0
  -51.3722    6.2804   10.5038 H   0  0  0  0  0  0  0  0  0  0  0  0
  -55.4282    5.6794   12.9008 H   0  0  0  0  0  0  0  0  0  0  0  0
  -53.0942    7.8954   10.3388 H   0  0  0  0  0  0  0  0  0  0  0  0
  -55.1262    7.6024   11.5368 H   0  0  0  0  0  0  0  0  0  0  0  0
  1 15  1  0
  1 16  1  0
  2 18  1  0
  6 17  1  0
  7 17  2  0
  8 21  1  0
  8 25  1  0
  9 19  1  0
  9 28  1  0
 10 23  1  0
 11 24  2  0
 12  3  1  0
 12 13  1  0
 12 14  1  0
 13  4  1  0
 13 15  1  0
 14  5  1  0
 14 16  1  0
 15  2  1  0
 16 17  1  0
 18 19  2  0
 18 20  1  0
 19 21  1  0
 20 23  2  0
 21 22  2  0
 22 23  1  0
 22 24  1  0
 24 26  1  0
 25 26  2  0
 25 27  1  0
 27 29  2  0
 27 30  1  0
 29 31  1  0
 30 32  2  0
 31 33  2  0
 32 33  1  0
  3 39  1  0
  4 40  1  0
  5 41  1  0
 10 42  1  0
 12 34  1  0
 13 35  1  0
 14 36  1  0
 15 37  1  0
 16 38  1  0
 20 43  1  0
 26 44  1  0
 28 45  1  0
 28 46  1  0
 28 47  1  0
 29 48  1  0
 30 49  1  0
 31 50  1  0
 32 51  1  0
 33 52  1  0
M  CHG  1   6  -1
M  END
>  <BioMolTech Lead Finder dG>
-5.171

>  <BioMolTech Lead Finder VSscore>
-9.387

>  <BioMolTech Lead Finder Rank score>
-9.822

>  <BioMolTech Lead Finder LE>
-0.157

>  <BioMolTech Lead Finder Structure Name>
/var/folders/xd/y7jw_xv579q2qqq7kks92xd80000gn/T/LeadFinder_40693_1/Ligand_1.sdf

>  <BioMolTech Lead Finder SDF id>
0

>  <BioMolTech Lead Finder Pose rank>
0

>  <BioMolTech Lead Finder version>
2001 1, 19 January 2019

>  <PUBCHEM_COMPOUND_CID>
3084961

>  <PUBCHEM_COMPOUND_CANONICALIZED>
1

>  <PUBCHEM_CACTVS_COMPLEXITY>
763

>  <PUBCHEM_CACTVS_HBOND_ACCEPTOR>
11

>  <PUBCHEM_CACTVS_HBOND_DONOR>
5

>  <PUBCHEM_CACTVS_ROTATABLE_BOND>
5

>  <PUBCHEM_CACTVS_SUBSKEYS>
AAADceB4PAAAAAAAAAAAAAAAAAAAAAAAAAA0YIEAAAAAAACBQAAAGgAACAAADBSwmAMyDoAABgCIAqDSCAICCAAkIAAIiAFGiMgdNzaGNR6ieWKl4BUPuQfK7LzOIQABCAAIQABCAAIQABCAAAAAAAAAAA==

>  <PUBCHEM_IUPAC_OPENEYE_NAME>
(2S,3S,4S,5R,6S)-3,4,5-trihydroxy-6-(5-hydroxy-8-methoxy-4-oxo-2-phenyl-chromen-7-yl)oxy-tetrahydropyran-2-carboxylic acid

>  <PUBCHEM_IUPAC_CAS_NAME>
(2S,3S,4S,5R,6S)-3,4,5-trihydroxy-6-[(5-hydroxy-8-methoxy-4-oxo-2-phenyl-1-benzopyran-7-yl)oxy]-2-oxanecarboxylic acid

>  <PUBCHEM_IUPAC_NAME_MARKUP>
(2<I>S</I>,3<I>S</I>,4<I>S</I>,5<I>R</I>,6<I>S</I>)-3,4,5-trihydroxy-6-(5-hydroxy-8-methoxy-4-oxo-2-phenylchromen-7-yl)oxyoxane-2-carboxylic acid

>  <PUBCHEM_IUPAC_NAME>
(2S,3S,4S,5R,6S)-3,4,5-trihydroxy-6-(5-hydroxy-8-methoxy-4-oxo-2-phenylchromen-7-yl)oxyoxane-2-carboxylic acid

>  <PUBCHEM_IUPAC_SYSTEMATIC_NAME>
(2S,3S,4S,5R,6S)-6-(8-methoxy-5-oxidanyl-4-oxidanylidene-2-phenyl-chromen-7-yl)oxy-3,4,5-tris(oxidanyl)oxane-2-carboxylic acid

>  <PUBCHEM_IUPAC_TRADITIONAL_NAME>
(2S,3S,4S,5R,6S)-3,4,5-trihydroxy-6-(5-hydroxy-4-keto-8-methoxy-2-phenyl-chromen-7-yl)oxy-tetrahydropyran-2-carboxylic acid

>  <PUBCHEM_IUPAC_INCHI>
InChI=1S/C22H20O11/c1-30-18-13(32-22-17(27)15(25)16(26)20(33-22)21(28)29)8-11(24)14-10(23)7-12(31-19(14)18)9-5-3-2-4-6-9/h2-8,15-17,20,22,24-27H,1H3,(H,28,29)/t15-,16-,17+,20-,22+/m0/s1

>  <PUBCHEM_IUPAC_INCHIKEY>
LNOHXHDWGCMVCO-NTKSAMNMSA-N

>  <PUBCHEM_XLOGP3_AA>
1.4

>  <PUBCHEM_EXACT_MASS>
460.100561

>  <PUBCHEM_MOLECULAR_FORMULA>
C22H20O11

>  <PUBCHEM_MOLECULAR_WEIGHT>
460.4

>  <PUBCHEM_OPENEYE_CAN_SMILES>
COC1=C(C=C(C2=C1OC(=CC2=O)C3=CC=CC=C3)O)OC4C(C(C(C(O4)C(=O)O)O)O)O

>  <PUBCHEM_OPENEYE_ISO_SMILES>
COC1=C(C=C(C2=C1OC(=CC2=O)C3=CC=CC=C3)O)O[C@H]4[C@@H]([C@H]([C@@H]([C@H](O4)C(=O)O)O)O)O

>  <PUBCHEM_CACTVS_TPSA>
172

>  <PUBCHEM_MONOISOTOPIC_WEIGHT>
460.100561

>  <PUBCHEM_TOTAL_CHARGE>
0

>  <PUBCHEM_HEAVY_ATOM_COUNT>
33

>  <PUBCHEM_ATOM_DEF_STEREO_COUNT>
5

>  <PUBCHEM_ATOM_UDEF_STEREO_COUNT>
0

>  <PUBCHEM_BOND_DEF_STEREO_COUNT>
0

>  <PUBCHEM_BOND_UDEF_STEREO_COUNT>
0

>  <PUBCHEM_ISOTOPIC_ATOM_COUNT>
0

>  <PUBCHEM_COMPONENT_COUNT>
1

>  <PUBCHEM_CACTVS_TAUTO_COUNT>
-1

>  <PUBCHEM_COORDINATE_TYPE>
1
5
255

>  <PUBCHEM_BONDANNOTATIONS>
16  17  5
18  19  8
18  20  8
19  21  8
15  2  5
20  23  8
21  22  8
22  23  8
22  24  8
24  26  8
25  26  8
27  29  8
27  30  8
29  31  8
12  3  5
30  32  8
31  33  8
32  33  8
13  4  6
14  5  6
8  21  8
8  25  8

>  <LF dG>
-5.171

>  <LF VSscore>
-9.387

>  <LF Rank Score>
-9.822

>  <LF LE>
-0.157

>  <Preferred Pose_cresset>
true

>  <Favorite_cresset>
false

>  <Protein_cresset>
6M2N_Monomer_P

>  <MW_cresset>
459.4

>  <#Atoms_cresset>
33

>  <SlogP_cresset>
1.4

>  <TPSA_cresset>
175

>  <Flexibility_cresset>
7.6

>  <#RB_cresset>
9

>  <Rof5_cresset>
1

>  <Filename_cresset>
Wogonoside.sdf

>  <Confs_cresset>
0

>  <Poses_cresset>
9

>  <_cresset_fieldpoints>
    -5     -52.573128      -1.543663      14.587696     -7.9974
    -5     -45.673538      -3.671683      18.168762    -16.5181
    -5     -45.662338       2.721697      18.308119    -10.6308
    -5     -46.742836       3.145852      18.861155    -11.0212
    -5     -48.839146       1.689571      16.018402     -7.0904
    -5     -49.821678       1.744095      18.905293     -7.6095
    -5     -50.961029      -3.394642      14.656507    -13.1809
    -5     -46.408264       2.376317      10.991035    -23.1945
    -5     -54.622765       4.516508       9.483343     -2.8557
    -5     -52.348335       7.459032      13.997083     -2.7531
    -6     -46.935196      -4.203576      13.747118     18.3489
    -6     -46.474953      -1.576240      12.855389     13.2427
    -6     -50.054451      -2.243898      18.828362      4.2752
    -6     -43.450867      -1.040880      17.787848      6.3605
    -6     -57.184052       7.397690      12.706282      2.6156
    -6     -54.793720       3.681747      14.980534      2.9446
    -6     -49.837715       6.759245       9.380605      3.4900
    -6     -54.762558       9.573431      10.115679      2.6608
    -7     -49.903160      -3.266788      12.857732     -2.2831
    -7     -52.820129      -1.767695      15.588583     -2.1958
    -7     -48.577301      -5.774906      16.372778     -1.6146
    -7     -44.504677      -3.594505      17.811228     -1.5150
    -7     -46.285362       0.961023      15.092037     -2.9029
    -7     -50.645058      -4.315584      17.039381     -1.6929
    -7     -43.949425      -0.000838      17.000114     -1.4526
    -7     -47.761276      -2.500812      20.236765     -1.6570
    -7     -48.815002       2.321265      15.939037     -3.6069
    -7     -46.226166       3.294120      12.616533     -1.6732
    -7     -50.131432      -2.619059      19.135414     -1.7874
    -7     -46.282089      -0.504287      20.487286     -1.6211
    -7     -50.454834       1.189577      18.271088     -2.3318
    -7     -53.905327       1.646332      12.288027     -2.6338
    -7     -51.043480      -0.591137      10.642986     -1.8903
    -7     -51.144836       4.474537      14.922875     -2.9824
    -7     -47.535095       1.120553       9.457582     -1.6957
    -7     -51.943939       7.365012      14.260025     -1.7953
    -7     -52.146130       2.006167       9.970736     -2.4162
    -7     -57.520470       7.434384      12.849653     -0.9672
    -7     -54.943012       9.885612      10.041711     -0.9671
    -7     -54.463158       4.207235       9.195814     -1.7836
    -8     -48.055107      -1.820086      16.733944      5.1850
    -8     -49.738518       0.936028      13.168558      6.6078
    -8     -52.330288       1.891325      16.473633      2.5266
    -8     -53.393791       5.971138      11.699802      7.1485
    -8     -50.097343       3.005435      11.977646      5.0121
    -8     -51.401760       5.023104      11.314835      5.4381

$$$$
W_Wogonin_D
  xed2sdf_05210316543D
 
 33 35  0  0  0  0  0  0  0  0999 V2000
  -47.4493   -3.7140   16.2662 O   0  0  0  0  0  0  0  0  0  0  0  0
  -45.0283   -2.6780   16.6732 O   0  0  0  0  0  0  0  0  0  0  0  0
  -48.4433    0.0260   13.3542 O   0  0  0  0  0  0  0  0  0  0  0  0
  -44.2553   -0.3190   15.4902 O   0  0  0  0  0  0  0  0  0  0  0  0
  -50.2043   -1.9800   13.8742 O   0  0  0  0  0  0  0  0  0  0  0  0
  -48.0273   -1.8690   14.7912 C   0  0  0  0  0  0  0  0  0  0  0  0
  -47.1413   -2.5460   15.6352 C   0  0  0  0  0  0  0  0  0  0  0  0
  -48.7013   -4.2440   16.0862 C   0  0  0  0  0  0  0  0  0  0  0  0
  -45.8763   -2.0240   15.8582 C   0  0  0  0  0  0  0  0  0  0  0  0
  -49.3363   -2.4660   14.5982 C   0  0  0  0  0  0  0  0  0  0  0  0
  -47.6193   -0.6690   14.1842 C   0  0  0  0  0  0  0  0  0  0  0  0
  -49.6403   -3.6700   15.2812 C   0  0  0  0  0  0  0  0  0  0  0  0
  -48.9963   -5.5000   16.8232 C   0  0  0  0  0  0  0  0  0  0  0  0
  -45.4903   -0.8380   15.2622 C   0  0  0  0  0  0  0  0  0  0  0  0
  -46.3673   -0.1690   14.4252 C   0  0  0  0  0  0  0  0  0  0  0  0
  -47.9873   -6.0800   17.5792 C   0  0  0  0  0  0  0  0  0  0  0  0
  -50.2363   -6.1240   16.7952 C   0  0  0  0  0  0  0  0  0  0  0  0
  -48.2073   -7.2390   18.2822 C   0  0  0  0  0  0  0  0  0  0  0  0
  -50.4553   -7.2840   17.4982 C   0  0  0  0  0  0  0  0  0  0  0  0
  -49.4423   -7.8440   18.2432 C   0  0  0  0  0  0  0  0  0  0  0  0
  -44.7203   -2.0440   17.9292 C   0  0  0  0  0  0  0  0  0  0  0  0
  -48.5373   -0.4140   12.4582 H   0  0  0  0  0  0  0  0  0  0  0  0
  -43.5373   -1.0190   15.4212 H   0  0  0  0  0  0  0  0  0  0  0  0
  -50.5393   -4.0970   15.1732 H   0  0  0  0  0  0  0  0  0  0  0  0
  -46.0833    0.6870   13.9922 H   0  0  0  0  0  0  0  0  0  0  0  0
  -47.0863   -5.6460   17.6132 H   0  0  0  0  0  0  0  0  0  0  0  0
  -50.9783   -5.7240   16.2572 H   0  0  0  0  0  0  0  0  0  0  0  0
  -47.4693   -7.6440   18.8222 H   0  0  0  0  0  0  0  0  0  0  0  0
  -51.3533   -7.7220   17.4692 H   0  0  0  0  0  0  0  0  0  0  0  0
  -49.6033   -8.6890   18.7542 H   0  0  0  0  0  0  0  0  0  0  0  0
  -45.2153   -1.1770   17.9872 H   0  0  0  0  0  0  0  0  0  0  0  0
  -44.9943   -2.6390   18.6852 H   0  0  0  0  0  0  0  0  0  0  0  0
  -43.7363   -1.8750   17.9892 H   0  0  0  0  0  0  0  0  0  0  0  0
  1  7  1  0
  1  8  1  0
  2  9  1  0
  2 21  1  0
  3 11  1  0
  4 14  1  0
  5 10  2  0
  6  7  2  0
  6 10  1  0
  6 11  1  0
  7  9  1  0
  8 12  2  0
  8 13  1  0
  9 14  2  0
 10 12  1  0
 11 15  2  0
 13 16  2  0
 13 17  1  0
 14 15  1  0
 16 18  1  0
 17 19  2  0
 18 20  2  0
 19 20  1  0
  3 22  1  0
  4 23  1  0
 12 24  1  0
 15 25  1  0
 16 26  1  0
 17 27  1  0
 18 28  1  0
 19 29  1  0
 20 30  1  0
 21 31  1  0
 21 32  1  0
 21 33  1  0
M  END
>  <BioMolTech Lead Finder dG>
-5.37

>  <BioMolTech Lead Finder VSscore>
-6.577

>  <BioMolTech Lead Finder Rank score>
-8.115

>  <BioMolTech Lead Finder LE>
-0.256

>  <BioMolTech Lead Finder Structure Name>
/var/folders/xd/y7jw_xv579q2qqq7kks92xd80000gn/T/LeadFinder_43404_1/Ligand_1.sdf

>  <BioMolTech Lead Finder SDF id>
0

>  <BioMolTech Lead Finder Pose rank>
0

>  <BioMolTech Lead Finder version>
2001 1, 19 January 2019

>  <PUBCHEM_COMPOUND_CID>
5281703

>  <PUBCHEM_COMPOUND_CANONICALIZED>
1

>  <PUBCHEM_CACTVS_COMPLEXITY>
426

>  <PUBCHEM_CACTVS_HBOND_ACCEPTOR>
5

>  <PUBCHEM_CACTVS_HBOND_DONOR>
2

>  <PUBCHEM_CACTVS_ROTATABLE_BOND>
2

>  <PUBCHEM_CACTVS_SUBSKEYS>
AAADccB4OAAAAAAAAAAAAAAAAAAAAAAAAAAwYIAAAAAAAACBQAAAGgAACAAADASAmAIyBoAABgCIAqBSAAACCAAkIAAIiAEGiMgNJzaGNRqCeWOl4BULuQfK7LzOIQABCAAIQABCAAIQABCAAAAAAAAAAA==

>  <PUBCHEM_IUPAC_OPENEYE_NAME>
5,7-dihydroxy-8-methoxy-2-phenyl-chromen-4-one

>  <PUBCHEM_IUPAC_CAS_NAME>
5,7-dihydroxy-8-methoxy-2-phenyl-1-benzopyran-4-one

>  <PUBCHEM_IUPAC_NAME_MARKUP>
5,7-dihydroxy-8-methoxy-2-phenylchromen-4-one

>  <PUBCHEM_IUPAC_NAME>
5,7-dihydroxy-8-methoxy-2-phenylchromen-4-one

>  <PUBCHEM_IUPAC_SYSTEMATIC_NAME>
8-methoxy-5,7-bis(oxidanyl)-2-phenyl-chromen-4-one

>  <PUBCHEM_IUPAC_TRADITIONAL_NAME>
5,7-dihydroxy-8-methoxy-2-phenyl-chromone

>  <PUBCHEM_IUPAC_INCHI>
InChI=1S/C16H12O5/c1-20-15-12(19)7-10(17)14-11(18)8-13(21-16(14)15)9-5-3-2-4-6-9/h2-8,17,19H,1H3

>  <PUBCHEM_IUPAC_INCHIKEY>
XLTFNNCXVBYBSX-UHFFFAOYSA-N

>  <PUBCHEM_XLOGP3_AA>
3

>  <PUBCHEM_EXACT_MASS>
284.068473

>  <PUBCHEM_MOLECULAR_FORMULA>
C16H12O5

>  <PUBCHEM_MOLECULAR_WEIGHT>
284.26

>  <PUBCHEM_OPENEYE_CAN_SMILES>
COC1=C(C=C(C2=C1OC(=CC2=O)C3=CC=CC=C3)O)O

>  <PUBCHEM_OPENEYE_ISO_SMILES>
COC1=C(C=C(C2=C1OC(=CC2=O)C3=CC=CC=C3)O)O

>  <PUBCHEM_CACTVS_TPSA>
76

>  <PUBCHEM_MONOISOTOPIC_WEIGHT>
284.068473

>  <PUBCHEM_TOTAL_CHARGE>
0

>  <PUBCHEM_HEAVY_ATOM_COUNT>
21

>  <PUBCHEM_ATOM_DEF_STEREO_COUNT>
0

>  <PUBCHEM_ATOM_UDEF_STEREO_COUNT>
0

>  <PUBCHEM_BOND_DEF_STEREO_COUNT>
0

>  <PUBCHEM_BOND_UDEF_STEREO_COUNT>
0

>  <PUBCHEM_ISOTOPIC_ATOM_COUNT>
0

>  <PUBCHEM_COMPONENT_COUNT>
1

>  <PUBCHEM_CACTVS_TAUTO_COUNT>
-1

>  <PUBCHEM_COORDINATE_TYPE>
1
5
255

>  <PUBCHEM_BONDANNOTATIONS>
1  7  8
1  8  8
10  12  8
11  15  8
13  16  8
13  17  8
14  15  8
16  18  8
17  19  8
18  20  8
19  20  8
6  10  8
6  11  8
6  7  8
7  9  8
8  12  8
9  14  8

>  <LF dG>
-5.37

>  <LF VSscore>
-6.577

>  <LF Rank Score>
-8.115

>  <LF LE>
-0.256

>  <Preferred Pose_cresset>
true

>  <Favorite_cresset>
false

>  <Protein_cresset>
6M2N_Monomer_P

>  <MW_cresset>
284.3

>  <#Atoms_cresset>
21

>  <SlogP_cresset>
2.6

>  <TPSA_cresset>
76

>  <Flexibility_cresset>
1.7

>  <#RB_cresset>
4

>  <Rof5_cresset>
0

>  <Filename_cresset>
Wogonin.sdf

>  <Confs_cresset>
0

>  <Poses_cresset>
10

>  <_cresset_fieldpoints>
    -5     -50.038223      -5.205917      19.926888     -2.5567
    -5     -44.899864      -4.800913      16.326088     -4.5755
    -5     -50.308556      -0.071043      13.776104    -19.3462
    -5     -44.066135       1.457333      16.179306     -6.7770
    -5     -52.046051      -1.998389      13.412472    -15.1935
    -5     -48.316811      -8.337562      15.301252     -2.5741
    -6     -47.347858      -1.660617      19.185007      2.0002
    -6     -52.512157      -5.247808      15.129936      3.7667
    -6     -45.407967      -6.809054      19.247055      2.7336
    -6     -41.957638      -1.925273      15.714174      8.2712
    -6     -47.675812      -0.971379      10.842480      6.6289
    -6     -47.466370      -4.893532      13.540373      1.5832
    -6     -47.857162      -9.691755      20.069901      2.7533
    -6     -51.839756      -9.718779      18.642574      2.7886
    -6     -45.551769      -5.198550      19.198837      2.6671
    -6     -43.193684      -1.714114      20.384272      2.2740
    -7     -42.626907      -3.089871      15.433052     -1.6723
    -7     -50.710938       0.438119      14.367290     -1.6590
    -7     -45.784561      -3.202888      12.553669     -1.8519
    -7     -48.913055      -2.594862      11.626091     -1.7638
    -7     -47.464775       1.582254      11.691284     -1.2642
    -7     -47.792931      -2.939163      18.772820     -2.9484
    -7     -47.744667      -0.072011      17.858467     -2.2330
    -7     -42.968739       0.277581      13.464085     -1.2457
    -7     -43.530754       0.940265      17.351875     -1.6565
    -7     -47.336205      -5.244066      13.728977     -2.4193
    -7     -50.098515      -4.713523      19.974552     -1.7913
    -7     -48.257774      -8.203892      14.834726     -1.7852
    -7     -51.987732     -10.034687      18.774178     -0.9674
    -7     -47.696930      -9.960737      20.249287     -0.9671
    -7     -45.485817      -5.359538      15.623148     -2.5313
    -8     -49.223755      -6.676105      17.535719      7.1495
    -8     -46.778030      -1.341794      15.012381      6.6091
    -8     -48.599442      -2.913585      15.243918      4.9980
    -8     -44.568867      -1.633005      18.689213      2.5219
    -8     -49.694237      -4.956946      16.174454      5.4342

$$$$
Untitled
  xed2sdf_05210316543D
 
 33 35  0  0  0  0  0  0  0  0999 V2000
  -46.3876   -2.0752   17.3561 O   0  0  0  0  0  0  0  0  0  0  0  0
  -48.0766   -4.0922   17.7751 O   0  0  0  0  0  0  0  0  0  0  0  0
  -48.4866   -1.3502   13.0531 O   0  0  0  0  0  0  0  0  0  0  0  0
  -49.9616   -4.8042   15.9021 O   0  0  0  0  0  0  0  0  0  0  0  0
  -46.4246    0.1548   13.9881 O   0  0  0  0  0  0  0  0  0  0  0  0
  -47.3866   -1.6462   15.1811 C   0  0  0  0  0  0  0  0  0  0  0  0
  -47.2976   -2.3582   16.3821 C   0  0  0  0  0  0  0  0  0  0  0  0
  -45.4946   -1.0562   17.1421 C   0  0  0  0  0  0  0  0  0  0  0  0
  -48.1686   -3.4102   16.6191 C   0  0  0  0  0  0  0  0  0  0  0  0
  -46.4466   -0.5562   14.9921 C   0  0  0  0  0  0  0  0  0  0  0  0
  -48.3586   -2.0122   14.2341 C   0  0  0  0  0  0  0  0  0  0  0  0
  -45.4966   -0.2942   16.0111 C   0  0  0  0  0  0  0  0  0  0  0  0
  -44.5036   -0.8122   18.2221 C   0  0  0  0  0  0  0  0  0  0  0  0
  -49.1146   -3.7652   15.6761 C   0  0  0  0  0  0  0  0  0  0  0  0
  -49.2036   -3.0592   14.4881 C   0  0  0  0  0  0  0  0  0  0  0  0
  -43.6306    0.2578   18.0941 C   0  0  0  0  0  0  0  0  0  0  0  0
  -44.4106   -1.6042   19.3591 C   0  0  0  0  0  0  0  0  0  0  0  0
  -42.6976    0.5298   19.0651 C   0  0  0  0  0  0  0  0  0  0  0  0
  -43.4766   -1.3322   20.3301 C   0  0  0  0  0  0  0  0  0  0  0  0
  -42.6186   -0.2662   20.1861 C   0  0  0  0  0  0  0  0  0  0  0  0
  -47.5996   -5.4492   17.6881 C   0  0  0  0  0  0  0  0  0  0  0  0
  -47.6876   -1.4732   12.4611 H   0  0  0  0  0  0  0  0  0  0  0  0
  -49.7586   -5.5882   15.3051 H   0  0  0  0  0  0  0  0  0  0  0  0
  -44.8316    0.4448   15.9011 H   0  0  0  0  0  0  0  0  0  0  0  0
  -49.8916   -3.3162   13.8091 H   0  0  0  0  0  0  0  0  0  0  0  0
  -43.6816    0.8408   17.2841 H   0  0  0  0  0  0  0  0  0  0  0  0
  -45.0296   -2.3812   19.4721 H   0  0  0  0  0  0  0  0  0  0  0  0
  -42.0756    1.3048   18.9581 H   0  0  0  0  0  0  0  0  0  0  0  0
  -43.4206   -1.9112   21.1431 H   0  0  0  0  0  0  0  0  0  0  0  0
  -41.9396   -0.0692   20.8931 H   0  0  0  0  0  0  0  0  0  0  0  0
  -47.4076   -5.6662   16.7321 H   0  0  0  0  0  0  0  0  0  0  0  0
  -46.7656   -5.5492   18.2311 H   0  0  0  0  0  0  0  0  0  0  0  0
  -48.2956   -6.0742   18.0431 H   0  0  0  0  0  0  0  0  0  0  0  0
  1  7  1  0
  1  8  1  0
  2  9  1  0
  2 21  1  0
  3 11  1  0
  4 14  1  0
  5 10  2  0
  6  7  2  0
  6 10  1  0
  6 11  1  0
  7  9  1  0
  8 12  2  0
  8 13  1  0
  9 14  2  0
 10 12  1  0
 11 15  2  0
 13 16  2  0
 13 17  1  0
 14 15  1  0
 16 18  1  0
 17 19  2  0
 18 20  2  0
 19 20  1  0
  3 22  1  0
  4 23  1  0
 12 24  1  0
 15 25  1  0
 16 26  1  0
 17 27  1  0
 18 28  1  0
 19 29  1  0
 20 30  1  0
 21 31  1  0
 21 32  1  0
 21 33  1  0
M  END
>  <BioMolTech Lead Finder dG>
-6.147

>  <BioMolTech Lead Finder VSscore>
-7.084

>  <BioMolTech Lead Finder Rank score>
-8.119

>  <BioMolTech Lead Finder LE>
-0.293

>  <BioMolTech Lead Finder Structure Name>
/var/folders/xd/y7jw_xv579q2qqq7kks92xd80000gn/T/LeadFinder_41482_1/Ligand_1.sdf

>  <BioMolTech Lead Finder SDF id>
0

>  <BioMolTech Lead Finder Pose rank>
0

>  <BioMolTech Lead Finder version>
2001 1, 19 January 2019

>  <PUBCHEM_COMPOUND_CID>
5281703

>  <PUBCHEM_COMPOUND_CANONICALIZED>
1

>  <PUBCHEM_CACTVS_COMPLEXITY>
426

>  <PUBCHEM_CACTVS_HBOND_ACCEPTOR>
5

>  <PUBCHEM_CACTVS_HBOND_DONOR>
2

>  <PUBCHEM_CACTVS_ROTATABLE_BOND>
2

>  <PUBCHEM_CACTVS_SUBSKEYS>
AAADccB4OAAAAAAAAAAAAAAAAAAAAAAAAAAwYIAAAAAAAACBQAAAGgAACAAADASAmAIyBoAABgCIAqBSAAACCAAkIAAIiAEGiMgNJzaGNRqCeWOl4BULuQfK7LzOIQABCAAIQABCAAIQABCAAAAAAAAAAA==

>  <PUBCHEM_IUPAC_OPENEYE_NAME>
5,7-dihydroxy-8-methoxy-2-phenyl-chromen-4-one

>  <PUBCHEM_IUPAC_CAS_NAME>
5,7-dihydroxy-8-methoxy-2-phenyl-1-benzopyran-4-one

>  <PUBCHEM_IUPAC_NAME_MARKUP>
5,7-dihydroxy-8-methoxy-2-phenylchromen-4-one

>  <PUBCHEM_IUPAC_NAME>
5,7-dihydroxy-8-methoxy-2-phenylchromen-4-one

>  <PUBCHEM_IUPAC_SYSTEMATIC_NAME>
8-methoxy-5,7-bis(oxidanyl)-2-phenyl-chromen-4-one

>  <PUBCHEM_IUPAC_TRADITIONAL_NAME>
5,7-dihydroxy-8-methoxy-2-phenyl-chromone

>  <PUBCHEM_IUPAC_INCHI>
InChI=1S/C16H12O5/c1-20-15-12(19)7-10(17)14-11(18)8-13(21-16(14)15)9-5-3-2-4-6-9/h2-8,17,19H,1H3

>  <PUBCHEM_IUPAC_INCHIKEY>
XLTFNNCXVBYBSX-UHFFFAOYSA-N

>  <PUBCHEM_XLOGP3_AA>
3

>  <PUBCHEM_EXACT_MASS>
284.068473

>  <PUBCHEM_MOLECULAR_FORMULA>
C16H12O5

>  <PUBCHEM_MOLECULAR_WEIGHT>
284.26

>  <PUBCHEM_OPENEYE_CAN_SMILES>
COC1=C(C=C(C2=C1OC(=CC2=O)C3=CC=CC=C3)O)O

>  <PUBCHEM_OPENEYE_ISO_SMILES>
COC1=C(C=C(C2=C1OC(=CC2=O)C3=CC=CC=C3)O)O

>  <PUBCHEM_CACTVS_TPSA>
76

>  <PUBCHEM_MONOISOTOPIC_WEIGHT>
284.068473

>  <PUBCHEM_TOTAL_CHARGE>
0

>  <PUBCHEM_HEAVY_ATOM_COUNT>
21

>  <PUBCHEM_ATOM_DEF_STEREO_COUNT>
0

>  <PUBCHEM_ATOM_UDEF_STEREO_COUNT>
0

>  <PUBCHEM_BOND_DEF_STEREO_COUNT>
0

>  <PUBCHEM_BOND_UDEF_STEREO_COUNT>
0

>  <PUBCHEM_ISOTOPIC_ATOM_COUNT>
0

>  <PUBCHEM_COMPONENT_COUNT>
1

>  <PUBCHEM_CACTVS_TAUTO_COUNT>
-1

>  <PUBCHEM_COORDINATE_TYPE>
1
5
255

>  <PUBCHEM_BONDANNOTATIONS>
1  7  8
1  8  8
10  12  8
11  15  8
13  16  8
13  17  8
14  15  8
16  18  8
17  19  8
18  20  8
19  20  8
6  10  8
6  11  8
6  7  8
7  9  8
8  12  8
9  14  8

>  <LF dG>
-6.147

>  <LF VSscore>
-7.084

>  <LF Rank Score>
-8.119

>  <LF LE>
-0.293

>  <Preferred Pose_cresset>
true

>  <Favorite_cresset>
false

>  <Protein_cresset>
6M2N_Monomer_P

>  <MW_cresset>
284.3

>  <#Atoms_cresset>
21

>  <SlogP_cresset>
2.6

>  <TPSA_cresset>
76

>  <Flexibility_cresset>
1.7

>  <#RB_cresset>
4

>  <Rof5_cresset>
0

>  <Filename_cresset>
Wogonin.sdf

>  <Confs_cresset>
0

>  <Poses_cresset>
10

>  <_cresset_fieldpoints>
    -5     -50.087830      -3.334404      18.861422     -5.6840
    -5     -45.733650       1.059052      20.513453     -3.7164
    -5     -48.098106       0.746869      13.102252    -11.4887
    -5     -45.839905       1.850941      13.369363     -9.4027
    -5     -41.578918      -2.301000      17.897949     -2.6666
    -6     -48.618217      -6.786777      14.736813      8.0145
    -6     -46.844467      -2.878510      11.623909      3.7227
    -6     -42.246910       2.564743      16.742336      3.0450
    -6     -40.309303       1.792039      20.629370      2.9334
    -6     -44.930656      -4.707292      19.790062      2.6278
    -6     -44.387711      -4.052748      21.466394      2.6432
    -6     -41.634460      -1.489254      22.874313      2.8909
    -7     -47.627441      -1.988389      19.633549     -2.5988
    -7     -50.143669      -0.520432      16.895638     -1.8394
    -7     -47.779694       0.547167      17.964382     -2.4125
    -7     -48.621124       1.116571      13.248500     -1.6671
    -7     -51.868813      -5.192857      14.338116     -1.2859
    -7     -45.344589      -1.836755      12.525700     -1.7742
    -7     -50.852371      -5.072155      18.189884     -1.7562
    -7     -49.278954      -2.620211      11.074226     -1.2596
    -7     -41.606041      -2.495347      17.501644     -1.7908
    -7     -44.657173      -4.065479      17.079769     -2.9310
    -7     -45.847176       1.344496      20.537163     -1.7848
    -7     -40.163368       2.004672      20.784874     -0.9672
    -7     -41.632595      -1.554502      23.172005     -0.9675
    -7     -45.995525      -4.862314      14.506372     -2.2439
    -8     -48.247780      -2.692893      15.404373      6.6092
    -8     -46.434723      -1.166140      15.877718      4.9996
    -8     -43.557655      -0.538979      19.203491      7.1513
    -8     -47.300537      -6.267251      17.590685      2.5225
    -8     -44.614754      -0.229754      17.258522      5.5681

$$$$
W_VTRRT_D
  xed2sdf_05210316543D
 
 92 97  0  0  1  0  0  0  0  0999 V2000
  -42.9992    0.3284   19.7460 C   0  0  0  0  0  0  0  0  0  0  0  0
  -43.4842    0.5034   18.4700 C   0  0  0  0  0  0  0  0  0  0  0  0
  -43.7802   -0.5876   17.6820 C   0  0  0  0  0  0  0  0  0  0  0  0
  -43.5852   -1.8576   18.1820 C   0  0  0  0  0  0  0  0  0  0  0  0
  -43.0992   -2.0346   19.4570 C   0  0  0  0  0  0  0  0  0  0  0  0
  -42.8062   -0.9416   20.2400 C   0  0  0  0  0  0  0  0  0  0  0  0
  -44.3122   -0.3896   16.2710 C   0  0  0  0  0  0  0  0  0  0  0  0
  -45.1962   -1.5406   15.7360 C   0  0  0  0  0  0  0  0  0  0  0  0
  -44.5602   -2.0956   14.4900 N   0  3  0  0  0  0  0  0  0  0  0  0
  -46.6312   -1.0336   15.4570 C   0  0  0  0  0  0  0  0  0  0  0  0
  -46.6382   -0.2056   14.2810 O   0  0  0  0  0  0  0  0  0  0  0  0
  -47.1782   -0.2126   16.6440 C   0  0  0  0  0  0  0  0  0  0  0  0
  -47.9422   -1.1126   17.6440 C   0  0  0  0  0  0  0  0  0  0  0  0
  -47.4272   -0.8446   19.0750 C   0  0  0  0  0  0  0  0  0  0  0  0
  -47.6212    0.5714   19.5950 C   0  0  0  0  0  0  0  0  0  0  0  0
  -48.8592    1.1684   19.5260 C   0  0  0  0  0  0  0  0  0  0  0  0
  -49.0422    2.4454   20.0080 C   0  0  0  0  0  0  0  0  0  0  0  0
  -47.9842    3.1294   20.5600 C   0  0  0  0  0  0  0  0  0  0  0  0
  -46.7442    2.5364   20.6310 C   0  0  0  0  0  0  0  0  0  0  0  0
  -46.5642    1.2594   20.1510 C   0  0  0  0  0  0  0  0  0  0  0  0
  -47.7922   -2.5366   17.2970 N   0  0  0  0  0  0  0  0  0  0  0  0
  -48.9832   -3.0926   16.5550 P   0  0  0  0  0  0  0  0  0  0  0  0
  -49.3662   -4.5546   17.1100 O   0  0  0  0  0  0  0  0  0  0  0  0
  -50.3092   -2.2296   16.8690 O   0  0  0  0  0  0  0  0  0  0  0  0
  -48.7212   -3.1606   15.0730 O   0  0  0  0  0  0  0  0  0  0  0  0
  -48.3462   -5.5666   17.1530 C   0  0  0  0  0  0  0  0  0  0  0  0
  -51.3362   -2.1326   15.9720 C   0  0  0  0  0  0  0  0  0  0  0  0
  -51.7182   -0.9146   15.4380 C   0  0  0  0  0  0  0  0  0  0  0  0
  -52.7632   -0.8446   14.5470 C   0  0  0  0  0  0  0  0  0  0  0  0
  -53.4342   -1.9886   14.1800 C   0  0  0  0  0  0  0  0  0  0  0  0
  -53.0592   -3.2036   14.7060 C   0  0  0  0  0  0  0  0  0  0  0  0
  -52.0172   -3.2756   15.5990 C   0  0  0  0  0  0  0  0  0  0  0  0
  -48.5382   -6.4866   18.3740 C   0  0  0  0  0  0  0  0  0  0  0  0
  -47.3052   -6.7026   19.0850 O   0  0  0  0  0  0  0  0  0  0  0  0
  -47.2252   -8.0626   19.5600 C   0  0  0  0  0  0  0  0  0  0  0  0
  -48.5772   -8.7136   19.1790 C   0  0  0  0  0  0  0  0  0  0  0  0
  -49.0542   -7.8806   17.9840 C   0  0  0  0  0  0  0  0  0  0  0  0
  -48.4312   -8.3626   16.7830 O   0  0  0  0  0  0  0  0  0  0  0  0
  -48.4982  -10.1126   18.8620 O   0  0  0  0  0  0  0  0  0  0  0  0
  -45.9572   -8.6206   18.9230 C   0  0  0  0  0  0  0  0  0  0  0  0
  -47.0622   -8.0486   21.0190 C   0  0  0  0  0  0  0  0  0  0  0  0
  -46.9342   -8.0366   22.1480 N   0  0  0  0  0  0  0  0  0  0  0  0
  -45.4972   -9.8506   19.2560 N   0  0  0  0  0  0  0  0  0  0  0  0
  -44.3702  -10.0256   18.5180 C   0  0  0  0  0  0  0  0  0  0  0  0
  -44.1222   -8.9426   17.7370 C   0  0  0  0  0  0  0  0  0  0  0  0
  -45.1562   -8.0406   18.0030 C   0  0  0  0  0  0  0  0  0  0  0  0
  -45.9412  -10.8196   20.1100 N   0  0  0  0  0  0  0  0  0  0  0  0
  -45.2402  -11.9246   20.1940 C   0  0  0  0  0  0  0  0  0  0  0  0
  -44.0892  -12.2116   19.5050 N   0  0  0  0  0  0  0  0  0  0  0  0
  -43.6672  -11.2506   18.6710 C   0  0  0  0  0  0  0  0  0  0  0  0
  -42.5162  -11.5006   17.9620 N   0  0  0  0  0  0  0  0  0  0  0  0
  -45.2652   -2.2666   16.4200 H   0  0  0  0  0  0  0  0  0  0  0  0
  -47.2152   -1.8336   15.3210 H   0  0  0  0  0  0  0  0  0  0  0  0
  -48.9162   -0.8926   17.5950 H   0  0  0  0  0  0  0  0  0  0  0  0
  -49.2052   -6.0106   18.9460 H   0  0  0  0  0  0  0  0  0  0  0  0
  -49.2112   -8.7036   19.9520 H   0  0  0  0  0  0  0  0  0  0  0  0
  -50.0372   -7.9056   17.8040 H   0  0  0  0  0  0  0  0  0  0  0  0
  -42.7862    1.1234   20.3140 H   0  0  0  0  0  0  0  0  0  0  0  0
  -43.6232    1.4274   18.1130 H   0  0  0  0  0  0  0  0  0  0  0  0
  -43.7982   -2.6536   17.6150 H   0  0  0  0  0  0  0  0  0  0  0  0
  -42.9602   -2.9576   19.8150 H   0  0  0  0  0  0  0  0  0  0  0  0
  -42.4522   -1.0696   21.1670 H   0  0  0  0  0  0  0  0  0  0  0  0
  -43.5312   -0.2836   15.6550 H   0  0  0  0  0  0  0  0  0  0  0  0
  -44.9002    0.4184   16.3060 H   0  0  0  0  0  0  0  0  0  0  0  0
  -43.8552   -1.5876   14.2190 H   0  0  0  0  0  0  0  0  0  0  0  0
  -44.2402   -2.9376   14.6050 H   0  0  0  0  0  0  0  0  0  0  0  0
  -45.1472   -2.1256   13.7940 H   0  0  0  0  0  0  0  0  0  0  0  0
  -46.4742   -0.7406   13.4460 H   0  0  0  0  0  0  0  0  0  0  0  0
  -47.7972    0.4924   16.2980 H   0  0  0  0  0  0  0  0  0  0  0  0
  -46.4052    0.2044   17.1230 H   0  0  0  0  0  0  0  0  0  0  0  0
  -46.4482   -1.0486   19.0940 H   0  0  0  0  0  0  0  0  0  0  0  0
  -47.9742   -1.4286   19.6740 H   0  0  0  0  0  0  0  0  0  0  0  0
  -49.6292    0.6724   19.1250 H   0  0  0  0  0  0  0  0  0  0  0  0
  -49.9432    2.8744   19.9560 H   0  0  0  0  0  0  0  0  0  0  0  0
  -48.1152    4.0574   20.9080 H   0  0  0  0  0  0  0  0  0  0  0  0
  -45.9742    3.0334   21.0320 H   0  0  0  0  0  0  0  0  0  0  0  0
  -45.6632    0.8294   20.2050 H   0  0  0  0  0  0  0  0  0  0  0  0
  -47.6842   -3.0666   18.1710 H   0  0  0  0  0  0  0  0  0  0  0  0
  -47.4502   -5.1276   17.2080 H   0  0  0  0  0  0  0  0  0  0  0  0
  -48.4112   -6.1216   16.3230 H   0  0  0  0  0  0  0  0  0  0  0  0
  -51.2312   -0.0816   15.7010 H   0  0  0  0  0  0  0  0  0  0  0  0
  -53.0362    0.0394   14.1660 H   0  0  0  0  0  0  0  0  0  0  0  0
  -54.1932   -1.9366   13.5320 H   0  0  0  0  0  0  0  0  0  0  0  0
  -53.5452   -4.0356   14.4370 H   0  0  0  0  0  0  0  0  0  0  0  0
  -51.7492   -4.1606   15.9810 H   0  0  0  0  0  0  0  0  0  0  0  0
  -47.6572   -8.9716   16.9900 H   0  0  0  0  0  0  0  0  0  0  0  0
  -47.9662  -10.2676   18.0220 H   0  0  0  0  0  0  0  0  0  0  0  0
  -43.3592   -8.8176   17.1030 H   0  0  0  0  0  0  0  0  0  0  0  0
  -45.2782   -7.1376   17.5920 H   0  0  0  0  0  0  0  0  0  0  0  0
  -45.5772  -12.6266   20.8210 H   0  0  0  0  0  0  0  0  0  0  0  0
  -42.0952  -12.2656   18.0690 H   0  0  0  0  0  0  0  0  0  0  0  0
  -42.1972  -10.8996   17.4020 H   0  0  0  0  0  0  0  0  0  0  0  0
  1  2  2  0
  2  3  1  0
  3  4  2  0
  3  7  1  0
  4  5  1  0
  5  6  2  0
  6  1  1  0
  7  8  1  0
  8  9  1  0
  8 10  1  0
 10 11  1  0
 10 12  1  0
 12 13  1  0
 13 14  1  0
 13 21  1  0
 14 15  1  0
 15 16  2  0
 16 17  1  0
 17 18  2  0
 18 19  1  0
 19 20  2  0
 20 15  1  0
 21 22  1  0
 22 23  1  0
 22 24  1  0
 22 25  2  0
 23 26  1  0
 24 27  1  0
 27 28  2  0
 28 29  1  0
 29 30  2  0
 30 31  1  0
 31 32  2  0
 32 27  1  0
 33 26  1  0
 33 34  1  0
 34 35  1  0
 35 36  1  0
 35 40  1  0
 35 41  1  0
 36 37  1  0
 36 39  1  0
 37 33  1  0
 37 38  1  0
 40 43  1  0
 41 42  3  0
 43 44  1  0
 43 47  1  0
 44 45  2  0
 45 46  1  0
 46 40  2  0
 47 48  2  0
 48 49  1  0
 49 50  2  0
 50 44  1  0
 50 51  1  0
  1 58  1  0
  2 59  1  0
  4 60  1  0
  5 61  1  0
  6 62  1  0
  7 63  1  0
  7 64  1  0
  8 52  1  0
  9 65  1  0
  9 66  1  0
  9 67  1  0
 10 53  1  0
 11 68  1  0
 12 69  1  0
 12 70  1  0
 13 54  1  0
 14 71  1  0
 14 72  1  0
 16 73  1  0
 17 74  1  0
 18 75  1  0
 19 76  1  0
 20 77  1  0
 21 78  1  0
 26 79  1  0
 26 80  1  0
 28 81  1  0
 29 82  1  0
 30 83  1  0
 31 84  1  0
 32 85  1  0
 33 55  1  0
 36 56  1  0
 37 57  1  0
 38 86  1  0
 39 87  1  0
 45 88  1  0
 46 89  1  0
 48 90  1  0
 51 91  1  0
 51 92  1  0
M  CHG  1   9   1
M  END
>  <BioMolTech Lead Finder dG>
-5.28

>  <BioMolTech Lead Finder VSscore>
-11.27

>  <BioMolTech Lead Finder Rank score>
-8.922

>  <BioMolTech Lead Finder LE>
-0.104

>  <BioMolTech Lead Finder Structure Name>
/var/folders/xd/y7jw_xv579q2qqq7kks92xd80000gn/T/LeadFinder_44148_1/Ligand_1.sdf

>  <BioMolTech Lead Finder SDF id>
0

>  <BioMolTech Lead Finder Pose rank>
0

>  <BioMolTech Lead Finder version>
2001 1, 19 January 2019

>  <LF dG>
-5.28

>  <LF VSscore>
-11.27

>  <LF Rank Score>
-8.922

>  <LF LE>
-0.104

>  <Preferred Pose_cresset>
true

>  <Favorite_cresset>
false

>  <Protein_cresset>
6M2N_Monomer_P

>  <MW_cresset>
714.7

>  <#Atoms_cresset>
51

>  <SlogP_cresset>
4

>  <TPSA_cresset>
225.1

>  <Flexibility_cresset>
17.1

>  <#RB_cresset>
18

>  <Rof5_cresset>
3

>  <Filename_cresset>
VTRRT-13V2.1.sdf

>  <Confs_cresset>
0

>  <Poses_cresset>
10

>  <_cresset_fieldpoints>
    -5     -40.553947      -0.596697      18.034760     -2.3920
    -5     -47.155090       2.880220      17.447792     -4.4049
    -5     -48.458515       0.733378      22.652496     -4.4128
    -5     -46.875893       1.604297      14.228399     -7.0684
    -5     -46.105927      -9.185990      23.629570     -8.4809
    -5     -51.216026      -1.824837      18.724127     -4.4052
    -5     -54.035603      -1.685875      17.452187     -4.3466
    -5     -50.179211      -2.438680      13.136314     -3.1295
    -5     -49.335327      -8.310137      15.143074     -3.3260
    -5     -48.178566     -11.354486      20.263529     -7.4782
    -5     -42.762039     -13.080570      20.887533     -3.2007
    -6     -43.622093       3.082352      21.032211      4.4336
    -6     -43.175007       2.546625      16.128056      2.9260
    -6     -41.588127      -9.600939      16.075172     11.9007
    -6     -47.005936      -3.900920      19.353539      9.3151
    -6     -42.047272      -0.642302      13.716509      5.2143
    -6     -46.521790      -2.056596      12.266890      9.0699
    -6     -50.797775       1.531518      17.137045      2.6365
    -6     -50.685745      -6.971825      20.442936      4.8497
    -6     -52.341057       2.217272      14.504557      2.3851
    -6     -50.185505       5.340178      20.811249      2.4146
    -6     -44.989258      -4.751712      16.481590     10.1460
    -6     -55.308037      -4.201563      12.778000      2.7821
    -6     -54.881241       0.218034      12.444494      2.6477
    -6     -51.816071      -6.404312      16.867447      3.0822
    -6     -52.748146      -6.307176      15.331757      2.9256
    -6     -47.028965     -10.519542      16.563713     11.1287
    -7     -40.420494      -0.726918      17.423704     -1.8690
    -7     -45.845779       2.678087      17.281178     -3.5731
    -7     -41.806545      -2.506916      15.508987     -2.2778
    -7     -49.458126      -3.498490      19.713430     -3.1482
    -7     -45.967819      -3.936302      18.830267     -4.4295
    -7     -45.712048      -1.587976      21.669348     -2.7164
    -7     -48.481960       0.292429      22.851707     -1.8743
    -7     -49.079327      -1.344044      13.498457     -3.1500
    -7     -46.409382      -4.367687      14.836603     -3.2994
    -7     -43.354607      -3.039017      12.117885     -0.9531
    -7     -45.971115       2.130393      14.761511     -2.1846
    -7     -49.962692       1.728151      16.578413     -2.8075
    -7     -51.219353      -4.363992      18.684113     -2.8531
    -7     -50.483742       5.411356      20.821404     -0.9699
    -7     -44.670303       0.705956      13.270211     -2.3158
    -7     -45.959270       5.730273      21.415421     -0.9802
    -7     -51.019958      -6.443282      15.688707     -2.5173
    -7     -50.720791      -1.730242      19.249342     -3.3633
    -7     -54.402916      -1.638391      17.589188     -1.7124
    -7     -55.059669       0.375769      12.359658     -0.9677
    -7     -55.570713      -4.111145      12.604876     -0.9682
    -7     -49.849010      -5.290424      14.196009     -2.4351
    -7     -49.982502      -6.568641      21.379326     -1.8976
    -7     -46.756836      -7.794198      15.220612     -2.5454
    -7     -49.205551     -10.593856      16.239525     -1.7677
    -7     -48.246002     -11.140835      21.137394     -2.1987
    -7     -46.701138     -10.908209      16.376003     -2.5270
    -7     -44.048973      -9.063036      21.671143     -2.3829
    -7     -40.973297      -9.219458      19.019827     -1.5175
    -7     -43.720963     -11.267157      15.282401     -1.5207
    -7     -42.751785     -14.299181      19.694220     -1.1838
    -8     -44.344604      -1.185985      16.989780      5.9203
    -8     -47.608315      -0.154048      18.389288      5.9010
    -8     -45.726898      -0.700035      16.408459      5.8426
    -8     -44.769363      -8.694124      18.074247      4.9191
    -8     -43.311493      -0.762061      18.958166      7.2514
    -8     -48.804489      -7.682442      18.966837      4.6022
    -8     -47.799339       1.843300      20.071537      7.2191
    -8     -52.415310      -2.057820      15.051124      7.0242
    -8     -47.613148       0.510545      19.514557      5.8196
    -8     -49.001526      -6.641662      17.762878      4.0565
    -8     -48.650864      -4.491682      16.993742      1.9364
    -8     -47.895988      -8.343781      19.966930      3.9318
    -8     -45.630386     -12.844178      20.982752      1.2354

$$$$
VTRRT_D
  xed2sdf_05210316543D
 
 92 97  0  0  1  0  0  0  0  0999 V2000
  -44.1888    0.5006   18.5132 C   0  0  0  0  0  0  0  0  0  0  0  0
  -45.1438    0.3306   17.5372 C   0  0  0  0  0  0  0  0  0  0  0  0
  -45.1228   -0.7854   16.7292 C   0  0  0  0  0  0  0  0  0  0  0  0
  -44.1378   -1.7324   16.9072 C   0  0  0  0  0  0  0  0  0  0  0  0
  -43.1818   -1.5634   17.8832 C   0  0  0  0  0  0  0  0  0  0  0  0
  -43.2068   -0.4474   18.6872 C   0  0  0  0  0  0  0  0  0  0  0  0
  -46.1778   -0.9664   15.6482 C   0  0  0  0  0  0  0  0  0  0  0  0
  -46.6798   -2.4174   15.4582 C   0  0  0  0  0  0  0  0  0  0  0  0
  -46.0338   -2.9924   14.2262 N   0  3  0  0  0  0  0  0  0  0  0  0
  -48.2228   -2.4444   15.3492 C   0  0  0  0  0  0  0  0  0  0  0  0
  -48.7218   -3.7254   15.7722 O   0  0  0  0  0  0  0  0  0  0  0  0
  -48.6878   -2.1844   13.9002 C   0  0  0  0  0  0  0  0  0  0  0  0
  -49.4098   -0.8214   13.7792 C   0  0  0  0  0  0  0  0  0  0  0  0
  -48.4448    0.2186   13.1682 C   0  0  0  0  0  0  0  0  0  0  0  0
  -49.0978    1.4396   12.5402 C   0  0  0  0  0  0  0  0  0  0  0  0
  -50.4248    1.7146   12.7812 C   0  0  0  0  0  0  0  0  0  0  0  0
  -51.0158    2.8266   12.2242 C   0  0  0  0  0  0  0  0  0  0  0  0
  -50.2798    3.6676   11.4222 C   0  0  0  0  0  0  0  0  0  0  0  0
  -48.9518    3.3976   11.1792 C   0  0  0  0  0  0  0  0  0  0  0  0
  -48.3628    2.2866   11.7382 C   0  0  0  0  0  0  0  0  0  0  0  0
  -49.9048   -0.3644   15.0892 N   0  0  0  0  0  0  0  0  0  0  0  0
  -51.3908   -0.5674   15.2642 P   0  0  0  0  0  0  0  0  0  0  0  0
  -52.1908    0.7916   14.9392 O   0  0  0  0  0  0  0  0  0  0  0  0
  -51.9628   -1.5954   14.1602 O   0  0  0  0  0  0  0  0  0  0  0  0
  -51.7178   -1.0354   16.6582 O   0  0  0  0  0  0  0  0  0  0  0  0
  -53.4238    1.0496   15.6312 C   0  0  0  0  0  0  0  0  0  0  0  0
  -52.5428   -2.7824   14.5112 C   0  0  0  0  0  0  0  0  0  0  0  0
  -51.8028   -3.8164   15.0542 C   0  0  0  0  0  0  0  0  0  0  0  0
  -52.4098   -5.0044   15.3862 C   0  0  0  0  0  0  0  0  0  0  0  0
  -53.7608   -5.1684   15.1822 C   0  0  0  0  0  0  0  0  0  0  0  0
  -54.5048   -4.1434   14.6442 C   0  0  0  0  0  0  0  0  0  0  0  0
  -53.8988   -2.9554   14.3082 C   0  0  0  0  0  0  0  0  0  0  0  0
  -54.6008    0.3386   14.9382 C   0  0  0  0  0  0  0  0  0  0  0  0
  -54.3838    0.1906   13.5222 O   0  0  0  0  0  0  0  0  0  0  0  0
  -55.6168    0.3846   12.7982 C   0  0  0  0  0  0  0  0  0  0  0  0
  -56.7058    0.5816   13.8812 C   0  0  0  0  0  0  0  0  0  0  0  0
  -55.9218    1.1076   15.0882 C   0  0  0  0  0  0  0  0  0  0  0  0
  -55.7318    2.5256   14.9572 O   0  0  0  0  0  0  0  0  0  0  0  0
  -57.7698    1.4686   13.5022 O   0  0  0  0  0  0  0  0  0  0  0  0
  -55.3298    1.5446   11.8512 C   0  0  0  0  0  0  0  0  0  0  0  0
  -55.8988   -0.8204   12.0072 C   0  0  0  0  0  0  0  0  0  0  0  0
  -56.1188   -1.7534   11.3972 N   0  0  0  0  0  0  0  0  0  0  0  0
  -56.1188    1.7716   10.7742 N   0  0  0  0  0  0  0  0  0  0  0  0
  -55.5858    2.8596   10.1592 C   0  0  0  0  0  0  0  0  0  0  0  0
  -54.4938    3.3136   10.8272 C   0  0  0  0  0  0  0  0  0  0  0  0
  -54.3378    2.4586   11.9212 C   0  0  0  0  0  0  0  0  0  0  0  0
  -57.2308    1.1536   10.2782 N   0  0  0  0  0  0  0  0  0  0  0  0
  -57.7648    1.6456    9.1852 C   0  0  0  0  0  0  0  0  0  0  0  0
  -57.3148    2.7316    8.4792 N   0  0  0  0  0  0  0  0  0  0  0  0
  -56.2228    3.3276    8.9792 C   0  0  0  0  0  0  0  0  0  0  0  0
  -55.7408    4.4196    8.2992 N   0  0  0  0  0  0  0  0  0  0  0  0
  -46.4278   -2.9734   16.2502 H   0  0  0  0  0  0  0  0  0  0  0  0
  -48.5808   -1.7204   15.9382 H   0  0  0  0  0  0  0  0  0  0  0  0
  -50.2028   -0.9304   13.1802 H   0  0  0  0  0  0  0  0  0  0  0  0
  -54.6578   -0.5524   15.3892 H   0  0  0  0  0  0  0  0  0  0  0  0
  -57.1918   -0.2734   14.0612 H   0  0  0  0  0  0  0  0  0  0  0  0
  -56.3608    0.9776   15.9782 H   0  0  0  0  0  0  0  0  0  0  0  0
  -44.2088    1.3126   19.0962 H   0  0  0  0  0  0  0  0  0  0  0  0
  -45.8568    1.0216   17.4122 H   0  0  0  0  0  0  0  0  0  0  0  0
  -44.1168   -2.5444   16.3242 H   0  0  0  0  0  0  0  0  0  0  0  0
  -42.4688   -2.2534   18.0082 H   0  0  0  0  0  0  0  0  0  0  0  0
  -42.5128   -0.3244   19.3962 H   0  0  0  0  0  0  0  0  0  0  0  0
  -45.7908   -0.6544   14.7802 H   0  0  0  0  0  0  0  0  0  0  0  0
  -46.9718   -0.4344   15.9412 H   0  0  0  0  0  0  0  0  0  0  0  0
  -46.1288   -2.4394   13.5102 H   0  0  0  0  0  0  0  0  0  0  0  0
  -45.1418   -3.1284   14.3292 H   0  0  0  0  0  0  0  0  0  0  0  0
  -46.4008   -3.7924   13.9932 H   0  0  0  0  0  0  0  0  0  0  0  0
  -48.3478   -4.4734   15.2152 H   0  0  0  0  0  0  0  0  0  0  0  0
  -49.3128   -2.9134   13.6212 H   0  0  0  0  0  0  0  0  0  0  0  0
  -47.8818   -2.1674   13.3072 H   0  0  0  0  0  0  0  0  0  0  0  0
  -47.9038   -0.2394   12.4632 H   0  0  0  0  0  0  0  0  0  0  0  0
  -47.9028    0.5666   13.9332 H   0  0  0  0  0  0  0  0  0  0  0  0
  -50.9618    1.1046   13.3632 H   0  0  0  0  0  0  0  0  0  0  0  0
  -51.9798    3.0226   12.4032 H   0  0  0  0  0  0  0  0  0  0  0  0
  -50.7088    4.4746   11.0162 H   0  0  0  0  0  0  0  0  0  0  0  0
  -48.4158    4.0076   10.5962 H   0  0  0  0  0  0  0  0  0  0  0  0
  -47.3978    2.0926   11.5612 H   0  0  0  0  0  0  0  0  0  0  0  0
  -49.7078    0.6406   15.1702 H   0  0  0  0  0  0  0  0  0  0  0  0
  -53.5938    2.0346   15.6442 H   0  0  0  0  0  0  0  0  0  0  0  0
  -53.3458    0.7006   16.5652 H   0  0  0  0  0  0  0  0  0  0  0  0
  -50.8208   -3.6994   15.2062 H   0  0  0  0  0  0  0  0  0  0  0  0
  -51.8688   -5.7504   15.7762 H   0  0  0  0  0  0  0  0  0  0  0  0
  -54.2018   -6.0324   15.4252 H   0  0  0  0  0  0  0  0  0  0  0  0
  -55.4868   -4.2614   14.4982 H   0  0  0  0  0  0  0  0  0  0  0  0
  -54.4418   -2.2144   13.9142 H   0  0  0  0  0  0  0  0  0  0  0  0
  -56.0368    2.8536   14.0562 H   0  0  0  0  0  0  0  0  0  0  0  0
  -58.1898    1.1866   12.6322 H   0  0  0  0  0  0  0  0  0  0  0  0
  -53.9198    4.0966   10.5852 H   0  0  0  0  0  0  0  0  0  0  0  0
  -53.6268    2.5126   12.6232 H   0  0  0  0  0  0  0  0  0  0  0  0
  -58.5798    1.1846    8.8332 H   0  0  0  0  0  0  0  0  0  0  0  0
  -56.1498    4.6956    7.5702 H   0  0  0  0  0  0  0  0  0  0  0  0
  -55.0248    4.8456    8.5872 H   0  0  0  0  0  0  0  0  0  0  0  0
  1  2  2  0
  2  3  1  0
  3  4  2  0
  3  7  1  0
  4  5  1  0
  5  6  2  0
  6  1  1  0
  7  8  1  0
  8  9  1  0
  8 10  1  0
 10 11  1  0
 10 12  1  0
 12 13  1  0
 13 14  1  0
 13 21  1  0
 14 15  1  0
 15 16  2  0
 16 17  1  0
 17 18  2  0
 18 19  1  0
 19 20  2  0
 20 15  1  0
 21 22  1  0
 22 23  1  0
 22 24  1  0
 22 25  2  0
 23 26  1  0
 24 27  1  0
 27 28  2  0
 28 29  1  0
 29 30  2  0
 30 31  1  0
 31 32  2  0
 32 27  1  0
 33 26  1  0
 33 34  1  0
 34 35  1  0
 35 36  1  0
 35 40  1  0
 35 41  1  0
 36 37  1  0
 36 39  1  0
 37 33  1  0
 37 38  1  0
 40 43  1  0
 41 42  3  0
 43 44  1  0
 43 47  1  0
 44 45  2  0
 45 46  1  0
 46 40  2  0
 47 48  2  0
 48 49  1  0
 49 50  2  0
 50 44  1  0
 50 51  1  0
  1 58  1  0
  2 59  1  0
  4 60  1  0
  5 61  1  0
  6 62  1  0
  7 63  1  0
  7 64  1  0
  8 52  1  0
  9 65  1  0
  9 66  1  0
  9 67  1  0
 10 53  1  0
 11 68  1  0
 12 69  1  0
 12 70  1  0
 13 54  1  0
 14 71  1  0
 14 72  1  0
 16 73  1  0
 17 74  1  0
 18 75  1  0
 19 76  1  0
 20 77  1  0
 21 78  1  0
 26 79  1  0
 26 80  1  0
 28 81  1  0
 29 82  1  0
 30 83  1  0
 31 84  1  0
 32 85  1  0
 33 55  1  0
 36 56  1  0
 37 57  1  0
 38 86  1  0
 39 87  1  0
 45 88  1  0
 46 89  1  0
 48 90  1  0
 51 91  1  0
 51 92  1  0
M  CHG  1   9   1
M  END
>  <BioMolTech Lead Finder dG>
-4.492

>  <BioMolTech Lead Finder VSscore>
-9.679

>  <BioMolTech Lead Finder Rank score>
-9.163

>  <BioMolTech Lead Finder LE>
-0.088

>  <BioMolTech Lead Finder Structure Name>
/var/folders/xd/y7jw_xv579q2qqq7kks92xd80000gn/T/LeadFinder_41484_1/Ligand_1.sdf

>  <BioMolTech Lead Finder SDF id>
0

>  <BioMolTech Lead Finder Pose rank>
0

>  <BioMolTech Lead Finder version>
2001 1, 19 January 2019

>  <LF dG>
-4.492

>  <LF VSscore>
-9.679

>  <LF Rank Score>
-9.163

>  <LF LE>
-0.088

>  <Preferred Pose_cresset>
true

>  <Favorite_cresset>
false

>  <Protein_cresset>
6M2N_Monomer_P

>  <MW_cresset>
714.7

>  <#Atoms_cresset>
51

>  <SlogP_cresset>
4

>  <TPSA_cresset>
225.1

>  <Flexibility_cresset>
17.1

>  <#RB_cresset>
18

>  <Rof5_cresset>
3

>  <Filename_cresset>
VTRRT-13V2.1.sdf

>  <Confs_cresset>
0

>  <Poses_cresset>
10

>  <_cresset_fieldpoints>
    -5     -42.405090       0.893294      15.973587     -2.5273
    -5     -49.646858      -3.669862      17.408020     -7.9571
    -5     -46.160816      -1.985515      19.386442     -4.0544
    -5     -54.873581      -3.371507      10.940357     -8.8037
    -5     -49.188103       4.257311      14.280643     -2.4783
    -5     -51.302917       2.932283      15.297284     -2.6331
    -5     -55.692200       3.758321      16.297169     -6.7007
    -5     -52.654709      -0.629901      12.411842     -8.7321
    -5     -58.465664       2.810442      14.650476     -5.5201
    -6     -45.685574      -0.716753      12.360152      8.2245
    -6     -48.540916       1.628368      15.977898      6.7245
    -6     -42.406361       1.713294      20.827450      2.9965
    -6     -43.811089      -4.451307      15.339739      6.9630
    -6     -47.736496      -5.359919      13.845737     10.5750
    -6     -53.422707       5.776196       9.245728     10.6047
    -6     -56.699959      -1.960345      15.345375      6.7448
    -6     -58.927795      -0.371613      12.355778      6.6491
    -6     -56.335129       4.535607      13.301083      2.5535
    -7     -43.282410       0.650861      14.485792     -1.8437
    -7     -43.606087      -1.259423      13.575245     -2.2193
    -7     -44.767120      -4.973371      16.085869     -2.0072
    -7     -48.310211       1.615182      16.256161     -3.5954
    -7     -42.573692       0.877469      15.281113     -1.8669
    -7     -45.370399      -0.252554      12.366514     -2.5533
    -7     -40.504150      -2.108064      19.901363     -0.9688
    -7     -42.429222       1.808343      21.109034     -0.9681
    -7     -46.656105      -1.913386      11.089069     -1.9494
    -7     -47.067799      -3.642980      11.440676     -1.6699
    -7     -46.441391      -5.555958      15.899471     -1.7954
    -7     -49.373135      -5.459576      13.529472     -2.2454
    -7     -50.302147      -2.714022      17.711540     -2.8523
    -7     -54.046120       4.226834      14.513539     -2.7039
    -7     -55.970726       6.350105      10.520029     -1.5345
    -7     -50.379715       2.535589      15.867170     -2.9959
    -7     -54.785965      -0.147105       9.025709     -2.4374
    -7     -45.660301       3.722357      10.331539     -1.0005
    -7     -53.812386      -1.885169      17.486553     -3.2873
    -7     -47.921738      -1.443027      18.486292     -2.5917
    -7     -52.356697      -4.855629      11.810370     -1.8232
    -7     -52.879555      -8.168964      16.517208     -0.9696
    -7     -56.892975      -6.496774      15.140401     -0.9756
    -7     -56.736046      -2.054511      15.950340     -2.6458
    -7     -52.571449      -0.529039      12.077591     -5.3331
    -7     -58.974419      -0.487832      11.448956     -2.0709
    -7     -55.211185       1.715767      18.274082     -1.4314
    -7     -57.777519       3.580791      12.537821     -3.0453
    -7     -55.202049       3.539574      17.083445     -1.5692
    -7     -57.434483      -2.743261      14.178577     -2.2463
    -7     -53.271561       4.191546      14.401505     -2.6754
    -7     -58.339005       3.661666       6.412380     -1.1840
    -8     -44.170734      -0.618782      17.704212      7.1939
    -8     -45.513783      -1.565043      16.221458      5.7104
    -8     -47.301441      -1.568202      15.287910      5.3303
    -8     -53.168259      -4.007605      14.856905      7.0336
    -8     -48.500755      -1.002020      13.491831      5.4243
    -8     -49.435707       0.609089      13.058843      5.7519
    -8     -48.306923      -1.518898      14.288014      5.2055
    -8     -54.691387       0.765541      15.704777      4.3887
    -8     -54.646667       2.716246      11.295464      4.9567
    -8     -49.687782       2.549348      11.984915      7.2040
    -8     -55.885811       0.240021      14.512728      4.6394
    -8     -56.295300      -0.040286      13.063757      4.0051
    -8     -58.812374       1.101681       8.709408      1.2385

$$$$
