Diammonium.pdb
 OpenBabel02182114013D

127131  0  0  1  0  0  0  0  0999 V2000
    0.4150   -2.0170   -0.0270 O   0  0  0  0  0  0  0  0  0  0  0  0
   -1.2800    2.1730   -0.0270 O   0  0  0  0  0  0  0  0  0  0  0  0
   -1.3170   -2.0170   -0.0270 O   0  0  0  0  0  0  0  0  0  0  0  0
   -0.5770    8.5550   -0.0270 O   0  5  0  0  0  0  0  0  0  0  0  0
   -2.0630    7.6660   -0.0270 O   0  0  0  0  0  0  0  0  0  0  0  0
    0.4150   -4.0170   -0.0270 O   0  0  0  0  0  0  0  0  0  0  0  0
   -1.3170   -5.0170    0.9730 O   0  0  0  0  0  0  0  0  0  0  0  0
   -3.0490   -4.0170   -1.0270 O   0  0  0  0  0  0  0  0  0  0  0  0
   -0.4500   -5.5170   -0.0270 O   0  0  0  0  0  0  0  0  0  0  0  0
   -3.9150   -2.5170   -0.0270 O   0  5  0  0  0  0  0  0  0  0  0  0
   -3.0490   -1.0170   -0.0270 O   0  0  0  0  0  0  0  0  0  0  0  0
    2.1480   -5.0170   -1.0270 O   0  0  0  0  0  0  0  0  0  0  0  0
    2.1480   -7.0170    0.9730 O   0  0  0  0  0  0  0  0  0  0  0  0
    0.4160   -8.0170   -1.0270 O   0  0  0  0  0  0  0  0  0  0  0  0
   -1.3170   -8.0170   -0.0270 O   0  5  0  0  0  0  0  0  0  0  0  0
   -2.1830   -6.5170   -0.0270 O   0  0  0  0  0  0  0  0  0  0  0  0
   -7.0280    0.5350   -0.0270 N   0  3  0  0  0  0  0  0  0  0  0  0
    5.5500    0.5350   -0.0270 N   0  3  0  0  0  0  0  0  0  0  0  0
    1.3170    2.6830    0.0230 C   0  0  2  0  0  0  0  0  0  0  0  0
    0.4400    1.1380    0.0230 C   0  0  2  0  0  0  0  0  0  0  0  0
    0.4530    2.1800   -0.5270 C   0  0  1  0  0  0  0  0  0  0  0  0
    1.3130    3.6830   -0.0770 C   0  0  1  0  0  0  0  0  0  0  0  0
    1.3400    0.6140   -0.5270 C   0  0  2  0  0  0  0  0  0  0  0  0
    2.2280    2.1800   -0.0270 C   0  0  0  0  0  0  0  0  0  0  0  0
    1.3530   -0.4710   -0.0270 C   0  0  0  0  0  0  0  0  0  0  0  0
    2.2410    1.1380   -0.0270 C   0  0  0  0  0  0  0  0  0  0  0  0
    0.4450    4.1800   -0.0270 C   0  0  2  0  0  0  0  0  0  0  0  0
    0.4250    5.2210    0.4730 C   0  0  1  0  0  0  0  0  0  0  0  0
    1.3210    5.7530    0.0230 C   0  0  1  0  0  0  0  0  0  0  0  0
    2.2210    4.1940   -0.0270 C   0  0  0  0  0  0  0  0  0  0  0  0
   -0.5090    0.6140   -0.0270 C   0  0  0  0  0  0  0  0  0  0  0  0
    2.2250    5.2350   -0.0270 C   0  0  0  0  0  0  0  0  0  0  0  0
    0.4150   -1.0170    0.0230 C   0  0  1  0  0  0  0  0  0  0  0  0
   -0.4150    2.6770   -0.0270 C   0  0  0  0  0  0  0  0  0  0  0  0
    2.3010    2.8610    0.9730 C   0  0  0  0  0  0  0  0  0  0  0  0
   -0.5220   -0.4710   -0.0270 C   0  0  0  0  0  0  0  0  0  0  0  0
   -0.4240    1.6420    0.9730 C   0  0  0  0  0  0  0  0  0  0  0  0
    2.2980    3.5130   -1.0270 C   0  0  0  0  0  0  0  0  0  0  0  0
   -0.4190    3.6770   -0.0270 C   0  0  0  0  0  0  0  0  0  0  0  0
   -0.5290    5.7380   -0.0270 C   0  0  0  0  0  0  0  0  0  0  0  0
    1.3250    6.8380   -0.0270 C   0  0  0  0  0  0  0  0  0  0  0  0
   -0.5500    6.8230   -0.0770 C   0  0  1  0  0  0  0  0  0  0  0  0
    2.3530   -0.4630   -0.0270 C   0  0  0  0  0  0  0  0  0  0  0  0
    1.8600   -1.3330   -0.0270 C   0  0  0  0  0  0  0  0  0  0  0  0
    0.3830    7.3770   -0.0270 C   0  0  0  0  0  0  0  0  0  0  0  0
    2.1810    6.2630    0.9730 C   0  0  0  0  0  0  0  0  0  0  0  0
   -1.5500    6.8080   -1.0270 C   0  0  0  0  0  0  0  0  0  0  0  0
   -1.0630    7.6810   -0.0270 C   0  0  0  0  0  0  0  0  0  0  0  0
   -0.4500   -2.5170   -0.0770 C   0  0  2  0  0  0  0  0  0  0  0  0
   -0.4500   -3.5170   -0.0770 C   0  0  1  0  0  0  0  0  0  0  0  0
   -1.3170   -4.0170    0.0230 C   0  0  2  0  0  0  0  0  0  0  0  0
   -2.1830   -2.5170    0.0230 C   0  0  1  0  0  0  0  0  0  0  0  0
   -2.1830   -3.5170   -0.0770 C   0  0  1  0  0  0  0  0  0  0  0  0
    0.4160   -5.0170    0.0230 C   0  0  1  0  0  0  0  0  0  0  0  0
   -3.0490   -2.0170    0.9730 C   0  0  2  0  0  0  0  0  0  0  0  0
    1.2820   -5.5170   -0.0770 C   0  0  1  0  0  0  0  0  0  0  0  0
    1.2820   -6.5170    0.0230 C   0  0  2  0  0  0  0  0  0  0  0  0
   -0.4500   -6.5170    0.0230 C   0  0  1  0  0  0  0  0  0  0  0  0
    0.4160   -7.0170   -0.0770 C   0  0  1  0  0  0  0  0  0  0  0  0
   -1.3170   -7.0170    0.9730 C   0  0  2  0  0  0  0  0  0  0  0  0
    0.4530    2.1800   -1.0270 H   0  0  0  0  0  0  0  0  0  0  0  0
    1.3410    0.6140   -1.0270 H   0  0  0  0  0  0  0  0  0  0  0  0
    2.8410    2.0810   -0.0270 H   0  0  0  0  0  0  0  0  0  0  0  0
    2.4310    2.7660   -0.0270 H   0  0  0  0  0  0  0  0  0  0  0  0
    2.4560    0.5570   -0.0270 H   0  0  0  0  0  0  0  0  0  0  0  0
    2.8500    1.2520   -0.0270 H   0  0  0  0  0  0  0  0  0  0  0  0
    0.4250    5.2210    0.9730 H   0  0  0  0  0  0  0  0  0  0  0  0
    2.4280    3.6090   -0.0270 H   0  0  0  0  0  0  0  0  0  0  0  0
    2.8320    4.2970   -0.0270 H   0  0  0  0  0  0  0  0  0  0  0  0
   -0.7120    1.2000   -0.0270 H   0  0  0  0  0  0  0  0  0  0  0  0
   -1.1210    0.5150   -0.0270 H   0  0  0  0  0  0  0  0  0  0  0  0
    2.8350    5.1270   -0.0270 H   0  0  0  0  0  0  0  0  0  0  0  0
    2.4360    5.8180   -0.0270 H   0  0  0  0  0  0  0  0  0  0  0  0
    0.9530   -1.3260   -0.0270 H   0  0  0  0  0  0  0  0  0  0  0  0
    2.4110    2.2510   -0.0270 H   0  0  0  0  0  0  0  0  0  0  0  0
    2.9110    2.9710   -0.0270 H   0  0  0  0  0  0  0  0  0  0  0  0
    2.1910    3.4710   -0.0270 H   0  0  0  0  0  0  0  0  0  0  0  0
   -1.1320   -0.3580   -0.0270 H   0  0  0  0  0  0  0  0  0  0  0  0
   -0.7380   -1.0520   -0.0270 H   0  0  0  0  0  0  0  0  0  0  0  0
   -0.1120    2.1780   -0.0270 H   0  0  0  0  0  0  0  0  0  0  0  0
   -0.9590    1.9540   -0.0270 H   0  0  0  0  0  0  0  0  0  0  0  0
   -0.7360    1.1060   -0.0270 H   0  0  0  0  0  0  0  0  0  0  0  0
    2.1930    2.9030   -0.0270 H   0  0  0  0  0  0  0  0  0  0  0  0
    2.9090    3.4080   -0.0270 H   0  0  0  0  0  0  0  0  0  0  0  0
    2.4040    4.1240   -0.0270 H   0  0  0  0  0  0  0  0  0  0  0  0
   -0.9570    3.9850   -0.0270 H   0  0  0  0  0  0  0  0  0  0  0  0
   -1.1420    5.8330   -0.0270 H   0  0  0  0  0  0  0  0  0  0  0  0
   -0.7270    5.1510   -0.0270 H   0  0  0  0  0  0  0  0  0  0  0  0
    1.9350    6.7290   -0.0270 H   0  0  0  0  0  0  0  0  0  0  0  0
    1.5360    7.4210   -0.0270 H   0  0  0  0  0  0  0  0  0  0  0  0
    2.3580   -1.0830   -0.0270 H   0  0  0  0  0  0  0  0  0  0  0  0
    2.9730   -0.4580   -0.0270 H   0  0  0  0  0  0  0  0  0  0  0  0
    2.3480    0.1570   -0.0270 H   0  0  0  0  0  0  0  0  0  0  0  0
    1.3250   -1.6470   -0.0270 H   0  0  0  0  0  0  0  0  0  0  0  0
    2.1740   -1.8670   -0.0270 H   0  0  0  0  0  0  0  0  0  0  0  0
    2.3940   -1.0190   -0.0270 H   0  0  0  0  0  0  0  0  0  0  0  0
    0.7790    7.8540   -0.0270 H   0  0  0  0  0  0  0  0  0  0  0  0
   -0.0200    7.8480   -0.0270 H   0  0  0  0  0  0  0  0  0  0  0  0
    2.4970    5.7290   -0.0270 H   0  0  0  0  0  0  0  0  0  0  0  0
    2.7140    6.5790   -0.0270 H   0  0  0  0  0  0  0  0  0  0  0  0
    1.8650    6.7960   -0.0270 H   0  0  0  0  0  0  0  0  0  0  0  0
   -1.5600    7.4280   -0.0270 H   0  0  0  0  0  0  0  0  0  0  0  0
   -2.1700    6.7980   -0.0270 H   0  0  0  0  0  0  0  0  0  0  0  0
   -1.5400    6.1880   -0.0270 H   0  0  0  0  0  0  0  0  0  0  0  0
   -0.4500   -1.8970   -0.0270 H   0  0  0  0  0  0  0  0  0  0  0  0
    0.0860   -3.2070   -0.0270 H   0  0  0  0  0  0  0  0  0  0  0  0
   -0.7800   -4.3270   -0.0270 H   0  0  0  0  0  0  0  0  0  0  0  0
   -2.1830   -1.8970   -0.0270 H   0  0  0  0  0  0  0  0  0  0  0  0
   -2.7190   -3.2070   -0.0270 H   0  0  0  0  0  0  0  0  0  0  0  0
    0.9520   -4.7070   -0.0270 H   0  0  0  0  0  0  0  0  0  0  0  0
   -1.8530   -5.3270   -0.0270 H   0  0  0  0  0  0  0  0  0  0  0  0
   -3.0490   -4.6370   -0.0270 H   0  0  0  0  0  0  0  0  0  0  0  0
    1.8190   -5.8270   -0.0270 H   0  0  0  0  0  0  0  0  0  0  0  0
    1.2820   -7.1370   -0.0270 H   0  0  0  0  0  0  0  0  0  0  0  0
   -0.9870   -6.2070   -0.0270 H   0  0  0  0  0  0  0  0  0  0  0  0
   -0.1210   -7.3270   -0.0270 H   0  0  0  0  0  0  0  0  0  0  0  0
    2.1480   -4.3970   -0.0270 H   0  0  0  0  0  0  0  0  0  0  0  0
    2.6850   -6.7070   -0.0270 H   0  0  0  0  0  0  0  0  0  0  0  0
    0.9520   -8.3270   -0.0270 H   0  0  0  0  0  0  0  0  0  0  0  0
   -6.4910    0.8450   -0.0270 H   0  0  0  0  0  0  0  0  0  0  0  0
   -7.5650    0.8450   -0.0270 H   0  0  0  0  0  0  0  0  0  0  0  0
   -7.0280   -0.0850   -0.0270 H   0  0  0  0  0  0  0  0  0  0  0  0
    6.0860    0.8450   -0.0270 H   0  0  0  0  0  0  0  0  0  0  0  0
    5.0130    0.8450   -0.0270 H   0  0  0  0  0  0  0  0  0  0  0  0
    5.5500   -0.0850   -0.0270 H   0  0  0  0  0  0  0  0  0  0  0  0
   -7.0230    0.5350    1.0530 H   0  0  0  0  0  0  0  0  0  0  0  0
    5.5500    0.5350    1.0530 H   0  0  0  0  0  0  0  0  0  0  0  0
  1 33  1  0  0  0  0
  1 49  1  0  0  0  0
  2 34  2  0  0  0  0
  3 49  1  0  0  0  0
  3 52  1  0  0  0  0
  4 48  2  0  0  0  0
  5 48  1  0  0  0  0
  6 50  1  0  0  0  0
  6 54  1  0  0  0  0
  7 51  1  0  0  0  0
  7111  1  0  0  0  0
  8 53  1  0  0  0  0
  8112  1  0  0  0  0
  9 54  1  0  0  0  0
  9 58  1  0  0  0  0
 11 55  1  0  0  0  0
 12 56  1  0  0  0  0
 12117  1  0  0  0  0
 13 57  1  0  0  0  0
 13118  1  0  0  0  0
 14 59  1  0  0  0  0
 14119  1  0  0  0  0
 16 60  1  0  0  0  0
 17120  1  0  0  0  0
 17121  1  0  0  0  0
 17122  1  0  0  0  0
 17126  1  0  0  0  0
 18123  1  0  0  0  0
 18124  1  0  0  0  0
 18125  1  0  0  0  0
 18127  1  0  0  0  0
 19 21  1  1  0  0  0
 19 24  1  0  0  0  0
 19 35  1  0  0  0  0
 20 21  1  6  0  0  0
 20 31  1  0  0  0  0
 20 37  1  0  0  0  0
 21 34  1  0  0  0  0
 21 61  1  6  0  0  0
 22 19  1  1  0  0  0
 22 30  1  0  0  0  0
 22 38  1  0  0  0  0
 23 20  1  1  0  0  0
 23 25  1  0  0  0  0
 23 26  1  0  0  0  0
 23 62  1  0  0  0  0
 24 26  1  0  0  0  0
 24 63  1  0  0  0  0
 24 64  1  0  0  0  0
 25 33  1  0  0  0  0
 25 43  1  0  0  0  0
 25 44  1  0  0  0  0
 26 65  1  0  0  0  0
 26 66  1  0  0  0  0
 27 22  1  1  0  0  0
 27 28  1  0  0  0  0
 27 39  1  0  0  0  0
 28 29  1  6  0  0  0
 28 40  1  0  0  0  0
 28 67  1  0  0  0  0
 29 32  1  0  0  0  0
 29 41  1  0  0  0  0
 29 46  1  1  0  0  0
 30 32  1  0  0  0  0
 30 68  1  0  0  0  0
 30 69  1  0  0  0  0
 31 36  1  0  0  0  0
 31 70  1  0  0  0  0
 31 71  1  0  0  0  0
 32 72  1  0  0  0  0
 32 73  1  0  0  0  0
 33 36  1  0  0  0  0
 33 74  1  1  0  0  0
 34 39  1  0  0  0  0
 35 75  1  0  0  0  0
 35 76  1  0  0  0  0
 35 77  1  0  0  0  0
 36 78  1  0  0  0  0
 36 79  1  0  0  0  0
 37 80  1  0  0  0  0
 37 81  1  0  0  0  0
 37 82  1  0  0  0  0
 38 83  1  0  0  0  0
 38 84  1  0  0  0  0
 38 85  1  0  0  0  0
 39 86  1  0  0  0  0
 40 42  1  0  0  0  0
 40 87  1  0  0  0  0
 40 88  1  0  0  0  0
 41 45  1  0  0  0  0
 41 89  1  0  0  0  0
 41 90  1  0  0  0  0
 42 45  1  0  0  0  0
 42 47  1  0  0  0  0
 42 48  1  1  0  0  0
 43 91  1  0  0  0  0
 43 92  1  0  0  0  0
 43 93  1  0  0  0  0
 44 94  1  0  0  0  0
 44 95  1  0  0  0  0
 44 96  1  0  0  0  0
 45 97  1  0  0  0  0
 45 98  1  0  0  0  0
 46 99  1  0  0  0  0
 46100  1  0  0  0  0
 46101  1  0  0  0  0
 47102  1  0  0  0  0
 47103  1  0  0  0  0
 47104  1  0  0  0  0
 49 50  1  6  0  0  0
 49105  1  0  0  0  0
 50 51  1  1  0  0  0
 50106  1  0  0  0  0
 51 53  1  6  0  0  0
 51107  1  0  0  0  0
 52 53  1  6  0  0  0
 52 55  1  0  0  0  0
 52108  1  0  0  0  0
 53109  1  1  0  0  0
 54 56  1  6  0  0  0
 54110  1  0  0  0  0
 55 10  1  6  0  0  0
 56 57  1  6  0  0  0
 56113  1  0  0  0  0
 57 59  1  1  0  0  0
 57114  1  0  0  0  0
 58 59  1  6  0  0  0
 58 60  1  0  0  0  0
 58115  1  0  0  0  0
 59116  1  1  0  0  0
 60 15  1  6  0  0  0
M  CHG  5   4  -1  10  -1  15  -1  17   1  18   1
M  END
>  <HEADER>
                                                                          

>  <TITLE>
    Diammonium Glycyrrhizinate                                            

>  <MASTER>
        0    0    0    0    0    0    0    0  127    0  127    0          

$$$$
