Diammonium.pdb
  RxDock  02242109443D
librxdock.so/0.1.0
 63 69  0  0  0  0  0  0  0  0999 V2000
  -46.2969   -0.0750   17.5536 O   0  0  0  0  0  0
  -48.9870   -3.6133   18.3738 O   0  0  0  0  0  0
  -47.1365    0.8456   18.7567 O   0  0  0  0  0  0
  -52.5771   -7.9299   17.8844 O   0  5  0  0  0  0
  -53.9551   -7.3009   17.0454 O   0  0  0  0  0  0
  -44.5480    0.5447   18.3000 O   0  0  0  0  0  0
  -44.5299    2.5634   19.2614 O   0  0  0  0  0  0
  -46.2103    1.5974   21.3212 O   0  0  0  0  0  0
  -44.1902   -0.5188   19.6188 O   0  0  0  0  0  0
  -48.6641    1.7202   20.2687 O   0  5  0  0  0  0
  -48.5595    1.5310   18.5502 O   0  0  0  0  0  0
  -43.4146   -0.7950   16.9129 O   0  0  0  0  0  0
  -41.1855   -0.7098   18.6518 O   0  0  0  0  0  0
  -42.7004   -2.9222   19.5520 O   0  0  0  0  0  0
  -44.0564   -2.0537   21.4739 O   0  5  0  0  0  0
  -44.6555   -0.4497   21.2129 O   0  0  0  0  0  0
  -49.8755   -2.8477   16.0008 C   0  0  0  0  0  0
  -48.6009   -2.1677   17.0347 C   0  0  0  0  0  0
  -48.9832   -3.2014   16.6178 C   0  0  0  0  0  0
  -50.5260   -3.5865   15.7976 C   0  0  0  0  0  0
  -48.0255   -1.7735   16.0857 C   0  0  0  0  0  0
  -49.6523   -2.1592   15.2515 C   0  0  0  0  0  0
  -47.5837   -0.7303   16.4652 C   0  0  0  0  0  0
  -48.9064   -1.4491   15.4110 C   0  0  0  0  0  0
  -50.7530   -4.2531   16.5096 C   0  0  0  0  0  0
  -51.8318   -4.6613   16.5694 C   0  0  0  0  0  0
  -52.0811   -4.9221   15.4932 C   0  0  0  0  0  0
  -51.0973   -3.5240   14.9271 C   0  0  0  0  0  0
  -48.0125   -2.2384   17.9438 C   0  0  0  0  0  0
  -51.8457   -4.2263   14.7526 C   0  0  0  0  0  0
  -47.0486   -0.7208   17.4107 C   0  0  0  0  0  0
  -49.5118   -3.5944   17.5215 C   0  0  0  0  0  0
  -50.8250   -1.9812   15.5007 C   0  0  0  0  0  0
  -47.2309   -1.5101   18.1335 C   0  0  0  0  0  0
  -49.4367   -2.2901   18.1253 C   0  0  0  0  0  0
  -49.9528   -3.6396   14.5444 C   0  0  0  0  0  0
  -50.2292   -4.2723   17.3609 C   0  0  0  0  0  0
  -51.6886   -5.7117   17.1204 C   0  0  0  0  0  0
  -52.8275   -5.6846   15.2903 C   0  0  0  0  0  0
  -52.4304   -6.4846   16.9397 C   0  0  0  0  0  0
  -47.7777   -0.3199   15.5741 C   0  0  0  0  0  0
  -47.0601    0.0634   16.1556 C   0  0  0  0  0  0
  -53.0373   -6.4408   16.0399 C   0  0  0  0  0  0
  -53.2456   -4.3317   15.0490 C   0  0  0  0  0  0
  -51.5950   -7.4680   17.4273 C   0  0  0  0  0  0
  -52.9835   -7.2477   17.2766 C   0  0  0  0  0  0
  -46.2782    0.5003   18.3718 C   0  0  0  0  0  0
  -45.4037    0.8101   18.7450 C   0  0  0  0  0  0
  -45.3884    1.5046   19.4724 C   0  0  0  0  0  0
  -47.1199    1.5002   19.5141 C   0  0  0  0  0  0
  -46.2438    1.7311   19.9488 C   0  0  0  0  0  0
  -43.9289   -0.1038   18.7459 C   0  0  0  0  0  0
  -47.9930    2.5545   19.3449 C   0  0  0  0  0  0
  -43.1537   -0.4826   18.2308 C   0  0  0  0  0  0
  -42.5092   -1.0948   18.6997 C   0  0  0  0  0  0
  -43.5718   -1.1673   20.0655 C   0  0  0  0  0  0
  -42.7966   -1.5462   19.5503 C   0  0  0  0  0  0
  -43.3115   -0.8550   21.3841 C   0  0  0  0  0  0
  -44.1418    1.8060   20.0732 H   0  0  0  0  0  0
  -45.7244    2.5991   20.9407 H   0  0  0  0  0  0
  -43.4920    0.3567   17.1408 H   0  0  0  0  0  0
  -41.8700    0.0531   19.2297 H   0  0  0  0  0  0
  -41.7971   -2.3946   19.0143 H   0  0  0  0  0  0
  1 31  1  0  0  0
  1 47  1  0  0  0
  2 32  2  0  0  0
  3 47  1  0  0  0
  3 50  1  0  0  0
  4 46  2  0  0  0
  5 46  1  0  0  0
  6 48  1  0  0  0
  6 52  1  0  0  0
  7 49  1  0  0  0
  7 59  1  0  0  0
  8 51  1  0  0  0
  8 60  1  0  0  0
  9 52  1  0  0  0
  9 56  1  0  0  0
 11 53  1  0  0  0
 12 54  1  0  0  0
 12 61  1  0  0  0
 13 55  1  0  0  0
 13 62  1  0  0  0
 14 57  1  0  0  0
 14 63  1  0  0  0
 16 58  1  0  0  0
 17 19  1  0  0  0
 17 22  1  0  0  0
 17 33  1  0  0  0
 18 19  1  0  0  0
 18 29  1  0  0  0
 18 35  1  0  0  0
 19 32  1  0  0  0
 20 17  1  0  0  0
 20 28  1  0  0  0
 20 36  1  0  0  0
 21 18  1  0  0  0
 21 23  1  0  0  0
 21 24  1  0  0  0
 22 24  1  0  0  0
 23 31  1  0  0  0
 23 41  1  0  0  0
 23 42  1  0  0  0
 25 20  1  0  0  0
 25 26  1  0  0  0
 25 37  1  0  0  0
 26 27  1  0  0  0
 26 38  1  0  0  0
 27 30  1  0  0  0
 27 39  1  0  0  0
 27 44  1  0  0  0
 28 30  1  0  0  0
 29 34  1  0  0  0
 31 34  1  0  0  0
 32 37  1  0  0  0
 38 40  1  0  0  0
 39 43  1  0  0  0
 40 43  1  0  0  0
 40 45  1  0  0  0
 40 46  1  0  0  0
 47 48  1  0  0  0
 48 49  1  0  0  0
 49 51  1  0  0  0
 50 51  1  0  0  0
 50 53  1  0  0  0
 52 54  1  0  0  0
 53 10  1  0  0  0
 54 55  1  0  0  0
 55 57  1  0  0  0
 56 57  1  0  0  0
 56 58  1  0  0  0
 58 15  1  0  0  0
M  END
>  <CHROM.0>
-35.89299840,66.31733053,55.19561348

>  <CHROM.1>
129.38072556,-35.03491559,-109.91263262,2.90195715,-105.99148979,80.03144868
65.07573828,63.56580205,39.67783721,-41.80442975,102.41795337,112.60316382
-47.91699004,-1.97430496,17.76095943,0.54877006,-0.45877285,-0.11559430

>  <HEADER>
                                                                          

>  <MASTER>
        0    0    0    0    0    0    0    0  127    0  127    0          

>  <Name>
Diammonium.pdb

>  <RI>
-7.72553e+08

>  <Rbt.Current_Directory>
/root/miniconda3/envs/rdock/share/rxdock-2013.1.1_148c5bd1-0/data/ligands/prepped_ligands/Diammonium

>  <Rbt.Executable>
rbdock/0.1.0

>  <Rbt.Library>
librxdock.so/0.1.0

>  <Rbt.Parameter_File>
/root/miniconda3/envs/rdock/share/rxdock-2013.1.1_148c5bd1-0/data/scripts/dock.prm

>  <Rbt.Receptor>
def.prm

>  <SCORE>
-165.441

>  <SCORE.INTER>
-12.676

>  <SCORE.INTER.CONST>
1

>  <SCORE.INTER.POLAR>
-0.580175

>  <SCORE.INTER.REPUL>
0.292762

>  <SCORE.INTER.ROT>
7

>  <SCORE.INTER.VDW>
-24.5672

>  <SCORE.INTER.norm>
-0.218551

>  <SCORE.INTRA>
-153.221

>  <SCORE.INTRA.DIHEDRAL>
-4.05612

>  <SCORE.INTRA.DIHEDRAL.0>
37.64

>  <SCORE.INTRA.POLAR>
0.152178

>  <SCORE.INTRA.POLAR.0>
-0.371885

>  <SCORE.INTRA.REPUL>
-0.241776

>  <SCORE.INTRA.REPUL.0>
0.241776

>  <SCORE.INTRA.VDW>
-150.501

>  <SCORE.INTRA.VDW.0>
400.998

>  <SCORE.INTRA.norm>
-2.64174

>  <SCORE.RESTR>
0.614677

>  <SCORE.RESTR.CAVITY>
0.614677

>  <SCORE.RESTR.norm>
0.0105979

>  <SCORE.SYSTEM>
-0.159514

>  <SCORE.SYSTEM.CONST>
0

>  <SCORE.SYSTEM.DIHEDRAL>
1.49574

>  <SCORE.SYSTEM.VDW>
-0.907382

>  <SCORE.SYSTEM.norm>
-0.00275024

>  <SCORE.heavy>
58

>  <SCORE.norm>
-2.85244

>  <TITLE>
    Diammonium Glycyrrhizinate                                            

$$$$
Diammonium.pdb
  RxDock  02242109443D
librxdock.so/0.1.0
 63 69  0  0  0  0  0  0  0  0999 V2000
  -51.2287   -3.1942   17.5902 O   0  0  0  0  0  0
  -46.7348   -2.8497   17.9303 O   0  0  0  0  0  0
  -51.1099   -4.3874   16.3405 O   0  0  0  0  0  0
  -41.4058    0.3319   19.4759 O   0  5  0  0  0  0
  -41.5012   -1.0109   18.3867 O   0  0  0  0  0  0
  -51.8469   -4.5988   18.8727 O   0  0  0  0  0  0
  -52.9858   -6.3154   18.0030 O   0  0  0  0  0  0
  -50.6608   -7.1644   16.6343 O   0  0  0  0  0  0
  -50.4883   -5.2774   19.7045 O   0  0  0  0  0  0
  -50.6035   -5.6735   14.4546 O   0  5  0  0  0  0
  -51.3231   -4.1302   14.7714 O   0  0  0  0  0  0
  -52.8371   -4.1786   20.8338 O   0  0  0  0  0  0
  -52.4475   -6.8711   21.6076 O   0  0  0  0  0  0
  -50.1181   -5.5357   22.4967 O   0  0  0  0  0  0
  -48.4051   -5.9512   20.7257 O   0  5  0  0  0  0
  -49.0504   -5.8826   19.1199 O   0  0  0  0  0  0
  -47.4744   -0.3836   18.5453 C   0  0  0  0  0  0
  -48.4407   -1.8021   18.0869 C   0  0  0  0  0  0
  -47.5513   -1.4942   18.7958 C   0  0  0  0  0  0
  -46.5912    0.0155   18.8113 C   0  0  0  0  0  0
  -49.3475   -1.4049   18.7249 C   0  0  0  0  0  0
  -48.3418    0.1697   18.7094 C   0  0  0  0  0  0
  -50.2895   -1.7228   18.0624 C   0  0  0  0  0  0
  -49.2715   -0.2673   18.5342 C   0  0  0  0  0  0
  -45.7489   -0.5034   18.6557 C   0  0  0  0  0  0
  -44.7911    0.0647   18.3492 C   0  0  0  0  0  0
  -44.7547    0.9401   19.0707 C   0  0  0  0  0  0
  -46.5532    1.0297   19.0519 C   0  0  0  0  0  0
  -48.4714   -2.8572   17.8349 C   0  0  0  0  0  0
  -45.6322    1.4809   19.2307 C   0  0  0  0  0  0
  -50.3396   -2.7504   17.7131 C   0  0  0  0  0  0
  -46.6858   -1.8892   18.2082 C   0  0  0  0  0  0
  -47.7201    0.8004   17.8819 C   0  0  0  0  0  0
  -49.4273   -3.3350   17.6466 C   0  0  0  0  0  0
  -47.5476   -2.0669   17.0694 C   0  0  0  0  0  0
  -47.2439    0.5280   19.9127 C   0  0  0  0  0  0
  -45.7975   -1.4626   18.3782 C   0  0  0  0  0  0
  -43.9198   -0.6709   18.7060 C   0  0  0  0  0  0
  -43.7973    1.3963   19.3050 C   0  0  0  0  0  0
  -42.9509   -0.2361   18.9347 C   0  0  0  0  0  0
  -50.7423   -0.8595   18.2855 C   0  0  0  0  0  0
  -51.2868   -1.6575   18.0275 C   0  0  0  0  0  0
  -42.8863    0.8181   19.1882 C   0  0  0  0  0  0
  -44.6491    2.1602   18.4366 C   0  0  0  0  0  0
  -42.5533   -1.3638   19.6224 C   0  0  0  0  0  0
  -41.9518   -0.2945   18.9196 C   0  0  0  0  0  0
  -51.2765   -4.1502   17.2998 C   0  0  0  0  0  0
  -51.5856   -4.8526   17.9410 C   0  0  0  0  0  0
  -51.7756   -5.7831   17.6099 C   0  0  0  0  0  0
  -51.2525   -5.3263   16.0232 C   0  0  0  0  0  0
  -51.4668   -6.0465   16.6905 C   0  0  0  0  0  0
  -51.4724   -5.0999   19.6544 C   0  0  0  0  0  0
  -51.9397   -5.4016   14.8296 C   0  0  0  0  0  0
  -52.0431   -5.2457   20.4687 C   0  0  0  0  0  0
  -51.6772   -5.7912   21.2293 C   0  0  0  0  0  0
  -50.1129   -5.7785   20.4859 C   0  0  0  0  0  0
  -50.6836   -5.9242   21.3001 C   0  0  0  0  0  0
  -49.3180   -6.8456   20.1203 C   0  0  0  0  0  0
  -52.0603   -6.8899   18.4465 H   0  0  0  0  0  0
  -51.7558   -7.3621   16.2517 H   0  0  0  0  0  0
  -53.1683   -5.1938   21.3278 H   0  0  0  0  0  0
  -51.3742   -6.8751   22.0897 H   0  0  0  0  0  0
  -51.0676   -6.2167   22.6317 H   0  0  0  0  0  0
  1 31  1  0  0  0
  1 47  1  0  0  0
  2 32  2  0  0  0
  3 47  1  0  0  0
  3 50  1  0  0  0
  4 46  2  0  0  0
  5 46  1  0  0  0
  6 48  1  0  0  0
  6 52  1  0  0  0
  7 49  1  0  0  0
  7 59  1  0  0  0
  8 51  1  0  0  0
  8 60  1  0  0  0
  9 52  1  0  0  0
  9 56  1  0  0  0
 11 53  1  0  0  0
 12 54  1  0  0  0
 12 61  1  0  0  0
 13 55  1  0  0  0
 13 62  1  0  0  0
 14 57  1  0  0  0
 14 63  1  0  0  0
 16 58  1  0  0  0
 17 19  1  0  0  0
 17 22  1  0  0  0
 17 33  1  0  0  0
 18 19  1  0  0  0
 18 29  1  0  0  0
 18 35  1  0  0  0
 19 32  1  0  0  0
 20 17  1  0  0  0
 20 28  1  0  0  0
 20 36  1  0  0  0
 21 18  1  0  0  0
 21 23  1  0  0  0
 21 24  1  0  0  0
 22 24  1  0  0  0
 23 31  1  0  0  0
 23 41  1  0  0  0
 23 42  1  0  0  0
 25 20  1  0  0  0
 25 26  1  0  0  0
 25 37  1  0  0  0
 26 27  1  0  0  0
 26 38  1  0  0  0
 27 30  1  0  0  0
 27 39  1  0  0  0
 27 44  1  0  0  0
 28 30  1  0  0  0
 29 34  1  0  0  0
 31 34  1  0  0  0
 32 37  1  0  0  0
 38 40  1  0  0  0
 39 43  1  0  0  0
 40 43  1  0  0  0
 40 45  1  0  0  0
 40 46  1  0  0  0
 47 48  1  0  0  0
 48 49  1  0  0  0
 49 51  1  0  0  0
 50 51  1  0  0  0
 50 53  1  0  0  0
 52 54  1  0  0  0
 53 10  1  0  0  0
 54 55  1  0  0  0
 55 57  1  0  0  0
 56 57  1  0  0  0
 56 58  1  0  0  0
 58 15  1  0  0  0
M  END
>  <CHROM.0>
95.43405471,-172.06112494,-176.60550929

>  <CHROM.1>
-177.84215642,-76.58835454,-130.40372118,47.84044241,-114.81275103,105.71795968
163.15645239,168.50280077,49.03821896,-165.70979082,104.33736656,113.13050621
-48.51415701,-2.78035224,18.58196543,2.80459006,0.58436431,2.20058817

>  <HEADER>
                                                                          

>  <MASTER>
        0    0    0    0    0    0    0    0  127    0  127    0          

>  <Name>
Diammonium.pdb

>  <RI>
-7.72553e+08

>  <Rbt.Current_Directory>
/root/miniconda3/envs/rdock/share/rxdock-2013.1.1_148c5bd1-0/data/ligands/prepped_ligands/Diammonium

>  <Rbt.Executable>
rbdock/0.1.0

>  <Rbt.Library>
librxdock.so/0.1.0

>  <Rbt.Parameter_File>
/root/miniconda3/envs/rdock/share/rxdock-2013.1.1_148c5bd1-0/data/scripts/dock.prm

>  <Rbt.Receptor>
def.prm

>  <SCORE>
-162.235

>  <SCORE.INTER>
-8.05687

>  <SCORE.INTER.CONST>
1

>  <SCORE.INTER.POLAR>
-0.782987

>  <SCORE.INTER.REPUL>
0.510277

>  <SCORE.INTER.ROT>
7

>  <SCORE.INTER.VDW>
-20.3461

>  <SCORE.INTER.norm>
-0.138912

>  <SCORE.INTRA>
-155.476

>  <SCORE.INTRA.DIHEDRAL>
2.26914

>  <SCORE.INTRA.DIHEDRAL.0>
37.64

>  <SCORE.INTRA.POLAR>
0.30614

>  <SCORE.INTRA.POLAR.0>
-0.371885

>  <SCORE.INTRA.REPUL>
-0.0338822

>  <SCORE.INTRA.REPUL.0>
0.241776

>  <SCORE.INTRA.VDW>
-157.483

>  <SCORE.INTRA.VDW.0>
400.998

>  <SCORE.INTRA.norm>
-2.68063

>  <SCORE.RESTR>
0.653893

>  <SCORE.RESTR.CAVITY>
0.653893

>  <SCORE.RESTR.norm>
0.011274

>  <SCORE.SYSTEM>
0.644348

>  <SCORE.SYSTEM.CONST>
0

>  <SCORE.SYSTEM.DIHEDRAL>
2.62397

>  <SCORE.SYSTEM.POLAR>
-0.00942496

>  <SCORE.SYSTEM.VDW>
-0.635592

>  <SCORE.SYSTEM.norm>
0.0111094

>  <SCORE.heavy>
58

>  <SCORE.norm>
-2.79716

>  <TITLE>
    Diammonium Glycyrrhizinate                                            

$$$$
Diammonium.pdb
  RxDock  02242109443D
librxdock.so/0.1.0
 63 69  0  0  0  0  0  0  0  0999 V2000
  -48.0850    0.1162   17.4073 O   0  0  0  0  0  0
  -49.1816   -3.5329   19.8386 O   0  0  0  0  0  0
  -49.2678    1.1749   18.1001 O   0  0  0  0  0  0
  -51.4185   -8.3582   21.5942 O   0  5  0  0  0  0
  -51.1692   -9.5747   20.3873 O   0  0  0  0  0  0
  -46.6241    1.2491   18.1703 O   0  0  0  0  0  0
  -47.0697    3.4269   18.4112 O   0  0  0  0  0  0
  -48.9963    2.8139   20.3892 O   0  0  0  0  0  0
  -46.3308    0.6027   19.7497 O   0  0  0  0  0  0
  -51.1693    2.1730   19.0071 O   0  5  0  0  0  0
  -50.7130    1.4811   17.4863 O   0  0  0  0  0  0
  -44.5735    0.6220   17.5336 O   0  0  0  0  0  0
  -43.4713    1.9526   19.7730 O   0  0  0  0  0  0
  -43.9886   -0.6714   20.6935 O   0  0  0  0  0  0
  -46.3342   -0.5230   21.8216 O   0  5  0  0  0  0
  -47.3325    0.6441   21.0208 O   0  0  0  0  0  0
  -49.9680   -4.2838   17.4252 C   0  0  0  0  0  0
  -49.2383   -2.7638   17.9846 C   0  0  0  0  0  0
  -49.1037   -3.9304   18.0810 C   0  0  0  0  0  0
  -50.2254   -5.2392   17.6014 C   0  0  0  0  0  0
  -48.7488   -2.5960   16.9266 C   0  0  0  0  0  0
  -49.9441   -3.9470   16.4396 C   0  0  0  0  0  0
  -48.8284   -1.4119   16.7890 C   0  0  0  0  0  0
  -49.5829   -2.9920   16.2310 C   0  0  0  0  0  0
  -50.2565   -5.5756   18.5442 C   0  0  0  0  0  0
  -51.0717   -6.3391   18.8386 C   0  0  0  0  0  0
  -51.0415   -7.1023   17.9990 C   0  0  0  0  0  0
  -50.6462   -5.7948   16.8254 C   0  0  0  0  0  0
  -48.8040   -2.1915   18.7980 C   0  0  0  0  0  0
  -51.0108   -6.7508   17.0173 C   0  0  0  0  0  0
  -48.4800   -0.7828   17.6034 C   0  0  0  0  0  0
  -49.5451   -4.0960   19.0950 C   0  0  0  0  0  0
  -51.1095   -4.2011   16.6553 C   0  0  0  0  0  0
  -48.4221   -1.1940   18.6064 C   0  0  0  0  0  0
  -50.0931   -2.7655   19.0673 C   0  0  0  0  0  0
  -49.5134   -5.5581   16.4643 C   0  0  0  0  0  0
  -49.8936   -5.0134   19.2870 C   0  0  0  0  0  0
  -50.5898   -6.8925   19.7814 C   0  0  0  0  0  0
  -51.3758   -8.1176   18.1913 C   0  0  0  0  0  0
  -50.9187   -7.9049   19.9980 C   0  0  0  0  0  0
  -49.0478   -1.5355   15.8212 C   0  0  0  0  0  0
  -48.6371   -0.6796   16.1354 C   0  0  0  0  0  0
  -51.3600   -8.5029   19.2058 C   0  0  0  0  0  0
  -52.2720   -7.3099   17.4117 C   0  0  0  0  0  0
  -49.8308   -8.1354   20.8141 C   0  0  0  0  0  0
  -51.1529   -8.6139   20.6646 C   0  0  0  0  0  0
  -48.3108    0.9005   17.9857 C   0  0  0  0  0  0
  -47.5803    1.4670   18.3672 C   0  0  0  0  0  0
  -47.8065    2.3354   18.8214 C   0  0  0  0  0  0
  -49.4936    2.0151   18.5955 C   0  0  0  0  0  0
  -48.7638    2.5263   19.0604 C   0  0  0  0  0  0
  -45.9904    1.0441   18.9180 C   0  0  0  0  0  0
  -50.4439    2.7864   17.9595 C   0  0  0  0  0  0
  -45.0000    1.0970   18.7563 C   0  0  0  0  0  0
  -44.3714    0.9375   19.5241 C   0  0  0  0  0  0
  -45.6980    0.3974   20.4979 C   0  0  0  0  0  0
  -44.7075    0.4503   20.3362 C   0  0  0  0  0  0
  -46.1252    0.8720   21.7212 C   0  0  0  0  0  0
  -47.4127    3.4942   19.5343 H   0  0  0  0  0  0
  -48.1986    1.9635   20.2311 H   0  0  0  0  0  0
  -43.8541    1.4315   17.9935 H   0  0  0  0  0  0
  -43.0932    0.8983   20.1337 H   0  0  0  0  0  0
  -43.4989    0.3314   21.0649 H   0  0  0  0  0  0
  1 31  1  0  0  0
  1 47  1  0  0  0
  2 32  2  0  0  0
  3 47  1  0  0  0
  3 50  1  0  0  0
  4 46  2  0  0  0
  5 46  1  0  0  0
  6 48  1  0  0  0
  6 52  1  0  0  0
  7 49  1  0  0  0
  7 59  1  0  0  0
  8 51  1  0  0  0
  8 60  1  0  0  0
  9 52  1  0  0  0
  9 56  1  0  0  0
 11 53  1  0  0  0
 12 54  1  0  0  0
 12 61  1  0  0  0
 13 55  1  0  0  0
 13 62  1  0  0  0
 14 57  1  0  0  0
 14 63  1  0  0  0
 16 58  1  0  0  0
 17 19  1  0  0  0
 17 22  1  0  0  0
 17 33  1  0  0  0
 18 19  1  0  0  0
 18 29  1  0  0  0
 18 35  1  0  0  0
 19 32  1  0  0  0
 20 17  1  0  0  0
 20 28  1  0  0  0
 20 36  1  0  0  0
 21 18  1  0  0  0
 21 23  1  0  0  0
 21 24  1  0  0  0
 22 24  1  0  0  0
 23 31  1  0  0  0
 23 41  1  0  0  0
 23 42  1  0  0  0
 25 20  1  0  0  0
 25 26  1  0  0  0
 25 37  1  0  0  0
 26 27  1  0  0  0
 26 38  1  0  0  0
 27 30  1  0  0  0
 27 39  1  0  0  0
 27 44  1  0  0  0
 28 30  1  0  0  0
 29 34  1  0  0  0
 31 34  1  0  0  0
 32 37  1  0  0  0
 38 40  1  0  0  0
 39 43  1  0  0  0
 40 43  1  0  0  0
 40 45  1  0  0  0
 40 46  1  0  0  0
 47 48  1  0  0  0
 48 49  1  0  0  0
 49 51  1  0  0  0
 50 51  1  0  0  0
 50 53  1  0  0  0
 52 54  1  0  0  0
 53 10  1  0  0  0
 54 55  1  0  0  0
 55 57  1  0  0  0
 56 57  1  0  0  0
 56 58  1  0  0  0
 58 15  1  0  0  0
M  END
>  <CHROM.0>
54.17195155,66.82191276,-67.02838862

>  <CHROM.1>
138.86510033,-57.62371100,-120.49623774,31.33768556,-149.50319990,-38.92276990
153.87329792,-154.09595030,81.12367928,22.02663466,103.58172872,106.46734430
-48.75430012,-2.18172654,18.68684835,0.99314526,-0.67820853,-0.35685639

>  <HEADER>
                                                                          

>  <MASTER>
        0    0    0    0    0    0    0    0  127    0  127    0          

>  <Name>
Diammonium.pdb

>  <RI>
-7.72553e+08

>  <Rbt.Current_Directory>
/root/miniconda3/envs/rdock/share/rxdock-2013.1.1_148c5bd1-0/data/ligands/prepped_ligands/Diammonium

>  <Rbt.Executable>
rbdock/0.1.0

>  <Rbt.Library>
librxdock.so/0.1.0

>  <Rbt.Parameter_File>
/root/miniconda3/envs/rdock/share/rxdock-2013.1.1_148c5bd1-0/data/scripts/dock.prm

>  <Rbt.Receptor>
def.prm

>  <SCORE>
-163.174

>  <SCORE.INTER>
-13.6602

>  <SCORE.INTER.CONST>
1

>  <SCORE.INTER.POLAR>
-1.22071

>  <SCORE.INTER.REPUL>
0.533151

>  <SCORE.INTER.ROT>
7

>  <SCORE.INTER.VDW>
-24.5755

>  <SCORE.INTER.norm>
-0.235521

>  <SCORE.INTRA>
-151.144

>  <SCORE.INTRA.DIHEDRAL>
-0.894078

>  <SCORE.INTRA.DIHEDRAL.0>
37.64

>  <SCORE.INTRA.POLAR>
-0.914271

>  <SCORE.INTRA.POLAR.0>
-0.371885

>  <SCORE.INTRA.REPUL>
-0.241776

>  <SCORE.INTRA.REPUL.0>
0.241776

>  <SCORE.INTRA.VDW>
-146.379

>  <SCORE.INTRA.VDW.0>
400.998

>  <SCORE.INTRA.norm>
-2.60592

>  <SCORE.RESTR>
2.51224

>  <SCORE.RESTR.CAVITY>
2.51224

>  <SCORE.RESTR.norm>
0.0433146

>  <SCORE.SYSTEM>
-0.882963

>  <SCORE.SYSTEM.CONST>
0

>  <SCORE.SYSTEM.DIHEDRAL>
0.440937

>  <SCORE.SYSTEM.VDW>
-1.10343

>  <SCORE.SYSTEM.norm>
-0.0152235

>  <SCORE.heavy>
58

>  <SCORE.norm>
-2.81335

>  <TITLE>
    Diammonium Glycyrrhizinate                                            

$$$$
Diammonium.pdb
  RxDock  02242109443D
librxdock.so/0.1.0
 63 69  0  0  0  0  0  0  0  0999 V2000
  -51.7836   -4.0214   18.3572 O   0  0  0  0  0  0
  -47.7401   -2.1373   17.6294 O   0  0  0  0  0  0
  -52.1477   -4.1272   16.6672 O   0  0  0  0  0  0
  -43.3944    2.3409   18.6027 O   0  5  0  0  0  0
  -42.8708    0.7236   18.2731 O   0  0  0  0  0  0
  -51.5520   -6.0065   18.4316 O   0  0  0  0  0  0
  -52.7711   -7.2101   16.9945 O   0  0  0  0  0  0
  -51.3095   -6.1130   14.8359 O   0  0  0  0  0  0
  -49.8559   -6.2398   18.1726 O   0  0  0  0  0  0
  -52.4678   -3.8161   14.3578 O   0  5  0  0  0  0
  -53.0943   -3.1316   15.8203 O   0  0  0  0  0  0
  -51.4099   -7.1236   20.3643 O   0  0  0  0  0  0
  -50.1400   -9.2701   19.0303 O   0  0  0  0  0  0
  -48.0167   -7.5887   19.8452 O   0  0  0  0  0  0
  -47.5448   -6.0709   17.7665 O   0  5  0  0  0  0
  -49.0041   -5.7744   16.8819 O   0  0  0  0  0  0
  -48.5978   -0.7052   19.6838 C   0  0  0  0  0  0
  -49.3768   -2.0265   18.7874 C   0  0  0  0  0  0
  -48.3456   -1.7430   19.2820 C   0  0  0  0  0  0
  -47.7805   -0.1550   19.8822 C   0  0  0  0  0  0
  -49.9770   -2.3414   19.7506 C   0  0  0  0  0  0
  -49.3976   -0.6695   20.3505 C   0  0  0  0  0  0
  -51.0327   -2.6740   19.3010 C   0  0  0  0  0  0
  -50.2095   -1.3085   20.2148 C   0  0  0  0  0  0
  -47.0058   -0.1765   19.2479 C   0  0  0  0  0  0
  -46.4020    0.7920   19.0703 C   0  0  0  0  0  0
  -46.2258    1.1951   20.1166 C   0  0  0  0  0  0
  -47.8369    0.5731   20.6270 C   0  0  0  0  0  0
  -49.3111   -2.7798   18.0090 C   0  0  0  0  0  0
  -47.0338    1.2186   20.7759 C   0  0  0  0  0  0
  -51.0314   -3.3697   18.4664 C   0  0  0  0  0  0
  -47.7604   -1.4647   18.3707 C   0  0  0  0  0  0
  -49.3267    0.4481   19.8867 C   0  0  0  0  0  0
  -50.1440   -3.4562   17.8470 C   0  0  0  0  0  0
  -48.9776   -1.4426   17.6031 C   0  0  0  0  0  0
  -47.9788   -0.4819   21.2072 C   0  0  0  0  0  0
  -46.9853   -0.8480   18.5076 C   0  0  0  0  0  0
  -45.3394    0.3807   18.7108 C   0  0  0  0  0  0
  -45.3676    1.8344   20.3024 C   0  0  0  0  0  0
  -44.4694    1.0097   18.8772 C   0  0  0  0  0  0
  -51.5006   -2.2519   20.0775 C   0  0  0  0  0  0
  -51.9396   -2.9956   19.5734 C   0  0  0  0  0  0
  -44.5043    1.7748   19.6474 C   0  0  0  0  0  0
  -46.6391    2.5019   20.2699 C   0  0  0  0  0  0
  -43.6069   -0.0495   18.6846 C   0  0  0  0  0  0
  -43.5838    1.3596   18.5687 C   0  0  0  0  0  0
  -51.8590   -4.5653   17.5210 C   0  0  0  0  0  0
  -51.7432   -5.5578   17.5582 C   0  0  0  0  0  0
  -51.9647   -6.1176   16.7524 C   0  0  0  0  0  0
  -52.3204   -4.6816   15.8516 C   0  0  0  0  0  0
  -52.1076   -5.6637   15.8672 C   0  0  0  0  0  0
  -50.7283   -6.5653   18.5405 C   0  0  0  0  0  0
  -53.4826   -4.3382   15.1930 C   0  0  0  0  0  0
  -50.7367   -7.3404   19.1801 C   0  0  0  0  0  0
  -49.9225   -7.9256   19.2477 C   0  0  0  0  0  0
  -49.0317   -6.7978   18.2810 C   0  0  0  0  0  0
  -49.0401   -7.5730   18.9206 C   0  0  0  0  0  0
  -48.3580   -7.0140   17.0963 C   0  0  0  0  0  0
  -51.6763   -7.5023   16.6793 H   0  0  0  0  0  0
  -52.2213   -6.8221   15.0598 H   0  0  0  0  0  0
  -51.6882   -8.1460   19.8528 H   0  0  0  0  0  0
  -49.9453   -9.0085   20.1608 H   0  0  0  0  0  0
  -47.9201   -8.4326   19.0317 H   0  0  0  0  0  0
  1 31  1  0  0  0
  1 47  1  0  0  0
  2 32  2  0  0  0
  3 47  1  0  0  0
  3 50  1  0  0  0
  4 46  2  0  0  0
  5 46  1  0  0  0
  6 48  1  0  0  0
  6 52  1  0  0  0
  7 49  1  0  0  0
  7 59  1  0  0  0
  8 51  1  0  0  0
  8 60  1  0  0  0
  9 52  1  0  0  0
  9 56  1  0  0  0
 11 53  1  0  0  0
 12 54  1  0  0  0
 12 61  1  0  0  0
 13 55  1  0  0  0
 13 62  1  0  0  0
 14 57  1  0  0  0
 14 63  1  0  0  0
 16 58  1  0  0  0
 17 19  1  0  0  0
 17 22  1  0  0  0
 17 33  1  0  0  0
 18 19  1  0  0  0
 18 29  1  0  0  0
 18 35  1  0  0  0
 19 32  1  0  0  0
 20 17  1  0  0  0
 20 28  1  0  0  0
 20 36  1  0  0  0
 21 18  1  0  0  0
 21 23  1  0  0  0
 21 24  1  0  0  0
 22 24  1  0  0  0
 23 31  1  0  0  0
 23 41  1  0  0  0
 23 42  1  0  0  0
 25 20  1  0  0  0
 25 26  1  0  0  0
 25 37  1  0  0  0
 26 27  1  0  0  0
 26 38  1  0  0  0
 27 30  1  0  0  0
 27 39  1  0  0  0
 27 44  1  0  0  0
 28 30  1  0  0  0
 29 34  1  0  0  0
 31 34  1  0  0  0
 32 37  1  0  0  0
 38 40  1  0  0  0
 39 43  1  0  0  0
 40 43  1  0  0  0
 40 45  1  0  0  0
 40 46  1  0  0  0
 47 48  1  0  0  0
 48 49  1  0  0  0
 49 51  1  0  0  0
 50 51  1  0  0  0
 50 53  1  0  0  0
 52 54  1  0  0  0
 53 10  1  0  0  0
 54 55  1  0  0  0
 55 57  1  0  0  0
 56 57  1  0  0  0
 56 58  1  0  0  0
 58 15  1  0  0  0
M  END
>  <CHROM.0>
-50.50895248,61.15084929,174.65573374

>  <CHROM.1>
170.67680092,-72.63568435,-122.47022356,43.01688974,-112.46659171,78.85645251
132.88269251,-106.69793506,105.00526366,132.18270974,105.87562804,105.86967859
-49.07519134,-2.97992405,18.48352676,2.25055718,0.28105722,-3.09869601

>  <HEADER>
                                                                          

>  <MASTER>
        0    0    0    0    0    0    0    0  127    0  127    0          

>  <Name>
Diammonium.pdb

>  <RI>
-7.72553e+08

>  <Rbt.Current_Directory>
/root/miniconda3/envs/rdock/share/rxdock-2013.1.1_148c5bd1-0/data/ligands/prepped_ligands/Diammonium

>  <Rbt.Executable>
rbdock/0.1.0

>  <Rbt.Library>
librxdock.so/0.1.0

>  <Rbt.Parameter_File>
/root/miniconda3/envs/rdock/share/rxdock-2013.1.1_148c5bd1-0/data/scripts/dock.prm

>  <Rbt.Receptor>
def.prm

>  <SCORE>
-182.651

>  <SCORE.INTER>
-12.2877

>  <SCORE.INTER.CONST>
1

>  <SCORE.INTER.POLAR>
-0.262275

>  <SCORE.INTER.REPUL>
0

>  <SCORE.INTER.ROT>
7

>  <SCORE.INTER.VDW>
-23.796

>  <SCORE.INTER.norm>
-0.211857

>  <SCORE.INTRA>
-169.508

>  <SCORE.INTRA.DIHEDRAL>
7.24841

>  <SCORE.INTRA.DIHEDRAL.0>
37.64

>  <SCORE.INTRA.POLAR>
0.371885

>  <SCORE.INTRA.POLAR.0>
-0.371885

>  <SCORE.INTRA.REPUL>
-0.0500592

>  <SCORE.INTRA.REPUL.0>
0.241776

>  <SCORE.INTRA.VDW>
-174.146

>  <SCORE.INTRA.VDW.0>
400.998

>  <SCORE.INTRA.norm>
-2.92255

>  <SCORE.RESTR>
0

>  <SCORE.RESTR.CAVITY>
0

>  <SCORE.RESTR.norm>
0

>  <SCORE.SYSTEM>
-0.855747

>  <SCORE.SYSTEM.CONST>
0

>  <SCORE.SYSTEM.DIHEDRAL>
0.292032

>  <SCORE.SYSTEM.VDW>
-1.00176

>  <SCORE.SYSTEM.norm>
-0.0147543

>  <SCORE.heavy>
58

>  <SCORE.norm>
-3.14916

>  <TITLE>
    Diammonium Glycyrrhizinate                                            

$$$$
Diammonium.pdb
  RxDock  02242109443D
librxdock.so/0.1.0
 63 69  0  0  0  0  0  0  0  0999 V2000
  -47.9925    0.4911   17.5938 O   0  0  0  0  0  0
  -48.7835   -3.6892   19.1200 O   0  0  0  0  0  0
  -47.2643    1.0006   19.0804 O   0  0  0  0  0  0
  -50.4460   -9.1443   19.4751 O   0  5  0  0  0  0
  -52.1648   -8.9356   19.5009 O   0  0  0  0  0  0
  -46.1890    0.4296   16.7314 O   0  0  0  0  0  0
  -44.6596    1.8637   17.5086 O   0  0  0  0  0  0
  -44.6322    0.4935   19.9828 O   0  0  0  0  0  0
  -45.7010   -1.1896   17.1031 O   0  0  0  0  0  0
  -46.7487    1.4745   21.2915 O   0  5  0  0  0  0
  -47.9513    1.9644   20.1454 O   0  0  0  0  0  0
  -46.6349   -0.1881   14.6284 O   0  0  0  0  0  0
  -44.0483   -1.3115   14.4099 O   0  0  0  0  0  0
  -45.6591   -3.4273   15.3736 O   0  0  0  0  0  0
  -45.3024   -3.4510   17.8495 O   0  5  0  0  0  0
  -45.2013   -1.8657   18.5399 O   0  0  0  0  0  0
  -50.5585   -3.5259   17.1631 C   0  0  0  0  0  0
  -49.3858   -2.3350   17.7652 C   0  0  0  0  0  0
  -49.4586   -3.4712   17.4617 C   0  0  0  0  0  0
  -50.9134   -4.4661   17.1538 C   0  0  0  0  0  0
  -49.3117   -1.8497   16.6947 C   0  0  0  0  0  0
  -50.8441   -2.8770   16.3997 C   0  0  0  0  0  0
  -49.2014   -0.6866   16.9444 C   0  0  0  0  0  0
  -50.4078   -1.9328   16.3370 C   0  0  0  0  0  0
  -50.6504   -5.0996   17.8835 C   0  0  0  0  0  0
  -51.4266   -5.8645   18.2662 C   0  0  0  0  0  0
  -51.8689   -6.2981   17.3150 C   0  0  0  0  0  0
  -51.6981   -4.6979   16.5068 C   0  0  0  0  0  0
  -48.5715   -2.1011   18.4433 C   0  0  0  0  0  0
  -52.1440   -5.6372   16.5563 C   0  0  0  0  0  0
  -48.4530   -0.3942   17.6758 C   0  0  0  0  0  0
  -49.5056   -3.9426   18.4746 C   0  0  0  0  0  0
  -51.8659   -3.1151   17.0067 C   0  0  0  0  0  0
  -48.1016   -1.1240   18.3986 C   0  0  0  0  0  0
  -49.7481   -2.6497   19.0585 C   0  0  0  0  0  0
  -50.7644   -4.4248   15.7835 C   0  0  0  0  0  0
  -49.9293   -4.8468   18.5282 C   0  0  0  0  0  0
  -50.7429   -6.7341   18.7176 C   0  0  0  0  0  0
  -52.2991   -7.2952   17.3353 C   0  0  0  0  0  0
  -51.1584   -7.7371   18.7572 C   0  0  0  0  0  0
  -49.7914   -0.4605   16.1692 C   0  0  0  0  0  0
  -49.1315    0.2103   16.5076 C   0  0  0  0  0  0
  -51.9762   -8.0018   18.0931 C   0  0  0  0  0  0
  -53.2450   -6.2160   17.2716 C   0  0  0  0  0  0
  -49.9111   -8.2989   18.9343 C   0  0  0  0  0  0
  -51.2575   -8.6138   19.2299 C   0  0  0  0  0  0
  -47.1729    0.6824   18.1345 C   0  0  0  0  0  0
  -46.2712    0.6517   17.7034 C   0  0  0  0  0  0
  -45.4658    0.9870   18.2041 C   0  0  0  0  0  0
  -46.4544    1.2878   19.5942 C   0  0  0  0  0  0
  -45.5426    1.1616   19.1908 C   0  0  0  0  0  0
  -45.7779   -0.4377   16.4465 C   0  0  0  0  0  0
  -46.6366    2.4654   20.2887 C   0  0  0  0  0  0
  -45.6294   -0.6179   15.4690 C   0  0  0  0  0  0
  -45.1719   -1.4695   15.1942 C   0  0  0  0  0  0
  -45.2900   -2.0573   16.8191 C   0  0  0  0  0  0
  -45.1415   -2.2375   15.8416 C   0  0  0  0  0  0
  -44.2846   -2.4875   17.6607 C   0  0  0  0  0  0
  -44.1330    1.3973   18.4513 H   0  0  0  0  0  0
  -44.1655    1.4102   19.4116 H   0  0  0  0  0  0
  -46.1130    0.6890   15.2139 H   0  0  0  0  0  0
  -45.0454   -1.0236   13.8555 H   0  0  0  0  0  0
  -46.1361   -3.0824   16.3920 H   0  0  0  0  0  0
  1 31  1  0  0  0
  1 47  1  0  0  0
  2 32  2  0  0  0
  3 47  1  0  0  0
  3 50  1  0  0  0
  4 46  2  0  0  0
  5 46  1  0  0  0
  6 48  1  0  0  0
  6 52  1  0  0  0
  7 49  1  0  0  0
  7 59  1  0  0  0
  8 51  1  0  0  0
  8 60  1  0  0  0
  9 52  1  0  0  0
  9 56  1  0  0  0
 11 53  1  0  0  0
 12 54  1  0  0  0
 12 61  1  0  0  0
 13 55  1  0  0  0
 13 62  1  0  0  0
 14 57  1  0  0  0
 14 63  1  0  0  0
 16 58  1  0  0  0
 17 19  1  0  0  0
 17 22  1  0  0  0
 17 33  1  0  0  0
 18 19  1  0  0  0
 18 29  1  0  0  0
 18 35  1  0  0  0
 19 32  1  0  0  0
 20 17  1  0  0  0
 20 28  1  0  0  0
 20 36  1  0  0  0
 21 18  1  0  0  0
 21 23  1  0  0  0
 21 24  1  0  0  0
 22 24  1  0  0  0
 23 31  1  0  0  0
 23 41  1  0  0  0
 23 42  1  0  0  0
 25 20  1  0  0  0
 25 26  1  0  0  0
 25 37  1  0  0  0
 26 27  1  0  0  0
 26 38  1  0  0  0
 27 30  1  0  0  0
 27 39  1  0  0  0
 27 44  1  0  0  0
 28 30  1  0  0  0
 29 34  1  0  0  0
 31 34  1  0  0  0
 32 37  1  0  0  0
 38 40  1  0  0  0
 39 43  1  0  0  0
 40 43  1  0  0  0
 40 45  1  0  0  0
 40 46  1  0  0  0
 47 48  1  0  0  0
 48 49  1  0  0  0
 49 51  1  0  0  0
 50 51  1  0  0  0
 50 53  1  0  0  0
 52 54  1  0  0  0
 53 10  1  0  0  0
 54 55  1  0  0  0
 55 57  1  0  0  0
 56 57  1  0  0  0
 56 58  1  0  0  0
 58 15  1  0  0  0
M  END
>  <CHROM.0>
-62.51727483,67.44366915,-67.66185252

>  <CHROM.1>
-166.62744951,-83.31494107,-111.00311368,18.26734110,-163.14953931,75.89324513
62.52718239,-69.18644500,-126.25433892,-56.05696562,102.29803558,112.95674542
-48.41949784,-2.56569812,17.68695660,0.80018591,0.50601930,0.40571078

>  <HEADER>
                                                                          

>  <MASTER>
        0    0    0    0    0    0    0    0  127    0  127    0          

>  <Name>
Diammonium.pdb

>  <RI>
-7.72553e+08

>  <Rbt.Current_Directory>
/root/miniconda3/envs/rdock/share/rxdock-2013.1.1_148c5bd1-0/data/ligands/prepped_ligands/Diammonium

>  <Rbt.Executable>
rbdock/0.1.0

>  <Rbt.Library>
librxdock.so/0.1.0

>  <Rbt.Parameter_File>
/root/miniconda3/envs/rdock/share/rxdock-2013.1.1_148c5bd1-0/data/scripts/dock.prm

>  <Rbt.Receptor>
def.prm

>  <SCORE>
-169.997

>  <SCORE.INTER>
-10.8445

>  <SCORE.INTER.CONST>
1

>  <SCORE.INTER.POLAR>
-0.831247

>  <SCORE.INTER.REPUL>
0.0446889

>  <SCORE.INTER.ROT>
7

>  <SCORE.INTER.VDW>
-20.6418

>  <SCORE.INTER.norm>
-0.186975

>  <SCORE.INTRA>
-158.262

>  <SCORE.INTRA.DIHEDRAL>
-1.8101

>  <SCORE.INTRA.DIHEDRAL.0>
37.64

>  <SCORE.INTRA.POLAR>
0.233383

>  <SCORE.INTRA.POLAR.0>
-0.371885

>  <SCORE.INTRA.REPUL>
-0.241776

>  <SCORE.INTRA.REPUL.0>
0.241776

>  <SCORE.INTRA.VDW>
-156.942

>  <SCORE.INTRA.VDW.0>
400.998

>  <SCORE.INTRA.norm>
-2.72866

>  <SCORE.RESTR>
0.0218923

>  <SCORE.RESTR.CAVITY>
0.0218923

>  <SCORE.RESTR.norm>
0.000377454

>  <SCORE.SYSTEM>
-0.911995

>  <SCORE.SYSTEM.CONST>
0

>  <SCORE.SYSTEM.DIHEDRAL>
0.436641

>  <SCORE.SYSTEM.VDW>
-1.13032

>  <SCORE.SYSTEM.norm>
-0.0157241

>  <SCORE.heavy>
58

>  <SCORE.norm>
-2.93098

>  <TITLE>
    Diammonium Glycyrrhizinate                                            

$$$$
Diammonium.pdb
  RxDock  02242109453D
librxdock.so/0.1.0
 63 69  0  0  0  0  0  0  0  0999 V2000
  -51.3923   -5.4560   16.5074 O   0  0  0  0  0  0
  -51.7663   -1.2996   14.7714 O   0  0  0  0  0  0
  -51.3947   -4.7419   18.0854 O   0  0  0  0  0  0
  -51.0284    3.3877   11.6748 O   0  5  0  0  0  0
  -49.3917    3.8411   12.0122 O   0  0  0  0  0  0
  -52.6727   -6.8564   17.1393 O   0  0  0  0  0  0
  -52.5472   -7.4254   19.2980 O   0  0  0  0  0  0
  -53.4458   -4.8455   20.0302 O   0  0  0  0  0  0
  -53.8097   -5.9682   16.1818 O   0  0  0  0  0  0
  -51.3019   -3.3690   20.0021 O   0  5  0  0  0  0
  -50.1961   -3.9051   18.7816 O   0  0  0  0  0  0
  -53.3320   -8.7559   16.1590 O   0  0  0  0  0  0
  -56.0218   -8.1457   16.7858 O   0  0  0  0  0  0
  -55.6055   -6.9775   14.2437 O   0  0  0  0  0  0
  -54.7908   -4.4084   14.8610 O   0  5  0  0  0  0
  -54.1267   -4.4612   16.4598 O   0  0  0  0  0  0
  -49.3210   -1.9494   13.9935 C   0  0  0  0  0  0
  -50.5072   -2.8525   14.9597 C   0  0  0  0  0  0
  -50.4311   -2.2125   13.9732 C   0  0  0  0  0  0
  -49.0960   -1.1638   13.4086 C   0  0  0  0  0  0
  -50.0678   -3.8722   14.5670 C   0  0  0  0  0  0
  -48.6718   -2.7641   14.0065 C   0  0  0  0  0  0
  -50.1520   -4.5776   15.5276 C   0  0  0  0  0  0
  -48.9389   -3.6266   14.5269 C   0  0  0  0  0  0
  -49.7089   -0.3720   13.3893 C   0  0  0  0  0  0
  -49.2537    0.6849   13.2894 C   0  0  0  0  0  0
  -48.4966    0.5738   12.4511 C   0  0  0  0  0  0
  -48.1394   -1.1049   12.9968 C   0  0  0  0  0  0
  -51.5034   -2.9049   15.3869 C   0  0  0  0  0  0
  -47.8576   -0.2504   12.4732 C   0  0  0  0  0  0
  -51.1055   -4.6143   16.0472 C   0  0  0  0  0  0
  -50.8689   -1.2476   14.3306 C   0  0  0  0  0  0
  -48.0364   -1.8500   14.4859 C   0  0  0  0  0  0
  -51.8050   -3.7918   15.9345 C   0  0  0  0  0  0
  -50.7647   -1.7104   15.6894 C   0  0  0  0  0  0
  -48.6426   -2.0818   12.4849 C   0  0  0  0  0  0
  -50.6051   -0.4235   13.8294 C   0  0  0  0  0  0
  -50.1510    1.3176   12.8183 C   0  0  0  0  0  0
  -48.2224    1.4452   11.8636 C   0  0  0  0  0  0
  -49.8988    2.1995   12.2362 C   0  0  0  0  0  0
  -49.2683   -4.9902   15.3065 C   0  0  0  0  0  0
  -49.9355   -5.4991   15.8504 C   0  0  0  0  0  0
  -48.9087    2.2833   11.7974 C   0  0  0  0  0  0
  -47.2325    0.9981   12.8037 C   0  0  0  0  0  0
  -51.1540    2.2409   11.6656 C   0  0  0  0  0  0
  -50.1022    3.1394   11.9586 C   0  0  0  0  0  0
  -51.7520   -5.4203   17.4402 C   0  0  0  0  0  0
  -52.3922   -6.1205   17.7561 C   0  0  0  0  0  0
  -52.6367   -6.1715   18.7304 C   0  0  0  0  0  0
  -51.6776   -4.7641   19.0456 C   0  0  0  0  0  0
  -52.3947   -5.4061   19.3350 C   0  0  0  0  0  0
  -53.5529   -6.8070   16.6645 C   0  0  0  0  0  0
  -50.6289   -4.6106   19.9283 C   0  0  0  0  0  0
  -54.0782   -7.6490   16.5062 C   0  0  0  0  0  0
  -54.9826   -7.5852   16.0727 C   0  0  0  0  0  0
  -54.6896   -5.9178   15.7068 C   0  0  0  0  0  0
  -55.2149   -6.7598   15.5486 C   0  0  0  0  0  0
  -55.4357   -4.8100   16.0538 C   0  0  0  0  0  0
  -52.9905   -6.6164   20.0277 H   0  0  0  0  0  0
  -53.2820   -4.3641   18.9692 H   0  0  0  0  0  0
  -53.7130   -8.7836   17.2719 H   0  0  0  0  0  0
  -55.9396   -8.5555   15.6859 H   0  0  0  0  0  0
  -56.5008   -6.7076   14.9572 H   0  0  0  0  0  0
  1 31  1  0  0  0
  1 47  1  0  0  0
  2 32  2  0  0  0
  3 47  1  0  0  0
  3 50  1  0  0  0
  4 46  2  0  0  0
  5 46  1  0  0  0
  6 48  1  0  0  0
  6 52  1  0  0  0
  7 49  1  0  0  0
  7 59  1  0  0  0
  8 51  1  0  0  0
  8 60  1  0  0  0
  9 52  1  0  0  0
  9 56  1  0  0  0
 11 53  1  0  0  0
 12 54  1  0  0  0
 12 61  1  0  0  0
 13 55  1  0  0  0
 13 62  1  0  0  0
 14 57  1  0  0  0
 14 63  1  0  0  0
 16 58  1  0  0  0
 17 19  1  0  0  0
 17 22  1  0  0  0
 17 33  1  0  0  0
 18 19  1  0  0  0
 18 29  1  0  0  0
 18 35  1  0  0  0
 19 32  1  0  0  0
 20 17  1  0  0  0
 20 28  1  0  0  0
 20 36  1  0  0  0
 21 18  1  0  0  0
 21 23  1  0  0  0
 21 24  1  0  0  0
 22 24  1  0  0  0
 23 31  1  0  0  0
 23 41  1  0  0  0
 23 42  1  0  0  0
 25 20  1  0  0  0
 25 26  1  0  0  0
 25 37  1  0  0  0
 26 27  1  0  0  0
 26 38  1  0  0  0
 27 30  1  0  0  0
 27 39  1  0  0  0
 27 44  1  0  0  0
 28 30  1  0  0  0
 29 34  1  0  0  0
 31 34  1  0  0  0
 32 37  1  0  0  0
 38 40  1  0  0  0
 39 43  1  0  0  0
 40 43  1  0  0  0
 40 45  1  0  0  0
 40 46  1  0  0  0
 47 48  1  0  0  0
 48 49  1  0  0  0
 49 51  1  0  0  0
 50 51  1  0  0  0
 50 53  1  0  0  0
 52 54  1  0  0  0
 53 10  1  0  0  0
 54 55  1  0  0  0
 55 57  1  0  0  0
 56 57  1  0  0  0
 56 58  1  0  0  0
 58 15  1  0  0  0
M  END
>  <CHROM.0>
160.14648430,-112.54983130,-42.64018261

>  <CHROM.1>
132.85243555,-33.77979314,-99.78236526,48.66069101,-174.96210308,-88.06183093
104.60722787,-125.96981253,105.18628940,-47.77213905,106.68586741,96.75114049
-51.28927270,-3.18042458,15.32755812,-2.06999213,-0.47693949,-0.80923560

>  <HEADER>
                                                                          

>  <MASTER>
        0    0    0    0    0    0    0    0  127    0  127    0          

>  <Name>
Diammonium.pdb

>  <RI>
-7.72553e+08

>  <Rbt.Current_Directory>
/root/miniconda3/envs/rdock/share/rxdock-2013.1.1_148c5bd1-0/data/ligands/prepped_ligands/Diammonium

>  <Rbt.Executable>
rbdock/0.1.0

>  <Rbt.Library>
librxdock.so/0.1.0

>  <Rbt.Parameter_File>
/root/miniconda3/envs/rdock/share/rxdock-2013.1.1_148c5bd1-0/data/scripts/dock.prm

>  <Rbt.Receptor>
def.prm

>  <SCORE>
-99.3796

>  <SCORE.INTER>
45.2618

>  <SCORE.INTER.CONST>
1

>  <SCORE.INTER.POLAR>
0

>  <SCORE.INTER.REPUL>
1.46864

>  <SCORE.INTER.ROT>
7

>  <SCORE.INTER.VDW>
25.5186

>  <SCORE.INTER.norm>
0.780375

>  <SCORE.INTRA>
-148.376

>  <SCORE.INTRA.DIHEDRAL>
3.95836

>  <SCORE.INTRA.DIHEDRAL.0>
37.64

>  <SCORE.INTRA.POLAR>
0.371885

>  <SCORE.INTRA.POLAR.0>
-0.371885

>  <SCORE.INTRA.REPUL>
-0.22683

>  <SCORE.INTRA.REPUL.0>
0.241776

>  <SCORE.INTRA.VDW>
-150.485

>  <SCORE.INTRA.VDW.0>
400.998

>  <SCORE.INTRA.norm>
-2.5582

>  <SCORE.RESTR>
0.397814

>  <SCORE.RESTR.CAVITY>
0.397814

>  <SCORE.RESTR.norm>
0.00685887

>  <SCORE.SYSTEM>
3.33654

>  <SCORE.SYSTEM.CONST>
0

>  <SCORE.SYSTEM.DIHEDRAL>
8.51139

>  <SCORE.SYSTEM.POLAR>
-0.0200294

>  <SCORE.SYSTEM.VDW>
-0.851055

>  <SCORE.SYSTEM.norm>
0.0575266

>  <SCORE.heavy>
58

>  <SCORE.norm>
-1.71344

>  <TITLE>
    Diammonium Glycyrrhizinate                                            

$$$$
Diammonium.pdb
  RxDock  02242109453D
librxdock.so/0.1.0
 63 69  0  0  0  0  0  0  0  0999 V2000
  -47.6413    0.4038   18.2801 O   0  0  0  0  0  0
  -48.9896   -3.8797   18.7935 O   0  0  0  0  0  0
  -46.7443    0.4426   19.7612 O   0  0  0  0  0  0
  -52.7915   -8.8284   17.3329 O   0  5  0  0  0  0
  -51.7658   -8.6893   18.7210 O   0  0  0  0  0  0
  -45.9344    0.2424   17.2504 O   0  0  0  0  0  0
  -44.1264    1.1971   18.1558 O   0  0  0  0  0  0
  -44.1977   -0.6764   20.2735 O   0  0  0  0  0  0
  -45.7247   -1.4764   17.2412 O   0  0  0  0  0  0
  -45.9142    0.3077   21.9655 O   0  5  0  0  0  0
  -47.1699    1.1716   21.1427 O   0  0  0  0  0  0
  -46.7464    0.1540   15.1681 O   0  0  0  0  0  0
  -44.4710   -1.3094   14.3429 O   0  0  0  0  0  0
  -46.3271   -3.2846   15.1513 O   0  0  0  0  0  0
  -45.6872   -3.8553   17.5359 O   0  5  0  0  0  0
  -45.1611   -2.4695   18.4319 O   0  0  0  0  0  0
  -50.8250   -2.9744   17.1146 C   0  0  0  0  0  0
  -49.4481   -2.1519   17.8787 C   0  0  0  0  0  0
  -49.7150   -3.1500   17.3120 C   0  0  0  0  0  0
  -51.3227   -3.8224   16.9068 C   0  0  0  0  0  0
  -49.3596   -1.4213   16.9592 C   0  0  0  0  0  0
  -51.0482   -2.1174   16.5658 C   0  0  0  0  0  0
  -49.0545   -0.3888   17.4771 C   0  0  0  0  0  0
  -50.4736   -1.2580   16.6974 C   0  0  0  0  0  0
  -51.1213   -4.6528   17.4291 C   0  0  0  0  0  0
  -51.9848   -5.3769   17.6825 C   0  0  0  0  0  0
  -52.5427   -5.4849   16.6999 C   0  0  0  0  0  0
  -52.1694   -3.7692   16.2998 C   0  0  0  0  0  0
  -48.5702   -2.2152   18.5134 C   0  0  0  0  0  0
  -52.7534   -4.6191   16.1575 C   0  0  0  0  0  0
  -48.2294   -0.4009   18.1839 C   0  0  0  0  0  0
  -49.7779   -3.8562   18.1768 C   0  0  0  0  0  0
  -52.0586   -2.3619   17.1890 C   0  0  0  0  0  0
  -47.9563   -1.3337   18.6673 C   0  0  0  0  0  0
  -49.7815   -2.7376   19.0824 C   0  0  0  0  0  0
  -51.2468   -3.4491   15.5814 C   0  0  0  0  0  0
  -50.3342   -4.6766   18.0450 C   0  0  0  0  0  0
  -51.4214   -6.4188   17.8382 C   0  0  0  0  0  0
  -53.1219   -6.3847   16.5136 C   0  0  0  0  0  0
  -51.9859   -7.3312   17.6678 C   0  0  0  0  0  0
  -49.6447    0.1087   16.8413 C   0  0  0  0  0  0
  -48.8699    0.5722   17.2710 C   0  0  0  0  0  0
  -52.8713   -7.3005   17.0392 C   0  0  0  0  0  0
  -53.8891   -5.2066   16.8084 C   0  0  0  0  0  0
  -50.8340   -8.0851   17.5817 C   0  0  0  0  0  0
  -52.1942   -8.2781   17.9163 C   0  0  0  0  0  0
  -46.7695    0.3330   18.7654 C   0  0  0  0  0  0
  -45.9160    0.2523   18.2506 C   0  0  0  0  0  0
  -45.0344    0.3311   18.7285 C   0  0  0  0  0  0
  -45.8661    0.4715   20.2413 C   0  0  0  0  0  0
  -45.0184    0.2912   19.7325 C   0  0  0  0  0  0
  -45.7359   -0.6029   16.7519 C   0  0  0  0  0  0
  -45.7898    1.4780   21.1813 C   0  0  0  0  0  0
  -45.7465   -0.5993   15.7470 C   0  0  0  0  0  0
  -45.4986   -1.4392   15.2538 C   0  0  0  0  0  0
  -45.5263   -2.3222   16.7435 C   0  0  0  0  0  0
  -45.5368   -2.3186   15.7386 C   0  0  0  0  0  0
  -44.5264   -3.0761   17.3232 C   0  0  0  0  0  0
  -43.9576    0.0754   17.8448 H   0  0  0  0  0  0
  -45.3163   -0.7660   20.6272 H   0  0  0  0  0  0
  -45.6737    0.6141   15.0195 H   0  0  0  0  0  0
  -45.1671   -2.2336   14.1286 H   0  0  0  0  0  0
  -45.3118   -3.1081   14.5845 H   0  0  0  0  0  0
  1 31  1  0  0  0
  1 47  1  0  0  0
  2 32  2  0  0  0
  3 47  1  0  0  0
  3 50  1  0  0  0
  4 46  2  0  0  0
  5 46  1  0  0  0
  6 48  1  0  0  0
  6 52  1  0  0  0
  7 49  1  0  0  0
  7 59  1  0  0  0
  8 51  1  0  0  0
  8 60  1  0  0  0
  9 52  1  0  0  0
  9 56  1  0  0  0
 11 53  1  0  0  0
 12 54  1  0  0  0
 12 61  1  0  0  0
 13 55  1  0  0  0
 13 62  1  0  0  0
 14 57  1  0  0  0
 14 63  1  0  0  0
 16 58  1  0  0  0
 17 19  1  0  0  0
 17 22  1  0  0  0
 17 33  1  0  0  0
 18 19  1  0  0  0
 18 29  1  0  0  0
 18 35  1  0  0  0
 19 32  1  0  0  0
 20 17  1  0  0  0
 20 28  1  0  0  0
 20 36  1  0  0  0
 21 18  1  0  0  0
 21 23  1  0  0  0
 21 24  1  0  0  0
 22 24  1  0  0  0
 23 31  1  0  0  0
 23 41  1  0  0  0
 23 42  1  0  0  0
 25 20  1  0  0  0
 25 26  1  0  0  0
 25 37  1  0  0  0
 26 27  1  0  0  0
 26 38  1  0  0  0
 27 30  1  0  0  0
 27 39  1  0  0  0
 27 44  1  0  0  0
 28 30  1  0  0  0
 29 34  1  0  0  0
 31 34  1  0  0  0
 32 37  1  0  0  0
 38 40  1  0  0  0
 39 43  1  0  0  0
 40 43  1  0  0  0
 40 45  1  0  0  0
 40 46  1  0  0  0
 47 48  1  0  0  0
 48 49  1  0  0  0
 49 51  1  0  0  0
 50 51  1  0  0  0
 50 53  1  0  0  0
 52 54  1  0  0  0
 53 10  1  0  0  0
 54 55  1  0  0  0
 55 57  1  0  0  0
 56 57  1  0  0  0
 56 58  1  0  0  0
 58 15  1  0  0  0
M  END
>  <CHROM.0>
-37.34740976,64.98046519,-62.83832371

>  <CHROM.1>
-166.16695666,-86.12010636,-108.88986324,13.86686148,-96.54909809,-123.44164729
110.25670263,-157.91171361,74.10652953,-172.00803295,106.67352621,110.94824733
-48.55787038,-2.51912226,17.66358562,0.63994219,0.45756039,0.71729287

>  <HEADER>
                                                                          

>  <MASTER>
        0    0    0    0    0    0    0    0  127    0  127    0          

>  <Name>
Diammonium.pdb

>  <RI>
-7.72553e+08

>  <Rbt.Current_Directory>
/root/miniconda3/envs/rdock/share/rxdock-2013.1.1_148c5bd1-0/data/ligands/prepped_ligands/Diammonium

>  <Rbt.Executable>
rbdock/0.1.0

>  <Rbt.Library>
librxdock.so/0.1.0

>  <Rbt.Parameter_File>
/root/miniconda3/envs/rdock/share/rxdock-2013.1.1_148c5bd1-0/data/scripts/dock.prm

>  <Rbt.Receptor>
def.prm

>  <SCORE>
-167.451

>  <SCORE.INTER>
-17.2085

>  <SCORE.INTER.CONST>
1

>  <SCORE.INTER.POLAR>
-0.802751

>  <SCORE.INTER.REPUL>
0.179872

>  <SCORE.INTER.ROT>
7

>  <SCORE.INTER.VDW>
-27.7785

>  <SCORE.INTER.norm>
-0.296699

>  <SCORE.INTRA>
-149.955

>  <SCORE.INTRA.DIHEDRAL>
3.78184

>  <SCORE.INTRA.DIHEDRAL.0>
37.64

>  <SCORE.INTRA.POLAR>
0.33267

>  <SCORE.INTRA.POLAR.0>
-0.371885

>  <SCORE.INTRA.REPUL>
-0.195345

>  <SCORE.INTRA.REPUL.0>
0.241776

>  <SCORE.INTRA.VDW>
-152

>  <SCORE.INTRA.VDW.0>
400.998

>  <SCORE.INTRA.norm>
-2.58543

>  <SCORE.RESTR>
0

>  <SCORE.RESTR.CAVITY>
0

>  <SCORE.RESTR.norm>
0

>  <SCORE.SYSTEM>
-0.287477

>  <SCORE.SYSTEM.CONST>
0

>  <SCORE.SYSTEM.DIHEDRAL>
1.2554

>  <SCORE.SYSTEM.VDW>
-0.915177

>  <SCORE.SYSTEM.norm>
-0.0049565

>  <SCORE.heavy>
58

>  <SCORE.norm>
-2.88708

>  <TITLE>
    Diammonium Glycyrrhizinate                                            

$$$$
Diammonium.pdb
  RxDock  02242109453D
librxdock.so/0.1.0
 63 69  0  0  0  0  0  0  0  0999 V2000
  -51.9108   -3.7380   18.3856 O   0  0  0  0  0  0
  -47.9314   -1.7530   17.5775 O   0  0  0  0  0  0
  -52.0495   -3.8811   16.6651 O   0  0  0  0  0  0
  -42.9490    0.8675   18.1468 O   0  5  0  0  0  0
  -43.3415    2.3450   18.9602 O   0  0  0  0  0  0
  -51.9846   -5.7292   18.5572 O   0  0  0  0  0  0
  -53.1562   -6.8245   16.9992 O   0  0  0  0  0  0
  -51.2658   -6.0590   15.0396 O   0  0  0  0  0  0
  -50.3079   -6.1449   18.6768 O   0  0  0  0  0  0
  -51.9983   -3.6457   14.3276 O   0  5  0  0  0  0
  -52.7182   -2.8098   15.6628 O   0  0  0  0  0  0
  -52.4207   -6.9704   20.3662 O   0  0  0  0  0  0
  -51.0915   -9.1670   19.1797 O   0  0  0  0  0  0
  -49.0661   -7.8006   20.6046 O   0  0  0  0  0  0
  -47.9053   -6.4104   18.9216 O   0  5  0  0  0  0
  -48.9718   -5.6449   17.7918 O   0  0  0  0  0  0
  -48.4535   -0.8559   20.0126 C   0  0  0  0  0  0
  -49.3943   -1.9177   18.9431 C   0  0  0  0  0  0
  -48.2965   -1.7670   19.3438 C   0  0  0  0  0  0
  -47.5968   -0.3739   20.2218 C   0  0  0  0  0  0
  -49.8727   -2.4532   19.8766 C   0  0  0  0  0  0
  -49.1556   -0.9787   20.7725 C   0  0  0  0  0  0
  -50.9906   -2.6622   19.5108 C   0  0  0  0  0  0
  -50.0020   -1.5621   20.6015 C   0  0  0  0  0  0
  -46.9147   -0.2451   19.5000 C   0  0  0  0  0  0
  -46.3034    0.7347   19.4771 C   0  0  0  0  0  0
  -45.9746    0.8720   20.5548 C   0  0  0  0  0  0
  -47.5260    0.1528   21.1194 C   0  0  0  0  0  0
  -49.4612   -2.4607   18.0059 C   0  0  0  0  0  0
  -46.6864    0.7393   21.3057 C   0  0  0  0  0  0
  -51.1266   -3.1355   18.5423 C   0  0  0  0  0  0
  -47.8275   -1.2795   18.4534 C   0  0  0  0  0  0
  -49.1047    0.2175   20.5837 C   0  0  0  0  0  0
  -50.3333   -3.0740   17.8037 C   0  0  0  0  0  0
  -49.1342   -1.0667   17.8890 C   0  0  0  0  0  0
  -47.6295   -1.0105   21.4447 C   0  0  0  0  0  0
  -47.0181   -0.7178   18.6252 C   0  0  0  0  0  0
  -45.3145    0.4175   18.8866 C   0  0  0  0  0  0
  -45.0757    1.4435   20.7675 C   0  0  0  0  0  0
  -44.4068    0.9834   19.0766 C   0  0  0  0  0  0
  -51.3348   -2.4382   20.4226 C   0  0  0  0  0  0
  -51.8648   -3.0358   19.8211 C   0  0  0  0  0  0
  -44.3100    1.5398   20.0045 C   0  0  0  0  0  0
  -46.3141    2.1050   21.0713 C   0  0  0  0  0  0
  -43.6184   -0.0018   18.5194 C   0  0  0  0  0  0
  -43.5574    1.3933   18.7413 C   0  0  0  0  0  0
  -51.9487   -4.3094   17.5654 C   0  0  0  0  0  0
  -51.9856   -5.3051   17.6512 C   0  0  0  0  0  0
  -52.1730   -5.8702   16.8405 C   0  0  0  0  0  0
  -52.1871   -4.4483   15.8516 C   0  0  0  0  0  0
  -52.1243   -5.4483   15.9297 C   0  0  0  0  0  0
  -51.2711   -6.3869   18.8041 C   0  0  0  0  0  0
  -53.1843   -3.9808   15.0213 C   0  0  0  0  0  0
  -51.5097   -7.1929   19.3548 C   0  0  0  0  0  0
  -50.7981   -7.8732   19.5572 C   0  0  0  0  0  0
  -49.5938   -6.8020   18.9233 C   0  0  0  0  0  0
  -49.8324   -7.6080   19.4740 C   0  0  0  0  0  0
  -48.6820   -7.0239   17.9115 C   0  0  0  0  0  0
  -52.2023   -7.2291   16.4426 H   0  0  0  0  0  0
  -52.4000   -6.2743   14.8123 H   0  0  0  0  0  0
  -52.2086   -8.1119   20.1757 H   0  0  0  0  0  0
  -50.2012   -9.0978   19.9459 H   0  0  0  0  0  0
  -48.9868   -6.7103   20.1704 H   0  0  0  0  0  0
  1 31  1  0  0  0
  1 47  1  0  0  0
  2 32  2  0  0  0
  3 47  1  0  0  0
  3 50  1  0  0  0
  4 46  2  0  0  0
  5 46  1  0  0  0
  6 48  1  0  0  0
  6 52  1  0  0  0
  7 49  1  0  0  0
  7 59  1  0  0  0
  8 51  1  0  0  0
  8 60  1  0  0  0
  9 52  1  0  0  0
  9 56  1  0  0  0
 11 53  1  0  0  0
 12 54  1  0  0  0
 12 61  1  0  0  0
 13 55  1  0  0  0
 13 62  1  0  0  0
 14 57  1  0  0  0
 14 63  1  0  0  0
 16 58  1  0  0  0
 17 19  1  0  0  0
 17 22  1  0  0  0
 17 33  1  0  0  0
 18 19  1  0  0  0
 18 29  1  0  0  0
 18 35  1  0  0  0
 19 32  1  0  0  0
 20 17  1  0  0  0
 20 28  1  0  0  0
 20 36  1  0  0  0
 21 18  1  0  0  0
 21 23  1  0  0  0
 21 24  1  0  0  0
 22 24  1  0  0  0
 23 31  1  0  0  0
 23 41  1  0  0  0
 23 42  1  0  0  0
 25 20  1  0  0  0
 25 26  1  0  0  0
 25 37  1  0  0  0
 26 27  1  0  0  0
 26 38  1  0  0  0
 27 30  1  0  0  0
 27 39  1  0  0  0
 27 44  1  0  0  0
 28 30  1  0  0  0
 29 34  1  0  0  0
 31 34  1  0  0  0
 32 37  1  0  0  0
 38 40  1  0  0  0
 39 43  1  0  0  0
 40 43  1  0  0  0
 40 45  1  0  0  0
 40 46  1  0  0  0
 47 48  1  0  0  0
 48 49  1  0  0  0
 49 51  1  0  0  0
 50 51  1  0  0  0
 50 53  1  0  0  0
 52 54  1  0  0  0
 53 10  1  0  0  0
 54 55  1  0  0  0
 55 57  1  0  0  0
 56 57  1  0  0  0
 56 58  1  0  0  0
 58 15  1  0  0  0
M  END
>  <CHROM.0>
56.77467042,-60.18481286,58.84729778

>  <CHROM.1>
-168.30224648,-67.55363223,-122.07754517,51.68028361,-135.56213540,105.42348931
169.42735380,-163.60377076,-127.84800002,-46.29952488,105.62290816,114.77227095
-49.16650291,-2.94851446,18.74102665,2.53711519,0.66724285,2.67877295

>  <HEADER>
                                                                          

>  <MASTER>
        0    0    0    0    0    0    0    0  127    0  127    0          

>  <Name>
Diammonium.pdb

>  <RI>
-7.72553e+08

>  <Rbt.Current_Directory>
/root/miniconda3/envs/rdock/share/rxdock-2013.1.1_148c5bd1-0/data/ligands/prepped_ligands/Diammonium

>  <Rbt.Executable>
rbdock/0.1.0

>  <Rbt.Library>
librxdock.so/0.1.0

>  <Rbt.Parameter_File>
/root/miniconda3/envs/rdock/share/rxdock-2013.1.1_148c5bd1-0/data/scripts/dock.prm

>  <Rbt.Receptor>
def.prm

>  <SCORE>
-174.285

>  <SCORE.INTER>
-13.3073

>  <SCORE.INTER.CONST>
1

>  <SCORE.INTER.POLAR>
-1.11998

>  <SCORE.INTER.REPUL>
0.0252189

>  <SCORE.INTER.ROT>
7

>  <SCORE.INTER.VDW>
-22.0254

>  <SCORE.INTER.norm>
-0.229436

>  <SCORE.INTRA>
-159.953

>  <SCORE.INTRA.DIHEDRAL>
4.95569

>  <SCORE.INTRA.DIHEDRAL.0>
37.64

>  <SCORE.INTRA.POLAR>
0.223664

>  <SCORE.INTRA.POLAR.0>
-0.371885

>  <SCORE.INTRA.REPUL>
-0.241776

>  <SCORE.INTRA.REPUL.0>
0.241776

>  <SCORE.INTRA.VDW>
-161.983

>  <SCORE.INTRA.VDW.0>
400.998

>  <SCORE.INTRA.norm>
-2.75781

>  <SCORE.RESTR>
0.00500187

>  <SCORE.RESTR.CAVITY>
0.00500187

>  <SCORE.RESTR.norm>
8.62392e-05

>  <SCORE.SYSTEM>
-1.0295

>  <SCORE.SYSTEM.CONST>
0

>  <SCORE.SYSTEM.DIHEDRAL>
0.0325647

>  <SCORE.SYSTEM.VDW>
-1.04578

>  <SCORE.SYSTEM.norm>
-0.0177499

>  <SCORE.heavy>
58

>  <SCORE.norm>
-3.00491

>  <TITLE>
    Diammonium Glycyrrhizinate                                            

$$$$
Diammonium.pdb
  RxDock  02242109453D
librxdock.so/0.1.0
 63 69  0  0  0  0  0  0  0  0999 V2000
  -51.7559   -3.9429   18.3579 O   0  0  0  0  0  0
  -47.7874   -1.9342   17.5546 O   0  0  0  0  0  0
  -52.0776   -4.0875   16.6622 O   0  0  0  0  0  0
  -43.4182    2.4858   18.6905 O   0  5  0  0  0  0
  -42.9117    0.9208   18.1495 O   0  0  0  0  0  0
  -51.4987   -5.9227   18.4779 O   0  0  0  0  0  0
  -52.6659   -7.1719   17.0368 O   0  0  0  0  0  0
  -51.1679   -6.0971   14.8919 O   0  0  0  0  0  0
  -49.7961   -6.2334   18.5308 O   0  0  0  0  0  0
  -52.3456   -3.8335   14.3364 O   0  5  0  0  0  0
  -53.0131   -3.1209   15.7670 O   0  0  0  0  0  0
  -51.8441   -7.5670   19.9545 O   0  0  0  0  0  0
  -50.3550   -9.3393   18.3293 O   0  0  0  0  0  0
  -48.4376   -8.1870   20.0599 O   0  0  0  0  0  0
  -47.4073   -6.2904   18.7345 O   0  5  0  0  0  0
  -48.5648   -5.4663   17.7440 O   0  0  0  0  0  0
  -48.5134   -0.7305   19.7976 C   0  0  0  0  0  0
  -49.3414   -1.9659   18.8258 C   0  0  0  0  0  0
  -48.2810   -1.7184   19.2760 C   0  0  0  0  0  0
  -47.6889   -0.1910   19.9955 C   0  0  0  0  0  0
  -49.8714   -2.3857   19.7902 C   0  0  0  0  0  0
  -49.2656   -0.7746   20.5171 C   0  0  0  0  0  0
  -50.9528   -2.6869   19.3813 C   0  0  0  0  0  0
  -50.0798   -1.4087   20.3720 C   0  0  0  0  0  0
  -46.9595   -0.1365   19.3114 C   0  0  0  0  0  0
  -46.3771    0.8539   19.1931 C   0  0  0  0  0  0
  -46.1326    1.1516   20.2608 C   0  0  0  0  0  0
  -47.6997    0.4570   20.8128 C   0  0  0  0  0  0
  -49.3233   -2.6354   17.9720 C   0  0  0  0  0  0
  -46.8936    1.0961   20.9721 C   0  0  0  0  0  0
  -51.0032   -3.2944   18.4820 C   0  0  0  0  0  0
  -47.7621   -1.3406   18.3603 C   0  0  0  0  0  0
  -49.2359    0.3852   20.1660 C   0  0  0  0  0  0
  -50.1598   -3.3044   17.7985 C   0  0  0  0  0  0
  -49.0294   -1.2591   17.6830 C   0  0  0  0  0  0
  -47.7929   -0.6533   21.2905 C   0  0  0  0  0  0
  -46.9844   -0.7292   18.5067 C   0  0  0  0  0  0
  -45.3385    0.4972   18.7225 C   0  0  0  0  0  0
  -45.2689    1.7817   20.4524 C   0  0  0  0  0  0
  -44.4642    1.1191   18.8930 C   0  0  0  0  0  0
  -51.3696   -2.3526   20.2267 C   0  0  0  0  0  0
  -51.8362   -3.0480   19.6802 C   0  0  0  0  0  0
  -44.4522    1.8017   19.7379 C   0  0  0  0  0  0
  -46.5450    2.4298   20.5742 C   0  0  0  0  0  0
  -43.6084    0.0980   18.5356 C   0  0  0  0  0  0
  -43.6048    1.5117   18.5627 C   0  0  0  0  0  0
  -51.8035   -4.5043   17.5313 C   0  0  0  0  0  0
  -51.6749   -5.4942   17.5913 C   0  0  0  0  0  0
  -51.8691   -6.0730   16.7919 C   0  0  0  0  0  0
  -52.2228   -4.6605   15.8541 C   0  0  0  0  0  0
  -51.9968   -5.6389   15.8946 C   0  0  0  0  0  0
  -50.7389   -6.5662   18.5836 C   0  0  0  0  0  0
  -53.3734   -4.3468   15.1611 C   0  0  0  0  0  0
  -50.9180   -7.4904   18.9352 C   0  0  0  0  0  0
  -50.1584   -8.1460   18.9924 C   0  0  0  0  0  0
  -49.0356   -6.8762   18.6363 C   0  0  0  0  0  0
  -49.2147   -7.8004   18.9880 C   0  0  0  0  0  0
  -48.1089   -6.7989   17.6169 C   0  0  0  0  0  0
  -52.0179   -7.2769   16.0608 H   0  0  0  0  0  0
  -52.0132   -6.8627   15.1812 H   0  0  0  0  0  0
  -52.3135   -7.2469   18.9242 H   0  0  0  0  0  0
  -50.4118   -9.4442   19.4998 H   0  0  0  0  0  0
  -48.1547   -8.7370   19.0595 H   0  0  0  0  0  0
  1 31  1  0  0  0
  1 47  1  0  0  0
  2 32  2  0  0  0
  3 47  1  0  0  0
  3 50  1  0  0  0
  4 46  2  0  0  0
  5 46  1  0  0  0
  6 48  1  0  0  0
  6 52  1  0  0  0
  7 49  1  0  0  0
  7 59  1  0  0  0
  8 51  1  0  0  0
  8 60  1  0  0  0
  9 52  1  0  0  0
  9 56  1  0  0  0
 11 53  1  0  0  0
 12 54  1  0  0  0
 12 61  1  0  0  0
 13 55  1  0  0  0
 13 62  1  0  0  0
 14 57  1  0  0  0
 14 63  1  0  0  0
 16 58  1  0  0  0
 17 19  1  0  0  0
 17 22  1  0  0  0
 17 33  1  0  0  0
 18 19  1  0  0  0
 18 29  1  0  0  0
 18 35  1  0  0  0
 19 32  1  0  0  0
 20 17  1  0  0  0
 20 28  1  0  0  0
 20 36  1  0  0  0
 21 18  1  0  0  0
 21 23  1  0  0  0
 21 24  1  0  0  0
 22 24  1  0  0  0
 23 31  1  0  0  0
 23 41  1  0  0  0
 23 42  1  0  0  0
 25 20  1  0  0  0
 25 26  1  0  0  0
 25 37  1  0  0  0
 26 27  1  0  0  0
 26 38  1  0  0  0
 27 30  1  0  0  0
 27 39  1  0  0  0
 27 44  1  0  0  0
 28 30  1  0  0  0
 29 34  1  0  0  0
 31 34  1  0  0  0
 32 37  1  0  0  0
 38 40  1  0  0  0
 39 43  1  0  0  0
 40 43  1  0  0  0
 40 45  1  0  0  0
 40 46  1  0  0  0
 47 48  1  0  0  0
 48 49  1  0  0  0
 49 51  1  0  0  0
 50 51  1  0  0  0
 50 53  1  0  0  0
 52 54  1  0  0  0
 53 10  1  0  0  0
 54 55  1  0  0  0
 55 57  1  0  0  0
 56 57  1  0  0  0
 56 58  1  0  0  0
 58 15  1  0  0  0
M  END
>  <CHROM.0>
-177.95550866,-55.35193748,56.58266401

>  <CHROM.1>
-179.90428183,-74.12894703,-130.76293080,68.75394751,-158.74637963,73.18803986
67.60668450,-107.35242987,106.67459003,132.68159297,106.18626021,111.02624278
-49.04207101,-2.98185973,18.55546447,2.26530037,0.36196077,3.11243014

>  <HEADER>
                                                                          

>  <MASTER>
        0    0    0    0    0    0    0    0  127    0  127    0          

>  <Name>
Diammonium.pdb

>  <RI>
-7.72553e+08

>  <Rbt.Current_Directory>
/root/miniconda3/envs/rdock/share/rxdock-2013.1.1_148c5bd1-0/data/ligands/prepped_ligands/Diammonium

>  <Rbt.Executable>
rbdock/0.1.0

>  <Rbt.Library>
librxdock.so/0.1.0

>  <Rbt.Parameter_File>
/root/miniconda3/envs/rdock/share/rxdock-2013.1.1_148c5bd1-0/data/scripts/dock.prm

>  <Rbt.Receptor>
def.prm

>  <SCORE>
-183.32

>  <SCORE.INTER>
-15.6937

>  <SCORE.INTER.CONST>
1

>  <SCORE.INTER.POLAR>
-1.48024

>  <SCORE.INTER.REPUL>
0

>  <SCORE.INTER.ROT>
7

>  <SCORE.INTER.VDW>
-23.0608

>  <SCORE.INTER.norm>
-0.270581

>  <SCORE.INTRA>
-166.685

>  <SCORE.INTRA.DIHEDRAL>
1.87108

>  <SCORE.INTRA.DIHEDRAL.0>
37.64

>  <SCORE.INTRA.POLAR>
-0.625768

>  <SCORE.INTRA.POLAR.0>
-0.371885

>  <SCORE.INTRA.REPUL>
-0.159364

>  <SCORE.INTRA.REPUL.0>
0.241776

>  <SCORE.INTRA.VDW>
-164.696

>  <SCORE.INTRA.VDW.0>
400.998

>  <SCORE.INTRA.norm>
-2.87388

>  <SCORE.RESTR>
0

>  <SCORE.RESTR.CAVITY>
0

>  <SCORE.RESTR.norm>
0

>  <SCORE.SYSTEM>
-0.941104

>  <SCORE.SYSTEM.CONST>
0

>  <SCORE.SYSTEM.DIHEDRAL>
0.146593

>  <SCORE.SYSTEM.VDW>
-1.0144

>  <SCORE.SYSTEM.norm>
-0.0162259

>  <SCORE.heavy>
58

>  <SCORE.norm>
-3.16068

>  <TITLE>
    Diammonium Glycyrrhizinate                                            

$$$$
Diammonium.pdb
  RxDock  02242109463D
librxdock.so/0.1.0
 63 69  0  0  0  0  0  0  0  0999 V2000
  -47.9807    0.0523   17.4447 O   0  0  0  0  0  0
  -49.0845   -3.6641   19.7682 O   0  0  0  0  0  0
  -49.1458    1.1087   18.1701 O   0  0  0  0  0  0
  -50.4959   -9.0080   21.1526 O   0  5  0  0  0  0
  -52.0770   -9.1292   20.4570 O   0  0  0  0  0  0
  -46.5009    1.1563   18.2136 O   0  0  0  0  0  0
  -46.9227    3.3333   18.5009 O   0  0  0  0  0  0
  -48.8344    2.7006   20.4872 O   0  0  0  0  0  0
  -46.1326    0.3235   19.6864 O   0  0  0  0  0  0
  -51.0272    2.1097   19.1183 O   0  5  0  0  0  0
  -50.5963    1.4399   17.5802 O   0  0  0  0  0  0
  -44.3576    1.0038   17.5920 O   0  0  0  0  0  0
  -43.5610    2.1248   20.0637 O   0  0  0  0  0  0
  -43.6224   -0.6628   20.5385 O   0  0  0  0  0  0
  -45.9879   -1.1057   21.5530 O   0  5  0  0  0  0
  -47.1547   -0.0078   20.8948 O   0  0  0  0  0  0
  -49.9841   -4.2934   17.3596 C   0  0  0  0  0  0
  -49.1910   -2.8176   17.9505 C   0  0  0  0  0  0
  -49.0856   -3.9904   17.9943 C   0  0  0  0  0  0
  -50.2611   -5.2482   17.5071 C   0  0  0  0  0  0
  -48.7382   -2.6192   16.8815 C   0  0  0  0  0  0
  -49.9887   -3.9168   16.3882 C   0  0  0  0  0  0
  -48.7898   -1.4287   16.7951 C   0  0  0  0  0  0
  -49.6092   -2.9639   16.2041 C   0  0  0  0  0  0
  -50.2652   -5.6224   18.4360 C   0  0  0  0  0  0
  -51.0895   -6.3756   18.7314 C   0  0  0  0  0  0
  -51.1130   -7.1039   17.8611 C   0  0  0  0  0  0
  -50.7269   -5.7598   16.7265 C   0  0  0  0  0  0
  -48.7098   -2.2912   18.7684 C   0  0  0  0  0  0
  -51.1104   -6.7130   16.8941 C   0  0  0  0  0  0
  -48.3928   -0.8433   17.6198 C   0  0  0  0  0  0
  -49.4920   -4.1862   19.0175 C   0  0  0  0  0  0
  -51.1515   -4.1488   16.6395 C   0  0  0  0  0  0
  -48.3079   -1.2971   18.6023 C   0  0  0  0  0  0
  -50.0032   -2.8417   19.0652 C   0  0  0  0  0  0
  -49.6026   -5.5383   16.3307 C   0  0  0  0  0  0
  -49.8584   -5.1013   19.1860 C   0  0  0  0  0  0
  -50.5873   -6.9801   19.6313 C   0  0  0  0  0  0
  -51.4680   -8.1172   18.0254 C   0  0  0  0  0  0
  -50.9359   -7.9917   19.8197 C   0  0  0  0  0  0
  -49.0498   -1.5062   15.8326 C   0  0  0  0  0  0
  -48.6034   -0.6752   16.1645 C   0  0  0  0  0  0
  -51.4239   -8.5445   19.0221 C   0  0  0  0  0  0
  -52.3706   -7.2545   17.3152 C   0  0  0  0  0  0
  -49.8242   -8.2844   20.5821 C   0  0  0  0  0  0
  -51.1639   -8.7212   20.4659 C   0  0  0  0  0  0
  -48.1928    0.8275   18.0403 C   0  0  0  0  0  0
  -47.4529    1.3795   18.4248 C   0  0  0  0  0  0
  -47.6658    2.2412   18.8979 C   0  0  0  0  0  0
  -49.3582    1.9414   18.6840 C   0  0  0  0  0  0
  -48.6186    2.4365   19.1507 C   0  0  0  0  0  0
  -45.8578    0.9456   18.9516 C   0  0  0  0  0  0
  -50.3076    2.7337   18.0730 C   0  0  0  0  0  0
  -44.8893    1.1940   18.8504 C   0  0  0  0  0  0
  -44.2598    1.0234   19.6150 C   0  0  0  0  0  0
  -45.4902    0.1123   20.4248 C   0  0  0  0  0  0
  -44.5217    0.3607   20.3237 C   0  0  0  0  0  0
  -46.0226    0.3020   21.6837 C   0  0  0  0  0  0
  -47.7293    3.5926   19.3168 H   0  0  0  0  0  0
  -47.8332    3.1642   20.0783 H   0  0  0  0  0  0
  -44.0611    2.0374   18.0696 H   0  0  0  0  0  0
  -42.8968    1.3726   19.4492 H   0  0  0  0  0  0
  -43.2998    0.3512   21.0398 H   0  0  0  0  0  0
  1 31  1  0  0  0
  1 47  1  0  0  0
  2 32  2  0  0  0
  3 47  1  0  0  0
  3 50  1  0  0  0
  4 46  2  0  0  0
  5 46  1  0  0  0
  6 48  1  0  0  0
  6 52  1  0  0  0
  7 49  1  0  0  0
  7 59  1  0  0  0
  8 51  1  0  0  0
  8 60  1  0  0  0
  9 52  1  0  0  0
  9 56  1  0  0  0
 11 53  1  0  0  0
 12 54  1  0  0  0
 12 61  1  0  0  0
 13 55  1  0  0  0
 13 62  1  0  0  0
 14 57  1  0  0  0
 14 63  1  0  0  0
 16 58  1  0  0  0
 17 19  1  0  0  0
 17 22  1  0  0  0
 17 33  1  0  0  0
 18 19  1  0  0  0
 18 29  1  0  0  0
 18 35  1  0  0  0
 19 32  1  0  0  0
 20 17  1  0  0  0
 20 28  1  0  0  0
 20 36  1  0  0  0
 21 18  1  0  0  0
 21 23  1  0  0  0
 21 24  1  0  0  0
 22 24  1  0  0  0
 23 31  1  0  0  0
 23 41  1  0  0  0
 23 42  1  0  0  0
 25 20  1  0  0  0
 25 26  1  0  0  0
 25 37  1  0  0  0
 26 27  1  0  0  0
 26 38  1  0  0  0
 27 30  1  0  0  0
 27 39  1  0  0  0
 27 44  1  0  0  0
 28 30  1  0  0  0
 29 34  1  0  0  0
 31 34  1  0  0  0
 32 37  1  0  0  0
 38 40  1  0  0  0
 39 43  1  0  0  0
 40 43  1  0  0  0
 40 45  1  0  0  0
 40 46  1  0  0  0
 47 48  1  0  0  0
 48 49  1  0  0  0
 49 51  1  0  0  0
 50 51  1  0  0  0
 50 53  1  0  0  0
 52 54  1  0  0  0
 53 10  1  0  0  0
 54 55  1  0  0  0
 55 57  1  0  0  0
 56 57  1  0  0  0
 56 58  1  0  0  0
 58 15  1  0  0  0
M  END
>  <CHROM.0>
-22.46688232,-176.48408939,176.32191614

>  <CHROM.1>
136.26185458,-56.73024139,-121.50057711,45.49019504,177.89140263,38.64384410
135.14596855,-106.38120581,78.17210118,-53.39429072,103.71504581,106.18158997
-48.68766443,-2.25031969,18.65104390,0.97945387,-0.64137910,-0.33167945

>  <HEADER>
                                                                          

>  <MASTER>
        0    0    0    0    0    0    0    0  127    0  127    0          

>  <Name>
Diammonium.pdb

>  <RI>
-7.72553e+08

>  <Rbt.Current_Directory>
/root/miniconda3/envs/rdock/share/rxdock-2013.1.1_148c5bd1-0/data/ligands/prepped_ligands/Diammonium

>  <Rbt.Executable>
rbdock/0.1.0

>  <Rbt.Library>
librxdock.so/0.1.0

>  <Rbt.Parameter_File>
/root/miniconda3/envs/rdock/share/rxdock-2013.1.1_148c5bd1-0/data/scripts/dock.prm

>  <Rbt.Receptor>
def.prm

>  <SCORE>
-171.962

>  <SCORE.INTER>
-13.1652

>  <SCORE.INTER.CONST>
1

>  <SCORE.INTER.POLAR>
-0.862129

>  <SCORE.INTER.REPUL>
0.543856

>  <SCORE.INTER.ROT>
7

>  <SCORE.INTER.VDW>
-25.3532

>  <SCORE.INTER.norm>
-0.226986

>  <SCORE.INTRA>
-161.769

>  <SCORE.INTRA.DIHEDRAL>
1.25633

>  <SCORE.INTRA.DIHEDRAL.0>
37.64

>  <SCORE.INTRA.POLAR>
0.371885

>  <SCORE.INTRA.POLAR.0>
-0.371885

>  <SCORE.INTRA.REPUL>
-0.150552

>  <SCORE.INTRA.REPUL.0>
0.241776

>  <SCORE.INTRA.VDW>
-162.909

>  <SCORE.INTRA.VDW.0>
400.998

>  <SCORE.INTRA.norm>
-2.78912

>  <SCORE.RESTR>
2.37185

>  <SCORE.RESTR.CAVITY>
2.37185

>  <SCORE.RESTR.norm>
0.0408939

>  <SCORE.SYSTEM>
0.60031

>  <SCORE.SYSTEM.CONST>
0

>  <SCORE.SYSTEM.DIHEDRAL>
2.57584

>  <SCORE.SYSTEM.VDW>
-0.687612

>  <SCORE.SYSTEM.norm>
0.0103502

>  <SCORE.heavy>
58

>  <SCORE.norm>
-2.96486

>  <TITLE>
    Diammonium Glycyrrhizinate                                            

$$$$
