Diammonium.pdb
  RxDock  02242110533D
librxdock.so/0.1.0
 63 69  0  0  0  0  0  0  0  0999 V2000
  -47.6869    0.3756   18.3000 O   0  0  0  0  0  0
  -49.1321   -3.8738   18.8323 O   0  0  0  0  0  0
  -46.7980    0.3859   19.7864 O   0  0  0  0  0  0
  -52.8928   -8.8096   17.2600 O   0  5  0  0  0  0
  -52.0328   -8.6176   18.7506 O   0  0  0  0  0  0
  -45.9758    0.2097   17.2778 O   0  0  0  0  0  0
  -44.1632    1.1336   18.2056 O   0  0  0  0  0  0
  -44.2661   -0.7662   20.2984 O   0  0  0  0  0  0
  -45.7094   -1.4964   17.1501 O   0  0  0  0  0  0
  -45.9842    0.2141   21.9934 O   0  5  0  0  0  0
  -47.2241    1.1029   21.1733 O   0  0  0  0  0  0
  -46.1989    0.3407   15.0560 O   0  0  0  0  0  0
  -43.7345   -1.0083   14.7291 O   0  0  0  0  0  0
  -45.6665   -3.0728   14.8020 O   0  0  0  0  0  0
  -45.7114   -3.8434   17.3036 O   0  5  0  0  0  0
  -45.3725   -2.5123   18.3588 O   0  0  0  0  0  0
  -50.8682   -2.9738   17.0482 C   0  0  0  0  0  0
  -49.5159   -2.1582   17.8620 C   0  0  0  0  0  0
  -49.7722   -3.1633   17.3030 C   0  0  0  0  0  0
  -51.3698   -3.8178   16.8334 C   0  0  0  0  0  0
  -49.3704   -1.4483   16.9336 C   0  0  0  0  0  0
  -51.0498   -2.1249   16.4723 C   0  0  0  0  0  0
  -49.0730   -0.4103   17.4450 C   0  0  0  0  0  0
  -50.4675   -1.2724   16.6146 C   0  0  0  0  0  0
  -51.2083   -4.6404   17.3813 C   0  0  0  0  0  0
  -52.0954   -5.3449   17.6067 C   0  0  0  0  0  0
  -52.6068   -5.4642   16.6005 C   0  0  0  0  0  0
  -52.1851   -3.7634   16.1850 C   0  0  0  0  0  0
  -48.6709   -2.2225   18.5399 C   0  0  0  0  0  0
  -52.7760   -4.6066   16.0314 C   0  0  0  0  0  0
  -48.2834   -0.4212   18.1913 C   0  0  0  0  0  0
  -49.8890   -3.8503   18.1776 C   0  0  0  0  0  0
  -52.0932   -2.3400   17.0502 C   0  0  0  0  0  0
  -48.0501   -1.3482   18.7059 C   0  0  0  0  0  0
  -49.9172   -2.7133   19.0594 C   0  0  0  0  0  0
  -51.2234   -3.4733   15.5061 C   0  0  0  0  0  0
  -50.4524   -4.6641   18.0353 C   0  0  0  0  0  0
  -51.5581   -6.3924   17.8104 C   0  0  0  0  0  0
  -53.1917   -6.3581   16.4042 C   0  0  0  0  0  0
  -52.1294   -7.2988   17.6310 C   0  0  0  0  0  0
  -49.6231    0.0833   16.7714 C   0  0  0  0  0  0
  -48.8621    0.5430   17.2291 C   0  0  0  0  0  0
  -52.9826   -7.2668   16.9595 C   0  0  0  0  0  0
  -53.9519   -5.1619   16.6377 C   0  0  0  0  0  0
  -50.9878   -8.0729   17.6161 C   0  0  0  0  0  0
  -52.3657   -8.2368   17.8878 C   0  0  0  0  0  0
  -46.8186    0.2895   18.7892 C   0  0  0  0  0  0
  -45.9631    0.2065   18.2781 C   0  0  0  0  0  0
  -45.0835    0.2699   18.7619 C   0  0  0  0  0  0
  -45.9223    0.3994   20.2717 C   0  0  0  0  0  0
  -45.0736    0.2168   19.7654 C   0  0  0  0  0  0
  -45.6212   -0.5754   16.7676 C   0  0  0  0  0  0
  -45.8409    1.3928   21.2252 C   0  0  0  0  0  0
  -45.3632   -0.4634   15.8028 C   0  0  0  0  0  0
  -44.9626   -1.2432   15.3115 C   0  0  0  0  0  0
  -45.3550   -2.2821   16.6406 C   0  0  0  0  0  0
  -45.0970   -2.1701   15.6757 C   0  0  0  0  0  0
  -44.5195   -3.0868   17.3880 C   0  0  0  0  0  0
  -43.8301    0.7115   19.2516 H   0  0  0  0  0  0
  -43.7407   -0.1440   19.4492 H   0  0  0  0  0  0
  -45.2080    0.0506   14.4918 H   0  0  0  0  0  0
  -44.2909   -1.9420   14.2782 H   0  0  0  0  0  0
  -45.6475   -3.4529   15.9149 H   0  0  0  0  0  0
  1 31  1  0  0  0
  1 47  1  0  0  0
  2 32  2  0  0  0
  3 47  1  0  0  0
  3 50  1  0  0  0
  4 46  2  0  0  0
  5 46  1  0  0  0
  6 48  1  0  0  0
  6 52  1  0  0  0
  7 49  1  0  0  0
  7 59  1  0  0  0
  8 51  1  0  0  0
  8 60  1  0  0  0
  9 52  1  0  0  0
  9 56  1  0  0  0
 11 53  1  0  0  0
 12 54  1  0  0  0
 12 61  1  0  0  0
 13 55  1  0  0  0
 13 62  1  0  0  0
 14 57  1  0  0  0
 14 63  1  0  0  0
 16 58  1  0  0  0
 17 19  1  0  0  0
 17 22  1  0  0  0
 17 33  1  0  0  0
 18 19  1  0  0  0
 18 29  1  0  0  0
 18 35  1  0  0  0
 19 32  1  0  0  0
 20 17  1  0  0  0
 20 28  1  0  0  0
 20 36  1  0  0  0
 21 18  1  0  0  0
 21 23  1  0  0  0
 21 24  1  0  0  0
 22 24  1  0  0  0
 23 31  1  0  0  0
 23 41  1  0  0  0
 23 42  1  0  0  0
 25 20  1  0  0  0
 25 26  1  0  0  0
 25 37  1  0  0  0
 26 27  1  0  0  0
 26 38  1  0  0  0
 27 30  1  0  0  0
 27 39  1  0  0  0
 27 44  1  0  0  0
 28 30  1  0  0  0
 29 34  1  0  0  0
 31 34  1  0  0  0
 32 37  1  0  0  0
 38 40  1  0  0  0
 39 43  1  0  0  0
 40 43  1  0  0  0
 40 45  1  0  0  0
 40 46  1  0  0  0
 47 48  1  0  0  0
 48 49  1  0  0  0
 49 51  1  0  0  0
 50 51  1  0  0  0
 50 53  1  0  0  0
 52 54  1  0  0  0
 53 10  1  0  0  0
 54 55  1  0  0  0
 55 57  1  0  0  0
 56 57  1  0  0  0
 56 58  1  0  0  0
 58 15  1  0  0  0
M  END
>  <CHROM.0>
-179.12567546,58.37929183,53.78439034

>  <CHROM.1>
-163.08171885,-86.02522242,-120.26168933,32.58856834,172.00561149,46.15384674
170.38076304,-160.78003844,-166.87646347,-167.97696475,106.58082554,105.79666060
-48.54911126,-2.50725042,17.63702428,0.58965693,0.47790858,0.77513436

>  <HEADER>
                                                                          

>  <MASTER>
        0    0    0    0    0    0    0    0  127    0  127    0          

>  <Name>
Diammonium.pdb

>  <RI>
-8.92128e+08

>  <Rbt.Current_Directory>
/root/miniconda3/envs/rdock/share/rxdock-2013.1.1_148c5bd1-0/data/ligands/prepped_ligands/Diammonium

>  <Rbt.Executable>
rbdock/0.1.0

>  <Rbt.Library>
librxdock.so/0.1.0

>  <Rbt.Parameter_File>
/root/miniconda3/envs/rdock/share/rxdock-2013.1.1_148c5bd1-0/data/scripts/dock.prm

>  <Rbt.Receptor>
def.prm

>  <SCORE>
-164.237

>  <SCORE.INTER>
-15.9404

>  <SCORE.INTER.CONST>
1

>  <SCORE.INTER.POLAR>
-0.456058

>  <SCORE.INTER.REPUL>
0.262165

>  <SCORE.INTER.ROT>
7

>  <SCORE.INTER.VDW>
-28.1006

>  <SCORE.INTER.norm>
-0.274835

>  <SCORE.INTRA>
-147.411

>  <SCORE.INTRA.DIHEDRAL>
-4.88564

>  <SCORE.INTRA.DIHEDRAL.0>
37.64

>  <SCORE.INTRA.POLAR>
0.284301

>  <SCORE.INTRA.POLAR.0>
-0.371885

>  <SCORE.INTRA.REPUL>
-0.18876

>  <SCORE.INTRA.REPUL.0>
0.241776

>  <SCORE.INTRA.VDW>
-144.991

>  <SCORE.INTRA.VDW.0>
400.998

>  <SCORE.INTRA.norm>
-2.54157

>  <SCORE.RESTR>
0

>  <SCORE.RESTR.CAVITY>
0

>  <SCORE.RESTR.norm>
0

>  <SCORE.SYSTEM>
-0.885684

>  <SCORE.SYSTEM.CONST>
0

>  <SCORE.SYSTEM.DIHEDRAL>
0.113856

>  <SCORE.SYSTEM.VDW>
-0.942612

>  <SCORE.SYSTEM.norm>
-0.0152704

>  <SCORE.heavy>
58

>  <SCORE.norm>
-2.83168

>  <TITLE>
    Diammonium Glycyrrhizinate                                            

$$$$
Diammonium.pdb
  RxDock  02242110533D
librxdock.so/0.1.0
 63 69  0  0  0  0  0  0  0  0999 V2000
  -50.4500   -2.6225   16.9929 O   0  0  0  0  0  0
  -46.1349   -1.3263   17.3519 O   0  0  0  0  0  0
  -49.7018   -2.8633   15.4495 O   0  0  0  0  0  0
  -41.5230    2.1006   19.9327 O   0  5  0  0  0  0
  -41.1418    0.4885   19.4284 O   0  0  0  0  0  0
  -51.7497   -4.0887   16.5916 O   0  0  0  0  0  0
  -52.2769   -4.3967   14.4405 O   0  0  0  0  0  0
  -49.6281   -5.2360   13.9117 O   0  0  0  0  0  0
  -51.0545   -5.4686   17.3731 O   0  0  0  0  0  0
  -49.3699   -3.7006   12.8968 O   0  5  0  0  0  0
  -48.2328   -2.7531   13.7964 O   0  0  0  0  0  0
  -53.7184   -4.5358   17.5548 O   0  0  0  0  0  0
  -53.5878   -7.1911   16.5890 O   0  0  0  0  0  0
  -52.3259   -7.2956   19.1182 O   0  0  0  0  0  0
  -49.7794   -7.0257   18.5946 O   0  5  0  0  0  0
  -49.5417   -6.0135   17.2094 O   0  0  0  0  0  0
  -47.1744   -0.2127   19.5167 C   0  0  0  0  0  0
  -47.9327   -1.1804   18.2343 C   0  0  0  0  0  0
  -46.9856   -1.1762   18.9353 C   0  0  0  0  0  0
  -46.3457    0.1436   19.9598 C   0  0  0  0  0  0
  -48.7389   -1.5780   18.9952 C   0  0  0  0  0  0
  -48.0743   -0.1795   20.0408 C   0  0  0  0  0  0
  -49.7246   -1.6345   18.3225 C   0  0  0  0  0  0
  -48.9209   -0.6350   19.6387 C   0  0  0  0  0  0
  -45.4745    0.1217   19.4664 C   0  0  0  0  0  0
  -44.7293    0.9926   19.6091 C   0  0  0  0  0  0
  -44.7036    1.1432   20.7338 C   0  0  0  0  0  0
  -46.4480    0.7069   20.8318 C   0  0  0  0  0  0
  -47.8182   -1.7628   17.3258 C   0  0  0  0  0  0
  -45.6116    1.1676   21.2465 C   0  0  0  0  0  0
  -49.6549   -2.1395   17.3630 C   0  0  0  0  0  0
  -46.2085   -0.8219   18.2136 C   0  0  0  0  0  0
  -47.7751    0.9809   19.8586 C   0  0  0  0  0  0
  -48.6850   -2.2459   16.8868 C   0  0  0  0  0  0
  -47.2462   -0.4455   17.2901 C   0  0  0  0  0  0
  -46.8303   -0.4045   21.1288 C   0  0  0  0  0  0
  -45.4007   -0.3819   18.6059 C   0  0  0  0  0  0
  -43.6795    0.4916   19.3367 C   0  0  0  0  0  0
  -43.8213    1.5815   21.1913 C   0  0  0  0  0  0
  -42.7833    0.9218   19.7750 C   0  0  0  0  0  0
  -50.2727   -1.3050   19.0913 C   0  0  0  0  0  0
  -50.7001   -1.8496   18.3698 C   0  0  0  0  0  0
  -42.8648    1.5122   20.6831 C   0  0  0  0  0  0
  -44.9680    2.4429   21.1120 C   0  0  0  0  0  0
  -42.0425   -0.2052   19.4853 C   0  0  0  0  0  0
  -41.8182    1.1749   19.6961 C   0  0  0  0  0  0
  -50.3700   -3.1426   16.1421 C   0  0  0  0  0  0
  -51.0199   -3.8757   15.9415 C   0  0  0  0  0  0
  -51.0329   -4.2961   15.0278 C   0  0  0  0  0  0
  -49.6840   -3.3169   14.5571 C   0  0  0  0  0  0
  -50.2713   -4.1165   14.3971 C   0  0  0  0  0  0
  -51.8443   -5.0166   16.9556 C   0  0  0  0  0  0
  -49.5791   -2.4382   13.4991 C   0  0  0  0  0  0
  -52.7613   -5.4085   17.0806 C   0  0  0  0  0  0
  -52.8465   -6.3575   17.4003 C   0  0  0  0  0  0
  -51.1481   -6.3965   17.7373 C   0  0  0  0  0  0
  -52.0650   -6.7884   17.8624 C   0  0  0  0  0  0
  -50.1900   -7.2692   17.2634 C   0  0  0  0  0  0
  -51.6309   -5.3733   14.3293 H   0  0  0  0  0  0
  -50.2679   -4.6784   13.0967 H   0  0  0  0  0  0
  -54.1546   -5.5887   17.2623 H   0  0  0  0  0  0
  -53.9141   -6.0629   16.5168 H   0  0  0  0  0  0
  -52.2149   -8.1285   18.2952 H   0  0  0  0  0  0
  1 31  1  0  0  0
  1 47  1  0  0  0
  2 32  2  0  0  0
  3 47  1  0  0  0
  3 50  1  0  0  0
  4 46  2  0  0  0
  5 46  1  0  0  0
  6 48  1  0  0  0
  6 52  1  0  0  0
  7 49  1  0  0  0
  7 59  1  0  0  0
  8 51  1  0  0  0
  8 60  1  0  0  0
  9 52  1  0  0  0
  9 56  1  0  0  0
 11 53  1  0  0  0
 12 54  1  0  0  0
 12 61  1  0  0  0
 13 55  1  0  0  0
 13 62  1  0  0  0
 14 57  1  0  0  0
 14 63  1  0  0  0
 16 58  1  0  0  0
 17 19  1  0  0  0
 17 22  1  0  0  0
 17 33  1  0  0  0
 18 19  1  0  0  0
 18 29  1  0  0  0
 18 35  1  0  0  0
 19 32  1  0  0  0
 20 17  1  0  0  0
 20 28  1  0  0  0
 20 36  1  0  0  0
 21 18  1  0  0  0
 21 23  1  0  0  0
 21 24  1  0  0  0
 22 24  1  0  0  0
 23 31  1  0  0  0
 23 41  1  0  0  0
 23 42  1  0  0  0
 25 20  1  0  0  0
 25 26  1  0  0  0
 25 37  1  0  0  0
 26 27  1  0  0  0
 26 38  1  0  0  0
 27 30  1  0  0  0
 27 39  1  0  0  0
 27 44  1  0  0  0
 28 30  1  0  0  0
 29 34  1  0  0  0
 31 34  1  0  0  0
 32 37  1  0  0  0
 38 40  1  0  0  0
 39 43  1  0  0  0
 40 43  1  0  0  0
 40 45  1  0  0  0
 40 46  1  0  0  0
 47 48  1  0  0  0
 48 49  1  0  0  0
 49 51  1  0  0  0
 50 51  1  0  0  0
 50 53  1  0  0  0
 52 54  1  0  0  0
 53 10  1  0  0  0
 54 55  1  0  0  0
 55 57  1  0  0  0
 56 57  1  0  0  0
 56 58  1  0  0  0
 58 15  1  0  0  0
M  END
>  <CHROM.0>
73.90961430,-59.86561949,56.68171564

>  <CHROM.1>
-175.63792531,-28.90462224,-123.80861992,52.48024340,-135.79852865,109.46692241
174.03757180,-28.10432392,105.70683175,128.80410646,169.41068694,106.05372324
-48.28767097,-2.23864671,17.91286803,2.64922735,-0.61460946,-1.78786674

>  <HEADER>
                                                                          

>  <MASTER>
        0    0    0    0    0    0    0    0  127    0  127    0          

>  <Name>
Diammonium.pdb

>  <RI>
-8.92128e+08

>  <Rbt.Current_Directory>
/root/miniconda3/envs/rdock/share/rxdock-2013.1.1_148c5bd1-0/data/ligands/prepped_ligands/Diammonium

>  <Rbt.Executable>
rbdock/0.1.0

>  <Rbt.Library>
librxdock.so/0.1.0

>  <Rbt.Parameter_File>
/root/miniconda3/envs/rdock/share/rxdock-2013.1.1_148c5bd1-0/data/scripts/dock.prm

>  <Rbt.Receptor>
def.prm

>  <SCORE>
-148.61

>  <SCORE.INTER>
-7.74541

>  <SCORE.INTER.CONST>
1

>  <SCORE.INTER.POLAR>
0

>  <SCORE.INTER.REPUL>
0.664391

>  <SCORE.INTER.ROT>
7

>  <SCORE.INTER.VDW>
-23.4674

>  <SCORE.INTER.norm>
-0.133542

>  <SCORE.INTRA>
-140.274

>  <SCORE.INTRA.DIHEDRAL>
4.65245

>  <SCORE.INTRA.DIHEDRAL.0>
37.64

>  <SCORE.INTRA.POLAR>
0.371885

>  <SCORE.INTRA.POLAR.0>
-0.371885

>  <SCORE.INTRA.REPUL>
-0.231034

>  <SCORE.INTRA.REPUL.0>
0.241776

>  <SCORE.INTRA.VDW>
-142.709

>  <SCORE.INTRA.VDW.0>
400.998

>  <SCORE.INTRA.norm>
-2.41851

>  <SCORE.RESTR>
0.134332

>  <SCORE.RESTR.CAVITY>
0.134332

>  <SCORE.RESTR.norm>
0.00231607

>  <SCORE.SYSTEM>
-0.725151

>  <SCORE.SYSTEM.CONST>
0

>  <SCORE.SYSTEM.DIHEDRAL>
0.477317

>  <SCORE.SYSTEM.VDW>
-0.96381

>  <SCORE.SYSTEM.norm>
-0.0125026

>  <SCORE.heavy>
58

>  <SCORE.norm>
-2.56224

>  <TITLE>
    Diammonium Glycyrrhizinate                                            

$$$$
Diammonium.pdb
  RxDock  02242110543D
librxdock.so/0.1.0
 63 69  0  0  0  0  0  0  0  0999 V2000
  -51.7274   -1.5889   17.4934 O   0  0  0  0  0  0
  -47.2762   -2.2681   17.8876 O   0  0  0  0  0  0
  -51.7750   -2.4615   15.9980 O   0  0  0  0  0  0
  -41.8238   -1.8608   19.2957 O   0  5  0  0  0  0
  -41.3691   -0.2479   18.8596 O   0  0  0  0  0  0
  -52.7670   -3.0500   18.3791 O   0  0  0  0  0  0
  -54.1883   -4.1921   17.0847 O   0  0  0  0  0  0
  -52.0084   -5.2561   15.6300 O   0  0  0  0  0  0
  -51.5491   -4.1478   18.9357 O   0  0  0  0  0  0
  -51.4004   -3.3479   13.8787 O   0  5  0  0  0  0
  -51.8004   -1.7998   14.5444 O   0  0  0  0  0  0
  -53.2652   -2.5298   20.4967 O   0  0  0  0  0  0
  -53.5555   -5.2771   21.1033 O   0  0  0  0  0  0
  -50.8278   -4.7258   21.6088 O   0  0  0  0  0  0
  -49.6068   -5.4254   19.4791 O   0  5  0  0  0  0
  -50.5344   -5.0912   18.0552 O   0  0  0  0  0  0
  -47.4731    0.2452   18.6947 C   0  0  0  0  0  0
  -48.7150   -0.8864   18.1176 C   0  0  0  0  0  0
  -47.7969   -0.8372   18.8544 C   0  0  0  0  0  0
  -46.5306    0.4186   18.9973 C   0  0  0  0  0  0
  -49.5279   -0.3501   18.7800 C   0  0  0  0  0  0
  -48.2022    0.9613   18.8975 C   0  0  0  0  0  0
  -50.5006   -0.4009   18.0882 C   0  0  0  0  0  0
  -49.2005    0.7543   18.6820 C   0  0  0  0  0  0
  -45.8186   -0.2591   18.8057 C   0  0  0  0  0  0
  -44.7528    0.1064   18.5517 C   0  0  0  0  0  0
  -44.5430    0.8940   19.3417 C   0  0  0  0  0  0
  -46.2774    1.3780   19.3191 C   0  0  0  0  0  0
  -48.9697   -1.8863   17.7812 C   0  0  0  0  0  0
  -45.2845    1.6004   19.5393 C   0  0  0  0  0  0
  -50.7659   -1.3623   17.6570 C   0  0  0  0  0  0
  -47.0250   -1.3663   18.2423 C   0  0  0  0  0  0
  -47.4382    1.5019   18.1273 C   0  0  0  0  0  0
  -50.0022   -2.1262   17.5493 C   0  0  0  0  0  0
  -47.8776   -1.2617   17.0875 C   0  0  0  0  0  0
  -47.0812    0.9754   20.1324 C   0  0  0  0  0  0
  -46.0692   -1.1598   18.4515 C   0  0  0  0  0  0
  -44.0721   -0.8280   18.8534 C   0  0  0  0  0  0
  -43.5148    1.1091   19.6178 C   0  0  0  0  0  0
  -43.0373   -0.6358   19.1224 C   0  0  0  0  0  0
  -50.7589    0.5209   18.3774 C   0  0  0  0  0  0
  -51.4584   -0.1156   18.0526 C   0  0  0  0  0  0
  -42.7497    0.3556   19.4604 C   0  0  0  0  0  0
  -44.1582    2.1064   18.8085 C   0  0  0  0  0  0
  -42.9123   -1.8730   19.7194 C   0  0  0  0  0  0
  -42.0751   -0.9111   19.1087 C   0  0  0  0  0  0
  -51.9684   -2.4130   16.9801 C   0  0  0  0  0  0
  -52.4882   -3.1436   17.4229 C   0  0  0  0  0  0
  -52.8573   -3.8995   16.8716 C   0  0  0  0  0  0
  -52.1014   -3.2400   15.4596 C   0  0  0  0  0  0
  -52.5359   -4.0166   15.9266 C   0  0  0  0  0  0
  -52.4340   -3.6979   19.0660 C   0  0  0  0  0  0
  -52.6765   -2.8731   14.2608 C   0  0  0  0  0  0
  -52.8844   -3.7434   19.9632 C   0  0  0  0  0  0
  -52.5758   -4.4297   20.6294 C   0  0  0  0  0  0
  -51.2153   -4.7959   19.6220 C   0  0  0  0  0  0
  -51.6657   -4.8414   20.5193 C   0  0  0  0  0  0
  -50.8337   -6.0097   19.0880 C   0  0  0  0  0  0
  -53.4605   -5.0277   17.4793 H   0  0  0  0  0  0
  -53.0990   -5.1045   15.2151 H   0  0  0  0  0  0
  -52.4478   -2.4312   19.6561 H   0  0  0  0  0  0
  -53.6704   -4.1722   21.4912 H   0  0  0  0  0  0
  -51.7373   -5.4474   21.7974 H   0  0  0  0  0  0
  1 31  1  0  0  0
  1 47  1  0  0  0
  2 32  2  0  0  0
  3 47  1  0  0  0
  3 50  1  0  0  0
  4 46  2  0  0  0
  5 46  1  0  0  0
  6 48  1  0  0  0
  6 52  1  0  0  0
  7 49  1  0  0  0
  7 59  1  0  0  0
  8 51  1  0  0  0
  8 60  1  0  0  0
  9 52  1  0  0  0
  9 56  1  0  0  0
 11 53  1  0  0  0
 12 54  1  0  0  0
 12 61  1  0  0  0
 13 55  1  0  0  0
 13 62  1  0  0  0
 14 57  1  0  0  0
 14 63  1  0  0  0
 16 58  1  0  0  0
 17 19  1  0  0  0
 17 22  1  0  0  0
 17 33  1  0  0  0
 18 19  1  0  0  0
 18 29  1  0  0  0
 18 35  1  0  0  0
 19 32  1  0  0  0
 20 17  1  0  0  0
 20 28  1  0  0  0
 20 36  1  0  0  0
 21 18  1  0  0  0
 21 23  1  0  0  0
 21 24  1  0  0  0
 22 24  1  0  0  0
 23 31  1  0  0  0
 23 41  1  0  0  0
 23 42  1  0  0  0
 25 20  1  0  0  0
 25 26  1  0  0  0
 25 37  1  0  0  0
 26 27  1  0  0  0
 26 38  1  0  0  0
 27 30  1  0  0  0
 27 39  1  0  0  0
 27 44  1  0  0  0
 28 30  1  0  0  0
 29 34  1  0  0  0
 31 34  1  0  0  0
 32 37  1  0  0  0
 38 40  1  0  0  0
 39 43  1  0  0  0
 40 43  1  0  0  0
 40 45  1  0  0  0
 40 46  1  0  0  0
 47 48  1  0  0  0
 48 49  1  0  0  0
 49 51  1  0  0  0
 50 51  1  0  0  0
 50 53  1  0  0  0
 52 54  1  0  0  0
 53 10  1  0  0  0
 54 55  1  0  0  0
 55 57  1  0  0  0
 56 57  1  0  0  0
 56 58  1  0  0  0
 58 15  1  0  0  0
M  END
>  <CHROM.0>
127.93558396,61.15210780,-126.79707600

>  <CHROM.1>
171.30140356,-69.49252476,-118.08378585,28.22920897,-110.60614152,103.18670191
-19.22940612,-70.02980281,69.01760102,-43.91595050,103.17805233,109.80623593
-48.97934833,-1.85050376,18.36051765,2.93062020,0.41130369,2.37176167

>  <HEADER>
                                                                          

>  <MASTER>
        0    0    0    0    0    0    0    0  127    0  127    0          

>  <Name>
Diammonium.pdb

>  <RI>
-8.92128e+08

>  <Rbt.Current_Directory>
/root/miniconda3/envs/rdock/share/rxdock-2013.1.1_148c5bd1-0/data/ligands/prepped_ligands/Diammonium

>  <Rbt.Executable>
rbdock/0.1.0

>  <Rbt.Library>
librxdock.so/0.1.0

>  <Rbt.Parameter_File>
/root/miniconda3/envs/rdock/share/rxdock-2013.1.1_148c5bd1-0/data/scripts/dock.prm

>  <Rbt.Receptor>
def.prm

>  <SCORE>
-176.282

>  <SCORE.INTER>
-11.3993

>  <SCORE.INTER.CONST>
1

>  <SCORE.INTER.POLAR>
-0.905234

>  <SCORE.INTER.REPUL>
0.645235

>  <SCORE.INTER.ROT>
7

>  <SCORE.INTER.VDW>
-23.9477

>  <SCORE.INTER.norm>
-0.19654

>  <SCORE.INTRA>
-168.892

>  <SCORE.INTRA.DIHEDRAL>
3.24608

>  <SCORE.INTRA.DIHEDRAL.0>
37.64

>  <SCORE.INTRA.POLAR>
-0.031182

>  <SCORE.INTRA.POLAR.0>
-0.371885

>  <SCORE.INTRA.REPUL>
-0.171446

>  <SCORE.INTRA.REPUL.0>
0.241776

>  <SCORE.INTRA.VDW>
-169.552

>  <SCORE.INTRA.VDW.0>
400.998

>  <SCORE.INTRA.norm>
-2.91194

>  <SCORE.RESTR>
0.174334

>  <SCORE.RESTR.CAVITY>
0.174334

>  <SCORE.RESTR.norm>
0.00300575

>  <SCORE.SYSTEM>
3.83558

>  <SCORE.SYSTEM.CONST>
0

>  <SCORE.SYSTEM.DIHEDRAL>
6.94068

>  <SCORE.SYSTEM.VDW>
0.365237

>  <SCORE.SYSTEM.norm>
0.0661306

>  <SCORE.heavy>
58

>  <SCORE.norm>
-3.03934

>  <TITLE>
    Diammonium Glycyrrhizinate                                            

$$$$
Diammonium.pdb
  RxDock  02242110543D
librxdock.so/0.1.0
 63 69  0  0  0  0  0  0  0  0999 V2000
  -47.3440    0.2629   16.9638 O   0  0  0  0  0  0
  -48.4607   -3.6776   18.8757 O   0  0  0  0  0  0
  -47.3885    1.1541   18.4483 O   0  0  0  0  0  0
  -52.1797   -8.6934   19.5673 O   0  5  0  0  0  0
  -50.4753   -8.9712   19.6941 O   0  0  0  0  0  0
  -45.3490    0.4010   16.9406 O   0  0  0  0  0  0
  -44.4610    2.2160   17.8984 O   0  0  0  0  0  0
  -45.3727    1.3289   20.4246 O   0  0  0  0  0  0
  -44.5770   -0.7609   17.9664 O   0  0  0  0  0  0
  -47.8115    2.1394   20.5679 O   0  5  0  0  0  0
  -48.5913    2.0948   19.0219 O   0  0  0  0  0  0
  -45.7802   -1.2060   15.4457 O   0  0  0  0  0  0
  -43.0535   -1.9576   15.4671 O   0  0  0  0  0  0
  -44.2363   -3.5296   17.4993 O   0  0  0  0  0  0
  -43.8323   -2.1799   19.6949 O   0  5  0  0  0  0
  -43.8499   -0.4761   19.3837 O   0  0  0  0  0  0
  -50.1346   -3.6230   16.8258 C   0  0  0  0  0  0
  -48.9173   -2.4438   17.3586 C   0  0  0  0  0  0
  -49.0475   -3.5999   17.1719 C   0  0  0  0  0  0
  -50.5467   -4.5368   16.8967 C   0  0  0  0  0  0
  -48.7661   -2.0810   16.2484 C   0  0  0  0  0  0
  -50.3454   -3.0442   15.9855 C   0  0  0  0  0  0
  -48.5945   -0.9061   16.3808 C   0  0  0  0  0  0
  -49.8486   -2.1387   15.8468 C   0  0  0  0  0  0
  -50.3561   -5.1026   17.7007 C   0  0  0  0  0  0
  -51.1945   -5.7763   18.1216 C   0  0  0  0  0  0
  -51.6209   -6.2830   17.1998 C   0  0  0  0  0  0
  -51.3153   -4.7910   16.2388 C   0  0  0  0  0  0
  -48.1205   -2.1858   18.0487 C   0  0  0  0  0  0
  -51.8207   -5.6925   16.3635 C   0  0  0  0  0  0
  -47.8621   -0.5806   17.1144 C   0  0  0  0  0  0
  -49.1682   -3.9567   18.2247 C   0  0  0  0  0  0
  -51.4056   -3.1568   16.5620 C   0  0  0  0  0  0
  -47.5889   -1.2478   17.9260 C   0  0  0  0  0  0
  -49.3549   -2.5970   18.6579 C   0  0  0  0  0  0
  -50.3355   -4.6511   15.5387 C   0  0  0  0  0  0
  -49.6495   -4.8242   18.3509 C   0  0  0  0  0  0
  -50.5869   -6.6305   18.6949 C   0  0  0  0  0  0
  -52.1130   -7.2459   17.3022 C   0  0  0  0  0  0
  -51.0656   -7.5979   18.8179 C   0  0  0  0  0  0
  -49.1347   -0.7307   15.5577 C   0  0  0  0  0  0
  -48.4497   -0.0665   15.8571 C   0  0  0  0  0  0
  -51.8684   -7.8848   18.1447 C   0  0  0  0  0  0
  -52.9860   -6.1272   17.0790 C   0  0  0  0  0  0
  -49.8648   -8.2083   19.1149 C   0  0  0  0  0  0
  -51.2399   -8.4118   19.3737 C   0  0  0  0  0  0
  -46.8642    0.6998   17.7251 C   0  0  0  0  0  0
  -45.8667    0.7689   17.7135 C   0  0  0  0  0  0
  -45.3967    1.3350   18.3993 C   0  0  0  0  0  0
  -46.9152    1.6770   19.1589 C   0  0  0  0  0  0
  -45.9111    1.6607   19.1988 C   0  0  0  0  0  0
  -44.8104   -0.4361   17.0486 C   0  0  0  0  0  0
  -47.4981    2.9001   19.4176 C   0  0  0  0  0  0
  -44.6787   -1.0454   16.2602 C   0  0  0  0  0  0
  -44.0967   -1.8581   16.3640 C   0  0  0  0  0  0
  -44.0384   -1.5979   18.0753 C   0  0  0  0  0  0
  -43.9068   -2.2072   17.2870 C   0  0  0  0  0  0
  -42.9369   -1.4371   18.8908 C   0  0  0  0  0  0
  -43.9819    1.2963   18.4533 H   0  0  0  0  0  0
  -46.4922    0.9882   20.3020 H   0  0  0  0  0  0
  -45.3518   -0.1102   15.4360 H   0  0  0  0  0  0
  -44.1118   -2.0297   14.9578 H   0  0  0  0  0  0
  -43.4955   -3.3748   16.5990 H   0  0  0  0  0  0
  1 31  1  0  0  0
  1 47  1  0  0  0
  2 32  2  0  0  0
  3 47  1  0  0  0
  3 50  1  0  0  0
  4 46  2  0  0  0
  5 46  1  0  0  0
  6 48  1  0  0  0
  6 52  1  0  0  0
  7 49  1  0  0  0
  7 59  1  0  0  0
  8 51  1  0  0  0
  8 60  1  0  0  0
  9 52  1  0  0  0
  9 56  1  0  0  0
 11 53  1  0  0  0
 12 54  1  0  0  0
 12 61  1  0  0  0
 13 55  1  0  0  0
 13 62  1  0  0  0
 14 57  1  0  0  0
 14 63  1  0  0  0
 16 58  1  0  0  0
 17 19  1  0  0  0
 17 22  1  0  0  0
 17 33  1  0  0  0
 18 19  1  0  0  0
 18 29  1  0  0  0
 18 35  1  0  0  0
 19 32  1  0  0  0
 20 17  1  0  0  0
 20 28  1  0  0  0
 20 36  1  0  0  0
 21 18  1  0  0  0
 21 23  1  0  0  0
 21 24  1  0  0  0
 22 24  1  0  0  0
 23 31  1  0  0  0
 23 41  1  0  0  0
 23 42  1  0  0  0
 25 20  1  0  0  0
 25 26  1  0  0  0
 25 37  1  0  0  0
 26 27  1  0  0  0
 26 38  1  0  0  0
 27 30  1  0  0  0
 27 39  1  0  0  0
 27 44  1  0  0  0
 28 30  1  0  0  0
 29 34  1  0  0  0
 31 34  1  0  0  0
 32 37  1  0  0  0
 38 40  1  0  0  0
 39 43  1  0  0  0
 40 43  1  0  0  0
 40 45  1  0  0  0
 40 46  1  0  0  0
 47 48  1  0  0  0
 48 49  1  0  0  0
 49 51  1  0  0  0
 50 51  1  0  0  0
 50 53  1  0  0  0
 52 54  1  0  0  0
 53 10  1  0  0  0
 54 55  1  0  0  0
 55 57  1  0  0  0
 56 57  1  0  0  0
 56 58  1  0  0  0
 58 15  1  0  0  0
M  END
>  <CHROM.0>
59.70793808,-62.88739748,-63.63181563

>  <CHROM.1>
163.19417649,-70.86381120,-107.59879184,-17.21086348,-106.88197827,-125.30333849
65.72731924,-65.30872879,56.30413161,125.73217011,108.47759450,106.36388709
-48.01250214,-2.48604387,17.74103306,0.87081301,-0.11661752,-0.07744214

>  <HEADER>
                                                                          

>  <MASTER>
        0    0    0    0    0    0    0    0  127    0  127    0          

>  <Name>
Diammonium.pdb

>  <RI>
-8.92128e+08

>  <Rbt.Current_Directory>
/root/miniconda3/envs/rdock/share/rxdock-2013.1.1_148c5bd1-0/data/ligands/prepped_ligands/Diammonium

>  <Rbt.Executable>
rbdock/0.1.0

>  <Rbt.Library>
librxdock.so/0.1.0

>  <Rbt.Parameter_File>
/root/miniconda3/envs/rdock/share/rxdock-2013.1.1_148c5bd1-0/data/scripts/dock.prm

>  <Rbt.Receptor>
def.prm

>  <SCORE>
-182.136

>  <SCORE.INTER>
-17.2359

>  <SCORE.INTER.CONST>
1

>  <SCORE.INTER.POLAR>
-0.164435

>  <SCORE.INTER.REPUL>
0

>  <SCORE.INTER.ROT>
7

>  <SCORE.INTER.VDW>
-29.0768

>  <SCORE.INTER.norm>
-0.29717

>  <SCORE.INTRA>
-164.14

>  <SCORE.INTRA.DIHEDRAL>
-0.599588

>  <SCORE.INTRA.DIHEDRAL.0>
37.64

>  <SCORE.INTRA.POLAR>
-1.11129

>  <SCORE.INTRA.POLAR.0>
-0.371885

>  <SCORE.INTRA.REPUL>
-0.241776

>  <SCORE.INTRA.REPUL.0>
0.241776

>  <SCORE.INTRA.VDW>
-158.853

>  <SCORE.INTRA.VDW.0>
400.998

>  <SCORE.INTRA.norm>
-2.83001

>  <SCORE.RESTR>
0.300072

>  <SCORE.RESTR.CAVITY>
0.300072

>  <SCORE.RESTR.norm>
0.00517365

>  <SCORE.SYSTEM>
-1.05952

>  <SCORE.SYSTEM.CONST>
0

>  <SCORE.SYSTEM.DIHEDRAL>
0.0770804

>  <SCORE.SYSTEM.VDW>
-1.09806

>  <SCORE.SYSTEM.norm>
-0.0182675

>  <SCORE.heavy>
58

>  <SCORE.norm>
-3.14027

>  <TITLE>
    Diammonium Glycyrrhizinate                                            

$$$$
Diammonium.pdb
  RxDock  02242110543D
librxdock.so/0.1.0
 63 69  0  0  0  0  0  0  0  0999 V2000
  -47.3118    0.0726   19.0983 O   0  0  0  0  0  0
  -49.7679   -3.7217   19.0983 O   0  0  0  0  0  0
  -46.9382   -0.3300   20.7409 O   0  0  0  0  0  0
  -54.2370   -7.4983   16.7137 O   0  5  0  0  0  0
  -52.8566   -8.2072   17.4821 O   0  0  0  0  0  0
  -45.3634    0.0432   18.6479 O   0  0  0  0  0  0
  -43.9493    0.5985   20.2886 O   0  0  0  0  0  0
  -44.6824   -1.7344   21.7099 O   0  0  0  0  0  0
  -45.3142   -1.3514   17.6228 O   0  0  0  0  0  0
  -46.9215   -1.0633   22.9565 O   0  5  0  0  0  0
  -47.7821    0.1174   22.0263 O   0  0  0  0  0  0
  -43.6042    0.9007   17.5647 O   0  0  0  0  0  0
  -42.1760   -1.5052   17.9797 O   0  0  0  0  0  0
  -43.5076   -1.8896   15.5142 O   0  0  0  0  0  0
  -45.7301   -3.1351   16.1555 O   0  5  0  0  0  0
  -46.2625   -2.6492   17.7304 O   0  0  0  0  0  0
  -50.4465   -2.6855   16.7589 C   0  0  0  0  0  0
  -49.3578   -2.0759   18.0236 C   0  0  0  0  0  0
  -49.6022   -3.0625   17.4276 C   0  0  0  0  0  0
  -51.0052   -3.4299   16.3799 C   0  0  0  0  0  0
  -48.7152   -1.5112   17.2141 C   0  0  0  0  0  0
  -50.1997   -1.8828   16.1423 C   0  0  0  0  0  0
  -48.4085   -0.5057   17.7819 C   0  0  0  0  0  0
  -49.5392   -1.1540   16.4863 C   0  0  0  0  0  0
  -51.2534   -4.2059   16.9624 C   0  0  0  0  0  0
  -52.2937   -4.6909   16.8339 C   0  0  0  0  0  0
  -52.3979   -4.8108   15.7100 C   0  0  0  0  0  0
  -51.4787   -3.2821   15.4622 C   0  0  0  0  0  0
  -48.8711   -2.2362   18.9802 C   0  0  0  0  0  0
  -52.1407   -4.0014   15.1043 C   0  0  0  0  0  0
  -47.9854   -0.5957   18.7786 C   0  0  0  0  0  0
  -50.1935   -3.6163   18.1984 C   0  0  0  0  0  0
  -51.4038   -1.8228   16.2673 C   0  0  0  0  0  0
  -48.1800   -1.4912   19.3606 C   0  0  0  0  0  0
  -50.2972   -2.4103   18.9769 C   0  0  0  0  0  0
  -50.2929   -3.2633   15.2109 C   0  0  0  0  0  0
  -50.8285   -4.3114   17.8611 C   0  0  0  0  0  0
  -52.1248   -5.7974   17.2518 C   0  0  0  0  0  0
  -53.0497   -5.5852   15.3161 C   0  0  0  0  0  0
  -52.7736   -6.5849   16.8790 C   0  0  0  0  0  0
  -48.5354    0.0143   16.9372 C   0  0  0  0  0  0
  -47.9225    0.3581   17.6486 C   0  0  0  0  0  0
  -53.2775   -6.4538   15.9257 C   0  0  0  0  0  0
  -53.5511   -4.2433   15.2097 C   0  0  0  0  0  0
  -51.9179   -7.5690   17.3286 C   0  0  0  0  0  0
  -53.2945   -7.4244   17.0396 C   0  0  0  0  0  0
  -46.6414   -0.1844   19.7949 C   0  0  0  0  0  0
  -45.6672   -0.1991   19.5697 C   0  0  0  0  0  0
  -44.9864   -0.3107   20.3017 C   0  0  0  0  0  0
  -46.2610   -0.4899   21.4608 C   0  0  0  0  0  0
  -45.2934   -0.6019   21.2133 C   0  0  0  0  0  0
  -44.8387   -0.6123   18.1024 C   0  0  0  0  0  0
  -46.4983    0.2400   22.6068 C   0  0  0  0  0  0
  -43.8794   -0.4141   17.8779 C   0  0  0  0  0  0
  -43.3456   -1.0989   17.3719 C   0  0  0  0  0  0
  -44.7904   -2.0074   17.0772 C   0  0  0  0  0  0
  -43.8311   -1.8092   16.8526 C   0  0  0  0  0  0
  -45.0665   -3.3227   17.3901 C   0  0  0  0  0  0
  -43.7530   -0.3191   20.9978 H   0  0  0  0  0  0
  -45.8563   -1.7715   21.7807 H   0  0  0  0  0  0
  -43.2588    0.5997   18.6485 H   0  0  0  0  0  0
  -42.3099   -1.9393   16.8943 H   0  0  0  0  0  0
  -43.0796   -2.7822   16.1494 H   0  0  0  0  0  0
  1 31  1  0  0  0
  1 47  1  0  0  0
  2 32  2  0  0  0
  3 47  1  0  0  0
  3 50  1  0  0  0
  4 46  2  0  0  0
  5 46  1  0  0  0
  6 48  1  0  0  0
  6 52  1  0  0  0
  7 49  1  0  0  0
  7 59  1  0  0  0
  8 51  1  0  0  0
  8 60  1  0  0  0
  9 52  1  0  0  0
  9 56  1  0  0  0
 11 53  1  0  0  0
 12 54  1  0  0  0
 12 61  1  0  0  0
 13 55  1  0  0  0
 13 62  1  0  0  0
 14 57  1  0  0  0
 14 63  1  0  0  0
 16 58  1  0  0  0
 17 19  1  0  0  0
 17 22  1  0  0  0
 17 33  1  0  0  0
 18 19  1  0  0  0
 18 29  1  0  0  0
 18 35  1  0  0  0
 19 32  1  0  0  0
 20 17  1  0  0  0
 20 28  1  0  0  0
 20 36  1  0  0  0
 21 18  1  0  0  0
 21 23  1  0  0  0
 21 24  1  0  0  0
 22 24  1  0  0  0
 23 31  1  0  0  0
 23 41  1  0  0  0
 23 42  1  0  0  0
 25 20  1  0  0  0
 25 26  1  0  0  0
 25 37  1  0  0  0
 26 27  1  0  0  0
 26 38  1  0  0  0
 27 30  1  0  0  0
 27 39  1  0  0  0
 27 44  1  0  0  0
 28 30  1  0  0  0
 29 34  1  0  0  0
 31 34  1  0  0  0
 32 37  1  0  0  0
 38 40  1  0  0  0
 39 43  1  0  0  0
 40 43  1  0  0  0
 40 45  1  0  0  0
 40 46  1  0  0  0
 47 48  1  0  0  0
 48 49  1  0  0  0
 49 51  1  0  0  0
 50 51  1  0  0  0
 50 53  1  0  0  0
 52 54  1  0  0  0
 53 10  1  0  0  0
 54 55  1  0  0  0
 55 57  1  0  0  0
 56 57  1  0  0  0
 56 58  1  0  0  0
 58 15  1  0  0  0
M  END
>  <CHROM.0>
175.97539978,-60.26557637,43.60590555

>  <CHROM.1>
-153.46128301,-71.06316012,-121.52982061,79.98354777,-166.59196652,-130.37535487
103.45727659,-173.51420604,107.59337326,132.77261851,103.87181225,105.23115107
-48.33875046,-2.42503776,17.97034889,0.47804134,0.45091331,1.21244910

>  <HEADER>
                                                                          

>  <MASTER>
        0    0    0    0    0    0    0    0  127    0  127    0          

>  <Name>
Diammonium.pdb

>  <RI>
-8.92128e+08

>  <Rbt.Current_Directory>
/root/miniconda3/envs/rdock/share/rxdock-2013.1.1_148c5bd1-0/data/ligands/prepped_ligands/Diammonium

>  <Rbt.Executable>
rbdock/0.1.0

>  <Rbt.Library>
librxdock.so/0.1.0

>  <Rbt.Parameter_File>
/root/miniconda3/envs/rdock/share/rxdock-2013.1.1_148c5bd1-0/data/scripts/dock.prm

>  <Rbt.Receptor>
def.prm

>  <SCORE>
-170.493

>  <SCORE.INTER>
-13.0378

>  <SCORE.INTER.CONST>
1

>  <SCORE.INTER.POLAR>
-0.262761

>  <SCORE.INTER.REPUL>
0.00240495

>  <SCORE.INTER.ROT>
7

>  <SCORE.INTER.VDW>
-24.5565

>  <SCORE.INTER.norm>
-0.22479

>  <SCORE.INTRA>
-157.564

>  <SCORE.INTRA.DIHEDRAL>
2.91351

>  <SCORE.INTRA.DIHEDRAL.0>
37.64

>  <SCORE.INTRA.POLAR>
-0.469936

>  <SCORE.INTRA.POLAR.0>
-0.371885

>  <SCORE.INTRA.REPUL>
-0.241776

>  <SCORE.INTRA.REPUL.0>
0.241776

>  <SCORE.INTRA.VDW>
-156.214

>  <SCORE.INTRA.VDW.0>
400.998

>  <SCORE.INTRA.norm>
-2.71663

>  <SCORE.RESTR>
0.788712

>  <SCORE.RESTR.CAVITY>
0.788712

>  <SCORE.RESTR.norm>
0.0135985

>  <SCORE.SYSTEM>
-0.67914

>  <SCORE.SYSTEM.CONST>
0

>  <SCORE.SYSTEM.DIHEDRAL>
0.678489

>  <SCORE.SYSTEM.VDW>
-1.01838

>  <SCORE.SYSTEM.norm>
-0.0117093

>  <SCORE.heavy>
58

>  <SCORE.norm>
-2.93953

>  <TITLE>
    Diammonium Glycyrrhizinate                                            

$$$$
Diammonium.pdb
  RxDock  02242110543D
librxdock.so/0.1.0
 63 69  0  0  0  0  0  0  0  0999 V2000
  -51.8060   -3.9168   18.2974 O   0  0  0  0  0  0
  -47.8429   -1.9038   17.4784 O   0  0  0  0  0  0
  -52.1452   -4.0899   16.6078 O   0  0  0  0  0  0
  -43.4566    2.4872   18.6169 O   0  5  0  0  0  0
  -42.9410    0.9227   18.0830 O   0  0  0  0  0  0
  -51.4856   -5.8861   18.4349 O   0  0  0  0  0  0
  -52.6321   -7.1868   17.0229 O   0  0  0  0  0  0
  -51.1965   -6.0896   14.8468 O   0  0  0  0  0  0
  -49.7797   -6.1742   18.5062 O   0  0  0  0  0  0
  -52.4568   -3.8146   14.3144 O   0  5  0  0  0  0
  -53.1558   -3.1796   15.7663 O   0  0  0  0  0  0
  -51.8309   -7.5831   19.8506 O   0  0  0  0  0  0
  -50.2895   -9.2794   18.1933 O   0  0  0  0  0  0
  -48.4178   -8.1578   19.9930 O   0  0  0  0  0  0
  -47.3968   -6.1963   18.7465 O   0  5  0  0  0  0
  -48.5530   -5.3655   17.7602 O   0  0  0  0  0  0
  -48.5350   -0.7409   19.7535 C   0  0  0  0  0  0
  -49.3797   -1.9554   18.7698 C   0  0  0  0  0  0
  -48.3126   -1.7193   19.2101 C   0  0  0  0  0  0
  -47.7063   -0.2075   19.9503 C   0  0  0  0  0  0
  -49.8978   -2.3920   19.7332 C   0  0  0  0  0  0
  -49.2776   -0.7966   20.4821 C   0  0  0  0  0  0
  -50.9856   -2.6825   19.3334 C   0  0  0  0  0  0
  -50.0954   -1.4256   20.3361 C   0  0  0  0  0  0
  -46.9861   -0.1419   19.2576 C   0  0  0  0  0  0
  -46.4024    0.8490   19.1501 C   0  0  0  0  0  0
  -46.1427    1.1258   20.2198 C   0  0  0  0  0  0
  -47.7042    0.4250   20.7798 C   0  0  0  0  0  0
  -49.3751   -2.6086   17.9033 C   0  0  0  0  0  0
  -46.8941    1.0588   20.9402 C   0  0  0  0  0  0
  -51.0499   -3.2727   18.4235 C   0  0  0  0  0  0
  -47.8050   -1.3256   18.2948 C   0  0  0  0  0  0
  -49.2492    0.3695   20.1527 C   0  0  0  0  0  0
  -50.2158   -3.2720   17.7285 C   0  0  0  0  0  0
  -49.0811   -1.2279   17.6364 C   0  0  0  0  0  0
  -47.7942   -0.6939   21.2376 C   0  0  0  0  0  0
  -47.0236   -0.7192   18.4422 C   0  0  0  0  0  0
  -45.3713    0.4985   18.6588 C   0  0  0  0  0  0
  -45.2746    1.7498   20.4116 C   0  0  0  0  0  0
  -44.4930    1.1147   18.8292 C   0  0  0  0  0  0
  -51.3898   -2.3632   20.1905 C   0  0  0  0  0  0
  -51.8659   -3.0468   19.6374 C   0  0  0  0  0  0
  -44.4676    1.7811   19.6866 C   0  0  0  0  0  0
  -46.5471    2.3989   20.5630 C   0  0  0  0  0  0
  -43.6451    0.0983   18.4409 C   0  0  0  0  0  0
  -43.6370    1.5112   18.4948 C   0  0  0  0  0  0
  -51.8470   -4.4884   17.4775 C   0  0  0  0  0  0
  -51.6868   -5.4731   17.5463 C   0  0  0  0  0  0
  -51.8732   -6.0664   16.7557 C   0  0  0  0  0  0
  -52.2831   -4.6759   15.8078 C   0  0  0  0  0  0
  -52.0261   -5.6464   15.8557 C   0  0  0  0  0  0
  -50.7183   -6.5219   18.5322 C   0  0  0  0  0  0
  -53.4518   -4.4059   15.1270 C   0  0  0  0  0  0
  -50.8895   -7.4598   18.8502 C   0  0  0  0  0  0
  -50.1213   -8.1060   18.8986 C   0  0  0  0  0  0
  -49.0118   -6.8093   18.6033 C   0  0  0  0  0  0
  -49.1829   -7.7471   18.9213 C   0  0  0  0  0  0
  -48.0697   -6.6852   17.6027 C   0  0  0  0  0  0
  -52.3474   -7.0793   15.8867 H   0  0  0  0  0  0
  -51.5810   -6.9549   15.5452 H   0  0  0  0  0  0
  -52.2534   -7.8365   18.7822 H   0  0  0  0  0  0
  -50.9242   -9.2380   19.1832 H   0  0  0  0  0  0
  -48.1195   -8.6806   18.9824 H   0  0  0  0  0  0
  1 31  1  0  0  0
  1 47  1  0  0  0
  2 32  2  0  0  0
  3 47  1  0  0  0
  3 50  1  0  0  0
  4 46  2  0  0  0
  5 46  1  0  0  0
  6 48  1  0  0  0
  6 52  1  0  0  0
  7 49  1  0  0  0
  7 59  1  0  0  0
  8 51  1  0  0  0
  8 60  1  0  0  0
  9 52  1  0  0  0
  9 56  1  0  0  0
 11 53  1  0  0  0
 12 54  1  0  0  0
 12 61  1  0  0  0
 13 55  1  0  0  0
 13 62  1  0  0  0
 14 57  1  0  0  0
 14 63  1  0  0  0
 16 58  1  0  0  0
 17 19  1  0  0  0
 17 22  1  0  0  0
 17 33  1  0  0  0
 18 19  1  0  0  0
 18 29  1  0  0  0
 18 35  1  0  0  0
 19 32  1  0  0  0
 20 17  1  0  0  0
 20 28  1  0  0  0
 20 36  1  0  0  0
 21 18  1  0  0  0
 21 23  1  0  0  0
 21 24  1  0  0  0
 22 24  1  0  0  0
 23 31  1  0  0  0
 23 41  1  0  0  0
 23 42  1  0  0  0
 25 20  1  0  0  0
 25 26  1  0  0  0
 25 37  1  0  0  0
 26 27  1  0  0  0
 26 38  1  0  0  0
 27 30  1  0  0  0
 27 39  1  0  0  0
 27 44  1  0  0  0
 28 30  1  0  0  0
 29 34  1  0  0  0
 31 34  1  0  0  0
 32 37  1  0  0  0
 38 40  1  0  0  0
 39 43  1  0  0  0
 40 43  1  0  0  0
 40 45  1  0  0  0
 40 46  1  0  0  0
 47 48  1  0  0  0
 48 49  1  0  0  0
 49 51  1  0  0  0
 50 51  1  0  0  0
 50 53  1  0  0  0
 52 54  1  0  0  0
 53 10  1  0  0  0
 54 55  1  0  0  0
 55 57  1  0  0  0
 56 57  1  0  0  0
 56 58  1  0  0  0
 58 15  1  0  0  0
M  END
>  <CHROM.0>
178.33107767,61.63281817,-55.52440034

>  <CHROM.1>
-177.48206462,-76.85877008,-132.25640633,72.41330418,178.01865186,41.66714229
99.99636622,-74.26004074,105.94303775,131.06013169,103.52961006,110.68294769
-49.06232342,-2.97302067,18.50630518,2.26833732,0.35506131,3.11932108

>  <HEADER>
                                                                          

>  <MASTER>
        0    0    0    0    0    0    0    0  127    0  127    0          

>  <Name>
Diammonium.pdb

>  <RI>
-8.92128e+08

>  <Rbt.Current_Directory>
/root/miniconda3/envs/rdock/share/rxdock-2013.1.1_148c5bd1-0/data/ligands/prepped_ligands/Diammonium

>  <Rbt.Executable>
rbdock/0.1.0

>  <Rbt.Library>
librxdock.so/0.1.0

>  <Rbt.Parameter_File>
/root/miniconda3/envs/rdock/share/rxdock-2013.1.1_148c5bd1-0/data/scripts/dock.prm

>  <Rbt.Receptor>
def.prm

>  <SCORE>
-181.377

>  <SCORE.INTER>
-15.0103

>  <SCORE.INTER.CONST>
1

>  <SCORE.INTER.POLAR>
-1.27442

>  <SCORE.INTER.REPUL>
0

>  <SCORE.INTER.ROT>
7

>  <SCORE.INTER.VDW>
-23.0773

>  <SCORE.INTER.norm>
-0.258799

>  <SCORE.INTRA>
-165.407

>  <SCORE.INTRA.DIHEDRAL>
0.78857

>  <SCORE.INTRA.DIHEDRAL.0>
37.64

>  <SCORE.INTRA.POLAR>
-0.556169

>  <SCORE.INTRA.POLAR.0>
-0.371885

>  <SCORE.INTRA.REPUL>
-0.135861

>  <SCORE.INTRA.REPUL.0>
0.241776

>  <SCORE.INTRA.VDW>
-163.231

>  <SCORE.INTRA.VDW.0>
400.998

>  <SCORE.INTRA.norm>
-2.85184

>  <SCORE.RESTR>
0

>  <SCORE.RESTR.CAVITY>
0

>  <SCORE.RESTR.norm>
0

>  <SCORE.SYSTEM>
-0.960179

>  <SCORE.SYSTEM.CONST>
0

>  <SCORE.SYSTEM.DIHEDRAL>
0.0670281

>  <SCORE.SYSTEM.POLAR>
-0.0105395

>  <SCORE.SYSTEM.VDW>
-0.957859

>  <SCORE.SYSTEM.norm>
-0.0165548

>  <SCORE.heavy>
58

>  <SCORE.norm>
-3.12719

>  <TITLE>
    Diammonium Glycyrrhizinate                                            

$$$$
Diammonium.pdb
  RxDock  02242110543D
librxdock.so/0.1.0
 63 69  0  0  0  0  0  0  0  0999 V2000
  -51.7850   -4.1480   18.3204 O   0  0  0  0  0  0
  -47.5614   -2.5703   18.0029 O   0  0  0  0  0  0
  -52.0610   -4.1075   16.6110 O   0  0  0  0  0  0
  -42.7860    0.3691   18.7555 O   0  5  0  0  0  0
  -43.2520    2.0116   18.4661 O   0  0  0  0  0  0
  -52.0994   -6.1231   18.3243 O   0  0  0  0  0  0
  -53.5072   -6.9148   16.7780 O   0  0  0  0  0  0
  -51.6767   -6.1976   14.7445 O   0  0  0  0  0  0
  -50.5085   -6.7206   17.9921 O   0  0  0  0  0  0
  -52.1441   -3.6565   14.3063 O   0  5  0  0  0  0
  -52.6565   -2.8723   15.7632 O   0  0  0  0  0  0
  -51.8432   -6.6438   20.4846 O   0  0  0  0  0  0
  -51.0963   -9.2744   19.7620 O   0  0  0  0  0  0
  -48.6604   -7.8380   19.8186 O   0  0  0  0  0  0
  -48.2460   -7.1443   17.3840 O   0  5  0  0  0  0
  -49.7232   -6.7766   16.5578 O   0  0  0  0  0  0
  -48.7587   -0.5536   19.2303 C   0  0  0  0  0  0
  -49.4051   -2.1016   18.6455 C   0  0  0  0  0  0
  -48.4947   -1.6635   19.2519 C   0  0  0  0  0  0
  -47.9711    0.0381   19.4294 C   0  0  0  0  0  0
  -50.2270   -2.0901   19.4890 C   0  0  0  0  0  0
  -49.6836   -0.3091   19.6429 C   0  0  0  0  0  0
  -51.1748   -2.5601   18.9338 C   0  0  0  0  0  0
  -50.4862   -0.9643   19.5309 C   0  0  0  0  0  0
  -47.0769   -0.1826   19.0362 C   0  0  0  0  0  0
  -46.3831    0.6800   18.7064 C   0  0  0  0  0  0
  -46.4197    1.4039   19.5799 C   0  0  0  0  0  0
  -48.1433    0.9688   19.8677 C   0  0  0  0  0  0
  -49.2180   -3.0670   18.1866 C   0  0  0  0  0  0
  -47.3518    1.6343   19.9875 C   0  0  0  0  0  0
  -51.0336   -3.4900   18.3898 C   0  0  0  0  0  0
  -47.7016   -1.6929   18.4642 C   0  0  0  0  0  0
  -49.4332    0.5965   18.8773 C   0  0  0  0  0  0
  -50.0376   -3.7663   18.0576 C   0  0  0  0  0  0
  -48.7102   -1.9327   17.4659 C   0  0  0  0  0  0
  -48.4847    0.1597   20.7034 C   0  0  0  0  0  0
  -46.9365   -1.0587   18.5755 C   0  0  0  0  0  0
  -45.2979    0.1830   18.7576 C   0  0  0  0  0  0
  -45.5834    2.0761   19.7485 C   0  0  0  0  0  0
  -44.4464    0.8391   18.9145 C   0  0  0  0  0  0
  -51.7752   -1.9117   19.4019 C   0  0  0  0  0  0
  -52.1397   -2.7829   19.0730 C   0  0  0  0  0  0
  -44.6010    1.8134   19.3693 C   0  0  0  0  0  0
  -46.7658    2.6857   19.2065 C   0  0  0  0  0  0
  -43.6379   -0.2175   19.2785 C   0  0  0  0  0  0
  -43.4921    1.0767   18.7281 C   0  0  0  0  0  0
  -51.9527   -4.6293   17.4596 C   0  0  0  0  0  0
  -52.1099   -5.6169   17.4616 C   0  0  0  0  0  0
  -52.4241   -6.0749   16.6230 C   0  0  0  0  0  0
  -52.3263   -4.5733   15.7653 C   0  0  0  0  0  0
  -52.3860   -5.5764   15.7512 C   0  0  0  0  0  0
  -51.3568   -6.7649   18.5222 C   0  0  0  0  0  0
  -53.3116   -3.9116   15.0626 C   0  0  0  0  0  0
  -51.3841   -7.3088   19.3668 C   0  0  0  0  0  0
  -50.6604   -7.9857   19.5345 C   0  0  0  0  0  0
  -49.7654   -7.3621   18.1892 C   0  0  0  0  0  0
  -49.7927   -7.9059   19.0338 C   0  0  0  0  0  0
  -49.3058   -8.0267   17.0706 C   0  0  0  0  0  0
  -52.5077   -7.4861   16.5373 H   0  0  0  0  0  0
  -51.1779   -6.3143   15.8037 H   0  0  0  0  0  0
  -52.6082   -7.4350   20.0685 H   0  0  0  0  0  0
  -50.2251   -8.9455   20.4812 H   0  0  0  0  0  0
  -48.7733   -8.8640   19.2546 H   0  0  0  0  0  0
  1 31  1  0  0  0
  1 47  1  0  0  0
  2 32  2  0  0  0
  3 47  1  0  0  0
  3 50  1  0  0  0
  4 46  2  0  0  0
  5 46  1  0  0  0
  6 48  1  0  0  0
  6 52  1  0  0  0
  7 49  1  0  0  0
  7 59  1  0  0  0
  8 51  1  0  0  0
  8 60  1  0  0  0
  9 52  1  0  0  0
  9 56  1  0  0  0
 11 53  1  0  0  0
 12 54  1  0  0  0
 12 61  1  0  0  0
 13 55  1  0  0  0
 13 62  1  0  0  0
 14 57  1  0  0  0
 14 63  1  0  0  0
 16 58  1  0  0  0
 17 19  1  0  0  0
 17 22  1  0  0  0
 17 33  1  0  0  0
 18 19  1  0  0  0
 18 29  1  0  0  0
 18 35  1  0  0  0
 19 32  1  0  0  0
 20 17  1  0  0  0
 20 28  1  0  0  0
 20 36  1  0  0  0
 21 18  1  0  0  0
 21 23  1  0  0  0
 21 24  1  0  0  0
 22 24  1  0  0  0
 23 31  1  0  0  0
 23 41  1  0  0  0
 23 42  1  0  0  0
 25 20  1  0  0  0
 25 26  1  0  0  0
 25 37  1  0  0  0
 26 27  1  0  0  0
 26 38  1  0  0  0
 27 30  1  0  0  0
 27 39  1  0  0  0
 27 44  1  0  0  0
 28 30  1  0  0  0
 29 34  1  0  0  0
 31 34  1  0  0  0
 32 37  1  0  0  0
 38 40  1  0  0  0
 39 43  1  0  0  0
 40 43  1  0  0  0
 40 45  1  0  0  0
 40 46  1  0  0  0
 47 48  1  0  0  0
 48 49  1  0  0  0
 49 51  1  0  0  0
 50 51  1  0  0  0
 50 53  1  0  0  0
 52 54  1  0  0  0
 53 10  1  0  0  0
 54 55  1  0  0  0
 55 57  1  0  0  0
 56 57  1  0  0  0
 56 58  1  0  0  0
 58 15  1  0  0  0
M  END
>  <CHROM.0>
-158.37302965,66.64310714,58.77718500

>  <CHROM.1>
139.54072831,-53.05673425,-110.77828127,16.77385091,-110.85346164,-39.02654558
107.79532415,-137.92837293,107.97658388,-46.21102954,105.61678764,109.03765434
-49.30500372,-3.03367319,18.32839053,2.26380219,0.31920873,3.10114524

>  <HEADER>
                                                                          

>  <MASTER>
        0    0    0    0    0    0    0    0  127    0  127    0          

>  <Name>
Diammonium.pdb

>  <RI>
-8.92128e+08

>  <Rbt.Current_Directory>
/root/miniconda3/envs/rdock/share/rxdock-2013.1.1_148c5bd1-0/data/ligands/prepped_ligands/Diammonium

>  <Rbt.Executable>
rbdock/0.1.0

>  <Rbt.Library>
librxdock.so/0.1.0

>  <Rbt.Parameter_File>
/root/miniconda3/envs/rdock/share/rxdock-2013.1.1_148c5bd1-0/data/scripts/dock.prm

>  <Rbt.Receptor>
def.prm

>  <SCORE>
-176.867

>  <SCORE.INTER>
-13.4437

>  <SCORE.INTER.CONST>
1

>  <SCORE.INTER.POLAR>
-0.614937

>  <SCORE.INTER.REPUL>
0

>  <SCORE.INTER.ROT>
7

>  <SCORE.INTER.VDW>
-23.7529

>  <SCORE.INTER.norm>
-0.231788

>  <SCORE.INTRA>
-163.121

>  <SCORE.INTRA.DIHEDRAL>
6.05781

>  <SCORE.INTRA.DIHEDRAL.0>
37.64

>  <SCORE.INTRA.POLAR>
-0.970091

>  <SCORE.INTRA.POLAR.0>
-0.371885

>  <SCORE.INTRA.REPUL>
-0.241776

>  <SCORE.INTRA.REPUL.0>
0.241776

>  <SCORE.INTRA.VDW>
-161.643

>  <SCORE.INTRA.VDW.0>
400.998

>  <SCORE.INTRA.norm>
-2.81243

>  <SCORE.RESTR>
0

>  <SCORE.RESTR.CAVITY>
0

>  <SCORE.RESTR.norm>
0

>  <SCORE.SYSTEM>
-0.302308

>  <SCORE.SYSTEM.CONST>
0

>  <SCORE.SYSTEM.DIHEDRAL>
1.24354

>  <SCORE.SYSTEM.VDW>
-0.924078

>  <SCORE.SYSTEM.norm>
-0.0052122

>  <SCORE.heavy>
58

>  <SCORE.norm>
-3.04943

>  <TITLE>
    Diammonium Glycyrrhizinate                                            

$$$$
Diammonium.pdb
  RxDock  02242110553D
librxdock.so/0.1.0
 63 69  0  0  0  0  0  0  0  0999 V2000
  -51.8171   -3.9473   18.4141 O   0  0  0  0  0  0
  -47.8969   -1.8920   17.4993 O   0  0  0  0  0  0
  -52.1907   -4.1566   16.7359 O   0  0  0  0  0  0
  -43.0316    0.9994   17.9520 O   0  5  0  0  0  0
  -43.5669    2.5639   18.4660 O   0  0  0  0  0  0
  -51.4406   -5.9050   18.5744 O   0  0  0  0  0  0
  -52.5841   -7.2582   17.2102 O   0  0  0  0  0  0
  -51.2297   -6.1584   14.9841 O   0  0  0  0  0  0
  -49.7351   -5.9613   18.2804 O   0  0  0  0  0  0
  -52.5589   -3.9614   14.4272 O   0  5  0  0  0  0
  -53.2247   -3.2761   15.8719 O   0  0  0  0  0  0
  -51.1178   -6.7740   20.6101 O   0  0  0  0  0  0
  -49.6250   -8.8889   19.4705 O   0  0  0  0  0  0
  -47.7060   -6.8853   20.0207 O   0  0  0  0  0  0
  -47.4975   -5.5388   17.7543 O   0  5  0  0  0  0
  -49.0069   -5.5700   16.9053 O   0  0  0  0  0  0
  -48.5518   -0.7277   19.7846 C   0  0  0  0  0  0
  -49.4040   -1.9560   18.8247 C   0  0  0  0  0  0
  -48.3301   -1.7057   19.2403 C   0  0  0  0  0  0
  -47.7253   -0.1839   19.9608 C   0  0  0  0  0  0
  -49.8954   -2.3945   19.8011 C   0  0  0  0  0  0
  -49.2774   -0.7889   20.5297 C   0  0  0  0  0  0
  -50.9883   -2.6992   19.4267 C   0  0  0  0  0  0
  -50.0909   -1.4280   20.4044 C   0  0  0  0  0  0
  -47.0214   -0.1129   19.2520 C   0  0  0  0  0  0
  -46.4519    0.8843   19.1277 C   0  0  0  0  0  0
  -46.1717    1.1685   20.1903 C   0  0  0  0  0  0
  -47.7121    0.4520   20.7876 C   0  0  0  0  0  0
  -49.4110   -2.6128   17.9609 C   0  0  0  0  0  0
  -46.9061    1.0958   20.9274 C   0  0  0  0  0  0
  -51.0659   -3.2940   18.5208 C   0  0  0  0  0  0
  -47.8476   -1.3100   18.3124 C   0  0  0  0  0  0
  -49.2699    0.3761   20.1952 C   0  0  0  0  0  0
  -50.2476   -3.2865   17.8075 C   0  0  0  0  0  0
  -49.1390   -1.2299   17.6821 C   0  0  0  0  0  0
  -47.7789   -0.6659   21.2517 C   0  0  0  0  0  0
  -47.0703   -0.6940   18.4399 C   0  0  0  0  0  0
  -45.4279    0.5437   18.6150 C   0  0  0  0  0  0
  -45.3070    1.8034   20.3602 C   0  0  0  0  0  0
  -44.5533    1.1707   18.7633 C   0  0  0  0  0  0
  -51.3772   -2.3811   20.2914 C   0  0  0  0  0  0
  -51.8573   -3.0725   19.7516 C   0  0  0  0  0  0
  -44.5167    1.8410   19.6173 C   0  0  0  0  0  0
  -46.5832    2.4383   20.5373 C   0  0  0  0  0  0
  -43.7024    0.1626   18.3603 C   0  0  0  0  0  0
  -43.7096    1.5757   18.4084 C   0  0  0  0  0  0
  -51.8617   -4.5330   17.6043 C   0  0  0  0  0  0
  -51.6734   -5.5118   17.6845 C   0  0  0  0  0  0
  -51.8621   -6.1225   16.9079 C   0  0  0  0  0  0
  -52.3313   -4.7589   15.9485 C   0  0  0  0  0  0
  -52.0472   -5.7212   16.0053 C   0  0  0  0  0  0
  -50.5522   -6.3456   18.7130 C   0  0  0  0  0  0
  -53.5225   -4.5310   15.2916 C   0  0  0  0  0  0
  -50.4506   -7.0398   19.4325 C   0  0  0  0  0  0
  -49.5693   -7.5122   19.5332 C   0  0  0  0  0  0
  -48.8463   -6.4012   18.4183 C   0  0  0  0  0  0
  -48.7447   -7.0954   19.1378 C   0  0  0  0  0  0
  -48.1787   -6.6664   17.2401 C   0  0  0  0  0  0
  -51.4757   -7.4849   16.8885 H   0  0  0  0  0  0
  -52.3046   -6.6360   14.9547 H   0  0  0  0  0  0
  -50.9277   -5.8135   19.9575 H   0  0  0  0  0  0
  -50.2254   -8.4411   20.3779 H   0  0  0  0  0  0
  -47.8965   -8.0230   19.7907 H   0  0  0  0  0  0
  1 31  1  0  0  0
  1 47  1  0  0  0
  2 32  2  0  0  0
  3 47  1  0  0  0
  3 50  1  0  0  0
  4 46  2  0  0  0
  5 46  1  0  0  0
  6 48  1  0  0  0
  6 52  1  0  0  0
  7 49  1  0  0  0
  7 59  1  0  0  0
  8 51  1  0  0  0
  8 60  1  0  0  0
  9 52  1  0  0  0
  9 56  1  0  0  0
 11 53  1  0  0  0
 12 54  1  0  0  0
 12 61  1  0  0  0
 13 55  1  0  0  0
 13 62  1  0  0  0
 14 57  1  0  0  0
 14 63  1  0  0  0
 16 58  1  0  0  0
 17 19  1  0  0  0
 17 22  1  0  0  0
 17 33  1  0  0  0
 18 19  1  0  0  0
 18 29  1  0  0  0
 18 35  1  0  0  0
 19 32  1  0  0  0
 20 17  1  0  0  0
 20 28  1  0  0  0
 20 36  1  0  0  0
 21 18  1  0  0  0
 21 23  1  0  0  0
 21 24  1  0  0  0
 22 24  1  0  0  0
 23 31  1  0  0  0
 23 41  1  0  0  0
 23 42  1  0  0  0
 25 20  1  0  0  0
 25 26  1  0  0  0
 25 37  1  0  0  0
 26 27  1  0  0  0
 26 38  1  0  0  0
 27 30  1  0  0  0
 27 39  1  0  0  0
 27 44  1  0  0  0
 28 30  1  0  0  0
 29 34  1  0  0  0
 31 34  1  0  0  0
 32 37  1  0  0  0
 38 40  1  0  0  0
 39 43  1  0  0  0
 40 43  1  0  0  0
 40 45  1  0  0  0
 40 46  1  0  0  0
 47 48  1  0  0  0
 48 49  1  0  0  0
 49 51  1  0  0  0
 50 51  1  0  0  0
 50 53  1  0  0  0
 52 54  1  0  0  0
 53 10  1  0  0  0
 54 55  1  0  0  0
 55 57  1  0  0  0
 56 57  1  0  0  0
 56 58  1  0  0  0
 58 15  1  0  0  0
M  END
>  <CHROM.0>
177.39144552,-61.61769278,59.23203730

>  <CHROM.1>
-176.52145303,-78.06240085,-118.53160341,37.69604161,-112.72225474,103.79249292
-20.91028990,-62.76452583,69.71312969,-49.88854549,105.19781230,104.17109528
-49.02564280,-2.87582489,18.56234084,2.28149936,0.34700823,3.11237431

>  <HEADER>
                                                                          

>  <MASTER>
        0    0    0    0    0    0    0    0  127    0  127    0          

>  <Name>
Diammonium.pdb

>  <RI>
-8.92128e+08

>  <Rbt.Current_Directory>
/root/miniconda3/envs/rdock/share/rxdock-2013.1.1_148c5bd1-0/data/ligands/prepped_ligands/Diammonium

>  <Rbt.Executable>
rbdock/0.1.0

>  <Rbt.Library>
librxdock.so/0.1.0

>  <Rbt.Parameter_File>
/root/miniconda3/envs/rdock/share/rxdock-2013.1.1_148c5bd1-0/data/scripts/dock.prm

>  <Rbt.Receptor>
def.prm

>  <SCORE>
-181.588

>  <SCORE.INTER>
-11.1394

>  <SCORE.INTER.CONST>
1

>  <SCORE.INTER.POLAR>
-0.423552

>  <SCORE.INTER.REPUL>
0

>  <SCORE.INTER.ROT>
7

>  <SCORE.INTER.VDW>
-22.0993

>  <SCORE.INTER.norm>
-0.192058

>  <SCORE.INTRA>
-169.409

>  <SCORE.INTRA.DIHEDRAL>
3.32822

>  <SCORE.INTRA.DIHEDRAL.0>
37.64

>  <SCORE.INTRA.POLAR>
0.0790927

>  <SCORE.INTRA.POLAR.0>
-0.371885

>  <SCORE.INTRA.REPUL>
-0.201882

>  <SCORE.INTRA.REPUL.0>
0.241776

>  <SCORE.INTRA.VDW>
-170.333

>  <SCORE.INTRA.VDW.0>
400.998

>  <SCORE.INTRA.norm>
-2.92085

>  <SCORE.RESTR>
0.000808663

>  <SCORE.RESTR.CAVITY>
0.000808663

>  <SCORE.RESTR.norm>
1.39425e-05

>  <SCORE.SYSTEM>
-1.03981

>  <SCORE.SYSTEM.CONST>
0

>  <SCORE.SYSTEM.DIHEDRAL>
0.0338732

>  <SCORE.SYSTEM.VDW>
-1.05675

>  <SCORE.SYSTEM.norm>
-0.0179278

>  <SCORE.heavy>
58

>  <SCORE.norm>
-3.13082

>  <TITLE>
    Diammonium Glycyrrhizinate                                            

$$$$
Diammonium.pdb
  RxDock  02242110553D
librxdock.so/0.1.0
 63 69  0  0  0  0  0  0  0  0999 V2000
  -49.0410   -3.6343   17.6786 O   0  0  0  0  0  0
  -50.6796   -0.0224   15.5110 O   0  0  0  0  0  0
  -49.7005   -3.0571   19.1725 O   0  0  0  0  0  0
  -50.3328    4.5250   11.1712 O   0  5  0  0  0  0
  -51.8903    3.8350   11.4821 O   0  0  0  0  0  0
  -50.3695   -5.1293   17.6698 O   0  0  0  0  0  0
  -51.0500   -5.8742   19.6652 O   0  0  0  0  0  0
  -52.3318   -3.4002   20.1516 O   0  0  0  0  0  0
  -51.7147   -4.6440   16.6934 O   0  0  0  0  0  0
  -50.4512   -1.8513   21.0589 O   0  5  0  0  0  0
  -48.9255   -2.2350   20.3343 O   0  0  0  0  0  0
  -50.3171   -7.1018   16.6163 O   0  0  0  0  0  0
  -53.0699   -7.4633   17.1564 O   0  0  0  0  0  0
  -53.0077   -6.1293   14.6632 O   0  0  0  0  0  0
  -53.1715   -3.4999   15.3405 O   0  5  0  0  0  0
  -52.5301   -3.3151   16.9388 O   0  0  0  0  0  0
  -48.6237   -0.6450   13.9643 C   0  0  0  0  0  0
  -49.2117   -1.3918   15.4652 C   0  0  0  0  0  0
  -49.6066   -0.9892   14.4306 C   0  0  0  0  0  0
  -48.7573    0.0016   13.2066 C   0  0  0  0  0  0
  -48.7930   -2.4378   15.1223 C   0  0  0  0  0  0
  -47.8956   -1.3839   13.8674 C   0  0  0  0  0  0
  -48.4047   -2.9106   16.1485 C   0  0  0  0  0  0
  -47.8124   -2.1230   14.5973 C   0  0  0  0  0  0
  -49.4508    0.7195   13.2877 C   0  0  0  0  0  0
  -49.2374    1.7573   12.8277 C   0  0  0  0  0  0
  -48.8353    1.5160   11.7941 C   0  0  0  0  0  0
  -48.0421    0.0376   12.4482 C   0  0  0  0  0  0
  -49.9585   -1.4209   16.2520 C   0  0  0  0  0  0
  -48.1118    0.7693   11.7110 C   0  0  0  0  0  0
  -49.0808   -2.9001   16.9989 C   0  0  0  0  0  0
  -50.0283   -0.0043   14.7510 C   0  0  0  0  0  0
  -47.2811   -0.3393   13.8842 C   0  0  0  0  0  0
  -49.8929   -2.1802   17.0244 C   0  0  0  0  0  0
  -49.3588   -0.1366   16.0181 C   0  0  0  0  0  0
  -48.5375   -1.0655   12.3613 C   0  0  0  0  0  0
  -50.1014    0.7017   14.0466 C   0  0  0  0  0  0
  -50.3330    2.1964   12.6423 C   0  0  0  0  0  0
  -48.9383    2.2491   10.9993 C   0  0  0  0  0  0
  -50.4558    2.9393   11.8591 C   0  0  0  0  0  0
  -47.6115   -3.2945   15.6757 C   0  0  0  0  0  0
  -47.9419   -3.7153   16.5205 C   0  0  0  0  0  0
  -49.7237    2.9958   11.0586 C   0  0  0  0  0  0
  -47.6144    2.1040   11.5374 C   0  0  0  0  0  0
  -51.8225    2.7546   11.8316 C   0  0  0  0  0  0
  -50.8928    3.7732   11.5194 C   0  0  0  0  0  0
  -49.7347   -3.6910   18.3972 C   0  0  0  0  0  0
  -50.3989   -4.4385   18.3928 C   0  0  0  0  0  0
  -50.9968   -4.5808   19.1890 C   0  0  0  0  0  0
  -50.3302   -3.1709   19.9426 C   0  0  0  0  0  0
  -51.0588   -3.8610   19.8875 C   0  0  0  0  0  0
  -51.2010   -5.3634   17.1635 C   0  0  0  0  0  0
  -49.7167   -3.0545   21.1724 C   0  0  0  0  0  0
  -51.4042   -6.3271   16.9636 C   0  0  0  0  0  0
  -52.2645   -6.5576   16.4980 C   0  0  0  0  0  0
  -52.5463   -4.8772   16.1869 C   0  0  0  0  0  0
  -52.7495   -5.8409   15.9871 C   0  0  0  0  0  0
  -53.6336   -4.1016   16.5341 C   0  0  0  0  0  0
  -51.9512   -5.2097   20.0254 H   0  0  0  0  0  0
  -51.9604   -3.1409   19.0657 H   0  0  0  0  0  0
  -50.3296   -6.8033   17.7544 H   0  0  0  0  0  0
  -53.6159   -6.9161   16.2694 H   0  0  0  0  0  0
  -53.3366   -6.9871   15.3976 H   0  0  0  0  0  0
  1 31  1  0  0  0
  1 47  1  0  0  0
  2 32  2  0  0  0
  3 47  1  0  0  0
  3 50  1  0  0  0
  4 46  2  0  0  0
  5 46  1  0  0  0
  6 48  1  0  0  0
  6 52  1  0  0  0
  7 49  1  0  0  0
  7 59  1  0  0  0
  8 51  1  0  0  0
  8 60  1  0  0  0
  9 52  1  0  0  0
  9 56  1  0  0  0
 11 53  1  0  0  0
 12 54  1  0  0  0
 12 61  1  0  0  0
 13 55  1  0  0  0
 13 62  1  0  0  0
 14 57  1  0  0  0
 14 63  1  0  0  0
 16 58  1  0  0  0
 17 19  1  0  0  0
 17 22  1  0  0  0
 17 33  1  0  0  0
 18 19  1  0  0  0
 18 29  1  0  0  0
 18 35  1  0  0  0
 19 32  1  0  0  0
 20 17  1  0  0  0
 20 28  1  0  0  0
 20 36  1  0  0  0
 21 18  1  0  0  0
 21 23  1  0  0  0
 21 24  1  0  0  0
 22 24  1  0  0  0
 23 31  1  0  0  0
 23 41  1  0  0  0
 23 42  1  0  0  0
 25 20  1  0  0  0
 25 26  1  0  0  0
 25 37  1  0  0  0
 26 27  1  0  0  0
 26 38  1  0  0  0
 27 30  1  0  0  0
 27 39  1  0  0  0
 27 44  1  0  0  0
 28 30  1  0  0  0
 29 34  1  0  0  0
 31 34  1  0  0  0
 32 37  1  0  0  0
 38 40  1  0  0  0
 39 43  1  0  0  0
 40 43  1  0  0  0
 40 45  1  0  0  0
 40 46  1  0  0  0
 47 48  1  0  0  0
 48 49  1  0  0  0
 49 51  1  0  0  0
 50 51  1  0  0  0
 50 53  1  0  0  0
 52 54  1  0  0  0
 53 10  1  0  0  0
 54 55  1  0  0  0
 55 57  1  0  0  0
 56 57  1  0  0  0
 56 58  1  0  0  0
 58 15  1  0  0  0
M  END
>  <CHROM.0>
54.94351653,51.10089667,76.15391261

>  <CHROM.1>
-172.27700769,-75.64419080,-129.61798237,55.91497664,-161.48842720,-66.28494123
71.43988913,167.12265383,50.01621786,128.19548304,106.89358272,99.52316797
-50.16168339,-1.91873760,15.60450444,-1.82129480,-0.81824513,-0.91290904

>  <HEADER>
                                                                          

>  <MASTER>
        0    0    0    0    0    0    0    0  127    0  127    0          

>  <Name>
Diammonium.pdb

>  <RI>
-8.92128e+08

>  <Rbt.Current_Directory>
/root/miniconda3/envs/rdock/share/rxdock-2013.1.1_148c5bd1-0/data/ligands/prepped_ligands/Diammonium

>  <Rbt.Executable>
rbdock/0.1.0

>  <Rbt.Library>
librxdock.so/0.1.0

>  <Rbt.Parameter_File>
/root/miniconda3/envs/rdock/share/rxdock-2013.1.1_148c5bd1-0/data/scripts/dock.prm

>  <Rbt.Receptor>
def.prm

>  <SCORE>
-138.783

>  <SCORE.INTER>
14.7176

>  <SCORE.INTER.CONST>
1

>  <SCORE.INTER.POLAR>
-0.166021

>  <SCORE.INTER.REPUL>
0

>  <SCORE.INTER.ROT>
7

>  <SCORE.INTER.VDW>
2.88209

>  <SCORE.INTER.norm>
0.253752

>  <SCORE.INTRA>
-153.542

>  <SCORE.INTRA.DIHEDRAL>
-4.57829

>  <SCORE.INTRA.DIHEDRAL.0>
37.64

>  <SCORE.INTRA.POLAR>
-1.04969

>  <SCORE.INTRA.POLAR.0>
-0.371885

>  <SCORE.INTRA.REPUL>
-0.177504

>  <SCORE.INTRA.REPUL.0>
0.241776

>  <SCORE.INTRA.VDW>
-146.797

>  <SCORE.INTRA.VDW.0>
400.998

>  <SCORE.INTRA.norm>
-2.64728

>  <SCORE.RESTR>
0.0912666

>  <SCORE.RESTR.CAVITY>
0.0912666

>  <SCORE.RESTR.norm>
0.00157356

>  <SCORE.SYSTEM>
-0.0493529

>  <SCORE.SYSTEM.CONST>
0

>  <SCORE.SYSTEM.DIHEDRAL>
1.04508

>  <SCORE.SYSTEM.POLAR>
-0.0187912

>  <SCORE.SYSTEM.VDW>
-0.508005

>  <SCORE.SYSTEM.norm>
-0.000850911

>  <SCORE.heavy>
58

>  <SCORE.norm>
-2.39281

>  <TITLE>
    Diammonium Glycyrrhizinate                                            

$$$$
Diammonium.pdb
  RxDock  02242110553D
librxdock.so/0.1.0
 63 69  0  0  0  0  0  0  0  0999 V2000
  -51.8795   -3.5606   17.8049 O   0  0  0  0  0  0
  -47.5732   -2.3009   18.3504 O   0  0  0  0  0  0
  -51.4772   -4.5518   16.4427 O   0  0  0  0  0  0
  -42.8328    0.2298   20.1466 O   0  5  0  0  0  0
  -43.1229    1.9064   19.8248 O   0  0  0  0  0  0
  -52.1973   -5.2007   18.9045 O   0  0  0  0  0  0
  -52.9134   -7.0147   17.8107 O   0  0  0  0  0  0
  -50.4331   -7.1803   16.4616 O   0  0  0  0  0  0
  -50.6998   -5.6460   19.6511 O   0  0  0  0  0  0
  -50.6638   -5.4880   14.4559 O   0  5  0  0  0  0
  -51.7030   -4.1745   14.8971 O   0  0  0  0  0  0
  -53.1438   -5.0039   20.9216 O   0  0  0  0  0  0
  -52.2484   -7.6010   21.5951 O   0  0  0  0  0  0
  -50.1471   -5.8941   22.4139 O   0  0  0  0  0  0
  -48.4802   -5.9542   20.5375 O   0  5  0  0  0  0
  -49.2222   -5.9833   18.9727 O   0  0  0  0  0  0
  -48.8378   -0.2527   19.4516 C   0  0  0  0  0  0
  -49.4680   -1.7196   18.6725 C   0  0  0  0  0  0
  -48.6583   -1.3795   19.4580 C   0  0  0  0  0  0
  -48.0625    0.2674   19.8236 C   0  0  0  0  0  0
  -50.4294   -1.6811   19.3517 C   0  0  0  0  0  0
  -49.8044    0.0444   19.7022 C   0  0  0  0  0  0
  -51.2874   -2.0524   18.6077 C   0  0  0  0  0  0
  -50.6149   -0.5415   19.4093 C   0  0  0  0  0  0
  -47.1279   -0.0043   19.5878 C   0  0  0  0  0  0
  -46.3281    0.8156   19.4389 C   0  0  0  0  0  0
  -46.4769    1.5019   20.3306 C   0  0  0  0  0  0
  -48.2495    1.1890   20.2752 C   0  0  0  0  0  0
  -49.2649   -2.6759   18.2014 C   0  0  0  0  0  0
  -47.4506    1.7857   20.5743 C   0  0  0  0  0  0
  -51.1111   -2.9660   18.0469 C   0  0  0  0  0  0
  -47.7367   -1.4360   18.8273 C   0  0  0  0  0  0
  -49.3555    0.9602   19.0473 C   0  0  0  0  0  0
  -50.0919   -3.3038   17.8863 C   0  0  0  0  0  0
  -48.5565   -1.5541   17.6503 C   0  0  0  0  0  0
  -48.7940    0.3733   20.9878 C   0  0  0  0  0  0
  -46.9643   -0.8680   19.1116 C   0  0  0  0  0  0
  -45.3075    0.2347   19.6584 C   0  0  0  0  0  0
  -45.6427    2.0997   20.6862 C   0  0  0  0  0  0
  -44.4574    0.8159   20.0043 C   0  0  0  0  0  0
  -51.9188   -1.3804   18.9948 C   0  0  0  0  0  0
  -52.2742   -2.2059   18.5564 C   0  0  0  0  0  0
  -44.6272    1.7786   20.4778 C   0  0  0  0  0  0
  -46.6599    2.8214   19.9736 C   0  0  0  0  0  0
  -43.8040   -0.3147   20.4490 C   0  0  0  0  0  0
  -43.4712    0.9870   20.0083 C   0  0  0  0  0  0
  -51.7101   -4.4655   17.4136 C   0  0  0  0  0  0
  -51.8689   -5.2856   17.9634 C   0  0  0  0  0  0
  -51.8429   -6.1920   17.5283 C   0  0  0  0  0  0
  -51.4035   -5.4576   16.0225 C   0  0  0  0  0  0
  -51.4664   -6.2773   16.6004 C   0  0  0  0  0  0
  -51.7010   -5.6442   19.6525 C   0  0  0  0  0  0
  -52.0345   -5.5458   14.7992 C   0  0  0  0  0  0
  -52.1946   -5.9058   20.4878 C   0  0  0  0  0  0
  -51.7001   -6.3942   21.2137 C   0  0  0  0  0  0
  -50.2026   -6.0893   20.3986 C   0  0  0  0  0  0
  -50.6963   -6.3509   21.2340 C   0  0  0  0  0  0
  -49.2526   -6.9910   19.9644 C   0  0  0  0  0  0
  -51.8938   -7.4172   18.2369 H   0  0  0  0  0  0
  -50.1719   -6.1095   16.0499 H   0  0  0  0  0  0
  -53.3390   -6.1009   21.2997 H   0  0  0  0  0  0
  -51.4068   -7.2225   22.3250 H   0  0  0  0  0  0
  -49.7843   -5.2933   21.4700 H   0  0  0  0  0  0
  1 31  1  0  0  0
  1 47  1  0  0  0
  2 32  2  0  0  0
  3 47  1  0  0  0
  3 50  1  0  0  0
  4 46  2  0  0  0
  5 46  1  0  0  0
  6 48  1  0  0  0
  6 52  1  0  0  0
  7 49  1  0  0  0
  7 59  1  0  0  0
  8 51  1  0  0  0
  8 60  1  0  0  0
  9 52  1  0  0  0
  9 56  1  0  0  0
 11 53  1  0  0  0
 12 54  1  0  0  0
 12 61  1  0  0  0
 13 55  1  0  0  0
 13 62  1  0  0  0
 14 57  1  0  0  0
 14 63  1  0  0  0
 16 58  1  0  0  0
 17 19  1  0  0  0
 17 22  1  0  0  0
 17 33  1  0  0  0
 18 19  1  0  0  0
 18 29  1  0  0  0
 18 35  1  0  0  0
 19 32  1  0  0  0
 20 17  1  0  0  0
 20 28  1  0  0  0
 20 36  1  0  0  0
 21 18  1  0  0  0
 21 23  1  0  0  0
 21 24  1  0  0  0
 22 24  1  0  0  0
 23 31  1  0  0  0
 23 41  1  0  0  0
 23 42  1  0  0  0
 25 20  1  0  0  0
 25 26  1  0  0  0
 25 37  1  0  0  0
 26 27  1  0  0  0
 26 38  1  0  0  0
 27 30  1  0  0  0
 27 39  1  0  0  0
 27 44  1  0  0  0
 28 30  1  0  0  0
 29 34  1  0  0  0
 31 34  1  0  0  0
 32 37  1  0  0  0
 38 40  1  0  0  0
 39 43  1  0  0  0
 40 43  1  0  0  0
 40 45  1  0  0  0
 40 46  1  0  0  0
 47 48  1  0  0  0
 48 49  1  0  0  0
 49 51  1  0  0  0
 50 51  1  0  0  0
 50 53  1  0  0  0
 52 54  1  0  0  0
 53 10  1  0  0  0
 54 55  1  0  0  0
 55 57  1  0  0  0
 56 57  1  0  0  0
 56 58  1  0  0  0
 58 15  1  0  0  0
M  END
>  <CHROM.0>
-51.45787580,-174.65455131,-60.56081919

>  <CHROM.1>
-170.69258531,-79.09989757,-126.37212250,39.60578774,-114.42719034,-126.88553500
156.40380679,-168.38306689,-125.60997349,-47.74558318,104.77347306,112.40160056
-49.31096071,-2.71850437,19.05602190,2.75242948,0.80550066,2.32156701

>  <HEADER>
                                                                          

>  <MASTER>
        0    0    0    0    0    0    0    0  127    0  127    0          

>  <Name>
Diammonium.pdb

>  <RI>
-8.92128e+08

>  <Rbt.Current_Directory>
/root/miniconda3/envs/rdock/share/rxdock-2013.1.1_148c5bd1-0/data/ligands/prepped_ligands/Diammonium

>  <Rbt.Executable>
rbdock/0.1.0

>  <Rbt.Library>
librxdock.so/0.1.0

>  <Rbt.Parameter_File>
/root/miniconda3/envs/rdock/share/rxdock-2013.1.1_148c5bd1-0/data/scripts/dock.prm

>  <Rbt.Receptor>
def.prm

>  <SCORE>
-166.623

>  <SCORE.INTER>
-5.7826

>  <SCORE.INTER.CONST>
1

>  <SCORE.INTER.POLAR>
-0.55283

>  <SCORE.INTER.REPUL>
0.0943021

>  <SCORE.INTER.ROT>
7

>  <SCORE.INTER.VDW>
-16.7745

>  <SCORE.INTER.norm>
-0.0997001

>  <SCORE.INTRA>
-160.64

>  <SCORE.INTRA.DIHEDRAL>
5.99621

>  <SCORE.INTRA.DIHEDRAL.0>
37.64

>  <SCORE.INTRA.POLAR>
0.235547

>  <SCORE.INTRA.POLAR.0>
-0.371885

>  <SCORE.INTRA.REPUL>
-0.162839

>  <SCORE.INTRA.REPUL.0>
0.241776

>  <SCORE.INTRA.VDW>
-163.624

>  <SCORE.INTRA.VDW.0>
400.998

>  <SCORE.INTRA.norm>
-2.76965

>  <SCORE.RESTR>
0.70903

>  <SCORE.RESTR.CAVITY>
0.70903

>  <SCORE.RESTR.norm>
0.0122247

>  <SCORE.SYSTEM>
-0.909806

>  <SCORE.SYSTEM.CONST>
0

>  <SCORE.SYSTEM.DIHEDRAL>
0.312468

>  <SCORE.SYSTEM.VDW>
-1.06604

>  <SCORE.SYSTEM.norm>
-0.0156863

>  <SCORE.heavy>
58

>  <SCORE.norm>
-2.87281

>  <TITLE>
    Diammonium Glycyrrhizinate                                            

$$$$
