Diammonium.pdb
  RxDock  02242101153D
librxdock.so/0.1.0
 63 69  0  0  0  0  0  0  0  0999 V2000
  -47.6065    0.0127   17.5250 O   0  0  0  0  0  0
  -48.9556   -3.6519   19.8009 O   0  0  0  0  0  0
  -48.2489    1.1337   18.6785 O   0  0  0  0  0  0
  -50.6774   -8.9598   21.0763 O   0  5  0  0  0  0
  -52.2898   -8.8907   20.4487 O   0  0  0  0  0  0
  -45.7501    0.4837   18.1012 O   0  0  0  0  0  0
  -45.4347    2.5652   18.8547 O   0  0  0  0  0  0
  -47.0646    2.0006   21.0962 O   0  0  0  0  0  0
  -45.2610   -0.4530   19.4729 O   0  0  0  0  0  0
  -49.5473    2.3286   20.1956 O   0  5  0  0  0  0
  -49.6042    1.9602   18.5041 O   0  0  0  0  0  0
  -44.1201   -0.4474   16.8849 O   0  0  0  0  0  0
  -42.2361    0.2496   18.8761 O   0  0  0  0  0  0
  -43.1432   -2.3212   19.6297 O   0  0  0  0  0  0
  -44.9689   -1.8981   21.3546 O   0  5  0  0  0  0
  -45.9090   -0.4916   20.9834 O   0  0  0  0  0  0
  -49.8621   -4.2058   17.3764 C   0  0  0  0  0  0
  -48.9903   -2.7848   17.9901 C   0  0  0  0  0  0
  -48.9549   -3.9621   18.0241 C   0  0  0  0  0  0
  -50.1968   -5.1437   17.5118 C   0  0  0  0  0  0
  -48.5139   -2.6042   16.9283 C   0  0  0  0  0  0
  -49.8330   -3.8211   16.4086 C   0  0  0  0  0  0
  -48.4940   -1.4121   16.8524 C   0  0  0  0  0  0
  -49.3957   -2.8908   16.2378 C   0  0  0  0  0  0
  -50.2342   -5.5251   18.4371 C   0  0  0  0  0  0
  -51.1049   -6.2307   18.7161 C   0  0  0  0  0  0
  -51.1612   -6.9488   17.8388 C   0  0  0  0  0  0
  -50.6828   -5.6201   16.7213 C   0  0  0  0  0  0
  -48.4886   -2.2949   18.8183 C   0  0  0  0  0  0
  -51.1239   -6.5503   16.8755 C   0  0  0  0  0  0
  -48.0729   -0.8583   17.6870 C   0  0  0  0  0  0
  -49.3843   -4.1423   19.0407 C   0  0  0  0  0  0
  -51.0104   -3.9861   16.6445 C   0  0  0  0  0  0
  -48.0266   -1.3249   18.6661 C   0  0  0  0  0  0
  -49.8157   -2.7704   19.0953 C   0  0  0  0  0  0
  -49.5428   -5.4621   16.3403 C   0  0  0  0  0  0
  -49.8061   -5.0355   19.1965 C   0  0  0  0  0  0
  -50.6501   -6.8717   19.6159 C   0  0  0  0  0  0
  -51.5773   -7.9406   17.9895 C   0  0  0  0  0  0
  -51.0601   -7.8624   19.7908 C   0  0  0  0  0  0
  -48.7467   -1.4657   15.8863 C   0  0  0  0  0  0
  -48.2559   -0.6655   16.2311 C   0  0  0  0  0  0
  -51.5704   -8.3784   18.9826 C   0  0  0  0  0  0
  -52.4189   -7.0198   17.2772 C   0  0  0  0  0  0
  -49.9767   -8.2271   20.5630 C   0  0  0  0  0  0
  -51.3385   -8.5828   20.4275 C   0  0  0  0  0  0
  -47.4647    0.6541   18.2795 C   0  0  0  0  0  0
  -46.5365    0.8895   18.5676 C   0  0  0  0  0  0
  -46.3911    1.6409   19.2203 C   0  0  0  0  0  0
  -48.1046    1.8482   19.3649 C   0  0  0  0  0  0
  -47.1793    2.0112   19.7218 C   0  0  0  0  0  0
  -45.0282    0.0346   18.6300 C   0  0  0  0  0  0
  -48.8617    2.9797   19.1439 C   0  0  0  0  0  0
  -44.1206   -0.0952   18.2184 C   0  0  0  0  0  0
  -43.3877   -0.5025   18.7725 C   0  0  0  0  0  0
  -44.5397   -0.9023   20.0024 C   0  0  0  0  0  0
  -43.6321   -1.0321   19.5909 C   0  0  0  0  0  0
  -44.5409   -0.5503   21.3367 C   0  0  0  0  0  0
  -45.8114    2.6999   19.9608 H   0  0  0  0  0  0
  -46.9646    3.0765   20.6305 H   0  0  0  0  0  0
  -43.8077    0.6719   17.0693 H   0  0  0  0  0  0
  -42.1063   -0.7076   18.2042 H   0  0  0  0  0  0
  -42.5776   -1.5884   20.3553 H   0  0  0  0  0  0
  1 31  1  0  0  0
  1 47  1  0  0  0
  2 32  2  0  0  0
  3 47  1  0  0  0
  3 50  1  0  0  0
  4 46  2  0  0  0
  5 46  1  0  0  0
  6 48  1  0  0  0
  6 52  1  0  0  0
  7 49  1  0  0  0
  7 59  1  0  0  0
  8 51  1  0  0  0
  8 60  1  0  0  0
  9 52  1  0  0  0
  9 56  1  0  0  0
 11 53  1  0  0  0
 12 54  1  0  0  0
 12 61  1  0  0  0
 13 55  1  0  0  0
 13 62  1  0  0  0
 14 57  1  0  0  0
 14 63  1  0  0  0
 16 58  1  0  0  0
 17 19  1  0  0  0
 17 22  1  0  0  0
 17 33  1  0  0  0
 18 19  1  0  0  0
 18 29  1  0  0  0
 18 35  1  0  0  0
 19 32  1  0  0  0
 20 17  1  0  0  0
 20 28  1  0  0  0
 20 36  1  0  0  0
 21 18  1  0  0  0
 21 23  1  0  0  0
 21 24  1  0  0  0
 22 24  1  0  0  0
 23 31  1  0  0  0
 23 41  1  0  0  0
 23 42  1  0  0  0
 25 20  1  0  0  0
 25 26  1  0  0  0
 25 37  1  0  0  0
 26 27  1  0  0  0
 26 38  1  0  0  0
 27 30  1  0  0  0
 27 39  1  0  0  0
 27 44  1  0  0  0
 28 30  1  0  0  0
 29 34  1  0  0  0
 31 34  1  0  0  0
 32 37  1  0  0  0
 38 40  1  0  0  0
 39 43  1  0  0  0
 40 43  1  0  0  0
 40 45  1  0  0  0
 40 46  1  0  0  0
 47 48  1  0  0  0
 48 49  1  0  0  0
 49 51  1  0  0  0
 50 51  1  0  0  0
 50 53  1  0  0  0
 52 54  1  0  0  0
 53 10  1  0  0  0
 54 55  1  0  0  0
 55 57  1  0  0  0
 56 57  1  0  0  0
 56 58  1  0  0  0
 58 15  1  0  0  0
M  END
>  <CHROM.0>
42.33242266,-63.01078685,69.61367819

>  <CHROM.1>
161.44365610,-69.62473784,-128.34978729,33.43225676,-170.47612501,106.94875955
105.52196304,-108.59128620,105.82775773,-57.70465759,103.12629941,110.15152451
-48.18965030,-2.50832608,18.65557209,0.90587128,-0.43253336,-0.26550443

>  <HEADER>
                                                                          

>  <MASTER>
        0    0    0    0    0    0    0    0  127    0  127    0          

>  <Name>
Diammonium.pdb

>  <RI>
-7.01873e+08

>  <Rbt.Current_Directory>
/root/miniconda3/envs/rdock/share/rxdock-2013.1.1_148c5bd1-0/data/ligands/prepped_ligands/Diammonium

>  <Rbt.Executable>
rbdock/0.1.0

>  <Rbt.Library>
librxdock.so/0.1.0

>  <Rbt.Parameter_File>
/root/miniconda3/envs/rdock/share/rxdock-2013.1.1_148c5bd1-0/data/scripts/dock.prm

>  <Rbt.Receptor>
def.prm

>  <SCORE>
-174.612

>  <SCORE.INTER>
-8.54103

>  <SCORE.INTER.CONST>
1

>  <SCORE.INTER.POLAR>
-5.73115e-06

>  <SCORE.INTER.REPUL>
0.150319

>  <SCORE.INTER.ROT>
7

>  <SCORE.INTER.VDW>
-21.6926

>  <SCORE.INTER.norm>
-0.147259

>  <SCORE.INTRA>
-166.378

>  <SCORE.INTRA.DIHEDRAL>
7.05947

>  <SCORE.INTRA.DIHEDRAL.0>
37.64

>  <SCORE.INTRA.POLAR>
0.371885

>  <SCORE.INTRA.POLAR.0>
-0.371885

>  <SCORE.INTRA.REPUL>
-0.241776

>  <SCORE.INTRA.REPUL.0>
0.241776

>  <SCORE.INTRA.VDW>
-169.963

>  <SCORE.INTRA.VDW.0>
400.998

>  <SCORE.INTRA.norm>
-2.86859

>  <SCORE.RESTR>
0.748808

>  <SCORE.RESTR.CAVITY>
0.748808

>  <SCORE.RESTR.norm>
0.0129105

>  <SCORE.SYSTEM>
-0.441731

>  <SCORE.SYSTEM.CONST>
0

>  <SCORE.SYSTEM.DIHEDRAL>
0.988624

>  <SCORE.SYSTEM.POLAR>
-0.0164129

>  <SCORE.SYSTEM.VDW>
-0.880239

>  <SCORE.SYSTEM.norm>
-0.00761605

>  <SCORE.heavy>
58

>  <SCORE.norm>
-3.01055

>  <TITLE>
    Diammonium Glycyrrhizinate                                            

$$$$
Diammonium.pdb
  RxDock  02242101153D
librxdock.so/0.1.0
 63 69  0  0  0  0  0  0  0  0999 V2000
  -51.7061   -3.9861   18.3577 O   0  0  0  0  0  0
  -47.7439   -1.9594   17.5684 O   0  0  0  0  0  0
  -52.0622   -4.0849   16.6656 O   0  0  0  0  0  0
  -42.9223    0.9403   18.1042 O   0  5  0  0  0  0
  -43.4124    2.4920   18.6961 O   0  0  0  0  0  0
  -51.4317   -5.9664   18.4156 O   0  0  0  0  0  0
  -52.6196   -7.1834   16.9639 O   0  0  0  0  0  0
  -51.1750   -6.0359   14.8200 O   0  0  0  0  0  0
  -49.7298   -6.2651   18.5268 O   0  0  0  0  0  0
  -52.3839   -3.7217   14.3818 O   0  5  0  0  0  0
  -53.0516   -3.1157   15.8606 O   0  0  0  0  0  0
  -51.8310   -7.7810   19.6611 O   0  0  0  0  0  0
  -50.2263   -9.3287   17.9205 O   0  0  0  0  0  0
  -48.4259   -8.3769   19.8833 O   0  0  0  0  0  0
  -47.3513   -6.3355   18.8584 O   0  5  0  0  0  0
  -48.4612   -5.3952   17.9183 O   0  0  0  0  0  0
  -48.4892   -0.7501   19.8020 C   0  0  0  0  0  0
  -49.3050   -1.9941   18.8309 C   0  0  0  0  0  0
  -48.2485   -1.7389   19.2860 C   0  0  0  0  0  0
  -47.6687   -0.2053   20.0022 C   0  0  0  0  0  0
  -49.8382   -2.4126   19.7940 C   0  0  0  0  0  0
  -49.2453   -0.7951   20.5173 C   0  0  0  0  0  0
  -50.9157   -2.7213   19.3803 C   0  0  0  0  0  0
  -50.0552   -1.4342   20.3703 C   0  0  0  0  0  0
  -46.9357   -0.1498   19.3221 C   0  0  0  0  0  0
  -46.3580    0.8432   19.2029 C   0  0  0  0  0  0
  -46.1213    1.1468   20.2706 C   0  0  0  0  0  0
  -47.6878    0.4461   20.8167 C   0  0  0  0  0  0
  -49.2784   -2.6671   17.9800 C   0  0  0  0  0  0
  -46.8860    1.0902   20.9778 C   0  0  0  0  0  0
  -50.9577   -3.3330   18.4833 C   0  0  0  0  0  0
  -47.7265   -1.3622   18.3716 C   0  0  0  0  0  0
  -49.2198    0.3632   20.1614 C   0  0  0  0  0  0
  -50.1103   -3.3414   17.8046 C   0  0  0  0  0  0
  -48.9902   -1.2905   17.6868 C   0  0  0  0  0  0
  -47.7777   -0.6626   21.2986 C   0  0  0  0  0  0
  -46.9529   -0.7461   18.5198 C   0  0  0  0  0  0
  -45.3148    0.4901   18.7397 C   0  0  0  0  0  0
  -45.2621    1.7824   20.4644 C   0  0  0  0  0  0
  -44.4449    1.1175   18.9126 C   0  0  0  0  0  0
  -51.3390   -2.3857   20.2218 C   0  0  0  0  0  0
  -51.7988   -3.0859   19.6757 C   0  0  0  0  0  0
  -44.4415    1.8037   19.7545 C   0  0  0  0  0  0
  -46.5423    2.4241   20.5762 C   0  0  0  0  0  0
  -43.5816    0.0995   18.5644 C   0  0  0  0  0  0
  -43.5857    1.5133   18.5855 C   0  0  0  0  0  0
  -51.7669   -4.5241   17.5166 C   0  0  0  0  0  0
  -51.6297   -5.5142   17.5455 C   0  0  0  0  0  0
  -51.8363   -6.0716   16.7341 C   0  0  0  0  0  0
  -52.2201   -4.6358   15.8446 C   0  0  0  0  0  0
  -51.9860   -5.6131   15.8524 C   0  0  0  0  0  0
  -50.6686   -6.6107   18.4857 C   0  0  0  0  0  0
  -53.3873   -4.3118   15.1849 C   0  0  0  0  0  0
  -50.8517   -7.5725   18.7125 C   0  0  0  0  0  0
  -50.0858   -8.2229   18.7330 C   0  0  0  0  0  0
  -48.9660   -6.9087   18.5968 C   0  0  0  0  0  0
  -49.1491   -7.8705   18.8236 C   0  0  0  0  0  0
  -47.9860   -6.6994   17.6481 C   0  0  0  0  0  0
  -51.9418   -7.2829   16.0078 H   0  0  0  0  0  0
  -51.0842   -4.8835   15.0392 H   0  0  0  0  0  0
  -51.6285   -8.7246   18.9881 H   0  0  0  0  0  0
  -49.3249   -8.6381   17.6124 H   0  0  0  0  0  0
  -48.0916   -8.8123   18.8431 H   0  0  0  0  0  0
  1 31  1  0  0  0
  1 47  1  0  0  0
  2 32  2  0  0  0
  3 47  1  0  0  0
  3 50  1  0  0  0
  4 46  2  0  0  0
  5 46  1  0  0  0
  6 48  1  0  0  0
  6 52  1  0  0  0
  7 49  1  0  0  0
  7 59  1  0  0  0
  8 51  1  0  0  0
  8 60  1  0  0  0
  9 52  1  0  0  0
  9 56  1  0  0  0
 11 53  1  0  0  0
 12 54  1  0  0  0
 12 61  1  0  0  0
 13 55  1  0  0  0
 13 62  1  0  0  0
 14 57  1  0  0  0
 14 63  1  0  0  0
 16 58  1  0  0  0
 17 19  1  0  0  0
 17 22  1  0  0  0
 17 33  1  0  0  0
 18 19  1  0  0  0
 18 29  1  0  0  0
 18 35  1  0  0  0
 19 32  1  0  0  0
 20 17  1  0  0  0
 20 28  1  0  0  0
 20 36  1  0  0  0
 21 18  1  0  0  0
 21 23  1  0  0  0
 21 24  1  0  0  0
 22 24  1  0  0  0
 23 31  1  0  0  0
 23 41  1  0  0  0
 23 42  1  0  0  0
 25 20  1  0  0  0
 25 26  1  0  0  0
 25 37  1  0  0  0
 26 27  1  0  0  0
 26 38  1  0  0  0
 27 30  1  0  0  0
 27 39  1  0  0  0
 27 44  1  0  0  0
 28 30  1  0  0  0
 29 34  1  0  0  0
 31 34  1  0  0  0
 32 37  1  0  0  0
 38 40  1  0  0  0
 39 43  1  0  0  0
 40 43  1  0  0  0
 40 45  1  0  0  0
 40 46  1  0  0  0
 47 48  1  0  0  0
 48 49  1  0  0  0
 49 51  1  0  0  0
 50 51  1  0  0  0
 50 53  1  0  0  0
 52 54  1  0  0  0
 53 10  1  0  0  0
 54 55  1  0  0  0
 55 57  1  0  0  0
 56 57  1  0  0  0
 56 58  1  0  0  0
 58 15  1  0  0  0
M  END
>  <CHROM.0>
-54.37161562,-61.60407188,-56.94433736

>  <CHROM.1>
177.57001227,-73.91173147,-131.13457570,75.84437349,-155.19082078,-122.10694222
159.28960304,116.30824067,105.70777641,-45.07409015,103.97080690,111.54635593
-49.00704941,-2.99766133,18.52902522,2.24863034,0.33107294,-3.12945302

>  <HEADER>
                                                                          

>  <MASTER>
        0    0    0    0    0    0    0    0  127    0  127    0          

>  <Name>
Diammonium.pdb

>  <RI>
-7.01873e+08

>  <Rbt.Current_Directory>
/root/miniconda3/envs/rdock/share/rxdock-2013.1.1_148c5bd1-0/data/ligands/prepped_ligands/Diammonium

>  <Rbt.Executable>
rbdock/0.1.0

>  <Rbt.Library>
librxdock.so/0.1.0

>  <Rbt.Parameter_File>
/root/miniconda3/envs/rdock/share/rxdock-2013.1.1_148c5bd1-0/data/scripts/dock.prm

>  <Rbt.Receptor>
def.prm

>  <SCORE>
-169.669

>  <SCORE.INTER>
-14.6749

>  <SCORE.INTER.CONST>
1

>  <SCORE.INTER.POLAR>
-1.18229

>  <SCORE.INTER.REPUL>
0.086876

>  <SCORE.INTER.ROT>
7

>  <SCORE.INTER.VDW>
-23.4895

>  <SCORE.INTER.norm>
-0.253015

>  <SCORE.INTRA>
-153.988

>  <SCORE.INTRA.DIHEDRAL>
6.91892

>  <SCORE.INTRA.DIHEDRAL.0>
37.64

>  <SCORE.INTRA.POLAR>
0.0841372

>  <SCORE.INTRA.POLAR.0>
-0.371885

>  <SCORE.INTRA.REPUL>
-0.232802

>  <SCORE.INTRA.REPUL.0>
0.241776

>  <SCORE.INTRA.VDW>
-156.569

>  <SCORE.INTRA.VDW.0>
400.998

>  <SCORE.INTRA.norm>
-2.65496

>  <SCORE.RESTR>
0

>  <SCORE.RESTR.CAVITY>
0

>  <SCORE.RESTR.norm>
0

>  <SCORE.SYSTEM>
-1.00589

>  <SCORE.SYSTEM.CONST>
0

>  <SCORE.SYSTEM.DIHEDRAL>
0.106893

>  <SCORE.SYSTEM.POLAR>
-0.00784277

>  <SCORE.SYSTEM.VDW>
-1.03267

>  <SCORE.SYSTEM.norm>
-0.017343

>  <SCORE.heavy>
58

>  <SCORE.norm>
-2.92532

>  <TITLE>
    Diammonium Glycyrrhizinate                                            

$$$$
Diammonium.pdb
  RxDock  02242101163D
librxdock.so/0.1.0
 63 69  0  0  0  0  0  0  0  0999 V2000
  -51.8635   -3.9535   18.3171 O   0  0  0  0  0  0
  -47.7561   -2.1737   17.6922 O   0  0  0  0  0  0
  -52.1966   -4.0711   16.6215 O   0  0  0  0  0  0
  -42.9040    0.6791   18.3652 O   0  5  0  0  0  0
  -43.4269    2.3222   18.5238 O   0  0  0  0  0  0
  -51.6946   -5.9436   18.4220 O   0  0  0  0  0  0
  -52.9210   -7.1289   16.9760 O   0  0  0  0  0  0
  -51.3832   -6.1063   14.8337 O   0  0  0  0  0  0
  -50.0138   -6.2844   18.1834 O   0  0  0  0  0  0
  -52.4608   -3.7662   14.3112 O   0  5  0  0  0  0
  -53.1051   -3.0629   15.7570 O   0  0  0  0  0  0
  -51.6413   -7.0458   20.3677 O   0  0  0  0  0  0
  -50.4940   -9.2816   19.0697 O   0  0  0  0  0  0
  -48.2786   -7.7261   19.8894 O   0  0  0  0  0  0
  -47.6749   -6.2946   17.8173 O   0  5  0  0  0  0
  -49.0891   -5.8704   16.9118 O   0  0  0  0  0  0
  -48.7132   -0.5767   19.5738 C   0  0  0  0  0  0
  -49.4571   -1.9560   18.7368 C   0  0  0  0  0  0
  -48.4531   -1.6453   19.2696 C   0  0  0  0  0  0
  -47.9011   -0.0212   19.7783 C   0  0  0  0  0  0
  -50.1183   -2.1885   19.6833 C   0  0  0  0  0  0
  -49.5507   -0.4809   20.1861 C   0  0  0  0  0  0
  -51.1502   -2.5443   19.1976 C   0  0  0  0  0  0
  -50.3625   -1.1201   20.0512 C   0  0  0  0  0  0
  -47.0904   -0.1001   19.1957 C   0  0  0  0  0  0
  -46.4625    0.8452   18.9806 C   0  0  0  0  0  0
  -46.3430    1.3270   20.0014 C   0  0  0  0  0  0
  -47.9908    0.7634   20.4598 C   0  0  0  0  0  0
  -49.3564   -2.7684   18.0244 C   0  0  0  0  0  0
  -47.1885    1.4102   20.6067 C   0  0  0  0  0  0
  -51.1095   -3.3030   18.4209 C   0  0  0  0  0  0
  -47.8105   -1.4451   18.3766 C   0  0  0  0  0  0
  -49.4356    0.5963   19.6424 C   0  0  0  0  0  0
  -50.1881   -3.4468   17.8651 C   0  0  0  0  0  0
  -48.9793   -1.4705   17.5373 C   0  0  0  0  0  0
  -48.1829   -0.2415   21.1101 C   0  0  0  0  0  0
  -47.0357   -0.8276   18.5121 C   0  0  0  0  0  0
  -45.3867    0.3963   18.7191 C   0  0  0  0  0  0
  -45.4880    1.9701   20.1888 C   0  0  0  0  0  0
  -44.5188    1.0273   18.8888 C   0  0  0  0  0  0
  -51.6571   -2.0580   19.9093 C   0  0  0  0  0  0
  -52.0764   -2.8342   19.4386 C   0  0  0  0  0  0
  -44.5882    1.8506   19.5940 C   0  0  0  0  0  0
  -46.7452    2.6460   20.0278 C   0  0  0  0  0  0
  -43.6623   -0.0524   18.8313 C   0  0  0  0  0  0
  -43.6113    1.3429   18.6084 C   0  0  0  0  0  0
  -51.9388   -4.5061   17.4866 C   0  0  0  0  0  0
  -51.8543   -5.5012   17.5391 C   0  0  0  0  0  0
  -52.0766   -6.0649   16.7363 C   0  0  0  0  0  0
  -52.3699   -4.6311   15.8098 C   0  0  0  0  0  0
  -52.1877   -5.6189   15.8425 C   0  0  0  0  0  0
  -50.9083   -6.5511   18.5455 C   0  0  0  0  0  0
  -53.5075   -4.2614   15.1231 C   0  0  0  0  0  0
  -50.9712   -7.3170   19.1930 C   0  0  0  0  0  0
  -50.1956   -7.9508   19.2753 C   0  0  0  0  0  0
  -49.2270   -6.8913   18.3063 C   0  0  0  0  0  0
  -49.2898   -7.6572   18.9539 C   0  0  0  0  0  0
  -48.5563   -7.1619   17.1311 C   0  0  0  0  0  0
  -52.0581   -7.3829   16.2182 H   0  0  0  0  0  0
  -52.5085   -6.4335   14.7289 H   0  0  0  0  0  0
  -51.2382   -6.0801   19.8298 H   0  0  0  0  0  0
  -51.0416   -8.8224   20.0045 H   0  0  0  0  0  0
  -48.2122   -8.5687   19.0714 H   0  0  0  0  0  0
  1 31  1  0  0  0
  1 47  1  0  0  0
  2 32  2  0  0  0
  3 47  1  0  0  0
  3 50  1  0  0  0
  4 46  2  0  0  0
  5 46  1  0  0  0
  6 48  1  0  0  0
  6 52  1  0  0  0
  7 49  1  0  0  0
  7 59  1  0  0  0
  8 51  1  0  0  0
  8 60  1  0  0  0
  9 52  1  0  0  0
  9 56  1  0  0  0
 11 53  1  0  0  0
 12 54  1  0  0  0
 12 61  1  0  0  0
 13 55  1  0  0  0
 13 62  1  0  0  0
 14 57  1  0  0  0
 14 63  1  0  0  0
 16 58  1  0  0  0
 17 19  1  0  0  0
 17 22  1  0  0  0
 17 33  1  0  0  0
 18 19  1  0  0  0
 18 29  1  0  0  0
 18 35  1  0  0  0
 19 32  1  0  0  0
 20 17  1  0  0  0
 20 28  1  0  0  0
 20 36  1  0  0  0
 21 18  1  0  0  0
 21 23  1  0  0  0
 21 24  1  0  0  0
 22 24  1  0  0  0
 23 31  1  0  0  0
 23 41  1  0  0  0
 23 42  1  0  0  0
 25 20  1  0  0  0
 25 26  1  0  0  0
 25 37  1  0  0  0
 26 27  1  0  0  0
 26 38  1  0  0  0
 27 30  1  0  0  0
 27 39  1  0  0  0
 27 44  1  0  0  0
 28 30  1  0  0  0
 29 34  1  0  0  0
 31 34  1  0  0  0
 32 37  1  0  0  0
 38 40  1  0  0  0
 39 43  1  0  0  0
 40 43  1  0  0  0
 40 45  1  0  0  0
 40 46  1  0  0  0
 47 48  1  0  0  0
 48 49  1  0  0  0
 49 51  1  0  0  0
 50 51  1  0  0  0
 50 53  1  0  0  0
 52 54  1  0  0  0
 53 10  1  0  0  0
 54 55  1  0  0  0
 55 57  1  0  0  0
 56 57  1  0  0  0
 56 58  1  0  0  0
 58 15  1  0  0  0
M  END
>  <CHROM.0>
-170.79053992,-60.14679906,-63.57472953

>  <CHROM.1>
165.56914538,-70.74717629,-124.60954129,43.66108005,-140.69687556,106.14062829
-21.49346843,-63.45497238,106.33172101,-48.26407815,105.11880180,107.52325853
-49.18888142,-2.92987879,18.44339397,2.24592135,0.28053141,-3.10898396

>  <HEADER>
                                                                          

>  <MASTER>
        0    0    0    0    0    0    0    0  127    0  127    0          

>  <Name>
Diammonium.pdb

>  <RI>
-7.01873e+08

>  <Rbt.Current_Directory>
/root/miniconda3/envs/rdock/share/rxdock-2013.1.1_148c5bd1-0/data/ligands/prepped_ligands/Diammonium

>  <Rbt.Executable>
rbdock/0.1.0

>  <Rbt.Library>
librxdock.so/0.1.0

>  <Rbt.Parameter_File>
/root/miniconda3/envs/rdock/share/rxdock-2013.1.1_148c5bd1-0/data/scripts/dock.prm

>  <Rbt.Receptor>
def.prm

>  <SCORE>
-182.863

>  <SCORE.INTER>
-13.0804

>  <SCORE.INTER.CONST>
1

>  <SCORE.INTER.POLAR>
-0.676575

>  <SCORE.INTER.REPUL>
0

>  <SCORE.INTER.ROT>
7

>  <SCORE.INTER.VDW>
-23.1801

>  <SCORE.INTER.norm>
-0.225525

>  <SCORE.INTRA>
-168.857

>  <SCORE.INTRA.DIHEDRAL>
5.7485

>  <SCORE.INTRA.DIHEDRAL.0>
37.64

>  <SCORE.INTRA.POLAR>
0.0757166

>  <SCORE.INTRA.POLAR.0>
-0.371885

>  <SCORE.INTRA.REPUL>
-0.0432552

>  <SCORE.INTRA.REPUL.0>
0.241776

>  <SCORE.INTRA.VDW>
-171.772

>  <SCORE.INTRA.VDW.0>
400.998

>  <SCORE.INTRA.norm>
-2.91132

>  <SCORE.RESTR>
0.000143965

>  <SCORE.RESTR.CAVITY>
0.000143965

>  <SCORE.RESTR.norm>
2.48216e-06

>  <SCORE.SYSTEM>
-0.92627

>  <SCORE.SYSTEM.CONST>
0

>  <SCORE.SYSTEM.DIHEDRAL>
0.233332

>  <SCORE.SYSTEM.VDW>
-1.04294

>  <SCORE.SYSTEM.norm>
-0.0159702

>  <SCORE.heavy>
58

>  <SCORE.norm>
-3.15282

>  <TITLE>
    Diammonium Glycyrrhizinate                                            

$$$$
Diammonium.pdb
  RxDock  02242101163D
librxdock.so/0.1.0
 63 69  0  0  0  0  0  0  0  0999 V2000
  -48.3860   -2.1785   17.2518 O   0  0  0  0  0  0
  -52.5565   -3.1920   15.8345 O   0  0  0  0  0  0
  -48.2168   -1.8296   15.5638 O   0  0  0  0  0  0
  -57.1609   -7.1909   14.4776 O   0  5  0  0  0  0
  -57.6848   -5.7680   15.3140 O   0  0  0  0  0  0
  -46.7015   -1.1686   17.6295 O   0  0  0  0  0  0
  -45.1599   -1.1540   16.0099 O   0  0  0  0  0  0
  -46.8933    0.3686   14.3737 O   0  0  0  0  0  0
  -47.4806    0.1141   18.4932 O   0  0  0  0  0  0
  -48.4935   -1.4158   13.2761 O   0  5  0  0  0  0
  -48.7241   -2.7535   14.3518 O   0  0  0  0  0  0
  -44.8563   -0.8751   18.8592 O   0  0  0  0  0  0
  -44.8720    1.8813   18.2249 O   0  0  0  0  0  0
  -46.4164    1.6903   20.5867 O   0  0  0  0  0  0
  -48.8429    1.5861   19.7826 O   0  5  0  0  0  0
  -48.9985    0.7022   18.3013 O   0  0  0  0  0  0
  -51.8108   -5.5021   16.8902 C   0  0  0  0  0  0
  -50.9345   -3.9648   16.7312 C   0  0  0  0  0  0
  -51.9848   -4.3870   17.0586 C   0  0  0  0  0  0
  -52.6669   -6.0240   16.8214 C   0  0  0  0  0  0
  -50.3144   -4.2046   17.7033 C   0  0  0  0  0  0
  -51.0171   -5.9134   17.4253 C   0  0  0  0  0  0
  -49.2362   -3.7635   17.4383 C   0  0  0  0  0  0
  -50.1599   -5.3448   17.5924 C   0  0  0  0  0  0
  -53.4367   -5.6427   16.3068 C   0  0  0  0  0  0
  -54.1103   -6.3566   15.6979 C   0  0  0  0  0  0
  -54.3177   -7.2098   16.4171 C   0  0  0  0  0  0
  -52.6659   -7.0262   17.1105 C   0  0  0  0  0  0
  -50.9429   -2.9236   16.4255 C   0  0  0  0  0  0
  -53.5148   -7.6074   16.9513 C   0  0  0  0  0  0
  -49.1846   -2.7489   17.0532 C   0  0  0  0  0  0
  -52.5873   -4.1419   16.1490 C   0  0  0  0  0  0
  -51.1696   -6.6507   16.4755 C   0  0  0  0  0  0
  -50.0621   -2.3111   16.5875 C   0  0  0  0  0  0
  -51.3737   -3.8629   15.4275 C   0  0  0  0  0  0
  -52.4473   -6.4051   18.1284 C   0  0  0  0  0  0
  -53.4063   -4.6941   15.9925 C   0  0  0  0  0  0
  -55.1389   -5.7533   15.6238 C   0  0  0  0  0  0
  -55.2211   -7.8003   16.2949 C   0  0  0  0  0  0
  -56.0533   -6.3244   15.4903 C   0  0  0  0  0  0
  -48.8023   -4.5426   17.8909 C   0  0  0  0  0  0
  -48.3085   -3.6776   17.8017 C   0  0  0  0  0  0
  -56.0765   -7.3698   15.7841 C   0  0  0  0  0  0
  -54.0024   -8.4468   15.8947 C   0  0  0  0  0  0
  -56.8348   -5.2538   15.8725 C   0  0  0  0  0  0
  -56.9618   -6.4185   15.0809 C   0  0  0  0  0  0
  -47.9069   -1.7098   16.5092 C   0  0  0  0  0  0
  -47.0646   -1.2048   16.6980 C   0  0  0  0  0  0
  -46.5058   -0.8616   15.9354 C   0  0  0  0  0  0
  -47.6845   -1.4446   14.8082 C   0  0  0  0  0  0
  -46.8953   -0.8557   15.0090 C   0  0  0  0  0  0
  -46.6484   -0.2946   18.1152 C   0  0  0  0  0  0
  -47.5174   -2.3199   13.7554 C   0  0  0  0  0  0
  -45.7516    0.0644   18.3920 C   0  0  0  0  0  0
  -45.7026    0.9649   18.8355 C   0  0  0  0  0  0
  -47.4285    0.9881   18.9790 C   0  0  0  0  0  0
  -46.5316    1.3471   19.2558 C   0  0  0  0  0  0
  -48.3248    1.9276   18.5119 C   0  0  0  0  0  0
  -45.6648   -1.5412   15.0207 H   0  0  0  0  0  0
  -47.9535   -0.1412   14.3953 H   0  0  0  0  0  0
  -44.9666   -0.8815   17.6878 H   0  0  0  0  0  0
  -44.2979    0.9472   18.6522 H   0  0  0  0  0  0
  -46.3644    2.6158   19.8627 H   0  0  0  0  0  0
  1 31  1  0  0  0
  1 47  1  0  0  0
  2 32  2  0  0  0
  3 47  1  0  0  0
  3 50  1  0  0  0
  4 46  2  0  0  0
  5 46  1  0  0  0
  6 48  1  0  0  0
  6 52  1  0  0  0
  7 49  1  0  0  0
  7 59  1  0  0  0
  8 51  1  0  0  0
  8 60  1  0  0  0
  9 52  1  0  0  0
  9 56  1  0  0  0
 11 53  1  0  0  0
 12 54  1  0  0  0
 12 61  1  0  0  0
 13 55  1  0  0  0
 13 62  1  0  0  0
 14 57  1  0  0  0
 14 63  1  0  0  0
 16 58  1  0  0  0
 17 19  1  0  0  0
 17 22  1  0  0  0
 17 33  1  0  0  0
 18 19  1  0  0  0
 18 29  1  0  0  0
 18 35  1  0  0  0
 19 32  1  0  0  0
 20 17  1  0  0  0
 20 28  1  0  0  0
 20 36  1  0  0  0
 21 18  1  0  0  0
 21 23  1  0  0  0
 21 24  1  0  0  0
 22 24  1  0  0  0
 23 31  1  0  0  0
 23 41  1  0  0  0
 23 42  1  0  0  0
 25 20  1  0  0  0
 25 26  1  0  0  0
 25 37  1  0  0  0
 26 27  1  0  0  0
 26 38  1  0  0  0
 27 30  1  0  0  0
 27 39  1  0  0  0
 27 44  1  0  0  0
 28 30  1  0  0  0
 29 34  1  0  0  0
 31 34  1  0  0  0
 32 37  1  0  0  0
 38 40  1  0  0  0
 39 43  1  0  0  0
 40 43  1  0  0  0
 40 45  1  0  0  0
 40 46  1  0  0  0
 47 48  1  0  0  0
 48 49  1  0  0  0
 49 51  1  0  0  0
 50 51  1  0  0  0
 50 53  1  0  0  0
 52 54  1  0  0  0
 53 10  1  0  0  0
 54 55  1  0  0  0
 55 57  1  0  0  0
 56 57  1  0  0  0
 56 58  1  0  0  0
 58 15  1  0  0  0
M  END
>  <CHROM.0>
61.24135948,76.02127965,-126.01304971

>  <CHROM.1>
129.11596925,-1.35391964,-115.79363053,75.79044951,123.32035260,-126.96534550
76.72299258,-64.44872789,102.15303323,119.63221909,104.66627810,109.45179072
-50.26195430,-3.13921006,16.75170860,-0.41285873,-0.57885025,-1.98949695

>  <HEADER>
                                                                          

>  <MASTER>
        0    0    0    0    0    0    0    0  127    0  127    0          

>  <Name>
Diammonium.pdb

>  <RI>
-7.01873e+08

>  <Rbt.Current_Directory>
/root/miniconda3/envs/rdock/share/rxdock-2013.1.1_148c5bd1-0/data/ligands/prepped_ligands/Diammonium

>  <Rbt.Executable>
rbdock/0.1.0

>  <Rbt.Library>
librxdock.so/0.1.0

>  <Rbt.Parameter_File>
/root/miniconda3/envs/rdock/share/rxdock-2013.1.1_148c5bd1-0/data/scripts/dock.prm

>  <Rbt.Receptor>
def.prm

>  <SCORE>
-141.646

>  <SCORE.INTER>
4.31874

>  <SCORE.INTER.CONST>
1

>  <SCORE.INTER.POLAR>
-0.0210114

>  <SCORE.INTER.REPUL>
1.18415

>  <SCORE.INTER.ROT>
7

>  <SCORE.INTER.VDW>
-13.9306

>  <SCORE.INTER.norm>
0.074461

>  <SCORE.INTRA>
-147.874

>  <SCORE.INTRA.DIHEDRAL>
0.325251

>  <SCORE.INTRA.DIHEDRAL.0>
37.64

>  <SCORE.INTRA.POLAR>
-0.629007

>  <SCORE.INTRA.POLAR.0>
-0.371885

>  <SCORE.INTRA.REPUL>
-0.101295

>  <SCORE.INTRA.REPUL.0>
0.241776

>  <SCORE.INTRA.VDW>
-145.392

>  <SCORE.INTRA.VDW.0>
400.998

>  <SCORE.INTRA.norm>
-2.54955

>  <SCORE.RESTR>
0.058355

>  <SCORE.RESTR.CAVITY>
0.058355

>  <SCORE.RESTR.norm>
0.00100612

>  <SCORE.SYSTEM>
1.85066

>  <SCORE.SYSTEM.CONST>
0

>  <SCORE.SYSTEM.DIHEDRAL>
4.70368

>  <SCORE.SYSTEM.VDW>
-0.501176

>  <SCORE.SYSTEM.norm>
0.031908

>  <SCORE.heavy>
58

>  <SCORE.norm>
-2.44218

>  <TITLE>
    Diammonium Glycyrrhizinate                                            

$$$$
Diammonium.pdb
  RxDock  02242101163D
librxdock.so/0.1.0
 63 69  0  0  0  0  0  0  0  0999 V2000
  -51.8778   -4.1186   18.3649 O   0  0  0  0  0  0
  -47.6656   -2.5231   17.9899 O   0  0  0  0  0  0
  -52.1549   -4.0961   16.6553 O   0  0  0  0  0  0
  -43.3645    2.0727   18.4196 O   0  5  0  0  0  0
  -42.8761    0.4500   18.7757 O   0  0  0  0  0  0
  -52.1908   -6.0938   18.3896 O   0  0  0  0  0  0
  -53.5989   -6.9025   16.8525 O   0  0  0  0  0  0
  -51.7702   -6.2053   14.8105 O   0  0  0  0  0  0
  -50.5986   -6.6886   18.0592 O   0  0  0  0  0  0
  -52.2421   -3.6809   14.3387 O   0  5  0  0  0  0
  -52.7430   -2.8687   15.7842 O   0  0  0  0  0  0
  -51.9087   -6.5470   20.5618 O   0  0  0  0  0  0
  -51.1478   -9.1923   19.9110 O   0  0  0  0  0  0
  -48.7232   -7.7360   19.8992 O   0  0  0  0  0  0
  -48.3262   -7.1338   17.4593 O   0  5  0  0  0  0
  -49.7991   -6.7702   16.6236 O   0  0  0  0  0  0
  -48.8503   -0.5190   19.2497 C   0  0  0  0  0  0
  -49.5005   -2.0655   18.6652 C   0  0  0  0  0  0
  -48.5820   -1.6280   19.2597 C   0  0  0  0  0  0
  -48.0617    0.0743   19.4399 C   0  0  0  0  0  0
  -50.3087   -2.0626   19.5218 C   0  0  0  0  0  0
  -49.7693   -0.2806   19.6786 C   0  0  0  0  0  0
  -51.2636   -2.5325   18.9788 C   0  0  0  0  0  0
  -50.5712   -0.9380   19.5753 C   0  0  0  0  0  0
  -47.1731   -0.1404   19.0310 C   0  0  0  0  0  0
  -46.4879    0.7268   18.6957 C   0  0  0  0  0  0
  -46.5130    1.4449   19.5744 C   0  0  0  0  0  0
  -48.2302    1.0016   19.8871 C   0  0  0  0  0  0
  -49.3172   -3.0272   18.1970 C   0  0  0  0  0  0
  -47.4393    1.6692   19.9985 C   0  0  0  0  0  0
  -51.1278   -3.4582   18.4265 C   0  0  0  0  0  0
  -47.8015   -1.6493   18.4591 C   0  0  0  0  0  0
  -49.5345    0.6309   18.9151 C   0  0  0  0  0  0
  -50.1363   -3.7287   18.0766 C   0  0  0  0  0  0
  -48.8252   -1.8863   17.4757 C   0  0  0  0  0  0
  -48.5552    0.1857   20.7228 C   0  0  0  0  0  0
  -47.0370   -1.0130   18.5624 C   0  0  0  0  0  0
  -45.4002    0.2335   18.7262 C   0  0  0  0  0  0
  -45.6765    2.1191   19.7340 C   0  0  0  0  0  0
  -44.5487    0.8918   18.8737 C   0  0  0  0  0  0
  -51.8587   -1.8894   19.4608 C   0  0  0  0  0  0
  -52.2253   -2.7597   19.1321 C   0  0  0  0  0  0
  -44.6994    1.8625   19.3374 C   0  0  0  0  0  0
  -46.8697    2.7278   19.2151 C   0  0  0  0  0  0
  -43.7306   -0.1642   19.2177 C   0  0  0  0  0  0
  -43.5984    1.1342   18.6736 C   0  0  0  0  0  0
  -52.0457   -4.6090   17.5093 C   0  0  0  0  0  0
  -52.2022   -5.5966   17.5216 C   0  0  0  0  0  0
  -52.5165   -6.0635   16.6881 C   0  0  0  0  0  0
  -52.4203   -4.5709   15.8147 C   0  0  0  0  0  0
  -52.4794   -5.5741   15.8111 C   0  0  0  0  0  0
  -51.4410   -6.7235   18.5990 C   0  0  0  0  0  0
  -53.4065   -3.9172   15.1057 C   0  0  0  0  0  0
  -51.4554   -7.2419   19.4598 C   0  0  0  0  0  0
  -50.7247   -7.9077   19.6403 C   0  0  0  0  0  0
  -49.8483   -7.3180   18.2677 C   0  0  0  0  0  0
  -49.8627   -7.8363   19.1286 C   0  0  0  0  0  0
  -49.3946   -8.0125   17.1650 C   0  0  0  0  0  0
  -52.9283   -7.1858   15.9286 H   0  0  0  0  0  0
  -51.2857   -6.3344   15.8750 H   0  0  0  0  0  0
  -51.5786   -5.8472   19.6754 H   0  0  0  0  0  0
  -51.4304   -8.4232   20.7553 H   0  0  0  0  0  0
  -49.1816   -8.8191   19.8877 H   0  0  0  0  0  0
  1 31  1  0  0  0
  1 47  1  0  0  0
  2 32  2  0  0  0
  3 47  1  0  0  0
  3 50  1  0  0  0
  4 46  2  0  0  0
  5 46  1  0  0  0
  6 48  1  0  0  0
  6 52  1  0  0  0
  7 49  1  0  0  0
  7 59  1  0  0  0
  8 51  1  0  0  0
  8 60  1  0  0  0
  9 52  1  0  0  0
  9 56  1  0  0  0
 11 53  1  0  0  0
 12 54  1  0  0  0
 12 61  1  0  0  0
 13 55  1  0  0  0
 13 62  1  0  0  0
 14 57  1  0  0  0
 14 63  1  0  0  0
 16 58  1  0  0  0
 17 19  1  0  0  0
 17 22  1  0  0  0
 17 33  1  0  0  0
 18 19  1  0  0  0
 18 29  1  0  0  0
 18 35  1  0  0  0
 19 32  1  0  0  0
 20 17  1  0  0  0
 20 28  1  0  0  0
 20 36  1  0  0  0
 21 18  1  0  0  0
 21 23  1  0  0  0
 21 24  1  0  0  0
 22 24  1  0  0  0
 23 31  1  0  0  0
 23 41  1  0  0  0
 23 42  1  0  0  0
 25 20  1  0  0  0
 25 26  1  0  0  0
 25 37  1  0  0  0
 26 27  1  0  0  0
 26 38  1  0  0  0
 27 30  1  0  0  0
 27 39  1  0  0  0
 27 44  1  0  0  0
 28 30  1  0  0  0
 29 34  1  0  0  0
 31 34  1  0  0  0
 32 37  1  0  0  0
 38 40  1  0  0  0
 39 43  1  0  0  0
 40 43  1  0  0  0
 40 45  1  0  0  0
 40 46  1  0  0  0
 47 48  1  0  0  0
 48 49  1  0  0  0
 49 51  1  0  0  0
 50 51  1  0  0  0
 50 53  1  0  0  0
 52 54  1  0  0  0
 53 10  1  0  0  0
 54 55  1  0  0  0
 55 57  1  0  0  0
 56 57  1  0  0  0
 56 58  1  0  0  0
 58 15  1  0  0  0
M  END
>  <CHROM.0>
-54.78382935,64.64232703,-59.79991228

>  <CHROM.1>
140.81586359,-52.95813692,-109.94138047,15.24817230,-155.23246869,-37.50998908
-18.55721478,-68.09381704,74.24233023,130.87165757,106.20213105,110.31911167
-49.39571170,-2.99496822,18.36217625,2.26473675,0.32046724,3.08985809

>  <HEADER>
                                                                          

>  <MASTER>
        0    0    0    0    0    0    0    0  127    0  127    0          

>  <Name>
Diammonium.pdb

>  <RI>
-7.01873e+08

>  <Rbt.Current_Directory>
/root/miniconda3/envs/rdock/share/rxdock-2013.1.1_148c5bd1-0/data/ligands/prepped_ligands/Diammonium

>  <Rbt.Executable>
rbdock/0.1.0

>  <Rbt.Library>
librxdock.so/0.1.0

>  <Rbt.Parameter_File>
/root/miniconda3/envs/rdock/share/rxdock-2013.1.1_148c5bd1-0/data/scripts/dock.prm

>  <Rbt.Receptor>
def.prm

>  <SCORE>
-176.919

>  <SCORE.INTER>
-14.161

>  <SCORE.INTER.CONST>
1

>  <SCORE.INTER.POLAR>
-0.848528

>  <SCORE.INTER.REPUL>
0

>  <SCORE.INTER.ROT>
7

>  <SCORE.INTER.VDW>
-23.676

>  <SCORE.INTER.norm>
-0.244156

>  <SCORE.INTRA>
-161.778

>  <SCORE.INTRA.DIHEDRAL>
-2.47549

>  <SCORE.INTRA.DIHEDRAL.0>
37.64

>  <SCORE.INTRA.POLAR>
-2.09668

>  <SCORE.INTRA.POLAR.0>
-0.371885

>  <SCORE.INTRA.REPUL>
-0.241776

>  <SCORE.INTRA.REPUL.0>
0.241776

>  <SCORE.INTRA.VDW>
-152.202

>  <SCORE.INTRA.VDW.0>
400.998

>  <SCORE.INTRA.norm>
-2.78927

>  <SCORE.RESTR>
0

>  <SCORE.RESTR.CAVITY>
0

>  <SCORE.RESTR.norm>
0

>  <SCORE.SYSTEM>
-0.98034

>  <SCORE.SYSTEM.CONST>
0

>  <SCORE.SYSTEM.DIHEDRAL>
0.168872

>  <SCORE.SYSTEM.POLAR>
-0.00128844

>  <SCORE.SYSTEM.VDW>
-1.0604

>  <SCORE.SYSTEM.norm>
-0.0169024

>  <SCORE.heavy>
58

>  <SCORE.norm>
-3.05033

>  <TITLE>
    Diammonium Glycyrrhizinate                                            

$$$$
Diammonium.pdb
  RxDock  02242101163D
librxdock.so/0.1.0
 63 69  0  0  0  0  0  0  0  0999 V2000
  -50.7820   -3.5581   18.0947 O   0  0  0  0  0  0
  -46.8573   -1.3498   17.7088 O   0  0  0  0  0  0
  -50.6359   -3.2438   16.3977 O   0  0  0  0  0  0
  -42.1476    1.5801   18.7630 O   0  5  0  0  0  0
  -42.6857    3.0189   19.5623 O   0  0  0  0  0  0
  -51.7411   -5.2671   17.6956 O   0  0  0  0  0  0
  -52.9481   -5.3206   15.8140 O   0  0  0  0  0  0
  -50.5755   -5.1252   14.2867 O   0  0  0  0  0  0
  -50.3941   -6.3539   17.7461 O   0  0  0  0  0  0
  -50.0757   -2.6266   14.1603 O   0  5  0  0  0  0
  -50.4906   -1.8028   15.6263 O   0  0  0  0  0  0
  -52.7211   -6.4055   19.3530 O   0  0  0  0  0  0
  -52.3796   -8.8101   17.9033 O   0  0  0  0  0  0
  -50.0252   -8.5785   19.4534 O   0  0  0  0  0  0
  -48.2966   -7.3003   17.8101 O   0  5  0  0  0  0
  -49.2086   -6.3361   16.6973 O   0  0  0  0  0  0
  -47.7060   -0.4575   20.0520 C   0  0  0  0  0  0
  -48.4552   -1.5854   18.9019 C   0  0  0  0  0  0
  -47.4211   -1.3653   19.4221 C   0  0  0  0  0  0
  -46.9082    0.0768   20.3486 C   0  0  0  0  0  0
  -49.0057   -2.1377   19.7844 C   0  0  0  0  0  0
  -48.4824   -0.6131   20.7292 C   0  0  0  0  0  0
  -50.0605   -2.4169   19.2976 C   0  0  0  0  0  0
  -49.2685   -1.2476   20.4736 C   0  0  0  0  0  0
  -46.1564    0.2377   19.7070 C   0  0  0  0  0  0
  -45.6041    1.2517   19.7360 C   0  0  0  0  0  0
  -45.4095    1.4206   20.8414 C   0  0  0  0  0  0
  -46.9713    0.6170   21.2387 C   0  0  0  0  0  0
  -48.3828   -2.1421   17.9732 C   0  0  0  0  0  0
  -46.1938    1.2544   21.5087 C   0  0  0  0  0  0
  -50.0570   -2.9084   18.3287 C   0  0  0  0  0  0
  -46.8819   -0.8610   18.5822 C   0  0  0  0  0  0
  -48.4792    0.5818   20.5258 C   0  0  0  0  0  0
  -49.1891   -2.8083   17.6842 C   0  0  0  0  0  0
  -48.1254   -0.7326   17.8690 C   0  0  0  0  0  0
  -47.0442   -0.5465   21.5712 C   0  0  0  0  0  0
  -46.1314   -0.2503   18.8347 C   0  0  0  0  0  0
  -44.5373    0.9871   19.2677 C   0  0  0  0  0  0
  -44.5754    2.0468   21.1446 C   0  0  0  0  0  0
  -43.6915    1.6080   19.5494 C   0  0  0  0  0  0
  -50.5192   -2.2032   20.1601 C   0  0  0  0  0  0
  -50.9415   -2.8382   19.5132 C   0  0  0  0  0  0
  -43.7340    2.1797   20.4720 C   0  0  0  0  0  0
  -45.8764    2.6371   21.2935 C   0  0  0  0  0  0
  -42.7889    0.6650   19.1036 C   0  0  0  0  0  0
  -42.8344    2.0637   19.3056 C   0  0  0  0  0  0
  -50.9051   -3.8527   17.1467 C   0  0  0  0  0  0
  -51.3847   -4.7072   16.9471 C   0  0  0  0  0  0
  -51.6387   -4.9285   15.9993 C   0  0  0  0  0  0
  -50.8463   -3.4895   15.4502 C   0  0  0  0  0  0
  -51.2385   -4.3927   15.2492 C   0  0  0  0  0  0
  -51.3749   -6.1851   17.8558 C   0  0  0  0  0  0
  -51.3632   -2.4428   14.7157 C   0  0  0  0  0  0
  -51.9471   -6.8740   18.3118 C   0  0  0  0  0  0
  -51.5902   -7.8066   18.4252 C   0  0  0  0  0  0
  -50.0269   -7.2716   17.9060 C   0  0  0  0  0  0
  -50.5991   -7.9605   18.3620 C   0  0  0  0  0  0
  -49.2521   -7.7397   16.8646 C   0  0  0  0  0  0
  -52.2352   -5.6560   14.9407 H   0  0  0  0  0  0
  -49.9335   -4.2394   14.7198 H   0  0  0  0  0  0
  -53.0393   -5.9718   18.3066 H   0  0  0  0  0  0
  -52.4258   -8.7466   19.0773 H   0  0  0  0  0  0
  -50.6344   -9.3164   18.7695 H   0  0  0  0  0  0
  1 31  1  0  0  0
  1 47  1  0  0  0
  2 32  2  0  0  0
  3 47  1  0  0  0
  3 50  1  0  0  0
  4 46  2  0  0  0
  5 46  1  0  0  0
  6 48  1  0  0  0
  6 52  1  0  0  0
  7 49  1  0  0  0
  7 59  1  0  0  0
  8 51  1  0  0  0
  8 60  1  0  0  0
  9 52  1  0  0  0
  9 56  1  0  0  0
 11 53  1  0  0  0
 12 54  1  0  0  0
 12 61  1  0  0  0
 13 55  1  0  0  0
 13 62  1  0  0  0
 14 57  1  0  0  0
 14 63  1  0  0  0
 16 58  1  0  0  0
 17 19  1  0  0  0
 17 22  1  0  0  0
 17 33  1  0  0  0
 18 19  1  0  0  0
 18 29  1  0  0  0
 18 35  1  0  0  0
 19 32  1  0  0  0
 20 17  1  0  0  0
 20 28  1  0  0  0
 20 36  1  0  0  0
 21 18  1  0  0  0
 21 23  1  0  0  0
 21 24  1  0  0  0
 22 24  1  0  0  0
 23 31  1  0  0  0
 23 41  1  0  0  0
 23 42  1  0  0  0
 25 20  1  0  0  0
 25 26  1  0  0  0
 25 37  1  0  0  0
 26 27  1  0  0  0
 26 38  1  0  0  0
 27 30  1  0  0  0
 27 39  1  0  0  0
 27 44  1  0  0  0
 28 30  1  0  0  0
 29 34  1  0  0  0
 31 34  1  0  0  0
 32 37  1  0  0  0
 38 40  1  0  0  0
 39 43  1  0  0  0
 40 43  1  0  0  0
 40 45  1  0  0  0
 40 46  1  0  0  0
 47 48  1  0  0  0
 48 49  1  0  0  0
 49 51  1  0  0  0
 50 51  1  0  0  0
 50 53  1  0  0  0
 52 54  1  0  0  0
 53 10  1  0  0  0
 54 55  1  0  0  0
 55 57  1  0  0  0
 56 57  1  0  0  0
 56 58  1  0  0  0
 58 15  1  0  0  0
M  END
>  <CHROM.0>
-34.02443202,-31.60284495,9.52719283

>  <CHROM.1>
166.07880369,-27.99133388,-115.71044691,38.75726700,-159.69130724,-128.18426404
66.35187066,-105.21661559,75.42548002,-43.89210652,109.87853259,100.39694271
-48.60173501,-2.54479595,18.46410110,-3.12761449,-0.90237797,-1.19248097

>  <HEADER>
                                                                          

>  <MASTER>
        0    0    0    0    0    0    0    0  127    0  127    0          

>  <Name>
Diammonium.pdb

>  <RI>
-7.01873e+08

>  <Rbt.Current_Directory>
/root/miniconda3/envs/rdock/share/rxdock-2013.1.1_148c5bd1-0/data/ligands/prepped_ligands/Diammonium

>  <Rbt.Executable>
rbdock/0.1.0

>  <Rbt.Library>
librxdock.so/0.1.0

>  <Rbt.Parameter_File>
/root/miniconda3/envs/rdock/share/rxdock-2013.1.1_148c5bd1-0/data/scripts/dock.prm

>  <Rbt.Receptor>
def.prm

>  <SCORE>
-161.593

>  <SCORE.INTER>
-7.6667

>  <SCORE.INTER.CONST>
1

>  <SCORE.INTER.POLAR>
0

>  <SCORE.INTER.REPUL>
0.26839

>  <SCORE.INTER.ROT>
7

>  <SCORE.INTER.VDW>
-21.4086

>  <SCORE.INTER.norm>
-0.132184

>  <SCORE.INTRA>
-158.992

>  <SCORE.INTRA.DIHEDRAL>
0.995884

>  <SCORE.INTRA.DIHEDRAL.0>
37.64

>  <SCORE.INTRA.POLAR>
0.104995

>  <SCORE.INTRA.POLAR.0>
-0.371885

>  <SCORE.INTRA.REPUL>
-0.241776

>  <SCORE.INTRA.REPUL.0>
0.241776

>  <SCORE.INTRA.VDW>
-158.638

>  <SCORE.INTRA.VDW.0>
400.998

>  <SCORE.INTRA.norm>
-2.74124

>  <SCORE.RESTR>
0.738301

>  <SCORE.RESTR.CAVITY>
0.738301

>  <SCORE.RESTR.norm>
0.0127293

>  <SCORE.SYSTEM>
4.32689

>  <SCORE.SYSTEM.CONST>
0

>  <SCORE.SYSTEM.DIHEDRAL>
8.09595

>  <SCORE.SYSTEM.VDW>
0.278921

>  <SCORE.SYSTEM.norm>
0.0746016

>  <SCORE.heavy>
58

>  <SCORE.norm>
-2.78609

>  <TITLE>
    Diammonium Glycyrrhizinate                                            

$$$$
Diammonium.pdb
  RxDock  02242101173D
librxdock.so/0.1.0
 63 69  0  0  0  0  0  0  0  0999 V2000
  -52.0318   -4.2764   18.5484 O   0  0  0  0  0  0
  -48.1076   -2.1713   17.7748 O   0  0  0  0  0  0
  -52.4593   -4.3417   16.8712 O   0  0  0  0  0  0
  -43.2868    1.6252   19.5214 O   0  5  0  0  0  0
  -43.7810    1.3540   17.8841 O   0  0  0  0  0  0
  -51.6196   -6.2333   18.5195 O   0  0  0  0  0  0
  -52.7879   -7.4801   17.0772 O   0  0  0  0  0  0
  -51.5278   -6.1608   14.9160 O   0  0  0  0  0  0
  -49.8987   -6.2012   18.3304 O   0  0  0  0  0  0
  -52.9161   -3.8934   14.6408 O   0  5  0  0  0  0
  -53.5673   -3.4313   16.1778 O   0  0  0  0  0  0
  -51.4051   -7.6661   20.2237 O   0  0  0  0  0  0
  -49.8081   -9.3500   18.6069 O   0  0  0  0  0  0
  -47.9624   -7.6004   19.8446 O   0  0  0  0  0  0
  -47.4045   -7.2503   18.1151 O   0  5  0  0  0  0
  -47.7273   -5.5500   18.0470 O   0  0  0  0  0  0
  -48.8233   -1.0687   20.0725 C   0  0  0  0  0  0
  -49.6439   -2.2789   19.0633 C   0  0  0  0  0  0
  -48.5818   -2.0314   19.5094 C   0  0  0  0  0  0
  -48.0052   -0.5236   20.2810 C   0  0  0  0  0  0
  -50.1542   -2.7449   20.0170 C   0  0  0  0  0  0
  -49.5652   -1.1536   20.7990 C   0  0  0  0  0  0
  -51.2358   -3.0481   19.6102 C   0  0  0  0  0  0
  -50.3707   -1.7951   20.6394 C   0  0  0  0  0  0
  -47.2859   -0.4301   19.5905 C   0  0  0  0  0  0
  -46.7214    0.5739   19.5040 C   0  0  0  0  0  0
  -46.4677    0.8336   20.5794 C   0  0  0  0  0  0
  -48.0158    0.0916   21.1233 C   0  0  0  0  0  0
  -49.6262   -2.9140   18.1836 C   0  0  0  0  0  0
  -47.2181    0.7375   21.2975 C   0  0  0  0  0  0
  -51.2882   -3.6206   18.6884 C   0  0  0  0  0  0
  -48.0813   -1.6093   18.6029 C   0  0  0  0  0  0
  -49.5590    0.0193   20.4936 C   0  0  0  0  0  0
  -50.4539   -3.5897   17.9944 C   0  0  0  0  0  0
  -49.3586   -1.5227   17.9453 C   0  0  0  0  0  0
  -48.0845   -1.0380   21.5580 C   0  0  0  0  0  0
  -47.3118   -0.9912   18.7634 C   0  0  0  0  0  0
  -45.6834    0.2534   19.0066 C   0  0  0  0  0  0
  -45.6119    1.4702   20.7848 C   0  0  0  0  0  0
  -44.8172    0.8828   19.1905 C   0  0  0  0  0  0
  -51.6467   -2.7542   20.4733 C   0  0  0  0  0  0
  -52.1092   -3.4354   19.9058 C   0  0  0  0  0  0
  -44.8052    1.5319   20.0614 C   0  0  0  0  0  0
  -46.8967    2.0915   20.9481 C   0  0  0  0  0  0
  -43.9497   -0.1090   18.7823 C   0  0  0  0  0  0
  -43.9688    1.3024   18.8651 C   0  0  0  0  0  0
  -52.0949   -4.7881   17.6911 C   0  0  0  0  0  0
  -51.8888   -5.7665   17.6767 C   0  0  0  0  0  0
  -52.0945   -6.3088   16.8548 C   0  0  0  0  0  0
  -52.6174   -4.8738   16.0379 C   0  0  0  0  0  0
  -52.3166   -5.8319   15.9986 C   0  0  0  0  0  0
  -50.7335   -6.6958   18.5776 C   0  0  0  0  0  0
  -53.8337   -4.6102   15.4434 C   0  0  0  0  0  0
  -50.6631   -7.5719   19.0648 C   0  0  0  0  0  0
  -49.7811   -8.0536   19.0769 C   0  0  0  0  0  0
  -49.0122   -6.6629   18.3880 C   0  0  0  0  0  0
  -48.9418   -7.5391   18.8753 C   0  0  0  0  0  0
  -48.2697   -6.5679   17.2288 C   0  0  0  0  0  0
  -52.0884   -7.5272   16.1328 H   0  0  0  0  0  0
  -52.2517   -7.0286   15.2433 H   0  0  0  0  0  0
  -51.4972   -8.6158   19.5353 H   0  0  0  0  0  0
  -49.7215   -9.2830   19.7784 H   0  0  0  0  0  0
  -48.0143   -8.5664   19.1756 H   0  0  0  0  0  0
  1 31  1  0  0  0
  1 47  1  0  0  0
  2 32  2  0  0  0
  3 47  1  0  0  0
  3 50  1  0  0  0
  4 46  2  0  0  0
  5 46  1  0  0  0
  6 48  1  0  0  0
  6 52  1  0  0  0
  7 49  1  0  0  0
  7 59  1  0  0  0
  8 51  1  0  0  0
  8 60  1  0  0  0
  9 52  1  0  0  0
  9 56  1  0  0  0
 11 53  1  0  0  0
 12 54  1  0  0  0
 12 61  1  0  0  0
 13 55  1  0  0  0
 13 62  1  0  0  0
 14 57  1  0  0  0
 14 63  1  0  0  0
 16 58  1  0  0  0
 17 19  1  0  0  0
 17 22  1  0  0  0
 17 33  1  0  0  0
 18 19  1  0  0  0
 18 29  1  0  0  0
 18 35  1  0  0  0
 19 32  1  0  0  0
 20 17  1  0  0  0
 20 28  1  0  0  0
 20 36  1  0  0  0
 21 18  1  0  0  0
 21 23  1  0  0  0
 21 24  1  0  0  0
 22 24  1  0  0  0
 23 31  1  0  0  0
 23 41  1  0  0  0
 23 42  1  0  0  0
 25 20  1  0  0  0
 25 26  1  0  0  0
 25 37  1  0  0  0
 26 27  1  0  0  0
 26 38  1  0  0  0
 27 30  1  0  0  0
 27 39  1  0  0  0
 27 44  1  0  0  0
 28 30  1  0  0  0
 29 34  1  0  0  0
 31 34  1  0  0  0
 32 37  1  0  0  0
 38 40  1  0  0  0
 39 43  1  0  0  0
 40 43  1  0  0  0
 40 45  1  0  0  0
 40 46  1  0  0  0
 47 48  1  0  0  0
 48 49  1  0  0  0
 49 51  1  0  0  0
 50 51  1  0  0  0
 50 53  1  0  0  0
 52 54  1  0  0  0
 53 10  1  0  0  0
 54 55  1  0  0  0
 55 57  1  0  0  0
 56 57  1  0  0  0
 56 58  1  0  0  0
 58 15  1  0  0  0
M  END
>  <CHROM.0>
174.08997897,179.34908359,-48.46314007

>  <CHROM.1>
178.47886339,-77.98967622,-120.70012821,51.92842954,-150.88331894,70.15630782
134.69986175,-105.26528622,77.90704109,-159.93398248,102.41486302,176.50903690
-49.23878779,-3.20840552,18.73237076,2.24057623,0.27187848,-3.04076008

>  <HEADER>
                                                                          

>  <MASTER>
        0    0    0    0    0    0    0    0  127    0  127    0          

>  <Name>
Diammonium.pdb

>  <RI>
-7.01873e+08

>  <Rbt.Current_Directory>
/root/miniconda3/envs/rdock/share/rxdock-2013.1.1_148c5bd1-0/data/ligands/prepped_ligands/Diammonium

>  <Rbt.Executable>
rbdock/0.1.0

>  <Rbt.Library>
librxdock.so/0.1.0

>  <Rbt.Parameter_File>
/root/miniconda3/envs/rdock/share/rxdock-2013.1.1_148c5bd1-0/data/scripts/dock.prm

>  <Rbt.Receptor>
def.prm

>  <SCORE>
-161.748

>  <SCORE.INTER>
-14.345

>  <SCORE.INTER.CONST>
1

>  <SCORE.INTER.POLAR>
-1.25179

>  <SCORE.INTER.REPUL>
0

>  <SCORE.INTER.ROT>
7

>  <SCORE.INTER.VDW>
-22.4889

>  <SCORE.INTER.norm>
-0.247327

>  <SCORE.INTRA>
-146.608

>  <SCORE.INTRA.DIHEDRAL>
3.12451

>  <SCORE.INTRA.DIHEDRAL.0>
37.64

>  <SCORE.INTRA.POLAR>
0.371885

>  <SCORE.INTRA.POLAR.0>
-0.371885

>  <SCORE.INTRA.REPUL>
-0.241776

>  <SCORE.INTRA.REPUL.0>
0.241776

>  <SCORE.INTRA.VDW>
-148.226

>  <SCORE.INTRA.VDW.0>
400.998

>  <SCORE.INTRA.norm>
-2.52772

>  <SCORE.RESTR>
0.000416718

>  <SCORE.RESTR.CAVITY>
0.000416718

>  <SCORE.RESTR.norm>
7.1848e-06

>  <SCORE.SYSTEM>
-0.795629

>  <SCORE.SYSTEM.CONST>
0

>  <SCORE.SYSTEM.DIHEDRAL>
0.401759

>  <SCORE.SYSTEM.POLAR>
-0.0187991

>  <SCORE.SYSTEM.VDW>
-0.932591

>  <SCORE.SYSTEM.norm>
-0.0137177

>  <SCORE.heavy>
58

>  <SCORE.norm>
-2.78876

>  <TITLE>
    Diammonium Glycyrrhizinate                                            

$$$$
Diammonium.pdb
  RxDock  02242101173D
librxdock.so/0.1.0
 63 69  0  0  0  0  0  0  0  0999 V2000
  -49.6873    0.1436   19.5546 O   0  0  0  0  0  0
  -48.8367   -4.2780   19.9480 O   0  0  0  0  0  0
  -48.2347    0.6082   20.3757 O   0  0  0  0  0  0
  -49.3632   -9.9394   20.0267 O   0  5  0  0  0  0
  -50.4841  -10.1792   21.3246 O   0  0  0  0  0  0
  -48.8861    0.7155   17.8136 O   0  0  0  0  0  0
  -47.4020    2.3860   17.8965 O   0  0  0  0  0  0
  -45.6119    0.7247   19.3234 O   0  0  0  0  0  0
  -48.0477   -0.7035   17.2827 O   0  0  0  0  0  0
  -46.3802    0.9064   21.8037 O   0  5  0  0  0  0
  -48.0965    1.1142   21.9075 O   0  0  0  0  0  0
  -50.4650    0.3596   16.2697 O   0  0  0  0  0  0
  -48.4702    0.1709   14.2733 O   0  0  0  0  0  0
  -48.7870   -2.4793   15.2092 O   0  0  0  0  0  0
  -46.9499   -2.8164   16.8640 O   0  5  0  0  0  0
  -46.6645   -1.4313   17.8641 O   0  0  0  0  0  0
  -51.4717   -4.2503   20.1987 C   0  0  0  0  0  0
  -50.3160   -2.9204   19.9715 C   0  0  0  0  0  0
  -50.5716   -3.9897   19.5477 C   0  0  0  0  0  0
  -51.6682   -5.2358   20.2153 C   0  0  0  0  0  0
  -51.1375   -2.2864   19.4145 C   0  0  0  0  0  0
  -52.2698   -3.5832   20.1405 C   0  0  0  0  0  0
  -50.9028   -1.1751   19.7852 C   0  0  0  0  0  0
  -52.0817   -2.5653   20.0204 C   0  0  0  0  0  0
  -50.9110   -5.8885   20.2751 C   0  0  0  0  0  0
  -51.0538   -6.8554   20.8906 C   0  0  0  0  0  0
  -52.0673   -7.2409   20.5550 C   0  0  0  0  0  0
  -52.6511   -5.5469   20.3738 C   0  0  0  0  0  0
  -49.2904   -2.6047   19.8093 C   0  0  0  0  0  0
  -52.8557   -6.5605   20.4947 C   0  0  0  0  0  0
  -49.8762   -0.8256   19.7202 C   0  0  0  0  0  0
  -49.7800   -4.5961   20.0538 C   0  0  0  0  0  0
  -52.3960   -4.1292   21.2153 C   0  0  0  0  0  0
  -49.0686   -1.5502   19.6827 C   0  0  0  0  0  0
  -49.4953   -3.4864   20.9249 C   0  0  0  0  0  0
  -52.6716   -4.9709   19.3072 C   0  0  0  0  0  0
  -49.9688   -5.5712   20.1695 C   0  0  0  0  0  0
  -50.2584   -7.6014   20.4026 C   0  0  0  0  0  0
  -52.2842   -8.3024   20.6315 C   0  0  0  0  0  0
  -50.4508   -8.6680   20.4777 C   0  0  0  0  0  0
  -51.8827   -0.9829   19.8408 C   0  0  0  0  0  0
  -51.2327   -0.2338   19.7129 C   0  0  0  0  0  0
  -51.4665   -9.0160   20.6426 C   0  0  0  0  0  0
  -52.9343   -7.4680   21.6033 C   0  0  0  0  0  0
  -49.5423   -8.9511   19.4792 C   0  0  0  0  0  0
  -50.1105   -9.6014   20.5988 C   0  0  0  0  0  0
  -48.7431    0.4726   19.5228 C   0  0  0  0  0  0
  -48.3425    0.7586   18.6523 C   0  0  0  0  0  0
  -47.4520    1.2261   18.6413 C   0  0  0  0  0  0
  -47.3266    1.0295   20.3576 C   0  0  0  0  0  0
  -46.8891    1.2234   19.4738 C   0  0  0  0  0  0
  -48.6284    0.0862   17.0787 C   0  0  0  0  0  0
  -47.1512    1.9927   21.3291 C   0  0  0  0  0  0
  -49.1063    0.1335   16.1959 C   0  0  0  0  0  0
  -48.8091   -0.4681   15.4478 C   0  0  0  0  0  0
  -47.7894   -1.3332   16.5485 C   0  0  0  0  0  0
  -48.2674   -1.2860   15.6657 C   0  0  0  0  0  0
  -46.4302   -1.5599   16.4753 C   0  0  0  0  0  0
  -46.3398    1.9370   18.1280 H   0  0  0  0  0  0
  -46.2056    0.2215   20.2058 H   0  0  0  0  0  0
  -49.8261    1.1964   16.7950 H   0  0  0  0  0  0
  -48.6509   -0.9839   14.1378 H   0  0  0  0  0  0
  -48.4781   -2.5116   16.3436 H   0  0  0  0  0  0
  1 31  1  0  0  0
  1 47  1  0  0  0
  2 32  2  0  0  0
  3 47  1  0  0  0
  3 50  1  0  0  0
  4 46  2  0  0  0
  5 46  1  0  0  0
  6 48  1  0  0  0
  6 52  1  0  0  0
  7 49  1  0  0  0
  7 59  1  0  0  0
  8 51  1  0  0  0
  8 60  1  0  0  0
  9 52  1  0  0  0
  9 56  1  0  0  0
 11 53  1  0  0  0
 12 54  1  0  0  0
 12 61  1  0  0  0
 13 55  1  0  0  0
 13 62  1  0  0  0
 14 57  1  0  0  0
 14 63  1  0  0  0
 16 58  1  0  0  0
 17 19  1  0  0  0
 17 22  1  0  0  0
 17 33  1  0  0  0
 18 19  1  0  0  0
 18 29  1  0  0  0
 18 35  1  0  0  0
 19 32  1  0  0  0
 20 17  1  0  0  0
 20 28  1  0  0  0
 20 36  1  0  0  0
 21 18  1  0  0  0
 21 23  1  0  0  0
 21 24  1  0  0  0
 22 24  1  0  0  0
 23 31  1  0  0  0
 23 41  1  0  0  0
 23 42  1  0  0  0
 25 20  1  0  0  0
 25 26  1  0  0  0
 25 37  1  0  0  0
 26 27  1  0  0  0
 26 38  1  0  0  0
 27 30  1  0  0  0
 27 39  1  0  0  0
 27 44  1  0  0  0
 28 30  1  0  0  0
 29 34  1  0  0  0
 31 34  1  0  0  0
 32 37  1  0  0  0
 38 40  1  0  0  0
 39 43  1  0  0  0
 40 43  1  0  0  0
 40 45  1  0  0  0
 40 46  1  0  0  0
 47 48  1  0  0  0
 48 49  1  0  0  0
 49 51  1  0  0  0
 50 51  1  0  0  0
 50 53  1  0  0  0
 52 54  1  0  0  0
 53 10  1  0  0  0
 54 55  1  0  0  0
 55 57  1  0  0  0
 56 57  1  0  0  0
 56 58  1  0  0  0
 58 15  1  0  0  0
M  END
>  <CHROM.0>
-44.40656318,-173.32972929,94.27326865

>  <CHROM.1>
178.09054512,-77.46273496,-114.55263150,21.02034672,-161.93211871,-127.83916406
57.35257325,-163.80324223,-130.80895307,-51.43069036,106.70108555,113.33351938
-49.60217940,-2.84628289,19.26420594,0.70748211,1.07901978,0.53123200

>  <HEADER>
                                                                          

>  <MASTER>
        0    0    0    0    0    0    0    0  127    0  127    0          

>  <Name>
Diammonium.pdb

>  <RI>
-7.01873e+08

>  <Rbt.Current_Directory>
/root/miniconda3/envs/rdock/share/rxdock-2013.1.1_148c5bd1-0/data/ligands/prepped_ligands/Diammonium

>  <Rbt.Executable>
rbdock/0.1.0

>  <Rbt.Library>
librxdock.so/0.1.0

>  <Rbt.Parameter_File>
/root/miniconda3/envs/rdock/share/rxdock-2013.1.1_148c5bd1-0/data/scripts/dock.prm

>  <Rbt.Receptor>
def.prm

>  <SCORE>
-157.698

>  <SCORE.INTER>
0.925273

>  <SCORE.INTER.CONST>
1

>  <SCORE.INTER.POLAR>
-1.3362

>  <SCORE.INTER.REPUL>
0.0621153

>  <SCORE.INTER.ROT>
7

>  <SCORE.INTER.VDW>
-7.24222

>  <SCORE.INTER.norm>
0.015953

>  <SCORE.INTRA>
-161.549

>  <SCORE.INTRA.DIHEDRAL>
1.76836

>  <SCORE.INTRA.DIHEDRAL.0>
37.64

>  <SCORE.INTRA.POLAR>
-0.0743045

>  <SCORE.INTRA.POLAR.0>
-0.371885

>  <SCORE.INTRA.REPUL>
-0.0499367

>  <SCORE.INTRA.REPUL.0>
0.241776

>  <SCORE.INTRA.VDW>
-161.931

>  <SCORE.INTRA.VDW.0>
400.998

>  <SCORE.INTRA.norm>
-2.78533

>  <SCORE.RESTR>
1.92725

>  <SCORE.RESTR.CAVITY>
1.92725

>  <SCORE.RESTR.norm>
0.0332285

>  <SCORE.SYSTEM>
0.998133

>  <SCORE.SYSTEM.CONST>
0

>  <SCORE.SYSTEM.DIHEDRAL>
2.95866

>  <SCORE.SYSTEM.POLAR>
-0.00729283

>  <SCORE.SYSTEM.VDW>
-0.4564

>  <SCORE.SYSTEM.norm>
0.0172092

>  <SCORE.heavy>
58

>  <SCORE.norm>
-2.71894

>  <TITLE>
    Diammonium Glycyrrhizinate                                            

$$$$
Diammonium.pdb
  RxDock  02242101173D
librxdock.so/0.1.0
 63 69  0  0  0  0  0  0  0  0999 V2000
  -46.6460    0.0210   17.8974 O   0  0  0  0  0  0
  -49.3512   -3.5442   18.5302 O   0  0  0  0  0  0
  -47.6043    1.0194   18.9388 O   0  0  0  0  0  0
  -54.1432   -7.3045   16.8503 O   0  5  0  0  0  0
  -52.7889   -7.9871   17.6859 O   0  0  0  0  0  0
  -44.9950    0.5867   18.8742 O   0  0  0  0  0  0
  -45.0164    2.6346   19.7716 O   0  0  0  0  0  0
  -47.0231    1.8170   21.5895 O   0  0  0  0  0  0
  -44.8425   -0.4709   20.2367 O   0  0  0  0  0  0
  -49.2496    2.0671   20.2687 O   0  5  0  0  0  0
  -49.0141    1.7350   18.5852 O   0  0  0  0  0  0
  -43.2769   -0.4455   17.8814 O   0  0  0  0  0  0
  -41.7067   -0.0648   20.2029 O   0  0  0  0  0  0
  -42.9734   -2.5611   20.6076 O   0  0  0  0  0  0
  -45.0077   -2.0456   22.0343 O   0  5  0  0  0  0
  -45.7454   -0.5360   21.6140 O   0  0  0  0  0  0
  -50.0373   -2.8237   16.0772 C   0  0  0  0  0  0
  -48.8677   -2.1115   17.2090 C   0  0  0  0  0  0
  -49.1983   -3.1561   16.7754 C   0  0  0  0  0  0
  -50.6576   -3.5743   15.8285 C   0  0  0  0  0  0
  -48.2162   -1.7219   16.3085 C   0  0  0  0  0  0
  -49.7580   -2.1421   15.3404 C   0  0  0  0  0  0
  -47.8233   -0.6675   16.7100 C   0  0  0  0  0  0
  -49.0385   -1.4194   15.5543 C   0  0  0  0  0  0
  -50.9377   -4.2345   16.5276 C   0  0  0  0  0  0
  -52.0121   -4.6574   16.4985 C   0  0  0  0  0  0
  -52.1622   -4.9362   15.4085 C   0  0  0  0  0  0
  -51.1509   -3.5319   14.9104 C   0  0  0  0  0  0
  -48.3608   -2.1614   18.1672 C   0  0  0  0  0  0
  -51.8717   -4.2471   14.6813 C   0  0  0  0  0  0
  -47.3737   -0.6375   17.6986 C   0  0  0  0  0  0
  -49.7991   -3.5444   17.6348 C   0  0  0  0  0  0
  -50.9504   -1.9777   15.4829 C   0  0  0  0  0  0
  -47.6085   -1.4195   18.4141 C   0  0  0  0  0  0
  -49.7946   -2.2312   18.2237 C   0  0  0  0  0  0
  -49.9757   -3.6361   14.6315 C   0  0  0  0  0  0
  -50.4906   -4.2346   17.4218 C   0  0  0  0  0  0
  -51.9042   -5.6980   17.0753 C   0  0  0  0  0  0
  -52.8778   -5.7120   15.1520 C   0  0  0  0  0  0
  -52.6170   -6.4838   16.8415 C   0  0  0  0  0  0
  -47.9434   -0.2719   15.7994 C   0  0  0  0  0  0
  -47.2849    0.1295   16.4359 C   0  0  0  0  0  0
  -53.1429   -6.4610   15.8913 C   0  0  0  0  0  0
  -53.2908   -4.3686   14.8550 C   0  0  0  0  0  0
  -51.8149   -7.4485   17.4150 C   0  0  0  0  0  0
  -53.1875   -7.2502   17.1397 C   0  0  0  0  0  0
  -46.7175    0.6227   18.6933 C   0  0  0  0  0  0
  -45.8920    0.9056   19.1817 C   0  0  0  0  0  0
  -45.9478    1.6235   19.8840 C   0  0  0  0  0  0
  -47.6652    1.6984   19.6721 C   0  0  0  0  0  0
  -46.8508    1.9046   20.2238 C   0  0  0  0  0  0
  -44.4219    0.0345   19.4817 C   0  0  0  0  0  0
  -48.4512    2.7844   19.3479 C   0  0  0  0  0  0
  -43.4736   -0.1690   19.2183 C   0  0  0  0  0  0
  -42.8900   -0.6823   19.8554 C   0  0  0  0  0  0
  -44.2701   -1.0233   20.8447 C   0  0  0  0  0  0
  -43.3219   -1.2267   20.5814 C   0  0  0  0  0  0
  -44.4677   -0.7470   22.1822 C   0  0  0  0  0  0
  -45.4437    2.5163   20.8611 H   0  0  0  0  0  0
  -47.8803    1.2908   20.9789 H   0  0  0  0  0  0
  -43.6829    0.6417   18.0755 H   0  0  0  0  0  0
  -41.7237   -0.4411   19.0882 H   0  0  0  0  0  0
  -42.5030   -1.9412   21.4895 H   0  0  0  0  0  0
  1 31  1  0  0  0
  1 47  1  0  0  0
  2 32  2  0  0  0
  3 47  1  0  0  0
  3 50  1  0  0  0
  4 46  2  0  0  0
  5 46  1  0  0  0
  6 48  1  0  0  0
  6 52  1  0  0  0
  7 49  1  0  0  0
  7 59  1  0  0  0
  8 51  1  0  0  0
  8 60  1  0  0  0
  9 52  1  0  0  0
  9 56  1  0  0  0
 11 53  1  0  0  0
 12 54  1  0  0  0
 12 61  1  0  0  0
 13 55  1  0  0  0
 13 62  1  0  0  0
 14 57  1  0  0  0
 14 63  1  0  0  0
 16 58  1  0  0  0
 17 19  1  0  0  0
 17 22  1  0  0  0
 17 33  1  0  0  0
 18 19  1  0  0  0
 18 29  1  0  0  0
 18 35  1  0  0  0
 19 32  1  0  0  0
 20 17  1  0  0  0
 20 28  1  0  0  0
 20 36  1  0  0  0
 21 18  1  0  0  0
 21 23  1  0  0  0
 21 24  1  0  0  0
 22 24  1  0  0  0
 23 31  1  0  0  0
 23 41  1  0  0  0
 23 42  1  0  0  0
 25 20  1  0  0  0
 25 26  1  0  0  0
 25 37  1  0  0  0
 26 27  1  0  0  0
 26 38  1  0  0  0
 27 30  1  0  0  0
 27 39  1  0  0  0
 27 44  1  0  0  0
 28 30  1  0  0  0
 29 34  1  0  0  0
 31 34  1  0  0  0
 32 37  1  0  0  0
 38 40  1  0  0  0
 39 43  1  0  0  0
 40 43  1  0  0  0
 40 45  1  0  0  0
 40 46  1  0  0  0
 47 48  1  0  0  0
 48 49  1  0  0  0
 49 51  1  0  0  0
 50 51  1  0  0  0
 50 53  1  0  0  0
 52 54  1  0  0  0
 53 10  1  0  0  0
 54 55  1  0  0  0
 55 57  1  0  0  0
 56 57  1  0  0  0
 56 58  1  0  0  0
 58 15  1  0  0  0
M  END
>  <CHROM.0>
-52.51097941,63.07420990,172.86240025

>  <CHROM.1>
127.90761890,-39.06113378,-118.88097876,21.93735534,-157.02654500,-129.09358673
62.23761030,-70.55058227,107.79523463,132.81350761,106.82875400,110.73039104
-48.26717409,-1.87676704,18.04001451,0.51239960,-0.59579487,-0.19675876

>  <HEADER>
                                                                          

>  <MASTER>
        0    0    0    0    0    0    0    0  127    0  127    0          

>  <Name>
Diammonium.pdb

>  <RI>
-7.01873e+08

>  <Rbt.Current_Directory>
/root/miniconda3/envs/rdock/share/rxdock-2013.1.1_148c5bd1-0/data/ligands/prepped_ligands/Diammonium

>  <Rbt.Executable>
rbdock/0.1.0

>  <Rbt.Library>
librxdock.so/0.1.0

>  <Rbt.Parameter_File>
/root/miniconda3/envs/rdock/share/rxdock-2013.1.1_148c5bd1-0/data/scripts/dock.prm

>  <Rbt.Receptor>
def.prm

>  <SCORE>
-173.23

>  <SCORE.INTER>
-7.15149

>  <SCORE.INTER.CONST>
1

>  <SCORE.INTER.POLAR>
0

>  <SCORE.INTER.REPUL>
0.0807406

>  <SCORE.INTER.ROT>
7

>  <SCORE.INTER.VDW>
-19.9552

>  <SCORE.INTER.norm>
-0.123302

>  <SCORE.INTRA>
-165.719

>  <SCORE.INTRA.DIHEDRAL>
-1.04058

>  <SCORE.INTRA.DIHEDRAL.0>
37.64

>  <SCORE.INTRA.POLAR>
0.0711563

>  <SCORE.INTRA.POLAR.0>
-0.371885

>  <SCORE.INTRA.REPUL>
-0.241776

>  <SCORE.INTRA.REPUL.0>
0.241776

>  <SCORE.INTRA.VDW>
-164.232

>  <SCORE.INTRA.VDW.0>
400.998

>  <SCORE.INTRA.norm>
-2.85723

>  <SCORE.RESTR>
0.538799

>  <SCORE.RESTR.CAVITY>
0.538799

>  <SCORE.RESTR.norm>
0.00928963

>  <SCORE.SYSTEM>
-0.897767

>  <SCORE.SYSTEM.CONST>
0

>  <SCORE.SYSTEM.DIHEDRAL>
0.307883

>  <SCORE.SYSTEM.VDW>
-1.05171

>  <SCORE.SYSTEM.norm>
-0.0154787

>  <SCORE.heavy>
58

>  <SCORE.norm>
-2.98672

>  <TITLE>
    Diammonium Glycyrrhizinate                                            

$$$$
Diammonium.pdb
  RxDock  02242101173D
librxdock.so/0.1.0
 63 69  0  0  0  0  0  0  0  0999 V2000
  -47.6657    0.4663   18.4510 O   0  0  0  0  0  0
  -48.9786   -3.8301   18.9468 O   0  0  0  0  0  0
  -46.7771    0.4970   19.9374 O   0  0  0  0  0  0
  -51.6459   -8.6937   18.7755 O   0  5  0  0  0  0
  -52.7827   -8.7874   17.4727 O   0  0  0  0  0  0
  -45.9509    0.3497   17.4283 O   0  0  0  0  0  0
  -44.1639    1.3202   18.3582 O   0  0  0  0  0  0
  -44.2147   -0.5871   20.4462 O   0  0  0  0  0  0
  -45.6211   -1.3483   17.3480 O   0  0  0  0  0  0
  -45.9887    0.3444   22.1429 O   0  5  0  0  0  0
  -47.2262    1.2196   21.3047 O   0  0  0  0  0  0
  -46.4316    0.3590   15.2438 O   0  0  0  0  0  0
  -43.9600   -0.9018   14.6945 O   0  0  0  0  0  0
  -45.7722   -3.0380   15.0848 O   0  0  0  0  0  0
  -45.4777   -3.7115   17.5511 O   0  5  0  0  0  0
  -45.1406   -2.3395   18.5531 O   0  0  0  0  0  0
  -50.7617   -2.9603   17.1944 C   0  0  0  0  0  0
  -49.4244   -2.1149   18.0026 C   0  0  0  0  0  0
  -49.6576   -3.1203   17.4340 C   0  0  0  0  0  0
  -51.2407   -3.8160   16.9748 C   0  0  0  0  0  0
  -49.3109   -1.3898   17.0815 C   0  0  0  0  0  0
  -50.9751   -2.1101   16.6312 C   0  0  0  0  0  0
  -49.0382   -0.3498   17.6024 C   0  0  0  0  0  0
  -50.4165   -1.2426   16.7775 C   0  0  0  0  0  0
  -51.0485   -4.6401   17.5104 C   0  0  0  0  0  0
  -51.9117   -5.3732   17.7373 C   0  0  0  0  0  0
  -52.4314   -5.4953   16.7356 C   0  0  0  0  0  0
  -52.0650   -3.7779   16.3366 C   0  0  0  0  0  0
  -48.5698   -2.1625   18.6697 C   0  0  0  0  0  0
  -52.6326   -4.6362   16.1793 C   0  0  0  0  0  0
  -48.2397   -0.3464   18.3393 C   0  0  0  0  0  0
  -49.7437   -3.8211   18.3012 C   0  0  0  0  0  0
  -52.0047   -2.3630   17.2185 C   0  0  0  0  0  0
  -47.9731   -1.2722   18.8395 C   0  0  0  0  0  0
  -49.7947   -2.6962   19.1975 C   0  0  0  0  0  0
  -51.1205   -3.4512   15.6504 C   0  0  0  0  0  0
  -50.2845   -4.6494   18.1552 C   0  0  0  0  0  0
  -51.3414   -6.4068   17.9216 C   0  0  0  0  0  0
  -52.9920   -6.4037   16.5349 C   0  0  0  0  0  0
  -51.8879   -7.3274   17.7374 C   0  0  0  0  0  0
  -49.6106    0.1356   16.9415 C   0  0  0  0  0  0
  -48.8580    0.6120   17.3960 C   0  0  0  0  0  0
  -52.7497   -7.3125   17.0763 C   0  0  0  0  0  0
  -53.7843   -5.2334   16.7922 C   0  0  0  0  0  0
  -50.7243   -8.0672   17.6996 C   0  0  0  0  0  0
  -52.0934   -8.2751   17.9852 C   0  0  0  0  0  0
  -46.7952    0.4026   18.9399 C   0  0  0  0  0  0
  -45.9379    0.3443   18.4286 C   0  0  0  0  0  0
  -45.0603    0.4303   18.9124 C   0  0  0  0  0  0
  -45.9021    0.5331   20.4226 C   0  0  0  0  0  0
  -45.0488    0.3750   19.9158 C   0  0  0  0  0  0
  -45.6203   -0.4448   16.9165 C   0  0  0  0  0  0
  -45.8475    1.5259   21.3786 C   0  0  0  0  0  0
  -45.4795   -0.3711   15.9242 C   0  0  0  0  0  0
  -45.1013   -1.1575   15.4256 C   0  0  0  0  0  0
  -45.2906   -2.1433   16.8370 C   0  0  0  0  0  0
  -45.1498   -2.0696   15.8447 C   0  0  0  0  0  0
  -44.3386   -2.8740   17.5182 C   0  0  0  0  0  0
  -43.6855    0.6340   19.1850 H   0  0  0  0  0  0
  -44.5037    0.2530   21.2177 H   0  0  0  0  0  0
  -45.5750   -0.0490   14.5479 H   0  0  0  0  0  0
  -44.2560   -2.0405   14.7095 H   0  0  0  0  0  0
  -45.0322   -2.3662   14.4648 H   0  0  0  0  0  0
  1 31  1  0  0  0
  1 47  1  0  0  0
  2 32  2  0  0  0
  3 47  1  0  0  0
  3 50  1  0  0  0
  4 46  2  0  0  0
  5 46  1  0  0  0
  6 48  1  0  0  0
  6 52  1  0  0  0
  7 49  1  0  0  0
  7 59  1  0  0  0
  8 51  1  0  0  0
  8 60  1  0  0  0
  9 52  1  0  0  0
  9 56  1  0  0  0
 11 53  1  0  0  0
 12 54  1  0  0  0
 12 61  1  0  0  0
 13 55  1  0  0  0
 13 62  1  0  0  0
 14 57  1  0  0  0
 14 63  1  0  0  0
 16 58  1  0  0  0
 17 19  1  0  0  0
 17 22  1  0  0  0
 17 33  1  0  0  0
 18 19  1  0  0  0
 18 29  1  0  0  0
 18 35  1  0  0  0
 19 32  1  0  0  0
 20 17  1  0  0  0
 20 28  1  0  0  0
 20 36  1  0  0  0
 21 18  1  0  0  0
 21 23  1  0  0  0
 21 24  1  0  0  0
 22 24  1  0  0  0
 23 31  1  0  0  0
 23 41  1  0  0  0
 23 42  1  0  0  0
 25 20  1  0  0  0
 25 26  1  0  0  0
 25 37  1  0  0  0
 26 27  1  0  0  0
 26 38  1  0  0  0
 27 30  1  0  0  0
 27 39  1  0  0  0
 27 44  1  0  0  0
 28 30  1  0  0  0
 29 34  1  0  0  0
 31 34  1  0  0  0
 32 37  1  0  0  0
 38 40  1  0  0  0
 39 43  1  0  0  0
 40 43  1  0  0  0
 40 45  1  0  0  0
 40 46  1  0  0  0
 47 48  1  0  0  0
 48 49  1  0  0  0
 49 51  1  0  0  0
 50 51  1  0  0  0
 50 53  1  0  0  0
 52 54  1  0  0  0
 53 10  1  0  0  0
 54 55  1  0  0  0
 55 57  1  0  0  0
 56 57  1  0  0  0
 56 58  1  0  0  0
 58 15  1  0  0  0
M  END
>  <CHROM.0>
-37.37265733,-60.82675609,-165.72775145

>  <CHROM.1>
-163.91998097,-86.10816462,-116.97159312,24.23634961,-168.14874071,160.38342636
178.61286837,174.05685934,43.77253397,0.84690237,105.32079553,108.52545722
-48.47038426,-2.44516096,17.78200251,0.62518399,0.48579402,0.75537096

>  <HEADER>
                                                                          

>  <MASTER>
        0    0    0    0    0    0    0    0  127    0  127    0          

>  <Name>
Diammonium.pdb

>  <RI>
-7.01873e+08

>  <Rbt.Current_Directory>
/root/miniconda3/envs/rdock/share/rxdock-2013.1.1_148c5bd1-0/data/ligands/prepped_ligands/Diammonium

>  <Rbt.Executable>
rbdock/0.1.0

>  <Rbt.Library>
librxdock.so/0.1.0

>  <Rbt.Parameter_File>
/root/miniconda3/envs/rdock/share/rxdock-2013.1.1_148c5bd1-0/data/scripts/dock.prm

>  <Rbt.Receptor>
def.prm

>  <SCORE>
-163.979

>  <SCORE.INTER>
-17.1554

>  <SCORE.INTER.CONST>
1

>  <SCORE.INTER.POLAR>
-0.701355

>  <SCORE.INTER.REPUL>
0.314963

>  <SCORE.INTER.ROT>
7

>  <SCORE.INTER.VDW>
-28.7456

>  <SCORE.INTER.norm>
-0.295782

>  <SCORE.INTRA>
-146.753

>  <SCORE.INTRA.DIHEDRAL>
-6.33833

>  <SCORE.INTRA.DIHEDRAL.0>
37.64

>  <SCORE.INTRA.POLAR>
0.371885

>  <SCORE.INTRA.POLAR.0>
-0.371885

>  <SCORE.INTRA.REPUL>
-0.191336

>  <SCORE.INTRA.REPUL.0>
0.241776

>  <SCORE.INTRA.VDW>
-143.892

>  <SCORE.INTRA.VDW.0>
400.998

>  <SCORE.INTRA.norm>
-2.53023

>  <SCORE.RESTR>
0

>  <SCORE.RESTR.CAVITY>
0

>  <SCORE.RESTR.norm>
0

>  <SCORE.SYSTEM>
-0.0707935

>  <SCORE.SYSTEM.CONST>
0

>  <SCORE.SYSTEM.DIHEDRAL>
1.58174

>  <SCORE.SYSTEM.POLAR>
-0.0198617

>  <SCORE.SYSTEM.VDW>
-0.794134

>  <SCORE.SYSTEM.norm>
-0.00122058

>  <SCORE.heavy>
58

>  <SCORE.norm>
-2.82723

>  <TITLE>
    Diammonium Glycyrrhizinate                                            

$$$$
