Diammonium.pdb
  RxDock  02242112543D
librxdock.so/0.1.0
 63 69  0  0  0  0  0  0  0  0999 V2000
  -51.0227   -1.6219   17.4608 O   0  0  0  0  0  0
  -46.6125   -0.6354   17.5384 O   0  0  0  0  0  0
  -50.6312   -1.4858   15.7791 O   0  0  0  0  0  0
  -41.4821    1.8460   20.2392 O   0  5  0  0  0  0
  -41.2938    0.4155   19.2817 O   0  0  0  0  0  0
  -52.1384   -3.2352   17.0706 O   0  0  0  0  0  0
  -53.1034   -3.3201   15.0553 O   0  0  0  0  0  0
  -50.5569   -3.5489   13.8457 O   0  0  0  0  0  0
  -51.2501   -4.6317   17.5793 O   0  0  0  0  0  0
  -49.7096   -1.1172   13.6273 O   0  5  0  0  0  0
  -50.2481   -0.1389   14.9513 O   0  0  0  0  0  0
  -54.0462   -4.2220   17.6948 O   0  0  0  0  0  0
  -53.3704   -6.4995   16.1597 O   0  0  0  0  0  0
  -52.2677   -7.0149   18.7128 O   0  0  0  0  0  0
  -49.8171   -6.2740   18.5356 O   0  5  0  0  0  0
  -49.6357   -4.8867   17.5146 O   0  0  0  0  0  0
  -47.3022   -0.0434   20.0246 C   0  0  0  0  0  0
  -48.2767   -0.6347   18.6619 C   0  0  0  0  0  0
  -47.2550   -0.8422   19.2111 C   0  0  0  0  0  0
  -46.4028    0.1584   20.4250 C   0  0  0  0  0  0
  -49.0133   -1.1725   19.4072 C   0  0  0  0  0  0
  -48.1283   -0.1018   20.6567 C   0  0  0  0  0  0
  -50.0737   -1.0210   18.8780 C   0  0  0  0  0  0
  -49.0478   -0.4090   20.2746 C   0  0  0  0  0  0
  -45.6006    0.2215   19.8288 C   0  0  0  0  0  0
  -44.7821    0.9988   20.0735 C   0  0  0  0  0  0
  -44.6114    0.8681   21.1880 C   0  0  0  0  0  0
  -46.3589    0.4947   21.4114 C   0  0  0  0  0  0
  -48.3143   -0.9811   17.6342 C   0  0  0  0  0  0
  -45.4476    0.8043   21.8083 C   0  0  0  0  0  0
  -50.1559   -1.2780   17.8255 C   0  0  0  0  0  0
  -46.5457   -0.3548   18.4971 C   0  0  0  0  0  0
  -47.7690    1.0542   20.7172 C   0  0  0  0  0  0
  -49.2602   -1.3051   17.2127 C   0  0  0  0  0  0
  -47.6558    0.2796   17.8365 C   0  0  0  0  0  0
  -46.7833   -0.6385   21.4841 C   0  0  0  0  0  0
  -45.6669   -0.0586   18.8714 C   0  0  0  0  0  0
  -43.8116    0.5363   19.5524 C   0  0  0  0  0  0
  -43.6513    1.1436   21.6146 C   0  0  0  0  0  0
  -42.8406    0.8079   19.9567 C   0  0  0  0  0  0
  -50.5006   -0.8671   19.7692 C   0  0  0  0  0  0
  -51.0497   -1.2000   19.0026 C   0  0  0  0  0  0
  -42.7698    1.1608   20.9816 C   0  0  0  0  0  0
  -44.7332    2.0455   21.8960 C   0  0  0  0  0  0
  -42.2239   -0.2438   19.3115 C   0  0  0  0  0  0
  -41.8759    1.0319   19.8122 C   0  0  0  0  0  0
  -51.0662   -1.9865   16.5303 C   0  0  0  0  0  0
  -51.6240   -2.7932   16.3352 C   0  0  0  0  0  0
  -51.7869   -3.0699   15.3820 C   0  0  0  0  0  0
  -50.7543   -1.7919   14.8338 C   0  0  0  0  0  0
  -51.2323   -2.6571   14.6525 C   0  0  0  0  0  0
  -52.0827   -4.2267   17.1982 C   0  0  0  0  0  0
  -51.0383   -0.7641   13.9589 C   0  0  0  0  0  0
  -52.9177   -4.7821   17.1334 C   0  0  0  0  0  0
  -52.8462   -5.7813   17.2141 C   0  0  0  0  0  0
  -51.1934   -5.6232   17.7072 C   0  0  0  0  0  0
  -52.0284   -6.1786   17.6424 C   0  0  0  0  0  0
  -50.0639   -6.1831   17.1461 C   0  0  0  0  0  0
  -52.3505   -4.0751   14.5588 H   0  0  0  0  0  0
  -51.7163   -3.7454   13.8855 H   0  0  0  0  0  0
  -54.0328   -4.1599   16.5199 H   0  0  0  0  0  0
  -53.7445   -6.8767   17.2096 H   0  0  0  0  0  0
  -51.9543   -7.5898   17.7357 H   0  0  0  0  0  0
  1 31  1  0  0  0
  1 47  1  0  0  0
  2 32  2  0  0  0
  3 47  1  0  0  0
  3 50  1  0  0  0
  4 46  2  0  0  0
  5 46  1  0  0  0
  6 48  1  0  0  0
  6 52  1  0  0  0
  7 49  1  0  0  0
  7 59  1  0  0  0
  8 51  1  0  0  0
  8 60  1  0  0  0
  9 52  1  0  0  0
  9 56  1  0  0  0
 11 53  1  0  0  0
 12 54  1  0  0  0
 12 61  1  0  0  0
 13 55  1  0  0  0
 13 62  1  0  0  0
 14 57  1  0  0  0
 14 63  1  0  0  0
 16 58  1  0  0  0
 17 19  1  0  0  0
 17 22  1  0  0  0
 17 33  1  0  0  0
 18 19  1  0  0  0
 18 29  1  0  0  0
 18 35  1  0  0  0
 19 32  1  0  0  0
 20 17  1  0  0  0
 20 28  1  0  0  0
 20 36  1  0  0  0
 21 18  1  0  0  0
 21 23  1  0  0  0
 21 24  1  0  0  0
 22 24  1  0  0  0
 23 31  1  0  0  0
 23 41  1  0  0  0
 23 42  1  0  0  0
 25 20  1  0  0  0
 25 26  1  0  0  0
 25 37  1  0  0  0
 26 27  1  0  0  0
 26 38  1  0  0  0
 27 30  1  0  0  0
 27 39  1  0  0  0
 27 44  1  0  0  0
 28 30  1  0  0  0
 29 34  1  0  0  0
 31 34  1  0  0  0
 32 37  1  0  0  0
 38 40  1  0  0  0
 39 43  1  0  0  0
 40 43  1  0  0  0
 40 45  1  0  0  0
 40 46  1  0  0  0
 47 48  1  0  0  0
 48 49  1  0  0  0
 49 51  1  0  0  0
 50 51  1  0  0  0
 50 53  1  0  0  0
 52 54  1  0  0  0
 53 10  1  0  0  0
 54 55  1  0  0  0
 55 57  1  0  0  0
 56 57  1  0  0  0
 56 58  1  0  0  0
 58 15  1  0  0  0
M  END
>  <CHROM.0>
-61.62837609,177.93871596,79.29511729

>  <CHROM.1>
-170.88939711,-45.83734063,-131.04597458,73.12776641,-140.68193827,55.71330079
103.58413794,-130.31910191,105.75877049,130.33802125,107.83908060,108.96397548
-48.58969657,-1.64824143,18.23101820,-3.04672039,0.67162431,2.07614379

>  <HEADER>
                                                                          

>  <MASTER>
        0    0    0    0    0    0    0    0  127    0  127    0          

>  <Name>
Diammonium.pdb

>  <RI>
-2.74865e+08

>  <Rbt.Current_Directory>
/root/miniconda3/envs/rdock/share/rxdock-2013.1.1_148c5bd1-0/data/ligands/prepped_ligands/Diammonium

>  <Rbt.Executable>
rbdock/0.1.0

>  <Rbt.Library>
librxdock.so/0.1.0

>  <Rbt.Parameter_File>
/root/miniconda3/envs/rdock/share/rxdock-2013.1.1_148c5bd1-0/data/scripts/dock.prm

>  <Rbt.Receptor>
def.prm

>  <SCORE>
-168.958

>  <SCORE.INTER>
-10.3598

>  <SCORE.INTER.CONST>
1

>  <SCORE.INTER.POLAR>
-0.33959

>  <SCORE.INTER.REPUL>
0.428797

>  <SCORE.INTER.ROT>
7

>  <SCORE.INTER.VDW>
-23.7492

>  <SCORE.INTER.norm>
-0.178617

>  <SCORE.INTRA>
-158.12

>  <SCORE.INTRA.DIHEDRAL>
5.78542

>  <SCORE.INTRA.DIHEDRAL.0>
37.64

>  <SCORE.INTRA.POLAR>
-0.36447

>  <SCORE.INTRA.POLAR.0>
-0.371885

>  <SCORE.INTRA.REPUL>
-0.241776

>  <SCORE.INTRA.REPUL.0>
0.241776

>  <SCORE.INTRA.VDW>
-158.565

>  <SCORE.INTRA.VDW.0>
400.998

>  <SCORE.INTRA.norm>
-2.72621

>  <SCORE.RESTR>
0.000126777

>  <SCORE.RESTR.CAVITY>
0.000126777

>  <SCORE.RESTR.norm>
2.18581e-06

>  <SCORE.SYSTEM>
-0.478499

>  <SCORE.SYSTEM.CONST>
0

>  <SCORE.SYSTEM.DIHEDRAL>
0.858736

>  <SCORE.SYSTEM.POLAR>
-0.0181559

>  <SCORE.SYSTEM.VDW>
-0.846137

>  <SCORE.SYSTEM.norm>
-0.00824999

>  <SCORE.heavy>
58

>  <SCORE.norm>
-2.91307

>  <TITLE>
    Diammonium Glycyrrhizinate                                            

$$$$
Diammonium.pdb
  RxDock  02242112543D
librxdock.so/0.1.0
 63 69  0  0  0  0  0  0  0  0999 V2000
  -51.7718   -3.9086   18.3650 O   0  0  0  0  0  0
  -47.7479   -1.9895   17.6201 O   0  0  0  0  0  0
  -52.0876   -4.0912   16.6719 O   0  0  0  0  0  0
  -42.9138    1.8576   19.3134 O   0  5  0  0  0  0
  -43.2293    1.2429   17.7256 O   0  0  0  0  0  0
  -51.4824   -5.8812   18.5237 O   0  0  0  0  0  0
  -52.6261   -7.1770   17.1051 O   0  0  0  0  0  0
  -51.1416   -6.1194   14.9423 O   0  0  0  0  0  0
  -49.7831   -6.2066   18.5906 O   0  0  0  0  0  0
  -52.3580   -3.8529   14.3593 O   0  5  0  0  0  0
  -53.0580   -3.1668   15.7873 O   0  0  0  0  0  0
  -51.8536   -7.5185   20.0018 O   0  0  0  0  0  0
  -50.3676   -9.3081   18.3926 O   0  0  0  0  0  0
  -48.4535   -8.1679   20.1351 O   0  0  0  0  0  0
  -47.4062   -6.2557   18.8058 O   0  5  0  0  0  0
  -48.5610   -5.4581   17.7908 O   0  0  0  0  0  0
  -48.4966   -0.7418   19.8313 C   0  0  0  0  0  0
  -49.3286   -1.9735   18.8584 C   0  0  0  0  0  0
  -48.2731   -1.7410   19.3276 C   0  0  0  0  0  0
  -47.6658   -0.2161   20.0397 C   0  0  0  0  0  0
  -49.8870   -2.3698   19.8166 C   0  0  0  0  0  0
  -49.2645   -0.7613   20.5352 C   0  0  0  0  0  0
  -50.9654   -2.6550   19.3888 C   0  0  0  0  0  0
  -50.0879   -1.3811   20.3811 C   0  0  0  0  0  0
  -46.9212   -0.1851   19.3706 C   0  0  0  0  0  0
  -46.3168    0.7920   19.2518 C   0  0  0  0  0  0
  -46.0889    1.0991   20.3205 C   0  0  0  0  0  0
  -47.6808    0.4430   20.8481 C   0  0  0  0  0  0
  -49.3060   -2.6546   18.0138 C   0  0  0  0  0  0
  -46.8655    1.0681   21.0161 C   0  0  0  0  0  0
  -51.0091   -3.2734   18.4966 C   0  0  0  0  0  0
  -47.7277   -1.3857   18.4184 C   0  0  0  0  0  0
  -49.2042    0.3928   20.1698 C   0  0  0  0  0  0
  -50.1519   -3.3092   17.8313 C   0  0  0  0  0  0
  -48.9786   -1.2884   17.7133 C   0  0  0  0  0  0
  -47.8062   -0.6588   21.3381 C   0  0  0  0  0  0
  -46.9411   -0.7879   18.5733 C   0  0  0  0  0  0
  -45.2759    0.4086   18.8081 C   0  0  0  0  0  0
  -45.2170    1.7145   20.5222 C   0  0  0  0  0  0
  -44.3931    1.0153   18.9890 C   0  0  0  0  0  0
  -51.3930   -2.3013   20.2208 C   0  0  0  0  0  0
  -51.8619   -2.9946   19.6736 C   0  0  0  0  0  0
  -44.3852    1.7088   19.8250 C   0  0  0  0  0  0
  -46.4821    2.3893   20.6085 C   0  0  0  0  0  0
  -43.5506   -0.0272   18.6631 C   0  0  0  0  0  0
  -43.5193    1.3864   18.6720 C   0  0  0  0  0  0
  -51.8086   -4.4866   17.5493 C   0  0  0  0  0  0
  -51.6639   -5.4729   17.6287 C   0  0  0  0  0  0
  -51.8469   -6.0701   16.8403 C   0  0  0  0  0  0
  -52.2219   -4.6820   15.8747 C   0  0  0  0  0  0
  -51.9799   -5.6556   15.9346 C   0  0  0  0  0  0
  -50.7291   -6.5310   18.6370 C   0  0  0  0  0  0
  -53.3760   -4.4007   15.1738 C   0  0  0  0  0  0
  -50.9190   -7.4528   18.9895 C   0  0  0  0  0  0
  -50.1656   -8.1148   19.0543 C   0  0  0  0  0  0
  -49.0291   -6.8557   18.7036 C   0  0  0  0  0  0
  -49.2190   -7.7775   19.0562 C   0  0  0  0  0  0
  -48.0939   -6.7892   17.6912 C   0  0  0  0  0  0
  -51.9780   -7.2883   16.1299 H   0  0  0  0  0  0
  -51.1709   -4.9453   15.0138 H   0  0  0  0  0  0
  -51.3720   -6.4515   19.8835 H   0  0  0  0  0  0
  -51.1200   -9.1369   19.2809 H   0  0  0  0  0  0
  -47.8135   -7.7731   19.2308 H   0  0  0  0  0  0
  1 31  1  0  0  0
  1 47  1  0  0  0
  2 32  2  0  0  0
  3 47  1  0  0  0
  3 50  1  0  0  0
  4 46  2  0  0  0
  5 46  1  0  0  0
  6 48  1  0  0  0
  6 52  1  0  0  0
  7 49  1  0  0  0
  7 59  1  0  0  0
  8 51  1  0  0  0
  8 60  1  0  0  0
  9 52  1  0  0  0
  9 56  1  0  0  0
 11 53  1  0  0  0
 12 54  1  0  0  0
 12 61  1  0  0  0
 13 55  1  0  0  0
 13 62  1  0  0  0
 14 57  1  0  0  0
 14 63  1  0  0  0
 16 58  1  0  0  0
 17 19  1  0  0  0
 17 22  1  0  0  0
 17 33  1  0  0  0
 18 19  1  0  0  0
 18 29  1  0  0  0
 18 35  1  0  0  0
 19 32  1  0  0  0
 20 17  1  0  0  0
 20 28  1  0  0  0
 20 36  1  0  0  0
 21 18  1  0  0  0
 21 23  1  0  0  0
 21 24  1  0  0  0
 22 24  1  0  0  0
 23 31  1  0  0  0
 23 41  1  0  0  0
 23 42  1  0  0  0
 25 20  1  0  0  0
 25 26  1  0  0  0
 25 37  1  0  0  0
 26 27  1  0  0  0
 26 38  1  0  0  0
 27 30  1  0  0  0
 27 39  1  0  0  0
 27 44  1  0  0  0
 28 30  1  0  0  0
 29 34  1  0  0  0
 31 34  1  0  0  0
 32 37  1  0  0  0
 38 40  1  0  0  0
 39 43  1  0  0  0
 40 43  1  0  0  0
 40 45  1  0  0  0
 40 46  1  0  0  0
 47 48  1  0  0  0
 48 49  1  0  0  0
 49 51  1  0  0  0
 50 51  1  0  0  0
 50 53  1  0  0  0
 52 54  1  0  0  0
 53 10  1  0  0  0
 54 55  1  0  0  0
 55 57  1  0  0  0
 56 57  1  0  0  0
 56 58  1  0  0  0
 58 15  1  0  0  0
M  END
>  <CHROM.0>
-59.00084962,66.08369978,65.22020352

>  <CHROM.1>
-179.29273211,-76.75373625,-132.58744440,70.45612655,-158.99240240,-129.63221682
-20.96224223,-64.50211490,162.87014992,-170.20932416,104.58425518,109.75296729
-49.02245907,-2.99319406,18.60412178,2.28160963,0.36415821,3.11296265

>  <HEADER>
                                                                          

>  <MASTER>
        0    0    0    0    0    0    0    0  127    0  127    0          

>  <Name>
Diammonium.pdb

>  <RI>
-2.74865e+08

>  <Rbt.Current_Directory>
/root/miniconda3/envs/rdock/share/rxdock-2013.1.1_148c5bd1-0/data/ligands/prepped_ligands/Diammonium

>  <Rbt.Executable>
rbdock/0.1.0

>  <Rbt.Library>
librxdock.so/0.1.0

>  <Rbt.Parameter_File>
/root/miniconda3/envs/rdock/share/rxdock-2013.1.1_148c5bd1-0/data/scripts/dock.prm

>  <Rbt.Receptor>
def.prm

>  <SCORE>
-164.674

>  <SCORE.INTER>
-13.3351

>  <SCORE.INTER.CONST>
1

>  <SCORE.INTER.POLAR>
-1.32581

>  <SCORE.INTER.REPUL>
0.120207

>  <SCORE.INTER.ROT>
7

>  <SCORE.INTER.VDW>
-21.8284

>  <SCORE.INTER.norm>
-0.229915

>  <SCORE.INTRA>
-150.396

>  <SCORE.INTRA.DIHEDRAL>
2.29409

>  <SCORE.INTRA.DIHEDRAL.0>
37.64

>  <SCORE.INTRA.POLAR>
-0.0824858

>  <SCORE.INTRA.POLAR.0>
-0.371885

>  <SCORE.INTRA.REPUL>
-0.137539

>  <SCORE.INTRA.REPUL.0>
0.241776

>  <SCORE.INTRA.VDW>
-150.575

>  <SCORE.INTRA.VDW.0>
400.998

>  <SCORE.INTRA.norm>
-2.59304

>  <SCORE.RESTR>
0

>  <SCORE.RESTR.CAVITY>
0

>  <SCORE.RESTR.norm>
0

>  <SCORE.SYSTEM>
-0.942409

>  <SCORE.SYSTEM.CONST>
0

>  <SCORE.SYSTEM.DIHEDRAL>
0.245642

>  <SCORE.SYSTEM.POLAR>
-0.0113269

>  <SCORE.SYSTEM.VDW>
-1.02672

>  <SCORE.SYSTEM.norm>
-0.0162484

>  <SCORE.heavy>
58

>  <SCORE.norm>
-2.8392

>  <TITLE>
    Diammonium Glycyrrhizinate                                            

$$$$
Diammonium.pdb
  RxDock  02242112543D
librxdock.so/0.1.0
 63 69  0  0  0  0  0  0  0  0999 V2000
  -50.9553   -5.4582   16.8022 O   0  0  0  0  0  0
  -49.2511   -1.8987   19.0055 O   0  0  0  0  0  0
  -50.3236   -6.9485   17.4185 O   0  0  0  0  0  0
  -46.4999    2.9017   20.2897 O   0  5  0  0  0  0
  -44.8485    2.4797   19.9843 O   0  0  0  0  0  0
  -52.6023   -5.6977   17.9112 O   0  0  0  0  0  0
  -53.2286   -7.8031   18.3298 O   0  0  0  0  0  0
  -50.9044   -8.1830   19.8961 O   0  0  0  0  0  0
  -53.5737   -6.2660   16.5953 O   0  0  0  0  0  0
  -49.0881   -8.8263   18.2367 O   0  5  0  0  0  0
  -49.2398   -7.9786   16.7339 O   0  0  0  0  0  0
  -53.4396   -3.6413   17.6405 O   0  0  0  0  0  0
  -52.7605   -3.7261   14.8961 O   0  0  0  0  0  0
  -55.3829   -4.7797   15.0085 O   0  0  0  0  0  0
  -55.0953   -7.2620   15.0050 O   0  5  0  0  0  0
  -53.7562   -7.7970   15.9644 O   0  0  0  0  0  0
  -47.6510   -1.9973   16.8992 C   0  0  0  0  0  0
  -49.0086   -3.0410   17.3720 C   0  0  0  0  0  0
  -48.7219   -1.9017   17.2812 C   0  0  0  0  0  0
  -47.1130   -1.1591   17.0337 C   0  0  0  0  0  0
  -49.2357   -3.2775   16.2408 C   0  0  0  0  0  0
  -47.5436   -2.5211   16.0050 C   0  0  0  0  0  0
  -49.5674   -4.4247   16.2773 C   0  0  0  0  0  0
  -48.1658   -3.3332   15.8066 C   0  0  0  0  0  0
  -47.2031   -0.6477   17.8900 C   0  0  0  0  0  0
  -46.2685   -0.1368   18.3369 C   0  0  0  0  0  0
  -45.7974    0.3878   17.4474 C   0  0  0  0  0  0
  -46.3323   -0.9547   16.3728 C   0  0  0  0  0  0
  -49.8171   -3.2482   18.0656 C   0  0  0  0  0  0
  -45.7025   -0.1464   16.5565 C   0  0  0  0  0  0
  -50.3205   -4.7113   17.0061 C   0  0  0  0  0  0
  -48.5272   -1.6618   18.3559 C   0  0  0  0  0  0
  -46.4646   -2.6083   16.5501 C   0  0  0  0  0  0
  -50.4778   -4.0891   17.8818 C   0  0  0  0  0  0
  -48.5230   -3.0679   18.6629 C   0  0  0  0  0  0
  -47.3385   -0.8943   15.6993 C   0  0  0  0  0  0
  -47.9260   -0.8840   18.5390 C   0  0  0  0  0  0
  -46.7363    0.7374   19.0034 C   0  0  0  0  0  0
  -45.1727    1.2604   17.6146 C   0  0  0  0  0  0
  -46.1237    1.6145   19.1921 C   0  0  0  0  0  0
  -49.0771   -4.5974   15.4231 C   0  0  0  0  0  0
  -49.8412   -5.1853   15.6886 C   0  0  0  0  0  0
  -45.3050    1.8479   18.5176 C   0  0  0  0  0  0
  -44.4710    0.0570   17.2641 C   0  0  0  0  0  0
  -47.2195    2.3550   19.5841 C   0  0  0  0  0  0
  -45.8237    2.3429   19.8095 C   0  0  0  0  0  0
  -51.0298   -6.2376   17.4249 C   0  0  0  0  0  0
  -51.8534   -6.3574   17.9794 C   0  0  0  0  0  0
  -51.9923   -7.2128   18.4899 C   0  0  0  0  0  0
  -50.4412   -7.7783   17.9663 C   0  0  0  0  0  0
  -51.2213   -7.8485   18.5960 C   0  0  0  0  0  0
  -53.0489   -5.5327   17.0304 C   0  0  0  0  0  0
  -50.1264   -8.9341   17.2825 C   0  0  0  0  0  0
  -53.1366   -4.5919   16.6882 C   0  0  0  0  0  0
  -53.5420   -4.4387   15.7815 C   0  0  0  0  0  0
  -54.0206   -6.1019   15.7144 C   0  0  0  0  0  0
  -54.1082   -5.1611   15.3722 C   0  0  0  0  0  0
  -53.7178   -7.0535   14.7620 C   0  0  0  0  0  0
  -53.1249   -7.2102   19.3403 H   0  0  0  0  0  0
  -51.4686   -9.0404   19.3207 H   0  0  0  0  0  0
  -53.7099   -4.7363   17.9755 H   0  0  0  0  0  0
  -52.9902   -3.1384   15.8893 H   0  0  0  0  0  0
  -54.6615   -4.9222   14.0905 H   0  0  0  0  0  0
  1 31  1  0  0  0
  1 47  1  0  0  0
  2 32  2  0  0  0
  3 47  1  0  0  0
  3 50  1  0  0  0
  4 46  2  0  0  0
  5 46  1  0  0  0
  6 48  1  0  0  0
  6 52  1  0  0  0
  7 49  1  0  0  0
  7 59  1  0  0  0
  8 51  1  0  0  0
  8 60  1  0  0  0
  9 52  1  0  0  0
  9 56  1  0  0  0
 11 53  1  0  0  0
 12 54  1  0  0  0
 12 61  1  0  0  0
 13 55  1  0  0  0
 13 62  1  0  0  0
 14 57  1  0  0  0
 14 63  1  0  0  0
 16 58  1  0  0  0
 17 19  1  0  0  0
 17 22  1  0  0  0
 17 33  1  0  0  0
 18 19  1  0  0  0
 18 29  1  0  0  0
 18 35  1  0  0  0
 19 32  1  0  0  0
 20 17  1  0  0  0
 20 28  1  0  0  0
 20 36  1  0  0  0
 21 18  1  0  0  0
 21 23  1  0  0  0
 21 24  1  0  0  0
 22 24  1  0  0  0
 23 31  1  0  0  0
 23 41  1  0  0  0
 23 42  1  0  0  0
 25 20  1  0  0  0
 25 26  1  0  0  0
 25 37  1  0  0  0
 26 27  1  0  0  0
 26 38  1  0  0  0
 27 30  1  0  0  0
 27 39  1  0  0  0
 27 44  1  0  0  0
 28 30  1  0  0  0
 29 34  1  0  0  0
 31 34  1  0  0  0
 32 37  1  0  0  0
 38 40  1  0  0  0
 39 43  1  0  0  0
 40 43  1  0  0  0
 40 45  1  0  0  0
 40 46  1  0  0  0
 47 48  1  0  0  0
 48 49  1  0  0  0
 49 51  1  0  0  0
 50 51  1  0  0  0
 50 53  1  0  0  0
 52 54  1  0  0  0
 53 10  1  0  0  0
 54 55  1  0  0  0
 55 57  1  0  0  0
 56 57  1  0  0  0
 56 58  1  0  0  0
 58 15  1  0  0  0
M  END
>  <CHROM.0>
-80.35630095,57.51876565,-54.38988421

>  <CHROM.1>
124.46267903,-77.28915716,58.48381021,65.63138044,-101.42155251,104.70143124
-20.20665044,-58.20511169,106.00134502,-50.29674879,110.38864676,113.12142026
-49.67697426,-3.55840641,17.33020382,-2.33957063,-0.36763963,-0.12512525

>  <HEADER>
                                                                          

>  <MASTER>
        0    0    0    0    0    0    0    0  127    0  127    0          

>  <Name>
Diammonium.pdb

>  <RI>
-2.74865e+08

>  <Rbt.Current_Directory>
/root/miniconda3/envs/rdock/share/rxdock-2013.1.1_148c5bd1-0/data/ligands/prepped_ligands/Diammonium

>  <Rbt.Executable>
rbdock/0.1.0

>  <Rbt.Library>
librxdock.so/0.1.0

>  <Rbt.Parameter_File>
/root/miniconda3/envs/rdock/share/rxdock-2013.1.1_148c5bd1-0/data/scripts/dock.prm

>  <Rbt.Receptor>
def.prm

>  <SCORE>
-129.753

>  <SCORE.INTER>
8.9915

>  <SCORE.INTER.CONST>
1

>  <SCORE.INTER.POLAR>
0

>  <SCORE.INTER.REPUL>
0.18986

>  <SCORE.INTER.ROT>
7

>  <SCORE.INTER.VDW>
-4.3578

>  <SCORE.INTER.norm>
0.155026

>  <SCORE.INTRA>
-138.748

>  <SCORE.INTRA.DIHEDRAL>
6.17204

>  <SCORE.INTRA.DIHEDRAL.0>
37.64

>  <SCORE.INTRA.POLAR>
0.0713398

>  <SCORE.INTRA.POLAR.0>
-0.371885

>  <SCORE.INTRA.REPUL>
0.101227

>  <SCORE.INTRA.REPUL.0>
0.241776

>  <SCORE.INTRA.VDW>
-142.583

>  <SCORE.INTRA.VDW.0>
400.998

>  <SCORE.INTRA.norm>
-2.39221

>  <SCORE.RESTR>
0.249375

>  <SCORE.RESTR.CAVITY>
0.249375

>  <SCORE.RESTR.norm>
0.00429958

>  <SCORE.SYSTEM>
-0.246179

>  <SCORE.SYSTEM.CONST>
0

>  <SCORE.SYSTEM.DIHEDRAL>
1.04467

>  <SCORE.SYSTEM.POLAR>
-0.0124346

>  <SCORE.SYSTEM.VDW>
-0.726237

>  <SCORE.SYSTEM.norm>
-0.00424447

>  <SCORE.heavy>
58

>  <SCORE.norm>
-2.23713

>  <TITLE>
    Diammonium Glycyrrhizinate                                            

$$$$
Diammonium.pdb
  RxDock  02242112553D
librxdock.so/0.1.0
 63 69  0  0  0  0  0  0  0  0999 V2000
  -47.4793    0.5683   18.0973 O   0  0  0  0  0  0
  -48.4474   -3.8241   18.5433 O   0  0  0  0  0  0
  -46.8232    0.7211   19.6929 O   0  0  0  0  0  0
  -52.3643   -8.7642   18.1280 O   0  5  0  0  0  0
  -50.6719   -9.0058   17.8530 O   0  0  0  0  0  0
  -45.6341    0.6528   17.3305 O   0  0  0  0  0  0
  -44.1282    1.8431   18.4773 O   0  0  0  0  0  0
  -44.2492   -0.0368   20.5871 O   0  0  0  0  0  0
  -44.8958   -0.9112   17.4135 O   0  0  0  0  0  0
  -46.2955    0.6884   21.9997 O   0  5  0  0  0  0
  -47.5411    1.3613   21.0019 O   0  0  0  0  0  0
  -46.8289   -0.0059   15.5579 O   0  0  0  0  0  0
  -44.4581   -0.8726   14.2820 O   0  0  0  0  0  0
  -45.3516   -3.1347   15.7257 O   0  0  0  0  0  0
  -44.0485   -2.9906   18.0365 O   0  5  0  0  0  0
  -43.7307   -1.3331   18.4255 O   0  0  0  0  0  0
  -50.5859   -2.9696   17.2379 C   0  0  0  0  0  0
  -49.1589   -2.0891   17.8250 C   0  0  0  0  0  0
  -49.4495   -3.0729   17.2452 C   0  0  0  0  0  0
  -51.0550   -3.8400   17.0579 C   0  0  0  0  0  0
  -49.2683   -1.3065   16.9517 C   0  0  0  0  0  0
  -50.9501   -2.1037   16.7873 C   0  0  0  0  0  0
  -48.9503   -0.2830   17.4796 C   0  0  0  0  0  0
  -50.4183   -1.2124   16.8808 C   0  0  0  0  0  0
  -50.7183   -4.6796   17.4875 C   0  0  0  0  0  0
  -51.4807   -5.4778   17.8279 C   0  0  0  0  0  0
  -52.1827   -5.5748   16.9413 C   0  0  0  0  0  0
  -51.9908   -3.8175   16.5975 C   0  0  0  0  0  0
  -48.1872   -2.1207   18.3071 C   0  0  0  0  0  0
  -52.5342   -4.6996   16.4956 C   0  0  0  0  0  0
  -48.0222   -0.2714   18.0443 C   0  0  0  0  0  0
  -49.3253   -3.8264   18.0621 C   0  0  0  0  0  0
  -51.8278   -2.4547   17.5459 C   0  0  0  0  0  0
  -47.6146   -1.2057   18.4177 C   0  0  0  0  0  0
  -49.2536   -2.7605   19.0264 C   0  0  0  0  0  0
  -51.2199   -3.3928   15.7639 C   0  0  0  0  0  0
  -49.8417   -4.6776   17.9681 C   0  0  0  0  0  0
  -50.8334   -6.4820   17.8253 C   0  0  0  0  0  0
  -52.7253   -6.5038   16.7921 C   0  0  0  0  0  0
  -51.3582   -7.4233   17.6887 C   0  0  0  0  0  0
  -49.6668    0.2023   16.9784 C   0  0  0  0  0  0
  -48.8639    0.6985   17.3086 C   0  0  0  0  0  0
  -52.3341   -7.4251   17.2117 C   0  0  0  0  0  0
  -53.5087   -5.4029   17.2795 C   0  0  0  0  0  0
  -50.1895   -8.0846   17.3730 C   0  0  0  0  0  0
  -51.4619   -8.3949   17.9061 C   0  0  0  0  0  0
  -46.6867    0.6160   18.7057 C   0  0  0  0  0  0
  -45.7641    0.6582   18.3223 C   0  0  0  0  0  0
  -44.9817    0.8554   18.9228 C   0  0  0  0  0  0
  -46.0375    0.8684   20.2958 C   0  0  0  0  0  0
  -45.1076    0.8111   19.9189 C   0  0  0  0  0  0
  -45.2962   -0.1705   16.8718 C   0  0  0  0  0  0
  -46.2399    1.8691   21.2232 C   0  0  0  0  0  0
  -45.5367   -0.3357   15.9101 C   0  0  0  0  0  0
  -45.1539   -1.1388   15.4427 C   0  0  0  0  0  0
  -44.5576   -1.7349   16.9557 C   0  0  0  0  0  0
  -44.7981   -1.9001   15.9940 C   0  0  0  0  0  0
  -43.2651   -2.0651   17.3087 C   0  0  0  0  0  0
  -43.6767    0.7613   18.3805 H   0  0  0  0  0  0
  -43.9590    1.0982   20.6968 H   0  0  0  0  0  0
  -46.0247    0.7283   15.1121 H   0  0  0  0  0  0
  -45.5398   -1.2932   14.0884 H   0  0  0  0  0  0
  -44.5860   -2.7814   14.9057 H   0  0  0  0  0  0
  1 31  1  0  0  0
  1 47  1  0  0  0
  2 32  2  0  0  0
  3 47  1  0  0  0
  3 50  1  0  0  0
  4 46  2  0  0  0
  5 46  1  0  0  0
  6 48  1  0  0  0
  6 52  1  0  0  0
  7 49  1  0  0  0
  7 59  1  0  0  0
  8 51  1  0  0  0
  8 60  1  0  0  0
  9 52  1  0  0  0
  9 56  1  0  0  0
 11 53  1  0  0  0
 12 54  1  0  0  0
 12 61  1  0  0  0
 13 55  1  0  0  0
 13 62  1  0  0  0
 14 57  1  0  0  0
 14 63  1  0  0  0
 16 58  1  0  0  0
 17 19  1  0  0  0
 17 22  1  0  0  0
 17 33  1  0  0  0
 18 19  1  0  0  0
 18 29  1  0  0  0
 18 35  1  0  0  0
 19 32  1  0  0  0
 20 17  1  0  0  0
 20 28  1  0  0  0
 20 36  1  0  0  0
 21 18  1  0  0  0
 21 23  1  0  0  0
 21 24  1  0  0  0
 22 24  1  0  0  0
 23 31  1  0  0  0
 23 41  1  0  0  0
 23 42  1  0  0  0
 25 20  1  0  0  0
 25 26  1  0  0  0
 25 37  1  0  0  0
 26 27  1  0  0  0
 26 38  1  0  0  0
 27 30  1  0  0  0
 27 39  1  0  0  0
 27 44  1  0  0  0
 28 30  1  0  0  0
 29 34  1  0  0  0
 31 34  1  0  0  0
 32 37  1  0  0  0
 38 40  1  0  0  0
 39 43  1  0  0  0
 40 43  1  0  0  0
 40 45  1  0  0  0
 40 46  1  0  0  0
 47 48  1  0  0  0
 48 49  1  0  0  0
 49 51  1  0  0  0
 50 51  1  0  0  0
 50 53  1  0  0  0
 52 54  1  0  0  0
 53 10  1  0  0  0
 54 55  1  0  0  0
 55 57  1  0  0  0
 56 57  1  0  0  0
 56 58  1  0  0  0
 58 15  1  0  0  0
M  END
>  <CHROM.0>
55.66307201,86.74045608,-145.24149311

>  <CHROM.1>
172.44566348,-75.91570009,-105.57660648,-13.74261222,-106.69217795,103.11165536
108.67123696,-102.61466307,75.33185660,132.72118105,107.48518468,103.41948773
-48.21799765,-2.32183019,17.75627657,0.77809250,0.22757621,0.38430884

>  <HEADER>
                                                                          

>  <MASTER>
        0    0    0    0    0    0    0    0  127    0  127    0          

>  <Name>
Diammonium.pdb

>  <RI>
-2.74865e+08

>  <Rbt.Current_Directory>
/root/miniconda3/envs/rdock/share/rxdock-2013.1.1_148c5bd1-0/data/ligands/prepped_ligands/Diammonium

>  <Rbt.Executable>
rbdock/0.1.0

>  <Rbt.Library>
librxdock.so/0.1.0

>  <Rbt.Parameter_File>
/root/miniconda3/envs/rdock/share/rxdock-2013.1.1_148c5bd1-0/data/scripts/dock.prm

>  <Rbt.Receptor>
def.prm

>  <SCORE>
-177.525

>  <SCORE.INTER>
-10.387

>  <SCORE.INTER.CONST>
1

>  <SCORE.INTER.POLAR>
-0.175332

>  <SCORE.INTER.REPUL>
0

>  <SCORE.INTER.ROT>
7

>  <SCORE.INTER.VDW>
-22.1909

>  <SCORE.INTER.norm>
-0.179086

>  <SCORE.INTRA>
-169.01

>  <SCORE.INTRA.DIHEDRAL>
5.64671

>  <SCORE.INTRA.DIHEDRAL.0>
37.64

>  <SCORE.INTRA.POLAR>
-0.877142

>  <SCORE.INTRA.POLAR.0>
-0.371885

>  <SCORE.INTRA.REPUL>
-0.241776

>  <SCORE.INTRA.REPUL.0>
0.241776

>  <SCORE.INTRA.VDW>
-167.643

>  <SCORE.INTRA.VDW.0>
400.998

>  <SCORE.INTRA.norm>
-2.91397

>  <SCORE.RESTR>
0

>  <SCORE.RESTR.CAVITY>
0

>  <SCORE.RESTR.norm>
0

>  <SCORE.SYSTEM>
1.87245

>  <SCORE.SYSTEM.CONST>
0

>  <SCORE.SYSTEM.DIHEDRAL>
5.26677

>  <SCORE.SYSTEM.POLAR>
-0.00704005

>  <SCORE.SYSTEM.VDW>
-0.736997

>  <SCORE.SYSTEM.norm>
0.0322837

>  <SCORE.heavy>
58

>  <SCORE.norm>
-3.06077

>  <TITLE>
    Diammonium Glycyrrhizinate                                            

$$$$
Diammonium.pdb
  RxDock  02242112553D
librxdock.so/0.1.0
 63 69  0  0  0  0  0  0  0  0999 V2000
  -51.8103   -4.0702   18.1933 O   0  0  0  0  0  0
  -47.5303   -2.6209   18.0896 O   0  0  0  0  0  0
  -51.9915   -4.0281   16.4713 O   0  0  0  0  0  0
  -43.1200    1.8617   18.7139 O   0  5  0  0  0  0
  -42.7202    0.2231   19.1061 O   0  0  0  0  0  0
  -52.2407   -6.0233   18.1908 O   0  0  0  0  0  0
  -53.6080   -6.7440   16.5750 O   0  0  0  0  0  0
  -51.6321   -6.1529   14.6395 O   0  0  0  0  0  0
  -50.6654   -6.6965   17.9384 O   0  0  0  0  0  0
  -51.9110   -3.5281   14.2079 O   0  5  0  0  0  0
  -52.5212   -2.7753   15.6435 O   0  0  0  0  0  0
  -52.0348   -6.3681   20.3913 O   0  0  0  0  0  0
  -51.3640   -9.0724   19.9048 O   0  0  0  0  0  0
  -48.8833   -7.7139   19.8849 O   0  0  0  0  0  0
  -48.3872   -7.2818   17.4481 O   0  5  0  0  0  0
  -49.8041   -6.8773   16.5376 O   0  0  0  0  0  0
  -48.7401   -0.5331   19.1780 C   0  0  0  0  0  0
  -49.3952   -2.0808   18.6021 C   0  0  0  0  0  0
  -48.5109   -1.6486   19.2499 C   0  0  0  0  0  0
  -47.9490    0.0428   19.4071 C   0  0  0  0  0  0
  -50.2663   -2.0192   19.3923 C   0  0  0  0  0  0
  -49.6809   -0.2499   19.5248 C   0  0  0  0  0  0
  -51.1919   -2.4807   18.7942 C   0  0  0  0  0  0
  -50.4942   -0.8859   19.3835 C   0  0  0  0  0  0
  -47.0394   -0.2152   19.0771 C   0  0  0  0  0  0
  -46.3016    0.6167   18.7644 C   0  0  0  0  0  0
  -46.3700    1.3693   19.6113 C   0  0  0  0  0  0
  -48.1200    0.9917   19.8051 C   0  0  0  0  0  0
  -49.2090   -3.0655   18.1855 C   0  0  0  0  0  0
  -47.3180    1.6385   19.9532 C   0  0  0  0  0  0
  -51.0453   -3.4312   18.2888 C   0  0  0  0  0  0
  -47.6724   -1.7254   18.5141 C   0  0  0  0  0  0
  -49.3575    0.6232   18.7487 C   0  0  0  0  0  0
  -50.0396   -3.7456   18.0276 C   0  0  0  0  0  0
  -48.6249   -1.9696   17.4631 C   0  0  0  0  0  0
  -48.5355    0.2198   20.6425 C   0  0  0  0  0  0
  -46.8971   -1.1093   18.6531 C   0  0  0  0  0  0
  -45.2367    0.0918   18.8979 C   0  0  0  0  0  0
  -45.5260    2.0233   19.8106 C   0  0  0  0  0  0
  -44.3773    0.7290   19.0870 C   0  0  0  0  0  0
  -51.8003   -1.8011   19.2042 C   0  0  0  0  0  0
  -52.1697   -2.6720   18.8803 C   0  0  0  0  0  0
  -44.5305    1.7213   19.5013 C   0  0  0  0  0  0
  -46.6545    2.6474   19.1780 C   0  0  0  0  0  0
  -43.6241   -0.3373   19.5327 C   0  0  0  0  0  0
  -43.4068    0.9339   18.9529 C   0  0  0  0  0  0
  -51.9598   -4.5481   17.3273 C   0  0  0  0  0  0
  -52.1750   -5.5247   17.3261 C   0  0  0  0  0  0
  -52.4704   -5.9705   16.4742 C   0  0  0  0  0  0
  -52.2382   -4.4846   15.6151 C   0  0  0  0  0  0
  -52.3563   -5.4826   15.6031 C   0  0  0  0  0  0
  -51.5227   -6.6693   18.4550 C   0  0  0  0  0  0
  -53.1436   -3.7721   14.8567 C   0  0  0  0  0  0
  -51.5808   -7.1390   19.3415 C   0  0  0  0  0  0
  -50.8824   -7.8218   19.5782 C   0  0  0  0  0  0
  -49.9469   -7.3422   18.2018 C   0  0  0  0  0  0
  -50.0050   -7.8119   19.0883 C   0  0  0  0  0  0
  -49.4924   -8.1128   17.1512 C   0  0  0  0  0  0
  -52.6302   -7.3763   16.4093 H   0  0  0  0  0  0
  -51.2192   -5.0741   14.8635 H   0  0  0  0  0  0
  -52.8255   -7.1552   20.0177 H   0  0  0  0  0  0
  -50.9894   -8.4612   20.8379 H   0  0  0  0  0  0
  -49.0705   -8.8018   19.4789 H   0  0  0  0  0  0
  1 31  1  0  0  0
  1 47  1  0  0  0
  2 32  2  0  0  0
  3 47  1  0  0  0
  3 50  1  0  0  0
  4 46  2  0  0  0
  5 46  1  0  0  0
  6 48  1  0  0  0
  6 52  1  0  0  0
  7 49  1  0  0  0
  7 59  1  0  0  0
  8 51  1  0  0  0
  8 60  1  0  0  0
  9 52  1  0  0  0
  9 56  1  0  0  0
 11 53  1  0  0  0
 12 54  1  0  0  0
 12 61  1  0  0  0
 13 55  1  0  0  0
 13 62  1  0  0  0
 14 57  1  0  0  0
 14 63  1  0  0  0
 16 58  1  0  0  0
 17 19  1  0  0  0
 17 22  1  0  0  0
 17 33  1  0  0  0
 18 19  1  0  0  0
 18 29  1  0  0  0
 18 35  1  0  0  0
 19 32  1  0  0  0
 20 17  1  0  0  0
 20 28  1  0  0  0
 20 36  1  0  0  0
 21 18  1  0  0  0
 21 23  1  0  0  0
 21 24  1  0  0  0
 22 24  1  0  0  0
 23 31  1  0  0  0
 23 41  1  0  0  0
 23 42  1  0  0  0
 25 20  1  0  0  0
 25 26  1  0  0  0
 25 37  1  0  0  0
 26 27  1  0  0  0
 26 38  1  0  0  0
 27 30  1  0  0  0
 27 39  1  0  0  0
 27 44  1  0  0  0
 28 30  1  0  0  0
 29 34  1  0  0  0
 31 34  1  0  0  0
 32 37  1  0  0  0
 38 40  1  0  0  0
 39 43  1  0  0  0
 40 43  1  0  0  0
 40 45  1  0  0  0
 40 46  1  0  0  0
 47 48  1  0  0  0
 48 49  1  0  0  0
 49 51  1  0  0  0
 50 51  1  0  0  0
 50 53  1  0  0  0
 52 54  1  0  0  0
 53 10  1  0  0  0
 54 55  1  0  0  0
 55 57  1  0  0  0
 56 57  1  0  0  0
 56 58  1  0  0  0
 58 15  1  0  0  0
M  END
>  <CHROM.0>
-27.39915449,69.94134309,-179.92924585

>  <CHROM.1>
137.20214282,-50.81793037,-107.42299994,10.84743371,-109.90591855,-126.11912277
106.85634773,-105.67285099,103.19488308,132.96715681,102.30362492,111.57110069
-49.32163389,-3.00165990,18.30755014,2.30473049,0.37755067,3.06256825

>  <HEADER>
                                                                          

>  <MASTER>
        0    0    0    0    0    0    0    0  127    0  127    0          

>  <Name>
Diammonium.pdb

>  <RI>
-2.74865e+08

>  <Rbt.Current_Directory>
/root/miniconda3/envs/rdock/share/rxdock-2013.1.1_148c5bd1-0/data/ligands/prepped_ligands/Diammonium

>  <Rbt.Executable>
rbdock/0.1.0

>  <Rbt.Library>
librxdock.so/0.1.0

>  <Rbt.Parameter_File>
/root/miniconda3/envs/rdock/share/rxdock-2013.1.1_148c5bd1-0/data/scripts/dock.prm

>  <Rbt.Receptor>
def.prm

>  <SCORE>
-178.571

>  <SCORE.INTER>
-13.0535

>  <SCORE.INTER.CONST>
1

>  <SCORE.INTER.POLAR>
-0.633103

>  <SCORE.INTER.REPUL>
0.237982

>  <SCORE.INTER.ROT>
7

>  <SCORE.INTER.VDW>
-24.4909

>  <SCORE.INTER.norm>
-0.22506

>  <SCORE.INTRA>
-165.945

>  <SCORE.INTRA.DIHEDRAL>
7.63336

>  <SCORE.INTRA.DIHEDRAL.0>
37.64

>  <SCORE.INTRA.POLAR>
0.371588

>  <SCORE.INTRA.POLAR.0>
-0.371885

>  <SCORE.INTRA.REPUL>
-0.241776

>  <SCORE.INTRA.REPUL.0>
0.241776

>  <SCORE.INTRA.VDW>
-169.816

>  <SCORE.INTRA.VDW.0>
400.998

>  <SCORE.INTRA.norm>
-2.86112

>  <SCORE.RESTR>
0

>  <SCORE.RESTR.CAVITY>
0

>  <SCORE.RESTR.norm>
0

>  <SCORE.SYSTEM>
0.427533

>  <SCORE.SYSTEM.CONST>
0

>  <SCORE.SYSTEM.DIHEDRAL>
2.50723

>  <SCORE.SYSTEM.POLAR>
-0.00216841

>  <SCORE.SYSTEM.VDW>
-0.818709

>  <SCORE.SYSTEM.norm>
0.00737126

>  <SCORE.heavy>
58

>  <SCORE.norm>
-3.07881

>  <TITLE>
    Diammonium Glycyrrhizinate                                            

$$$$
Diammonium.pdb
  RxDock  02242112553D
librxdock.so/0.1.0
 63 69  0  0  0  0  0  0  0  0999 V2000
  -46.5390   -0.0877   17.7825 O   0  0  0  0  0  0
  -49.2017   -3.6778   18.4539 O   0  0  0  0  0  0
  -47.4508    0.7621   18.9851 O   0  0  0  0  0  0
  -52.7103   -8.0569   17.7193 O   0  5  0  0  0  0
  -54.1126   -7.3514   16.9882 O   0  0  0  0  0  0
  -44.8515    0.7164   18.4937 O   0  0  0  0  0  0
  -45.0243    2.7414   19.4262 O   0  0  0  0  0  0
  -46.5705    1.6430   21.5245 O   0  0  0  0  0  0
  -44.0973   -0.7324   17.9189 O   0  0  0  0  0  0
  -49.0305    1.5120   20.5216 O   0  5  0  0  0  0
  -48.9476    1.2907   18.8057 O   0  0  0  0  0  0
  -43.3756    0.8185   20.1714 O   0  0  0  0  0  0
  -43.9903   -1.8512   20.8746 O   0  0  0  0  0  0
  -41.8673   -2.0795   19.0199 O   0  0  0  0  0  0
  -43.0275   -2.4788   16.7352 O   0  5  0  0  0  0
  -44.5382   -1.6366   16.6435 O   0  0  0  0  0  0
  -50.0523   -2.8590   16.0847 C   0  0  0  0  0  0
  -48.8067   -2.1923   17.1618 C   0  0  0  0  0  0
  -49.1682   -3.2188   16.7099 C   0  0  0  0  0  0
  -50.6896   -3.5995   15.8489 C   0  0  0  0  0  0
  -48.2175   -1.7661   16.2354 C   0  0  0  0  0  0
  -49.8226   -2.1480   15.3587 C   0  0  0  0  0  0
  -47.7960   -0.7285   16.6514 C   0  0  0  0  0  0
  -49.0887   -1.4339   15.5520 C   0  0  0  0  0  0
  -50.9226   -4.2877   16.5381 C   0  0  0  0  0  0
  -51.9973   -4.7098   16.5654 C   0  0  0  0  0  0
  -52.2221   -4.9444   15.4779 C   0  0  0  0  0  0
  -51.2444   -3.5203   14.9691 C   0  0  0  0  0  0
  -48.2356   -2.2806   18.0803 C   0  0  0  0  0  0
  -51.9805   -4.2262   14.7610 C   0  0  0  0  0  0
  -47.2798   -0.7382   17.6074 C   0  0  0  0  0  0
  -49.7096   -3.6420   17.5920 C   0  0  0  0  0  0
  -51.0022   -1.9904   15.5890 C   0  0  0  0  0  0
  -47.4667   -1.5487   18.3050 C   0  0  0  0  0  0
  -49.6624   -2.3537   18.2318 C   0  0  0  0  0  0
  -50.0912   -3.6122   14.6066 C   0  0  0  0  0  0
  -50.4155   -4.3236   17.3990 C   0  0  0  0  0  0
  -51.8523   -5.7729   17.0910 C   0  0  0  0  0  0
  -52.9551   -5.7097   15.2397 C   0  0  0  0  0  0
  -52.5809   -6.5492   16.8748 C   0  0  0  0  0  0
  -47.9772   -0.2965   15.7679 C   0  0  0  0  0  0
  -47.2760    0.0794   16.3737 C   0  0  0  0  0  0
  -53.1704   -6.4883   15.9645 C   0  0  0  0  0  0
  -53.3847   -4.3558   15.0262 C   0  0  0  0  0  0
  -51.7434   -7.5356   17.3527 C   0  0  0  0  0  0
  -53.1313   -7.3275   17.1800 C   0  0  0  0  0  0
  -46.5673    0.4991   18.5922 C   0  0  0  0  0  0
  -45.7235    0.9011   18.9478 C   0  0  0  0  0  0
  -45.7686    1.6049   19.6650 C   0  0  0  0  0  0
  -47.4901    1.4267   19.7329 C   0  0  0  0  0  0
  -46.6359    1.7515   20.1511 C   0  0  0  0  0  0
  -44.3582   -0.1350   18.6788 C   0  0  0  0  0  0
  -48.4673    2.3849   19.5620 C   0  0  0  0  0  0
  -43.9574   -0.2875   19.5877 C   0  0  0  0  0  0
  -43.5063   -1.1646   19.7807 C   0  0  0  0  0  0
  -43.6040   -1.5840   18.1031 C   0  0  0  0  0  0
  -43.2032   -1.7366   19.0120 C   0  0  0  0  0  0
  -44.1859   -2.6903   17.5185 C   0  0  0  0  0  0
  -45.2340    2.5556   20.5685 H   0  0  0  0  0  0
  -47.3606    0.9189   21.0390 H   0  0  0  0  0  0
  -44.0469    0.2008   20.9145 H   0  0  0  0  0  0
  -43.0527   -2.3642   20.3825 H   0  0  0  0  0  0
  -42.5774   -2.9730   19.3040 H   0  0  0  0  0  0
  1 31  1  0  0  0
  1 47  1  0  0  0
  2 32  2  0  0  0
  3 47  1  0  0  0
  3 50  1  0  0  0
  4 46  2  0  0  0
  5 46  1  0  0  0
  6 48  1  0  0  0
  6 52  1  0  0  0
  7 49  1  0  0  0
  7 59  1  0  0  0
  8 51  1  0  0  0
  8 60  1  0  0  0
  9 52  1  0  0  0
  9 56  1  0  0  0
 11 53  1  0  0  0
 12 54  1  0  0  0
 12 61  1  0  0  0
 13 55  1  0  0  0
 13 62  1  0  0  0
 14 57  1  0  0  0
 14 63  1  0  0  0
 16 58  1  0  0  0
 17 19  1  0  0  0
 17 22  1  0  0  0
 17 33  1  0  0  0
 18 19  1  0  0  0
 18 29  1  0  0  0
 18 35  1  0  0  0
 19 32  1  0  0  0
 20 17  1  0  0  0
 20 28  1  0  0  0
 20 36  1  0  0  0
 21 18  1  0  0  0
 21 23  1  0  0  0
 21 24  1  0  0  0
 22 24  1  0  0  0
 23 31  1  0  0  0
 23 41  1  0  0  0
 23 42  1  0  0  0
 25 20  1  0  0  0
 25 26  1  0  0  0
 25 37  1  0  0  0
 26 27  1  0  0  0
 26 38  1  0  0  0
 27 30  1  0  0  0
 27 39  1  0  0  0
 27 44  1  0  0  0
 28 30  1  0  0  0
 29 34  1  0  0  0
 31 34  1  0  0  0
 32 37  1  0  0  0
 38 40  1  0  0  0
 39 43  1  0  0  0
 40 43  1  0  0  0
 40 45  1  0  0  0
 40 46  1  0  0  0
 47 48  1  0  0  0
 48 49  1  0  0  0
 49 51  1  0  0  0
 50 51  1  0  0  0
 50 53  1  0  0  0
 52 54  1  0  0  0
 53 10  1  0  0  0
 54 55  1  0  0  0
 55 57  1  0  0  0
 56 57  1  0  0  0
 56 58  1  0  0  0
 58 15  1  0  0  0
M  END
>  <CHROM.0>
-173.60002551,-60.29907511,100.80900247

>  <CHROM.1>
126.22566488,-28.14282175,-81.42475466,125.20216067,-156.14685040,-123.61475772
135.55771196,-175.21259929,106.43149466,-46.49164512,103.21070216,107.30880168
-48.17274358,-2.04578927,17.66506456,0.70155982,-0.16810590,0.27456541

>  <HEADER>
                                                                          

>  <MASTER>
        0    0    0    0    0    0    0    0  127    0  127    0          

>  <Name>
Diammonium.pdb

>  <RI>
-2.74865e+08

>  <Rbt.Current_Directory>
/root/miniconda3/envs/rdock/share/rxdock-2013.1.1_148c5bd1-0/data/ligands/prepped_ligands/Diammonium

>  <Rbt.Executable>
rbdock/0.1.0

>  <Rbt.Library>
librxdock.so/0.1.0

>  <Rbt.Parameter_File>
/root/miniconda3/envs/rdock/share/rxdock-2013.1.1_148c5bd1-0/data/scripts/dock.prm

>  <Rbt.Receptor>
def.prm

>  <SCORE>
-158.774

>  <SCORE.INTER>
-7.56433

>  <SCORE.INTER.CONST>
1

>  <SCORE.INTER.POLAR>
0

>  <SCORE.INTER.REPUL>
0.194173

>  <SCORE.INTER.ROT>
7

>  <SCORE.INTER.VDW>
-20.9352

>  <SCORE.INTER.norm>
-0.130419

>  <SCORE.INTRA>
-152.339

>  <SCORE.INTRA.DIHEDRAL>
2.83782

>  <SCORE.INTRA.DIHEDRAL.0>
37.64

>  <SCORE.INTRA.POLAR>
0.146894

>  <SCORE.INTRA.POLAR.0>
-0.371885

>  <SCORE.INTRA.REPUL>
-0.241776

>  <SCORE.INTRA.REPUL.0>
0.241776

>  <SCORE.INTRA.VDW>
-153.049

>  <SCORE.INTRA.VDW.0>
400.998

>  <SCORE.INTRA.norm>
-2.62654

>  <SCORE.RESTR>
0.113416

>  <SCORE.RESTR.CAVITY>
0.113416

>  <SCORE.RESTR.norm>
0.00195544

>  <SCORE.SYSTEM>
1.01558

>  <SCORE.SYSTEM.CONST>
0

>  <SCORE.SYSTEM.DIHEDRAL>
2.848

>  <SCORE.SYSTEM.POLAR>
-0.002436

>  <SCORE.SYSTEM.VDW>
-0.40014

>  <SCORE.SYSTEM.norm>
0.01751

>  <SCORE.heavy>
58

>  <SCORE.norm>
-2.73749

>  <TITLE>
    Diammonium Glycyrrhizinate                                            

$$$$
Diammonium.pdb
  RxDock  02242112553D
librxdock.so/0.1.0
 63 69  0  0  0  0  0  0  0  0999 V2000
  -47.5841    0.4843   18.5948 O   0  0  0  0  0  0
  -48.9598   -3.8073   18.9401 O   0  0  0  0  0  0
  -46.6634    0.4607   20.0616 O   0  0  0  0  0  0
  -51.7251   -8.6102   18.6406 O   0  5  0  0  0  0
  -52.8897   -8.6314   17.3593 O   0  0  0  0  0  0
  -45.8957    0.3379   17.5327 O   0  0  0  0  0  0
  -44.0616    1.2384   18.4411 O   0  0  0  0  0  0
  -44.1235   -0.7064   20.4938 O   0  0  0  0  0  0
  -45.5802   -1.3600   17.4073 O   0  0  0  0  0  0
  -45.8123    0.2406   22.2463 O   0  5  0  0  0  0
  -47.0594    1.1549   21.4660 O   0  0  0  0  0  0
  -46.3936    0.4059   15.3531 O   0  0  0  0  0  0
  -43.9367   -0.8600   14.7523 O   0  0  0  0  0  0
  -45.7628   -2.9912   15.1038 O   0  0  0  0  0  0
  -45.4622   -3.7163   17.5759 O   0  5  0  0  0  0
  -45.0802   -2.3611   18.5845 O   0  0  0  0  0  0
  -50.7777   -2.8301   17.2827 C   0  0  0  0  0  0
  -49.4020   -2.0444   18.0864 C   0  0  0  0  0  0
  -49.6702   -3.0193   17.4814 C   0  0  0  0  0  0
  -51.2785   -3.6670   17.0401 C   0  0  0  0  0  0
  -49.3026   -1.2809   17.1952 C   0  0  0  0  0  0
  -50.9921   -1.9522   16.7643 C   0  0  0  0  0  0
  -48.9957   -0.2699   17.7530 C   0  0  0  0  0  0
  -50.4138   -1.1016   16.9317 C   0  0  0  0  0  0
  -51.0856   -4.5173   17.5329 C   0  0  0  0  0  0
  -51.9550   -5.2451   17.7532 C   0  0  0  0  0  0
  -52.5061   -5.3136   16.7633 C   0  0  0  0  0  0
  -52.1204   -3.5865   16.4295 C   0  0  0  0  0  0
  -48.5290   -2.1361   18.7246 C   0  0  0  0  0  0
  -52.7080   -4.4273   16.2518 C   0  0  0  0  0  0
  -48.1759   -0.3128   18.4648 C   0  0  0  0  0  0
  -49.7433   -3.7565   18.3190 C   0  0  0  0  0  0
  -52.0084   -2.2136   17.3708 C   0  0  0  0  0  0
  -47.9115   -1.2645   18.9154 C   0  0  0  0  0  0
  -49.7474   -2.6721   19.2653 C   0  0  0  0  0  0
  -51.1908   -3.2455   15.7301 C   0  0  0  0  0  0
  -50.3032   -4.5683   18.1532 C   0  0  0  0  0  0
  -51.3984   -6.2953   17.8744 C   0  0  0  0  0  0
  -53.0889   -6.2025   16.5398 C   0  0  0  0  0  0
  -51.9667   -7.1975   17.6664 C   0  0  0  0  0  0
  -49.5784    0.2540   17.1318 C   0  0  0  0  0  0
  -48.8042    0.6969   17.5839 C   0  0  0  0  0  0
  -52.8472   -7.1386   17.0331 C   0  0  0  0  0  0
  -53.8518   -5.0317   16.8724 C   0  0  0  0  0  0
  -50.8184   -7.9544   17.5608 C   0  0  0  0  0  0
  -52.1821   -8.1518   17.8783 C   0  0  0  0  0  0
  -46.7056    0.3861   19.0632 C   0  0  0  0  0  0
  -45.8614    0.3129   18.5322 C   0  0  0  0  0  0
  -44.9716    0.3642   18.9982 C   0  0  0  0  0  0
  -45.7775    0.4622   20.5282 C   0  0  0  0  0  0
  -44.9402    0.2893   19.9999 C   0  0  0  0  0  0
  -45.5755   -0.4460   16.9985 C   0  0  0  0  0  0
  -45.6735    1.4344   21.5010 C   0  0  0  0  0  0
  -45.4421   -0.3485   16.0072 C   0  0  0  0  0  0
  -45.0742   -1.1251   15.4860 C   0  0  0  0  0  0
  -45.2601   -2.1446   16.8738 C   0  0  0  0  0  0
  -45.1266   -2.0470   15.8826 C   0  0  0  0  0  0
  -44.3086   -2.8995   17.5287 C   0  0  0  0  0  0
  -43.5863    0.2074   18.7483 H   0  0  0  0  0  0
  -43.6616    0.3701   20.6043 H   0  0  0  0  0  0
  -45.9149    0.9599   16.2741 H   0  0  0  0  0  0
  -44.8739   -0.2458   14.3934 H   0  0  0  0  0  0
  -44.5913   -3.0959   15.0957 H   0  0  0  0  0  0
  1 31  1  0  0  0
  1 47  1  0  0  0
  2 32  2  0  0  0
  3 47  1  0  0  0
  3 50  1  0  0  0
  4 46  2  0  0  0
  5 46  1  0  0  0
  6 48  1  0  0  0
  6 52  1  0  0  0
  7 49  1  0  0  0
  7 59  1  0  0  0
  8 51  1  0  0  0
  8 60  1  0  0  0
  9 52  1  0  0  0
  9 56  1  0  0  0
 11 53  1  0  0  0
 12 54  1  0  0  0
 12 61  1  0  0  0
 13 55  1  0  0  0
 13 62  1  0  0  0
 14 57  1  0  0  0
 14 63  1  0  0  0
 16 58  1  0  0  0
 17 19  1  0  0  0
 17 22  1  0  0  0
 17 33  1  0  0  0
 18 19  1  0  0  0
 18 29  1  0  0  0
 18 35  1  0  0  0
 19 32  1  0  0  0
 20 17  1  0  0  0
 20 28  1  0  0  0
 20 36  1  0  0  0
 21 18  1  0  0  0
 21 23  1  0  0  0
 21 24  1  0  0  0
 22 24  1  0  0  0
 23 31  1  0  0  0
 23 41  1  0  0  0
 23 42  1  0  0  0
 25 20  1  0  0  0
 25 26  1  0  0  0
 25 37  1  0  0  0
 26 27  1  0  0  0
 26 38  1  0  0  0
 27 30  1  0  0  0
 27 39  1  0  0  0
 27 44  1  0  0  0
 28 30  1  0  0  0
 29 34  1  0  0  0
 31 34  1  0  0  0
 32 37  1  0  0  0
 38 40  1  0  0  0
 39 43  1  0  0  0
 40 43  1  0  0  0
 40 45  1  0  0  0
 40 46  1  0  0  0
 47 48  1  0  0  0
 48 49  1  0  0  0
 49 51  1  0  0  0
 50 51  1  0  0  0
 50 53  1  0  0  0
 52 54  1  0  0  0
 53 10  1  0  0  0
 54 55  1  0  0  0
 55 57  1  0  0  0
 56 57  1  0  0  0
 56 58  1  0  0  0
 58 15  1  0  0  0
M  END
>  <CHROM.0>
-163.05129005,174.79690334,60.98190114

>  <CHROM.1>
-164.62888344,-87.30472976,-118.68365552,25.19464924,-136.58624955,104.43494741
52.68545288,-63.72066484,103.68615968,1.39450702,106.17799630,107.28441469
-48.45156690,-2.38884414,17.84241878,0.63552310,0.42188287,0.71197027

>  <HEADER>
                                                                          

>  <MASTER>
        0    0    0    0    0    0    0    0  127    0  127    0          

>  <Name>
Diammonium.pdb

>  <RI>
-2.74865e+08

>  <Rbt.Current_Directory>
/root/miniconda3/envs/rdock/share/rxdock-2013.1.1_148c5bd1-0/data/ligands/prepped_ligands/Diammonium

>  <Rbt.Executable>
rbdock/0.1.0

>  <Rbt.Library>
librxdock.so/0.1.0

>  <Rbt.Parameter_File>
/root/miniconda3/envs/rdock/share/rxdock-2013.1.1_148c5bd1-0/data/scripts/dock.prm

>  <Rbt.Receptor>
def.prm

>  <SCORE>
-181.188

>  <SCORE.INTER>
-15.9534

>  <SCORE.INTER.CONST>
1

>  <SCORE.INTER.POLAR>
-0.6795

>  <SCORE.INTER.REPUL>
0.290228

>  <SCORE.INTER.ROT>
7

>  <SCORE.INTER.VDW>
-27.4942

>  <SCORE.INTER.norm>
-0.275058

>  <SCORE.INTRA>
-164.666

>  <SCORE.INTRA.DIHEDRAL>
0.901606

>  <SCORE.INTRA.DIHEDRAL.0>
37.64

>  <SCORE.INTRA.POLAR>
0.253063

>  <SCORE.INTRA.POLAR.0>
-0.371885

>  <SCORE.INTRA.REPUL>
-0.237523

>  <SCORE.INTRA.REPUL.0>
0.241776

>  <SCORE.INTRA.VDW>
-164.79

>  <SCORE.INTRA.VDW.0>
400.998

>  <SCORE.INTRA.norm>
-2.83907

>  <SCORE.RESTR>
0

>  <SCORE.RESTR.CAVITY>
0

>  <SCORE.RESTR.norm>
0

>  <SCORE.SYSTEM>
-0.568376

>  <SCORE.SYSTEM.CONST>
0

>  <SCORE.SYSTEM.DIHEDRAL>
0.787042

>  <SCORE.SYSTEM.POLAR>
-0.00336235

>  <SCORE.SYSTEM.VDW>
-0.950465

>  <SCORE.SYSTEM.norm>
-0.00979959

>  <SCORE.heavy>
58

>  <SCORE.norm>
-3.12393

>  <TITLE>
    Diammonium Glycyrrhizinate                                            

$$$$
Diammonium.pdb
  RxDock  02242112563D
librxdock.so/0.1.0
 63 69  0  0  0  0  0  0  0  0999 V2000
  -51.8542   -3.9220   18.4430 O   0  0  0  0  0  0
  -47.9371   -1.8749   17.4976 O   0  0  0  0  0  0
  -52.2309   -4.1787   16.7721 O   0  0  0  0  0  0
  -43.0540    0.9867   17.9096 O   0  5  0  0  0  0
  -43.5661    2.5445   18.4659 O   0  0  0  0  0  0
  -51.4366   -5.8672   18.6477 O   0  0  0  0  0  0
  -52.5579   -7.2757   17.3216 O   0  0  0  0  0  0
  -51.2365   -6.2014   15.0634 O   0  0  0  0  0  0
  -49.7363   -5.9550   18.3326 O   0  0  0  0  0  0
  -52.6132   -4.0476   14.4605 O   0  5  0  0  0  0
  -53.2858   -3.3401   15.8912 O   0  0  0  0  0  0
  -51.0998   -6.7034   20.6948 O   0  0  0  0  0  0
  -49.6543   -8.8616   19.5754 O   0  0  0  0  0  0
  -47.6983   -6.8777   20.0632 O   0  0  0  0  0  0
  -47.4877   -5.5883   17.7792 O   0  5  0  0  0  0
  -49.0061   -5.5882   16.9460 O   0  0  0  0  0  0
  -48.5521   -0.7377   19.8075 C   0  0  0  0  0  0
  -49.4247   -1.9488   18.8442 C   0  0  0  0  0  0
  -48.3436   -1.7096   19.2471 C   0  0  0  0  0  0
  -47.7201   -0.2005   19.9787 C   0  0  0  0  0  0
  -49.9041   -2.3977   19.8219 C   0  0  0  0  0  0
  -49.2668   -0.8051   20.5624 C   0  0  0  0  0  0
  -51.0040   -2.6918   19.4597 C   0  0  0  0  0  0
  -50.0855   -1.4383   20.4408 C   0  0  0  0  0  0
  -47.0264   -0.1238   19.2605 C   0  0  0  0  0  0
  -46.4535    0.8720   19.1410 C   0  0  0  0  0  0
  -46.1562    1.1407   20.2030 C   0  0  0  0  0  0
  -47.6914    0.4242   20.8135 C   0  0  0  0  0  0
  -49.4480   -2.5940   17.9719 C   0  0  0  0  0  0
  -46.8800    1.0620   20.9499 C   0  0  0  0  0  0
  -51.0981   -3.2741   18.5472 C   0  0  0  0  0  0
  -47.8727   -1.3040   18.3174 C   0  0  0  0  0  0
  -49.2581    0.3641   20.2432 C   0  0  0  0  0  0
  -50.2903   -3.2613   17.8220 C   0  0  0  0  0  0
  -49.1728   -1.2089   17.7075 C   0  0  0  0  0  0
  -47.7573   -0.6994   21.2637 C   0  0  0  0  0  0
  -47.0903   -0.6937   18.4416 C   0  0  0  0  0  0
  -45.4390    0.5331   18.6087 C   0  0  0  0  0  0
  -45.2857    1.7688   20.3685 C   0  0  0  0  0  0
  -44.5589    1.1536   18.7524 C   0  0  0  0  0  0
  -51.3784   -2.3832   20.3342 C   0  0  0  0  0  0
  -51.8701   -3.0649   19.7925 C   0  0  0  0  0  0
  -44.5062    1.8122   19.6145 C   0  0  0  0  0  0
  -46.5558    2.4078   20.5728 C   0  0  0  0  0  0
  -43.7195    0.1465   18.3235 C   0  0  0  0  0  0
  -43.7184    1.5589   18.3904 C   0  0  0  0  0  0
  -51.8903   -4.5276   17.6476 C   0  0  0  0  0  0
  -51.6815   -5.5002   17.7499 C   0  0  0  0  0  0
  -51.8610   -6.1329   16.9889 C   0  0  0  0  0  0
  -52.3625   -4.8023   15.9999 C   0  0  0  0  0  0
  -52.0584   -5.7570   16.0780 C   0  0  0  0  0  0
  -50.5532   -6.3187   18.7829 C   0  0  0  0  0  0
  -53.5611   -4.6146   15.3436 C   0  0  0  0  0  0
  -50.4524   -7.0010   19.5138 C   0  0  0  0  0  0
  -49.5771   -7.4849   19.6118 C   0  0  0  0  0  0
  -48.8524   -6.4058   18.4671 C   0  0  0  0  0  0
  -48.7516   -7.0881   19.1980 C   0  0  0  0  0  0
  -48.2046   -6.7028   17.2854 C   0  0  0  0  0  0
  -51.4429   -7.4859   17.0118 H   0  0  0  0  0  0
  -52.3037   -6.6966   15.0466 H   0  0  0  0  0  0
  -50.8666   -5.7532   20.0413 H   0  0  0  0  0  0
  -50.2256   -8.3887   20.4890 H   0  0  0  0  0  0
  -47.9367   -8.0165   19.8908 H   0  0  0  0  0  0
  1 31  1  0  0  0
  1 47  1  0  0  0
  2 32  2  0  0  0
  3 47  1  0  0  0
  3 50  1  0  0  0
  4 46  2  0  0  0
  5 46  1  0  0  0
  6 48  1  0  0  0
  6 52  1  0  0  0
  7 49  1  0  0  0
  7 59  1  0  0  0
  8 51  1  0  0  0
  8 60  1  0  0  0
  9 52  1  0  0  0
  9 56  1  0  0  0
 11 53  1  0  0  0
 12 54  1  0  0  0
 12 61  1  0  0  0
 13 55  1  0  0  0
 13 62  1  0  0  0
 14 57  1  0  0  0
 14 63  1  0  0  0
 16 58  1  0  0  0
 17 19  1  0  0  0
 17 22  1  0  0  0
 17 33  1  0  0  0
 18 19  1  0  0  0
 18 29  1  0  0  0
 18 35  1  0  0  0
 19 32  1  0  0  0
 20 17  1  0  0  0
 20 28  1  0  0  0
 20 36  1  0  0  0
 21 18  1  0  0  0
 21 23  1  0  0  0
 21 24  1  0  0  0
 22 24  1  0  0  0
 23 31  1  0  0  0
 23 41  1  0  0  0
 23 42  1  0  0  0
 25 20  1  0  0  0
 25 26  1  0  0  0
 25 37  1  0  0  0
 26 27  1  0  0  0
 26 38  1  0  0  0
 27 30  1  0  0  0
 27 39  1  0  0  0
 27 44  1  0  0  0
 28 30  1  0  0  0
 29 34  1  0  0  0
 31 34  1  0  0  0
 32 37  1  0  0  0
 38 40  1  0  0  0
 39 43  1  0  0  0
 40 43  1  0  0  0
 40 45  1  0  0  0
 40 46  1  0  0  0
 47 48  1  0  0  0
 48 49  1  0  0  0
 49 51  1  0  0  0
 50 51  1  0  0  0
 50 53  1  0  0  0
 52 54  1  0  0  0
 53 10  1  0  0  0
 54 55  1  0  0  0
 55 57  1  0  0  0
 56 57  1  0  0  0
 56 58  1  0  0  0
 58 15  1  0  0  0
M  END
>  <CHROM.0>
-174.95751018,-63.39945417,-58.87890095

>  <CHROM.1>
-173.58943307,-80.29325929,-120.97806637,38.69119686,-112.05431307,104.15298802
-23.15880916,-63.41397549,67.38862573,-49.37102984,105.27130558,104.98014621
-49.03469737,-2.88438026,18.59606898,2.28685478,0.34827428,3.10253390

>  <HEADER>
                                                                          

>  <MASTER>
        0    0    0    0    0    0    0    0  127    0  127    0          

>  <Name>
Diammonium.pdb

>  <RI>
-2.74865e+08

>  <Rbt.Current_Directory>
/root/miniconda3/envs/rdock/share/rxdock-2013.1.1_148c5bd1-0/data/ligands/prepped_ligands/Diammonium

>  <Rbt.Executable>
rbdock/0.1.0

>  <Rbt.Library>
librxdock.so/0.1.0

>  <Rbt.Parameter_File>
/root/miniconda3/envs/rdock/share/rxdock-2013.1.1_148c5bd1-0/data/scripts/dock.prm

>  <Rbt.Receptor>
def.prm

>  <SCORE>
-181.749

>  <SCORE.INTER>
-10.9298

>  <SCORE.INTER.CONST>
1

>  <SCORE.INTER.POLAR>
-0.410802

>  <SCORE.INTER.REPUL>
0

>  <SCORE.INTER.ROT>
7

>  <SCORE.INTER.VDW>
-21.9331

>  <SCORE.INTER.norm>
-0.188446

>  <SCORE.INTRA>
-169.789

>  <SCORE.INTRA.DIHEDRAL>
2.92457

>  <SCORE.INTRA.DIHEDRAL.0>
37.64

>  <SCORE.INTRA.POLAR>
0.0871708

>  <SCORE.INTRA.POLAR.0>
-0.371885

>  <SCORE.INTRA.REPUL>
-0.208448

>  <SCORE.INTRA.REPUL.0>
0.241776

>  <SCORE.INTRA.VDW>
-170.505

>  <SCORE.INTRA.VDW.0>
400.998

>  <SCORE.INTRA.norm>
-2.92739

>  <SCORE.RESTR>
0

>  <SCORE.RESTR.CAVITY>
0

>  <SCORE.RESTR.norm>
0

>  <SCORE.SYSTEM>
-1.03078

>  <SCORE.SYSTEM.CONST>
0

>  <SCORE.SYSTEM.DIHEDRAL>
0.117952

>  <SCORE.SYSTEM.POLAR>
-0.00357668

>  <SCORE.SYSTEM.VDW>
-1.07759

>  <SCORE.SYSTEM.norm>
-0.017772

>  <SCORE.heavy>
58

>  <SCORE.norm>
-3.13361

>  <TITLE>
    Diammonium Glycyrrhizinate                                            

$$$$
Diammonium.pdb
  RxDock  02242112563D
librxdock.so/0.1.0
 63 69  0  0  0  0  0  0  0  0999 V2000
  -51.5130   -3.1772   17.7622 O   0  0  0  0  0  0
  -47.1929   -1.8491   17.7171 O   0  0  0  0  0  0
  -51.5389   -3.2476   16.0318 O   0  0  0  0  0  0
  -42.3449    0.7178   18.6660 O   0  5  0  0  0  0
  -42.1668    1.1453   20.3345 O   0  0  0  0  0  0
  -51.6308   -5.1720   17.8451 O   0  0  0  0  0  0
  -52.7138   -6.1804   16.1687 O   0  0  0  0  0  0
  -50.6844   -5.3723   14.3719 O   0  0  0  0  0  0
  -50.0597   -5.8041   18.2062 O   0  0  0  0  0  0
  -51.3280   -2.8875   13.7332 O   0  5  0  0  0  0
  -52.1475   -2.1297   15.0576 O   0  0  0  0  0  0
  -52.5616   -6.7633   19.1120 O   0  0  0  0  0  0
  -51.1200   -8.7383   17.6904 O   0  0  0  0  0  0
  -49.4178   -8.0263   19.8341 O   0  0  0  0  0  0
  -47.8137   -6.3173   18.8639 O   0  5  0  0  0  0
  -48.5794   -5.2636   17.7222 O   0  0  0  0  0  0
  -48.0686   -0.6320   19.8986 C   0  0  0  0  0  0
  -48.9174   -1.6656   18.7293 C   0  0  0  0  0  0
  -47.9186   -1.6228   19.3528 C   0  0  0  0  0  0
  -47.2106   -0.2509   20.2572 C   0  0  0  0  0  0
  -49.6588   -2.0274   19.5699 C   0  0  0  0  0  0
  -48.9250   -0.5758   20.4892 C   0  0  0  0  0  0
  -50.6935   -2.1211   18.9800 C   0  0  0  0  0  0
  -49.7970   -1.0540   20.1778 C   0  0  0  0  0  0
  -46.3804   -0.2944   19.6987 C   0  0  0  0  0  0
  -45.6329    0.5852   19.7390 C   0  0  0  0  0  0
  -45.5205    0.7922   20.8494 C   0  0  0  0  0  0
  -47.2487    0.3551   21.1053 C   0  0  0  0  0  0
  -48.8698   -2.2925   17.8447 C   0  0  0  0  0  0
  -46.3860    0.8390   21.4298 C   0  0  0  0  0  0
  -50.6951   -2.6734   18.0444 C   0  0  0  0  0  0
  -47.2028   -1.3024   18.5557 C   0  0  0  0  0  0
  -48.6497    0.5751   20.2267 C   0  0  0  0  0  0
  -49.7646   -2.8000   17.4995 C   0  0  0  0  0  0
  -48.3122   -0.9765   17.6988 C   0  0  0  0  0  0
  -47.5983   -0.7414   21.4863 C   0  0  0  0  0  0
  -46.3702   -0.8404   18.8612 C   0  0  0  0  0  0
  -44.6037    0.0749   19.4105 C   0  0  0  0  0  0
  -44.6086    1.2560   21.2140 C   0  0  0  0  0  0
  -43.6794    0.5297   19.7554 C   0  0  0  0  0  0
  -51.1823   -1.7554   19.7721 C   0  0  0  0  0  0
  -51.6607   -2.3371   19.1143 C   0  0  0  0  0  0
  -43.6942    1.1647   20.6365 C   0  0  0  0  0  0
  -45.7644    2.1082   21.1820 C   0  0  0  0  0  0
  -42.9550   -0.6076   19.4650 C   0  0  0  0  0  0
  -42.7253    0.7821   19.5886 C   0  0  0  0  0  0
  -51.5054   -3.7141   16.9181 C   0  0  0  0  0  0
  -51.5644   -4.7115   16.9596 C   0  0  0  0  0  0
  -51.7066   -5.2395   16.1154 C   0  0  0  0  0  0
  -51.6312   -3.7786   15.1880 C   0  0  0  0  0  0
  -51.5903   -4.7819   15.2282 C   0  0  0  0  0  0
  -51.0380   -5.9518   18.0525 C   0  0  0  0  0  0
  -52.5629   -3.2586   14.3140 C   0  0  0  0  0  0
  -51.4494   -6.8349   18.2993 C   0  0  0  0  0  0
  -50.8491   -7.6250   18.4583 C   0  0  0  0  0  0
  -49.4661   -6.5833   18.4135 C   0  0  0  0  0  0
  -49.8775   -7.4664   18.6604 C   0  0  0  0  0  0
  -48.3532   -6.6543   17.6008 C   0  0  0  0  0  0
  -51.9078   -6.4097   15.3434 H   0  0  0  0  0  0
  -50.4819   -4.2260   14.5431 H   0  0  0  0  0  0
  -52.7970   -6.5343   17.9821 H   0  0  0  0  0  0
  -51.4955   -8.8382   18.8010 H   0  0  0  0  0  0
  -49.0647   -8.6064   18.8738 H   0  0  0  0  0  0
  1 31  1  0  0  0
  1 47  1  0  0  0
  2 32  2  0  0  0
  3 47  1  0  0  0
  3 50  1  0  0  0
  4 46  2  0  0  0
  5 46  1  0  0  0
  6 48  1  0  0  0
  6 52  1  0  0  0
  7 49  1  0  0  0
  7 59  1  0  0  0
  8 51  1  0  0  0
  8 60  1  0  0  0
  9 52  1  0  0  0
  9 56  1  0  0  0
 11 53  1  0  0  0
 12 54  1  0  0  0
 12 61  1  0  0  0
 13 55  1  0  0  0
 13 62  1  0  0  0
 14 57  1  0  0  0
 14 63  1  0  0  0
 16 58  1  0  0  0
 17 19  1  0  0  0
 17 22  1  0  0  0
 17 33  1  0  0  0
 18 19  1  0  0  0
 18 29  1  0  0  0
 18 35  1  0  0  0
 19 32  1  0  0  0
 20 17  1  0  0  0
 20 28  1  0  0  0
 20 36  1  0  0  0
 21 18  1  0  0  0
 21 23  1  0  0  0
 21 24  1  0  0  0
 22 24  1  0  0  0
 23 31  1  0  0  0
 23 41  1  0  0  0
 23 42  1  0  0  0
 25 20  1  0  0  0
 25 26  1  0  0  0
 25 37  1  0  0  0
 26 27  1  0  0  0
 26 38  1  0  0  0
 27 30  1  0  0  0
 27 39  1  0  0  0
 27 44  1  0  0  0
 28 30  1  0  0  0
 29 34  1  0  0  0
 31 34  1  0  0  0
 32 37  1  0  0  0
 38 40  1  0  0  0
 39 43  1  0  0  0
 40 43  1  0  0  0
 40 45  1  0  0  0
 40 46  1  0  0  0
 47 48  1  0  0  0
 48 49  1  0  0  0
 49 51  1  0  0  0
 50 51  1  0  0  0
 50 53  1  0  0  0
 52 54  1  0  0  0
 53 10  1  0  0  0
 54 55  1  0  0  0
 55 57  1  0  0  0
 56 57  1  0  0  0
 56 58  1  0  0  0
 58 15  1  0  0  0
M  END
>  <CHROM.0>
67.90795508,-177.81513088,60.01951729

>  <CHROM.1>
-177.72287586,-74.02160364,-131.82183472,70.89143538,-156.91127707,-127.41551537
79.18998634,-103.56639438,105.19872058,11.19883070,104.11891344,110.78424743
-48.75905215,-2.72157469,18.47484104,2.49561060,0.55912280,3.00189014

>  <HEADER>
                                                                          

>  <MASTER>
        0    0    0    0    0    0    0    0  127    0  127    0          

>  <Name>
Diammonium.pdb

>  <RI>
-2.74865e+08

>  <Rbt.Current_Directory>
/root/miniconda3/envs/rdock/share/rxdock-2013.1.1_148c5bd1-0/data/ligands/prepped_ligands/Diammonium

>  <Rbt.Executable>
rbdock/0.1.0

>  <Rbt.Library>
librxdock.so/0.1.0

>  <Rbt.Parameter_File>
/root/miniconda3/envs/rdock/share/rxdock-2013.1.1_148c5bd1-0/data/scripts/dock.prm

>  <Rbt.Receptor>
def.prm

>  <SCORE>
-178.078

>  <SCORE.INTER>
-11.5488

>  <SCORE.INTER.CONST>
1

>  <SCORE.INTER.POLAR>
-0.887356

>  <SCORE.INTER.REPUL>
0.00644081

>  <SCORE.INTER.ROT>
7

>  <SCORE.INTER.VDW>
-20.964

>  <SCORE.INTER.norm>
-0.199117

>  <SCORE.INTRA>
-165.591

>  <SCORE.INTRA.DIHEDRAL>
5.37056

>  <SCORE.INTRA.DIHEDRAL.0>
37.64

>  <SCORE.INTRA.POLAR>
-0.787203

>  <SCORE.INTRA.POLAR.0>
-0.371885

>  <SCORE.INTRA.REPUL>
-0.23978

>  <SCORE.INTRA.REPUL.0>
0.241776

>  <SCORE.INTRA.VDW>
-164.401

>  <SCORE.INTRA.VDW.0>
400.998

>  <SCORE.INTRA.norm>
-2.85502

>  <SCORE.RESTR>
0.00823147

>  <SCORE.RESTR.CAVITY>
0.00823147

>  <SCORE.RESTR.norm>
0.000141922

>  <SCORE.SYSTEM>
-0.946108

>  <SCORE.SYSTEM.CONST>
0

>  <SCORE.SYSTEM.DIHEDRAL>
0.170139

>  <SCORE.SYSTEM.POLAR>
-0.0011029

>  <SCORE.SYSTEM.VDW>
-1.02743

>  <SCORE.SYSTEM.norm>
-0.0163122

>  <SCORE.heavy>
58

>  <SCORE.norm>
-3.07031

>  <TITLE>
    Diammonium Glycyrrhizinate                                            

$$$$
Diammonium.pdb
  RxDock  02242112563D
librxdock.so/0.1.0
 63 69  0  0  0  0  0  0  0  0999 V2000
  -51.8153   -3.8913   18.3846 O   0  0  0  0  0  0
  -47.8429   -1.9089   17.5369 O   0  0  0  0  0  0
  -52.1679   -4.1298   16.7057 O   0  0  0  0  0  0
  -43.4284    2.4699   18.6254 O   0  5  0  0  0  0
  -42.9281    0.8991   18.0955 O   0  0  0  0  0  0
  -51.4302   -5.8440   18.5812 O   0  0  0  0  0  0
  -52.5501   -7.2256   17.2258 O   0  0  0  0  0  0
  -51.1753   -6.1544   14.9981 O   0  0  0  0  0  0
  -49.7291   -5.9585   18.2789 O   0  0  0  0  0  0
  -52.5132   -3.9457   14.4051 O   0  5  0  0  0  0
  -53.2128   -3.2778   15.8419 O   0  0  0  0  0  0
  -51.1179   -6.6542   20.6425 O   0  0  0  0  0  0
  -49.6934   -8.8473   19.5648 O   0  0  0  0  0  0
  -47.7148   -6.8820   20.0366 O   0  0  0  0  0  0
  -47.4524   -5.6501   17.7522 O   0  5  0  0  0  0
  -48.9598   -5.6017   16.9006 O   0  0  0  0  0  0
  -48.5252   -0.7167   19.7997 C   0  0  0  0  0  0
  -49.3779   -1.9377   18.8312 C   0  0  0  0  0  0
  -48.3088   -1.7023   19.2671 C   0  0  0  0  0  0
  -47.6934   -0.1855   19.9892 C   0  0  0  0  0  0
  -49.8968   -2.3606   19.8002 C   0  0  0  0  0  0
  -49.2669   -0.7601   20.5300 C   0  0  0  0  0  0
  -50.9867   -2.6498   19.4053 C   0  0  0  0  0  0
  -50.0884   -1.3864   20.3924 C   0  0  0  0  0  0
  -46.9739   -0.1316   19.2947 C   0  0  0  0  0  0
  -46.3852    0.8549   19.1752 C   0  0  0  0  0  0
  -46.1223    1.1424   20.2413 C   0  0  0  0  0  0
  -47.6866    0.4563   20.8115 C   0  0  0  0  0  0
  -49.3781   -2.6007   17.9720 C   0  0  0  0  0  0
  -46.8729    1.0876   20.9635 C   0  0  0  0  0  0
  -51.0556   -3.2499   18.5023 C   0  0  0  0  0  0
  -47.8006   -1.3217   18.3467 C   0  0  0  0  0  0
  -49.2329    0.4020   20.1874 C   0  0  0  0  0  0
  -50.2226   -3.2615   17.8061 C   0  0  0  0  0  0
  -49.0772   -1.2247   17.6891 C   0  0  0  0  0  0
  -47.7818   -0.6568   21.2821 C   0  0  0  0  0  0
  -47.0158   -0.7179   18.4860 C   0  0  0  0  0  0
  -45.3567    0.4934   18.6863 C   0  0  0  0  0  0
  -45.2507    1.7639   20.4247 C   0  0  0  0  0  0
  -44.4749    1.1068   18.8484 C   0  0  0  0  0  0
  -51.3879   -2.3187   20.2594 C   0  0  0  0  0  0
  -51.8685   -3.0060   19.7147 C   0  0  0  0  0  0
  -44.4446    1.7828   19.6981 C   0  0  0  0  0  0
  -46.5194    2.4215   20.5706 C   0  0  0  0  0  0
  -43.6330    0.0816   18.4703 C   0  0  0  0  0  0
  -43.6173    1.4949   18.5082 C   0  0  0  0  0  0
  -51.8471   -4.4903   17.5840 C   0  0  0  0  0  0
  -51.6546   -5.4666   17.6823 C   0  0  0  0  0  0
  -51.8307   -6.0909   16.9135 C   0  0  0  0  0  0
  -52.2958   -4.7456   15.9267 C   0  0  0  0  0  0
  -52.0073   -5.7053   16.0024 C   0  0  0  0  0  0
  -50.5537   -6.3049   18.7289 C   0  0  0  0  0  0
  -53.4803   -4.5350   15.2521 C   0  0  0  0  0  0
  -50.4667   -6.9776   19.4704 C   0  0  0  0  0  0
  -49.5984   -7.4713   19.5814 C   0  0  0  0  0  0
  -48.8522   -6.4188   18.4259 C   0  0  0  0  0  0
  -48.7651   -7.0915   19.1675 C   0  0  0  0  0  0
  -48.2006   -6.7415   17.2532 C   0  0  0  0  0  0
  -51.9995   -7.2960   16.1888 H   0  0  0  0  0  0
  -51.2925   -4.9837   15.0148 H   0  0  0  0  0  0
  -50.9012   -5.7211   19.9594 H   0  0  0  0  0  0
  -50.2896   -8.3517   20.4499 H   0  0  0  0  0  0
  -47.5685   -7.8265   19.3512 H   0  0  0  0  0  0
  1 31  1  0  0  0
  1 47  1  0  0  0
  2 32  2  0  0  0
  3 47  1  0  0  0
  3 50  1  0  0  0
  4 46  2  0  0  0
  5 46  1  0  0  0
  6 48  1  0  0  0
  6 52  1  0  0  0
  7 49  1  0  0  0
  7 59  1  0  0  0
  8 51  1  0  0  0
  8 60  1  0  0  0
  9 52  1  0  0  0
  9 56  1  0  0  0
 11 53  1  0  0  0
 12 54  1  0  0  0
 12 61  1  0  0  0
 13 55  1  0  0  0
 13 62  1  0  0  0
 14 57  1  0  0  0
 14 63  1  0  0  0
 16 58  1  0  0  0
 17 19  1  0  0  0
 17 22  1  0  0  0
 17 33  1  0  0  0
 18 19  1  0  0  0
 18 29  1  0  0  0
 18 35  1  0  0  0
 19 32  1  0  0  0
 20 17  1  0  0  0
 20 28  1  0  0  0
 20 36  1  0  0  0
 21 18  1  0  0  0
 21 23  1  0  0  0
 21 24  1  0  0  0
 22 24  1  0  0  0
 23 31  1  0  0  0
 23 41  1  0  0  0
 23 42  1  0  0  0
 25 20  1  0  0  0
 25 26  1  0  0  0
 25 37  1  0  0  0
 26 27  1  0  0  0
 26 38  1  0  0  0
 27 30  1  0  0  0
 27 39  1  0  0  0
 27 44  1  0  0  0
 28 30  1  0  0  0
 29 34  1  0  0  0
 31 34  1  0  0  0
 32 37  1  0  0  0
 38 40  1  0  0  0
 39 43  1  0  0  0
 40 43  1  0  0  0
 40 45  1  0  0  0
 40 46  1  0  0  0
 47 48  1  0  0  0
 48 49  1  0  0  0
 49 51  1  0  0  0
 50 51  1  0  0  0
 50 53  1  0  0  0
 52 54  1  0  0  0
 53 10  1  0  0  0
 54 55  1  0  0  0
 55 57  1  0  0  0
 56 57  1  0  0  0
 56 58  1  0  0  0
 58 15  1  0  0  0
M  END
>  <CHROM.0>
-54.76919363,-178.26602436,51.92838800

>  <CHROM.1>
-175.76083755,-79.75570826,-120.61028221,37.13794901,-164.05388349,-132.02681243
-21.15653922,-61.78926470,104.58039068,131.54127992,103.84979588,106.37156141
-48.99590162,-2.87068866,18.58325073,2.28822796,0.33676799,3.13069330

>  <HEADER>
                                                                          

>  <MASTER>
        0    0    0    0    0    0    0    0  127    0  127    0          

>  <Name>
Diammonium.pdb

>  <RI>
-2.74865e+08

>  <Rbt.Current_Directory>
/root/miniconda3/envs/rdock/share/rxdock-2013.1.1_148c5bd1-0/data/ligands/prepped_ligands/Diammonium

>  <Rbt.Executable>
rbdock/0.1.0

>  <Rbt.Library>
librxdock.so/0.1.0

>  <Rbt.Parameter_File>
/root/miniconda3/envs/rdock/share/rxdock-2013.1.1_148c5bd1-0/data/scripts/dock.prm

>  <Rbt.Receptor>
def.prm

>  <SCORE>
-178.899

>  <SCORE.INTER>
-12.8417

>  <SCORE.INTER.CONST>
1

>  <SCORE.INTER.POLAR>
-1.115

>  <SCORE.INTER.REPUL>
0.136896

>  <SCORE.INTER.ROT>
7

>  <SCORE.INTER.VDW>
-22.1352

>  <SCORE.INTER.norm>
-0.221409

>  <SCORE.INTRA>
-165.097

>  <SCORE.INTRA.DIHEDRAL>
2.59723

>  <SCORE.INTRA.DIHEDRAL.0>
37.64

>  <SCORE.INTRA.POLAR>
-0.0691456

>  <SCORE.INTRA.POLAR.0>
-0.371885

>  <SCORE.INTRA.REPUL>
-0.163953

>  <SCORE.INTRA.REPUL.0>
0.241776

>  <SCORE.INTRA.VDW>
-165.341

>  <SCORE.INTRA.VDW.0>
400.998

>  <SCORE.INTRA.norm>
-2.8465

>  <SCORE.RESTR>
0

>  <SCORE.RESTR.CAVITY>
0

>  <SCORE.RESTR.norm>
0

>  <SCORE.SYSTEM>
-0.960439

>  <SCORE.SYSTEM.CONST>
0

>  <SCORE.SYSTEM.DIHEDRAL>
0.243051

>  <SCORE.SYSTEM.VDW>
-1.08196

>  <SCORE.SYSTEM.norm>
-0.0165593

>  <SCORE.heavy>
58

>  <SCORE.norm>
-3.08447

>  <TITLE>
    Diammonium Glycyrrhizinate                                            

$$$$
