Site1_Forsythoside_D
  xed2sdf_05210316543D
 
 62 64  0  0  1  0  0  0  0  0999 V2000
   12.1394    4.1804   21.3116 O   0  0  0  0  0  0  0  0  0  0  0  0
   11.2754    1.4464   18.9856 O   0  0  0  0  0  0  0  0  0  0  0  0
   10.2734   -0.5706   19.8236 O   0  0  0  0  0  0  0  0  0  0  0  0
   10.8324    3.6754   17.8646 O   0  0  0  0  0  0  0  0  0  0  0  0
   12.4194    6.1494   22.6366 O   0  0  0  0  0  0  0  0  0  0  0  0
   11.4324    6.4934   17.8846 O   0  0  0  0  0  0  0  0  0  0  0  0
   11.4504    7.7334   20.4956 O   0  0  0  0  0  0  0  0  0  0  0  0
    7.7644    0.3864   18.6046 O   0  0  0  0  0  0  0  0  0  0  0  0
    8.6324   -0.2116   15.9876 O   0  0  0  0  0  0  0  0  0  0  0  0
   10.3954   -2.3886   16.5796 O   0  0  0  0  0  0  0  0  0  0  0  0
   15.3724    2.5584   27.9756 O   0  0  0  0  0  0  0  0  0  0  0  0
   17.7494    3.9044   27.6316 O   0  0  0  0  0  0  0  0  0  0  0  0
   11.4104    3.5354   20.2476 C   0  0  0  0  0  0  0  0  0  0  0  0
   11.5994    4.2884   18.9136 C   0  0  0  0  0  0  0  0  0  0  0  0
   11.1714    5.7574   19.0886 C   0  0  0  0  0  0  0  0  0  0  0  0
   11.9224    6.3964   20.2716 C   0  0  0  0  0  0  0  0  0  0  0  0
    9.0714    0.7924   18.1716 C   0  0  0  0  0  0  0  0  0  0  0  0
   10.0554    0.7804   19.3596 C   0  0  0  0  0  0  0  0  0  0  0  0
    9.5844   -0.1436   17.0596 C   0  0  0  0  0  0  0  0  0  0  0  0
    9.8604   -1.5536   17.6176 C   0  0  0  0  0  0  0  0  0  0  0  0
   11.7164    5.5424   21.5376 C   0  0  0  0  0  0  0  0  0  0  0  0
   11.9094    2.0874   20.1056 C   0  0  0  0  0  0  0  0  0  0  0  0
   10.8354   -1.4276   18.8076 C   0  0  0  0  0  0  0  0  0  0  0  0
   11.1344   -2.8096   19.4096 C   0  0  0  0  0  0  0  0  0  0  0  0
   13.0574    5.1694   23.4706 C   0  0  0  0  0  0  0  0  0  0  0  0
   13.1094    5.6444   24.9326 C   0  0  0  0  0  0  0  0  0  0  0  0
   14.3584    5.1624   25.6496 C   0  0  0  0  0  0  0  0  0  0  0  0
   14.3014    4.0654   26.4836 C   0  0  0  0  0  0  0  0  0  0  0  0
   15.5514    5.8274   25.4756 C   0  0  0  0  0  0  0  0  0  0  0  0
   15.4314    3.6404   27.1476 C   0  0  0  0  0  0  0  0  0  0  0  0
   16.6854    5.4064   26.1356 C   0  0  0  0  0  0  0  0  0  0  0  0
   16.6294    4.3154   26.9736 C   0  0  0  0  0  0  0  0  0  0  0  0
   10.4364    3.5424   20.4706 H   0  0  0  0  0  0  0  0  0  0  0  0
   12.5644    4.2474   18.6556 H   0  0  0  0  0  0  0  0  0  0  0  0
   10.1904    5.7844   19.2806 H   0  0  0  0  0  0  0  0  0  0  0  0
   12.8984    6.4344   20.0566 H   0  0  0  0  0  0  0  0  0  0  0  0
    9.0084    1.7224   17.8096 H   0  0  0  0  0  0  0  0  0  0  0  0
    9.6644    1.2854   20.1286 H   0  0  0  0  0  0  0  0  0  0  0  0
   10.4414    0.2284   16.7046 H   0  0  0  0  0  0  0  0  0  0  0  0
    9.0154   -1.9786   17.9406 H   0  0  0  0  0  0  0  0  0  0  0  0
   10.7424    5.5084   21.7656 H   0  0  0  0  0  0  0  0  0  0  0  0
   11.6894   -1.0276   18.4736 H   0  0  0  0  0  0  0  0  0  0  0  0
    9.9084    3.4324   18.1816 H   0  0  0  0  0  0  0  0  0  0  0  0
   12.0454    7.2714   18.0576 H   0  0  0  0  0  0  0  0  0  0  0  0
   11.7244    8.3474   19.7466 H   0  0  0  0  0  0  0  0  0  0  0  0
    7.4884    0.8744   19.4406 H   0  0  0  0  0  0  0  0  0  0  0  0
    8.4294    0.7034   15.6206 H   0  0  0  0  0  0  0  0  0  0  0  0
    9.7074   -3.0366   16.2376 H   0  0  0  0  0  0  0  0  0  0  0  0
   15.7384    2.7734   28.8876 H   0  0  0  0  0  0  0  0  0  0  0  0
   17.6154    3.9184   28.6286 H   0  0  0  0  0  0  0  0  0  0  0  0
   12.9004    2.0904   19.9686 H   0  0  0  0  0  0  0  0  0  0  0  0
   11.6814    1.5844   20.9396 H   0  0  0  0  0  0  0  0  0  0  0  0
   10.6294   -3.5036   18.8976 H   0  0  0  0  0  0  0  0  0  0  0  0
   12.1154   -2.9976   19.3536 H   0  0  0  0  0  0  0  0  0  0  0  0
   10.8544   -2.8266   20.3696 H   0  0  0  0  0  0  0  0  0  0  0  0
   13.9874    5.0114   23.1406 H   0  0  0  0  0  0  0  0  0  0  0  0
   12.5274    4.3214   23.4296 H   0  0  0  0  0  0  0  0  0  0  0  0
   12.3044    5.2984   25.4146 H   0  0  0  0  0  0  0  0  0  0  0  0
   13.1264    6.6444   24.9286 H   0  0  0  0  0  0  0  0  0  0  0  0
   13.4374    3.5774   26.6076 H   0  0  0  0  0  0  0  0  0  0  0  0
   15.5954    6.6204   24.8676 H   0  0  0  0  0  0  0  0  0  0  0  0
   17.5494    5.8934   26.0056 H   0  0  0  0  0  0  0  0  0  0  0  0
  1 13  1  0
  1 21  1  0
  2 22  1  0
  3 18  1  0
  3 23  1  0
  5 25  1  0
 11 30  1  0
 12 32  1  0
 13 14  1  0
 13 22  1  0
 14  4  1  0
 14 15  1  0
 15  6  1  0
 15 16  1  0
 16  7  1  0
 16 21  1  0
 17  8  1  0
 17 18  1  0
 17 19  1  0
 18  2  1  0
 19  9  1  0
 19 20  1  0
 20 10  1  0
 20 23  1  0
 21  5  1  0
 23 24  1  0
 25 26  1  0
 26 27  1  0
 27 28  2  0
 27 29  1  0
 28 30  1  0
 29 31  2  0
 30 32  2  0
 31 32  1  0
  4 43  1  0
  6 44  1  0
  7 45  1  0
  8 46  1  0
  9 47  1  0
 10 48  1  0
 11 49  1  0
 12 50  1  0
 13 33  1  0
 14 34  1  0
 15 35  1  0
 16 36  1  0
 17 37  1  0
 18 38  1  0
 19 39  1  0
 20 40  1  0
 21 41  1  0
 22 51  1  0
 22 52  1  0
 23 42  1  0
 24 53  1  0
 24 54  1  0
 24 55  1  0
 25 56  1  0
 25 57  1  0
 26 58  1  0
 26 59  1  0
 28 60  1  0
 29 61  1  0
 31 62  1  0
M  END
>  <BioMolTech Lead Finder dG>
-6.339

>  <BioMolTech Lead Finder VSscore>
-13.226

>  <BioMolTech Lead Finder Rank score>
-10.077

>  <BioMolTech Lead Finder LE>
-0.198

>  <BioMolTech Lead Finder Structure Name>
C:\Users\c0ins\AppData\Local\Temp\LeadFinder_2956_1\Ligand_1.sdf

>  <BioMolTech Lead Finder SDF id>
0

>  <BioMolTech Lead Finder Pose rank>
0

>  <BioMolTech Lead Finder version>
2001 1, 19 January 2019

>  <PUBCHEM_COMPOUND_CID>
69634125

>  <PUBCHEM_COMPOUND_CANONICALIZED>
1

>  <PUBCHEM_CACTVS_COMPLEXITY>
581

>  <PUBCHEM_CACTVS_HBOND_ACCEPTOR>
12

>  <PUBCHEM_CACTVS_HBOND_DONOR>
8

>  <PUBCHEM_CACTVS_ROTATABLE_BOND>
7

>  <PUBCHEM_CACTVS_SUBSKEYS>
AAADceB4PAAAAAAAAAAAAAAAAAAAAAAAAAA0SIAAAAAAAAABAAAAGgAACAAADBSwmAMyDoAABgCAAiBCAAACAAAgIAAIiAAGiIgZNiKCERKicAElwBEPmAfA4LwOIAABAAAAQABAAAIAAACAAAAAAAAAAA==

>  <PUBCHEM_IUPAC_OPENEYE_NAME>
(2R,3R,4R,5R,6S)-2-[[(2R,3S,4S,5R,6R)-6-[2-(3,4-dihydroxyphenyl)ethoxy]-3,4,5-trihydroxy-tetrahydropyran-2-yl]methoxy]-6-methyl-tetrahydropyran-3,4,5-triol

>  <PUBCHEM_IUPAC_CAS_NAME>
(2R,3R,4R,5R,6S)-2-[[(2R,3S,4S,5R,6R)-6-[2-(3,4-dihydroxyphenyl)ethoxy]-3,4,5-trihydroxy-2-oxanyl]methoxy]-6-methyloxane-3,4,5-triol

>  <PUBCHEM_IUPAC_NAME_MARKUP>
(2<I>R</I>,3<I>R</I>,4<I>R</I>,5<I>R</I>,6<I>S</I>)-2-[[(2<I>R</I>,3<I>S</I>,4<I>S</I>,5<I>R</I>,6<I>R</I>)-6-[2-(3,4-dihydroxyphenyl)ethoxy]-3,4,5-trihydroxyoxan-2-yl]methoxy]-6-methyloxane-3,4,5-tri

>  <PUBCHEM_IUPAC_NAME>
(2R,3R,4R,5R,6S)-2-[[(2R,3S,4S,5R,6R)-6-[2-(3,4-dihydroxyphenyl)ethoxy]-3,4,5-trihydroxyoxan-2-yl]methoxy]-6-methyloxane-3,4,5-triol

>  <PUBCHEM_IUPAC_SYSTEMATIC_NAME>
(2R,3R,4R,5R,6S)-2-[[(2R,3S,4S,5R,6R)-6-[2-[3,4-bis(oxidanyl)phenyl]ethoxy]-3,4,5-tris(oxidanyl)oxan-2-yl]methoxy]-6-methyl-oxane-3,4,5-triol

>  <PUBCHEM_IUPAC_TRADITIONAL_NAME>
(2R,3R,4R,5R,6S)-2-[[(2R,3S,4S,5R,6R)-6-[2-(3,4-dihydroxyphenyl)ethoxy]-3,4,5-trihydroxy-tetrahydropyran-2-yl]methoxy]-6-methyl-tetrahydropyran-3,4,5-triol

>  <PUBCHEM_IUPAC_INCHI>
InChI=1S/C20H30O12/c1-8-13(23)15(25)17(27)20(31-8)30-7-12-14(24)16(26)18(28)19(32-12)29-5-4-9-2-3-10(21)11(22)6-9/h2-3,6,8,12-28H,4-5,7H2,1H3/t8-,12+,13-,14+,15+,16-,17+,18+,19+,20+/m0/s1

>  <PUBCHEM_IUPAC_INCHIKEY>
QIMGUQIHCNDUKU-OJJLXHDHSA-N

>  <PUBCHEM_XLOGP3_AA>
-2.5

>  <PUBCHEM_EXACT_MASS>
462.173726

>  <PUBCHEM_MOLECULAR_FORMULA>
C20H30O12

>  <PUBCHEM_MOLECULAR_WEIGHT>
462.4

>  <PUBCHEM_OPENEYE_CAN_SMILES>
CC1C(C(C(C(O1)OCC2C(C(C(C(O2)OCCC3=CC(=C(C=C3)O)O)O)O)O)O)O)O

>  <PUBCHEM_OPENEYE_ISO_SMILES>
C[C@H]1[C@@H]([C@H]([C@H]([C@@H](O1)OC[C@@H]2[C@H]([C@@H]([C@H]([C@@H](O2)OCCC3=CC(=C(C=C3)O)O)O)O)O)O)O)O

>  <PUBCHEM_CACTVS_TPSA>
199

>  <PUBCHEM_MONOISOTOPIC_WEIGHT>
462.173726

>  <PUBCHEM_TOTAL_CHARGE>
0

>  <PUBCHEM_HEAVY_ATOM_COUNT>
32

>  <PUBCHEM_ATOM_DEF_STEREO_COUNT>
10

>  <PUBCHEM_ATOM_UDEF_STEREO_COUNT>
0

>  <PUBCHEM_BOND_DEF_STEREO_COUNT>
0

>  <PUBCHEM_BOND_UDEF_STEREO_COUNT>
0

>  <PUBCHEM_ISOTOPIC_ATOM_COUNT>
0

>  <PUBCHEM_COMPONENT_COUNT>
1

>  <PUBCHEM_CACTVS_TAUTO_COUNT>
-1

>  <PUBCHEM_COORDINATE_TYPE>
1
5
255

>  <PUBCHEM_BONDANNOTATIONS>
20  10  5
13  22  5
18  2  5
23  24  6
27  28  8
27  29  8
28  30  8
29  31  8
30  32  8
31  32  8
14  4  6
21  5  5
15  6  5
16  7  6
17  8  6
19  9  6

>  <LF dG>
-6.339

>  <LF VSscore>
-13.226

>  <LF Rank Score>
-10.077

>  <LF LE>
-0.198

>  <Preferred Pose_cresset>
true

>  <Favorite_cresset>
false

>  <Protein_cresset>
6Y2F_P | 6 A | No water

>  <MW_cresset>
462.4

>  <#Atoms_cresset>
32

>  <SlogP_cresset>
-0.4

>  <TPSA_cresset>
198.8

>  <Flexibility_cresset>
15.9

>  <#RB_cresset>
15

>  <Rof5_cresset>
2

>  <Filename_cresset>
Forsythoside E.sdf

>  <Confs_cresset>
0

>  <Poses_cresset>
10

>  <_cresset_fieldpoints>
    -5      14.042367       3.896410      21.142563     -4.1230
    -5      11.842560       2.151648      17.297386    -16.3252
    -5      11.053432       5.110418      16.615936    -18.7761
    -5       7.087477      -0.556291      17.082298    -17.6021
    -5      11.864807       8.009857      22.343826    -16.0628
    -5      12.017366      -1.940590      15.723562    -13.6190
    -5       9.669367      -1.339590      14.840563    -12.6245
    -5      15.590366       0.934410      26.986563     -8.5315
    -5      18.793367       2.742410      26.525562     -8.6155
    -5       8.716367      -1.393590      20.575562     -7.7430
    -5      14.405367       6.970410      28.045563     -2.4250
    -6      13.078354       8.687765      18.530695     16.9350
    -6       8.492548       3.199208      19.448118     16.9342
    -6      17.557367       7.940410      24.552563      2.0285
    -6       8.044800       2.673869      19.779972     15.5391
    -6       8.323367       2.590410      15.920563      9.3365
    -6       8.534367      -4.452590      16.717562      6.9405
    -6      16.765856       3.561178      30.259216     16.3221
    -6      11.434367       3.106410      25.580563      3.0655
    -7      10.454367       2.865410      23.179562     -2.4120
    -7      14.068367       6.214410      17.619562     -1.7440
    -7       7.930367      -1.435590      20.367563     -2.5910
    -7       8.138367       3.701410      19.495562     -2.6790
    -7       8.967367       4.824410      16.789562     -1.7145
    -7       8.995367       7.523410      21.032562     -1.6420
    -7      13.809367       8.538410      18.708563     -1.2875
    -7      12.308367       1.886410      16.903563     -2.9935
    -7      14.267366       7.837410      22.478563     -2.3370
    -7      10.009367       8.588409      18.300562     -1.5300
    -7       6.506367      -1.073590      17.110561     -1.7965
    -7       9.596367      -1.741590      14.281563     -1.5515
    -7       7.583367      -2.321590      15.468563     -1.4960
    -7      12.640367      -1.423590      16.000563     -1.7885
    -7      12.798367      -2.407590      16.387562     -1.7580
    -7      17.690367       1.543410      28.567562     -1.5300
    -7      14.547367       6.753410      28.669563     -1.8335
    -7      16.023367       4.774410      30.227562     -1.3925
    -7      14.042367       2.349410      22.537563     -2.3570
    -7      13.362367       2.470410      29.437561     -1.2430
    -7      15.590366       2.904410      23.516563     -2.3545
    -7      19.272367       5.687410      28.448563     -1.2310
    -7       8.704367      -4.620590      17.580563     -1.4420
    -7      11.176367      -0.700590      22.067562     -2.1695
    -7      14.574367       4.242410      20.632563     -2.9910
    -8      11.428367       5.129410      19.941563      5.1740
    -8      15.462367       4.777410      26.269562      6.9340
    -8      10.004367      -0.367590      18.007563      4.8030
    -8      11.950367       3.313410      19.631563      3.8650
    -8      10.640367      -2.270590      18.659563      4.4630
    -8      11.024366       2.617410      20.400562      3.3845
    -8      14.315367       5.179410      25.571562      5.7040
    -8       9.343367       1.520410      18.830563      2.9055

$$$$
W_Site1_Forsythoside_D
  xed2sdf_05210316543D
 
 62 64  0  0  1  0  0  0  0  0999 V2000
   10.4594   -0.7010   23.5639 O   0  0  0  0  0  0  0  0  0  0  0  0
    9.5334   -3.0240   25.1259 O   0  0  0  0  0  0  0  0  0  0  0  0
   10.2114   -5.1420   26.0359 O   0  0  0  0  0  0  0  0  0  0  0  0
    8.6854   -0.2250   26.7989 O   0  0  0  0  0  0  0  0  0  0  0  0
   10.4734    0.5860   21.5499 O   0  0  0  0  0  0  0  0  0  0  0  0
    7.1814    1.4710   25.0219 O   0  0  0  0  0  0  0  0  0  0  0  0
    8.6164    2.3980   22.6909 O   0  0  0  0  0  0  0  0  0  0  0  0
    7.4774   -5.3440   27.1229 O   0  0  0  0  0  0  0  0  0  0  0  0
    6.3544   -5.9120   24.5979 O   0  0  0  0  0  0  0  0  0  0  0  0
    8.6064   -7.1890   23.3749 O   0  0  0  0  0  0  0  0  0  0  0  0
    8.3064    1.3150   16.9269 O   0  0  0  0  0  0  0  0  0  0  0  0
    8.4544   -1.2720   15.9979 O   0  0  0  0  0  0  0  0  0  0  0  0
   10.2824   -0.7010   24.9949 C   0  0  0  0  0  0  0  0  0  0  0  0
    8.8474   -0.2750   25.3729 C   0  0  0  0  0  0  0  0  0  0  0  0
    8.5444    1.1050   24.7609 C   0  0  0  0  0  0  0  0  0  0  0  0
    8.8044    1.0870   23.2429 C   0  0  0  0  0  0  0  0  0  0  0  0
    7.8304   -4.5440   25.9849 C   0  0  0  0  0  0  0  0  0  0  0  0
    9.2814   -4.0390   26.1149 C   0  0  0  0  0  0  0  0  0  0  0  0
    7.6764   -5.3600   24.6859 C   0  0  0  0  0  0  0  0  0  0  0  0
    8.7294   -6.4830   24.6199 C   0  0  0  0  0  0  0  0  0  0  0  0
   10.2394    0.5970   22.9699 C   0  0  0  0  0  0  0  0  0  0  0  0
   10.5674   -2.1120   25.5339 C   0  0  0  0  0  0  0  0  0  0  0  0
   10.1284   -5.8540   24.7839 C   0  0  0  0  0  0  0  0  0  0  0  0
   11.2174   -6.9390   24.7369 C   0  0  0  0  0  0  0  0  0  0  0  0
   11.8044    0.1510   21.2299 C   0  0  0  0  0  0  0  0  0  0  0  0
   12.1904    0.5750   19.8029 C   0  0  0  0  0  0  0  0  0  0  0  0
   11.1924    0.0880   18.7679 C   0  0  0  0  0  0  0  0  0  0  0  0
   10.2024    0.9300   18.3049 C   0  0  0  0  0  0  0  0  0  0  0  0
   11.2654   -1.2030   18.2939 C   0  0  0  0  0  0  0  0  0  0  0  0
    9.2864    0.4820   17.3789 C   0  0  0  0  0  0  0  0  0  0  0  0
   10.3534   -1.6580   17.3669 C   0  0  0  0  0  0  0  0  0  0  0  0
    9.3614   -0.8200   16.9089 C   0  0  0  0  0  0  0  0  0  0  0  0
   10.9174   -0.0440   25.3999 H   0  0  0  0  0  0  0  0  0  0  0  0
    8.2064   -0.9520   25.0109 H   0  0  0  0  0  0  0  0  0  0  0  0
    9.1494    1.7820   25.1809 H   0  0  0  0  0  0  0  0  0  0  0  0
    8.1554    0.4620   22.8079 H   0  0  0  0  0  0  0  0  0  0  0  0
    7.2124   -3.7580   25.9479 H   0  0  0  0  0  0  0  0  0  0  0  0
    9.4144   -3.6190   27.0129 H   0  0  0  0  0  0  0  0  0  0  0  0
    7.8204   -4.7470   23.9089 H   0  0  0  0  0  0  0  0  0  0  0  0
    8.5874   -7.1450   25.3559 H   0  0  0  0  0  0  0  0  0  0  0  0
   10.8944    1.2230   23.3929 H   0  0  0  0  0  0  0  0  0  0  0  0
   10.2754   -5.2150   24.0289 H   0  0  0  0  0  0  0  0  0  0  0  0
    8.6234   -1.1490   27.1929 H   0  0  0  0  0  0  0  0  0  0  0  0
    6.9324    2.3200   24.5429 H   0  0  0  0  0  0  0  0  0  0  0  0
    7.8654    2.4090   22.0229 H   0  0  0  0  0  0  0  0  0  0  0  0
    7.4864   -6.3240   26.8979 H   0  0  0  0  0  0  0  0  0  0  0  0
    6.2914   -6.7900   25.0839 H   0  0  0  0  0  0  0  0  0  0  0  0
    8.2394   -6.5960   22.6509 H   0  0  0  0  0  0  0  0  0  0  0  0
    8.5024    1.6420   15.9959 H   0  0  0  0  0  0  0  0  0  0  0  0
    8.9024   -1.7890   15.2599 H   0  0  0  0  0  0  0  0  0  0  0  0
   11.4474   -2.4310   25.1809 H   0  0  0  0  0  0  0  0  0  0  0  0
   10.5934   -2.0770   26.5329 H   0  0  0  0  0  0  0  0  0  0  0  0
   10.7834   -7.8310   24.6089 H   0  0  0  0  0  0  0  0  0  0  0  0
   11.8434   -6.7570   23.9789 H   0  0  0  0  0  0  0  0  0  0  0  0
   11.7334   -6.9350   25.5939 H   0  0  0  0  0  0  0  0  0  0  0  0
   11.8504   -0.8460   21.3019 H   0  0  0  0  0  0  0  0  0  0  0  0
   12.4424    0.5740   21.8719 H   0  0  0  0  0  0  0  0  0  0  0  0
   13.0914    0.1980   19.5869 H   0  0  0  0  0  0  0  0  0  0  0  0
   12.1994    1.5740   19.7719 H   0  0  0  0  0  0  0  0  0  0  0  0
   10.1494    1.8700   18.6439 H   0  0  0  0  0  0  0  0  0  0  0  0
   11.9854   -1.8140   18.6249 H   0  0  0  0  0  0  0  0  0  0  0  0
   10.4124   -2.5960   17.0269 H   0  0  0  0  0  0  0  0  0  0  0  0
  1 13  1  0
  1 21  1  0
  2 22  1  0
  3 18  1  0
  3 23  1  0
  5 25  1  0
 11 30  1  0
 12 32  1  0
 13 14  1  0
 13 22  1  0
 14  4  1  0
 14 15  1  0
 15  6  1  0
 15 16  1  0
 16  7  1  0
 16 21  1  0
 17  8  1  0
 17 18  1  0
 17 19  1  0
 18  2  1  0
 19  9  1  0
 19 20  1  0
 20 10  1  0
 20 23  1  0
 21  5  1  0
 23 24  1  0
 25 26  1  0
 26 27  1  0
 27 28  2  0
 27 29  1  0
 28 30  1  0
 29 31  2  0
 30 32  2  0
 31 32  1  0
  4 43  1  0
  6 44  1  0
  7 45  1  0
  8 46  1  0
  9 47  1  0
 10 48  1  0
 11 49  1  0
 12 50  1  0
 13 33  1  0
 14 34  1  0
 15 35  1  0
 16 36  1  0
 17 37  1  0
 18 38  1  0
 19 39  1  0
 20 40  1  0
 21 41  1  0
 22 51  1  0
 22 52  1  0
 23 42  1  0
 24 53  1  0
 24 54  1  0
 24 55  1  0
 25 56  1  0
 25 57  1  0
 26 58  1  0
 26 59  1  0
 28 60  1  0
 29 61  1  0
 31 62  1  0
M  END
>  <BioMolTech Lead Finder dG>
-7.63

>  <BioMolTech Lead Finder VSscore>
-14.192

>  <BioMolTech Lead Finder Rank score>
-12.358

>  <BioMolTech Lead Finder LE>
-0.238

>  <BioMolTech Lead Finder Structure Name>
C:\Users\Odara\AppData\Local\Temp\LeadFinder_5040_1\Ligand_1.sdf

>  <BioMolTech Lead Finder SDF id>
0

>  <BioMolTech Lead Finder Pose rank>
0

>  <BioMolTech Lead Finder version>
2001 1, 19 January 2019

>  <PUBCHEM_COMPOUND_CID>
69634125

>  <PUBCHEM_COMPOUND_CANONICALIZED>
1

>  <PUBCHEM_CACTVS_COMPLEXITY>
581

>  <PUBCHEM_CACTVS_HBOND_ACCEPTOR>
12

>  <PUBCHEM_CACTVS_HBOND_DONOR>
8

>  <PUBCHEM_CACTVS_ROTATABLE_BOND>
7

>  <PUBCHEM_CACTVS_SUBSKEYS>
AAADceB4PAAAAAAAAAAAAAAAAAAAAAAAAAA0SIAAAAAAAAABAAAAGgAACAAADBSwmAMyDoAABgCAAiBCAAACAAAgIAAIiAAGiIgZNiKCERKicAElwBEPmAfA4LwOIAABAAAAQABAAAIAAACAAAAAAAAAAA==

>  <PUBCHEM_IUPAC_OPENEYE_NAME>
(2R,3R,4R,5R,6S)-2-[[(2R,3S,4S,5R,6R)-6-[2-(3,4-dihydroxyphenyl)ethoxy]-3,4,5-trihydroxy-tetrahydropyran-2-yl]methoxy]-6-methyl-tetrahydropyran-3,4,5-triol

>  <PUBCHEM_IUPAC_CAS_NAME>
(2R,3R,4R,5R,6S)-2-[[(2R,3S,4S,5R,6R)-6-[2-(3,4-dihydroxyphenyl)ethoxy]-3,4,5-trihydroxy-2-oxanyl]methoxy]-6-methyloxane-3,4,5-triol

>  <PUBCHEM_IUPAC_NAME_MARKUP>
(2<I>R</I>,3<I>R</I>,4<I>R</I>,5<I>R</I>,6<I>S</I>)-2-[[(2<I>R</I>,3<I>S</I>,4<I>S</I>,5<I>R</I>,6<I>R</I>)-6-[2-(3,4-dihydroxyphenyl)ethoxy]-3,4,5-trihydroxyoxan-2-yl]methoxy]-6-methyloxane-3,4,5-tri

>  <PUBCHEM_IUPAC_NAME>
(2R,3R,4R,5R,6S)-2-[[(2R,3S,4S,5R,6R)-6-[2-(3,4-dihydroxyphenyl)ethoxy]-3,4,5-trihydroxyoxan-2-yl]methoxy]-6-methyloxane-3,4,5-triol

>  <PUBCHEM_IUPAC_SYSTEMATIC_NAME>
(2R,3R,4R,5R,6S)-2-[[(2R,3S,4S,5R,6R)-6-[2-[3,4-bis(oxidanyl)phenyl]ethoxy]-3,4,5-tris(oxidanyl)oxan-2-yl]methoxy]-6-methyl-oxane-3,4,5-triol

>  <PUBCHEM_IUPAC_TRADITIONAL_NAME>
(2R,3R,4R,5R,6S)-2-[[(2R,3S,4S,5R,6R)-6-[2-(3,4-dihydroxyphenyl)ethoxy]-3,4,5-trihydroxy-tetrahydropyran-2-yl]methoxy]-6-methyl-tetrahydropyran-3,4,5-triol

>  <PUBCHEM_IUPAC_INCHI>
InChI=1S/C20H30O12/c1-8-13(23)15(25)17(27)20(31-8)30-7-12-14(24)16(26)18(28)19(32-12)29-5-4-9-2-3-10(21)11(22)6-9/h2-3,6,8,12-28H,4-5,7H2,1H3/t8-,12+,13-,14+,15+,16-,17+,18+,19+,20+/m0/s1

>  <PUBCHEM_IUPAC_INCHIKEY>
QIMGUQIHCNDUKU-OJJLXHDHSA-N

>  <PUBCHEM_XLOGP3_AA>
-2.5

>  <PUBCHEM_EXACT_MASS>
462.173726

>  <PUBCHEM_MOLECULAR_FORMULA>
C20H30O12

>  <PUBCHEM_MOLECULAR_WEIGHT>
462.4

>  <PUBCHEM_OPENEYE_CAN_SMILES>
CC1C(C(C(C(O1)OCC2C(C(C(C(O2)OCCC3=CC(=C(C=C3)O)O)O)O)O)O)O)O

>  <PUBCHEM_OPENEYE_ISO_SMILES>
C[C@H]1[C@@H]([C@H]([C@H]([C@@H](O1)OC[C@@H]2[C@H]([C@@H]([C@H]([C@@H](O2)OCCC3=CC(=C(C=C3)O)O)O)O)O)O)O)O

>  <PUBCHEM_CACTVS_TPSA>
199

>  <PUBCHEM_MONOISOTOPIC_WEIGHT>
462.173726

>  <PUBCHEM_TOTAL_CHARGE>
0

>  <PUBCHEM_HEAVY_ATOM_COUNT>
32

>  <PUBCHEM_ATOM_DEF_STEREO_COUNT>
10

>  <PUBCHEM_ATOM_UDEF_STEREO_COUNT>
0

>  <PUBCHEM_BOND_DEF_STEREO_COUNT>
0

>  <PUBCHEM_BOND_UDEF_STEREO_COUNT>
0

>  <PUBCHEM_ISOTOPIC_ATOM_COUNT>
0

>  <PUBCHEM_COMPONENT_COUNT>
1

>  <PUBCHEM_CACTVS_TAUTO_COUNT>
-1

>  <PUBCHEM_COORDINATE_TYPE>
1
5
255

>  <PUBCHEM_BONDANNOTATIONS>
20  10  5
13  22  5
18  2  5
23  24  6
27  28  8
27  29  8
28  30  8
29  31  8
30  32  8
31  32  8
14  4  6
21  5  5
15  6  5
16  7  6
17  8  6
19  9  6

>  <LF dG>
-7.63

>  <LF VSscore>
-14.192

>  <LF Rank Score>
-12.358

>  <LF LE>
-0.238

>  <Preferred Pose_cresset>
true

>  <Favorite_cresset>
false

>  <Protein_cresset>
6Y2F_P | 5 A | With water

>  <MW_cresset>
462.4

>  <#Atoms_cresset>
32

>  <SlogP_cresset>
-0.4

>  <TPSA_cresset>
198.8

>  <Flexibility_cresset>
15.9

>  <#RB_cresset>
15

>  <Rof5_cresset>
2

>  <Filename_cresset>
Forsythoside E.sdf

>  <Confs_cresset>
0

>  <Poses_cresset>
10

>  <_cresset_fieldpoints>
    -5       9.727402      -2.326032      22.864910    -11.1735
    -5      10.919402      -5.828032      27.676910     -7.6390
    -5       6.768402      -4.594032      28.734909    -10.7600
    -5       7.159646       0.928808      26.858046    -19.7996
    -5       9.171402      -0.469032      20.622910    -11.5075
    -5      10.003402       2.632968      21.391911    -11.9825
    -5       4.886402      -4.837032      24.002909    -11.3095
    -5       9.088402      -9.020032      23.092909    -10.9100
    -5       6.805402      -0.413032      16.454910    -11.0205
    -5       6.734402       0.222968      16.896910    -10.9305
    -5      12.539402       0.641968      16.151909     -2.2620
    -6      12.763402       1.142968      24.605909      4.0825
    -6       8.540401      -5.057032      21.660910      8.1810
    -6       9.528401      -2.164032      28.540909      9.1120
    -6       6.157402       2.705968      22.835909     11.8480
    -6      12.703402      -0.776032      26.880909      3.5430
    -6       6.787655      -8.011162      26.447094     16.1256
    -6       9.121402       2.195968      14.315909      7.8080
    -6      11.595402       3.680968      18.716909      1.6580
    -6      10.058402      -3.096032      14.594910      9.4660
    -6      12.704402      -4.125032      23.732910      1.6330
    -6      13.671402      -2.189032      19.968910      3.5485
    -7      13.279402      -0.856032      23.922909     -2.1915
    -7       9.563402      -6.773032      27.865910     -2.6085
    -7      10.567402       0.000968      28.227909     -1.9115
    -7       9.801402      -1.775032      28.913910     -1.6650
    -7       5.831402      -0.485032      23.926910     -1.7490
    -7       8.149402       4.270968      24.077909     -1.5290
    -7       8.932402      -2.617032      22.799910     -3.9285
    -7       6.429401      -1.563032      26.995911     -1.9825
    -7      10.384401       3.854968      23.753910     -1.6940
    -7       6.229402      -7.785032      22.955910     -1.6690
    -7       5.122402      -6.039032      26.862909     -1.6875
    -7       9.093402      -9.529033      23.582909     -1.4320
    -7      10.221402      -6.387032      21.563910     -1.8670
    -7       8.839401      -1.268032      20.752909     -3.4040
    -7       8.710402       3.769968      17.144909     -1.2800
    -7      10.084402       3.042968      20.874910     -2.9980
    -7       7.983402      -3.778032      16.096909     -1.2440
    -7       6.875401       0.312968      14.964910     -1.4390
    -7      11.632401       2.432968      25.552910     -1.8575
    -7      13.799402      -2.366032      20.250910     -1.7695
    -7      12.462401      -4.507032      26.741909     -2.2255
    -7      12.374402       0.705968      15.605909     -1.8250
    -8       9.349401       0.477968      24.374910      5.1455
    -8      10.065402      -1.009032      25.629910      3.9445
    -8       8.672401      -5.307032      25.015909      4.8640
    -8      10.197402      -6.712032      24.652910      4.4650
    -8      10.329402      -0.371032      17.873909      6.9225

$$$$
Site1_Lopinavir_D
  xed2sdf_05210316543D
 
 94 97  0  0  1  0  0  0  0  0999 V2000
   11.2759    0.7162   23.3969 O   0  0  0  0  0  0  0  0  0  0  0  0
   14.3219    3.1702   22.9119 O   0  0  0  0  0  0  0  0  0  0  0  0
   11.5239    2.6082   18.8159 O   0  0  0  0  0  0  0  0  0  0  0  0
    9.3619    1.7052   21.0869 O   0  0  0  0  0  0  0  0  0  0  0  0
   10.6349   -0.1988   19.4529 O   0  0  0  0  0  0  0  0  0  0  0  0
   12.6089    4.1772   20.0279 N   0  0  0  0  0  0  0  0  0  0  0  0
   12.0839    3.3672   22.5469 N   0  0  0  0  0  0  0  0  0  0  0  0
    9.0199   -0.0418   22.5119 N   0  0  0  0  0  0  0  0  0  0  0  0
   10.8309    4.7202   18.5919 N   0  0  0  0  0  0  0  0  0  0  0  0
   11.7479    3.3842   23.9789 C   0  0  0  0  0  0  0  0  0  0  0  0
   13.4779    3.1562   20.6469 C   0  0  0  0  0  0  0  0  0  0  0  0
   10.3419    2.8032   24.2659 C   0  0  0  0  0  0  0  0  0  0  0  0
   10.2419    1.2592   24.2299 C   0  0  0  0  0  0  0  0  0  0  0  0
   14.9589    3.1082   20.1959 C   0  0  0  0  0  0  0  0  0  0  0  0
    8.8619    0.8212   23.6909 C   0  0  0  0  0  0  0  0  0  0  0  0
   12.0009    4.7732   24.6109 C   0  0  0  0  0  0  0  0  0  0  0  0
   13.3619    3.2322   22.1559 C   0  0  0  0  0  0  0  0  0  0  0  0
   12.7529    5.5822   20.4519 C   0  0  0  0  0  0  0  0  0  0  0  0
   12.3449    6.5262   19.3169 C   0  0  0  0  0  0  0  0  0  0  0  0
    7.9889    0.1622   24.7859 C   0  0  0  0  0  0  0  0  0  0  0  0
   11.6549    3.7942   19.1379 C   0  0  0  0  0  0  0  0  0  0  0  0
   15.1229    3.6972   18.7859 C   0  0  0  0  0  0  0  0  0  0  0  0
   15.4619    1.6552   20.1649 C   0  0  0  0  0  0  0  0  0  0  0  0
   10.9109    6.1482   18.9359 C   0  0  0  0  0  0  0  0  0  0  0  0
   13.1909    4.8842   25.5539 C   0  0  0  0  0  0  0  0  0  0  0  0
    8.2379   -1.3028   25.1229 C   0  0  0  0  0  0  0  0  0  0  0  0
    9.2839    0.5062   21.3149 C   0  0  0  0  0  0  0  0  0  0  0  0
   13.4619    3.9002   26.4799 C   0  0  0  0  0  0  0  0  0  0  0  0
   14.0179    5.9832   25.4769 C   0  0  0  0  0  0  0  0  0  0  0  0
    9.4909   -1.7148   25.5219 C   0  0  0  0  0  0  0  0  0  0  0  0
    7.2179   -2.2248   25.0359 C   0  0  0  0  0  0  0  0  0  0  0  0
    9.4799   -0.5398   20.2449 C   0  0  0  0  0  0  0  0  0  0  0  0
   14.5419    4.0182   27.3249 C   0  0  0  0  0  0  0  0  0  0  0  0
   15.0989    6.1032   26.3189 C   0  0  0  0  0  0  0  0  0  0  0  0
   15.3609    5.1212   27.2459 C   0  0  0  0  0  0  0  0  0  0  0  0
    9.7229   -3.0358   25.8279 C   0  0  0  0  0  0  0  0  0  0  0  0
    7.4479   -3.5468   25.3409 C   0  0  0  0  0  0  0  0  0  0  0  0
    8.7009   -3.9528   25.7369 C   0  0  0  0  0  0  0  0  0  0  0  0
   10.8399   -0.9058   18.3339 C   0  0  0  0  0  0  0  0  0  0  0  0
   10.2209   -0.5178   17.1529 C   0  0  0  0  0  0  0  0  0  0  0  0
   11.6499   -2.0368   18.3329 C   0  0  0  0  0  0  0  0  0  0  0  0
   10.4229   -1.2348   15.9969 C   0  0  0  0  0  0  0  0  0  0  0  0
   11.8419   -2.7418   17.1669 C   0  0  0  0  0  0  0  0  0  0  0  0
    9.3119    0.6982   17.0729 C   0  0  0  0  0  0  0  0  0  0  0  0
   12.3669   -2.5798   19.5599 C   0  0  0  0  0  0  0  0  0  0  0  0
   11.2349   -2.3438   15.9999 C   0  0  0  0  0  0  0  0  0  0  0  0
   12.3779    2.7612   24.4429 H   0  0  0  0  0  0  0  0  0  0  0  0
   13.1229    2.2892   20.2989 H   0  0  0  0  0  0  0  0  0  0  0  0
   10.3529    0.9132   25.1609 H   0  0  0  0  0  0  0  0  0  0  0  0
    8.3689    1.6432   23.4059 H   0  0  0  0  0  0  0  0  0  0  0  0
   11.4249   -0.2608   23.5879 H   0  0  0  0  0  0  0  0  0  0  0  0
   11.4439    3.4362   21.9469 H   0  0  0  0  0  0  0  0  0  0  0  0
    8.9589   -0.9158   22.5999 H   0  0  0  0  0  0  0  0  0  0  0  0
   10.2129    4.4532   18.0249 H   0  0  0  0  0  0  0  0  0  0  0  0
    9.7089    3.1712   23.5849 H   0  0  0  0  0  0  0  0  0  0  0  0
   10.1189    3.0702   25.2039 H   0  0  0  0  0  0  0  0  0  0  0  0
   15.4889    3.6462   20.8519 H   0  0  0  0  0  0  0  0  0  0  0  0
   11.1799    5.0302   25.1209 H   0  0  0  0  0  0  0  0  0  0  0  0
   12.2159    5.3772   23.8429 H   0  0  0  0  0  0  0  0  0  0  0  0
   13.7049    5.7562   20.7019 H   0  0  0  0  0  0  0  0  0  0  0  0
   12.1579    5.7452   21.2379 H   0  0  0  0  0  0  0  0  0  0  0  0
   12.9559    6.4132   18.5339 H   0  0  0  0  0  0  0  0  0  0  0  0
   12.4029    7.4832   19.6029 H   0  0  0  0  0  0  0  0  0  0  0  0
    7.0349    0.2432   24.4949 H   0  0  0  0  0  0  0  0  0  0  0  0
    8.2309    0.6512   25.6229 H   0  0  0  0  0  0  0  0  0  0  0  0
   15.5159    3.0012   18.1849 H   0  0  0  0  0  0  0  0  0  0  0  0
   14.2319    3.9822   18.4319 H   0  0  0  0  0  0  0  0  0  0  0  0
   15.7289    4.4922   18.8209 H   0  0  0  0  0  0  0  0  0  0  0  0
   15.7749    1.4392   19.2409 H   0  0  0  0  0  0  0  0  0  0  0  0
   16.2169    1.5452   20.8109 H   0  0  0  0  0  0  0  0  0  0  0  0
   14.7199    1.0372   20.4239 H   0  0  0  0  0  0  0  0  0  0  0  0
   10.3019    6.3382   19.7059 H   0  0  0  0  0  0  0  0  0  0  0  0
   10.6359    6.6882   18.1409 H   0  0  0  0  0  0  0  0  0  0  0  0
   12.8709    3.0952   26.5379 H   0  0  0  0  0  0  0  0  0  0  0  0
   13.8309    6.6992   24.8039 H   0  0  0  0  0  0  0  0  0  0  0  0
   10.2349   -1.0498   25.5899 H   0  0  0  0  0  0  0  0  0  0  0  0
    6.3059   -1.9318   24.7489 H   0  0  0  0  0  0  0  0  0  0  0  0
    9.6169   -1.4358   20.6699 H   0  0  0  0  0  0  0  0  0  0  0  0
    8.6699   -0.5758   19.6589 H   0  0  0  0  0  0  0  0  0  0  0  0
   14.7319    3.3022   27.9969 H   0  0  0  0  0  0  0  0  0  0  0  0
   15.6949    6.9052   26.2579 H   0  0  0  0  0  0  0  0  0  0  0  0
   16.1449    5.2072   27.8599 H   0  0  0  0  0  0  0  0  0  0  0  0
   10.6339   -3.3308   26.1159 H   0  0  0  0  0  0  0  0  0  0  0  0
    6.7039   -4.2118   25.2739 H   0  0  0  0  0  0  0  0  0  0  0  0
    8.8689   -4.9128   25.9599 H   0  0  0  0  0  0  0  0  0  0  0  0
    9.9779   -0.9468   15.1489 H   0  0  0  0  0  0  0  0  0  0  0  0
   12.4299   -3.5508   17.1689 H   0  0  0  0  0  0  0  0  0  0  0  0
    8.9799    0.7962   16.1349 H   0  0  0  0  0  0  0  0  0  0  0  0
    8.5359    0.5812   17.6929 H   0  0  0  0  0  0  0  0  0  0  0  0
    9.8209    1.5172   17.3389 H   0  0  0  0  0  0  0  0  0  0  0  0
   12.8819   -3.3968   19.3019 H   0  0  0  0  0  0  0  0  0  0  0  0
   12.9919   -1.8878   19.9199 H   0  0  0  0  0  0  0  0  0  0  0  0
   11.6969   -2.8128   20.2659 H   0  0  0  0  0  0  0  0  0  0  0  0
   11.3819   -2.8598   15.1559 H   0  0  0  0  0  0  0  0  0  0  0  0
  2 17  2  0
  3 21  2  0
  4 27  2  0
  5 32  1  0
  5 39  1  0
  6 11  1  0
  6 18  1  0
  6 21  1  0
  7 17  1  0
  8 27  1  0
  9 21  1  0
  9 24  1  0
 10  7  1  0
 10 12  1  0
 10 16  1  0
 11 14  1  0
 11 17  1  0
 12 13  1  0
 13  1  1  0
 13 15  1  0
 14 22  1  0
 14 23  1  0
 15  8  1  0
 15 20  1  0
 16 25  1  0
 18 19  1  0
 19 24  1  0
 20 26  1  0
 25 28  2  0
 25 29  1  0
 26 30  2  0
 26 31  1  0
 27 32  1  0
 28 33  1  0
 29 34  2  0
 30 36  1  0
 31 37  2  0
 33 35  2  0
 34 35  1  0
 36 38  2  0
 37 38  1  0
 39 40  2  0
 39 41  1  0
 40 42  1  0
 40 44  1  0
 41 43  2  0
 41 45  1  0
 42 46  2  0
 43 46  1  0
  1 51  1  0
  7 52  1  0
  8 53  1  0
  9 54  1  0
 10 47  1  0
 11 48  1  0
 12 55  1  0
 12 56  1  0
 13 49  1  0
 14 57  1  0
 15 50  1  0
 16 58  1  0
 16 59  1  0
 18 60  1  0
 18 61  1  0
 19 62  1  0
 19 63  1  0
 20 64  1  0
 20 65  1  0
 22 66  1  0
 22 67  1  0
 22 68  1  0
 23 69  1  0
 23 70  1  0
 23 71  1  0
 24 72  1  0
 24 73  1  0
 28 74  1  0
 29 75  1  0
 30 76  1  0
 31 77  1  0
 32 78  1  0
 32 79  1  0
 33 80  1  0
 34 81  1  0
 35 82  1  0
 36 83  1  0
 37 84  1  0
 38 85  1  0
 42 86  1  0
 43 87  1  0
 44 88  1  0
 44 89  1  0
 44 90  1  0
 45 91  1  0
 45 92  1  0
 45 93  1  0
 46 94  1  0
M  END
>  <BioMolTech Lead Finder dG>
-10.341

>  <BioMolTech Lead Finder VSscore>
-11.342

>  <BioMolTech Lead Finder Rank score>
-12.576

>  <BioMolTech Lead Finder LE>
-0.225

>  <BioMolTech Lead Finder Structure Name>
C:\Users\c0ins\AppData\Local\Temp\LeadFinder_2444_1\Ligand_1.sdf

>  <BioMolTech Lead Finder SDF id>
0

>  <BioMolTech Lead Finder Pose rank>
0

>  <BioMolTech Lead Finder version>
2001 1, 19 January 2019

>  <PUBCHEM_COMPOUND_CID>
92727

>  <PUBCHEM_COMPOUND_CANONICALIZED>
1

>  <PUBCHEM_CACTVS_COMPLEXITY>
940

>  <PUBCHEM_CACTVS_HBOND_ACCEPTOR>
5

>  <PUBCHEM_CACTVS_HBOND_DONOR>
4

>  <PUBCHEM_CACTVS_ROTATABLE_BOND>
15

>  <PUBCHEM_CACTVS_SUBSKEYS>
AAADcfB/uAAAAAAAAAAAAAAAAAAAAAAAAAA8YMEAAAAAAAABUAAAHgAQCAAADTzhmAYzBoPABgCIAiFSEAICCAAgIAAIiIHMCIiOdjKE8T+XeCCu1hOYqAeQwPAOAAACAAAIAAAAAAQAABAAAAAAAAAAAA==

>  <PUBCHEM_IUPAC_OPENEYE_NAME>
(2S)-N-[(1S,3S,4S)-1-benzyl-4-[[2-(2,6-dimethylphenoxy)acetyl]amino]-3-hydroxy-5-phenyl-pentyl]-3-methyl-2-(2-oxohexahydropyrimidin-1-yl)butanamide

>  <PUBCHEM_IUPAC_CAS_NAME>
(2S)-N-[(2S,4S,5S)-5-[[2-(2,6-dimethylphenoxy)-1-oxoethyl]amino]-4-hydroxy-1,6-diphenylhexan-2-yl]-3-methyl-2-(2-oxo-1,3-diazinan-1-yl)butanamide

>  <PUBCHEM_IUPAC_NAME_MARKUP>
(2<I>S</I>)-<I>N</I>-[(2<I>S</I>,4<I>S</I>,5<I>S</I>)-5-[[2-(2,6-dimethylphenoxy)acetyl]amino]-4-hydroxy-1,6-diphenylhexan-2-yl]-3-methyl-2-(2-oxo-1,3-diazinan-1-yl)butanamide

>  <PUBCHEM_IUPAC_NAME>
(2S)-N-[(2S,4S,5S)-5-[[2-(2,6-dimethylphenoxy)acetyl]amino]-4-hydroxy-1,6-diphenylhexan-2-yl]-3-methyl-2-(2-oxo-1,3-diazinan-1-yl)butanamide

>  <PUBCHEM_IUPAC_SYSTEMATIC_NAME>
(2S)-N-[(2S,4S,5S)-5-[2-(2,6-dimethylphenoxy)ethanoylamino]-4-oxidanyl-1,6-diphenyl-hexan-2-yl]-3-methyl-2-(2-oxidanylidene-1,3-diazinan-1-yl)butanamide

>  <PUBCHEM_IUPAC_TRADITIONAL_NAME>
(2S)-N-[(1S,3S,4S)-1-benzyl-4-[[2-(2,6-dimethylphenoxy)acetyl]amino]-3-hydroxy-5-phenyl-pentyl]-2-(2-ketohexahydropyrimidin-1-yl)-3-methyl-butyramide

>  <PUBCHEM_IUPAC_INCHI>
InChI=1S/C37H48N4O5/c1-25(2)34(41-20-12-19-38-37(41)45)36(44)39-30(21-28-15-7-5-8-16-28)23-32(42)31(22-29-17-9-6-10-18-29)40-33(43)24-46-35-26(3)13-11-14-27(35)4/h5-11,13-18,25,30-32,34,42H,12,19-24H2

>  <PUBCHEM_IUPAC_INCHIKEY>
KJHKTHWMRKYKJE-SUGCFTRWSA-N

>  <PUBCHEM_XLOGP3_AA>
5.9

>  <PUBCHEM_EXACT_MASS>
628.362471

>  <PUBCHEM_MOLECULAR_FORMULA>
C37H48N4O5

>  <PUBCHEM_MOLECULAR_WEIGHT>
628.8

>  <PUBCHEM_OPENEYE_CAN_SMILES>
CC1=C(C(=CC=C1)C)OCC(=O)NC(CC2=CC=CC=C2)C(CC(CC3=CC=CC=C3)NC(=O)C(C(C)C)N4CCCNC4=O)O

>  <PUBCHEM_OPENEYE_ISO_SMILES>
CC1=C(C(=CC=C1)C)OCC(=O)N[C@@H](CC2=CC=CC=C2)[C@H](C[C@H](CC3=CC=CC=C3)NC(=O)[C@H](C(C)C)N4CCCNC4=O)O

>  <PUBCHEM_CACTVS_TPSA>
120

>  <PUBCHEM_MONOISOTOPIC_WEIGHT>
628.362471

>  <PUBCHEM_TOTAL_CHARGE>
0

>  <PUBCHEM_HEAVY_ATOM_COUNT>
46

>  <PUBCHEM_ATOM_DEF_STEREO_COUNT>
4

>  <PUBCHEM_ATOM_UDEF_STEREO_COUNT>
0

>  <PUBCHEM_BOND_DEF_STEREO_COUNT>
0

>  <PUBCHEM_BOND_UDEF_STEREO_COUNT>
0

>  <PUBCHEM_ISOTOPIC_ATOM_COUNT>
0

>  <PUBCHEM_COMPONENT_COUNT>
1

>  <PUBCHEM_CACTVS_TAUTO_COUNT>
-1

>  <PUBCHEM_COORDINATE_TYPE>
1
5
255

>  <PUBCHEM_BONDANNOTATIONS>
13  1  6
11  17  5
25  28  8
25  29  8
26  30  8
26  31  8
28  33  8
29  34  8
30  36  8
31  37  8
33  35  8
34  35  8
36  38  8
37  38  8
39  40  8
39  41  8
40  42  8
41  43  8
42  46  8
43  46  8
10  7  6
15  8  5

>  <LF dG>
-10.341

>  <LF VSscore>
-11.342

>  <LF Rank Score>
-12.576

>  <LF LE>
-0.225

>  <Preferred Pose_cresset>
true

>  <Favorite_cresset>
false

>  <Protein_cresset>
6Y2F_P | 6 A | No water

>  <MW_cresset>
628.8

>  <#Atoms_cresset>
46

>  <SlogP_cresset>
4.7

>  <TPSA_cresset>
120

>  <Flexibility_cresset>
16.1

>  <#RB_cresset>
16

>  <Rof5_cresset>
1

>  <Filename_cresset>
Lopinavir.sdf

>  <Confs_cresset>
0

>  <Poses_cresset>
10

>  <_cresset_fieldpoints>
    -5      15.494119       3.351918      24.294586    -19.3560
    -5      11.056648       1.629321      20.199547    -27.2669
    -5      12.415400       1.136615      18.553062    -22.7484
    -5       9.884091       2.096441      19.501436    -29.8644
    -5      12.710874       6.371175      28.295872     -3.9985
    -5       7.723874      -2.244825      28.160872     -3.0985
    -5      11.428764       1.349773      21.597126    -23.2576
    -5       8.802874      -3.433825      17.398872     -3.1140
    -6      10.919873      -1.923825      22.784872     10.2410
    -6       8.869873       5.132175      16.820871      4.5020
    -6       7.828874       2.936175      25.782871      5.3845
    -6       8.821874       4.802175      25.804871      3.8040
    -6       4.879874      -0.520825      24.110870      3.8320
    -6      11.004873       7.641175      21.788872      4.9720
    -6      11.171874       1.767175      27.036871      6.2255
    -6       9.794873       1.658175      27.133871      6.0295
    -6      12.821874       7.425175      22.739872      5.2945
    -6      17.673874       5.459175      29.252872      1.8755
    -6      12.259873      -1.325825      24.940872      9.5675
    -6       6.975873      -6.527825      25.681871      2.6125
    -6       8.600874      -0.093825      13.795872      2.1570
    -6      13.531874      -5.225825      17.832870      2.6080
    -7       8.771873       2.935175      19.330872     -3.1195
    -7       9.351873       4.055175      21.026871     -3.6930
    -7       9.763874       5.224175      21.989872     -3.3620
    -7       7.402874       3.300175      25.453871     -2.0310
    -7      12.996874       0.569175      25.543871     -2.8220
    -7      12.117873       6.473175      28.342871     -1.8560
    -7      14.945873       6.390175      17.007872     -1.4625
    -7      15.634873       6.974175      19.489872     -1.8765
    -7      18.225874       3.468175      19.914871     -1.4940
    -7      15.328874       5.395175      22.663872     -3.4775
    -7      12.691874       7.725175      22.846870     -2.3745
    -7      10.905873       1.877175      27.426872     -2.6435
    -7       7.656874      -1.698825      28.442871     -1.8515
    -7       6.525874      -0.916825      21.943871     -2.8770
    -7      17.879873       7.321175      27.839870     -0.9685
    -7      16.839874       3.347175      29.737871     -0.9690
    -7      12.384873       0.219175      21.497871     -4.9660
    -7      11.070873      -2.193825      22.673872     -3.7140
    -7       6.971874      -6.877825      25.814871     -0.9685
    -7      11.321874      -5.919825      26.641872     -0.9700
    -7      10.139874      -2.155825      12.765871     -1.0015
    -7      12.890874      -5.202825      15.128872     -1.0050
    -7      13.165874       1.244175      17.821871     -4.2630
    -7       8.425874      -3.157825      18.451872     -2.5265
    -7      12.628874       4.570175      16.516872     -2.5155
    -8       8.470874      -2.622825      25.428871      7.1960
    -8      11.273873       3.729175      24.679871      5.2665
    -8       9.447874       1.822175      24.337872      5.1560
    -8       8.859874      -0.474825      24.955872      5.6030
    -8      12.524874       4.089175      25.224871      5.7255
    -8      11.940874       6.320175      19.742870      4.9565
    -8      14.835874       2.763175      19.797871      5.9265
    -8       8.814874      -0.610825      20.643871      2.8485
    -8      14.274874       4.999175      26.395870      7.1885
    -8      10.778873       2.626175      24.439871      4.8405
    -8      11.035873      -1.648825      17.140871      7.0730
    -8      10.167873      -0.528825      16.989872      5.4655
    -8      11.748874      -2.206825      18.293871      5.4780

$$$$
W_Site1_Lopinavir_D
  xed2sdf_05210316543D
 
 94 97  0  0  1  0  0  0  0  0999 V2000
    9.5427    2.1594   21.5911 O   0  0  0  0  0  0  0  0  0  0  0  0
    9.5757   -3.0156   20.9091 O   0  0  0  0  0  0  0  0  0  0  0  0
   11.9927   -5.4826   24.7051 O   0  0  0  0  0  0  0  0  0  0  0  0
   12.5477    3.5814   18.5761 O   0  0  0  0  0  0  0  0  0  0  0  0
   15.3097    3.7684   18.3221 O   0  0  0  0  0  0  0  0  0  0  0  0
   10.1157   -4.6406   23.7681 N   0  0  0  0  0  0  0  0  0  0  0  0
   10.5007   -1.9246   22.6801 N   0  0  0  0  0  0  0  0  0  0  0  0
   12.9337    2.1524   20.3091 N   0  0  0  0  0  0  0  0  0  0  0  0
   10.1277   -5.5496   25.9341 N   0  0  0  0  0  0  0  0  0  0  0  0
   10.0537   -0.5986   22.2271 C   0  0  0  0  0  0  0  0  0  0  0  0
   10.8487   -4.2606   22.5431 C   0  0  0  0  0  0  0  0  0  0  0  0
   11.0797    0.5154   22.5511 C   0  0  0  0  0  0  0  0  0  0  0  0
   10.9297    1.8164   21.7261 C   0  0  0  0  0  0  0  0  0  0  0  0
   11.0657   -5.3576   21.4711 C   0  0  0  0  0  0  0  0  0  0  0  0
   11.5557    1.6394   20.3251 C   0  0  0  0  0  0  0  0  0  0  0  0
    8.6127   -0.2886   22.6951 C   0  0  0  0  0  0  0  0  0  0  0  0
   10.2307   -3.0146   21.9421 C   0  0  0  0  0  0  0  0  0  0  0  0
    8.6857   -4.2986   23.8731 C   0  0  0  0  0  0  0  0  0  0  0  0
    7.9627   -5.2966   24.7811 C   0  0  0  0  0  0  0  0  0  0  0  0
   11.4697    0.1774   19.8251 C   0  0  0  0  0  0  0  0  0  0  0  0
   10.7857   -5.2306   24.7931 C   0  0  0  0  0  0  0  0  0  0  0  0
   10.3477   -6.6586   21.8621 C   0  0  0  0  0  0  0  0  0  0  0  0
   12.5647   -5.6686   21.3201 C   0  0  0  0  0  0  0  0  0  0  0  0
    8.6967   -5.2676   26.1251 C   0  0  0  0  0  0  0  0  0  0  0  0
    8.4237   -0.0146   24.1811 C   0  0  0  0  0  0  0  0  0  0  0  0
   10.7557   -0.0926   18.5061 C   0  0  0  0  0  0  0  0  0  0  0  0
   13.2807    3.1074   19.4331 C   0  0  0  0  0  0  0  0  0  0  0  0
    8.8587   -0.9116   25.1331 C   0  0  0  0  0  0  0  0  0  0  0  0
    7.8157    1.1544   24.5841 C   0  0  0  0  0  0  0  0  0  0  0  0
    9.9677    0.8824   17.9361 C   0  0  0  0  0  0  0  0  0  0  0  0
   10.8927   -1.3096   17.8741 C   0  0  0  0  0  0  0  0  0  0  0  0
   14.7107    3.5514   19.6161 C   0  0  0  0  0  0  0  0  0  0  0  0
    8.6787   -0.6476   26.4721 C   0  0  0  0  0  0  0  0  0  0  0  0
    7.6367    1.4214   25.9211 C   0  0  0  0  0  0  0  0  0  0  0  0
    8.0667    0.5194   26.8671 C   0  0  0  0  0  0  0  0  0  0  0  0
    9.3187    0.6434   16.7461 C   0  0  0  0  0  0  0  0  0  0  0  0
   10.2447   -1.5506   16.6831 C   0  0  0  0  0  0  0  0  0  0  0  0
    9.4577   -0.5726   16.1191 C   0  0  0  0  0  0  0  0  0  0  0  0
   16.1647    4.7934   18.2081 C   0  0  0  0  0  0  0  0  0  0  0  0
   17.5257    4.5754   18.3821 C   0  0  0  0  0  0  0  0  0  0  0  0
   15.7157    6.0824   17.9381 C   0  0  0  0  0  0  0  0  0  0  0  0
   18.4147    5.6194   18.2671 C   0  0  0  0  0  0  0  0  0  0  0  0
   16.6177    7.1134   17.8251 C   0  0  0  0  0  0  0  0  0  0  0  0
   18.0957    3.2004   18.6921 C   0  0  0  0  0  0  0  0  0  0  0  0
   14.2527    6.4584   17.7491 C   0  0  0  0  0  0  0  0  0  0  0  0
   17.9647    6.8874   17.9861 C   0  0  0  0  0  0  0  0  0  0  0  0
   10.0127   -0.6196   21.2281 H   0  0  0  0  0  0  0  0  0  0  0  0
   11.7807   -4.0876   22.8601 H   0  0  0  0  0  0  0  0  0  0  0  0
   11.4067    2.5514   22.2061 H   0  0  0  0  0  0  0  0  0  0  0  0
   11.0197    2.1824   19.6791 H   0  0  0  0  0  0  0  0  0  0  0  0
    9.2217    2.0234   20.6471 H   0  0  0  0  0  0  0  0  0  0  0  0
   10.9527   -2.0006   23.4301 H   0  0  0  0  0  0  0  0  0  0  0  0
   13.5197    1.8424   20.8891 H   0  0  0  0  0  0  0  0  0  0  0  0
   10.5797   -5.9226   26.5911 H   0  0  0  0  0  0  0  0  0  0  0  0
   11.9957    0.1494   22.3911 H   0  0  0  0  0  0  0  0  0  0  0  0
   10.9137    0.7744   23.5031 H   0  0  0  0  0  0  0  0  0  0  0  0
   10.6937   -5.0106   20.6101 H   0  0  0  0  0  0  0  0  0  0  0  0
    8.0387   -1.0716   22.4531 H   0  0  0  0  0  0  0  0  0  0  0  0
    8.3637    0.5644   22.2361 H   0  0  0  0  0  0  0  0  0  0  0  0
    8.2727   -4.3186   22.9621 H   0  0  0  0  0  0  0  0  0  0  0  0
    8.5997   -3.3826   24.2661 H   0  0  0  0  0  0  0  0  0  0  0  0
    7.9967   -6.2146   24.3861 H   0  0  0  0  0  0  0  0  0  0  0  0
    6.9987   -5.0556   24.8911 H   0  0  0  0  0  0  0  0  0  0  0  0
   11.0017   -0.3516   20.5321 H   0  0  0  0  0  0  0  0  0  0  0  0
   12.4197   -0.0786   19.6461 H   0  0  0  0  0  0  0  0  0  0  0  0
   11.0207   -7.3956   21.9261 H   0  0  0  0  0  0  0  0  0  0  0  0
    9.8927   -6.5416   22.7451 H   0  0  0  0  0  0  0  0  0  0  0  0
    9.6627   -6.8866   21.1701 H   0  0  0  0  0  0  0  0  0  0  0  0
   12.7157   -6.6386   21.5111 H   0  0  0  0  0  0  0  0  0  0  0  0
   12.8607   -5.4586   20.3891 H   0  0  0  0  0  0  0  0  0  0  0  0
   13.0907   -5.1116   21.9631 H   0  0  0  0  0  0  0  0  0  0  0  0
    8.5897   -4.3646   26.5411 H   0  0  0  0  0  0  0  0  0  0  0  0
    8.3057   -5.9676   26.7221 H   0  0  0  0  0  0  0  0  0  0  0  0
    9.3067   -1.7596   24.8491 H   0  0  0  0  0  0  0  0  0  0  0  0
    7.5027    1.8124   23.8991 H   0  0  0  0  0  0  0  0  0  0  0  0
    9.8657    1.7684   18.3891 H   0  0  0  0  0  0  0  0  0  0  0  0
   11.4647   -2.0206   18.2811 H   0  0  0  0  0  0  0  0  0  0  0  0
   14.7357    4.4004   20.1441 H   0  0  0  0  0  0  0  0  0  0  0  0
   15.2207    2.8444   20.1071 H   0  0  0  0  0  0  0  0  0  0  0  0
    8.9937   -1.3036   27.1571 H   0  0  0  0  0  0  0  0  0  0  0  0
    7.1937    2.2714   26.2061 H   0  0  0  0  0  0  0  0  0  0  0  0
    7.9347    0.7114   27.8391 H   0  0  0  0  0  0  0  0  0  0  0  0
    8.7467    1.3544   16.3371 H   0  0  0  0  0  0  0  0  0  0  0  0
   10.3467   -2.4346   16.2291 H   0  0  0  0  0  0  0  0  0  0  0  0
    8.9877   -0.7466   15.2541 H   0  0  0  0  0  0  0  0  0  0  0  0
   19.3937    5.4544   18.3881 H   0  0  0  0  0  0  0  0  0  0  0  0
   16.2917    8.0374   17.6251 H   0  0  0  0  0  0  0  0  0  0  0  0
   19.0907    3.2704   18.7701 H   0  0  0  0  0  0  0  0  0  0  0  0
   17.7137    2.8624   19.5521 H   0  0  0  0  0  0  0  0  0  0  0  0
   17.8587    2.5644   17.9581 H   0  0  0  0  0  0  0  0  0  0  0  0
   14.1907    7.4394   17.5661 H   0  0  0  0  0  0  0  0  0  0  0  0
   13.8687    5.9474   16.9801 H   0  0  0  0  0  0  0  0  0  0  0  0
   13.7387    6.2354   18.5771 H   0  0  0  0  0  0  0  0  0  0  0  0
   18.6137    7.6424   17.9001 H   0  0  0  0  0  0  0  0  0  0  0  0
  2 17  2  0
  3 21  2  0
  4 27  2  0
  5 32  1  0
  5 39  1  0
  6 11  1  0
  6 18  1  0
  6 21  1  0
  7 17  1  0
  8 27  1  0
  9 21  1  0
  9 24  1  0
 10  7  1  0
 10 12  1  0
 10 16  1  0
 11 14  1  0
 11 17  1  0
 12 13  1  0
 13  1  1  0
 13 15  1  0
 14 22  1  0
 14 23  1  0
 15  8  1  0
 15 20  1  0
 16 25  1  0
 18 19  1  0
 19 24  1  0
 20 26  1  0
 25 28  2  0
 25 29  1  0
 26 30  2  0
 26 31  1  0
 27 32  1  0
 28 33  1  0
 29 34  2  0
 30 36  1  0
 31 37  2  0
 33 35  2  0
 34 35  1  0
 36 38  2  0
 37 38  1  0
 39 40  2  0
 39 41  1  0
 40 42  1  0
 40 44  1  0
 41 43  2  0
 41 45  1  0
 42 46  2  0
 43 46  1  0
  1 51  1  0
  7 52  1  0
  8 53  1  0
  9 54  1  0
 10 47  1  0
 11 48  1  0
 12 55  1  0
 12 56  1  0
 13 49  1  0
 14 57  1  0
 15 50  1  0
 16 58  1  0
 16 59  1  0
 18 60  1  0
 18 61  1  0
 19 62  1  0
 19 63  1  0
 20 64  1  0
 20 65  1  0
 22 66  1  0
 22 67  1  0
 22 68  1  0
 23 69  1  0
 23 70  1  0
 23 71  1  0
 24 72  1  0
 24 73  1  0
 28 74  1  0
 29 75  1  0
 30 76  1  0
 31 77  1  0
 32 78  1  0
 32 79  1  0
 33 80  1  0
 34 81  1  0
 35 82  1  0
 36 83  1  0
 37 84  1  0
 38 85  1  0
 42 86  1  0
 43 87  1  0
 44 88  1  0
 44 89  1  0
 44 90  1  0
 45 91  1  0
 45 92  1  0
 45 93  1  0
 46 94  1  0
M  END
>  <BioMolTech Lead Finder dG>
-7.914

>  <BioMolTech Lead Finder VSscore>
-10.417

>  <BioMolTech Lead Finder Rank score>
-10.944

>  <BioMolTech Lead Finder LE>
-0.172

>  <BioMolTech Lead Finder Structure Name>
C:\Users\c0ins\AppData\Local\Temp\LeadFinder_7244_1\Ligand_1.sdf

>  <BioMolTech Lead Finder SDF id>
0

>  <BioMolTech Lead Finder Pose rank>
0

>  <BioMolTech Lead Finder version>
2001 1, 19 January 2019

>  <PUBCHEM_COMPOUND_CID>
92727

>  <PUBCHEM_COMPOUND_CANONICALIZED>
1

>  <PUBCHEM_CACTVS_COMPLEXITY>
940

>  <PUBCHEM_CACTVS_HBOND_ACCEPTOR>
5

>  <PUBCHEM_CACTVS_HBOND_DONOR>
4

>  <PUBCHEM_CACTVS_ROTATABLE_BOND>
15

>  <PUBCHEM_CACTVS_SUBSKEYS>
AAADcfB/uAAAAAAAAAAAAAAAAAAAAAAAAAA8YMEAAAAAAAABUAAAHgAQCAAADTzhmAYzBoPABgCIAiFSEAICCAAgIAAIiIHMCIiOdjKE8T+XeCCu1hOYqAeQwPAOAAACAAAIAAAAAAQAABAAAAAAAAAAAA==

>  <PUBCHEM_IUPAC_OPENEYE_NAME>
(2S)-N-[(1S,3S,4S)-1-benzyl-4-[[2-(2,6-dimethylphenoxy)acetyl]amino]-3-hydroxy-5-phenyl-pentyl]-3-methyl-2-(2-oxohexahydropyrimidin-1-yl)butanamide

>  <PUBCHEM_IUPAC_CAS_NAME>
(2S)-N-[(2S,4S,5S)-5-[[2-(2,6-dimethylphenoxy)-1-oxoethyl]amino]-4-hydroxy-1,6-diphenylhexan-2-yl]-3-methyl-2-(2-oxo-1,3-diazinan-1-yl)butanamide

>  <PUBCHEM_IUPAC_NAME_MARKUP>
(2<I>S</I>)-<I>N</I>-[(2<I>S</I>,4<I>S</I>,5<I>S</I>)-5-[[2-(2,6-dimethylphenoxy)acetyl]amino]-4-hydroxy-1,6-diphenylhexan-2-yl]-3-methyl-2-(2-oxo-1,3-diazinan-1-yl)butanamide

>  <PUBCHEM_IUPAC_NAME>
(2S)-N-[(2S,4S,5S)-5-[[2-(2,6-dimethylphenoxy)acetyl]amino]-4-hydroxy-1,6-diphenylhexan-2-yl]-3-methyl-2-(2-oxo-1,3-diazinan-1-yl)butanamide

>  <PUBCHEM_IUPAC_SYSTEMATIC_NAME>
(2S)-N-[(2S,4S,5S)-5-[2-(2,6-dimethylphenoxy)ethanoylamino]-4-oxidanyl-1,6-diphenyl-hexan-2-yl]-3-methyl-2-(2-oxidanylidene-1,3-diazinan-1-yl)butanamide

>  <PUBCHEM_IUPAC_TRADITIONAL_NAME>
(2S)-N-[(1S,3S,4S)-1-benzyl-4-[[2-(2,6-dimethylphenoxy)acetyl]amino]-3-hydroxy-5-phenyl-pentyl]-2-(2-ketohexahydropyrimidin-1-yl)-3-methyl-butyramide

>  <PUBCHEM_IUPAC_INCHI>
InChI=1S/C37H48N4O5/c1-25(2)34(41-20-12-19-38-37(41)45)36(44)39-30(21-28-15-7-5-8-16-28)23-32(42)31(22-29-17-9-6-10-18-29)40-33(43)24-46-35-26(3)13-11-14-27(35)4/h5-11,13-18,25,30-32,34,42H,12,19-24H2

>  <PUBCHEM_IUPAC_INCHIKEY>
KJHKTHWMRKYKJE-SUGCFTRWSA-N

>  <PUBCHEM_XLOGP3_AA>
5.9

>  <PUBCHEM_EXACT_MASS>
628.362471

>  <PUBCHEM_MOLECULAR_FORMULA>
C37H48N4O5

>  <PUBCHEM_MOLECULAR_WEIGHT>
628.8

>  <PUBCHEM_OPENEYE_CAN_SMILES>
CC1=C(C(=CC=C1)C)OCC(=O)NC(CC2=CC=CC=C2)C(CC(CC3=CC=CC=C3)NC(=O)C(C(C)C)N4CCCNC4=O)O

>  <PUBCHEM_OPENEYE_ISO_SMILES>
CC1=C(C(=CC=C1)C)OCC(=O)N[C@@H](CC2=CC=CC=C2)[C@H](C[C@H](CC3=CC=CC=C3)NC(=O)[C@H](C(C)C)N4CCCNC4=O)O

>  <PUBCHEM_CACTVS_TPSA>
120

>  <PUBCHEM_MONOISOTOPIC_WEIGHT>
628.362471

>  <PUBCHEM_TOTAL_CHARGE>
0

>  <PUBCHEM_HEAVY_ATOM_COUNT>
46

>  <PUBCHEM_ATOM_DEF_STEREO_COUNT>
4

>  <PUBCHEM_ATOM_UDEF_STEREO_COUNT>
0

>  <PUBCHEM_BOND_DEF_STEREO_COUNT>
0

>  <PUBCHEM_BOND_UDEF_STEREO_COUNT>
0

>  <PUBCHEM_ISOTOPIC_ATOM_COUNT>
0

>  <PUBCHEM_COMPONENT_COUNT>
1

>  <PUBCHEM_CACTVS_TAUTO_COUNT>
-1

>  <PUBCHEM_COORDINATE_TYPE>
1
5
255

>  <PUBCHEM_BONDANNOTATIONS>
13  1  6
11  17  5
25  28  8
25  29  8
26  30  8
26  31  8
28  33  8
29  34  8
30  36  8
31  37  8
33  35  8
34  35  8
36  38  8
37  38  8
39  40  8
39  41  8
40  42  8
41  43  8
42  46  8
43  46  8
10  7  6
15  8  5

>  <LF dG>
-7.914

>  <LF VSscore>
-10.417

>  <LF Rank Score>
-10.944

>  <LF LE>
-0.172

>  <Preferred Pose_cresset>
true

>  <Favorite_cresset>
false

>  <Protein_cresset>
6Y2F_P | 6 A | With water

>  <MW_cresset>
628.8

>  <#Atoms_cresset>
46

>  <SlogP_cresset>
4.7

>  <TPSA_cresset>
120

>  <Flexibility_cresset>
16.1

>  <#RB_cresset>
16

>  <Rof5_cresset>
1

>  <Filename_cresset>
Lopinavir.sdf

>  <Confs_cresset>
0

>  <Poses_cresset>
10

>  <_cresset_fieldpoints>
    -5       8.976714       3.512407      22.822105    -10.9535
    -5      13.228071       3.734402      16.850925    -17.3358
    -5       8.620934      -2.479928      19.408194    -15.8294
    -5      13.464853      -6.233719      25.301437    -17.0966
    -5      10.497714       2.069407      25.691105     -3.2570
    -5       5.615715      -0.809593      25.368105     -3.2465
    -5      17.070715       6.800407      20.856104     -2.6760
    -6      15.044714       1.645407      22.028105     10.4455
    -6       6.143714      -3.031593      23.947105      3.6300
    -6      14.463715       1.040407      22.348104     10.1860
    -6       6.453714      -3.648593      26.871105      4.4350
    -6       8.576715      -3.074593      28.337105      4.5770
    -6      10.296715      -6.544593      28.387104      5.2775
    -6       7.346714       1.496407      14.621104      1.9325
    -6       8.213715       2.741407      19.267105      9.0005
    -6      15.123714       9.752407      17.366104      2.4900
    -6      12.227715      -1.350593      24.702105      7.2955
    -6      21.189714       4.488407      18.922104      2.8470
    -7       8.080714      -1.591593      19.741104     -3.7140
    -7       7.291715       2.764407      21.598104     -2.3165
    -7       9.300714       3.963407      19.499104     -2.2060
    -7       9.110714       3.809407      23.330105     -2.1810
    -7       7.985714      -4.689593      20.470104     -2.6695
    -7      11.442715      -4.548593      18.231104     -2.2190
    -7       9.151714      -3.981593      18.882105     -2.5790
    -7       7.291715      -2.977593      21.004105     -2.6190
    -7       9.984715      -8.061593      24.849104     -2.5220
    -7      11.427714      -2.715593      25.783104     -3.2180
    -7      12.492715      -7.658593      24.083105     -2.2505
    -7      13.408714       3.316407      16.406105     -2.7105
    -7      10.317715       4.266407      18.519104     -2.3275
    -7      13.648714       3.661407      22.653105     -2.1860
    -7      10.990714       2.066407      25.610104     -2.5460
    -7      12.096714      -0.860593      25.319103     -2.4970
    -7       7.138714      -6.208593      21.644104     -1.9835
    -7      12.949715      -2.213593      21.205105     -3.9625
    -7      11.046715      -6.836593      18.566105     -1.5180
    -7       6.073714      -2.407593      24.224104     -2.7770
    -7       6.733715       2.963407      28.809105     -0.9690
    -7      13.310715       1.461407      17.115105     -3.1600
    -7       7.379714       1.069407      13.989104     -0.9690
    -7       9.123714      -3.112593      13.883104     -0.9690
    -7      21.353714       7.260407      18.193104     -1.0015
    -7      17.168715       5.045407      14.978105     -1.9850
    -7      17.763714      10.252407      17.407104     -1.0050
    -7      11.176715       4.912407      20.166105     -2.3125
    -7      16.504715       6.030407      21.297104     -2.4740
    -8      11.111714       0.575407      21.217104      6.0960
    -8      10.107715      -0.330593      17.320105      7.1980
    -8      10.836715       0.765407      19.211105      5.8630
    -8      11.337714      -5.680593      21.760105      5.8570
    -8       8.226714      -4.759593      25.001104      4.9855
    -8      14.286715       3.544407      20.261105      2.8495
    -8      17.084715       5.869407      18.103104      7.0730
    -8       8.251715       0.250407      25.518105      7.2100
    -8      10.761715      -0.062593      18.560104      5.7590

$$$$
Site1_DAR_D
  xed2sdf_05210316543D
 
 82 86  0  0  1  0  0  0  0  0999 V2000
    7.4855   -5.1031   26.8747 O   0  0  0  0  0  0  0  0  0  0  0  0
    8.1155   -4.9331   25.8447 C   0  0  0  0  0  0  0  0  0  0  0  0
    9.1605   -5.9211   25.3797 C   0  0  0  0  0  0  0  0  0  0  0  0
   10.3255   -5.2121   24.6867 C   0  0  0  0  0  0  0  0  0  0  0  0
    9.7105   -4.4681   23.4977 C   0  0  0  0  0  0  0  0  0  0  0  0
   10.8025   -3.7941   22.7797 N   0  0  0  0  0  0  0  0  0  0  0  0
   11.0685   -3.9591   21.3397 C   0  0  0  0  0  0  0  0  0  0  0  0
   11.8025   -2.6151   21.1797 C   0  0  0  0  0  0  0  0  0  0  0  0
   12.6555   -2.3021   19.9727 C   0  0  0  0  0  0  0  0  0  0  0  0
   12.3695   -3.0751   18.8897 N   0  0  0  0  0  0  0  0  0  0  0  0
   12.6145   -2.5521   17.5417 C   0  0  0  0  0  0  0  0  0  0  0  0
   11.2505   -2.6921   16.8467 C   0  0  0  0  0  0  0  0  0  0  0  0
   10.4225   -1.4081   17.0187 C   0  0  0  0  0  0  0  0  0  0  0  0
    9.4135   -1.5501   18.1737 C   0  0  0  0  0  0  0  0  0  0  0  0
    8.9775   -0.1811   18.7317 C   0  0  0  0  0  0  0  0  0  0  0  0
    9.8775    0.9349   18.1737 C   0  0  0  0  0  0  0  0  0  0  0  0
   10.1285    1.9259   19.2317 N   0  0  0  0  0  0  0  0  0  0  0  0
   11.1615    2.7869   19.1297 C   0  0  0  0  0  0  0  0  0  0  0  0
   11.9885    2.7729   18.2207 O   0  0  0  0  0  0  0  0  0  0  0  0
   11.3445    3.8029   20.1927 C   0  0  0  0  0  0  0  0  0  0  0  0
   11.6655    5.0969   19.8417 C   0  0  0  0  0  0  0  0  0  0  0  0
   11.8635    6.0409   20.8157 C   0  0  0  0  0  0  0  0  0  0  0  0
   11.7595    5.7889   22.1357 N   0  0  0  0  0  0  0  0  0  0  0  0
   11.4315    4.5269   22.4617 C   0  0  0  0  0  0  0  0  0  0  0  0
   11.2135    3.5119   21.5457 C   0  0  0  0  0  0  0  0  0  0  0  0
   10.8285    2.2319   21.9687 N   0  0  0  0  0  0  0  0  0  0  0  0
   11.2005    1.6059   23.1037 C   0  0  0  0  0  0  0  0  0  0  0  0
   12.0645    2.0099   23.8667 O   0  0  0  0  0  0  0  0  0  0  0  0
   10.4095    0.3269   23.3147 C   0  0  0  0  0  0  0  0  0  0  0  0
    9.2295    0.3279   24.2777 C   0  0  0  0  0  0  0  0  0  0  0  0
    9.2255   -0.3361   25.4857 C   0  0  0  0  0  0  0  0  0  0  0  0
    8.1215   -0.2881   26.3047 C   0  0  0  0  0  0  0  0  0  0  0  0
    7.0125    0.4309   25.9247 C   0  0  0  0  0  0  0  0  0  0  0  0
    7.0125    1.1039   24.7237 C   0  0  0  0  0  0  0  0  0  0  0  0
    5.6165    2.0219   24.2417 Cl  0  0  0  0  0  0  0  0  0  0  0  0
    8.1185    1.0509   23.9047 C   0  0  0  0  0  0  0  0  0  0  0  0
   13.5875   -1.3391   20.0567 C   0  0  0  0  0  0  0  0  0  0  0  0
   13.7775   -0.6261   21.3207 C   0  0  0  0  0  0  0  0  0  0  0  0
   13.3485   -1.1791   22.4537 C   0  0  0  0  0  0  0  0  0  0  0  0
   12.6695   -2.5241   22.4377 C   0  0  0  0  0  0  0  0  0  0  0  0
   11.6255   -2.9551   23.4257 C   0  0  0  0  0  0  0  0  0  0  0  0
   11.5525   -2.6141   24.5977 O   0  0  0  0  0  0  0  0  0  0  0  0
    8.6065   -3.5171   23.9177 C   0  0  0  0  0  0  0  0  0  0  0  0
    8.3505   -2.5101   23.2797 O   0  0  0  0  0  0  0  0  0  0  0  0
    7.9365   -3.8611   25.0407 N   0  0  0  0  0  0  0  0  0  0  0  0
    8.7405   -6.5651   24.7397 H   0  0  0  0  0  0  0  0  0  0  0  0
    9.5175   -6.4041   26.1787 H   0  0  0  0  0  0  0  0  0  0  0  0
   11.0025   -5.8771   24.3717 H   0  0  0  0  0  0  0  0  0  0  0  0
   10.7985   -4.5871   25.3067 H   0  0  0  0  0  0  0  0  0  0  0  0
    9.2595   -5.1171   22.8857 H   0  0  0  0  0  0  0  0  0  0  0  0
   10.2345   -4.0181   20.7907 H   0  0  0  0  0  0  0  0  0  0  0  0
   11.5505   -4.7861   21.0487 H   0  0  0  0  0  0  0  0  0  0  0  0
   11.0755   -1.9431   21.0377 H   0  0  0  0  0  0  0  0  0  0  0  0
   11.8025   -3.7411   18.9857 H   0  0  0  0  0  0  0  0  0  0  0  0
   13.3145   -3.0891   17.0707 H   0  0  0  0  0  0  0  0  0  0  0  0
   12.9525   -1.6111   17.5457 H   0  0  0  0  0  0  0  0  0  0  0  0
   10.7535   -3.4621   17.2467 H   0  0  0  0  0  0  0  0  0  0  0  0
   11.4005   -2.8501   15.8707 H   0  0  0  0  0  0  0  0  0  0  0  0
    9.9285   -1.2211   16.1697 H   0  0  0  0  0  0  0  0  0  0  0  0
   11.0455   -0.6551   17.2337 H   0  0  0  0  0  0  0  0  0  0  0  0
    9.8345   -2.0821   18.9087 H   0  0  0  0  0  0  0  0  0  0  0  0
    8.6005   -2.0101   17.8167 H   0  0  0  0  0  0  0  0  0  0  0  0
    9.0445   -0.1931   19.7297 H   0  0  0  0  0  0  0  0  0  0  0  0
    8.0335   -0.0031   18.4567 H   0  0  0  0  0  0  0  0  0  0  0  0
    9.4235    1.3759   17.3987 H   0  0  0  0  0  0  0  0  0  0  0  0
   10.7455    0.5459   17.8657 H   0  0  0  0  0  0  0  0  0  0  0  0
    9.5935    1.9599   19.9307 H   0  0  0  0  0  0  0  0  0  0  0  0
   11.7535    5.3459   18.8777 H   0  0  0  0  0  0  0  0  0  0  0  0
   12.0985    6.9699   20.5297 H   0  0  0  0  0  0  0  0  0  0  0  0
   11.3385    4.3059   23.4327 H   0  0  0  0  0  0  0  0  0  0  0  0
   10.2705    1.7989   21.4417 H   0  0  0  0  0  0  0  0  0  0  0  0
   11.0535   -0.3651   23.6407 H   0  0  0  0  0  0  0  0  0  0  0  0
    9.9845    0.1629   22.4247 H   0  0  0  0  0  0  0  0  0  0  0  0
   10.0315   -0.8581   25.7677 H   0  0  0  0  0  0  0  0  0  0  0  0
    8.1255   -0.7761   27.1777 H   0  0  0  0  0  0  0  0  0  0  0  0
    6.2095    0.4649   26.5187 H   0  0  0  0  0  0  0  0  0  0  0  0
    8.1145    1.5409   23.0337 H   0  0  0  0  0  0  0  0  0  0  0  0
   14.1475   -1.1101   19.2597 H   0  0  0  0  0  0  0  0  0  0  0  0
   14.2265    0.2679   21.3327 H   0  0  0  0  0  0  0  0  0  0  0  0
   13.4775   -0.6981   23.3207 H   0  0  0  0  0  0  0  0  0  0  0  0
   13.4895   -3.0751   22.5917 H   0  0  0  0  0  0  0  0  0  0  0  0
    7.2995   -3.3051   25.2867 H   0  0  0  0  0  0  0  0  0  0  0  0
  1  2  2  0
  2  3  1  0
  2 45  1  0
  3  4  1  0
  4  5  1  0
  5  6  1  0
  5 43  1  0
  6  7  1  0
  6 41  1  0
  7  8  1  0
  8  9  1  0
  8 40  1  0
  9 10  1  0
  9 37  2  0
 10 11  1  0
 11 12  1  0
 12 13  1  0
 13 14  1  0
 14 15  1  0
 15 16  1  0
 16 17  1  0
 17 18  1  0
 18 19  2  0
 18 20  1  0
 20 21  2  0
 20 25  1  0
 21 22  1  0
 22 23  2  0
 23 24  1  0
 24 25  2  0
 25 26  1  0
 26 27  1  0
 27 28  2  0
 27 29  1  0
 29 30  1  0
 30 31  2  0
 30 36  1  0
 31 32  1  0
 32 33  2  0
 33 34  1  0
 34 35  1  0
 34 36  2  0
 37 38  1  0
 38 39  2  0
 39 40  1  0
 40 41  1  0
 41 42  2  0
 43 44  2  0
 43 45  1  0
  3 46  1  0
  3 47  1  0
  4 48  1  0
  4 49  1  0
  5 50  1  0
  7 51  1  0
  7 52  1  0
  8 53  1  0
 10 54  1  0
 11 55  1  0
 11 56  1  0
 12 57  1  0
 12 58  1  0
 13 59  1  0
 13 60  1  0
 14 61  1  0
 14 62  1  0
 15 63  1  0
 15 64  1  0
 16 65  1  0
 16 66  1  0
 17 67  1  0
 21 68  1  0
 22 69  1  0
 24 70  1  0
 26 71  1  0
 29 72  1  0
 29 73  1  0
 31 74  1  0
 32 75  1  0
 33 76  1  0
 36 77  1  0
 37 78  1  0
 38 79  1  0
 39 80  1  0
 40 81  1  0
 45 82  1  0
M  END
>  <BioMolTech Lead Finder dG>
-10.523

>  <BioMolTech Lead Finder VSscore>
-11.739

>  <BioMolTech Lead Finder Rank score>
-5.057

>  <BioMolTech Lead Finder LE>
-0.234

>  <BioMolTech Lead Finder Structure Name>
C:\Users\Odara\AppData\Local\Temp\LeadFinder_14900_1\Ligand_1.sdf

>  <BioMolTech Lead Finder SDF id>
0

>  <BioMolTech Lead Finder Pose rank>
0

>  <BioMolTech Lead Finder version>
2001 1, 19 January 2019

>  <LF dG>
-10.523

>  <LF VSscore>
-11.739

>  <LF Rank Score>
-5.057

>  <LF LE>
-0.234

>  <Preferred Pose_cresset>
true

>  <Favorite_cresset>
false

>  <Protein_cresset>
6Y2F_P | 6 A | No water

>  <MW_cresset>
633.1

>  <#Atoms_cresset>
45

>  <SlogP_cresset>
2.9

>  <TPSA_cresset>
149.6

>  <Flexibility_cresset>
10.4

>  <#RB_cresset>
13

>  <Rof5_cresset>
2

>  <Filename_cresset>
DAR-DIA-9e4459de-1.mol

>  <Confs_cresset>
0

>  <Poses_cresset>
10

>  <_cresset_fieldpoints>
    -5       7.305544      -6.231093      28.297663    -13.3560
    -5      12.616459      -1.545668      25.549503    -16.3500
    -5      12.657742       1.283119      25.409641    -16.2807
    -5      15.699544      -2.169094      21.399662     -4.9430
    -5      13.738544       3.448906      17.841661    -14.2455
    -5      12.262544       7.052907      23.483662    -11.5270
    -5       8.544544      -1.850094      21.659662    -10.3915
    -5       6.874544      -1.425094      23.020662    -12.1975
    -5      13.579544       2.975907      24.330662    -14.8995
    -5       3.901544       2.346906      26.210663     -1.5500
    -6       9.458544      -7.164093      22.460663      7.8270
    -6       5.584544      -2.526093      25.627663      5.7165
    -6      10.554543      -5.191093      18.901663     14.3410
    -6       7.423544      -6.099093      22.975662      7.7720
    -6       9.537544      -6.251093      21.001661      8.3540
    -6      15.359544      -1.502094      17.142662      1.7585
    -6       7.882544       0.308906      15.886662      3.5995
    -6       8.361538       1.425684      21.161898     15.9883
    -6      12.035543       7.672906      18.341661      2.7465
    -6       5.732544      -0.544094      28.391663      2.4410
    -7       6.931544      -7.481093      27.160662     -1.1385
    -7       6.530544      -5.575093      23.317661     -2.0455
    -7       9.970544      -3.025094      27.101662     -2.9535
    -7      10.744544      -7.206093      22.040663     -1.9025
    -7      13.204544      -5.689094      23.056662     -2.4285
    -7       8.470544      -1.988094      21.230661     -3.9410
    -7      14.191544      -4.711093      20.130661     -2.5410
    -7       9.165544      -4.765093      18.665663     -2.3610
    -7       8.326544      -3.588094      15.665662     -1.5540
    -7       7.653543       0.035906      15.711662     -1.8610
    -7      14.105544       2.303906      22.725662     -2.5385
    -7       8.278543       3.839907      18.807663     -2.2470
    -7      12.392544       7.725907      17.845661     -0.9180
    -7      13.271544       0.811906      18.017662     -3.2405
    -7       7.964544       3.196907      21.337662     -3.0155
    -7      10.254543       3.221906      25.445662     -2.7960
    -7       7.040544      -2.963094      27.855661     -1.9615
    -7      12.558544      -0.773094      25.663662     -2.8950
    -7       7.349544       1.777906      20.804663     -2.8235
    -7       6.126544      -1.835094      23.483662     -2.7630
    -8       9.465544      -5.204093      24.562662      5.5685
    -8       8.122543       0.385906      25.102661      7.1800
    -8      12.923544      -1.788094      21.293661      7.1270
    -8       9.787543      -0.541094      17.908661      6.3980
    -8      10.404544      -1.932094      17.468662      5.8240
    -8      11.487544       4.532907      20.813662      5.3650
    -8       6.832544       1.224906      24.657661      5.6105

$$$$
W_Site1_DAR_D
  xed2sdf_05210316543D
 
 82 86  0  0  1  0  0  0  0  0999 V2000
   11.9978   -9.9409   21.1147 O   0  0  0  0  0  0  0  0  0  0  0  0
   11.2388   -9.1229   21.6047 C   0  0  0  0  0  0  0  0  0  0  0  0
   10.5088   -8.1069   20.7547 C   0  0  0  0  0  0  0  0  0  0  0  0
   10.3548   -6.7759   21.4917 C   0  0  0  0  0  0  0  0  0  0  0  0
    9.5628   -7.0939   22.7627 C   0  0  0  0  0  0  0  0  0  0  0  0
    9.3608   -5.8319   23.4907 N   0  0  0  0  0  0  0  0  0  0  0  0
   10.2548   -4.6649   23.3847 C   0  0  0  0  0  0  0  0  0  0  0  0
    9.1908   -3.6369   23.8097 C   0  0  0  0  0  0  0  0  0  0  0  0
    9.5528   -2.2349   24.2407 C   0  0  0  0  0  0  0  0  0  0  0  0
   10.7798   -1.8339   23.8097 N   0  0  0  0  0  0  0  0  0  0  0  0
   11.5228   -0.8269   24.5747 C   0  0  0  0  0  0  0  0  0  0  0  0
   11.5968    0.3721   23.6167 C   0  0  0  0  0  0  0  0  0  0  0  0
   12.7148    0.1681   22.5817 C   0  0  0  0  0  0  0  0  0  0  0  0
   14.0928    0.0761   23.2647 C   0  0  0  0  0  0  0  0  0  0  0  0
   14.9458    1.3351   23.0157 C   0  0  0  0  0  0  0  0  0  0  0  0
   15.2668    1.4771   21.5187 C   0  0  0  0  0  0  0  0  0  0  0  0
   14.6128    2.6881   20.9987 N   0  0  0  0  0  0  0  0  0  0  0  0
   13.7378    2.6061   19.9757 C   0  0  0  0  0  0  0  0  0  0  0  0
   13.4768    1.5691   19.3687 O   0  0  0  0  0  0  0  0  0  0  0  0
   13.0628    3.8431   19.5197 C   0  0  0  0  0  0  0  0  0  0  0  0
   13.8188    4.9621   19.2417 C   0  0  0  0  0  0  0  0  0  0  0  0
   13.2058    6.1211   18.8437 C   0  0  0  0  0  0  0  0  0  0  0  0
   11.8718    6.2501   18.6947 N   0  0  0  0  0  0  0  0  0  0  0  0
   11.1488    5.1471   18.9547 C   0  0  0  0  0  0  0  0  0  0  0  0
   11.6858    3.9371   19.3597 C   0  0  0  0  0  0  0  0  0  0  0  0
   10.8638    2.8201   19.5667 N   0  0  0  0  0  0  0  0  0  0  0  0
   10.3958    2.3611   20.7447 C   0  0  0  0  0  0  0  0  0  0  0  0
   10.7548    2.7711   21.8397 O   0  0  0  0  0  0  0  0  0  0  0  0
    9.3658    1.2651   20.5437 C   0  0  0  0  0  0  0  0  0  0  0  0
    9.6948    0.0871   19.6377 C   0  0  0  0  0  0  0  0  0  0  0  0
   10.2208   -1.1049   20.0897 C   0  0  0  0  0  0  0  0  0  0  0  0
   10.4908   -2.1269   19.2097 C   0  0  0  0  0  0  0  0  0  0  0  0
   10.2318   -1.9679   17.8687 C   0  0  0  0  0  0  0  0  0  0  0  0
    9.6988   -0.7839   17.4107 C   0  0  0  0  0  0  0  0  0  0  0  0
    9.3618   -0.5799   15.7167 Cl  0  0  0  0  0  0  0  0  0  0  0  0
    9.4318    0.2381   18.2947 C   0  0  0  0  0  0  0  0  0  0  0  0
    8.6848   -1.5289   24.9837 C   0  0  0  0  0  0  0  0  0  0  0  0
    7.4148   -2.1369   25.3827 C   0  0  0  0  0  0  0  0  0  0  0  0
    7.2938   -3.4639   25.3737 C   0  0  0  0  0  0  0  0  0  0  0  0
    8.4508   -4.3329   24.9537 C   0  0  0  0  0  0  0  0  0  0  0  0
    8.3048   -5.6769   24.3027 C   0  0  0  0  0  0  0  0  0  0  0  0
    7.3998   -6.4789   24.4907 O   0  0  0  0  0  0  0  0  0  0  0  0
   10.2278   -8.1619   23.6077 C   0  0  0  0  0  0  0  0  0  0  0  0
   10.0838   -8.2049   24.8177 O   0  0  0  0  0  0  0  0  0  0  0  0
   10.9858   -9.0539   22.9307 N   0  0  0  0  0  0  0  0  0  0  0  0
    9.6028   -8.4619   20.5257 H   0  0  0  0  0  0  0  0  0  0  0  0
   11.0438   -7.9469   19.9247 H   0  0  0  0  0  0  0  0  0  0  0  0
    9.8598   -6.1169   20.9247 H   0  0  0  0  0  0  0  0  0  0  0  0
   11.2418   -6.3669   21.7037 H   0  0  0  0  0  0  0  0  0  0  0  0
    8.6748   -7.4849   22.5217 H   0  0  0  0  0  0  0  0  0  0  0  0
   10.5958   -4.5169   22.4557 H   0  0  0  0  0  0  0  0  0  0  0  0
   11.1088   -4.6879   23.9027 H   0  0  0  0  0  0  0  0  0  0  0  0
    8.6948   -3.4199   22.9687 H   0  0  0  0  0  0  0  0  0  0  0  0
   10.9918   -1.9599   22.9647 H   0  0  0  0  0  0  0  0  0  0  0  0
   12.4368   -1.1579   24.8087 H   0  0  0  0  0  0  0  0  0  0  0  0
   11.0868   -0.6009   25.4457 H   0  0  0  0  0  0  0  0  0  0  0  0
   11.7798    1.2031   24.1417 H   0  0  0  0  0  0  0  0  0  0  0  0
   10.7248    0.4551   23.1357 H   0  0  0  0  0  0  0  0  0  0  0  0
   12.7148    0.9371   21.9427 H   0  0  0  0  0  0  0  0  0  0  0  0
   12.5448   -0.6889   22.0957 H   0  0  0  0  0  0  0  0  0  0  0  0
   14.5788   -0.7219   22.9077 H   0  0  0  0  0  0  0  0  0  0  0  0
   13.9438   -0.0059   24.2497 H   0  0  0  0  0  0  0  0  0  0  0  0
   15.7988    1.2651   23.5337 H   0  0  0  0  0  0  0  0  0  0  0  0
   14.4328    2.1401   23.3147 H   0  0  0  0  0  0  0  0  0  0  0  0
   14.9328    0.6741   21.0257 H   0  0  0  0  0  0  0  0  0  0  0  0
   16.2558    1.5491   21.3917 H   0  0  0  0  0  0  0  0  0  0  0  0
   14.7898    3.4691   21.3647 H   0  0  0  0  0  0  0  0  0  0  0  0
   14.8138    4.9271   19.3297 H   0  0  0  0  0  0  0  0  0  0  0  0
   13.7808    6.9171   18.6527 H   0  0  0  0  0  0  0  0  0  0  0  0
   10.1568    5.2051   18.8477 H   0  0  0  0  0  0  0  0  0  0  0  0
   10.6128    2.3821   18.8437 H   0  0  0  0  0  0  0  0  0  0  0  0
    8.5448    1.7001   20.1737 H   0  0  0  0  0  0  0  0  0  0  0  0
    9.2848    0.8491   21.4497 H   0  0  0  0  0  0  0  0  0  0  0  0
   10.4068   -1.2269   21.0647 H   0  0  0  0  0  0  0  0  0  0  0  0
   10.8758   -2.9869   19.5457 H   0  0  0  0  0  0  0  0  0  0  0  0
   10.4298   -2.7099   17.2287 H   0  0  0  0  0  0  0  0  0  0  0  0
    9.0448    1.0961   17.9577 H   0  0  0  0  0  0  0  0  0  0  0  0
    8.9048   -0.5949   25.2627 H   0  0  0  0  0  0  0  0  0  0  0  0
    6.6458   -1.5619   25.6597 H   0  0  0  0  0  0  0  0  0  0  0  0
    6.4288   -3.8859   25.6477 H   0  0  0  0  0  0  0  0  0  0  0  0
    8.8368   -4.4709   25.8667 H   0  0  0  0  0  0  0  0  0  0  0  0
   11.3768   -9.6699   23.4227 H   0  0  0  0  0  0  0  0  0  0  0  0
  1  2  2  0
  2  3  1  0
  2 45  1  0
  3  4  1  0
  4  5  1  0
  5  6  1  0
  5 43  1  0
  6  7  1  0
  6 41  1  0
  7  8  1  0
  8  9  1  0
  8 40  1  0
  9 10  1  0
  9 37  2  0
 10 11  1  0
 11 12  1  0
 12 13  1  0
 13 14  1  0
 14 15  1  0
 15 16  1  0
 16 17  1  0
 17 18  1  0
 18 19  2  0
 18 20  1  0
 20 21  2  0
 20 25  1  0
 21 22  1  0
 22 23  2  0
 23 24  1  0
 24 25  2  0
 25 26  1  0
 26 27  1  0
 27 28  2  0
 27 29  1  0
 29 30  1  0
 30 31  2  0
 30 36  1  0
 31 32  1  0
 32 33  2  0
 33 34  1  0
 34 35  1  0
 34 36  2  0
 37 38  1  0
 38 39  2  0
 39 40  1  0
 40 41  1  0
 41 42  2  0
 43 44  2  0
 43 45  1  0
  3 46  1  0
  3 47  1  0
  4 48  1  0
  4 49  1  0
  5 50  1  0
  7 51  1  0
  7 52  1  0
  8 53  1  0
 10 54  1  0
 11 55  1  0
 11 56  1  0
 12 57  1  0
 12 58  1  0
 13 59  1  0
 13 60  1  0
 14 61  1  0
 14 62  1  0
 15 63  1  0
 15 64  1  0
 16 65  1  0
 16 66  1  0
 17 67  1  0
 21 68  1  0
 22 69  1  0
 24 70  1  0
 26 71  1  0
 29 72  1  0
 29 73  1  0
 31 74  1  0
 32 75  1  0
 33 76  1  0
 36 77  1  0
 37 78  1  0
 38 79  1  0
 39 80  1  0
 40 81  1  0
 45 82  1  0
M  END
>  <BioMolTech Lead Finder dG>
-9.333

>  <BioMolTech Lead Finder VSscore>
-11.191

>  <BioMolTech Lead Finder Rank score>
-4.41

>  <BioMolTech Lead Finder LE>
-0.207

>  <BioMolTech Lead Finder Structure Name>
C:\Users\Odara\AppData\Local\Temp\LeadFinder_2188_1\Ligand_1.sdf

>  <BioMolTech Lead Finder SDF id>
0

>  <BioMolTech Lead Finder Pose rank>
0

>  <BioMolTech Lead Finder version>
2001 1, 19 January 2019

>  <LF dG>
-9.333

>  <LF VSscore>
-11.191

>  <LF Rank Score>
-4.41

>  <LF LE>
-0.207

>  <Preferred Pose_cresset>
true

>  <Favorite_cresset>
false

>  <Protein_cresset>
6Y2F_P | 6 A | With water

>  <MW_cresset>
633.1

>  <#Atoms_cresset>
45

>  <SlogP_cresset>
2.9

>  <TPSA_cresset>
149.6

>  <Flexibility_cresset>
10.4

>  <#RB_cresset>
13

>  <Rof5_cresset>
2

>  <Filename_cresset>
DAR-DIA-9e4459de-1.mol

>  <Confs_cresset>
0

>  <Poses_cresset>
10

>  <_cresset_fieldpoints>
    -5      12.568789     -10.460900      19.496721     -7.3170
    -5       8.507788      -7.770900      25.786720    -13.9265
    -5       6.139788      -6.440900      25.669722    -13.9635
    -5       8.419788      -2.706900      27.701721     -5.5455
    -5      12.674788       0.586100      17.966721     -9.0705
    -5      11.049788       7.975101      18.270721     -5.6860
    -5      12.108788       3.688100      22.552721     -9.5385
    -6      12.006788      -3.060900      21.649721     13.8095
    -6      17.130789      -0.843900      22.393721      3.9915
    -6       8.710789       3.123100      18.078722      8.7095
    -6      15.966788       5.120100      21.474722      6.9665
    -6       7.461788      -0.628900      13.691721      1.7840
    -6      12.564788     -10.825900      24.469721      3.5140
    -7      11.121788      -5.376900      18.663721     -2.0735
    -7      11.125789     -10.742900      18.958721     -1.1360
    -7      12.874788      -6.950900      23.630722     -2.4160
    -7       7.483788      -5.012900      21.362720     -2.8465
    -7      10.830789      -6.337900      26.052721     -2.5720
    -7      11.258788      -3.409900      26.420721     -2.7005
    -7      13.444788       1.785100      26.046721     -2.0360
    -7      17.135788      -1.097900      22.269722     -1.4955
    -7      12.676788      -3.176900      21.667721     -3.3925
    -7      16.745789       4.101100      22.835722     -1.4760
    -7      16.620789       3.137100      19.112720     -2.0825
    -7       8.401789       1.343100      23.745722     -2.4775
    -7      15.803788       5.688100      21.779720     -1.3945
    -7      12.581788       3.667100      22.780722     -3.9740
    -7       8.329788       3.459100      18.244720     -2.6295
    -7      13.497788      -0.835900      19.592722     -3.4255
    -7       6.677788       0.732100      16.569721     -1.4140
    -7       7.671788      -1.098900      22.231722     -3.4750
    -7      12.330789       1.322100      17.222721     -3.2645
    -7       8.294788      -4.164900      20.619720     -3.0390
    -7       6.717788      -6.296900      26.853722     -1.5730
    -7       7.688788      -8.736900      25.027721     -1.8380
    -7       8.513788     -10.275900      22.350721     -2.0055
    -8      10.151789      -7.577900      21.692720      5.5880
    -8       8.431788      -2.958900      24.773722      7.0920
    -8      12.671788      -0.033900      23.564720      6.0620
    -8       9.961788      -0.937900      18.756721      7.2090
    -8      14.061789       0.686100      22.601721      5.9450
    -8      12.712789       4.698100      19.227722      5.3650

$$$$
Site1_Baicalein_D
  xed2sdf_05210316543D
 
 30 32  0  0  0  0  0  0  0  0999 V2000
    8.9927   -0.0523   20.5927 O   0  0  0  0  0  0  0  0  0  0  0  0
   12.5727   -2.0823   18.0387 O   0  0  0  0  0  0  0  0  0  0  0  0
   10.9997   -1.9983   15.8447 O   0  0  0  0  0  0  0  0  0  0  0  0
    8.4597   -0.9633   15.9977 O   0  0  0  0  0  0  0  0  0  0  0  0
   12.7557   -1.5213   20.6917 O   0  0  0  0  0  0  0  0  0  0  0  0
   10.8367   -1.0753   19.3807 C   0  0  0  0  0  0  0  0  0  0  0  0
    9.5437   -0.5473   19.4487 C   0  0  0  0  0  0  0  0  0  0  0  0
    9.7377   -0.0873   21.7447 C   0  0  0  0  0  0  0  0  0  0  0  0
   11.3207   -1.5623   18.1547 C   0  0  0  0  0  0  0  0  0  0  0  0
   11.6077   -1.0873   20.6117 C   0  0  0  0  0  0  0  0  0  0  0  0
   11.0087   -0.5803   21.7917 C   0  0  0  0  0  0  0  0  0  0  0  0
    9.0827    0.4397   22.9697 C   0  0  0  0  0  0  0  0  0  0  0  0
    8.7647   -0.5173   18.3057 C   0  0  0  0  0  0  0  0  0  0  0  0
   10.5257   -1.5213   17.0357 C   0  0  0  0  0  0  0  0  0  0  0  0
    9.2417   -0.9983   17.1087 C   0  0  0  0  0  0  0  0  0  0  0  0
    8.9997    1.7957   23.2598 C   0  0  0  0  0  0  0  0  0  0  0  0
    8.5267   -0.4583   23.8687 C   0  0  0  0  0  0  0  0  0  0  0  0
    8.3857    2.2317   24.4087 C   0  0  0  0  0  0  0  0  0  0  0  0
    7.9137   -0.0213   25.0177 C   0  0  0  0  0  0  0  0  0  0  0  0
    7.8427    1.3257   25.2907 C   0  0  0  0  0  0  0  0  0  0  0  0
   13.2637   -1.3753   17.8737 H   0  0  0  0  0  0  0  0  0  0  0  0
   10.4297   -2.7513   15.4987 H   0  0  0  0  0  0  0  0  0  0  0  0
    8.8377   -1.5383   15.2638 H   0  0  0  0  0  0  0  0  0  0  0  0
   11.5147   -0.5823   22.6547 H   0  0  0  0  0  0  0  0  0  0  0  0
    7.8407   -0.1403   18.3507 H   0  0  0  0  0  0  0  0  0  0  0  0
    9.3917    2.4607   22.6248 H   0  0  0  0  0  0  0  0  0  0  0  0
    8.5737   -1.4393   23.6777 H   0  0  0  0  0  0  0  0  0  0  0  0
    8.3337    3.2107   24.6047 H   0  0  0  0  0  0  0  0  0  0  0  0
    7.5187   -0.6823   25.6558 H   0  0  0  0  0  0  0  0  0  0  0  0
    7.3977    1.6447   26.1267 H   0  0  0  0  0  0  0  0  0  0  0  0
  1  7  1  0
  1  8  1  0
  2  9  1  0
  3 14  1  0
  4 15  1  0
  5 10  2  0
  6  7  2  0
  6  9  1  0
  6 10  1  0
  7 13  1  0
  8 11  2  0
  8 12  1  0
  9 14  2  0
 10 11  1  0
 12 16  2  0
 12 17  1  0
 13 15  2  0
 14 15  1  0
 16 18  1  0
 17 19  2  0
 18 20  2  0
 19 20  1  0
  2 21  1  0
  3 22  1  0
  4 23  1  0
 11 24  1  0
 13 25  1  0
 16 26  1  0
 17 27  1  0
 18 28  1  0
 19 29  1  0
 20 30  1  0
M  END
>  <BioMolTech Lead Finder dG>
-6.34

>  <BioMolTech Lead Finder VSscore>
-7.885

>  <BioMolTech Lead Finder Rank score>
-10.384

>  <BioMolTech Lead Finder LE>
-0.317

>  <BioMolTech Lead Finder Structure Name>
C:\Users\Odara\AppData\Local\Temp\LeadFinder_11788_1\Ligand_1.sdf

>  <BioMolTech Lead Finder SDF id>
0

>  <BioMolTech Lead Finder Pose rank>
0

>  <BioMolTech Lead Finder version>
2001 1, 19 January 2019

>  <PUBCHEM_COMPOUND_CID>
5281605

>  <PUBCHEM_COMPOUND_CANONICALIZED>
1

>  <PUBCHEM_CACTVS_COMPLEXITY>
413

>  <PUBCHEM_CACTVS_HBOND_ACCEPTOR>
5

>  <PUBCHEM_CACTVS_HBOND_DONOR>
3

>  <PUBCHEM_CACTVS_ROTATABLE_BOND>
1

>  <PUBCHEM_CACTVS_SUBSKEYS>
AAADccBwOAAAAAAAAAAAAAAAAAAAAAAAAAAwYIAAAAAAAACBQAAAGgAACAAADASAmAAwBoAABgCIAqBSAAACCAAkIAAIiAEGiMgNJzaGNRqCeWGl4BUJuQfK7LzOIQABCAAIQABCAAIQABCAAAAAAAAAAA==

>  <PUBCHEM_IUPAC_OPENEYE_NAME>
5,6,7-trihydroxy-2-phenyl-chromen-4-one

>  <PUBCHEM_IUPAC_CAS_NAME>
5,6,7-trihydroxy-2-phenyl-1-benzopyran-4-one

>  <PUBCHEM_IUPAC_NAME_MARKUP>
5,6,7-trihydroxy-2-phenylchromen-4-one

>  <PUBCHEM_IUPAC_NAME>
5,6,7-trihydroxy-2-phenylchromen-4-one

>  <PUBCHEM_IUPAC_SYSTEMATIC_NAME>
5,6,7-tris(oxidanyl)-2-phenyl-chromen-4-one

>  <PUBCHEM_IUPAC_TRADITIONAL_NAME>
5,6,7-trihydroxy-2-phenyl-chromone

>  <PUBCHEM_IUPAC_INCHI>
InChI=1S/C15H10O5/c16-9-6-11(8-4-2-1-3-5-8)20-12-7-10(17)14(18)15(19)13(9)12/h1-7,17-19H

>  <PUBCHEM_IUPAC_INCHIKEY>
FXNFHKRTJBSTCS-UHFFFAOYSA-N

>  <PUBCHEM_XLOGP3>
1.7

>  <PUBCHEM_EXACT_MASS>
270.052823

>  <PUBCHEM_MOLECULAR_FORMULA>
C15H10O5

>  <PUBCHEM_MOLECULAR_WEIGHT>
270.24

>  <PUBCHEM_OPENEYE_CAN_SMILES>
C1=CC=C(C=C1)C2=CC(=O)C3=C(O2)C=C(C(=C3O)O)O

>  <PUBCHEM_OPENEYE_ISO_SMILES>
C1=CC=C(C=C1)C2=CC(=O)C3=C(O2)C=C(C(=C3O)O)O

>  <PUBCHEM_CACTVS_TPSA>
87

>  <PUBCHEM_MONOISOTOPIC_WEIGHT>
270.052823

>  <PUBCHEM_TOTAL_CHARGE>
0

>  <PUBCHEM_HEAVY_ATOM_COUNT>
20

>  <PUBCHEM_ATOM_DEF_STEREO_COUNT>
0

>  <PUBCHEM_ATOM_UDEF_STEREO_COUNT>
0

>  <PUBCHEM_BOND_DEF_STEREO_COUNT>
0

>  <PUBCHEM_BOND_UDEF_STEREO_COUNT>
0

>  <PUBCHEM_ISOTOPIC_ATOM_COUNT>
0

>  <PUBCHEM_COMPONENT_COUNT>
1

>  <PUBCHEM_CACTVS_TAUTO_COUNT>
-1

>  <PUBCHEM_COORDINATE_TYPE>
1
5
255

>  <PUBCHEM_BONDANNOTATIONS>
1  7  8
1  8  8
10  11  8
12  16  8
12  17  8
13  15  8
14  15  8
16  18  8
17  19  8
18  20  8
19  20  8
6  10  8
6  7  8
6  9  8
7  13  8
8  11  8
9  14  8

>  <LF dG>
-6.34

>  <LF VSscore>
-7.885

>  <LF Rank Score>
-10.384

>  <LF LE>
-0.317

>  <Preferred Pose_cresset>
true

>  <Favorite_cresset>
false

>  <Protein_cresset>
6Y2F_P | 6 A | No water

>  <MW_cresset>
270.2

>  <#Atoms_cresset>
20

>  <SlogP_cresset>
2.3

>  <TPSA_cresset>
87

>  <Flexibility_cresset>
1.7

>  <#RB_cresset>
4

>  <Rof5_cresset>
0

>  <Filename_cresset>
Baicalein.sdf

>  <Confs_cresset>
0

>  <Poses_cresset>
10

>  <_cresset_fieldpoints>
    -5       7.414733       0.578736      15.555750     -6.3305
    -5       7.036734       0.494736      20.914749     -3.6970
    -5      13.324287      -2.960969      19.565157    -20.5219
    -5      14.136116      -2.017304      21.886238    -15.7318
    -5       5.998734       0.988736      22.561749     -2.8835
    -5      10.880733       0.862736      25.842751     -2.2385
    -6       5.962733       0.630736      18.863750      1.4930
    -6      10.607734       2.590736      20.874750      3.1585
    -6      14.220734       0.128736      17.176750      6.0885
    -6       9.026392      -3.255568      14.443066     15.9887
    -6       8.864734      -2.903264      22.221750      2.9670
    -6       7.748734      -3.097264      25.010750      2.9565
    -6       9.435733       4.711736      22.860750      2.9785
    -6       6.446733       0.019736      27.674749      2.7625
    -6       7.291733       4.038736      26.589748      2.7675
    -7      11.072733       2.243736      20.491749     -2.5815
    -7      13.412733      -2.691264      15.769750     -1.4455
    -7      13.874733       0.410736      19.288750     -1.7650
    -7       8.957733      -3.918264      19.289749     -1.8215
    -7      10.402733      -0.894264      13.751749     -1.4125
    -7       6.034733      -0.619264      16.198750     -1.1390
    -7      11.294733       1.932736      17.841749     -1.8155
    -7       8.336733      -3.808264      15.646749     -1.3735
    -7      12.964733      -3.878264      19.805750     -1.6440
    -7      11.586733       0.465736      25.143749     -2.0550
    -7       9.252733       5.144736      22.855749     -0.9865
    -7       9.146733      -3.037264      21.665749     -2.6265
    -7       6.606733       0.467736      20.868750     -2.4505
    -7       7.182734       4.274736      26.842751     -0.9675
    -7       8.235733      -3.391264      25.497749     -0.9945
    -7       6.288733      -0.011264      28.000750     -0.9670
    -8      10.029734      -1.027264      18.274750      6.5995
    -8       8.464733       0.883736      24.134750      7.1510
    -8      10.599733      -0.704264      20.575750      5.0085

$$$$
W_Site1_Baicalein_D
  xed2sdf_05210316543D
 
 30 32  0  0  0  0  0  0  0  0999 V2000
    9.0324   -0.6650   21.0922 O   0  0  0  0  0  0  0  0  0  0  0  0
   11.6644    2.8930   19.1252 O   0  0  0  0  0  0  0  0  0  0  0  0
   10.4894    2.3900   16.7452 O   0  0  0  0  0  0  0  0  0  0  0  0
    8.6134    0.3970   16.5182 O   0  0  0  0  0  0  0  0  0  0  0  0
   11.8264    2.1800   21.7422 O   0  0  0  0  0  0  0  0  0  0  0  0
   10.3904    1.1340   20.1802 C   0  0  0  0  0  0  0  0  0  0  0  0
    9.4324    0.1220   20.0552 C   0  0  0  0  0  0  0  0  0  0  0  0
    9.6094   -0.4710   22.3212 C   0  0  0  0  0  0  0  0  0  0  0  0
   10.7394    1.8970   19.0522 C   0  0  0  0  0  0  0  0  0  0  0  0
   10.9754    1.3270   21.4952 C   0  0  0  0  0  0  0  0  0  0  0  0
   10.5534    0.4860   22.5552 C   0  0  0  0  0  0  0  0  0  0  0  0
    9.1584   -1.3730   23.4132 C   0  0  0  0  0  0  0  0  0  0  0  0
    8.8494   -0.1070   18.8222 C   0  0  0  0  0  0  0  0  0  0  0  0
   10.1454    1.6470   17.8402 C   0  0  0  0  0  0  0  0  0  0  0  0
    9.1964    0.6410   17.7212 C   0  0  0  0  0  0  0  0  0  0  0  0
    8.2764   -0.9720   24.4082 C   0  0  0  0  0  0  0  0  0  0  0  0
    9.6354   -2.6740   23.4432 C   0  0  0  0  0  0  0  0  0  0  0  0
    7.8914   -1.8440   25.3972 C   0  0  0  0  0  0  0  0  0  0  0  0
    9.2514   -3.5450   24.4332 C   0  0  0  0  0  0  0  0  0  0  0  0
    8.3784   -3.1320   25.4142 C   0  0  0  0  0  0  0  0  0  0  0  0
   12.5864    2.5420   19.3052 H   0  0  0  0  0  0  0  0  0  0  0  0
    9.8314    2.2650   15.9952 H   0  0  0  0  0  0  0  0  0  0  0  0
    8.4804    1.2460   15.9952 H   0  0  0  0  0  0  0  0  0  0  0  0
   10.9444    0.5940   23.4692 H   0  0  0  0  0  0  0  0  0  0  0  0
    8.1634   -0.8290   18.7292 H   0  0  0  0  0  0  0  0  0  0  0  0
    7.9164   -0.0390   24.4042 H   0  0  0  0  0  0  0  0  0  0  0  0
   10.2694   -2.9830   22.7342 H   0  0  0  0  0  0  0  0  0  0  0  0
    7.2564   -1.5420   26.1082 H   0  0  0  0  0  0  0  0  0  0  0  0
    9.6064   -4.4800   24.4422 H   0  0  0  0  0  0  0  0  0  0  0  0
    8.0984   -3.7650   26.1352 H   0  0  0  0  0  0  0  0  0  0  0  0
  1  7  1  0
  1  8  1  0
  2  9  1  0
  3 14  1  0
  4 15  1  0
  5 10  2  0
  6  7  2  0
  6  9  1  0
  6 10  1  0
  7 13  1  0
  8 11  2  0
  8 12  1  0
  9 14  2  0
 10 11  1  0
 12 16  2  0
 12 17  1  0
 13 15  2  0
 14 15  1  0
 16 18  1  0
 17 19  2  0
 18 20  2  0
 19 20  1  0
  2 21  1  0
  3 22  1  0
  4 23  1  0
 11 24  1  0
 13 25  1  0
 16 26  1  0
 17 27  1  0
 18 28  1  0
 19 29  1  0
 20 30  1  0
M  END
>  <BioMolTech Lead Finder dG>
-7.561

>  <BioMolTech Lead Finder VSscore>
-8.904

>  <BioMolTech Lead Finder Rank score>
-11.19

>  <BioMolTech Lead Finder LE>
-0.378

>  <BioMolTech Lead Finder Structure Name>
C:\Users\Odara\AppData\Local\Temp\LeadFinder_4572_1\Ligand_1.sdf

>  <BioMolTech Lead Finder SDF id>
0

>  <BioMolTech Lead Finder Pose rank>
0

>  <BioMolTech Lead Finder version>
2001 1, 19 January 2019

>  <PUBCHEM_COMPOUND_CID>
5281605

>  <PUBCHEM_COMPOUND_CANONICALIZED>
1

>  <PUBCHEM_CACTVS_COMPLEXITY>
413

>  <PUBCHEM_CACTVS_HBOND_ACCEPTOR>
5

>  <PUBCHEM_CACTVS_HBOND_DONOR>
3

>  <PUBCHEM_CACTVS_ROTATABLE_BOND>
1

>  <PUBCHEM_CACTVS_SUBSKEYS>
AAADccBwOAAAAAAAAAAAAAAAAAAAAAAAAAAwYIAAAAAAAACBQAAAGgAACAAADASAmAAwBoAABgCIAqBSAAACCAAkIAAIiAEGiMgNJzaGNRqCeWGl4BUJuQfK7LzOIQABCAAIQABCAAIQABCAAAAAAAAAAA==

>  <PUBCHEM_IUPAC_OPENEYE_NAME>
5,6,7-trihydroxy-2-phenyl-chromen-4-one

>  <PUBCHEM_IUPAC_CAS_NAME>
5,6,7-trihydroxy-2-phenyl-1-benzopyran-4-one

>  <PUBCHEM_IUPAC_NAME_MARKUP>
5,6,7-trihydroxy-2-phenylchromen-4-one

>  <PUBCHEM_IUPAC_NAME>
5,6,7-trihydroxy-2-phenylchromen-4-one

>  <PUBCHEM_IUPAC_SYSTEMATIC_NAME>
5,6,7-tris(oxidanyl)-2-phenyl-chromen-4-one

>  <PUBCHEM_IUPAC_TRADITIONAL_NAME>
5,6,7-trihydroxy-2-phenyl-chromone

>  <PUBCHEM_IUPAC_INCHI>
InChI=1S/C15H10O5/c16-9-6-11(8-4-2-1-3-5-8)20-12-7-10(17)14(18)15(19)13(9)12/h1-7,17-19H

>  <PUBCHEM_IUPAC_INCHIKEY>
FXNFHKRTJBSTCS-UHFFFAOYSA-N

>  <PUBCHEM_XLOGP3>
1.7

>  <PUBCHEM_EXACT_MASS>
270.052823

>  <PUBCHEM_MOLECULAR_FORMULA>
C15H10O5

>  <PUBCHEM_MOLECULAR_WEIGHT>
270.24

>  <PUBCHEM_OPENEYE_CAN_SMILES>
C1=CC=C(C=C1)C2=CC(=O)C3=C(O2)C=C(C(=C3O)O)O

>  <PUBCHEM_OPENEYE_ISO_SMILES>
C1=CC=C(C=C1)C2=CC(=O)C3=C(O2)C=C(C(=C3O)O)O

>  <PUBCHEM_CACTVS_TPSA>
87

>  <PUBCHEM_MONOISOTOPIC_WEIGHT>
270.052823

>  <PUBCHEM_TOTAL_CHARGE>
0

>  <PUBCHEM_HEAVY_ATOM_COUNT>
20

>  <PUBCHEM_ATOM_DEF_STEREO_COUNT>
0

>  <PUBCHEM_ATOM_UDEF_STEREO_COUNT>
0

>  <PUBCHEM_BOND_DEF_STEREO_COUNT>
0

>  <PUBCHEM_BOND_UDEF_STEREO_COUNT>
0

>  <PUBCHEM_ISOTOPIC_ATOM_COUNT>
0

>  <PUBCHEM_COMPONENT_COUNT>
1

>  <PUBCHEM_CACTVS_TAUTO_COUNT>
-1

>  <PUBCHEM_COORDINATE_TYPE>
1
5
255

>  <PUBCHEM_BONDANNOTATIONS>
1  7  8
1  8  8
10  11  8
12  16  8
12  17  8
13  15  8
14  15  8
16  18  8
17  19  8
18  20  8
19  20  8
6  10  8
6  7  8
6  9  8
7  13  8
8  11  8
9  14  8

>  <LF dG>
-7.561

>  <LF VSscore>
-8.904

>  <LF Rank Score>
-11.19

>  <LF LE>
-0.378

>  <Preferred Pose_cresset>
true

>  <Favorite_cresset>
false

>  <Protein_cresset>
6Y2F_P | 6 A | With water

>  <MW_cresset>
270.2

>  <#Atoms_cresset>
20

>  <SlogP_cresset>
2.3

>  <TPSA_cresset>
87

>  <Flexibility_cresset>
1.7

>  <#RB_cresset>
4

>  <Rof5_cresset>
0

>  <Filename_cresset>
Baicalein.sdf

>  <Confs_cresset>
0

>  <Poses_cresset>
10

>  <_cresset_fieldpoints>
    -5       6.578362      -3.050993      22.657154     -2.8360
    -5       7.384361      -1.900993      21.174154     -3.5865
    -5       8.624361      -1.379993      15.806154     -5.9560
    -5      12.704361       3.010007      23.204153    -15.2875
    -5      11.674873       3.843087      20.805670    -18.7594
    -5      11.514361       3.948007      17.535154    -12.4595
    -5      10.959362      -1.618993      26.303154     -2.2185
    -6      11.556361      -2.321993      21.169153      3.3600
    -6       7.698361       1.699007      23.291153      2.9315
    -6      14.125361       1.510007      18.825153      5.4505
    -6       8.436243       2.586424      14.806595     16.6271
    -6       6.662362      -2.261993      18.892155      1.6955
    -6      11.245361      -4.992993      22.522154      3.0080
    -6       8.989362      -6.041994      26.139154      2.7765
    -6       6.560362      -3.014993      27.865154      2.7770
    -6       6.489362       0.855007      25.927155      2.9865
    -7      11.963362      -1.827993      21.050154     -2.6240
    -7      11.279362       4.512006      20.976154     -1.6655
    -7      12.756361       3.610007      17.010155     -1.3865
    -7      13.720362       0.793007      20.431154     -1.7710
    -7      10.267362       0.516007      14.575153     -1.4555
    -7       7.841362       3.482007      16.337154     -1.3750
    -7       7.507361       2.966007      19.952154     -1.8075
    -7      12.203362      -1.271993      18.609154     -1.8285
    -7       6.154362       0.829007      16.543154     -1.1945
    -7       7.804361       1.874007      22.433153     -2.5770
    -7      10.996362      -5.511993      22.245153     -0.9950
    -7       6.384361      -3.116993      28.164154     -0.9675
    -7       7.092361      -2.169993      21.023153     -2.4480
    -7      11.464361      -0.817993      25.718155     -2.0520
    -7       8.968362      -6.350994      26.324154     -0.9670
    -8       8.767362      -2.252993      24.421154      7.1510
    -8       9.785361       0.871007      18.977154      6.6000
    -8      10.232362       0.565007      21.306154      5.0090

$$$$
Site1_Baicalin_D
  xed2sdf_05210316543D
 
 49 52  0  0  1  0  0  0  0  0999 V2000
    9.9666    0.3281   19.8902 O   0  0  0  0  0  0  0  0  0  0  0  0
   10.8546    0.7871   22.1632 O   0  0  0  0  0  0  0  0  0  0  0  0
   11.8966    3.8141   18.4422 O   0  0  0  0  0  0  0  0  0  0  0  0
   11.7156    3.3081   21.2822 O   0  0  0  0  0  0  0  0  0  0  0  0
    9.9126    2.4561   16.8262 O   0  0  0  0  0  0  0  0  0  0  0  0
    9.7706   -0.3669   16.6492 O   0  5  0  0  0  0  0  0  0  0  0  0
    7.8686   -0.6699   17.8732 O   0  0  0  0  0  0  0  0  0  0  0  0
    9.0316   -3.1059   24.0222 O   0  0  0  0  0  0  0  0  0  0  0  0
    9.0076    2.3831   23.5262 O   0  0  0  0  0  0  0  0  0  0  0  0
    7.1806    1.1851   25.1502 O   0  0  0  0  0  0  0  0  0  0  0  0
    6.2516   -1.0259   26.1032 O   0  0  0  0  0  0  0  0  0  0  0  0
   10.8976    2.9531   19.0102 C   0  0  0  0  0  0  0  0  0  0  0  0
   11.4306    2.3011   20.3002 C   0  0  0  0  0  0  0  0  0  0  0  0
   10.4876    1.8641   18.0012 C   0  0  0  0  0  0  0  0  0  0  0  0
   10.4146    1.2901   20.8782 C   0  0  0  0  0  0  0  0  0  0  0  0
    9.4766    0.8991   18.6512 C   0  0  0  0  0  0  0  0  0  0  0  0
    9.0046   -0.1249   17.6462 C   0  0  0  0  0  0  0  0  0  0  0  0
    9.9326    0.2431   22.9592 C   0  0  0  0  0  0  0  0  0  0  0  0
    9.8976   -1.1279   23.0932 C   0  0  0  0  0  0  0  0  0  0  0  0
    9.0076    1.0221   23.6562 C   0  0  0  0  0  0  0  0  0  0  0  0
    8.9836   -1.7509   23.9222 C   0  0  0  0  0  0  0  0  0  0  0  0
    8.0636   -0.9679   24.6192 C   0  0  0  0  0  0  0  0  0  0  0  0
    8.0826    0.4241   24.4752 C   0  0  0  0  0  0  0  0  0  0  0  0
    7.1146   -1.6439   25.4792 C   0  0  0  0  0  0  0  0  0  0  0  0
    8.1606   -3.7259   24.8832 C   0  0  0  0  0  0  0  0  0  0  0  0
    7.2096   -3.0539   25.5972 C   0  0  0  0  0  0  0  0  0  0  0  0
    8.3086   -5.1989   25.0042 C   0  0  0  0  0  0  0  0  0  0  0  0
    7.4146   -5.8849   25.8122 C   0  0  0  0  0  0  0  0  0  0  0  0
    9.2936   -5.9249   24.3472 C   0  0  0  0  0  0  0  0  0  0  0  0
    7.4966   -7.2479   25.9612 C   0  0  0  0  0  0  0  0  0  0  0  0
    9.3746   -7.2889   24.4972 C   0  0  0  0  0  0  0  0  0  0  0  0
    8.4776   -7.9529   25.3032 C   0  0  0  0  0  0  0  0  0  0  0  0
   10.0926    3.5041   19.2322 H   0  0  0  0  0  0  0  0  0  0  0  0
   12.2716    1.8101   20.0712 H   0  0  0  0  0  0  0  0  0  0  0  0
   11.3056    1.3531   17.7332 H   0  0  0  0  0  0  0  0  0  0  0  0
    9.5576    1.7571   21.0982 H   0  0  0  0  0  0  0  0  0  0  0  0
    8.6716    1.4251   18.9252 H   0  0  0  0  0  0  0  0  0  0  0  0
   12.8246    3.4711   18.6292 H   0  0  0  0  0  0  0  0  0  0  0  0
   11.0316    3.3031   22.0202 H   0  0  0  0  0  0  0  0  0  0  0  0
   10.4106    2.1841   15.9962 H   0  0  0  0  0  0  0  0  0  0  0  0
    8.2576    2.6941   22.9352 H   0  0  0  0  0  0  0  0  0  0  0  0
    6.7466    1.8621   24.5472 H   0  0  0  0  0  0  0  0  0  0  0  0
   10.5486   -1.6859   22.5792 H   0  0  0  0  0  0  0  0  0  0  0  0
    6.5846   -3.5519   26.1982 H   0  0  0  0  0  0  0  0  0  0  0  0
    6.6996   -5.3789   26.2952 H   0  0  0  0  0  0  0  0  0  0  0  0
    9.9496   -5.4509   23.7602 H   0  0  0  0  0  0  0  0  0  0  0  0
    6.8436   -7.7269   26.5472 H   0  0  0  0  0  0  0  0  0  0  0  0
   10.0886   -7.7999   24.0192 H   0  0  0  0  0  0  0  0  0  0  0  0
    8.5386   -8.9449   25.4092 H   0  0  0  0  0  0  0  0  0  0  0  0
  1 15  1  0
  1 16  1  0
  2 18  1  0
  6 17  1  0
  7 17  2  0
  8 21  1  0
  8 25  1  0
  9 20  1  0
 10 23  1  0
 11 24  2  0
 12  3  1  0
 12 13  1  0
 12 14  1  0
 13  4  1  0
 13 15  1  0
 14  5  1  0
 14 16  1  0
 15  2  1  0
 16 17  1  0
 18 19  2  0
 18 20  1  0
 19 21  1  0
 20 23  2  0
 21 22  2  0
 22 23  1  0
 22 24  1  0
 24 26  1  0
 25 26  2  0
 25 27  1  0
 27 28  2  0
 27 29  1  0
 28 30  1  0
 29 31  2  0
 30 32  2  0
 31 32  1  0
  3 38  1  0
  4 39  1  0
  5 40  1  0
  9 41  1  0
 10 42  1  0
 12 33  1  0
 13 34  1  0
 14 35  1  0
 15 36  1  0
 16 37  1  0
 19 43  1  0
 26 44  1  0
 28 45  1  0
 29 46  1  0
 30 47  1  0
 31 48  1  0
 32 49  1  0
M  CHG  1   6  -1
M  END
>  <BioMolTech Lead Finder dG>
-7.578

>  <BioMolTech Lead Finder VSscore>
-11.024

>  <BioMolTech Lead Finder Rank score>
-12.103

>  <BioMolTech Lead Finder LE>
-0.237

>  <BioMolTech Lead Finder Structure Name>
C:\Users\Odara\AppData\Local\Temp\LeadFinder_15196_1\Ligand_1.sdf

>  <BioMolTech Lead Finder SDF id>
0

>  <BioMolTech Lead Finder Pose rank>
0

>  <BioMolTech Lead Finder version>
2001 1, 19 January 2019

>  <PUBCHEM_COMPOUND_CID>
64982

>  <PUBCHEM_COMPOUND_CANONICALIZED>
1

>  <PUBCHEM_CACTVS_COMPLEXITY>
748

>  <PUBCHEM_CACTVS_HBOND_ACCEPTOR>
11

>  <PUBCHEM_CACTVS_HBOND_DONOR>
6

>  <PUBCHEM_CACTVS_ROTATABLE_BOND>
4

>  <PUBCHEM_CACTVS_SUBSKEYS>
AAADceB4PAAAAAAAAAAAAAAAAAAAAAAAAAA0YIEAAAAAAACBQAAAGgAACAAADBSwmAMwDoAABgCIAqDSCAICCAAkIAAIiAFGiMgdNzaGNR6ieWOl4BUPuQfK7LzOIQABCAAIQABCAAIQABCAAAAAAAAAAA==

>  <PUBCHEM_IUPAC_OPENEYE_NAME>
(2S,3S,4S,5R,6S)-6-(5,6-dihydroxy-4-oxo-2-phenyl-chromen-7-yl)oxy-3,4,5-trihydroxy-tetrahydropyran-2-carboxylic acid

>  <PUBCHEM_IUPAC_CAS_NAME>
(2S,3S,4S,5R,6S)-6-[(5,6-dihydroxy-4-oxo-2-phenyl-1-benzopyran-7-yl)oxy]-3,4,5-trihydroxy-2-oxanecarboxylic acid

>  <PUBCHEM_IUPAC_NAME_MARKUP>
(2<I>S</I>,3<I>S</I>,4<I>S</I>,5<I>R</I>,6<I>S</I>)-6-(5,6-dihydroxy-4-oxo-2-phenylchromen-7-yl)oxy-3,4,5-trihydroxyoxane-2-carboxylic acid

>  <PUBCHEM_IUPAC_NAME>
(2S,3S,4S,5R,6S)-6-(5,6-dihydroxy-4-oxo-2-phenylchromen-7-yl)oxy-3,4,5-trihydroxyoxane-2-carboxylic acid

>  <PUBCHEM_IUPAC_SYSTEMATIC_NAME>
(2S,3S,4S,5R,6S)-6-[5,6-bis(oxidanyl)-4-oxidanylidene-2-phenyl-chromen-7-yl]oxy-3,4,5-tris(oxidanyl)oxane-2-carboxylic acid

>  <PUBCHEM_IUPAC_TRADITIONAL_NAME>
(2S,3S,4S,5R,6S)-6-(5,6-dihydroxy-4-keto-2-phenyl-chromen-7-yl)oxy-3,4,5-trihydroxy-tetrahydropyran-2-carboxylic acid

>  <PUBCHEM_IUPAC_INCHI>
InChI=1S/C21H18O11/c22-9-6-10(8-4-2-1-3-5-8)30-11-7-12(14(23)15(24)13(9)11)31-21-18(27)16(25)17(26)19(32-21)20(28)29/h1-7,16-19,21,23-27H,(H,28,29)/t16-,17-,18+,19-,21+/m0/s1

>  <PUBCHEM_IUPAC_INCHIKEY>
IKIIZLYTISPENI-ZFORQUDYSA-N

>  <PUBCHEM_XLOGP3_AA>
1.1

>  <PUBCHEM_EXACT_MASS>
446.084911

>  <PUBCHEM_MOLECULAR_FORMULA>
C21H18O11

>  <PUBCHEM_MOLECULAR_WEIGHT>
446.4

>  <PUBCHEM_OPENEYE_CAN_SMILES>
C1=CC=C(C=C1)C2=CC(=O)C3=C(C(=C(C=C3O2)OC4C(C(C(C(O4)C(=O)O)O)O)O)O)O

>  <PUBCHEM_OPENEYE_ISO_SMILES>
C1=CC=C(C=C1)C2=CC(=O)C3=C(C(=C(C=C3O2)O[C@H]4[C@@H]([C@H]([C@@H]([C@H](O4)C(=O)O)O)O)O)O)O

>  <PUBCHEM_CACTVS_TPSA>
183

>  <PUBCHEM_MONOISOTOPIC_WEIGHT>
446.084911

>  <PUBCHEM_TOTAL_CHARGE>
0

>  <PUBCHEM_HEAVY_ATOM_COUNT>
32

>  <PUBCHEM_ATOM_DEF_STEREO_COUNT>
5

>  <PUBCHEM_ATOM_UDEF_STEREO_COUNT>
0

>  <PUBCHEM_BOND_DEF_STEREO_COUNT>
0

>  <PUBCHEM_BOND_UDEF_STEREO_COUNT>
0

>  <PUBCHEM_ISOTOPIC_ATOM_COUNT>
0

>  <PUBCHEM_COMPONENT_COUNT>
1

>  <PUBCHEM_CACTVS_TAUTO_COUNT>
-1

>  <PUBCHEM_COORDINATE_TYPE>
1
5
255

>  <PUBCHEM_BONDANNOTATIONS>
16  17  5
18  19  8
18  20  8
19  21  8
15  2  5
20  23  8
21  22  8
22  23  8
22  24  8
24  26  8
25  26  8
27  28  8
27  29  8
28  30  8
29  31  8
12  3  5
30  32  8
31  32  8
13  4  6
14  5  6
8  21  8
8  25  8

>  <LF dG>
-7.578

>  <LF VSscore>
-11.024

>  <LF Rank Score>
-12.103

>  <LF LE>
-0.237

>  <Preferred Pose_cresset>
true

>  <Favorite_cresset>
false

>  <Protein_cresset>
6Y2F_P | 6 A | No water

>  <MW_cresset>
445.4

>  <#Atoms_cresset>
32

>  <SlogP_cresset>
1.1

>  <TPSA_cresset>
186

>  <Flexibility_cresset>
7.6

>  <#RB_cresset>
9

>  <Rof5_cresset>
1

>  <Filename_cresset>
Baicalin.sdf

>  <Confs_cresset>
0

>  <Poses_cresset>
10

>  <_cresset_fieldpoints>
    -5       7.659634      -1.855939      16.436199    -11.0250
    -5       9.313633      -1.457939      20.110201     -6.7400
    -5      12.119634       4.931062      20.350201    -13.0150
    -5      10.851633       4.457062      16.973200    -15.0580
    -5       8.716634      -1.692939      15.757200    -10.7285
    -5       8.144633      -3.924939      21.921200     -2.0845
    -5       9.636633       3.143061      25.166201     -6.3445
    -5       6.668633      -7.004939      22.825201     -2.7615
    -5       6.289278       0.746563      26.786381    -22.3618
    -5      10.226633      -6.313939      27.421200     -2.6955
    -6      13.698633       1.801061      18.294201      9.7275
    -6      11.251634      -4.094939      22.629200      2.9395
    -6       7.883634       2.980061      21.157200     14.8480
    -6       9.207633       3.758061      21.658199     14.9955
    -6       6.448945       2.734943      22.869022     17.0449
    -6      12.183634       1.685061      15.471200      7.5290
    -6      11.686633      -6.572939      22.632200      2.7305
    -6       5.167633      -4.920938      27.440201      3.5635
    -6       6.906633     -10.074939      26.869200      2.6950
    -6      10.239634     -10.214938      24.291201      2.6625
    -7      11.374634      -1.566939      19.996201     -2.4955
    -7       7.493633      -0.410939      20.770201     -3.0960
    -7      12.343634       2.518061      23.635201     -2.1430
    -7      13.884634       1.529061      18.013201     -1.6335
    -7       9.044633       4.257061      21.593201     -2.5175
    -7      12.880633       5.228062      20.268200     -1.5270
    -7       7.824634       3.639061      17.612200     -1.6735
    -7      11.584633       0.317061      15.313200     -1.4565
    -7       7.559633       2.356061      16.427200     -1.6010
    -7       7.814633       3.389061      20.696199     -2.3410
    -7       7.766634      -1.290939      15.277201     -0.8470
    -7      12.473633       3.479061      16.107201     -1.5820
    -7       8.274633       1.544061      15.344200     -1.6035
    -7       6.386633      -6.736938      22.604200     -1.7840
    -7       6.346633      -3.370939      22.633200     -2.3885
    -7       7.759634      -3.980939      21.893200     -2.3455
    -7       7.810634       3.809061      25.102200     -1.5410
    -7       4.810633       0.373061      24.535200     -1.7740
    -7       7.421633       0.579061      27.695200     -1.6480
    -7      10.001634      -2.789939      26.949200     -2.4345
    -7      10.958633      -0.349939      26.358200     -1.8530
    -7      10.344633      -5.923939      27.669201     -1.7880
    -7      10.410633     -10.505939      24.166201     -0.9675
    -7       6.840633     -10.427938      26.959200     -0.9670
    -8      10.509633       1.991061      19.330200      5.1225
    -8       8.988633      -0.394939      23.789200      6.6085
    -8       8.390634      -6.579939      25.156200      7.1520
    -8       7.879633      -2.182939      24.936199      5.0250
    -8       7.539633      -4.541939      25.528200      5.5740

$$$$
W_Site1_Baicalin_D
  xed2sdf_05210316543D
 
 49 52  0  0  1  0  0  0  0  0999 V2000
    9.4067    0.9860   20.6867 O   0  0  0  0  0  0  0  0  0  0  0  0
    9.9537    1.8830   22.9357 O   0  0  0  0  0  0  0  0  0  0  0  0
   13.5407    0.4930   19.8877 O   0  0  0  0  0  0  0  0  0  0  0  0
   12.6607    1.9840   22.2017 O   0  0  0  0  0  0  0  0  0  0  0  0
   11.5987    0.2900   17.7477 O   0  0  0  0  0  0  0  0  0  0  0  0
    8.2447    0.8360   17.4997 O   0  5  0  0  0  0  0  0  0  0  0  0
    8.6467   -1.0860   18.6637 O   0  0  0  0  0  0  0  0  0  0  0  0
    9.9957   -2.6180   24.2317 O   0  0  0  0  0  0  0  0  0  0  0  0
    7.4437    2.2660   24.1057 O   0  0  0  0  0  0  0  0  0  0  0  0
    6.2387    0.1660   25.3497 O   0  0  0  0  0  0  0  0  0  0  0  0
    6.3667   -2.3290   25.9997 O   0  0  0  0  0  0  0  0  0  0  0  0
   12.2367    1.0890   19.9707 C   0  0  0  0  0  0  0  0  0  0  0  0
   11.7757    1.1500   21.4407 C   0  0  0  0  0  0  0  0  0  0  0  0
   11.2237    0.2850   19.1347 C   0  0  0  0  0  0  0  0  0  0  0  0
   10.3317    1.6920   21.5507 C   0  0  0  0  0  0  0  0  0  0  0  0
    9.8137    0.8860   19.2977 C   0  0  0  0  0  0  0  0  0  0  0  0
    8.8257    0.1590   18.4177 C   0  0  0  0  0  0  0  0  0  0  0  0
    9.3197    0.8800   23.5447 C   0  0  0  0  0  0  0  0  0  0  0  0
    9.9197   -0.3600   23.5797 C   0  0  0  0  0  0  0  0  0  0  0  0
    8.0707    1.0520   24.1427 C   0  0  0  0  0  0  0  0  0  0  0  0
    9.3267   -1.4330   24.2167 C   0  0  0  0  0  0  0  0  0  0  0  0
    8.0797   -1.2560   24.8157 C   0  0  0  0  0  0  0  0  0  0  0  0
    7.4567   -0.0040   24.7697 C   0  0  0  0  0  0  0  0  0  0  0  0
    7.4777   -2.3960   25.4747 C   0  0  0  0  0  0  0  0  0  0  0  0
    9.4347   -3.6730   24.9067 C   0  0  0  0  0  0  0  0  0  0  0  0
    8.2117   -3.6090   25.5107 C   0  0  0  0  0  0  0  0  0  0  0  0
   10.2457   -4.9170   24.9497 C   0  0  0  0  0  0  0  0  0  0  0  0
    9.7527   -5.9970   25.6657 C   0  0  0  0  0  0  0  0  0  0  0  0
   11.4687   -5.0560   24.3077 C   0  0  0  0  0  0  0  0  0  0  0  0
   10.4527   -7.1770   25.7397 C   0  0  0  0  0  0  0  0  0  0  0  0
   12.1687   -6.2360   24.3817 C   0  0  0  0  0  0  0  0  0  0  0  0
   11.6637   -7.2980   25.0967 C   0  0  0  0  0  0  0  0  0  0  0  0
   12.2877    2.0190   19.6057 H   0  0  0  0  0  0  0  0  0  0  0  0
   11.7937    0.2200   21.8057 H   0  0  0  0  0  0  0  0  0  0  0  0
   11.2187   -0.6600   19.4607 H   0  0  0  0  0  0  0  0  0  0  0  0
   10.2857    2.6160   21.1727 H   0  0  0  0  0  0  0  0  0  0  0  0
    9.8367    1.8340   18.9817 H   0  0  0  0  0  0  0  0  0  0  0  0
   13.5127   -0.4840   20.1237 H   0  0  0  0  0  0  0  0  0  0  0  0
   12.3627    2.9450   22.1837 H   0  0  0  0  0  0  0  0  0  0  0  0
   12.5847    0.1330   17.6347 H   0  0  0  0  0  0  0  0  0  0  0  0
    6.9517    2.3980   23.2407 H   0  0  0  0  0  0  0  0  0  0  0  0
    5.5047   -0.2260   24.7847 H   0  0  0  0  0  0  0  0  0  0  0  0
   10.8057   -0.4860   23.1337 H   0  0  0  0  0  0  0  0  0  0  0  0
    7.8367   -4.4110   25.9757 H   0  0  0  0  0  0  0  0  0  0  0  0
    8.8747   -5.9160   26.1367 H   0  0  0  0  0  0  0  0  0  0  0  0
   11.8437   -4.2890   23.7857 H   0  0  0  0  0  0  0  0  0  0  0  0
   10.0827   -7.9460   26.2597 H   0  0  0  0  0  0  0  0  0  0  0  0
   13.0487   -6.3230   23.9147 H   0  0  0  0  0  0  0  0  0  0  0  0
   12.1747   -8.1560   25.1487 H   0  0  0  0  0  0  0  0  0  0  0  0
  1 15  1  0
  1 16  1  0
  2 18  1  0
  6 17  1  0
  7 17  2  0
  8 21  1  0
  8 25  1  0
  9 20  1  0
 10 23  1  0
 11 24  2  0
 12  3  1  0
 12 13  1  0
 12 14  1  0
 13  4  1  0
 13 15  1  0
 14  5  1  0
 14 16  1  0
 15  2  1  0
 16 17  1  0
 18 19  2  0
 18 20  1  0
 19 21  1  0
 20 23  2  0
 21 22  2  0
 22 23  1  0
 22 24  1  0
 24 26  1  0
 25 26  2  0
 25 27  1  0
 27 28  2  0
 27 29  1  0
 28 30  1  0
 29 31  2  0
 30 32  2  0
 31 32  1  0
  3 38  1  0
  4 39  1  0
  5 40  1  0
  9 41  1  0
 10 42  1  0
 12 33  1  0
 13 34  1  0
 14 35  1  0
 15 36  1  0
 16 37  1  0
 19 43  1  0
 26 44  1  0
 28 45  1  0
 29 46  1  0
 30 47  1  0
 31 48  1  0
 32 49  1  0
M  CHG  1   6  -1
M  END
>  <BioMolTech Lead Finder dG>
-7.913

>  <BioMolTech Lead Finder VSscore>
-12.28

>  <BioMolTech Lead Finder Rank score>
-11.472

>  <BioMolTech Lead Finder LE>
-0.247

>  <BioMolTech Lead Finder Structure Name>
C:\Users\Odara\AppData\Local\Temp\LeadFinder_3576_1\Ligand_1.sdf

>  <BioMolTech Lead Finder SDF id>
0

>  <BioMolTech Lead Finder Pose rank>
0

>  <BioMolTech Lead Finder version>
2001 1, 19 January 2019

>  <PUBCHEM_COMPOUND_CID>
64982

>  <PUBCHEM_COMPOUND_CANONICALIZED>
1

>  <PUBCHEM_CACTVS_COMPLEXITY>
748

>  <PUBCHEM_CACTVS_HBOND_ACCEPTOR>
11

>  <PUBCHEM_CACTVS_HBOND_DONOR>
6

>  <PUBCHEM_CACTVS_ROTATABLE_BOND>
4

>  <PUBCHEM_CACTVS_SUBSKEYS>
AAADceB4PAAAAAAAAAAAAAAAAAAAAAAAAAA0YIEAAAAAAACBQAAAGgAACAAADBSwmAMwDoAABgCIAqDSCAICCAAkIAAIiAFGiMgdNzaGNR6ieWOl4BUPuQfK7LzOIQABCAAIQABCAAIQABCAAAAAAAAAAA==

>  <PUBCHEM_IUPAC_OPENEYE_NAME>
(2S,3S,4S,5R,6S)-6-(5,6-dihydroxy-4-oxo-2-phenyl-chromen-7-yl)oxy-3,4,5-trihydroxy-tetrahydropyran-2-carboxylic acid

>  <PUBCHEM_IUPAC_CAS_NAME>
(2S,3S,4S,5R,6S)-6-[(5,6-dihydroxy-4-oxo-2-phenyl-1-benzopyran-7-yl)oxy]-3,4,5-trihydroxy-2-oxanecarboxylic acid

>  <PUBCHEM_IUPAC_NAME_MARKUP>
(2<I>S</I>,3<I>S</I>,4<I>S</I>,5<I>R</I>,6<I>S</I>)-6-(5,6-dihydroxy-4-oxo-2-phenylchromen-7-yl)oxy-3,4,5-trihydroxyoxane-2-carboxylic acid

>  <PUBCHEM_IUPAC_NAME>
(2S,3S,4S,5R,6S)-6-(5,6-dihydroxy-4-oxo-2-phenylchromen-7-yl)oxy-3,4,5-trihydroxyoxane-2-carboxylic acid

>  <PUBCHEM_IUPAC_SYSTEMATIC_NAME>
(2S,3S,4S,5R,6S)-6-[5,6-bis(oxidanyl)-4-oxidanylidene-2-phenyl-chromen-7-yl]oxy-3,4,5-tris(oxidanyl)oxane-2-carboxylic acid

>  <PUBCHEM_IUPAC_TRADITIONAL_NAME>
(2S,3S,4S,5R,6S)-6-(5,6-dihydroxy-4-keto-2-phenyl-chromen-7-yl)oxy-3,4,5-trihydroxy-tetrahydropyran-2-carboxylic acid

>  <PUBCHEM_IUPAC_INCHI>
InChI=1S/C21H18O11/c22-9-6-10(8-4-2-1-3-5-8)30-11-7-12(14(23)15(24)13(9)11)31-21-18(27)16(25)17(26)19(32-21)20(28)29/h1-7,16-19,21,23-27H,(H,28,29)/t16-,17-,18+,19-,21+/m0/s1

>  <PUBCHEM_IUPAC_INCHIKEY>
IKIIZLYTISPENI-ZFORQUDYSA-N

>  <PUBCHEM_XLOGP3_AA>
1.1

>  <PUBCHEM_EXACT_MASS>
446.084911

>  <PUBCHEM_MOLECULAR_FORMULA>
C21H18O11

>  <PUBCHEM_MOLECULAR_WEIGHT>
446.4

>  <PUBCHEM_OPENEYE_CAN_SMILES>
C1=CC=C(C=C1)C2=CC(=O)C3=C(C(=C(C=C3O2)OC4C(C(C(C(O4)C(=O)O)O)O)O)O)O

>  <PUBCHEM_OPENEYE_ISO_SMILES>
C1=CC=C(C=C1)C2=CC(=O)C3=C(C(=C(C=C3O2)O[C@H]4[C@@H]([C@H]([C@@H]([C@H](O4)C(=O)O)O)O)O)O)O

>  <PUBCHEM_CACTVS_TPSA>
183

>  <PUBCHEM_MONOISOTOPIC_WEIGHT>
446.084911

>  <PUBCHEM_TOTAL_CHARGE>
0

>  <PUBCHEM_HEAVY_ATOM_COUNT>
32

>  <PUBCHEM_ATOM_DEF_STEREO_COUNT>
5

>  <PUBCHEM_ATOM_UDEF_STEREO_COUNT>
0

>  <PUBCHEM_BOND_DEF_STEREO_COUNT>
0

>  <PUBCHEM_BOND_UDEF_STEREO_COUNT>
0

>  <PUBCHEM_ISOTOPIC_ATOM_COUNT>
0

>  <PUBCHEM_COMPONENT_COUNT>
1

>  <PUBCHEM_CACTVS_TAUTO_COUNT>
-1

>  <PUBCHEM_COORDINATE_TYPE>
1
5
255

>  <PUBCHEM_BONDANNOTATIONS>
16  17  5
18  19  8
18  20  8
19  21  8
15  2  5
20  23  8
21  22  8
22  23  8
22  24  8
24  26  8
25  26  8
27  28  8
27  29  8
28  30  8
29  31  8
12  3  5
30  32  8
31  32  8
13  4  6
14  5  6
8  21  8
8  25  8

>  <LF dG>
-7.913

>  <LF VSscore>
-12.28

>  <LF Rank Score>
-11.472

>  <LF LE>
-0.247

>  <Preferred Pose_cresset>
true

>  <Favorite_cresset>
false

>  <Protein_cresset>
6Y2F_P | 6 A | With water

>  <MW_cresset>
445.4

>  <#Atoms_cresset>
32

>  <SlogP_cresset>
1.1

>  <TPSA_cresset>
186

>  <Flexibility_cresset>
7.6

>  <#RB_cresset>
9

>  <Rof5_cresset>
1

>  <Filename_cresset>
Baicalin.sdf

>  <Confs_cresset>
0

>  <Poses_cresset>
10

>  <_cresset_fieldpoints>
    -5       7.392687      -1.535958      17.320728    -11.6240
    -5       6.210687       1.942042      26.062727    -12.1525
    -5      14.330941       1.493727      21.405279    -15.4586
    -5       7.177687      -0.465958      16.666727    -11.6660
    -5      10.423687       0.527042      16.254726    -12.5300
    -5       8.854687      -1.599958      20.495728     -7.9695
    -5      11.604687      -2.194958      26.305727     -1.6275
    -5       5.870160      -0.762830      26.982342    -20.2833
    -5       5.186715      -3.136604      27.248421    -15.4650
    -5       9.666687      -7.156958      22.605728     -2.5700
    -5      12.403687      -5.211957      27.409727     -2.6315
    -6      11.717687       4.174042      20.865728     11.2735
    -6       7.179687      -6.347958      27.038727      3.7080
    -6      13.332686      -1.421958      18.464727     12.0020
    -6       5.018687       0.563042      23.109728      7.4065
    -6       5.476686       1.560042      22.352728      7.9665
    -6      14.391686      -8.192957      23.880728      2.7860
    -6      12.466686      -1.826958      20.993727     12.6410
    -6      11.249687     -10.021957      26.419727      2.7430
    -7       7.835687      -0.949958      21.088728     -3.3050
    -7       8.285686       4.076042      22.469728     -1.9925
    -7      12.275686       2.017042      24.561728     -2.2495
    -7      14.554687       1.236042      17.785728     -1.3130
    -7      14.663687       0.084042      22.106728     -1.5470
    -7      13.526687      -1.821958      18.324728     -1.4785
    -7       9.260687      -1.870958      20.860727     -3.2240
    -7      10.949687       4.186042      19.232727     -1.8215
    -7      14.440687       3.177042      21.065727     -1.4550
    -7      10.375687       1.718042      16.212727     -1.7270
    -7      10.483686      -1.811958      16.872726     -1.5510
    -7      11.540687       2.635042      16.973728     -1.7450
    -7      11.395687      -2.421957      21.574728     -3.0355
    -7       6.313686      -0.556958      27.801727     -1.6650
    -7       5.101686      -2.260958      23.643728     -1.7795
    -7       4.890687       2.106042      24.433727     -1.5440
    -7      10.167686       0.391042      26.999727     -1.8650
    -7      11.963687       4.453043      20.455727     -1.7440
    -7       9.291687      -6.965958      22.368727     -1.7875
    -7      12.333687      -4.828958      27.672728     -1.7860
    -7      10.364687      -2.279958      27.301727     -2.4405
    -7      11.318686     -10.368958      26.508728     -0.9670
    -7       8.120687      -3.849958      22.318727     -2.4175
    -7      14.579687      -8.584957      23.917728     -0.9675
    -8      11.181686       1.066042      20.214727      5.1525
    -8       8.458687      -2.447958      25.019728      5.0280
    -8       8.709686      -0.223958      24.180727      6.6045
    -8      10.952686      -6.112957      25.024727      7.1525
    -8       9.226686      -4.743958      25.428728      5.5750

$$$$
Site1_Wogonin_D
  xed2sdf_05210316543D
 
 33 35  0  0  0  0  0  0  0  0999 V2000
   10.5843   -2.4072   18.6627 O   0  0  0  0  0  0  0  0  0  0  0  0
    8.4923   -1.1632   17.2667 O   0  0  0  0  0  0  0  0  0  0  0  0
   12.5813    1.9528   19.2107 O   0  0  0  0  0  0  0  0  0  0  0  0
    8.4923    1.4908   16.9247 O   0  0  0  0  0  0  0  0  0  0  0  0
   13.6443   -0.2652   20.1967 O   0  0  0  0  0  0  0  0  0  0  0  0
   11.6233   -0.2422   18.9727 C   0  0  0  0  0  0  0  0  0  0  0  0
   10.5953   -1.0552   18.4787 C   0  0  0  0  0  0  0  0  0  0  0  0
   11.5983   -2.9892   19.3827 C   0  0  0  0  0  0  0  0  0  0  0  0
    9.5373   -0.4682   17.7787 C   0  0  0  0  0  0  0  0  0  0  0  0
   12.6963   -0.8822   19.7127 C   0  0  0  0  0  0  0  0  0  0  0  0
   11.5903    1.1418   18.7557 C   0  0  0  0  0  0  0  0  0  0  0  0
   12.6423   -2.2852   19.9017 C   0  0  0  0  0  0  0  0  0  0  0  0
   11.5163   -4.4592   19.5727 C   0  0  0  0  0  0  0  0  0  0  0  0
    9.5203    0.9018   17.5937 C   0  0  0  0  0  0  0  0  0  0  0  0
   10.5413    1.6988   18.0777 C   0  0  0  0  0  0  0  0  0  0  0  0
   12.0763   -5.3592   18.6767 C   0  0  0  0  0  0  0  0  0  0  0  0
   10.8633   -4.9582   20.6897 C   0  0  0  0  0  0  0  0  0  0  0  0
   11.9823   -6.7132   18.8937 C   0  0  0  0  0  0  0  0  0  0  0  0
   10.7683   -6.3112   20.9037 C   0  0  0  0  0  0  0  0  0  0  0  0
   11.3273   -7.1912   20.0057 C   0  0  0  0  0  0  0  0  0  0  0  0
    8.6123   -1.8312   15.9957 C   0  0  0  0  0  0  0  0  0  0  0  0
   13.4683    1.7268   18.7997 H   0  0  0  0  0  0  0  0  0  0  0  0
    8.7573    1.7728   15.9967 H   0  0  0  0  0  0  0  0  0  0  0  0
   13.3643   -2.7532   20.4107 H   0  0  0  0  0  0  0  0  0  0  0  0
   10.5133    2.6878   17.9317 H   0  0  0  0  0  0  0  0  0  0  0  0
   12.5533   -5.0192   17.8667 H   0  0  0  0  0  0  0  0  0  0  0  0
   10.4563   -4.3242   21.3477 H   0  0  0  0  0  0  0  0  0  0  0  0
   12.3893   -7.3512   18.2407 H   0  0  0  0  0  0  0  0  0  0  0  0
   10.2933   -6.6572   21.7127 H   0  0  0  0  0  0  0  0  0  0  0  0
   11.2593   -8.1772   20.1617 H   0  0  0  0  0  0  0  0  0  0  0  0
    9.5313   -1.6782   15.6327 H   0  0  0  0  0  0  0  0  0  0  0  0
    8.4563   -2.8122   16.1127 H   0  0  0  0  0  0  0  0  0  0  0  0
    7.9333   -1.4672   15.3577 H   0  0  0  0  0  0  0  0  0  0  0  0
  1  7  1  0
  1  8  1  0
  2  9  1  0
  2 21  1  0
  3 11  1  0
  4 14  1  0
  5 10  2  0
  6  7  2  0
  6 10  1  0
  6 11  1  0
  7  9  1  0
  8 12  2  0
  8 13  1  0
  9 14  2  0
 10 12  1  0
 11 15  2  0
 13 16  2  0
 13 17  1  0
 14 15  1  0
 16 18  1  0
 17 19  2  0
 18 20  2  0
 19 20  1  0
  3 22  1  0
  4 23  1  0
 12 24  1  0
 15 25  1  0
 16 26  1  0
 17 27  1  0
 18 28  1  0
 19 29  1  0
 20 30  1  0
 21 31  1  0
 21 32  1  0
 21 33  1  0
M  END
>  <BioMolTech Lead Finder dG>
-6.085

>  <BioMolTech Lead Finder VSscore>
-7.247

>  <BioMolTech Lead Finder Rank score>
-9.887

>  <BioMolTech Lead Finder LE>
-0.29

>  <BioMolTech Lead Finder Structure Name>
C:\Users\Odara\AppData\Local\Temp\LeadFinder_8388_1\Ligand_1.sdf

>  <BioMolTech Lead Finder SDF id>
0

>  <BioMolTech Lead Finder Pose rank>
0

>  <BioMolTech Lead Finder version>
2001 1, 19 January 2019

>  <PUBCHEM_COMPOUND_CID>
5281703

>  <PUBCHEM_COMPOUND_CANONICALIZED>
1

>  <PUBCHEM_CACTVS_COMPLEXITY>
426

>  <PUBCHEM_CACTVS_HBOND_ACCEPTOR>
5

>  <PUBCHEM_CACTVS_HBOND_DONOR>
2

>  <PUBCHEM_CACTVS_ROTATABLE_BOND>
2

>  <PUBCHEM_CACTVS_SUBSKEYS>
AAADccB4OAAAAAAAAAAAAAAAAAAAAAAAAAAwYIAAAAAAAACBQAAAGgAACAAADASAmAIyBoAABgCIAqBSAAACCAAkIAAIiAEGiMgNJzaGNRqCeWOl4BULuQfK7LzOIQABCAAIQABCAAIQABCAAAAAAAAAAA==

>  <PUBCHEM_IUPAC_OPENEYE_NAME>
5,7-dihydroxy-8-methoxy-2-phenyl-chromen-4-one

>  <PUBCHEM_IUPAC_CAS_NAME>
5,7-dihydroxy-8-methoxy-2-phenyl-1-benzopyran-4-one

>  <PUBCHEM_IUPAC_NAME_MARKUP>
5,7-dihydroxy-8-methoxy-2-phenylchromen-4-one

>  <PUBCHEM_IUPAC_NAME>
5,7-dihydroxy-8-methoxy-2-phenylchromen-4-one

>  <PUBCHEM_IUPAC_SYSTEMATIC_NAME>
8-methoxy-5,7-bis(oxidanyl)-2-phenyl-chromen-4-one

>  <PUBCHEM_IUPAC_TRADITIONAL_NAME>
5,7-dihydroxy-8-methoxy-2-phenyl-chromone

>  <PUBCHEM_IUPAC_INCHI>
InChI=1S/C16H12O5/c1-20-15-12(19)7-10(17)14-11(18)8-13(21-16(14)15)9-5-3-2-4-6-9/h2-8,17,19H,1H3

>  <PUBCHEM_IUPAC_INCHIKEY>
XLTFNNCXVBYBSX-UHFFFAOYSA-N

>  <PUBCHEM_XLOGP3_AA>
3

>  <PUBCHEM_EXACT_MASS>
284.068473

>  <PUBCHEM_MOLECULAR_FORMULA>
C16H12O5

>  <PUBCHEM_MOLECULAR_WEIGHT>
284.26

>  <PUBCHEM_OPENEYE_CAN_SMILES>
COC1=C(C=C(C2=C1OC(=CC2=O)C3=CC=CC=C3)O)O

>  <PUBCHEM_OPENEYE_ISO_SMILES>
COC1=C(C=C(C2=C1OC(=CC2=O)C3=CC=CC=C3)O)O

>  <PUBCHEM_CACTVS_TPSA>
76

>  <PUBCHEM_MONOISOTOPIC_WEIGHT>
284.068473

>  <PUBCHEM_TOTAL_CHARGE>
0

>  <PUBCHEM_HEAVY_ATOM_COUNT>
21

>  <PUBCHEM_ATOM_DEF_STEREO_COUNT>
0

>  <PUBCHEM_ATOM_UDEF_STEREO_COUNT>
0

>  <PUBCHEM_BOND_DEF_STEREO_COUNT>
0

>  <PUBCHEM_BOND_UDEF_STEREO_COUNT>
0

>  <PUBCHEM_ISOTOPIC_ATOM_COUNT>
0

>  <PUBCHEM_COMPONENT_COUNT>
1

>  <PUBCHEM_CACTVS_TAUTO_COUNT>
-1

>  <PUBCHEM_COORDINATE_TYPE>
1
5
255

>  <PUBCHEM_BONDANNOTATIONS>
1  7  8
1  8  8
10  12  8
11  15  8
13  16  8
13  17  8
14  15  8
16  18  8
17  19  8
18  20  8
19  20  8
6  10  8
6  11  8
6  7  8
7  9  8
8  12  8
9  14  8

>  <LF dG>
-6.085

>  <LF VSscore>
-7.247

>  <LF Rank Score>
-9.887

>  <LF LE>
-0.29

>  <Preferred Pose_cresset>
true

>  <Favorite_cresset>
false

>  <Protein_cresset>
6Y2F_P | 5 A | No water

>  <MW_cresset>
284.3

>  <#Atoms_cresset>
21

>  <SlogP_cresset>
2.6

>  <TPSA_cresset>
76

>  <Flexibility_cresset>
1.7

>  <#RB_cresset>
4

>  <Rof5_cresset>
0

>  <Filename_cresset>
Wogonin.sdf

>  <Confs_cresset>
0

>  <Poses_cresset>
10

>  <_cresset_fieldpoints>
    -5       6.837348       0.647834      17.387732    -10.2420
    -5      13.265594       1.457748      20.939608    -18.2472
    -5      15.056349      -0.514166      21.443731    -15.0120
    -5       8.608349      -3.189167      18.733732     -6.0120
    -5      13.910349      -6.126166      21.382732     -2.1390
    -6      14.317348       1.677834      17.084732      6.3470
    -6       9.395349      -5.034166      23.304731      2.8445
    -6      10.178349      -2.334167      21.885733      2.7970
    -6      12.667349      -3.068166      16.738731      4.2475
    -6      10.151348      -9.069166      22.079731      2.7600
    -6      12.319348      -9.672167      18.450731      2.8280
    -6       9.663348       1.599833      14.400732      9.5585
    -7       6.385349       0.594833      16.311731     -1.8140
    -7      14.724348       0.027833      17.729733     -1.7745
    -7      13.028349       1.681834      21.656733     -1.6730
    -7      13.191349       3.911833      17.818731     -1.2535
    -7       8.363349       3.972834      16.761732     -1.2775
    -7      11.980349      -0.468166      15.452732     -2.2210
    -7       9.092348       0.370833      21.171732     -1.8630
    -7      12.914349      -6.443167      15.602732     -0.9900
    -7       8.434349      -3.677166      18.718733     -3.0280
    -7      10.192348      -1.742167      21.726732     -2.6455
    -7      11.787349      -3.041167      16.292732     -2.9050
    -7      14.240349      -5.116167      21.362732     -2.0625
    -7      12.325349     -10.070167      18.499733     -0.9675
    -7      10.029348      -9.308167      22.324732     -0.9670
    -8      10.597348       0.335834      18.285732      6.6010
    -8      11.424349      -5.831166      19.790731      7.1530
    -8      11.868349      -1.443166      19.308731      4.9920
    -8       8.720348      -2.230166      15.217731      2.5190

$$$$
W_Site1_Wogonin_D
  xed2sdf_05210316543D
 
 33 35  0  0  0  0  0  0  0  0999 V2000
    9.4079   -0.1085   21.5371 O   0  0  0  0  0  0  0  0  0  0  0  0
    9.5459   -2.1015   19.5661 O   0  0  0  0  0  0  0  0  0  0  0  0
   11.1269    3.0005   18.2691 O   0  0  0  0  0  0  0  0  0  0  0  0
   10.4049   -1.5025   17.1031 O   0  0  0  0  0  0  0  0  0  0  0  0
   10.4869    3.7005   20.7441 O   0  0  0  0  0  0  0  0  0  0  0  0
   10.2609    1.4925   19.9341 C   0  0  0  0  0  0  0  0  0  0  0  0
    9.8599    0.1975   20.2871 C   0  0  0  0  0  0  0  0  0  0  0  0
    9.3129    0.8905   22.4731 C   0  0  0  0  0  0  0  0  0  0  0  0
    9.9149   -0.8195   19.3291 C   0  0  0  0  0  0  0  0  0  0  0  0
   10.1699    2.5285   20.9461 C   0  0  0  0  0  0  0  0  0  0  0  0
   10.7189    1.7565   18.6351 C   0  0  0  0  0  0  0  0  0  0  0  0
    9.6789    2.1795   22.2271 C   0  0  0  0  0  0  0  0  0  0  0  0
    8.7879    0.5005   23.8061 C   0  0  0  0  0  0  0  0  0  0  0  0
   10.3559   -0.5275   18.0511 C   0  0  0  0  0  0  0  0  0  0  0  0
   10.7559    0.7515   17.7091 C   0  0  0  0  0  0  0  0  0  0  0  0
    9.5519   -0.1925   24.7351 C   0  0  0  0  0  0  0  0  0  0  0  0
    7.4889    0.8455   24.1461 C   0  0  0  0  0  0  0  0  0  0  0  0
    9.0299   -0.5295   25.9601 C   0  0  0  0  0  0  0  0  0  0  0  0
    6.9669    0.5075   25.3701 C   0  0  0  0  0  0  0  0  0  0  0  0
    7.7369   -0.1815   26.2801 C   0  0  0  0  0  0  0  0  0  0  0  0
   10.4889   -3.0435   20.1141 C   0  0  0  0  0  0  0  0  0  0  0  0
   10.3669    3.6545   18.2521 H   0  0  0  0  0  0  0  0  0  0  0  0
    9.6969   -2.2025   17.2441 H   0  0  0  0  0  0  0  0  0  0  0  0
    9.6009    2.8715   22.9441 H   0  0  0  0  0  0  0  0  0  0  0  0
   11.0739    0.9425   16.7801 H   0  0  0  0  0  0  0  0  0  0  0  0
   10.4919   -0.4485   24.5101 H   0  0  0  0  0  0  0  0  0  0  0  0
    6.9239    1.3475   23.4901 H   0  0  0  0  0  0  0  0  0  0  0  0
    9.5899   -1.0285   26.6211 H   0  0  0  0  0  0  0  0  0  0  0  0
    6.0279    0.7605   25.6011 H   0  0  0  0  0  0  0  0  0  0  0  0
    7.3579   -0.4285   27.1711 H   0  0  0  0  0  0  0  0  0  0  0  0
   11.3649   -2.5825   20.2581 H   0  0  0  0  0  0  0  0  0  0  0  0
   10.1469   -3.3955   20.9851 H   0  0  0  0  0  0  0  0  0  0  0  0
   10.6099   -3.8065   19.4791 H   0  0  0  0  0  0  0  0  0  0  0  0
  1  7  1  0
  1  8  1  0
  2  9  1  0
  2 21  1  0
  3 11  1  0
  4 14  1  0
  5 10  2  0
  6  7  2  0
  6 10  1  0
  6 11  1  0
  7  9  1  0
  8 12  2  0
  8 13  1  0
  9 14  2  0
 10 12  1  0
 11 15  2  0
 13 16  2  0
 13 17  1  0
 14 15  1  0
 16 18  1  0
 17 19  2  0
 18 20  2  0
 19 20  1  0
  3 22  1  0
  4 23  1  0
 12 24  1  0
 15 25  1  0
 16 26  1  0
 17 27  1  0
 18 28  1  0
 19 29  1  0
 20 30  1  0
 21 31  1  0
 21 32  1  0
 21 33  1  0
M  END
>  <BioMolTech Lead Finder dG>
-7.816

>  <BioMolTech Lead Finder VSscore>
-8.398

>  <BioMolTech Lead Finder Rank score>
-10.692

>  <BioMolTech Lead Finder LE>
-0.372

>  <BioMolTech Lead Finder Structure Name>
C:\Users\Odara\AppData\Local\Temp\LeadFinder_10884_1\Ligand_1.sdf

>  <BioMolTech Lead Finder SDF id>
0

>  <BioMolTech Lead Finder Pose rank>
0

>  <BioMolTech Lead Finder version>
2001 1, 19 January 2019

>  <PUBCHEM_COMPOUND_CID>
5281703

>  <PUBCHEM_COMPOUND_CANONICALIZED>
1

>  <PUBCHEM_CACTVS_COMPLEXITY>
426

>  <PUBCHEM_CACTVS_HBOND_ACCEPTOR>
5

>  <PUBCHEM_CACTVS_HBOND_DONOR>
2

>  <PUBCHEM_CACTVS_ROTATABLE_BOND>
2

>  <PUBCHEM_CACTVS_SUBSKEYS>
AAADccB4OAAAAAAAAAAAAAAAAAAAAAAAAAAwYIAAAAAAAACBQAAAGgAACAAADASAmAIyBoAABgCIAqBSAAACCAAkIAAIiAEGiMgNJzaGNRqCeWOl4BULuQfK7LzOIQABCAAIQABCAAIQABCAAAAAAAAAAA==

>  <PUBCHEM_IUPAC_OPENEYE_NAME>
5,7-dihydroxy-8-methoxy-2-phenyl-chromen-4-one

>  <PUBCHEM_IUPAC_CAS_NAME>
5,7-dihydroxy-8-methoxy-2-phenyl-1-benzopyran-4-one

>  <PUBCHEM_IUPAC_NAME_MARKUP>
5,7-dihydroxy-8-methoxy-2-phenylchromen-4-one

>  <PUBCHEM_IUPAC_NAME>
5,7-dihydroxy-8-methoxy-2-phenylchromen-4-one

>  <PUBCHEM_IUPAC_SYSTEMATIC_NAME>
8-methoxy-5,7-bis(oxidanyl)-2-phenyl-chromen-4-one

>  <PUBCHEM_IUPAC_TRADITIONAL_NAME>
5,7-dihydroxy-8-methoxy-2-phenyl-chromone

>  <PUBCHEM_IUPAC_INCHI>
InChI=1S/C16H12O5/c1-20-15-12(19)7-10(17)14-11(18)8-13(21-16(14)15)9-5-3-2-4-6-9/h2-8,17,19H,1H3

>  <PUBCHEM_IUPAC_INCHIKEY>
XLTFNNCXVBYBSX-UHFFFAOYSA-N

>  <PUBCHEM_XLOGP3_AA>
3

>  <PUBCHEM_EXACT_MASS>
284.068473

>  <PUBCHEM_MOLECULAR_FORMULA>
C16H12O5

>  <PUBCHEM_MOLECULAR_WEIGHT>
284.26

>  <PUBCHEM_OPENEYE_CAN_SMILES>
COC1=C(C=C(C2=C1OC(=CC2=O)C3=CC=CC=C3)O)O

>  <PUBCHEM_OPENEYE_ISO_SMILES>
COC1=C(C=C(C2=C1OC(=CC2=O)C3=CC=CC=C3)O)O

>  <PUBCHEM_CACTVS_TPSA>
76

>  <PUBCHEM_MONOISOTOPIC_WEIGHT>
284.068473

>  <PUBCHEM_TOTAL_CHARGE>
0

>  <PUBCHEM_HEAVY_ATOM_COUNT>
21

>  <PUBCHEM_ATOM_DEF_STEREO_COUNT>
0

>  <PUBCHEM_ATOM_UDEF_STEREO_COUNT>
0

>  <PUBCHEM_BOND_DEF_STEREO_COUNT>
0

>  <PUBCHEM_BOND_UDEF_STEREO_COUNT>
0

>  <PUBCHEM_ISOTOPIC_ATOM_COUNT>
0

>  <PUBCHEM_COMPONENT_COUNT>
1

>  <PUBCHEM_CACTVS_TAUTO_COUNT>
-1

>  <PUBCHEM_COORDINATE_TYPE>
1
5
255

>  <PUBCHEM_BONDANNOTATIONS>
1  7  8
1  8  8
10  12  8
11  15  8
13  16  8
13  17  8
14  15  8
16  18  8
17  19  8
18  20  8
19  20  8
6  10  8
6  11  8
6  7  8
7  9  8
8  12  8
9  14  8

>  <LF dG>
-7.816

>  <LF VSscore>
-8.398

>  <LF Rank Score>
-10.692

>  <LF LE>
-0.372

>  <Preferred Pose_cresset>
true

>  <Favorite_cresset>
false

>  <Protein_cresset>
6Y2F_P | 5 A | With water

>  <MW_cresset>
284.3

>  <#Atoms_cresset>
21

>  <SlogP_cresset>
2.6

>  <TPSA_cresset>
76

>  <Flexibility_cresset>
1.7

>  <#RB_cresset>
4

>  <Rof5_cresset>
0

>  <Filename_cresset>
Wogonin.sdf

>  <Confs_cresset>
0

>  <Poses_cresset>
10

>  <_cresset_fieldpoints>
    -5       8.140946      -1.726539      21.695120     -5.5235
    -5      12.020470       3.998646      19.636644    -18.6854
    -5      10.835946       5.306461      21.693121    -15.1210
    -5      11.579947       5.262461      20.568121    -15.0285
    -5      11.996946      -1.799539      16.082121     -7.0655
    -5       9.137946       2.601461      26.489120     -2.1495
    -6       8.969947      -3.951540      17.082121      7.4015
    -6       8.730947       4.133461      17.380119      6.0740
    -6       4.873947       2.121461      23.632120      3.1040
    -6       6.774946       1.901461      21.445120      3.5225
    -6      11.713946      -1.186539      22.796120      3.8975
    -6       5.064947       0.207461      27.712120      2.8125
    -6       8.786946      -1.665539      28.754120      2.8260
    -7      11.857946      -0.983539      22.443121     -2.8785
    -7      10.854946       3.686461      15.902121     -1.2590
    -7       8.260946       4.104461      19.279119     -1.7895
    -7      13.157947      -0.522539      20.221121     -2.2140
    -7      12.814946       3.989461      19.830120     -1.6720
    -7       6.939946       1.746461      20.860121     -2.6415
    -7       6.748946       0.638461      20.888121     -2.4890
    -7       9.555946       3.160461      25.627121     -2.0565
    -7       7.564946      -2.765539      17.820120     -1.5690
    -7       7.219946       1.270461      18.413120     -1.8690
    -7       6.649946      -1.128539      19.786119     -1.5560
    -7       4.819946       0.187461      27.985121     -0.9675
    -7       7.461946       4.035461      23.625120     -1.5925
    -7       4.473947       2.340461      23.926121     -0.9945
    -7       8.724946      -1.812539      29.092121     -0.9675
    -7      12.058947      -3.237539      17.254120     -1.7380
    -7       7.939946      -2.049539      22.000120     -3.0695
    -8      10.317946       0.505461      18.993120      6.6005
    -8       8.260946       0.162461      25.047119      7.1535
    -8       9.874947       1.513461      21.141121      4.9915
    -8      11.093946      -3.589540      20.451120      2.5200

$$$$
Site1_Wogonoside_D
  xed2sdf_05210316543D
 
 52 55  0  0  1  0  0  0  0  0999 V2000
   10.2954    0.6160   19.8746 O   0  0  0  0  0  0  0  0  0  0  0  0
   11.0234    1.1120   22.1576 O   0  0  0  0  0  0  0  0  0  0  0  0
   12.2004    4.1010   18.5006 O   0  0  0  0  0  0  0  0  0  0  0  0
   11.9994    3.5770   21.3176 O   0  0  0  0  0  0  0  0  0  0  0  0
   10.2644    2.7480   16.8326 O   0  0  0  0  0  0  0  0  0  0  0  0
   10.4634   -0.4440   17.0596 O   0  5  0  0  0  0  0  0  0  0  0  0
    8.2394   -0.2270   17.5336 O   0  0  0  0  0  0  0  0  0  0  0  0
    8.9764   -2.6290   24.1576 O   0  0  0  0  0  0  0  0  0  0  0  0
   10.8404   -1.5560   22.5056 O   0  0  0  0  0  0  0  0  0  0  0  0
    7.3644    1.8050   25.0776 O   0  0  0  0  0  0  0  0  0  0  0  0
    6.2994   -0.2980   26.1016 O   0  0  0  0  0  0  0  0  0  0  0  0
   11.1914    3.2340   19.0406 C   0  0  0  0  0  0  0  0  0  0  0  0
   11.6924    2.5740   20.3386 C   0  0  0  0  0  0  0  0  0  0  0  0
   10.8134    2.1490   18.0156 C   0  0  0  0  0  0  0  0  0  0  0  0
   10.6064    1.6170   20.8696 C   0  0  0  0  0  0  0  0  0  0  0  0
    9.7884    1.1900   18.6506 C   0  0  0  0  0  0  0  0  0  0  0  0
    9.4724    0.0900   17.6706 C   0  0  0  0  0  0  0  0  0  0  0  0
   10.0844    0.6250   22.9746 C   0  0  0  0  0  0  0  0  0  0  0  0
    9.9764   -0.7450   23.1476 C   0  0  0  0  0  0  0  0  0  0  0  0
    9.2014    1.4760   23.6256 C   0  0  0  0  0  0  0  0  0  0  0  0
    9.0114   -1.2770   23.9926 C   0  0  0  0  0  0  0  0  0  0  0  0
    8.1274   -0.4140   24.6396 C   0  0  0  0  0  0  0  0  0  0  0  0
    8.2284    0.9680   24.4466 C   0  0  0  0  0  0  0  0  0  0  0  0
    7.1214   -0.9930   25.5056 C   0  0  0  0  0  0  0  0  0  0  0  0
    8.0234   -3.1620   24.9906 C   0  0  0  0  0  0  0  0  0  0  0  0
    7.1054   -2.4030   25.6576 C   0  0  0  0  0  0  0  0  0  0  0  0
    8.0434   -4.6390   25.1466 C   0  0  0  0  0  0  0  0  0  0  0  0
   12.0404   -1.9360   23.2106 C   0  0  0  0  0  0  0  0  0  0  0  0
    9.0374   -5.3130   25.8406 C   0  0  0  0  0  0  0  0  0  0  0  0
    7.0214   -5.3810   24.5736 C   0  0  0  0  0  0  0  0  0  0  0  0
    9.0094   -6.6820   25.9526 C   0  0  0  0  0  0  0  0  0  0  0  0
    6.9944   -6.7490   24.6846 C   0  0  0  0  0  0  0  0  0  0  0  0
    7.9894   -7.4040   25.3746 C   0  0  0  0  0  0  0  0  0  0  0  0
   10.3814    3.7830   19.2456 H   0  0  0  0  0  0  0  0  0  0  0  0
   12.5264    2.0560   20.1496 H   0  0  0  0  0  0  0  0  0  0  0  0
   11.6334    1.6380   17.7566 H   0  0  0  0  0  0  0  0  0  0  0  0
    9.7384    2.0880   21.0286 H   0  0  0  0  0  0  0  0  0  0  0  0
    8.9614    1.7080   18.8706 H   0  0  0  0  0  0  0  0  0  0  0  0
   13.1214    3.7250   18.6436 H   0  0  0  0  0  0  0  0  0  0  0  0
   11.3104    3.5970   22.0516 H   0  0  0  0  0  0  0  0  0  0  0  0
   10.6654    2.3490   16.0006 H   0  0  0  0  0  0  0  0  0  0  0  0
    7.0324    2.5260   24.4596 H   0  0  0  0  0  0  0  0  0  0  0  0
    9.2754    2.4650   23.4956 H   0  0  0  0  0  0  0  0  0  0  0  0
    6.4274   -2.8380   26.2496 H   0  0  0  0  0  0  0  0  0  0  0  0
   12.0344   -1.5110   24.1156 H   0  0  0  0  0  0  0  0  0  0  0  0
   12.0744   -2.9310   23.3066 H   0  0  0  0  0  0  0  0  0  0  0  0
   12.8424   -1.6310   22.6976 H   0  0  0  0  0  0  0  0  0  0  0  0
    9.7824   -4.7970   26.2636 H   0  0  0  0  0  0  0  0  0  0  0  0
    6.2934   -4.9130   24.0726 H   0  0  0  0  0  0  0  0  0  0  0  0
    9.7314   -7.1560   26.4556 H   0  0  0  0  0  0  0  0  0  0  0  0
    6.2514   -7.2710   24.2636 H   0  0  0  0  0  0  0  0  0  0  0  0
    7.9714   -8.4000   25.4556 H   0  0  0  0  0  0  0  0  0  0  0  0
  1 15  1  0
  1 16  1  0
  2 18  1  0
  6 17  1  0
  7 17  2  0
  8 21  1  0
  8 25  1  0
  9 19  1  0
  9 28  1  0
 10 23  1  0
 11 24  2  0
 12  3  1  0
 12 13  1  0
 12 14  1  0
 13  4  1  0
 13 15  1  0
 14  5  1  0
 14 16  1  0
 15  2  1  0
 16 17  1  0
 18 19  2  0
 18 20  1  0
 19 21  1  0
 20 23  2  0
 21 22  2  0
 22 23  1  0
 22 24  1  0
 24 26  1  0
 25 26  2  0
 25 27  1  0
 27 29  2  0
 27 30  1  0
 29 31  1  0
 30 32  2  0
 31 33  2  0
 32 33  1  0
  3 39  1  0
  4 40  1  0
  5 41  1  0
 10 42  1  0
 12 34  1  0
 13 35  1  0
 14 36  1  0
 15 37  1  0
 16 38  1  0
 20 43  1  0
 26 44  1  0
 28 45  1  0
 28 46  1  0
 28 47  1  0
 29 48  1  0
 30 49  1  0
 31 50  1  0
 32 51  1  0
 33 52  1  0
M  CHG  1   6  -1
M  END
>  <BioMolTech Lead Finder dG>
-8.074

>  <BioMolTech Lead Finder VSscore>
-11.564

>  <BioMolTech Lead Finder Rank score>
-12.808

>  <BioMolTech Lead Finder LE>
-0.245

>  <BioMolTech Lead Finder Structure Name>
C:\Users\Odara\AppData\Local\Temp\LeadFinder_12888_1\Ligand_1.sdf

>  <BioMolTech Lead Finder SDF id>
0

>  <BioMolTech Lead Finder Pose rank>
0

>  <BioMolTech Lead Finder version>
2001 1, 19 January 2019

>  <PUBCHEM_COMPOUND_CID>
3084961

>  <PUBCHEM_COMPOUND_CANONICALIZED>
1

>  <PUBCHEM_CACTVS_COMPLEXITY>
763

>  <PUBCHEM_CACTVS_HBOND_ACCEPTOR>
11

>  <PUBCHEM_CACTVS_HBOND_DONOR>
5

>  <PUBCHEM_CACTVS_ROTATABLE_BOND>
5

>  <PUBCHEM_CACTVS_SUBSKEYS>
AAADceB4PAAAAAAAAAAAAAAAAAAAAAAAAAA0YIEAAAAAAACBQAAAGgAACAAADBSwmAMyDoAABgCIAqDSCAICCAAkIAAIiAFGiMgdNzaGNR6ieWKl4BUPuQfK7LzOIQABCAAIQABCAAIQABCAAAAAAAAAAA==

>  <PUBCHEM_IUPAC_OPENEYE_NAME>
(2S,3S,4S,5R,6S)-3,4,5-trihydroxy-6-(5-hydroxy-8-methoxy-4-oxo-2-phenyl-chromen-7-yl)oxy-tetrahydropyran-2-carboxylic acid

>  <PUBCHEM_IUPAC_CAS_NAME>
(2S,3S,4S,5R,6S)-3,4,5-trihydroxy-6-[(5-hydroxy-8-methoxy-4-oxo-2-phenyl-1-benzopyran-7-yl)oxy]-2-oxanecarboxylic acid

>  <PUBCHEM_IUPAC_NAME_MARKUP>
(2<I>S</I>,3<I>S</I>,4<I>S</I>,5<I>R</I>,6<I>S</I>)-3,4,5-trihydroxy-6-(5-hydroxy-8-methoxy-4-oxo-2-phenylchromen-7-yl)oxyoxane-2-carboxylic acid

>  <PUBCHEM_IUPAC_NAME>
(2S,3S,4S,5R,6S)-3,4,5-trihydroxy-6-(5-hydroxy-8-methoxy-4-oxo-2-phenylchromen-7-yl)oxyoxane-2-carboxylic acid

>  <PUBCHEM_IUPAC_SYSTEMATIC_NAME>
(2S,3S,4S,5R,6S)-6-(8-methoxy-5-oxidanyl-4-oxidanylidene-2-phenyl-chromen-7-yl)oxy-3,4,5-tris(oxidanyl)oxane-2-carboxylic acid

>  <PUBCHEM_IUPAC_TRADITIONAL_NAME>
(2S,3S,4S,5R,6S)-3,4,5-trihydroxy-6-(5-hydroxy-4-keto-8-methoxy-2-phenyl-chromen-7-yl)oxy-tetrahydropyran-2-carboxylic acid

>  <PUBCHEM_IUPAC_INCHI>
InChI=1S/C22H20O11/c1-30-18-13(32-22-17(27)15(25)16(26)20(33-22)21(28)29)8-11(24)14-10(23)7-12(31-19(14)18)9-5-3-2-4-6-9/h2-8,15-17,20,22,24-27H,1H3,(H,28,29)/t15-,16-,17+,20-,22+/m0/s1

>  <PUBCHEM_IUPAC_INCHIKEY>
LNOHXHDWGCMVCO-NTKSAMNMSA-N

>  <PUBCHEM_XLOGP3_AA>
1.4

>  <PUBCHEM_EXACT_MASS>
460.100561

>  <PUBCHEM_MOLECULAR_FORMULA>
C22H20O11

>  <PUBCHEM_MOLECULAR_WEIGHT>
460.4

>  <PUBCHEM_OPENEYE_CAN_SMILES>
COC1=C(C=C(C2=C1OC(=CC2=O)C3=CC=CC=C3)O)OC4C(C(C(C(O4)C(=O)O)O)O)O

>  <PUBCHEM_OPENEYE_ISO_SMILES>
COC1=C(C=C(C2=C1OC(=CC2=O)C3=CC=CC=C3)O)O[C@H]4[C@@H]([C@H]([C@@H]([C@H](O4)C(=O)O)O)O)O

>  <PUBCHEM_CACTVS_TPSA>
172

>  <PUBCHEM_MONOISOTOPIC_WEIGHT>
460.100561

>  <PUBCHEM_TOTAL_CHARGE>
0

>  <PUBCHEM_HEAVY_ATOM_COUNT>
33

>  <PUBCHEM_ATOM_DEF_STEREO_COUNT>
5

>  <PUBCHEM_ATOM_UDEF_STEREO_COUNT>
0

>  <PUBCHEM_BOND_DEF_STEREO_COUNT>
0

>  <PUBCHEM_BOND_UDEF_STEREO_COUNT>
0

>  <PUBCHEM_ISOTOPIC_ATOM_COUNT>
0

>  <PUBCHEM_COMPONENT_COUNT>
1

>  <PUBCHEM_CACTVS_TAUTO_COUNT>
-1

>  <PUBCHEM_COORDINATE_TYPE>
1
5
255

>  <PUBCHEM_BONDANNOTATIONS>
16  17  5
18  19  8
18  20  8
19  21  8
15  2  5
20  23  8
21  22  8
22  23  8
22  24  8
24  26  8
25  26  8
27  29  8
27  30  8
29  31  8
12  3  5
30  32  8
31  33  8
32  33  8
13  4  6
14  5  6
8  21  8
8  25  8

>  <LF dG>
-8.074

>  <LF VSscore>
-11.564

>  <LF Rank Score>
-12.808

>  <LF LE>
-0.245

>  <Preferred Pose_cresset>
true

>  <Favorite_cresset>
false

>  <Protein_cresset>
6Y2F_P | 5 A | No water

>  <MW_cresset>
459.4

>  <#Atoms_cresset>
33

>  <SlogP_cresset>
1.4

>  <TPSA_cresset>
175

>  <Flexibility_cresset>
7.6

>  <#RB_cresset>
9

>  <Rof5_cresset>
1

>  <Filename_cresset>
Wogonoside.sdf

>  <Confs_cresset>
0

>  <Poses_cresset>
10

>  <_cresset_fieldpoints>
    -5      10.585425      -1.396042      20.166565     -9.9140
    -5      11.388426       5.003958      17.023563    -11.2515
    -5       8.223425      -1.614043      16.332563     -9.8420
    -5       9.641425      -1.780042      16.048565     -9.4090
    -5       9.576426      -3.692043      22.080564     -6.9015
    -5       6.163425       1.488958      26.669563    -13.9895
    -5       4.923425      -0.465042      27.357563    -11.7990
    -5       6.446425      -5.930042      27.805565     -3.4840
    -6      14.054425       2.230958      18.304564      5.3865
    -6       9.555426       4.045958      22.200563      9.9365
    -6       7.574425       3.811958      23.179564      7.6155
    -6      12.057425       1.547957      15.300564      4.1305
    -6      11.076426      -2.951042      26.099564      3.0030
    -6      11.645426      -5.814042      27.421564      2.4765
    -6       4.335425      -6.455042      23.215565      1.7225
    -6       6.226425      -9.824042      24.583565      2.1115
    -6       9.785425      -9.585042      26.765564      2.3025
    -7       7.697425      -0.042042      20.749563     -3.0460
    -7      12.020426      -1.006042      19.975563     -3.1820
    -7      12.770426       2.606957      23.529564     -2.2390
    -7      14.201426       1.743958      18.155563     -1.6350
    -7       9.223425       4.450958      21.776564     -2.3880
    -7      13.249426       5.445958      20.321564     -1.5325
    -7      12.554425       3.950958      16.079563     -1.5730
    -7       7.980425       3.682957      20.419563     -2.1085
    -7       8.055426       2.226958      16.053564     -1.6725
    -7       8.164425       3.948958      17.578564     -1.6695
    -7      11.772426       0.477958      15.333564     -1.5105
    -7       6.210425      -2.583042      22.701565     -2.6290
    -7       9.751426      -4.222043      22.424564     -3.0885
    -7       4.966425       1.155958      24.481564     -1.7690
    -7       7.554425       1.283957      27.650564     -1.6465
    -7      10.735425      -2.452042      26.364563     -2.9375
    -7       8.324426       4.137958      25.555565     -1.2780
    -7      11.230425      -0.075042      26.238564     -2.3000
    -7      13.618425       0.951958      22.572563     -2.3115
    -7       9.864426      -9.867043      26.776564     -0.9675
    -7       6.029426      -9.992043      24.367563     -0.9670
    -7       6.246426      -4.981042      27.894564     -2.0450
    -8      10.761425       2.290957      19.356564      5.1575
    -8       9.083426       0.119958      23.821564      6.6155
    -8       8.014425      -6.024042      25.262564      7.1520
    -8       7.845426      -1.603042      24.984564      5.0130
    -8      12.751425      -2.147043      23.679564      2.5245

$$$$
W_Site1_Wogonoside_D
  xed2sdf_05210316543D
 
 52 55  0  0  1  0  0  0  0  0999 V2000
   10.7906    1.4522   18.8378 O   0  0  0  0  0  0  0  0  0  0  0  0
   12.3326    1.9052   20.6838 O   0  0  0  0  0  0  0  0  0  0  0  0
    9.1046   -1.7228   21.0138 O   0  0  0  0  0  0  0  0  0  0  0  0
   11.4536   -0.3878   21.9888 O   0  0  0  0  0  0  0  0  0  0  0  0
    8.6126   -1.4828   18.1748 O   0  0  0  0  0  0  0  0  0  0  0  0
    8.6156    0.2472   16.2588 O   0  5  0  0  0  0  0  0  0  0  0  0
    9.5006    2.2912   16.7638 O   0  0  0  0  0  0  0  0  0  0  0  0
   14.6626    4.6502   17.6478 O   0  0  0  0  0  0  0  0  0  0  0  0
   12.3386    3.7452   18.7128 O   0  0  0  0  0  0  0  0  0  0  0  0
   17.0596    1.6932   20.5838 O   0  0  0  0  0  0  0  0  0  0  0  0
   18.2396    3.2112   18.8788 O   0  0  0  0  0  0  0  0  0  0  0  0
    9.9816   -0.9988   20.1398 C   0  0  0  0  0  0  0  0  0  0  0  0
   10.6766    0.1432   20.9048 C   0  0  0  0  0  0  0  0  0  0  0  0
    9.1956   -0.4238   18.9468 C   0  0  0  0  0  0  0  0  0  0  0  0
   11.5776    0.9282   19.9318 C   0  0  0  0  0  0  0  0  0  0  0  0
   10.1486    0.4122   18.0698 C   0  0  0  0  0  0  0  0  0  0  0  0
    9.3626    1.0302   16.9428 C   0  0  0  0  0  0  0  0  0  0  0  0
   13.5006    2.3172   20.1818 C   0  0  0  0  0  0  0  0  0  0  0  0
   13.5106    3.2522   19.1608 C   0  0  0  0  0  0  0  0  0  0  0  0
   14.6986    1.7962   20.6548 C   0  0  0  0  0  0  0  0  0  0  0  0
   14.7106    3.6992   18.6218 C   0  0  0  0  0  0  0  0  0  0  0  0
   15.9066    3.1682   19.1028 C   0  0  0  0  0  0  0  0  0  0  0  0
   15.8906    2.2092   20.1218 C   0  0  0  0  0  0  0  0  0  0  0  0
   17.1446    3.6402   18.5168 C   0  0  0  0  0  0  0  0  0  0  0  0
   15.8456    5.0962   17.1108 C   0  0  0  0  0  0  0  0  0  0  0  0
   17.0666    4.6282   17.5028 C   0  0  0  0  0  0  0  0  0  0  0  0
   15.7346    6.1442   16.0648 C   0  0  0  0  0  0  0  0  0  0  0  0
   11.8696    4.9762   19.3008 C   0  0  0  0  0  0  0  0  0  0  0  0
   15.5316    7.4862   16.3568 C   0  0  0  0  0  0  0  0  0  0  0  0
   15.8406    5.7692   14.7338 C   0  0  0  0  0  0  0  0  0  0  0  0
   15.4346    8.4162   15.3508 C   0  0  0  0  0  0  0  0  0  0  0  0
   15.7406    6.6992   13.7278 C   0  0  0  0  0  0  0  0  0  0  0  0
   15.5376    8.0252   14.0348 C   0  0  0  0  0  0  0  0  0  0  0  0
   10.6766   -1.6298   19.7958 H   0  0  0  0  0  0  0  0  0  0  0  0
    9.9866    0.7582   21.2868 H   0  0  0  0  0  0  0  0  0  0  0  0
    8.4566    0.1582   19.2868 H   0  0  0  0  0  0  0  0  0  0  0  0
   12.2546    0.3392   19.4908 H   0  0  0  0  0  0  0  0  0  0  0  0
   10.8596   -0.1908   17.7088 H   0  0  0  0  0  0  0  0  0  0  0  0
    9.6206   -2.2478   21.6988 H   0  0  0  0  0  0  0  0  0  0  0  0
   12.1276   -1.0598   21.6628 H   0  0  0  0  0  0  0  0  0  0  0  0
    9.3186   -2.1008   17.8088 H   0  0  0  0  0  0  0  0  0  0  0  0
   17.4286    0.9982   19.9568 H   0  0  0  0  0  0  0  0  0  0  0  0
   14.6906    1.1162   21.3878 H   0  0  0  0  0  0  0  0  0  0  0  0
   17.9006    4.9802   17.0768 H   0  0  0  0  0  0  0  0  0  0  0  0
   12.5306    5.2822   19.9858 H   0  0  0  0  0  0  0  0  0  0  0  0
   11.7736    5.6742   18.5908 H   0  0  0  0  0  0  0  0  0  0  0  0
   10.9806    4.8262   19.7318 H   0  0  0  0  0  0  0  0  0  0  0  0
   15.4556    7.7792   17.3108 H   0  0  0  0  0  0  0  0  0  0  0  0
   15.9906    4.8072   14.5038 H   0  0  0  0  0  0  0  0  0  0  0  0
   15.2876    9.3792   15.5738 H   0  0  0  0  0  0  0  0  0  0  0  0
   15.8166    6.4122   12.7728 H   0  0  0  0  0  0  0  0  0  0  0  0
   15.4646    8.7032   13.3028 H   0  0  0  0  0  0  0  0  0  0  0  0
  1 15  1  0
  1 16  1  0
  2 18  1  0
  6 17  1  0
  7 17  2  0
  8 21  1  0
  8 25  1  0
  9 19  1  0
  9 28  1  0
 10 23  1  0
 11 24  2  0
 12  3  1  0
 12 13  1  0
 12 14  1  0
 13  4  1  0
 13 15  1  0
 14  5  1  0
 14 16  1  0
 15  2  1  0
 16 17  1  0
 18 19  2  0
 18 20  1  0
 19 21  1  0
 20 23  2  0
 21 22  2  0
 22 23  1  0
 22 24  1  0
 24 26  1  0
 25 26  2  0
 25 27  1  0
 27 29  2  0
 27 30  1  0
 29 31  1  0
 30 32  2  0
 31 33  2  0
 32 33  1  0
  3 39  1  0
  4 40  1  0
  5 41  1  0
 10 42  1  0
 12 34  1  0
 13 35  1  0
 14 36  1  0
 15 37  1  0
 16 38  1  0
 20 43  1  0
 26 44  1  0
 28 45  1  0
 28 46  1  0
 28 47  1  0
 29 48  1  0
 30 49  1  0
 31 50  1  0
 32 51  1  0
 33 52  1  0
M  CHG  1   6  -1
M  END
>  <BioMolTech Lead Finder dG>
-6.703

>  <BioMolTech Lead Finder VSscore>
-9.535

>  <BioMolTech Lead Finder Rank score>
-10.189

>  <BioMolTech Lead Finder LE>
-0.203

>  <BioMolTech Lead Finder Structure Name>
C:\Users\Odara\AppData\Local\Temp\LeadFinder_7640_1\Ligand_1.sdf

>  <BioMolTech Lead Finder SDF id>
0

>  <BioMolTech Lead Finder Pose rank>
0

>  <BioMolTech Lead Finder version>
2001 1, 19 January 2019

>  <PUBCHEM_COMPOUND_CID>
3084961

>  <PUBCHEM_COMPOUND_CANONICALIZED>
1

>  <PUBCHEM_CACTVS_COMPLEXITY>
763

>  <PUBCHEM_CACTVS_HBOND_ACCEPTOR>
11

>  <PUBCHEM_CACTVS_HBOND_DONOR>
5

>  <PUBCHEM_CACTVS_ROTATABLE_BOND>
5

>  <PUBCHEM_CACTVS_SUBSKEYS>
AAADceB4PAAAAAAAAAAAAAAAAAAAAAAAAAA0YIEAAAAAAACBQAAAGgAACAAADBSwmAMyDoAABgCIAqDSCAICCAAkIAAIiAFGiMgdNzaGNR6ieWKl4BUPuQfK7LzOIQABCAAIQABCAAIQABCAAAAAAAAAAA==

>  <PUBCHEM_IUPAC_OPENEYE_NAME>
(2S,3S,4S,5R,6S)-3,4,5-trihydroxy-6-(5-hydroxy-8-methoxy-4-oxo-2-phenyl-chromen-7-yl)oxy-tetrahydropyran-2-carboxylic acid

>  <PUBCHEM_IUPAC_CAS_NAME>
(2S,3S,4S,5R,6S)-3,4,5-trihydroxy-6-[(5-hydroxy-8-methoxy-4-oxo-2-phenyl-1-benzopyran-7-yl)oxy]-2-oxanecarboxylic acid

>  <PUBCHEM_IUPAC_NAME_MARKUP>
(2<I>S</I>,3<I>S</I>,4<I>S</I>,5<I>R</I>,6<I>S</I>)-3,4,5-trihydroxy-6-(5-hydroxy-8-methoxy-4-oxo-2-phenylchromen-7-yl)oxyoxane-2-carboxylic acid

>  <PUBCHEM_IUPAC_NAME>
(2S,3S,4S,5R,6S)-3,4,5-trihydroxy-6-(5-hydroxy-8-methoxy-4-oxo-2-phenylchromen-7-yl)oxyoxane-2-carboxylic acid

>  <PUBCHEM_IUPAC_SYSTEMATIC_NAME>
(2S,3S,4S,5R,6S)-6-(8-methoxy-5-oxidanyl-4-oxidanylidene-2-phenyl-chromen-7-yl)oxy-3,4,5-tris(oxidanyl)oxane-2-carboxylic acid

>  <PUBCHEM_IUPAC_TRADITIONAL_NAME>
(2S,3S,4S,5R,6S)-3,4,5-trihydroxy-6-(5-hydroxy-4-keto-8-methoxy-2-phenyl-chromen-7-yl)oxy-tetrahydropyran-2-carboxylic acid

>  <PUBCHEM_IUPAC_INCHI>
InChI=1S/C22H20O11/c1-30-18-13(32-22-17(27)15(25)16(26)20(33-22)21(28)29)8-11(24)14-10(23)7-12(31-19(14)18)9-5-3-2-4-6-9/h2-8,15-17,20,22,24-27H,1H3,(H,28,29)/t15-,16-,17+,20-,22+/m0/s1

>  <PUBCHEM_IUPAC_INCHIKEY>
LNOHXHDWGCMVCO-NTKSAMNMSA-N

>  <PUBCHEM_XLOGP3_AA>
1.4

>  <PUBCHEM_EXACT_MASS>
460.100561

>  <PUBCHEM_MOLECULAR_FORMULA>
C22H20O11

>  <PUBCHEM_MOLECULAR_WEIGHT>
460.4

>  <PUBCHEM_OPENEYE_CAN_SMILES>
COC1=C(C=C(C2=C1OC(=CC2=O)C3=CC=CC=C3)O)OC4C(C(C(C(O4)C(=O)O)O)O)O

>  <PUBCHEM_OPENEYE_ISO_SMILES>
COC1=C(C=C(C2=C1OC(=CC2=O)C3=CC=CC=C3)O)O[C@H]4[C@@H]([C@H]([C@@H]([C@H](O4)C(=O)O)O)O)O

>  <PUBCHEM_CACTVS_TPSA>
172

>  <PUBCHEM_MONOISOTOPIC_WEIGHT>
460.100561

>  <PUBCHEM_TOTAL_CHARGE>
0

>  <PUBCHEM_HEAVY_ATOM_COUNT>
33

>  <PUBCHEM_ATOM_DEF_STEREO_COUNT>
5

>  <PUBCHEM_ATOM_UDEF_STEREO_COUNT>
0

>  <PUBCHEM_BOND_DEF_STEREO_COUNT>
0

>  <PUBCHEM_BOND_UDEF_STEREO_COUNT>
0

>  <PUBCHEM_ISOTOPIC_ATOM_COUNT>
0

>  <PUBCHEM_COMPONENT_COUNT>
1

>  <PUBCHEM_CACTVS_TAUTO_COUNT>
-1

>  <PUBCHEM_COORDINATE_TYPE>
1
5
255

>  <PUBCHEM_BONDANNOTATIONS>
16  17  5
18  19  8
18  20  8
19  21  8
15  2  5
20  23  8
21  22  8
22  23  8
22  24  8
24  26  8
25  26  8
27  29  8
27  30  8
29  31  8
12  3  5
30  32  8
31  33  8
32  33  8
13  4  6
14  5  6
8  21  8
8  25  8

>  <LF dG>
-6.703

>  <LF VSscore>
-9.535

>  <LF Rank Score>
-10.189

>  <LF LE>
-0.203

>  <Preferred Pose_cresset>
true

>  <Favorite_cresset>
false

>  <Protein_cresset>
6Y2F_P | 5 A | With water

>  <MW_cresset>
459.4

>  <#Atoms_cresset>
33

>  <SlogP_cresset>
1.4

>  <TPSA_cresset>
175

>  <Flexibility_cresset>
7.6

>  <#RB_cresset>
9

>  <Rof5_cresset>
1

>  <Filename_cresset>
Wogonoside.sdf

>  <Confs_cresset>
0

>  <Poses_cresset>
10

>  <_cresset_fieldpoints>
    -5       7.773573       1.355249      15.065814    -11.4110
    -5      11.821573       1.034249      23.246815     -8.6575
    -5       7.411573      -2.227751      19.829815    -12.0810
    -5       7.139574      -1.162751      17.124813    -12.7305
    -5      10.378573       3.159249      18.015814    -13.5880
    -5       8.394573       2.711249      15.383814    -11.6150
    -5      18.757574       2.848249      20.732815    -12.3575
    -5      20.036573       3.741249      18.676813    -10.3965
    -5      18.558573       7.737249      15.034814     -3.2245
    -6      12.894573      -1.820751      20.253815     12.7435
    -6      11.198573      -2.466751      17.815813     10.1245
    -6      16.078573       2.716249      15.408813      2.3710
    -6      14.760573       6.906249      19.308813      2.2305
    -6      16.724573      -0.679751      19.414814      4.8385
    -6      16.446573       4.031249      12.256814      2.2285
    -6      15.166574      10.183249      17.873814      2.0750
    -6      15.235574      11.122250      13.783813      2.1115
    -6      15.814573       8.078249      10.922813      2.1220
    -7       9.134573       3.005249      19.612814     -3.0910
    -7      12.834574       0.976249      23.308815     -2.2150
    -7      11.689573      -3.235751      21.772814     -1.4440
    -7      11.640574      -2.616751      17.631813     -1.7330
    -7       7.412573      -0.070751      21.858814     -1.5995
    -7       9.612574      -1.057751      23.621815     -1.4345
    -7      11.104573      -2.260751      23.359814     -1.4040
    -7      13.849573      -1.435751      20.268814     -2.2940
    -7       8.277574      -3.587751      19.450813     -1.5390
    -7       9.767573      -1.788751      15.656815     -1.6950
    -7       6.567574      -0.588751      17.141813     -1.5410
    -7      13.392573       0.691249      17.138813     -2.8140
    -7      12.102573       2.317249      16.408813     -2.7990
    -7      15.760573       2.458249      15.711814     -2.6420
    -7      16.940573      -0.559751      21.690815     -1.2830
    -7      18.597572       3.601249      21.353813     -1.6610
    -7      14.832574       6.721249      19.555815     -2.9475
    -7      17.859573       0.867249      17.630814     -1.7885
    -7      12.867574      -1.792751      18.368814     -2.0470
    -7      10.416574       3.393249      21.836815     -2.3420
    -7      16.801573       3.870249      12.125814     -0.9945
    -7      14.688574       5.334249      21.579815     -2.2990
    -7      12.736573       4.840249      16.096813     -3.1330
    -7      15.628573       8.111249      10.637814     -0.9670
    -7      18.897573       7.052249      15.655814     -2.0525
    -7      15.045573      11.374249      13.725814     -0.9675
    -8      10.354573      -0.142751      19.584814      5.1680
    -8      14.729573       2.736249      19.645813      6.6155
    -8      11.626574       5.727249      19.681814      2.5215
    -8      16.181574       4.017249      18.200813      5.0155
    -8      15.639574       7.087249      15.048814      7.1520

$$$$
Site1_VTRRT_D
  xed2sdf_05210316543D
 
 92 97  0  0  1  0  0  0  0  0999 V2000
   16.4936    3.1544   27.2445 C   0  0  0  0  0  0  0  0  0  0  0  0
   15.2576    3.7574   27.2715 C   0  0  0  0  0  0  0  0  0  0  0  0
   15.0816    5.0044   26.7115 C   0  0  0  0  0  0  0  0  0  0  0  0
   16.1516    5.6424   26.1235 C   0  0  0  0  0  0  0  0  0  0  0  0
   17.3886    5.0394   26.0955 C   0  0  0  0  0  0  0  0  0  0  0  0
   17.5596    3.7954   26.6565 C   0  0  0  0  0  0  0  0  0  0  0  0
   13.7166    5.6754   26.7425 C   0  0  0  0  0  0  0  0  0  0  0  0
   13.0946    5.9564   25.3545 C   0  0  0  0  0  0  0  0  0  0  0  0
   12.3606    7.2684   25.3945 N   0  3  0  0  0  0  0  0  0  0  0  0
   12.1076    4.8474   24.9225 C   0  0  0  0  0  0  0  0  0  0  0  0
   12.6026    3.5444   25.2725 O   0  0  0  0  0  0  0  0  0  0  0  0
   11.7676    4.9224   23.4175 C   0  0  0  0  0  0  0  0  0  0  0  0
   11.2516    3.5644   22.8965 C   0  0  0  0  0  0  0  0  0  0  0  0
   10.8156    3.6914   21.4205 C   0  0  0  0  0  0  0  0  0  0  0  0
   11.8356    4.3214   20.4835 C   0  0  0  0  0  0  0  0  0  0  0  0
   11.5906    5.5624   19.9365 C   0  0  0  0  0  0  0  0  0  0  0  0
   12.5066    6.1394   19.0865 C   0  0  0  0  0  0  0  0  0  0  0  0
   13.6716    5.4764   18.7785 C   0  0  0  0  0  0  0  0  0  0  0  0
   13.9206    4.2364   19.3215 C   0  0  0  0  0  0  0  0  0  0  0  0
   13.0036    3.6604   20.1715 C   0  0  0  0  0  0  0  0  0  0  0  0
   10.1016    3.1484   23.7125 N   0  0  0  0  0  0  0  0  0  0  0  0
    9.9286    1.6524   23.7785 P   0  0  0  0  0  0  0  0  0  0  0  0
    9.1146    1.0804   22.5165 O   0  0  0  0  0  0  0  0  0  0  0  0
    8.9846    1.2544   25.0245 O   0  0  0  0  0  0  0  0  0  0  0  0
   11.2656    0.9664   23.8845 O   0  0  0  0  0  0  0  0  0  0  0  0
    9.7356    0.0674   21.7105 C   0  0  0  0  0  0  0  0  0  0  0  0
    8.6756   -0.0466   25.3065 C   0  0  0  0  0  0  0  0  0  0  0  0
    9.6516   -0.8766   25.8215 C   0  0  0  0  0  0  0  0  0  0  0  0
    9.3636   -2.1896   26.1125 C   0  0  0  0  0  0  0  0  0  0  0  0
    8.0966   -2.6816   25.8965 C   0  0  0  0  0  0  0  0  0  0  0  0
    7.1176   -1.8596   25.3885 C   0  0  0  0  0  0  0  0  0  0  0  0
    7.4036   -0.5476   25.0935 C   0  0  0  0  0  0  0  0  0  0  0  0
    9.4356    0.2814   20.2165 C   0  0  0  0  0  0  0  0  0  0  0  0
    9.1546   -0.9686   19.5585 O   0  0  0  0  0  0  0  0  0  0  0  0
    9.8516   -1.0476   18.2975 C   0  0  0  0  0  0  0  0  0  0  0  0
   10.4016    0.3734   18.0485 C   0  0  0  0  0  0  0  0  0  0  0  0
   10.6146    0.9214   19.4625 C   0  0  0  0  0  0  0  0  0  0  0  0
   11.8806    0.4694   19.9695 O   0  0  0  0  0  0  0  0  0  0  0  0
   11.6136    0.3934   17.2775 O   0  0  0  0  0  0  0  0  0  0  0  0
   10.9066   -2.1506   18.3815 C   0  0  0  0  0  0  0  0  0  0  0  0
    8.8826   -1.3886   17.2495 C   0  0  0  0  0  0  0  0  0  0  0  0
    8.1336   -1.6526   16.4375 N   0  0  0  0  0  0  0  0  0  0  0  0
   11.6106   -2.5746   17.3025 N   0  0  0  0  0  0  0  0  0  0  0  0
   12.4386   -3.5436   17.7755 C   0  0  0  0  0  0  0  0  0  0  0  0
   12.2656   -3.7316   19.1085 C   0  0  0  0  0  0  0  0  0  0  0  0
   11.2726   -2.8276   19.4915 C   0  0  0  0  0  0  0  0  0  0  0  0
   11.6196   -2.2236   15.9825 N   0  0  0  0  0  0  0  0  0  0  0  0
   12.4556   -2.8516   15.1895 C   0  0  0  0  0  0  0  0  0  0  0  0
   13.3336   -3.8406   15.5545 N   0  0  0  0  0  0  0  0  0  0  0  0
   13.3126   -4.1746   16.8515 C   0  0  0  0  0  0  0  0  0  0  0  0
   14.1786   -5.1616   17.2605 N   0  0  0  0  0  0  0  0  0  0  0  0
   13.8406    5.9834   24.6895 H   0  0  0  0  0  0  0  0  0  0  0  0
   11.2566    5.0034   25.4255 H   0  0  0  0  0  0  0  0  0  0  0  0
   11.9826    2.8844   22.9585 H   0  0  0  0  0  0  0  0  0  0  0  0
    8.6446    0.8924   20.1905 H   0  0  0  0  0  0  0  0  0  0  0  0
    9.7736    0.9244   17.4985 H   0  0  0  0  0  0  0  0  0  0  0  0
   10.6366    1.9184   19.5365 H   0  0  0  0  0  0  0  0  0  0  0  0
   16.6176    2.2494   27.6515 H   0  0  0  0  0  0  0  0  0  0  0  0
   14.4836    3.2904   27.6985 H   0  0  0  0  0  0  0  0  0  0  0  0
   16.0296    6.5474   25.7165 H   0  0  0  0  0  0  0  0  0  0  0  0
   18.1626    5.5064   25.6685 H   0  0  0  0  0  0  0  0  0  0  0  0
   18.4586    3.3564   26.6365 H   0  0  0  0  0  0  0  0  0  0  0  0
   13.8076    6.5454   27.2265 H   0  0  0  0  0  0  0  0  0  0  0  0
   13.0996    5.0334   27.1985 H   0  0  0  0  0  0  0  0  0  0  0  0
   12.4486    7.7404   24.6215 H   0  0  0  0  0  0  0  0  0  0  0  0
   11.4686    7.1544   25.5395 H   0  0  0  0  0  0  0  0  0  0  0  0
   12.6686    7.8054   26.0615 H   0  0  0  0  0  0  0  0  0  0  0  0
   12.4066    3.3244   26.2345 H   0  0  0  0  0  0  0  0  0  0  0  0
   12.5886    5.1814   22.9085 H   0  0  0  0  0  0  0  0  0  0  0  0
   11.0476    5.6044   23.2885 H   0  0  0  0  0  0  0  0  0  0  0  0
    9.9836    4.2454   21.3905 H   0  0  0  0  0  0  0  0  0  0  0  0
   10.6866    2.7554   21.0915 H   0  0  0  0  0  0  0  0  0  0  0  0
   10.7446    6.0454   20.1595 H   0  0  0  0  0  0  0  0  0  0  0  0
   12.3246    7.0404   18.6925 H   0  0  0  0  0  0  0  0  0  0  0  0
   14.3376    5.8944   18.1615 H   0  0  0  0  0  0  0  0  0  0  0  0
   14.7666    3.7534   19.0985 H   0  0  0  0  0  0  0  0  0  0  0  0
   13.1856    2.7584   20.5645 H   0  0  0  0  0  0  0  0  0  0  0  0
   10.2306    3.4884   24.6715 H   0  0  0  0  0  0  0  0  0  0  0  0
    9.3916   -0.8286   21.9885 H   0  0  0  0  0  0  0  0  0  0  0  0
   10.7256    0.1204   21.8435 H   0  0  0  0  0  0  0  0  0  0  0  0
   10.5726   -0.5216   25.9825 H   0  0  0  0  0  0  0  0  0  0  0  0
   10.0756   -2.7866   26.4815 H   0  0  0  0  0  0  0  0  0  0  0  0
    7.8886   -3.6366   26.1085 H   0  0  0  0  0  0  0  0  0  0  0  0
    6.1956   -2.2166   25.2325 H   0  0  0  0  0  0  0  0  0  0  0  0
    6.6906    0.0474   24.7245 H   0  0  0  0  0  0  0  0  0  0  0  0
   12.6316    0.7054   19.3425 H   0  0  0  0  0  0  0  0  0  0  0  0
   12.3716   -0.0396   17.7775 H   0  0  0  0  0  0  0  0  0  0  0  0
   12.7486   -4.3826   19.6945 H   0  0  0  0  0  0  0  0  0  0  0  0
   10.9026   -2.7046   20.4125 H   0  0  0  0  0  0  0  0  0  0  0  0
   12.4516   -2.5836   14.2265 H   0  0  0  0  0  0  0  0  0  0  0  0
   14.7146   -5.5426   16.6765 H   0  0  0  0  0  0  0  0  0  0  0  0
   14.1996   -5.4136   18.1035 H   0  0  0  0  0  0  0  0  0  0  0  0
  1  2  2  0
  2  3  1  0
  3  4  2  0
  3  7  1  0
  4  5  1  0
  5  6  2  0
  6  1  1  0
  7  8  1  0
  8  9  1  0
  8 10  1  0
 10 11  1  0
 10 12  1  0
 12 13  1  0
 13 14  1  0
 13 21  1  0
 14 15  1  0
 15 16  2  0
 16 17  1  0
 17 18  2  0
 18 19  1  0
 19 20  2  0
 20 15  1  0
 21 22  1  0
 22 23  1  0
 22 24  1  0
 22 25  2  0
 23 26  1  0
 24 27  1  0
 27 28  2  0
 28 29  1  0
 29 30  2  0
 30 31  1  0
 31 32  2  0
 32 27  1  0
 33 26  1  0
 33 34  1  0
 34 35  1  0
 35 36  1  0
 35 40  1  0
 35 41  1  0
 36 37  1  0
 36 39  1  0
 37 33  1  0
 37 38  1  0
 40 43  1  0
 41 42  3  0
 43 44  1  0
 43 47  1  0
 44 45  2  0
 45 46  1  0
 46 40  2  0
 47 48  2  0
 48 49  1  0
 49 50  2  0
 50 44  1  0
 50 51  1  0
  1 58  1  0
  2 59  1  0
  4 60  1  0
  5 61  1  0
  6 62  1  0
  7 63  1  0
  7 64  1  0
  8 52  1  0
  9 65  1  0
  9 66  1  0
  9 67  1  0
 10 53  1  0
 11 68  1  0
 12 69  1  0
 12 70  1  0
 13 54  1  0
 14 71  1  0
 14 72  1  0
 16 73  1  0
 17 74  1  0
 18 75  1  0
 19 76  1  0
 20 77  1  0
 21 78  1  0
 26 79  1  0
 26 80  1  0
 28 81  1  0
 29 82  1  0
 30 83  1  0
 31 84  1  0
 32 85  1  0
 33 55  1  0
 36 56  1  0
 37 57  1  0
 38 86  1  0
 39 87  1  0
 45 88  1  0
 46 89  1  0
 48 90  1  0
 51 91  1  0
 51 92  1  0
M  CHG  1   9   1
M  END
>  <BioMolTech Lead Finder dG>
-9.705

>  <BioMolTech Lead Finder VSscore>
-14.287

>  <BioMolTech Lead Finder Rank score>
-13.9

>  <BioMolTech Lead Finder LE>
-0.19

>  <BioMolTech Lead Finder Structure Name>
C:\Users\Odara\AppData\Local\Temp\LeadFinder_4756_1\Ligand_1.sdf

>  <BioMolTech Lead Finder SDF id>
0

>  <BioMolTech Lead Finder Pose rank>
0

>  <BioMolTech Lead Finder version>
2001 1, 19 January 2019

>  <LF dG>
-9.705

>  <LF VSscore>
-14.287

>  <LF Rank Score>
-13.9

>  <LF LE>
-0.19

>  <Preferred Pose_cresset>
true

>  <Favorite_cresset>
false

>  <Protein_cresset>
6Y2F_P | 5 A | No water

>  <MW_cresset>
714.7

>  <#Atoms_cresset>
51

>  <SlogP_cresset>
4

>  <TPSA_cresset>
225.1

>  <Flexibility_cresset>
17.1

>  <#RB_cresset>
18

>  <Rof5_cresset>
3

>  <Filename_cresset>
VTRRT-13V2.1.sdf

>  <Confs_cresset>
0

>  <Poses_cresset>
10

>  <_cresset_fieldpoints>
    -5      14.199583       2.949403      24.488514     -9.2385
    -5      17.110584       5.580403      29.202515     -2.5290
    -5       7.213583       1.400403      22.318514     -5.5670
    -5      11.463583      -0.110597      15.437513     -9.1565
    -5       8.332583      -2.662597      14.666513    -10.2175
    -5       7.768583       2.483403      26.070515     -3.7975
    -5       7.469584      -0.392597      28.183514     -3.7500
    -5       7.565583      -2.129597      20.148514     -4.7680
    -6      11.471583       7.955403      22.676514      5.9885
    -6      20.439583       4.580403      25.529514      3.4490
    -6      14.388583      -5.914598      19.974514     10.0030
    -6      18.615583       0.932403      27.773514      3.5350
    -6       8.677584       3.128403      19.034513      4.3055
    -6      13.879583       8.406403      17.476513      3.5825
    -6      14.780583       8.574403      25.941513      6.6870
    -6      14.015583       0.475403      18.411514     10.5395
    -6      12.409583      -1.593597      27.059513      4.0060
    -6      11.209583       3.703403      27.460514     11.1815
    -7      13.048583       0.825403      21.993513     -3.9215
    -7      12.030583       3.019403      28.341515     -1.9520
    -7      18.990583       0.905403      27.727514     -0.9685
    -7      10.340584       2.771403      26.788513     -3.0505
    -7      14.920584       8.616403      25.100513     -2.2150
    -7      14.689584       3.453403      23.651514     -4.1145
    -7      16.782583       5.921403      29.516514     -1.8350
    -7      20.677584       4.465403      25.473515     -0.9690
    -7      10.702583       6.173403      27.773514     -1.9545
    -7      10.885584       9.673403      25.449514     -0.9750
    -7      13.534583       1.632403      24.617514     -3.3015
    -7       9.100583       6.582403      22.029514     -2.1415
    -7       8.671583       5.090403      24.491514     -2.5385
    -7       7.724584       2.871403      21.601513     -2.9955
    -7       8.801583       3.545403      18.880514     -2.8465
    -7      14.087584      -0.834597      18.922514     -2.7545
    -7      14.052584       8.388403      17.067514     -0.9695
    -7      16.665585       4.690403      17.381514     -0.9715
    -7      10.847584      -0.034597      14.965513     -2.2455
    -7      11.855583      -1.495597      23.471514     -2.7275
    -7       7.549583      -0.464597      28.612514     -1.6955
    -7       8.162583      -2.781597      20.749514     -2.7025
    -7       9.759583      -5.462597      26.921513     -0.9690
    -7      13.052584      -0.766597      21.444513     -2.8860
    -7       5.481584      -4.829597      25.608513     -0.9685
    -7      10.854584      -2.624597      23.038513     -2.7955
    -7       7.206583       1.385403      18.040514     -1.9490
    -7       6.795583       1.333403      22.349514     -2.6450
    -7       9.605583      -4.409597      16.271515     -2.3820
    -7      12.130584      -7.026597      18.247513     -1.5175
    -7      15.661583      -3.503597      19.194513     -1.5250
    -7       7.523583       2.022403      18.134514     -1.8920
    -7      11.243584       3.346403      17.221514     -3.0015
    -7      14.919583      -5.028597      14.047514     -1.1830
    -8      16.314583       4.401403      26.682514      7.1925
    -8      11.588583       4.243403      21.878513      5.8745
    -8      12.328584       5.460402      24.241514      4.8020
    -8      12.749583       4.897403      19.639513      7.2205
    -8      11.742583       4.606403      23.541513      4.7905
    -8       8.379583      -1.399597      25.608513      7.0275
    -8      11.746583      -3.170597      19.002514      4.9175
    -8      11.810583       4.300403      20.582514      5.8300
    -8       9.823584       0.618403      18.960514      4.5925
    -8      10.042583      -0.878597      17.883514      3.9405
    -8       9.953584       0.887403      20.509514      4.1610
    -8      12.486584      -2.539597      13.953514      1.2360

$$$$
W_Site1_VTRRT_D
  xed2sdf_05210316543D
 
 92 97  0  0  1  0  0  0  0  0999 V2000
   12.9928    6.0889   18.4797 C   0  0  0  0  0  0  0  0  0  0  0  0
   13.5778    4.8919   18.8237 C   0  0  0  0  0  0  0  0  0  0  0  0
   12.8098    3.8589   19.3157 C   0  0  0  0  0  0  0  0  0  0  0  0
   11.4508    4.0329   19.4597 C   0  0  0  0  0  0  0  0  0  0  0  0
   10.8638    5.2289   19.1167 C   0  0  0  0  0  0  0  0  0  0  0  0
   11.6348    6.2579   18.6257 C   0  0  0  0  0  0  0  0  0  0  0  0
   13.4548    2.5359   19.6987 C   0  0  0  0  0  0  0  0  0  0  0  0
   13.5978    2.2949   21.2197 C   0  0  0  0  0  0  0  0  0  0  0  0
   15.0538    2.3339   21.5947 N   0  3  0  0  0  0  0  0  0  0  0  0
   13.0088    0.9319   21.6517 C   0  0  0  0  0  0  0  0  0  0  0  0
   14.0418   -0.0541   21.8097 O   0  0  0  0  0  0  0  0  0  0  0  0
   11.9158    0.4359   20.6797 C   0  0  0  0  0  0  0  0  0  0  0  0
   10.5628    0.2669   21.4047 C   0  0  0  0  0  0  0  0  0  0  0  0
    9.4118    0.7739   20.5097 C   0  0  0  0  0  0  0  0  0  0  0  0
    9.4708    0.3399   19.0517 C   0  0  0  0  0  0  0  0  0  0  0  0
    9.6868    1.2759   18.0657 C   0  0  0  0  0  0  0  0  0  0  0  0
    9.7398    0.8939   16.7447 C   0  0  0  0  0  0  0  0  0  0  0  0
    9.5748   -0.4291   16.4047 C   0  0  0  0  0  0  0  0  0  0  0  0
    9.3568   -1.3681   17.3867 C   0  0  0  0  0  0  0  0  0  0  0  0
    9.3048   -0.9841   18.7077 C   0  0  0  0  0  0  0  0  0  0  0  0
   10.5938    1.0469   22.6517 N   0  0  0  0  0  0  0  0  0  0  0  0
   10.8638    0.2049   23.8727 P   0  0  0  0  0  0  0  0  0  0  0  0
   10.4528   -1.3321   23.6517 O   0  0  0  0  0  0  0  0  0  0  0  0
    9.9058    0.6619   25.0877 O   0  0  0  0  0  0  0  0  0  0  0  0
   12.3128    0.2999   24.2737 O   0  0  0  0  0  0  0  0  0  0  0  0
   11.2568   -2.3471   24.2737 C   0  0  0  0  0  0  0  0  0  0  0  0
    8.5538    0.7809   24.9327 C   0  0  0  0  0  0  0  0  0  0  0  0
    7.7338   -0.2551   25.3357 C   0  0  0  0  0  0  0  0  0  0  0  0
    6.3698   -0.1591   25.1907 C   0  0  0  0  0  0  0  0  0  0  0  0
    5.8138    0.9759   24.6447 C   0  0  0  0  0  0  0  0  0  0  0  0
    6.6228    2.0139   24.2447 C   0  0  0  0  0  0  0  0  0  0  0  0
    7.9868    1.9179   24.3877 C   0  0  0  0  0  0  0  0  0  0  0  0
   10.3938   -3.3061   25.1127 C   0  0  0  0  0  0  0  0  0  0  0  0
   10.9748   -4.6241   25.1557 O   0  0  0  0  0  0  0  0  0  0  0  0
    9.9648   -5.6311   24.9407 C   0  0  0  0  0  0  0  0  0  0  0  0
    8.6178   -4.8811   25.0227 C   0  0  0  0  0  0  0  0  0  0  0  0
    8.9718   -3.4691   24.5467 C   0  0  0  0  0  0  0  0  0  0  0  0
    8.9608   -3.4271   23.1107 O   0  0  0  0  0  0  0  0  0  0  0  0
    7.5808   -5.4721   24.2237 O   0  0  0  0  0  0  0  0  0  0  0  0
   10.2398   -6.3341   23.6107 C   0  0  0  0  0  0  0  0  0  0  0  0
   10.0458   -6.6141   26.0277 C   0  0  0  0  0  0  0  0  0  0  0  0
   10.1098   -7.3741   26.8697 N   0  0  0  0  0  0  0  0  0  0  0  0
   11.3068   -6.0311   22.8297 N   0  0  0  0  0  0  0  0  0  0  0  0
   11.2088   -6.8581   21.7557 C   0  0  0  0  0  0  0  0  0  0  0  0
   10.1158   -7.6581   21.8487 C   0  0  0  0  0  0  0  0  0  0  0  0
    9.4958   -7.3111   23.0507 C   0  0  0  0  0  0  0  0  0  0  0  0
   12.3358   -5.1391   22.9397 N   0  0  0  0  0  0  0  0  0  0  0  0
   13.2248   -5.1121   21.9747 C   0  0  0  0  0  0  0  0  0  0  0  0
   13.2288   -5.8971   20.8497 N   0  0  0  0  0  0  0  0  0  0  0  0
   12.2128   -6.7661   20.7557 C   0  0  0  0  0  0  0  0  0  0  0  0
   12.1778   -7.5741   19.6437 N   0  0  0  0  0  0  0  0  0  0  0  0
   13.0878    3.0159   21.6887 H   0  0  0  0  0  0  0  0  0  0  0  0
   12.5728    1.0719   22.5407 H   0  0  0  0  0  0  0  0  0  0  0  0
   10.4128   -0.7011   21.6067 H   0  0  0  0  0  0  0  0  0  0  0  0
   10.3518   -2.8961   26.0237 H   0  0  0  0  0  0  0  0  0  0  0  0
    8.2348   -4.9061   25.9467 H   0  0  0  0  0  0  0  0  0  0  0  0
    8.3448   -2.7481   24.8407 H   0  0  0  0  0  0  0  0  0  0  0  0
   13.5538    6.8359   18.1237 H   0  0  0  0  0  0  0  0  0  0  0  0
   14.5648    4.7709   18.7167 H   0  0  0  0  0  0  0  0  0  0  0  0
   10.8878    3.2869   19.8167 H   0  0  0  0  0  0  0  0  0  0  0  0
    9.8768    5.3509   19.2227 H   0  0  0  0  0  0  0  0  0  0  0  0
   11.2088    7.1279   18.3767 H   0  0  0  0  0  0  0  0  0  0  0  0
   14.3668    2.5039   19.2907 H   0  0  0  0  0  0  0  0  0  0  0  0
   12.8458    1.8189   19.3597 H   0  0  0  0  0  0  0  0  0  0  0  0
   15.4308    3.1479   21.4397 H   0  0  0  0  0  0  0  0  0  0  0  0
   15.1828    2.1429   22.4757 H   0  0  0  0  0  0  0  0  0  0  0  0
   15.5398    1.7279   21.1197 H   0  0  0  0  0  0  0  0  0  0  0  0
   13.7028   -0.9771   21.5967 H   0  0  0  0  0  0  0  0  0  0  0  0
   12.1948   -0.4441   20.2937 H   0  0  0  0  0  0  0  0  0  0  0  0
   11.8028    1.1149   19.9547 H   0  0  0  0  0  0  0  0  0  0  0  0
    9.4168    1.7729   20.5357 H   0  0  0  0  0  0  0  0  0  0  0  0
    8.5768    0.3659   20.8807 H   0  0  0  0  0  0  0  0  0  0  0  0
    9.8078    2.2379   18.3097 H   0  0  0  0  0  0  0  0  0  0  0  0
    9.8978    1.5779   16.0317 H   0  0  0  0  0  0  0  0  0  0  0  0
    9.6128   -0.7081   15.4447 H   0  0  0  0  0  0  0  0  0  0  0  0
    9.2368   -2.3301   17.1407 H   0  0  0  0  0  0  0  0  0  0  0  0
    9.1458   -1.6681   19.4187 H   0  0  0  0  0  0  0  0  0  0  0  0
    9.6838    1.5019   22.7837 H   0  0  0  0  0  0  0  0  0  0  0  0
   11.9328   -1.9101   24.8677 H   0  0  0  0  0  0  0  0  0  0  0  0
   11.7088   -2.8761   23.5567 H   0  0  0  0  0  0  0  0  0  0  0  0
    8.1348   -1.0801   25.7357 H   0  0  0  0  0  0  0  0  0  0  0  0
    5.7818   -0.9141   25.4807 H   0  0  0  0  0  0  0  0  0  0  0  0
    4.8208    1.0449   24.5397 H   0  0  0  0  0  0  0  0  0  0  0  0
    6.2188    2.8399   23.8497 H   0  0  0  0  0  0  0  0  0  0  0  0
    8.5718    2.6749   24.0957 H   0  0  0  0  0  0  0  0  0  0  0  0
    8.5968   -4.2811   22.7227 H   0  0  0  0  0  0  0  0  0  0  0  0
    7.8078   -5.4331   23.2447 H   0  0  0  0  0  0  0  0  0  0  0  0
    9.8178   -8.3521   21.1927 H   0  0  0  0  0  0  0  0  0  0  0  0
    8.6588   -7.7101   23.4257 H   0  0  0  0  0  0  0  0  0  0  0  0
   13.9738   -4.4551   22.0687 H   0  0  0  0  0  0  0  0  0  0  0  0
   12.8068   -7.5041   19.0327 H   0  0  0  0  0  0  0  0  0  0  0  0
   11.5288   -8.1601   19.5387 H   0  0  0  0  0  0  0  0  0  0  0  0
  1  2  2  0
  2  3  1  0
  3  4  2  0
  3  7  1  0
  4  5  1  0
  5  6  2  0
  6  1  1  0
  7  8  1  0
  8  9  1  0
  8 10  1  0
 10 11  1  0
 10 12  1  0
 12 13  1  0
 13 14  1  0
 13 21  1  0
 14 15  1  0
 15 16  2  0
 16 17  1  0
 17 18  2  0
 18 19  1  0
 19 20  2  0
 20 15  1  0
 21 22  1  0
 22 23  1  0
 22 24  1  0
 22 25  2  0
 23 26  1  0
 24 27  1  0
 27 28  2  0
 28 29  1  0
 29 30  2  0
 30 31  1  0
 31 32  2  0
 32 27  1  0
 33 26  1  0
 33 34  1  0
 34 35  1  0
 35 36  1  0
 35 40  1  0
 35 41  1  0
 36 37  1  0
 36 39  1  0
 37 33  1  0
 37 38  1  0
 40 43  1  0
 41 42  3  0
 43 44  1  0
 43 47  1  0
 44 45  2  0
 45 46  1  0
 46 40  2  0
 47 48  2  0
 48 49  1  0
 49 50  2  0
 50 44  1  0
 50 51  1  0
  1 58  1  0
  2 59  1  0
  4 60  1  0
  5 61  1  0
  6 62  1  0
  7 63  1  0
  7 64  1  0
  8 52  1  0
  9 65  1  0
  9 66  1  0
  9 67  1  0
 10 53  1  0
 11 68  1  0
 12 69  1  0
 12 70  1  0
 13 54  1  0
 14 71  1  0
 14 72  1  0
 16 73  1  0
 17 74  1  0
 18 75  1  0
 19 76  1  0
 20 77  1  0
 21 78  1  0
 26 79  1  0
 26 80  1  0
 28 81  1  0
 29 82  1  0
 30 83  1  0
 31 84  1  0
 32 85  1  0
 33 55  1  0
 36 56  1  0
 37 57  1  0
 38 86  1  0
 39 87  1  0
 45 88  1  0
 46 89  1  0
 48 90  1  0
 51 91  1  0
 51 92  1  0
M  CHG  1   9   1
M  END
>  <BioMolTech Lead Finder dG>
-5.08

>  <BioMolTech Lead Finder VSscore>
-11.932

>  <BioMolTech Lead Finder Rank score>
-12.486

>  <BioMolTech Lead Finder LE>
-0.1

>  <BioMolTech Lead Finder Structure Name>
C:\Users\Odara\AppData\Local\Temp\LeadFinder_10252_1\Ligand_1.sdf

>  <BioMolTech Lead Finder SDF id>
0

>  <BioMolTech Lead Finder Pose rank>
0

>  <BioMolTech Lead Finder version>
2001 1, 19 January 2019

>  <LF dG>
-5.08

>  <LF VSscore>
-11.932

>  <LF Rank Score>
-12.486

>  <LF LE>
-0.1

>  <Preferred Pose_cresset>
true

>  <Favorite_cresset>
false

>  <Protein_cresset>
6Y2F_P | 5 A | With water

>  <MW_cresset>
714.7

>  <#Atoms_cresset>
51

>  <SlogP_cresset>
4

>  <TPSA_cresset>
225.1

>  <Flexibility_cresset>
17.1

>  <#RB_cresset>
18

>  <Rof5_cresset>
3

>  <Filename_cresset>
VTRRT-13V2.1.sdf

>  <Confs_cresset>
0

>  <Poses_cresset>
10

>  <_cresset_fieldpoints>
    -5      12.059812       3.923851      16.312710     -2.8575
    -5      12.723812       5.944851      21.677710     -3.2295
    -5      12.462811      -0.232149      17.512711     -2.4115
    -5      14.844812      -0.066149      23.480711     -7.6070
    -5      10.505812       1.456851      26.871710     -4.7895
    -5      11.221812      -8.553148      28.123711     -7.7330
    -5       8.672812      -1.717149      22.560711     -8.0745
    -5       6.679812       0.379851      17.455711     -2.6815
    -5      10.055812      -2.791149      21.844711     -6.1485
    -5       7.484812       2.027851      27.523710     -3.6230
    -5      12.960812      -5.080149      24.902710     -6.7410
    -5       5.994812      -6.185149      24.954710     -2.6725
    -5      15.167812      -6.964149      20.988710     -2.8580
    -6      12.380812       9.047852      17.452709      3.1935
    -6      16.184813       6.318851      17.974710      3.2365
    -6      16.466812       4.032851      19.534710      4.0495
    -6      12.718812      -2.339149      21.290710      5.7635
    -6      13.229812      -2.381149      20.722710      5.7230
    -6       9.977812      -9.283149      19.189711     11.3680
    -6       7.646812      -5.207149      21.548710     12.3855
    -6       8.120811      -2.828149      27.250710      6.7530
    -6       3.418812      -1.098149      25.097710      3.6620
    -6       9.162812       3.316851      22.125710      8.0585
    -7      13.004812       5.577851      22.153711     -2.4215
    -7      16.695812       3.529851      19.295710     -1.9815
    -7      12.789812       1.989851      16.605711     -2.7630
    -7      10.536812       3.489851      22.475710     -4.5115
    -7      12.579812       9.284851      17.403709     -0.9690
    -7      14.895812      -0.381149      19.454710     -2.5295
    -7      17.805813       2.362851      22.227711     -0.9555
    -7      14.220812      -1.115149      23.877710     -2.7565
    -7      11.807812       3.428851      16.157711     -2.7855
    -7       7.949812       3.657851      19.709711     -2.5395
    -7       9.527812      -3.317149      14.610710     -0.9715
    -7      12.834812      -0.124149      17.684711     -3.3710
    -7       6.319812       0.527851      17.824711     -1.8605
    -7      10.640812      -0.605149      27.152710     -2.6960
    -7       7.008812       2.185851      27.761711     -1.6995
    -7       8.172812      -2.713149      27.622711     -2.4395
    -7       9.401812      -4.073149      28.166710     -1.9785
    -7       7.951812      -1.516149      22.309710     -4.6070
    -7       6.195812       0.595851      19.854710     -1.8280
    -7       6.175812       0.923851      21.131710     -2.2375
    -7       6.937812      -7.609149      25.247711     -2.0890
    -7      11.645812      -2.895149      20.018711     -3.1800
    -7      10.383812      -3.299149      21.290710     -4.8840
    -7      13.199812      -5.221148      25.234711     -2.8665
    -7      12.159812      -2.678149      19.242710     -2.5215
    -7      12.391811      -2.264149      18.628710     -2.2815
    -7      12.317812     -10.142149      21.075710     -1.5185
    -8      10.385812       0.435851      20.156710      6.0205
    -8       9.531812      -0.042149      17.737711      7.2270
    -8      12.658812       3.054851      19.998711      5.7560
    -8      12.222812       5.052851      18.973711      7.2140
    -8      12.742812       1.670851      20.598711      5.9665
    -8       9.562812       0.368851      19.155710      5.8485
    -8       7.146812       0.879851      24.781710      7.0465
    -8       9.262812      -4.053149      25.311710      4.5645
    -8       9.593812      -6.595149      24.368710      4.5870
    -8      10.014812      -7.260149      22.517710      4.9350
    -8      14.104812      -4.190149      22.017710      1.2630

$$$$
Site1_NHC_D
  xed2sdf_05210316543D
 
 31 32  0  0  1  0  0  0  0  0999 V2000
   10.8041    3.6858   19.7617 O   0  0  0  0  0  0  0  0  0  0  0  0
   14.0771    2.4178   19.0357 O   0  0  0  0  0  0  0  0  0  0  0  0
   14.0041    4.5548   20.5247 O   0  0  0  0  0  0  0  0  0  0  0  0
   11.3571    6.3588   18.2417 O   0  0  0  0  0  0  0  0  0  0  0  0
   10.1811    3.2178   17.2437 O   0  0  0  0  0  0  0  0  0  0  0  0
    8.1301   -1.7262   16.4167 O   0  0  0  0  0  0  0  0  0  0  0  0
   11.0301    1.5978   18.5737 N   0  0  0  0  0  0  0  0  0  0  0  0
    9.7471    1.1898   16.5947 N   0  0  0  0  0  0  0  0  0  0  0  0
    9.3461   -1.0622   16.0267 N   0  0  0  0  0  0  0  0  0  0  0  0
   12.8981    3.2068   18.8207 C   0  0  0  0  0  0  0  0  0  0  0  0
   13.0021    4.5828   19.4967 C   0  0  0  0  0  0  0  0  0  0  0  0
   11.6621    2.5728   19.4727 C   0  0  0  0  0  0  0  0  0  0  0  0
   11.6131    4.8168   20.1197 C   0  0  0  0  0  0  0  0  0  0  0  0
   10.9861    6.1238   19.6087 C   0  0  0  0  0  0  0  0  0  0  0  0
   11.1751    0.2868   18.8117 C   0  0  0  0  0  0  0  0  0  0  0  0
   10.3371    2.0198   17.4967 C   0  0  0  0  0  0  0  0  0  0  0  0
   10.6131   -0.5952   17.9647 C   0  0  0  0  0  0  0  0  0  0  0  0
    9.8801   -0.1322   16.8267 C   0  0  0  0  0  0  0  0  0  0  0  0
   12.8151    3.2728   17.8267 H   0  0  0  0  0  0  0  0  0  0  0  0
   13.2591    5.3038   18.8537 H   0  0  0  0  0  0  0  0  0  0  0  0
   11.8831    2.0538   20.2987 H   0  0  0  0  0  0  0  0  0  0  0  0
   11.6831    4.9068   21.1127 H   0  0  0  0  0  0  0  0  0  0  0  0
   13.9331    1.4608   18.7587 H   0  0  0  0  0  0  0  0  0  0  0  0
   13.7781    3.8808   21.2367 H   0  0  0  0  0  0  0  0  0  0  0  0
   11.7691    7.2688   18.1257 H   0  0  0  0  0  0  0  0  0  0  0  0
    8.2051   -2.7222   16.3017 H   0  0  0  0  0  0  0  0  0  0  0  0
    9.7341   -1.2702   15.2657 H   0  0  0  0  0  0  0  0  0  0  0  0
    9.9901    6.0618   19.6747 H   0  0  0  0  0  0  0  0  0  0  0  0
   11.3211    6.8818   20.1687 H   0  0  0  0  0  0  0  0  0  0  0  0
   11.6931   -0.0302   19.6057 H   0  0  0  0  0  0  0  0  0  0  0  0
   10.7081   -1.5762   18.1317 H   0  0  0  0  0  0  0  0  0  0  0  0
  1 12  1  0
  1 13  1  0
  4 14  1  0
  5 16  2  0
  6  9  1  0
  7 15  1  0
  7 16  1  0
  8 16  1  0
  8 18  2  0
  9 18  1  0
 10  2  1  0
 10 11  1  0
 10 12  1  0
 11  3  1  0
 11 13  1  0
 12  7  1  0
 13 14  1  0
 15 17  2  0
 17 18  1  0
  2 23  1  0
  3 24  1  0
  4 25  1  0
  6 26  1  0
  9 27  1  0
 10 19  1  0
 11 20  1  0
 12 21  1  0
 13 22  1  0
 14 28  1  0
 14 29  1  0
 15 30  1  0
 17 31  1  0
M  END
>  <BioMolTech Lead Finder dG>
-5.698

>  <BioMolTech Lead Finder VSscore>
-7.708

>  <BioMolTech Lead Finder Rank score>
-8.659

>  <BioMolTech Lead Finder LE>
-0.317

>  <BioMolTech Lead Finder Structure Name>
C:\Users\Odara\AppData\Local\Temp\LeadFinder_3516_1\Ligand_1.sdf

>  <BioMolTech Lead Finder SDF id>
0

>  <BioMolTech Lead Finder Pose rank>
0

>  <BioMolTech Lead Finder version>
2001 1, 19 January 2019

>  <PUBCHEM_COMPOUND_CID>
197020

>  <PUBCHEM_COMPOUND_CANONICALIZED>
1

>  <PUBCHEM_CACTVS_COMPLEXITY>
398

>  <PUBCHEM_CACTVS_HBOND_ACCEPTOR>
6

>  <PUBCHEM_CACTVS_HBOND_DONOR>
5

>  <PUBCHEM_CACTVS_ROTATABLE_BOND>
3

>  <PUBCHEM_CACTVS_SUBSKEYS>
AAADccBzOAAAAAAAAAAAAAAAAAAAASAAAAAgAAAAAAAAAAAAAAAAHgAUCAAACBThgAYBAANQBgCoACJmdACAAAEAAgAoAAAYABCDEAIAgAAOQAAHFgITAADwMAIAAAAAAAAAAAAAAAAAAAAAAAAAAAAAAA==

>  <PUBCHEM_IUPAC_OPENEYE_NAME>
1-[(2R,3R,4S,5R)-3,4-dihydroxy-5-(hydroxymethyl)tetrahydrofuran-2-yl]-4-(hydroxyamino)pyrimidin-2-one

>  <PUBCHEM_IUPAC_CAS_NAME>
1-[(2R,3R,4S,5R)-3,4-dihydroxy-5-(hydroxymethyl)-2-oxolanyl]-4-(hydroxyamino)-2-pyrimidinone

>  <PUBCHEM_IUPAC_NAME_MARKUP>
1-[(2<I>R</I>,3<I>R</I>,4<I>S</I>,5<I>R</I>)-3,4-dihydroxy-5-(hydroxymethyl)oxolan-2-yl]-4-(hydroxyamino)pyrimidin-2-one

>  <PUBCHEM_IUPAC_NAME>
1-[(2R,3R,4S,5R)-3,4-dihydroxy-5-(hydroxymethyl)oxolan-2-yl]-4-(hydroxyamino)pyrimidin-2-one

>  <PUBCHEM_IUPAC_SYSTEMATIC_NAME>
1-[(2R,3R,4S,5R)-5-(hydroxymethyl)-3,4-bis(oxidanyl)oxolan-2-yl]-4-(oxidanylamino)pyrimidin-2-one

>  <PUBCHEM_IUPAC_TRADITIONAL_NAME>
1-[(2R,3R,4S,5R)-3,4-dihydroxy-5-methylol-tetrahydrofuran-2-yl]-4-(hydroxyamino)pyrimidin-2-one

>  <PUBCHEM_IUPAC_INCHI>
InChI=1S/C9H13N3O6/c13-3-4-6(14)7(15)8(18-4)12-2-1-5(11-17)10-9(12)16/h1-2,4,6-8,13-15,17H,3H2,(H,10,11,16)/t4-,6-,7-,8-/m1/s1

>  <PUBCHEM_IUPAC_INCHIKEY>
XCUAIINAJCDIPM-XVFCMESISA-N

>  <PUBCHEM_XLOGP3>
-2.2

>  <PUBCHEM_EXACT_MASS>
259.080435

>  <PUBCHEM_MOLECULAR_FORMULA>
C9H13N3O6

>  <PUBCHEM_MOLECULAR_WEIGHT>
259.22

>  <PUBCHEM_OPENEYE_CAN_SMILES>
C1=CN(C(=O)N=C1NO)C2C(C(C(O2)CO)O)O

>  <PUBCHEM_OPENEYE_ISO_SMILES>
C1=CN(C(=O)N=C1NO)[C@H]2[C@@H]([C@@H]([C@H](O2)CO)O)O

>  <PUBCHEM_CACTVS_TPSA>
135

>  <PUBCHEM_MONOISOTOPIC_WEIGHT>
259.080435

>  <PUBCHEM_TOTAL_CHARGE>
0

>  <PUBCHEM_HEAVY_ATOM_COUNT>
18

>  <PUBCHEM_ATOM_DEF_STEREO_COUNT>
4

>  <PUBCHEM_ATOM_UDEF_STEREO_COUNT>
0

>  <PUBCHEM_BOND_DEF_STEREO_COUNT>
0

>  <PUBCHEM_BOND_UDEF_STEREO_COUNT>
0

>  <PUBCHEM_ISOTOPIC_ATOM_COUNT>
0

>  <PUBCHEM_COMPONENT_COUNT>
1

>  <PUBCHEM_CACTVS_TAUTO_COUNT>
-1

>  <PUBCHEM_COORDINATE_TYPE>
1
5
255

>  <PUBCHEM_BONDANNOTATIONS>
13  14  6
15  17  8
17  18  8
10  2  5
11  3  5
12  7  6
7  15  8
7  16  8
8  16  8
8  18  8

>  <LF dG>
-5.698

>  <LF VSscore>
-7.708

>  <LF Rank Score>
-8.659

>  <LF LE>
-0.317

>  <Preferred Pose_cresset>
true

>  <Favorite_cresset>
false

>  <Protein_cresset>
6Y2F_P | 5 A | No water

>  <MW_cresset>
259.2

>  <#Atoms_cresset>
18

>  <SlogP_cresset>
-1.3

>  <TPSA_cresset>
134.8

>  <Flexibility_cresset>
5.7

>  <#RB_cresset>
7

>  <Rof5_cresset>
0

>  <Filename_cresset>
Beta-D-N4-hydroxycytidine-NHC-EIDD-1931.sdf

>  <Confs_cresset>
0

>  <Poses_cresset>
10

>  <_cresset_fieldpoints>
    -5      10.447933       4.993302      17.162140    -22.8228
    -5       9.174013       3.438683      15.893055    -21.6238
    -5      15.574104       3.721791      19.618696    -11.1385
    -6      13.763104      -0.159209      19.472696     11.2170
    -6      12.891105       2.650791      22.195698      9.2920
    -6       9.456104      -3.340209      15.110697     10.7585
    -6      12.291105       8.770791      18.941696      4.3160
    -7      12.404105       2.895791      22.724697     -1.6980
    -7      14.311105       1.632791      21.291697     -1.9300
    -7      13.745105       7.845791      19.297697     -1.4950
    -7      13.698105       6.617791      21.908697     -1.5975
    -7      11.483105       4.968791      16.398697     -2.4945
    -7      10.341105      -3.496209      16.491697     -1.4285
    -7       7.942105      -1.588209      18.761698     -1.4845
    -7       8.623105       1.470791      19.867697     -1.9345
    -7      12.992105       0.865791      16.558697     -2.4800
    -7       7.200105       0.636791      16.157698     -1.3125
    -7       8.555105       3.827791      19.023697     -2.2585
    -8      12.058105       5.479791      19.933697      4.0410
    -8      12.338104       3.963791      19.282698      4.1530
    -8      10.681105      -0.431209      18.017696      3.8790
    -8      11.347105       1.427791      18.809696      2.4020

$$$$
