969516
  RxDock  02242101563D
librxdock.so/0.1.0
 29 30  0  0  0  0  0  0  0  0999 V2000
  -43.4557    1.0669   19.3324 O   0  0  0  0  0  0
  -54.2396   -6.4148   15.4756 O   0  0  0  0  0  0
  -42.1987   -1.4109   19.2550 O   0  0  0  0  0  0
  -52.8679   -7.8822   17.3966 O   0  0  0  0  0  0
  -47.9608    0.5355   13.4132 O   0  0  0  0  0  0
  -50.8275   -0.3994   13.2427 O   0  0  0  0  0  0
  -45.1518   -0.4931   16.5135 C   0  0  0  0  0  0
  -51.0465   -4.6664   15.5471 C   0  0  0  0  0  0
  -48.8108   -1.7174   13.3058 C   0  0  0  0  0  0
  -44.8002    0.4490   17.4665 C   0  0  0  0  0  0
  -52.3447   -4.9996   15.1963 C   0  0  0  0  0  0
  -43.8035    0.1434   18.3934 C   0  0  0  0  0  0
  -52.9634   -6.0840   15.8186 C   0  0  0  0  0  0
  -44.5342   -1.7322   16.4618 C   0  0  0  0  0  0
  -50.3500   -5.3878   16.5032 C   0  0  0  0  0  0
  -46.2040   -0.1704   15.5335 C   0  0  0  0  0  0
  -50.3930   -3.5203   14.8907 C   0  0  0  0  0  0
  -43.1724   -1.1001   18.3544 C   0  0  0  0  0  0
  -52.2751   -6.8202   16.7831 C   0  0  0  0  0  0
  -47.8593   -0.6342   13.7742 C   0  0  0  0  0  0
  -50.2798   -1.4498   13.5673 C   0  0  0  0  0  0
  -43.5377   -2.0378   17.3884 C   0  0  0  0  0  0
  -50.9685   -6.4719   17.1253 C   0  0  0  0  0  0
  -46.8107   -1.0680   14.7443 C   0  0  0  0  0  0
  -51.0386   -2.5659   14.2055 C   0  0  0  0  0  0
  -43.8191    0.7867   20.6829 C   0  0  0  0  0  0
  -55.2044   -5.3644   15.4777 C   0  0  0  0  0  0
  -41.7132   -2.1867   18.9247 H   0  0  0  0  0  0
  -53.7160   -8.0682   16.9585 H   0  0  0  0  0  0
  1 12  1  0  0  0
  1 26  1  0  0  0
  2 13  1  0  0  0
  2 27  1  0  0  0
  3 18  1  0  0  0
  3 28  1  0  0  0
  4 19  1  0  0  0
  4 29  1  0  0  0
  5 20  2  0  0  0
  6 21  2  0  0  0
  7 10  2  0  0  0
  7 14  1  0  0  0
  7 16  1  0  0  0
  8 11  2  0  0  0
  8 15  1  0  0  0
  8 17  1  0  0  0
  9 20  1  0  0  0
  9 21  1  0  0  0
 10 12  1  0  0  0
 11 13  1  0  0  0
 12 18  2  0  0  0
 13 19  2  0  0  0
 14 22  2  0  0  0
 15 23  2  0  0  0
 16 24  2  0  0  0
 17 25  2  0  0  0
 18 22  1  0  0  0
 19 23  1  0  0  0
 20 24  1  0  0  0
 21 25  1  0  0  0
M  END
>  <CHROM.0>
61.68278668,-177.67739473,-177.46097478

>  <CHROM.1>
110.10108122,-50.29844649,-164.09638471,8.05323079,-166.28048481,16.64724886
-55.80433278,50.94186244,19.13527846,-160.73442793,-48.42478484,-2.57036477
16.17711778,-0.19654281,0.55634291,2.34417292

>  <Name>
969516

>  <PUBCHEM_ATOM_DEF_STEREO_COUNT>
0

>  <PUBCHEM_ATOM_UDEF_STEREO_COUNT>
0

>  <PUBCHEM_BOND_DEF_STEREO_COUNT>
2

>  <PUBCHEM_BOND_UDEF_STEREO_COUNT>
0

>  <PUBCHEM_CACTVS_TAUTO_COUNT>
49

>  <PUBCHEM_COMPONENT_COUNT>
1

>  <PUBCHEM_COMPOUND_CID>
969516

>  <PUBCHEM_CONFORMER_DIVERSEORDER>
82
80
54
21
40
74
55
61
46
34
47
4
43
38
81
26
17
78
6
35
23
73
57
63
2
39
32
14
1
30
56
36
72
41
70
60
3
69
27
58
33
25
49
71
42
65
28
76
5
48
52
77
37
79
59
9
29
8
13
50
31
20
62
7
44
16
66
75
51
68
67
22
64
45
24
12
19
11
18
15
10
53

>  <PUBCHEM_CONFORMER_ID>
000ECB2C00000052

>  <PUBCHEM_CONFORMER_RMSD>
1

>  <PUBCHEM_COORDINATE_TYPE>
2
5
10

>  <PUBCHEM_EFFECTIVE_ROTOR_COUNT>
8

>  <PUBCHEM_FEATURE_SELFOVERLAP>
45.672

>  <PUBCHEM_HEAVY_ATOM_COUNT>
27

>  <PUBCHEM_ISOTOPIC_ATOM_COUNT>
0

>  <PUBCHEM_MMFF94_ENERGY>
92.651

>  <PUBCHEM_MMFF94_PARTIAL_CHARGES>
39
1 -0.36
10 -0.15
11 -0.15
12 0.08
13 0.08
14 -0.15
15 -0.15
16 -0.18
17 -0.18
18 0.08
19 0.08
2 -0.36
20 0.49
21 0.49
22 -0.15
23 -0.15
24 -0.14
25 -0.14
26 0.28
27 0.28
3 -0.53
30 0.15
31 0.15
32 0.15
33 0.15
34 0.15
35 0.15
36 0.15
37 0.15
38 0.15
39 0.15
4 -0.53
40 0.45
41 0.45
5 -0.57
6 -0.57
7 0.03
8 0.03
9 0.12

>  <PUBCHEM_PHARMACOPHORE_FEATURES>
9
1 1 acceptor
1 2 acceptor
1 3 donor
1 4 donor
1 5 acceptor
1 6 acceptor
1 9 anion
6 7 10 12 14 18 22 rings
6 8 11 13 15 19 23 rings

>  <PUBCHEM_SHAPE_FINGERPRINT>
10 15 12751240315890217573
10319688 140 18337398252872831732
10669705 162 18337104575972446653
10917259 69 18192703459598944165
11211813 128 18272932692783743174
11410812 94 16370996361790263860
117089 54 18267879293612551318
11828532 37 17896331370365246675
12342043 65 18188209905213906085
12758862 65 18410567410511369408
12760667 363 18411139121760541745
13533116 47 18272092759487660785
1361 87 17822307806824084883
13673619 4 18187085057046420093
13782708 43 18187646942401274497
13911852 28 18342177760919306525
13955234 65 18127412482311963032
14251764 75 8934705700369515222
14931854 50 17458064828953579058
15188451 53 18040713637372491534
15510800 12 18334017193917594602
15519825 34 15769481128208245039
16096371 109 17842545529393793568
1768 124 17918273151673982878
190975 80 18273208699771038632
1979834 28 17274556351083136116
20105231 36 17632018551801690966
20165401 70 18269560610432539175
2026 5 18187081767692646843
21033650 10 16081361917848681093
21307412 95 17967532394149105875
21315764 119 16081364133534249763
21585481 104 14779540124190440126
21585482 111 9150633321735644751
21585482 310 18261684739337370307
21682296 61 18408609175854266457
22149856 69 18130234757594157200
229767 8 17769106648757633326
2303208 19 17749956686811695209
23559900 14 17895477059232625973
270888 7 9367336016755256852
3014063 24 18201716258419056095
32027 91 18336829796691442577
3383291 50 18335703857830032987
34797466 226 16806453698591057205
4046055 4 18260545598226657845
439807 62 17967816037266467641
4461854 278 17917996092435725982
46194498 28 17749669692248635052
474113 269 18060412513729437109
5104073 3 17843397381307680056
513202 73 18411700985483149125
5718773 13 18410291402073184614
59682541 35 18342166779510532640
6126387 218 18059849546448719409
96874 4 17846488266996003727
9689198 14 12751239220357137022
9962374 69 18270389628765581455

>  <PUBCHEM_SHAPE_MULTIPOLES>
520.43
25.03
3.33
1.58
5.48
1.87
-0.01
-22.64
-2.84
-3.92
0.39
2.68
-0.7
1.55

>  <PUBCHEM_SHAPE_SELFOVERLAP>
1103.249

>  <PUBCHEM_SHAPE_VOLUME>
290

>  <RI>
-2.80906e+08

>  <Rbt.Current_Directory>
/root/miniconda3/envs/rdock/share/rxdock-2013.1.1_148c5bd1-0/data/ligands/prepped_ligands/Curcumin

>  <Rbt.Executable>
rbdock/0.1.0

>  <Rbt.Library>
librxdock.so/0.1.0

>  <Rbt.Parameter_File>
/root/miniconda3/envs/rdock/share/rxdock-2013.1.1_148c5bd1-0/data/scripts/dock.prm

>  <Rbt.Receptor>
def.prm

>  <SCORE>
-21.0937

>  <SCORE.INTER>
-14.8188

>  <SCORE.INTER.CONST>
1

>  <SCORE.INTER.POLAR>
-1.5465

>  <SCORE.INTER.REPUL>
0.000645919

>  <SCORE.INTER.ROT>
8

>  <SCORE.INTER.VDW>
-22.964

>  <SCORE.INTER.norm>
-0.548846

>  <SCORE.INTRA>
-5.20989

>  <SCORE.INTRA.DIHEDRAL>
2.59387

>  <SCORE.INTRA.DIHEDRAL.0>
9.63727

>  <SCORE.INTRA.POLAR>
0.0366683

>  <SCORE.INTRA.POLAR.0>
-0.167074

>  <SCORE.INTRA.REPUL>
0

>  <SCORE.INTRA.REPUL.0>
0

>  <SCORE.INTRA.VDW>
-6.63149

>  <SCORE.INTRA.VDW.0>
9.25931

>  <SCORE.INTRA.norm>
-0.192959

>  <SCORE.RESTR>
0

>  <SCORE.RESTR.CAVITY>
0

>  <SCORE.RESTR.norm>
0

>  <SCORE.SYSTEM>
-1.06496

>  <SCORE.SYSTEM.CONST>
0

>  <SCORE.SYSTEM.DIHEDRAL>
0.0463464

>  <SCORE.SYSTEM.POLAR>
-0.0077543

>  <SCORE.SYSTEM.VDW>
-1.06177

>  <SCORE.SYSTEM.norm>
-0.039443

>  <SCORE.heavy>
27

>  <SCORE.norm>
-0.781247

$$$$
969516
  RxDock  02242101563D
librxdock.so/0.1.0
 29 30  0  0  0  0  0  0  0  0999 V2000
  -45.9370   -0.2396   20.4756 O   0  0  0  0  0  0
  -53.9761   -7.0360   16.7723 O   0  0  0  0  0  0
  -43.3852   -1.1136   21.1464 O   0  0  0  0  0  0
  -51.8266   -8.2976   18.0024 O   0  0  0  0  0  0
  -46.6572   -3.1155   13.6428 O   0  0  0  0  0  0
  -50.6307   -1.5009   13.1692 O   0  0  0  0  0  0
  -44.9681   -1.9821   17.4290 C   0  0  0  0  0  0
  -51.2072   -4.9490   15.6609 C   0  0  0  0  0  0
  -48.2859   -1.3398   13.7027 C   0  0  0  0  0  0
  -45.7256   -1.2522   18.3305 C   0  0  0  0  0  0
  -52.4964   -5.4301   15.8221 C   0  0  0  0  0  0
  -45.1948   -0.9564   19.5862 C   0  0  0  0  0  0
  -52.7099   -6.5598   16.6122 C   0  0  0  0  0  0
  -43.6946   -2.4243   17.7484 C   0  0  0  0  0  0
  -50.1257   -5.5665   16.2681 C   0  0  0  0  0  0
  -45.5281   -2.2939   16.1020 C   0  0  0  0  0  0
  -50.9814   -3.7550   14.8273 C   0  0  0  0  0  0
  -43.9140   -1.3949   19.9228 C   0  0  0  0  0  0
  -51.6311   -7.1928   17.2299 C   0  0  0  0  0  0
  -47.1649   -2.1888   14.2689 C   0  0  0  0  0  0
  -49.6712   -1.9491   13.7914 C   0  0  0  0  0  0
  -43.1639   -2.1286   19.0038 C   0  0  0  0  0  0
  -50.3392   -6.6959   17.0579 C   0  0  0  0  0  0
  -46.6793   -1.7993   15.6260 C   0  0  0  0  0  0
  -49.7911   -3.1645   14.6501 C   0  0  0  0  0  0
  -45.9296    1.1793   20.3308 C   0  0  0  0  0  0
  -54.6434   -7.5088   15.6037 C   0  0  0  0  0  0
  -42.4157   -1.1022   21.0651 H   0  0  0  0  0  0
  -52.7158   -8.6517   17.8295 H   0  0  0  0  0  0
  1 12  1  0  0  0
  1 26  1  0  0  0
  2 13  1  0  0  0
  2 27  1  0  0  0
  3 18  1  0  0  0
  3 28  1  0  0  0
  4 19  1  0  0  0
  4 29  1  0  0  0
  5 20  2  0  0  0
  6 21  2  0  0  0
  7 10  2  0  0  0
  7 14  1  0  0  0
  7 16  1  0  0  0
  8 11  2  0  0  0
  8 15  1  0  0  0
  8 17  1  0  0  0
  9 20  1  0  0  0
  9 21  1  0  0  0
 10 12  1  0  0  0
 11 13  1  0  0  0
 12 18  2  0  0  0
 13 19  2  0  0  0
 14 22  2  0  0  0
 15 23  2  0  0  0
 16 24  2  0  0  0
 17 25  2  0  0  0
 18 22  1  0  0  0
 19 23  1  0  0  0
 20 24  1  0  0  0
 21 25  1  0  0  0
M  END
>  <CHROM.0>
-173.19803515,-59.74942825,56.45525847

>  <CHROM.1>
-82.43709542,63.37519456,-153.44645131,15.15032941,7.68140222,176.75528783
80.45269028,-166.50430973,11.75752681,-4.06251904,-48.41492698,-3.36681549
16.80914706,0.04232465,0.65826324,2.02111561

>  <Name>
969516

>  <PUBCHEM_ATOM_DEF_STEREO_COUNT>
0

>  <PUBCHEM_ATOM_UDEF_STEREO_COUNT>
0

>  <PUBCHEM_BOND_DEF_STEREO_COUNT>
2

>  <PUBCHEM_BOND_UDEF_STEREO_COUNT>
0

>  <PUBCHEM_CACTVS_TAUTO_COUNT>
49

>  <PUBCHEM_COMPONENT_COUNT>
1

>  <PUBCHEM_COMPOUND_CID>
969516

>  <PUBCHEM_CONFORMER_DIVERSEORDER>
82
80
54
21
40
74
55
61
46
34
47
4
43
38
81
26
17
78
6
35
23
73
57
63
2
39
32
14
1
30
56
36
72
41
70
60
3
69
27
58
33
25
49
71
42
65
28
76
5
48
52
77
37
79
59
9
29
8
13
50
31
20
62
7
44
16
66
75
51
68
67
22
64
45
24
12
19
11
18
15
10
53

>  <PUBCHEM_CONFORMER_ID>
000ECB2C00000052

>  <PUBCHEM_CONFORMER_RMSD>
1

>  <PUBCHEM_COORDINATE_TYPE>
2
5
10

>  <PUBCHEM_EFFECTIVE_ROTOR_COUNT>
8

>  <PUBCHEM_FEATURE_SELFOVERLAP>
45.672

>  <PUBCHEM_HEAVY_ATOM_COUNT>
27

>  <PUBCHEM_ISOTOPIC_ATOM_COUNT>
0

>  <PUBCHEM_MMFF94_ENERGY>
92.651

>  <PUBCHEM_MMFF94_PARTIAL_CHARGES>
39
1 -0.36
10 -0.15
11 -0.15
12 0.08
13 0.08
14 -0.15
15 -0.15
16 -0.18
17 -0.18
18 0.08
19 0.08
2 -0.36
20 0.49
21 0.49
22 -0.15
23 -0.15
24 -0.14
25 -0.14
26 0.28
27 0.28
3 -0.53
30 0.15
31 0.15
32 0.15
33 0.15
34 0.15
35 0.15
36 0.15
37 0.15
38 0.15
39 0.15
4 -0.53
40 0.45
41 0.45
5 -0.57
6 -0.57
7 0.03
8 0.03
9 0.12

>  <PUBCHEM_PHARMACOPHORE_FEATURES>
9
1 1 acceptor
1 2 acceptor
1 3 donor
1 4 donor
1 5 acceptor
1 6 acceptor
1 9 anion
6 7 10 12 14 18 22 rings
6 8 11 13 15 19 23 rings

>  <PUBCHEM_SHAPE_FINGERPRINT>
10 15 12751240315890217573
10319688 140 18337398252872831732
10669705 162 18337104575972446653
10917259 69 18192703459598944165
11211813 128 18272932692783743174
11410812 94 16370996361790263860
117089 54 18267879293612551318
11828532 37 17896331370365246675
12342043 65 18188209905213906085
12758862 65 18410567410511369408
12760667 363 18411139121760541745
13533116 47 18272092759487660785
1361 87 17822307806824084883
13673619 4 18187085057046420093
13782708 43 18187646942401274497
13911852 28 18342177760919306525
13955234 65 18127412482311963032
14251764 75 8934705700369515222
14931854 50 17458064828953579058
15188451 53 18040713637372491534
15510800 12 18334017193917594602
15519825 34 15769481128208245039
16096371 109 17842545529393793568
1768 124 17918273151673982878
190975 80 18273208699771038632
1979834 28 17274556351083136116
20105231 36 17632018551801690966
20165401 70 18269560610432539175
2026 5 18187081767692646843
21033650 10 16081361917848681093
21307412 95 17967532394149105875
21315764 119 16081364133534249763
21585481 104 14779540124190440126
21585482 111 9150633321735644751
21585482 310 18261684739337370307
21682296 61 18408609175854266457
22149856 69 18130234757594157200
229767 8 17769106648757633326
2303208 19 17749956686811695209
23559900 14 17895477059232625973
270888 7 9367336016755256852
3014063 24 18201716258419056095
32027 91 18336829796691442577
3383291 50 18335703857830032987
34797466 226 16806453698591057205
4046055 4 18260545598226657845
439807 62 17967816037266467641
4461854 278 17917996092435725982
46194498 28 17749669692248635052
474113 269 18060412513729437109
5104073 3 17843397381307680056
513202 73 18411700985483149125
5718773 13 18410291402073184614
59682541 35 18342166779510532640
6126387 218 18059849546448719409
96874 4 17846488266996003727
9689198 14 12751239220357137022
9962374 69 18270389628765581455

>  <PUBCHEM_SHAPE_MULTIPOLES>
520.43
25.03
3.33
1.58
5.48
1.87
-0.01
-22.64
-2.84
-3.92
0.39
2.68
-0.7
1.55

>  <PUBCHEM_SHAPE_SELFOVERLAP>
1103.249

>  <PUBCHEM_SHAPE_VOLUME>
290

>  <RI>
-2.80906e+08

>  <Rbt.Current_Directory>
/root/miniconda3/envs/rdock/share/rxdock-2013.1.1_148c5bd1-0/data/ligands/prepped_ligands/Curcumin

>  <Rbt.Executable>
rbdock/0.1.0

>  <Rbt.Library>
librxdock.so/0.1.0

>  <Rbt.Parameter_File>
/root/miniconda3/envs/rdock/share/rxdock-2013.1.1_148c5bd1-0/data/scripts/dock.prm

>  <Rbt.Receptor>
def.prm

>  <SCORE>
-16.8151

>  <SCORE.INTER>
-9.24527

>  <SCORE.INTER.CONST>
1

>  <SCORE.INTER.POLAR>
-0.83365

>  <SCORE.INTER.REPUL>
0.224757

>  <SCORE.INTER.ROT>
8

>  <SCORE.INTER.VDW>
-20.9346

>  <SCORE.INTER.norm>
-0.342417

>  <SCORE.INTRA>
-6.60006

>  <SCORE.INTRA.DIHEDRAL>
1.99036

>  <SCORE.INTRA.DIHEDRAL.0>
9.63727

>  <SCORE.INTRA.POLAR>
0.113822

>  <SCORE.INTRA.POLAR.0>
-0.167074

>  <SCORE.INTRA.REPUL>
0

>  <SCORE.INTRA.REPUL.0>
0

>  <SCORE.INTRA.VDW>
-7.98223

>  <SCORE.INTRA.VDW.0>
9.25931

>  <SCORE.INTRA.norm>
-0.244446

>  <SCORE.RESTR>
0

>  <SCORE.RESTR.CAVITY>
0

>  <SCORE.RESTR.norm>
0

>  <SCORE.SYSTEM>
-0.969759

>  <SCORE.SYSTEM.CONST>
0

>  <SCORE.SYSTEM.DIHEDRAL>
0.142327

>  <SCORE.SYSTEM.VDW>
-1.04092

>  <SCORE.SYSTEM.norm>
-0.035917

>  <SCORE.heavy>
27

>  <SCORE.norm>
-0.622781

$$$$
969516
  RxDock  02242101563D
librxdock.so/0.1.0
 29 30  0  0  0  0  0  0  0  0999 V2000
  -47.9067   -6.4456   18.8522 O   0  0  0  0  0  0
  -44.5272    1.0655   18.4116 O   0  0  0  0  0  0
  -49.7482   -5.7700   20.8213 O   0  0  0  0  0  0
  -42.8752   -1.0182   17.6029 O   0  0  0  0  0  0
  -49.3059   -3.8810   12.2297 O   0  0  0  0  0  0
  -50.2569    0.2325   13.7153 O   0  0  0  0  0  0
  -50.0781   -4.1614   17.0288 C   0  0  0  0  0  0
  -46.5813   -0.5045   15.8477 C   0  0  0  0  0  0
  -50.5705   -2.1167   13.2775 C   0  0  0  0  0  0
  -49.0406   -5.0381   17.3015 C   0  0  0  0  0  0
  -46.1776    0.3737   16.8402 C   0  0  0  0  0  0
  -48.9260   -5.5837   18.5802 C   0  0  0  0  0  0
  -44.9271    0.2042   17.4348 C   0  0  0  0  0  0
  -51.0041   -3.8154   17.9995 C   0  0  0  0  0  0
  -45.7688   -1.5476   15.4334 C   0  0  0  0  0  0
  -50.2001   -3.5855   15.6779 C   0  0  0  0  0  0
  -47.9017   -0.3252   15.2186 C   0  0  0  0  0  0
  -49.8504   -5.2449   19.5684 C   0  0  0  0  0  0
  -44.0977   -0.8413   17.0287 C   0  0  0  0  0  0
  -49.7933   -3.4181   13.2578 C   0  0  0  0  0  0
  -49.7987   -0.9061   13.7643 C   0  0  0  0  0  0
  -50.8895   -4.3609   19.2780 C   0  0  0  0  0  0
  -44.5187   -1.7170   16.0279 C   0  0  0  0  0  0
  -49.6147   -4.0862   14.5810 C   0  0  0  0  0  0
  -48.4567   -1.1872   14.3550 C   0  0  0  0  0  0
  -47.9635   -7.7312   18.2373 C   0  0  0  0  0  0
  -45.3998    1.2300   19.5278 C   0  0  0  0  0  0
  -50.5493   -5.5309   21.3191 H   0  0  0  0  0  0
  -42.7367   -0.3265   18.2725 H   0  0  0  0  0  0
  1 12  1  0  0  0
  1 26  1  0  0  0
  2 13  1  0  0  0
  2 27  1  0  0  0
  3 18  1  0  0  0
  3 28  1  0  0  0
  4 19  1  0  0  0
  4 29  1  0  0  0
  5 20  2  0  0  0
  6 21  2  0  0  0
  7 10  2  0  0  0
  7 14  1  0  0  0
  7 16  1  0  0  0
  8 11  2  0  0  0
  8 15  1  0  0  0
  8 17  1  0  0  0
  9 20  1  0  0  0
  9 21  1  0  0  0
 10 12  1  0  0  0
 11 13  1  0  0  0
 12 18  2  0  0  0
 13 19  2  0  0  0
 14 22  2  0  0  0
 15 23  2  0  0  0
 16 24  2  0  0  0
 17 25  2  0  0  0
 18 22  1  0  0  0
 19 23  1  0  0  0
 20 24  1  0  0  0
 21 25  1  0  0  0
M  END
>  <CHROM.0>
56.63595399,58.79719777,-179.00360508

>  <CHROM.1>
-69.67384808,54.31537300,-171.23752890,-0.30842868,18.45787126,-172.62208886
-100.36664172,172.94305476,-177.48349623,21.67468781,-47.96400231,-2.60958527
16.63999973,-2.55361952,-0.67722994,-0.89968213

>  <Name>
969516

>  <PUBCHEM_ATOM_DEF_STEREO_COUNT>
0

>  <PUBCHEM_ATOM_UDEF_STEREO_COUNT>
0

>  <PUBCHEM_BOND_DEF_STEREO_COUNT>
2

>  <PUBCHEM_BOND_UDEF_STEREO_COUNT>
0

>  <PUBCHEM_CACTVS_TAUTO_COUNT>
49

>  <PUBCHEM_COMPONENT_COUNT>
1

>  <PUBCHEM_COMPOUND_CID>
969516

>  <PUBCHEM_CONFORMER_DIVERSEORDER>
82
80
54
21
40
74
55
61
46
34
47
4
43
38
81
26
17
78
6
35
23
73
57
63
2
39
32
14
1
30
56
36
72
41
70
60
3
69
27
58
33
25
49
71
42
65
28
76
5
48
52
77
37
79
59
9
29
8
13
50
31
20
62
7
44
16
66
75
51
68
67
22
64
45
24
12
19
11
18
15
10
53

>  <PUBCHEM_CONFORMER_ID>
000ECB2C00000052

>  <PUBCHEM_CONFORMER_RMSD>
1

>  <PUBCHEM_COORDINATE_TYPE>
2
5
10

>  <PUBCHEM_EFFECTIVE_ROTOR_COUNT>
8

>  <PUBCHEM_FEATURE_SELFOVERLAP>
45.672

>  <PUBCHEM_HEAVY_ATOM_COUNT>
27

>  <PUBCHEM_ISOTOPIC_ATOM_COUNT>
0

>  <PUBCHEM_MMFF94_ENERGY>
92.651

>  <PUBCHEM_MMFF94_PARTIAL_CHARGES>
39
1 -0.36
10 -0.15
11 -0.15
12 0.08
13 0.08
14 -0.15
15 -0.15
16 -0.18
17 -0.18
18 0.08
19 0.08
2 -0.36
20 0.49
21 0.49
22 -0.15
23 -0.15
24 -0.14
25 -0.14
26 0.28
27 0.28
3 -0.53
30 0.15
31 0.15
32 0.15
33 0.15
34 0.15
35 0.15
36 0.15
37 0.15
38 0.15
39 0.15
4 -0.53
40 0.45
41 0.45
5 -0.57
6 -0.57
7 0.03
8 0.03
9 0.12

>  <PUBCHEM_PHARMACOPHORE_FEATURES>
9
1 1 acceptor
1 2 acceptor
1 3 donor
1 4 donor
1 5 acceptor
1 6 acceptor
1 9 anion
6 7 10 12 14 18 22 rings
6 8 11 13 15 19 23 rings

>  <PUBCHEM_SHAPE_FINGERPRINT>
10 15 12751240315890217573
10319688 140 18337398252872831732
10669705 162 18337104575972446653
10917259 69 18192703459598944165
11211813 128 18272932692783743174
11410812 94 16370996361790263860
117089 54 18267879293612551318
11828532 37 17896331370365246675
12342043 65 18188209905213906085
12758862 65 18410567410511369408
12760667 363 18411139121760541745
13533116 47 18272092759487660785
1361 87 17822307806824084883
13673619 4 18187085057046420093
13782708 43 18187646942401274497
13911852 28 18342177760919306525
13955234 65 18127412482311963032
14251764 75 8934705700369515222
14931854 50 17458064828953579058
15188451 53 18040713637372491534
15510800 12 18334017193917594602
15519825 34 15769481128208245039
16096371 109 17842545529393793568
1768 124 17918273151673982878
190975 80 18273208699771038632
1979834 28 17274556351083136116
20105231 36 17632018551801690966
20165401 70 18269560610432539175
2026 5 18187081767692646843
21033650 10 16081361917848681093
21307412 95 17967532394149105875
21315764 119 16081364133534249763
21585481 104 14779540124190440126
21585482 111 9150633321735644751
21585482 310 18261684739337370307
21682296 61 18408609175854266457
22149856 69 18130234757594157200
229767 8 17769106648757633326
2303208 19 17749956686811695209
23559900 14 17895477059232625973
270888 7 9367336016755256852
3014063 24 18201716258419056095
32027 91 18336829796691442577
3383291 50 18335703857830032987
34797466 226 16806453698591057205
4046055 4 18260545598226657845
439807 62 17967816037266467641
4461854 278 17917996092435725982
46194498 28 17749669692248635052
474113 269 18060412513729437109
5104073 3 17843397381307680056
513202 73 18411700985483149125
5718773 13 18410291402073184614
59682541 35 18342166779510532640
6126387 218 18059849546448719409
96874 4 17846488266996003727
9689198 14 12751239220357137022
9962374 69 18270389628765581455

>  <PUBCHEM_SHAPE_MULTIPOLES>
520.43
25.03
3.33
1.58
5.48
1.87
-0.01
-22.64
-2.84
-3.92
0.39
2.68
-0.7
1.55

>  <PUBCHEM_SHAPE_SELFOVERLAP>
1103.249

>  <PUBCHEM_SHAPE_VOLUME>
290

>  <RI>
-2.80906e+08

>  <Rbt.Current_Directory>
/root/miniconda3/envs/rdock/share/rxdock-2013.1.1_148c5bd1-0/data/ligands/prepped_ligands/Curcumin

>  <Rbt.Executable>
rbdock/0.1.0

>  <Rbt.Library>
librxdock.so/0.1.0

>  <Rbt.Parameter_File>
/root/miniconda3/envs/rdock/share/rxdock-2013.1.1_148c5bd1-0/data/scripts/dock.prm

>  <Rbt.Receptor>
def.prm

>  <SCORE>
-11.361

>  <SCORE.INTER>
-6.11179

>  <SCORE.INTER.CONST>
1

>  <SCORE.INTER.POLAR>
-0.456985

>  <SCORE.INTER.REPUL>
0.16839

>  <SCORE.INTER.ROT>
8

>  <SCORE.INTER.VDW>
-18.8

>  <SCORE.INTER.norm>
-0.226363

>  <SCORE.INTRA>
-4.29695

>  <SCORE.INTRA.DIHEDRAL>
3.32426

>  <SCORE.INTRA.DIHEDRAL.0>
9.63727

>  <SCORE.INTRA.POLAR>
0.0418529

>  <SCORE.INTRA.POLAR.0>
-0.167074

>  <SCORE.INTRA.REPUL>
0

>  <SCORE.INTRA.REPUL.0>
0

>  <SCORE.INTRA.VDW>
-6.10138

>  <SCORE.INTRA.VDW.0>
9.25931

>  <SCORE.INTRA.norm>
-0.159146

>  <SCORE.RESTR>
0

>  <SCORE.RESTR.CAVITY>
0

>  <SCORE.RESTR.norm>
0

>  <SCORE.SYSTEM>
-0.952254

>  <SCORE.SYSTEM.CONST>
0

>  <SCORE.SYSTEM.DIHEDRAL>
0.039298

>  <SCORE.SYSTEM.POLAR>
-0.00440028

>  <SCORE.SYSTEM.VDW>
-0.956942

>  <SCORE.SYSTEM.norm>
-0.0352687

>  <SCORE.heavy>
27

>  <SCORE.norm>
-0.420778

$$$$
969516
  RxDock  02242101563D
librxdock.so/0.1.0
 29 30  0  0  0  0  0  0  0  0999 V2000
  -44.2751   -0.1248   19.9929 O   0  0  0  0  0  0
  -49.2109   -5.2764   19.8876 O   0  0  0  0  0  0
  -42.0604   -1.5080   19.0405 O   0  0  0  0  0  0
  -50.9288   -7.4610   19.8466 O   0  0  0  0  0  0
  -50.0245    0.1546   15.6687 O   0  0  0  0  0  0
  -49.7620   -2.9449   12.8287 O   0  0  0  0  0  0
  -45.4708   -1.2012   16.7266 C   0  0  0  0  0  0
  -50.3825   -5.1838   16.4414 C   0  0  0  0  0  0
  -48.7938   -1.0739   13.9995 C   0  0  0  0  0  0
  -45.4492   -0.6067   17.9778 C   0  0  0  0  0  0
  -49.6994   -4.8428   17.5975 C   0  0  0  0  0  0
  -44.2998   -0.7074   18.7618 C   0  0  0  0  0  0
  -49.8805   -5.6092   18.7489 C   0  0  0  0  0  0
  -44.3748   -1.8936   16.2379 C   0  0  0  0  0  0
  -51.2417   -6.2701   16.4051 C   0  0  0  0  0  0
  -46.6844   -1.0943   15.8976 C   0  0  0  0  0  0
  -50.1907   -4.3751   15.2246 C   0  0  0  0  0  0
  -43.1881   -1.4014   18.2837 C   0  0  0  0  0  0
  -50.7424   -6.7059   18.7283 C   0  0  0  0  0  0
  -48.9685   -0.3760   15.3339 C   0  0  0  0  0  0
  -49.4183   -2.4517   13.8999 C   0  0  0  0  0  0
  -43.2256   -1.9943   17.0217 C   0  0  0  0  0  0
  -51.4228   -7.0362   17.5563 C   0  0  0  0  0  0
  -47.7851   -0.4121   16.2436 C   0  0  0  0  0  0
  -49.5488   -3.1989   15.1857 C   0  0  0  0  0  0
  -44.8494   -0.8618   21.0704 C   0  0  0  0  0  0
  -49.8978   -4.4498   20.8253 C   0  0  0  0  0  0
  -41.4845   -2.1809   18.6378 H   0  0  0  0  0  0
  -51.3456   -8.3028   19.5946 H   0  0  0  0  0  0
  1 12  1  0  0  0
  1 26  1  0  0  0
  2 13  1  0  0  0
  2 27  1  0  0  0
  3 18  1  0  0  0
  3 28  1  0  0  0
  4 19  1  0  0  0
  4 29  1  0  0  0
  5 20  2  0  0  0
  6 21  2  0  0  0
  7 10  2  0  0  0
  7 14  1  0  0  0
  7 16  1  0  0  0
  8 11  2  0  0  0
  8 15  1  0  0  0
  8 17  1  0  0  0
  9 20  1  0  0  0
  9 21  1  0  0  0
 10 12  1  0  0  0
 11 13  1  0  0  0
 12 18  2  0  0  0
 13 19  2  0  0  0
 14 22  2  0  0  0
 15 23  2  0  0  0
 16 24  2  0  0  0
 17 25  2  0  0  0
 18 22  1  0  0  0
 19 23  1  0  0  0
 20 24  1  0  0  0
 21 25  1  0  0  0
M  END
>  <CHROM.0>
-177.69190364,-60.16040466,-56.72438725

>  <CHROM.1>
83.08248921,94.67604631,167.40718525,-164.21045629,2.43169545,-10.35964553
-76.77696042,154.88143310,174.37101075,-7.77785370,-47.82781579,-2.92345732
17.31397438,-0.23801996,0.59047398,2.16870703

>  <Name>
969516

>  <PUBCHEM_ATOM_DEF_STEREO_COUNT>
0

>  <PUBCHEM_ATOM_UDEF_STEREO_COUNT>
0

>  <PUBCHEM_BOND_DEF_STEREO_COUNT>
2

>  <PUBCHEM_BOND_UDEF_STEREO_COUNT>
0

>  <PUBCHEM_CACTVS_TAUTO_COUNT>
49

>  <PUBCHEM_COMPONENT_COUNT>
1

>  <PUBCHEM_COMPOUND_CID>
969516

>  <PUBCHEM_CONFORMER_DIVERSEORDER>
82
80
54
21
40
74
55
61
46
34
47
4
43
38
81
26
17
78
6
35
23
73
57
63
2
39
32
14
1
30
56
36
72
41
70
60
3
69
27
58
33
25
49
71
42
65
28
76
5
48
52
77
37
79
59
9
29
8
13
50
31
20
62
7
44
16
66
75
51
68
67
22
64
45
24
12
19
11
18
15
10
53

>  <PUBCHEM_CONFORMER_ID>
000ECB2C00000052

>  <PUBCHEM_CONFORMER_RMSD>
1

>  <PUBCHEM_COORDINATE_TYPE>
2
5
10

>  <PUBCHEM_EFFECTIVE_ROTOR_COUNT>
8

>  <PUBCHEM_FEATURE_SELFOVERLAP>
45.672

>  <PUBCHEM_HEAVY_ATOM_COUNT>
27

>  <PUBCHEM_ISOTOPIC_ATOM_COUNT>
0

>  <PUBCHEM_MMFF94_ENERGY>
92.651

>  <PUBCHEM_MMFF94_PARTIAL_CHARGES>
39
1 -0.36
10 -0.15
11 -0.15
12 0.08
13 0.08
14 -0.15
15 -0.15
16 -0.18
17 -0.18
18 0.08
19 0.08
2 -0.36
20 0.49
21 0.49
22 -0.15
23 -0.15
24 -0.14
25 -0.14
26 0.28
27 0.28
3 -0.53
30 0.15
31 0.15
32 0.15
33 0.15
34 0.15
35 0.15
36 0.15
37 0.15
38 0.15
39 0.15
4 -0.53
40 0.45
41 0.45
5 -0.57
6 -0.57
7 0.03
8 0.03
9 0.12

>  <PUBCHEM_PHARMACOPHORE_FEATURES>
9
1 1 acceptor
1 2 acceptor
1 3 donor
1 4 donor
1 5 acceptor
1 6 acceptor
1 9 anion
6 7 10 12 14 18 22 rings
6 8 11 13 15 19 23 rings

>  <PUBCHEM_SHAPE_FINGERPRINT>
10 15 12751240315890217573
10319688 140 18337398252872831732
10669705 162 18337104575972446653
10917259 69 18192703459598944165
11211813 128 18272932692783743174
11410812 94 16370996361790263860
117089 54 18267879293612551318
11828532 37 17896331370365246675
12342043 65 18188209905213906085
12758862 65 18410567410511369408
12760667 363 18411139121760541745
13533116 47 18272092759487660785
1361 87 17822307806824084883
13673619 4 18187085057046420093
13782708 43 18187646942401274497
13911852 28 18342177760919306525
13955234 65 18127412482311963032
14251764 75 8934705700369515222
14931854 50 17458064828953579058
15188451 53 18040713637372491534
15510800 12 18334017193917594602
15519825 34 15769481128208245039
16096371 109 17842545529393793568
1768 124 17918273151673982878
190975 80 18273208699771038632
1979834 28 17274556351083136116
20105231 36 17632018551801690966
20165401 70 18269560610432539175
2026 5 18187081767692646843
21033650 10 16081361917848681093
21307412 95 17967532394149105875
21315764 119 16081364133534249763
21585481 104 14779540124190440126
21585482 111 9150633321735644751
21585482 310 18261684739337370307
21682296 61 18408609175854266457
22149856 69 18130234757594157200
229767 8 17769106648757633326
2303208 19 17749956686811695209
23559900 14 17895477059232625973
270888 7 9367336016755256852
3014063 24 18201716258419056095
32027 91 18336829796691442577
3383291 50 18335703857830032987
34797466 226 16806453698591057205
4046055 4 18260545598226657845
439807 62 17967816037266467641
4461854 278 17917996092435725982
46194498 28 17749669692248635052
474113 269 18060412513729437109
5104073 3 17843397381307680056
513202 73 18411700985483149125
5718773 13 18410291402073184614
59682541 35 18342166779510532640
6126387 218 18059849546448719409
96874 4 17846488266996003727
9689198 14 12751239220357137022
9962374 69 18270389628765581455

>  <PUBCHEM_SHAPE_MULTIPOLES>
520.43
25.03
3.33
1.58
5.48
1.87
-0.01
-22.64
-2.84
-3.92
0.39
2.68
-0.7
1.55

>  <PUBCHEM_SHAPE_SELFOVERLAP>
1103.249

>  <PUBCHEM_SHAPE_VOLUME>
290

>  <RI>
-2.80906e+08

>  <Rbt.Current_Directory>
/root/miniconda3/envs/rdock/share/rxdock-2013.1.1_148c5bd1-0/data/ligands/prepped_ligands/Curcumin

>  <Rbt.Executable>
rbdock/0.1.0

>  <Rbt.Library>
librxdock.so/0.1.0

>  <Rbt.Parameter_File>
/root/miniconda3/envs/rdock/share/rxdock-2013.1.1_148c5bd1-0/data/scripts/dock.prm

>  <Rbt.Receptor>
def.prm

>  <SCORE>
-16.9731

>  <SCORE.INTER>
-10.5838

>  <SCORE.INTER.CONST>
1

>  <SCORE.INTER.POLAR>
-1.58376

>  <SCORE.INTER.REPUL>
0.0262099

>  <SCORE.INTER.ROT>
8

>  <SCORE.INTER.VDW>
-18.73

>  <SCORE.INTER.norm>
-0.391992

>  <SCORE.INTRA>
-5.3616

>  <SCORE.INTRA.DIHEDRAL>
2.73951

>  <SCORE.INTRA.DIHEDRAL.0>
9.63727

>  <SCORE.INTRA.POLAR>
0.167074

>  <SCORE.INTRA.POLAR.0>
-0.167074

>  <SCORE.INTRA.REPUL>
0

>  <SCORE.INTRA.REPUL.0>
0

>  <SCORE.INTRA.VDW>
-7.29941

>  <SCORE.INTRA.VDW.0>
9.25931

>  <SCORE.INTRA.norm>
-0.198578

>  <SCORE.RESTR>
0

>  <SCORE.RESTR.CAVITY>
0

>  <SCORE.RESTR.norm>
0

>  <SCORE.SYSTEM>
-1.0277

>  <SCORE.SYSTEM.CONST>
0

>  <SCORE.SYSTEM.DIHEDRAL>
0.0355034

>  <SCORE.SYSTEM.POLAR>
-0.00828439

>  <SCORE.SYSTEM.VDW>
-1.01728

>  <SCORE.SYSTEM.norm>
-0.038063

>  <SCORE.heavy>
27

>  <SCORE.norm>
-0.628632

$$$$
969516
  RxDock  02242101573D
librxdock.so/0.1.0
 29 30  0  0  0  0  0  0  0  0999 V2000
  -45.3469   -1.5195   19.5023 O   0  0  0  0  0  0
  -49.3373   -7.6137   17.0758 O   0  0  0  0  0  0
  -42.6120   -1.5934   19.0126 O   0  0  0  0  0  0
  -51.6314   -8.6106   18.2874 O   0  0  0  0  0  0
  -48.1392   -2.9105   12.7749 O   0  0  0  0  0  0
  -52.0762   -1.5363   13.7322 O   0  0  0  0  0  0
  -45.2926   -2.0416   15.8993 C   0  0  0  0  0  0
  -51.7956   -5.1165   16.0866 C   0  0  0  0  0  0
  -49.6842   -1.2642   13.6190 C   0  0  0  0  0  0
  -45.7764   -1.8548   17.1840 C   0  0  0  0  0  0
  -50.5854   -5.7795   16.2101 C   0  0  0  0  0  0
  -44.8749   -1.7026   18.2376 C   0  0  0  0  0  0
  -50.5257   -6.9596   16.9516 C   0  0  0  0  0  0
  -43.9324   -2.0802   15.6392 C   0  0  0  0  0  0
  -52.9478   -5.6012   16.6841 C   0  0  0  0  0  0
  -46.2445   -2.2015   14.7858 C   0  0  0  0  0  0
  -51.8592   -3.8705   15.3025 C   0  0  0  0  0  0
  -43.5022   -1.7394   17.9919 C   0  0  0  0  0  0
  -51.6772   -7.4602   17.5594 C   0  0  0  0  0  0
  -48.4340   -2.1201   13.6678 C   0  0  0  0  0  0
  -50.9644   -1.9591   14.0388 C   0  0  0  0  0  0
  -43.0310   -1.9281   16.6926 C   0  0  0  0  0  0
  -52.8881   -6.7810   17.4255 C   0  0  0  0  0  0
  -47.5512   -1.9105   14.8534 C   0  0  0  0  0  0
  -50.7918   -3.2236   14.8134 C   0  0  0  0  0  0
  -45.7828   -0.2061   19.8476 C   0  0  0  0  0  0
  -48.2717   -6.9075   17.7085 C   0  0  0  0  0  0
  -41.8108   -2.1006   18.7943 H   0  0  0  0  0  0
  -52.3299   -8.5856   18.9636 H   0  0  0  0  0  0
  1 12  1  0  0  0
  1 26  1  0  0  0
  2 13  1  0  0  0
  2 27  1  0  0  0
  3 18  1  0  0  0
  3 28  1  0  0  0
  4 19  1  0  0  0
  4 29  1  0  0  0
  5 20  2  0  0  0
  6 21  2  0  0  0
  7 10  2  0  0  0
  7 14  1  0  0  0
  7 16  1  0  0  0
  8 11  2  0  0  0
  8 15  1  0  0  0
  8 17  1  0  0  0
  9 20  1  0  0  0
  9 21  1  0  0  0
 10 12  1  0  0  0
 11 13  1  0  0  0
 12 18  2  0  0  0
 13 19  2  0  0  0
 14 22  2  0  0  0
 15 23  2  0  0  0
 16 24  2  0  0  0
 17 25  2  0  0  0
 18 22  1  0  0  0
 19 23  1  0  0  0
 20 24  1  0  0  0
 21 25  1  0  0  0
M  END
>  <CHROM.0>
166.01188956,62.67470357,-177.44965414

>  <CHROM.1>
-79.77393200,61.11328972,149.41096427,152.31884678,14.50923371,-8.26662958
80.81703889,-160.55474126,22.84008434,-6.15648974,-48.32744879,-3.59451132
16.40717453,-0.29365752,0.49141587,2.38571018

>  <Name>
969516

>  <PUBCHEM_ATOM_DEF_STEREO_COUNT>
0

>  <PUBCHEM_ATOM_UDEF_STEREO_COUNT>
0

>  <PUBCHEM_BOND_DEF_STEREO_COUNT>
2

>  <PUBCHEM_BOND_UDEF_STEREO_COUNT>
0

>  <PUBCHEM_CACTVS_TAUTO_COUNT>
49

>  <PUBCHEM_COMPONENT_COUNT>
1

>  <PUBCHEM_COMPOUND_CID>
969516

>  <PUBCHEM_CONFORMER_DIVERSEORDER>
82
80
54
21
40
74
55
61
46
34
47
4
43
38
81
26
17
78
6
35
23
73
57
63
2
39
32
14
1
30
56
36
72
41
70
60
3
69
27
58
33
25
49
71
42
65
28
76
5
48
52
77
37
79
59
9
29
8
13
50
31
20
62
7
44
16
66
75
51
68
67
22
64
45
24
12
19
11
18
15
10
53

>  <PUBCHEM_CONFORMER_ID>
000ECB2C00000052

>  <PUBCHEM_CONFORMER_RMSD>
1

>  <PUBCHEM_COORDINATE_TYPE>
2
5
10

>  <PUBCHEM_EFFECTIVE_ROTOR_COUNT>
8

>  <PUBCHEM_FEATURE_SELFOVERLAP>
45.672

>  <PUBCHEM_HEAVY_ATOM_COUNT>
27

>  <PUBCHEM_ISOTOPIC_ATOM_COUNT>
0

>  <PUBCHEM_MMFF94_ENERGY>
92.651

>  <PUBCHEM_MMFF94_PARTIAL_CHARGES>
39
1 -0.36
10 -0.15
11 -0.15
12 0.08
13 0.08
14 -0.15
15 -0.15
16 -0.18
17 -0.18
18 0.08
19 0.08
2 -0.36
20 0.49
21 0.49
22 -0.15
23 -0.15
24 -0.14
25 -0.14
26 0.28
27 0.28
3 -0.53
30 0.15
31 0.15
32 0.15
33 0.15
34 0.15
35 0.15
36 0.15
37 0.15
38 0.15
39 0.15
4 -0.53
40 0.45
41 0.45
5 -0.57
6 -0.57
7 0.03
8 0.03
9 0.12

>  <PUBCHEM_PHARMACOPHORE_FEATURES>
9
1 1 acceptor
1 2 acceptor
1 3 donor
1 4 donor
1 5 acceptor
1 6 acceptor
1 9 anion
6 7 10 12 14 18 22 rings
6 8 11 13 15 19 23 rings

>  <PUBCHEM_SHAPE_FINGERPRINT>
10 15 12751240315890217573
10319688 140 18337398252872831732
10669705 162 18337104575972446653
10917259 69 18192703459598944165
11211813 128 18272932692783743174
11410812 94 16370996361790263860
117089 54 18267879293612551318
11828532 37 17896331370365246675
12342043 65 18188209905213906085
12758862 65 18410567410511369408
12760667 363 18411139121760541745
13533116 47 18272092759487660785
1361 87 17822307806824084883
13673619 4 18187085057046420093
13782708 43 18187646942401274497
13911852 28 18342177760919306525
13955234 65 18127412482311963032
14251764 75 8934705700369515222
14931854 50 17458064828953579058
15188451 53 18040713637372491534
15510800 12 18334017193917594602
15519825 34 15769481128208245039
16096371 109 17842545529393793568
1768 124 17918273151673982878
190975 80 18273208699771038632
1979834 28 17274556351083136116
20105231 36 17632018551801690966
20165401 70 18269560610432539175
2026 5 18187081767692646843
21033650 10 16081361917848681093
21307412 95 17967532394149105875
21315764 119 16081364133534249763
21585481 104 14779540124190440126
21585482 111 9150633321735644751
21585482 310 18261684739337370307
21682296 61 18408609175854266457
22149856 69 18130234757594157200
229767 8 17769106648757633326
2303208 19 17749956686811695209
23559900 14 17895477059232625973
270888 7 9367336016755256852
3014063 24 18201716258419056095
32027 91 18336829796691442577
3383291 50 18335703857830032987
34797466 226 16806453698591057205
4046055 4 18260545598226657845
439807 62 17967816037266467641
4461854 278 17917996092435725982
46194498 28 17749669692248635052
474113 269 18060412513729437109
5104073 3 17843397381307680056
513202 73 18411700985483149125
5718773 13 18410291402073184614
59682541 35 18342166779510532640
6126387 218 18059849546448719409
96874 4 17846488266996003727
9689198 14 12751239220357137022
9962374 69 18270389628765581455

>  <PUBCHEM_SHAPE_MULTIPOLES>
520.43
25.03
3.33
1.58
5.48
1.87
-0.01
-22.64
-2.84
-3.92
0.39
2.68
-0.7
1.55

>  <PUBCHEM_SHAPE_SELFOVERLAP>
1103.249

>  <PUBCHEM_SHAPE_VOLUME>
290

>  <RI>
-2.80906e+08

>  <Rbt.Current_Directory>
/root/miniconda3/envs/rdock/share/rxdock-2013.1.1_148c5bd1-0/data/ligands/prepped_ligands/Curcumin

>  <Rbt.Executable>
rbdock/0.1.0

>  <Rbt.Library>
librxdock.so/0.1.0

>  <Rbt.Parameter_File>
/root/miniconda3/envs/rdock/share/rxdock-2013.1.1_148c5bd1-0/data/scripts/dock.prm

>  <Rbt.Receptor>
def.prm

>  <SCORE>
-19.1839

>  <SCORE.INTER>
-13.9267

>  <SCORE.INTER.CONST>
1

>  <SCORE.INTER.POLAR>
-1.43734

>  <SCORE.INTER.REPUL>
0.301814

>  <SCORE.INTER.ROT>
8

>  <SCORE.INTER.VDW>
-23.9488

>  <SCORE.INTER.norm>
-0.515804

>  <SCORE.INTRA>
-4.66477

>  <SCORE.INTRA.DIHEDRAL>
5.23601

>  <SCORE.INTRA.DIHEDRAL.0>
9.63727

>  <SCORE.INTRA.POLAR>
0.167074

>  <SCORE.INTRA.POLAR.0>
-0.167074

>  <SCORE.INTRA.REPUL>
0

>  <SCORE.INTRA.REPUL.0>
0

>  <SCORE.INTRA.VDW>
-7.85082

>  <SCORE.INTRA.VDW.0>
9.25931

>  <SCORE.INTRA.norm>
-0.172769

>  <SCORE.RESTR>
0.0979266

>  <SCORE.RESTR.CAVITY>
0.0979266

>  <SCORE.RESTR.norm>
0.00362691

>  <SCORE.SYSTEM>
-0.690388

>  <SCORE.SYSTEM.CONST>
0

>  <SCORE.SYSTEM.DIHEDRAL>
0.520403

>  <SCORE.SYSTEM.POLAR>
-0.00777729

>  <SCORE.SYSTEM.VDW>
-0.924147

>  <SCORE.SYSTEM.norm>
-0.0255699

>  <SCORE.heavy>
27

>  <SCORE.norm>
-0.710517

$$$$
969516
  RxDock  02242101573D
librxdock.so/0.1.0
 29 30  0  0  0  0  0  0  0  0999 V2000
  -51.8714   -3.8349   19.9129 O   0  0  0  0  0  0
  -47.7499    2.6161   18.7641 O   0  0  0  0  0  0
  -52.5555   -6.5194   19.6876 O   0  0  0  0  0  0
  -45.7983    2.1237   20.6808 O   0  0  0  0  0  0
  -49.1996   -4.0427   11.9396 O   0  0  0  0  0  0
  -46.5492   -3.0523   14.0740 O   0  0  0  0  0  0
  -50.8349   -4.5391   16.4943 C   0  0  0  0  0  0
  -46.2378   -0.4289   17.4605 C   0  0  0  0  0  0
  -48.7489   -2.2564   13.4938 C   0  0  0  0  0  0
  -51.0639   -3.8473   17.6726 C   0  0  0  0  0  0
  -47.0742    0.6703   17.5689 C   0  0  0  0  0  0
  -51.6440   -4.5122   18.7530 C   0  0  0  0  0  0
  -46.9288    1.5347   18.6540 C   0  0  0  0  0  0
  -51.1698   -5.8774   16.3668 C   0  0  0  0  0  0
  -45.2600   -0.6873   18.4075 C   0  0  0  0  0  0
  -50.2212   -3.8375   15.3530 C   0  0  0  0  0  0
  -46.3905   -1.3417   16.3139 C   0  0  0  0  0  0
  -51.9871   -5.8596   18.6401 C   0  0  0  0  0  0
  -45.9490    1.2879   19.6158 C   0  0  0  0  0  0
  -49.2986   -3.6085   13.0843 C   0  0  0  0  0  0
  -47.4825   -2.2946   14.3262 C   0  0  0  0  0  0
  -51.7498   -6.5422   17.4470 C   0  0  0  0  0  0
  -45.1147    0.1769   19.4923 C   0  0  0  0  0  0
  -49.9320   -4.4076   14.1749 C   0  0  0  0  0  0
  -47.4166   -1.3158   15.4517 C   0  0  0  0  0  0
  -53.0379   -3.0161   19.9673 C   0  0  0  0  0  0
  -49.0745    2.3787   19.2367 C   0  0  0  0  0  0
  -52.5306   -5.9362   20.4660 H   0  0  0  0  0  0
  -45.3474    1.6454   21.3976 H   0  0  0  0  0  0
  1 12  1  0  0  0
  1 26  1  0  0  0
  2 13  1  0  0  0
  2 27  1  0  0  0
  3 18  1  0  0  0
  3 28  1  0  0  0
  4 19  1  0  0  0
  4 29  1  0  0  0
  5 20  2  0  0  0
  6 21  2  0  0  0
  7 10  2  0  0  0
  7 14  1  0  0  0
  7 16  1  0  0  0
  8 11  2  0  0  0
  8 15  1  0  0  0
  8 17  1  0  0  0
  9 20  1  0  0  0
  9 21  1  0  0  0
 10 12  1  0  0  0
 11 13  1  0  0  0
 12 18  2  0  0  0
 13 19  2  0  0  0
 14 22  2  0  0  0
 15 23  2  0  0  0
 16 24  2  0  0  0
 17 25  2  0  0  0
 18 22  1  0  0  0
 19 23  1  0  0  0
 20 24  1  0  0  0
 21 25  1  0  0  0
M  END
>  <CHROM.0>
57.15945349,172.87105386,178.37068943

>  <CHROM.1>
80.53484446,77.65967002,-7.97928502,158.05445901,178.80378844,-10.67103941
-105.61190769,42.61127148,-169.25823977,-7.52981311,-48.92973981,-2.23076722
17.20488396,2.54714922,-0.76686598,-2.05719807

>  <Name>
969516

>  <PUBCHEM_ATOM_DEF_STEREO_COUNT>
0

>  <PUBCHEM_ATOM_UDEF_STEREO_COUNT>
0

>  <PUBCHEM_BOND_DEF_STEREO_COUNT>
2

>  <PUBCHEM_BOND_UDEF_STEREO_COUNT>
0

>  <PUBCHEM_CACTVS_TAUTO_COUNT>
49

>  <PUBCHEM_COMPONENT_COUNT>
1

>  <PUBCHEM_COMPOUND_CID>
969516

>  <PUBCHEM_CONFORMER_DIVERSEORDER>
82
80
54
21
40
74
55
61
46
34
47
4
43
38
81
26
17
78
6
35
23
73
57
63
2
39
32
14
1
30
56
36
72
41
70
60
3
69
27
58
33
25
49
71
42
65
28
76
5
48
52
77
37
79
59
9
29
8
13
50
31
20
62
7
44
16
66
75
51
68
67
22
64
45
24
12
19
11
18
15
10
53

>  <PUBCHEM_CONFORMER_ID>
000ECB2C00000052

>  <PUBCHEM_CONFORMER_RMSD>
1

>  <PUBCHEM_COORDINATE_TYPE>
2
5
10

>  <PUBCHEM_EFFECTIVE_ROTOR_COUNT>
8

>  <PUBCHEM_FEATURE_SELFOVERLAP>
45.672

>  <PUBCHEM_HEAVY_ATOM_COUNT>
27

>  <PUBCHEM_ISOTOPIC_ATOM_COUNT>
0

>  <PUBCHEM_MMFF94_ENERGY>
92.651

>  <PUBCHEM_MMFF94_PARTIAL_CHARGES>
39
1 -0.36
10 -0.15
11 -0.15
12 0.08
13 0.08
14 -0.15
15 -0.15
16 -0.18
17 -0.18
18 0.08
19 0.08
2 -0.36
20 0.49
21 0.49
22 -0.15
23 -0.15
24 -0.14
25 -0.14
26 0.28
27 0.28
3 -0.53
30 0.15
31 0.15
32 0.15
33 0.15
34 0.15
35 0.15
36 0.15
37 0.15
38 0.15
39 0.15
4 -0.53
40 0.45
41 0.45
5 -0.57
6 -0.57
7 0.03
8 0.03
9 0.12

>  <PUBCHEM_PHARMACOPHORE_FEATURES>
9
1 1 acceptor
1 2 acceptor
1 3 donor
1 4 donor
1 5 acceptor
1 6 acceptor
1 9 anion
6 7 10 12 14 18 22 rings
6 8 11 13 15 19 23 rings

>  <PUBCHEM_SHAPE_FINGERPRINT>
10 15 12751240315890217573
10319688 140 18337398252872831732
10669705 162 18337104575972446653
10917259 69 18192703459598944165
11211813 128 18272932692783743174
11410812 94 16370996361790263860
117089 54 18267879293612551318
11828532 37 17896331370365246675
12342043 65 18188209905213906085
12758862 65 18410567410511369408
12760667 363 18411139121760541745
13533116 47 18272092759487660785
1361 87 17822307806824084883
13673619 4 18187085057046420093
13782708 43 18187646942401274497
13911852 28 18342177760919306525
13955234 65 18127412482311963032
14251764 75 8934705700369515222
14931854 50 17458064828953579058
15188451 53 18040713637372491534
15510800 12 18334017193917594602
15519825 34 15769481128208245039
16096371 109 17842545529393793568
1768 124 17918273151673982878
190975 80 18273208699771038632
1979834 28 17274556351083136116
20105231 36 17632018551801690966
20165401 70 18269560610432539175
2026 5 18187081767692646843
21033650 10 16081361917848681093
21307412 95 17967532394149105875
21315764 119 16081364133534249763
21585481 104 14779540124190440126
21585482 111 9150633321735644751
21585482 310 18261684739337370307
21682296 61 18408609175854266457
22149856 69 18130234757594157200
229767 8 17769106648757633326
2303208 19 17749956686811695209
23559900 14 17895477059232625973
270888 7 9367336016755256852
3014063 24 18201716258419056095
32027 91 18336829796691442577
3383291 50 18335703857830032987
34797466 226 16806453698591057205
4046055 4 18260545598226657845
439807 62 17967816037266467641
4461854 278 17917996092435725982
46194498 28 17749669692248635052
474113 269 18060412513729437109
5104073 3 17843397381307680056
513202 73 18411700985483149125
5718773 13 18410291402073184614
59682541 35 18342166779510532640
6126387 218 18059849546448719409
96874 4 17846488266996003727
9689198 14 12751239220357137022
9962374 69 18270389628765581455

>  <PUBCHEM_SHAPE_MULTIPOLES>
520.43
25.03
3.33
1.58
5.48
1.87
-0.01
-22.64
-2.84
-3.92
0.39
2.68
-0.7
1.55

>  <PUBCHEM_SHAPE_SELFOVERLAP>
1103.249

>  <PUBCHEM_SHAPE_VOLUME>
290

>  <RI>
-2.80906e+08

>  <Rbt.Current_Directory>
/root/miniconda3/envs/rdock/share/rxdock-2013.1.1_148c5bd1-0/data/ligands/prepped_ligands/Curcumin

>  <Rbt.Executable>
rbdock/0.1.0

>  <Rbt.Library>
librxdock.so/0.1.0

>  <Rbt.Parameter_File>
/root/miniconda3/envs/rdock/share/rxdock-2013.1.1_148c5bd1-0/data/scripts/dock.prm

>  <Rbt.Receptor>
def.prm

>  <SCORE>
-12.4192

>  <SCORE.INTER>
-6.10022

>  <SCORE.INTER.CONST>
1

>  <SCORE.INTER.POLAR>
-0.87178

>  <SCORE.INTER.REPUL>
0.0282893

>  <SCORE.INTER.ROT>
8

>  <SCORE.INTER.VDW>
-16.6776

>  <SCORE.INTER.norm>
-0.225934

>  <SCORE.INTRA>
-5.38005

>  <SCORE.INTRA.DIHEDRAL>
4.3941

>  <SCORE.INTRA.DIHEDRAL.0>
9.63727

>  <SCORE.INTRA.POLAR>
0.110199

>  <SCORE.INTRA.POLAR.0>
-0.167074

>  <SCORE.INTRA.REPUL>
0

>  <SCORE.INTRA.REPUL.0>
0

>  <SCORE.INTRA.VDW>
-7.95177

>  <SCORE.INTRA.VDW.0>
9.25931

>  <SCORE.INTRA.norm>
-0.199261

>  <SCORE.RESTR>
0.0238205

>  <SCORE.RESTR.CAVITY>
0.0238205

>  <SCORE.RESTR.norm>
0.000882241

>  <SCORE.SYSTEM>
-0.962714

>  <SCORE.SYSTEM.CONST>
0

>  <SCORE.SYSTEM.DIHEDRAL>
0.277934

>  <SCORE.SYSTEM.VDW>
-1.10168

>  <SCORE.SYSTEM.norm>
-0.0356561

>  <SCORE.heavy>
27

>  <SCORE.norm>
-0.459969

$$$$
969516
  RxDock  02242101573D
librxdock.so/0.1.0
 29 30  0  0  0  0  0  0  0  0999 V2000
  -43.6647   -0.3821   16.8779 O   0  0  0  0  0  0
  -48.6778   -8.2722   18.6950 O   0  0  0  0  0  0
  -43.6031    1.5472   18.8778 O   0  0  0  0  0  0
  -51.3629   -8.3027   19.4121 O   0  0  0  0  0  0
  -50.9990   -0.9096   15.6740 O   0  0  0  0  0  0
  -49.0717   -3.7201   12.6918 O   0  0  0  0  0  0
  -47.2096    0.3649   17.2424 C   0  0  0  0  0  0
  -50.0714   -5.9110   16.2991 C   0  0  0  0  0  0
  -50.0277   -1.7114   13.6189 C   0  0  0  0  0  0
  -46.0381   -0.2127   16.7804 C   0  0  0  0  0  0
  -49.1496   -6.6932   16.9759 C   0  0  0  0  0  0
  -44.8187    0.1831   17.3302 C   0  0  0  0  0  0
  -49.5816   -7.5024   18.0269 C   0  0  0  0  0  0
  -47.1952    1.3273   18.2389 C   0  0  0  0  0  0
  -51.4132   -5.9158   16.6444 C   0  0  0  0  0  0
  -48.4981   -0.0537   16.6627 C   0  0  0  0  0  0
  -49.6157   -5.0569   15.1882 C   0  0  0  0  0  0
  -44.7877    1.1512   18.3341 C   0  0  0  0  0  0
  -50.9293   -7.5180   18.3866 C   0  0  0  0  0  0
  -49.9890   -1.0776   14.9955 C   0  0  0  0  0  0
  -49.7413   -3.1995   13.5802 C   0  0  0  0  0  0
  -45.9761    1.7231   18.7886 C   0  0  0  0  0  0
  -51.8449   -6.7248   17.6952 C   0  0  0  0  0  0
  -48.6335   -0.7086   15.5010 C   0  0  0  0  0  0
  -50.2862   -3.9945   14.7204 C   0  0  0  0  0  0
  -43.5488   -1.7990   16.9922 C   0  0  0  0  0  0
  -48.8016   -9.6862   18.5548 C   0  0  0  0  0  0
  -42.8883    1.0395   18.4559 H   0  0  0  0  0  0
  -52.3354   -8.2976   19.4255 H   0  0  0  0  0  0
  1 12  1  0  0  0
  1 26  1  0  0  0
  2 13  1  0  0  0
  2 27  1  0  0  0
  3 18  1  0  0  0
  3 28  1  0  0  0
  4 19  1  0  0  0
  4 29  1  0  0  0
  5 20  2  0  0  0
  6 21  2  0  0  0
  7 10  2  0  0  0
  7 14  1  0  0  0
  7 16  1  0  0  0
  8 11  2  0  0  0
  8 15  1  0  0  0
  8 17  1  0  0  0
  9 20  1  0  0  0
  9 21  1  0  0  0
 10 12  1  0  0  0
 11 13  1  0  0  0
 12 18  2  0  0  0
 13 19  2  0  0  0
 14 22  2  0  0  0
 15 23  2  0  0  0
 16 24  2  0  0  0
 17 25  2  0  0  0
 18 22  1  0  0  0
 19 23  1  0  0  0
 20 24  1  0  0  0
 21 25  1  0  0  0
M  END
>  <CHROM.0>
61.96731737,-59.67683527,-63.20352044

>  <CHROM.1>
-58.70267645,-113.10229862,-0.92837267,-170.87870385,-17.20057211,-159.57222993
-95.50945278,-140.71145993,-6.89470643,32.01861668,-48.30689633,-3.12040505
16.79700393,-0.84851031,0.66042268,2.63595919

>  <Name>
969516

>  <PUBCHEM_ATOM_DEF_STEREO_COUNT>
0

>  <PUBCHEM_ATOM_UDEF_STEREO_COUNT>
0

>  <PUBCHEM_BOND_DEF_STEREO_COUNT>
2

>  <PUBCHEM_BOND_UDEF_STEREO_COUNT>
0

>  <PUBCHEM_CACTVS_TAUTO_COUNT>
49

>  <PUBCHEM_COMPONENT_COUNT>
1

>  <PUBCHEM_COMPOUND_CID>
969516

>  <PUBCHEM_CONFORMER_DIVERSEORDER>
82
80
54
21
40
74
55
61
46
34
47
4
43
38
81
26
17
78
6
35
23
73
57
63
2
39
32
14
1
30
56
36
72
41
70
60
3
69
27
58
33
25
49
71
42
65
28
76
5
48
52
77
37
79
59
9
29
8
13
50
31
20
62
7
44
16
66
75
51
68
67
22
64
45
24
12
19
11
18
15
10
53

>  <PUBCHEM_CONFORMER_ID>
000ECB2C00000052

>  <PUBCHEM_CONFORMER_RMSD>
1

>  <PUBCHEM_COORDINATE_TYPE>
2
5
10

>  <PUBCHEM_EFFECTIVE_ROTOR_COUNT>
8

>  <PUBCHEM_FEATURE_SELFOVERLAP>
45.672

>  <PUBCHEM_HEAVY_ATOM_COUNT>
27

>  <PUBCHEM_ISOTOPIC_ATOM_COUNT>
0

>  <PUBCHEM_MMFF94_ENERGY>
92.651

>  <PUBCHEM_MMFF94_PARTIAL_CHARGES>
39
1 -0.36
10 -0.15
11 -0.15
12 0.08
13 0.08
14 -0.15
15 -0.15
16 -0.18
17 -0.18
18 0.08
19 0.08
2 -0.36
20 0.49
21 0.49
22 -0.15
23 -0.15
24 -0.14
25 -0.14
26 0.28
27 0.28
3 -0.53
30 0.15
31 0.15
32 0.15
33 0.15
34 0.15
35 0.15
36 0.15
37 0.15
38 0.15
39 0.15
4 -0.53
40 0.45
41 0.45
5 -0.57
6 -0.57
7 0.03
8 0.03
9 0.12

>  <PUBCHEM_PHARMACOPHORE_FEATURES>
9
1 1 acceptor
1 2 acceptor
1 3 donor
1 4 donor
1 5 acceptor
1 6 acceptor
1 9 anion
6 7 10 12 14 18 22 rings
6 8 11 13 15 19 23 rings

>  <PUBCHEM_SHAPE_FINGERPRINT>
10 15 12751240315890217573
10319688 140 18337398252872831732
10669705 162 18337104575972446653
10917259 69 18192703459598944165
11211813 128 18272932692783743174
11410812 94 16370996361790263860
117089 54 18267879293612551318
11828532 37 17896331370365246675
12342043 65 18188209905213906085
12758862 65 18410567410511369408
12760667 363 18411139121760541745
13533116 47 18272092759487660785
1361 87 17822307806824084883
13673619 4 18187085057046420093
13782708 43 18187646942401274497
13911852 28 18342177760919306525
13955234 65 18127412482311963032
14251764 75 8934705700369515222
14931854 50 17458064828953579058
15188451 53 18040713637372491534
15510800 12 18334017193917594602
15519825 34 15769481128208245039
16096371 109 17842545529393793568
1768 124 17918273151673982878
190975 80 18273208699771038632
1979834 28 17274556351083136116
20105231 36 17632018551801690966
20165401 70 18269560610432539175
2026 5 18187081767692646843
21033650 10 16081361917848681093
21307412 95 17967532394149105875
21315764 119 16081364133534249763
21585481 104 14779540124190440126
21585482 111 9150633321735644751
21585482 310 18261684739337370307
21682296 61 18408609175854266457
22149856 69 18130234757594157200
229767 8 17769106648757633326
2303208 19 17749956686811695209
23559900 14 17895477059232625973
270888 7 9367336016755256852
3014063 24 18201716258419056095
32027 91 18336829796691442577
3383291 50 18335703857830032987
34797466 226 16806453698591057205
4046055 4 18260545598226657845
439807 62 17967816037266467641
4461854 278 17917996092435725982
46194498 28 17749669692248635052
474113 269 18060412513729437109
5104073 3 17843397381307680056
513202 73 18411700985483149125
5718773 13 18410291402073184614
59682541 35 18342166779510532640
6126387 218 18059849546448719409
96874 4 17846488266996003727
9689198 14 12751239220357137022
9962374 69 18270389628765581455

>  <PUBCHEM_SHAPE_MULTIPOLES>
520.43
25.03
3.33
1.58
5.48
1.87
-0.01
-22.64
-2.84
-3.92
0.39
2.68
-0.7
1.55

>  <PUBCHEM_SHAPE_SELFOVERLAP>
1103.249

>  <PUBCHEM_SHAPE_VOLUME>
290

>  <RI>
-2.80906e+08

>  <Rbt.Current_Directory>
/root/miniconda3/envs/rdock/share/rxdock-2013.1.1_148c5bd1-0/data/ligands/prepped_ligands/Curcumin

>  <Rbt.Executable>
rbdock/0.1.0

>  <Rbt.Library>
librxdock.so/0.1.0

>  <Rbt.Parameter_File>
/root/miniconda3/envs/rdock/share/rxdock-2013.1.1_148c5bd1-0/data/scripts/dock.prm

>  <Rbt.Receptor>
def.prm

>  <SCORE>
-13.1253

>  <SCORE.INTER>
-8.27844

>  <SCORE.INTER.CONST>
1

>  <SCORE.INTER.POLAR>
0

>  <SCORE.INTER.REPUL>
0

>  <SCORE.INTER.ROT>
8

>  <SCORE.INTER.VDW>
-21.6784

>  <SCORE.INTER.norm>
-0.306609

>  <SCORE.INTRA>
-3.80655

>  <SCORE.INTRA.DIHEDRAL>
7.94485

>  <SCORE.INTRA.DIHEDRAL.0>
9.63727

>  <SCORE.INTRA.POLAR>
0.0422727

>  <SCORE.INTRA.POLAR.0>
-0.167074

>  <SCORE.INTRA.REPUL>
0

>  <SCORE.INTRA.REPUL.0>
0

>  <SCORE.INTRA.VDW>
-7.9227

>  <SCORE.INTRA.VDW.0>
9.25931

>  <SCORE.INTRA.norm>
-0.140983

>  <SCORE.RESTR>
0

>  <SCORE.RESTR.CAVITY>
0

>  <SCORE.RESTR.norm>
0

>  <SCORE.SYSTEM>
-1.04034

>  <SCORE.SYSTEM.CONST>
0

>  <SCORE.SYSTEM.DIHEDRAL>
0.0366671

>  <SCORE.SYSTEM.VDW>
-1.05868

>  <SCORE.SYSTEM.norm>
-0.0385313

>  <SCORE.heavy>
27

>  <SCORE.norm>
-0.486123

$$$$
969516
  RxDock  02242101573D
librxdock.so/0.1.0
 29 30  0  0  0  0  0  0  0  0999 V2000
  -43.6356    0.9212   19.3861 O   0  0  0  0  0  0
  -49.2013   -7.9899   17.5155 O   0  0  0  0  0  0
  -42.0491   -1.3334   19.0326 O   0  0  0  0  0  0
  -51.8960   -8.2436   18.1474 O   0  0  0  0  0  0
  -48.1684    0.3218   13.4676 O   0  0  0  0  0  0
  -51.0383   -0.8734   13.4140 O   0  0  0  0  0  0
  -45.1807   -0.5705   16.4460 C   0  0  0  0  0  0
  -50.5889   -5.0566   15.8641 C   0  0  0  0  0  0
  -48.8949   -1.9751   13.3865 C   0  0  0  0  0  0
  -44.9356    0.3108   17.4864 C   0  0  0  0  0  0
  -49.6676   -5.9915   16.3071 C   0  0  0  0  0  0
  -43.8792    0.0572   18.3615 C   0  0  0  0  0  0
  -50.1047   -7.0691   17.0776 C   0  0  0  0  0  0
  -44.3985   -1.6982   16.2564 C   0  0  0  0  0  0
  -51.9354   -5.1696   16.1703 C   0  0  0  0  0  0
  -46.2959   -0.3026   15.5208 C   0  0  0  0  0  0
  -50.1277   -3.9187   15.0493 C   0  0  0  0  0  0
  -43.0827   -1.0742   18.1839 C   0  0  0  0  0  0
  -51.4572   -7.1967   17.3945 C   0  0  0  0  0  0
  -47.9829   -0.8420   13.8138 C   0  0  0  0  0  0
  -50.3504   -1.8222   13.7818 C   0  0  0  0  0  0
  -43.3423   -1.9518   17.1312 C   0  0  0  0  0  0
  -52.3724   -6.2469   16.9406 C   0  0  0  0  0  0
  -46.8627   -1.2207   14.7255 C   0  0  0  0  0  0
  -50.9159   -2.9261   14.6127 C   0  0  0  0  0  0
  -44.1418    0.5626   20.6704 C   0  0  0  0  0  0
  -48.0162   -7.4923   18.1336 C   0  0  0  0  0  0
  -41.6457   -2.1800   18.7732 H   0  0  0  0  0  0
  -51.1384   -8.8089   18.3760 H   0  0  0  0  0  0
  1 12  1  0  0  0
  1 26  1  0  0  0
  2 13  1  0  0  0
  2 27  1  0  0  0
  3 18  1  0  0  0
  3 28  1  0  0  0
  4 19  1  0  0  0
  4 29  1  0  0  0
  5 20  2  0  0  0
  6 21  2  0  0  0
  7 10  2  0  0  0
  7 14  1  0  0  0
  7 16  1  0  0  0
  8 11  2  0  0  0
  8 15  1  0  0  0
  8 17  1  0  0  0
  9 20  1  0  0  0
  9 21  1  0  0  0
 10 12  1  0  0  0
 11 13  1  0  0  0
 12 18  2  0  0  0
 13 19  2  0  0  0
 14 22  2  0  0  0
 15 23  2  0  0  0
 16 24  2  0  0  0
 17 25  2  0  0  0
 18 22  1  0  0  0
 19 23  1  0  0  0
 20 24  1  0  0  0
 21 25  1  0  0  0
M  END
>  <CHROM.0>
62.79773481,59.77236518,60.42966749

>  <CHROM.1>
98.76562478,48.47619524,177.27311933,-0.29759327,-160.87231341,-177.11264352
-58.52536993,59.52242016,21.27521843,-177.03939499,-47.76652612,-2.93255290
16.51021834,-0.44260139,0.58941409,2.50746937

>  <Name>
969516

>  <PUBCHEM_ATOM_DEF_STEREO_COUNT>
0

>  <PUBCHEM_ATOM_UDEF_STEREO_COUNT>
0

>  <PUBCHEM_BOND_DEF_STEREO_COUNT>
2

>  <PUBCHEM_BOND_UDEF_STEREO_COUNT>
0

>  <PUBCHEM_CACTVS_TAUTO_COUNT>
49

>  <PUBCHEM_COMPONENT_COUNT>
1

>  <PUBCHEM_COMPOUND_CID>
969516

>  <PUBCHEM_CONFORMER_DIVERSEORDER>
82
80
54
21
40
74
55
61
46
34
47
4
43
38
81
26
17
78
6
35
23
73
57
63
2
39
32
14
1
30
56
36
72
41
70
60
3
69
27
58
33
25
49
71
42
65
28
76
5
48
52
77
37
79
59
9
29
8
13
50
31
20
62
7
44
16
66
75
51
68
67
22
64
45
24
12
19
11
18
15
10
53

>  <PUBCHEM_CONFORMER_ID>
000ECB2C00000052

>  <PUBCHEM_CONFORMER_RMSD>
1

>  <PUBCHEM_COORDINATE_TYPE>
2
5
10

>  <PUBCHEM_EFFECTIVE_ROTOR_COUNT>
8

>  <PUBCHEM_FEATURE_SELFOVERLAP>
45.672

>  <PUBCHEM_HEAVY_ATOM_COUNT>
27

>  <PUBCHEM_ISOTOPIC_ATOM_COUNT>
0

>  <PUBCHEM_MMFF94_ENERGY>
92.651

>  <PUBCHEM_MMFF94_PARTIAL_CHARGES>
39
1 -0.36
10 -0.15
11 -0.15
12 0.08
13 0.08
14 -0.15
15 -0.15
16 -0.18
17 -0.18
18 0.08
19 0.08
2 -0.36
20 0.49
21 0.49
22 -0.15
23 -0.15
24 -0.14
25 -0.14
26 0.28
27 0.28
3 -0.53
30 0.15
31 0.15
32 0.15
33 0.15
34 0.15
35 0.15
36 0.15
37 0.15
38 0.15
39 0.15
4 -0.53
40 0.45
41 0.45
5 -0.57
6 -0.57
7 0.03
8 0.03
9 0.12

>  <PUBCHEM_PHARMACOPHORE_FEATURES>
9
1 1 acceptor
1 2 acceptor
1 3 donor
1 4 donor
1 5 acceptor
1 6 acceptor
1 9 anion
6 7 10 12 14 18 22 rings
6 8 11 13 15 19 23 rings

>  <PUBCHEM_SHAPE_FINGERPRINT>
10 15 12751240315890217573
10319688 140 18337398252872831732
10669705 162 18337104575972446653
10917259 69 18192703459598944165
11211813 128 18272932692783743174
11410812 94 16370996361790263860
117089 54 18267879293612551318
11828532 37 17896331370365246675
12342043 65 18188209905213906085
12758862 65 18410567410511369408
12760667 363 18411139121760541745
13533116 47 18272092759487660785
1361 87 17822307806824084883
13673619 4 18187085057046420093
13782708 43 18187646942401274497
13911852 28 18342177760919306525
13955234 65 18127412482311963032
14251764 75 8934705700369515222
14931854 50 17458064828953579058
15188451 53 18040713637372491534
15510800 12 18334017193917594602
15519825 34 15769481128208245039
16096371 109 17842545529393793568
1768 124 17918273151673982878
190975 80 18273208699771038632
1979834 28 17274556351083136116
20105231 36 17632018551801690966
20165401 70 18269560610432539175
2026 5 18187081767692646843
21033650 10 16081361917848681093
21307412 95 17967532394149105875
21315764 119 16081364133534249763
21585481 104 14779540124190440126
21585482 111 9150633321735644751
21585482 310 18261684739337370307
21682296 61 18408609175854266457
22149856 69 18130234757594157200
229767 8 17769106648757633326
2303208 19 17749956686811695209
23559900 14 17895477059232625973
270888 7 9367336016755256852
3014063 24 18201716258419056095
32027 91 18336829796691442577
3383291 50 18335703857830032987
34797466 226 16806453698591057205
4046055 4 18260545598226657845
439807 62 17967816037266467641
4461854 278 17917996092435725982
46194498 28 17749669692248635052
474113 269 18060412513729437109
5104073 3 17843397381307680056
513202 73 18411700985483149125
5718773 13 18410291402073184614
59682541 35 18342166779510532640
6126387 218 18059849546448719409
96874 4 17846488266996003727
9689198 14 12751239220357137022
9962374 69 18270389628765581455

>  <PUBCHEM_SHAPE_MULTIPOLES>
520.43
25.03
3.33
1.58
5.48
1.87
-0.01
-22.64
-2.84
-3.92
0.39
2.68
-0.7
1.55

>  <PUBCHEM_SHAPE_SELFOVERLAP>
1103.249

>  <PUBCHEM_SHAPE_VOLUME>
290

>  <RI>
-2.80906e+08

>  <Rbt.Current_Directory>
/root/miniconda3/envs/rdock/share/rxdock-2013.1.1_148c5bd1-0/data/ligands/prepped_ligands/Curcumin

>  <Rbt.Executable>
rbdock/0.1.0

>  <Rbt.Library>
librxdock.so/0.1.0

>  <Rbt.Parameter_File>
/root/miniconda3/envs/rdock/share/rxdock-2013.1.1_148c5bd1-0/data/scripts/dock.prm

>  <Rbt.Receptor>
def.prm

>  <SCORE>
-22.0956

>  <SCORE.INTER>
-15.2378

>  <SCORE.INTER.CONST>
1

>  <SCORE.INTER.POLAR>
-1.47952

>  <SCORE.INTER.REPUL>
0.0124229

>  <SCORE.INTER.ROT>
8

>  <SCORE.INTER.VDW>
-23.6696

>  <SCORE.INTER.norm>
-0.564364

>  <SCORE.INTRA>
-5.91436

>  <SCORE.INTRA.DIHEDRAL>
0.868353

>  <SCORE.INTRA.DIHEDRAL.0>
9.63727

>  <SCORE.INTRA.POLAR>
0.025762

>  <SCORE.INTRA.POLAR.0>
-0.167074

>  <SCORE.INTRA.REPUL>
0

>  <SCORE.INTRA.REPUL.0>
0

>  <SCORE.INTRA.VDW>
-6.43613

>  <SCORE.INTRA.VDW.0>
9.25931

>  <SCORE.INTRA.norm>
-0.21905

>  <SCORE.RESTR>
0

>  <SCORE.RESTR.CAVITY>
0

>  <SCORE.RESTR.norm>
0

>  <SCORE.SYSTEM>
-0.943414

>  <SCORE.SYSTEM.CONST>
0

>  <SCORE.SYSTEM.DIHEDRAL>
0.0177789

>  <SCORE.SYSTEM.POLAR>
-0.00208907

>  <SCORE.SYSTEM.VDW>
-0.945201

>  <SCORE.SYSTEM.norm>
-0.0349413

>  <SCORE.heavy>
27

>  <SCORE.norm>
-0.818356

$$$$
969516
  RxDock  02242101573D
librxdock.so/0.1.0
 29 30  0  0  0  0  0  0  0  0999 V2000
  -44.5703   -0.2277   19.9566 O   0  0  0  0  0  0
  -49.7879   -6.4758   20.4657 O   0  0  0  0  0  0
  -42.9523   -2.2596   18.9674 O   0  0  0  0  0  0
  -48.3983   -8.0960   18.6856 O   0  0  0  0  0  0
  -48.3950    0.8391   13.0106 O   0  0  0  0  0  0
  -50.5909   -0.2498   16.5410 O   0  0  0  0  0  0
  -46.0523   -0.7710   16.6755 C   0  0  0  0  0  0
  -49.4948   -4.2659   17.5869 C   0  0  0  0  0  0
  -49.9540   -0.5330   14.2339 C   0  0  0  0  0  0
  -45.8336   -0.2438   17.9379 C   0  0  0  0  0  0
  -49.8290   -4.7269   18.8499 C   0  0  0  0  0  0
  -44.7879   -0.7431   18.7145 C   0  0  0  0  0  0
  -49.4603   -6.0190   19.2249 C   0  0  0  0  0  0
  -45.2542   -1.7835   16.1684 C   0  0  0  0  0  0
  -48.8019   -5.0613   16.6887 C   0  0  0  0  0  0
  -47.1562   -0.2432   15.8543 C   0  0  0  0  0  0
  -49.8832   -2.9008   17.1907 C   0  0  0  0  0  0
  -43.9756   -1.7627   18.2180 C   0  0  0  0  0  0
  -48.7625   -6.8320   18.3316 C   0  0  0  0  0  0
  -48.5732   -0.0356   13.8544 C   0  0  0  0  0  0
  -50.1117   -0.9769   15.6748 C   0  0  0  0  0  0
  -44.2087   -2.2828   16.9448 C   0  0  0  0  0  0
  -48.4333   -6.3530   17.0636 C   0  0  0  0  0  0
  -47.4360   -0.6443   14.6063 C   0  0  0  0  0  0
  -49.6901   -2.3780   15.9715 C   0  0  0  0  0  0
  -45.1203   -0.9435   21.0608 C   0  0  0  0  0  0
  -49.1434   -5.8547   21.5762 C   0  0  0  0  0  0
  -42.3212   -2.6979   18.3705 H   0  0  0  0  0  0
  -48.1032   -8.5746   17.8920 H   0  0  0  0  0  0
  1 12  1  0  0  0
  1 26  1  0  0  0
  2 13  1  0  0  0
  2 27  1  0  0  0
  3 18  1  0  0  0
  3 28  1  0  0  0
  4 19  1  0  0  0
  4 29  1  0  0  0
  5 20  2  0  0  0
  6 21  2  0  0  0
  7 10  2  0  0  0
  7 14  1  0  0  0
  7 16  1  0  0  0
  8 11  2  0  0  0
  8 15  1  0  0  0
  8 17  1  0  0  0
  9 20  1  0  0  0
  9 21  1  0  0  0
 10 12  1  0  0  0
 11 13  1  0  0  0
 12 18  2  0  0  0
 13 19  2  0  0  0
 14 22  2  0  0  0
 15 23  2  0  0  0
 16 24  2  0  0  0
 17 25  2  0  0  0
 18 22  1  0  0  0
 19 23  1  0  0  0
 20 24  1  0  0  0
 21 25  1  0  0  0
M  END
>  <CHROM.0>
57.57635780,-63.02923626,-178.43309123

>  <CHROM.1>
97.26568620,-67.39283273,-159.46068967,167.69710071,177.78342535,-175.58221494
-148.00654633,98.08612521,100.22857536,3.06282829,-47.63127890,-2.68251085
17.47585877,-1.22036932,0.52988494,2.45147687

>  <Name>
969516

>  <PUBCHEM_ATOM_DEF_STEREO_COUNT>
0

>  <PUBCHEM_ATOM_UDEF_STEREO_COUNT>
0

>  <PUBCHEM_BOND_DEF_STEREO_COUNT>
2

>  <PUBCHEM_BOND_UDEF_STEREO_COUNT>
0

>  <PUBCHEM_CACTVS_TAUTO_COUNT>
49

>  <PUBCHEM_COMPONENT_COUNT>
1

>  <PUBCHEM_COMPOUND_CID>
969516

>  <PUBCHEM_CONFORMER_DIVERSEORDER>
82
80
54
21
40
74
55
61
46
34
47
4
43
38
81
26
17
78
6
35
23
73
57
63
2
39
32
14
1
30
56
36
72
41
70
60
3
69
27
58
33
25
49
71
42
65
28
76
5
48
52
77
37
79
59
9
29
8
13
50
31
20
62
7
44
16
66
75
51
68
67
22
64
45
24
12
19
11
18
15
10
53

>  <PUBCHEM_CONFORMER_ID>
000ECB2C00000052

>  <PUBCHEM_CONFORMER_RMSD>
1

>  <PUBCHEM_COORDINATE_TYPE>
2
5
10

>  <PUBCHEM_EFFECTIVE_ROTOR_COUNT>
8

>  <PUBCHEM_FEATURE_SELFOVERLAP>
45.672

>  <PUBCHEM_HEAVY_ATOM_COUNT>
27

>  <PUBCHEM_ISOTOPIC_ATOM_COUNT>
0

>  <PUBCHEM_MMFF94_ENERGY>
92.651

>  <PUBCHEM_MMFF94_PARTIAL_CHARGES>
39
1 -0.36
10 -0.15
11 -0.15
12 0.08
13 0.08
14 -0.15
15 -0.15
16 -0.18
17 -0.18
18 0.08
19 0.08
2 -0.36
20 0.49
21 0.49
22 -0.15
23 -0.15
24 -0.14
25 -0.14
26 0.28
27 0.28
3 -0.53
30 0.15
31 0.15
32 0.15
33 0.15
34 0.15
35 0.15
36 0.15
37 0.15
38 0.15
39 0.15
4 -0.53
40 0.45
41 0.45
5 -0.57
6 -0.57
7 0.03
8 0.03
9 0.12

>  <PUBCHEM_PHARMACOPHORE_FEATURES>
9
1 1 acceptor
1 2 acceptor
1 3 donor
1 4 donor
1 5 acceptor
1 6 acceptor
1 9 anion
6 7 10 12 14 18 22 rings
6 8 11 13 15 19 23 rings

>  <PUBCHEM_SHAPE_FINGERPRINT>
10 15 12751240315890217573
10319688 140 18337398252872831732
10669705 162 18337104575972446653
10917259 69 18192703459598944165
11211813 128 18272932692783743174
11410812 94 16370996361790263860
117089 54 18267879293612551318
11828532 37 17896331370365246675
12342043 65 18188209905213906085
12758862 65 18410567410511369408
12760667 363 18411139121760541745
13533116 47 18272092759487660785
1361 87 17822307806824084883
13673619 4 18187085057046420093
13782708 43 18187646942401274497
13911852 28 18342177760919306525
13955234 65 18127412482311963032
14251764 75 8934705700369515222
14931854 50 17458064828953579058
15188451 53 18040713637372491534
15510800 12 18334017193917594602
15519825 34 15769481128208245039
16096371 109 17842545529393793568
1768 124 17918273151673982878
190975 80 18273208699771038632
1979834 28 17274556351083136116
20105231 36 17632018551801690966
20165401 70 18269560610432539175
2026 5 18187081767692646843
21033650 10 16081361917848681093
21307412 95 17967532394149105875
21315764 119 16081364133534249763
21585481 104 14779540124190440126
21585482 111 9150633321735644751
21585482 310 18261684739337370307
21682296 61 18408609175854266457
22149856 69 18130234757594157200
229767 8 17769106648757633326
2303208 19 17749956686811695209
23559900 14 17895477059232625973
270888 7 9367336016755256852
3014063 24 18201716258419056095
32027 91 18336829796691442577
3383291 50 18335703857830032987
34797466 226 16806453698591057205
4046055 4 18260545598226657845
439807 62 17967816037266467641
4461854 278 17917996092435725982
46194498 28 17749669692248635052
474113 269 18060412513729437109
5104073 3 17843397381307680056
513202 73 18411700985483149125
5718773 13 18410291402073184614
59682541 35 18342166779510532640
6126387 218 18059849546448719409
96874 4 17846488266996003727
9689198 14 12751239220357137022
9962374 69 18270389628765581455

>  <PUBCHEM_SHAPE_MULTIPOLES>
520.43
25.03
3.33
1.58
5.48
1.87
-0.01
-22.64
-2.84
-3.92
0.39
2.68
-0.7
1.55

>  <PUBCHEM_SHAPE_SELFOVERLAP>
1103.249

>  <PUBCHEM_SHAPE_VOLUME>
290

>  <RI>
-2.80906e+08

>  <Rbt.Current_Directory>
/root/miniconda3/envs/rdock/share/rxdock-2013.1.1_148c5bd1-0/data/ligands/prepped_ligands/Curcumin

>  <Rbt.Executable>
rbdock/0.1.0

>  <Rbt.Library>
librxdock.so/0.1.0

>  <Rbt.Parameter_File>
/root/miniconda3/envs/rdock/share/rxdock-2013.1.1_148c5bd1-0/data/scripts/dock.prm

>  <Rbt.Receptor>
def.prm

>  <SCORE>
-13.237

>  <SCORE.INTER>
-11.2767

>  <SCORE.INTER.CONST>
1

>  <SCORE.INTER.POLAR>
-1.76769

>  <SCORE.INTER.REPUL>
0.0322369

>  <SCORE.INTER.ROT>
8

>  <SCORE.INTER.VDW>
-18.8277

>  <SCORE.INTER.norm>
-0.417654

>  <SCORE.INTRA>
-0.875322

>  <SCORE.INTRA.DIHEDRAL>
14.3468

>  <SCORE.INTRA.DIHEDRAL.0>
9.63727

>  <SCORE.INTRA.POLAR>
0.167074

>  <SCORE.INTRA.POLAR.0>
-0.167074

>  <SCORE.INTRA.REPUL>
0

>  <SCORE.INTRA.REPUL.0>
0

>  <SCORE.INTRA.VDW>
-8.61678

>  <SCORE.INTRA.VDW.0>
9.25931

>  <SCORE.INTRA.norm>
-0.0324193

>  <SCORE.RESTR>
0

>  <SCORE.RESTR.CAVITY>
0

>  <SCORE.RESTR.norm>
0

>  <SCORE.SYSTEM>
-1.085

>  <SCORE.SYSTEM.CONST>
0

>  <SCORE.SYSTEM.DIHEDRAL>
0.066427

>  <SCORE.SYSTEM.POLAR>
-0.00569218

>  <SCORE.SYSTEM.VDW>
-1.09886

>  <SCORE.SYSTEM.norm>
-0.040185

>  <SCORE.heavy>
27

>  <SCORE.norm>
-0.490259

$$$$
969516
  RxDock  02242101573D
librxdock.so/0.1.0
 29 30  0  0  0  0  0  0  0  0999 V2000
  -50.7171   -9.2499   19.5100 O   0  0  0  0  0  0
  -43.9098   -0.8308   14.9350 O   0  0  0  0  0  0
  -52.3918   -7.8244   21.2095 O   0  0  0  0  0  0
  -43.6977   -0.0308   17.5883 O   0  0  0  0  0  0
  -49.6749   -4.3754   14.0144 O   0  0  0  0  0  0
  -51.1114   -0.3345   13.5805 O   0  0  0  0  0  0
  -51.1422   -6.1534   17.6423 C   0  0  0  0  0  0
  -47.4023   -0.2244   15.7669 C   0  0  0  0  0  0
  -51.3989   -2.6910   13.9961 C   0  0  0  0  0  0
  -50.7154   -7.4286   17.9756 C   0  0  0  0  0  0
  -46.2739   -0.5628   15.0379 C   0  0  0  0  0  0
  -51.1353   -7.9965   19.1785 C   0  0  0  0  0  0
  -45.0215   -0.4994   15.6491 C   0  0  0  0  0  0
  -51.9773   -5.4306   18.4786 C   0  0  0  0  0  0
  -47.3128    0.1757   17.0904 C   0  0  0  0  0  0
  -50.6996   -5.5535   16.3711 C   0  0  0  0  0  0
  -48.7255   -0.2922   15.1219 C   0  0  0  0  0  0
  -51.9761   -7.2812   20.0315 C   0  0  0  0  0  0
  -44.9151   -0.0983   16.9809 C   0  0  0  0  0  0
  -50.6559   -3.8833   14.5659 C   0  0  0  0  0  0
  -50.6413   -1.3783   14.0259 C   0  0  0  0  0  0
  -52.3972   -5.9983   19.6813 C   0  0  0  0  0  0
  -46.0608    0.2391   17.7014 C   0  0  0  0  0  0
  -51.1637   -4.3995   15.8715 C   0  0  0  0  0  0
  -49.2981   -1.4194   14.6763 C   0  0  0  0  0  0
  -49.4033   -9.3727   20.0513 C   0  0  0  0  0  0
  -43.8720   -2.1370   14.3635 C   0  0  0  0  0  0
  -52.1033   -8.7532   21.2365 H   0  0  0  0  0  0
  -43.7938    0.4284   18.4403 H   0  0  0  0  0  0
  1 12  1  0  0  0
  1 26  1  0  0  0
  2 13  1  0  0  0
  2 27  1  0  0  0
  3 18  1  0  0  0
  3 28  1  0  0  0
  4 19  1  0  0  0
  4 29  1  0  0  0
  5 20  2  0  0  0
  6 21  2  0  0  0
  7 10  2  0  0  0
  7 14  1  0  0  0
  7 16  1  0  0  0
  8 11  2  0  0  0
  8 15  1  0  0  0
  8 17  1  0  0  0
  9 20  1  0  0  0
  9 21  1  0  0  0
 10 12  1  0  0  0
 11 13  1  0  0  0
 12 18  2  0  0  0
 13 19  2  0  0  0
 14 22  2  0  0  0
 15 23  2  0  0  0
 16 24  2  0  0  0
 17 25  2  0  0  0
 18 22  1  0  0  0
 19 23  1  0  0  0
 20 24  1  0  0  0
 21 25  1  0  0  0
M  END
>  <CHROM.0>
59.08219066,177.35088320,-178.13132745

>  <CHROM.1>
79.71383774,-57.47543929,-7.35036899,168.88629921,172.00632674,64.36216786
-68.92345066,178.90963527,-11.08256625,18.34171519,-48.97673210,-3.55951303
16.72674009,-2.21953032,-0.39116559,-0.75544393

>  <Name>
969516

>  <PUBCHEM_ATOM_DEF_STEREO_COUNT>
0

>  <PUBCHEM_ATOM_UDEF_STEREO_COUNT>
0

>  <PUBCHEM_BOND_DEF_STEREO_COUNT>
2

>  <PUBCHEM_BOND_UDEF_STEREO_COUNT>
0

>  <PUBCHEM_CACTVS_TAUTO_COUNT>
49

>  <PUBCHEM_COMPONENT_COUNT>
1

>  <PUBCHEM_COMPOUND_CID>
969516

>  <PUBCHEM_CONFORMER_DIVERSEORDER>
82
80
54
21
40
74
55
61
46
34
47
4
43
38
81
26
17
78
6
35
23
73
57
63
2
39
32
14
1
30
56
36
72
41
70
60
3
69
27
58
33
25
49
71
42
65
28
76
5
48
52
77
37
79
59
9
29
8
13
50
31
20
62
7
44
16
66
75
51
68
67
22
64
45
24
12
19
11
18
15
10
53

>  <PUBCHEM_CONFORMER_ID>
000ECB2C00000052

>  <PUBCHEM_CONFORMER_RMSD>
1

>  <PUBCHEM_COORDINATE_TYPE>
2
5
10

>  <PUBCHEM_EFFECTIVE_ROTOR_COUNT>
8

>  <PUBCHEM_FEATURE_SELFOVERLAP>
45.672

>  <PUBCHEM_HEAVY_ATOM_COUNT>
27

>  <PUBCHEM_ISOTOPIC_ATOM_COUNT>
0

>  <PUBCHEM_MMFF94_ENERGY>
92.651

>  <PUBCHEM_MMFF94_PARTIAL_CHARGES>
39
1 -0.36
10 -0.15
11 -0.15
12 0.08
13 0.08
14 -0.15
15 -0.15
16 -0.18
17 -0.18
18 0.08
19 0.08
2 -0.36
20 0.49
21 0.49
22 -0.15
23 -0.15
24 -0.14
25 -0.14
26 0.28
27 0.28
3 -0.53
30 0.15
31 0.15
32 0.15
33 0.15
34 0.15
35 0.15
36 0.15
37 0.15
38 0.15
39 0.15
4 -0.53
40 0.45
41 0.45
5 -0.57
6 -0.57
7 0.03
8 0.03
9 0.12

>  <PUBCHEM_PHARMACOPHORE_FEATURES>
9
1 1 acceptor
1 2 acceptor
1 3 donor
1 4 donor
1 5 acceptor
1 6 acceptor
1 9 anion
6 7 10 12 14 18 22 rings
6 8 11 13 15 19 23 rings

>  <PUBCHEM_SHAPE_FINGERPRINT>
10 15 12751240315890217573
10319688 140 18337398252872831732
10669705 162 18337104575972446653
10917259 69 18192703459598944165
11211813 128 18272932692783743174
11410812 94 16370996361790263860
117089 54 18267879293612551318
11828532 37 17896331370365246675
12342043 65 18188209905213906085
12758862 65 18410567410511369408
12760667 363 18411139121760541745
13533116 47 18272092759487660785
1361 87 17822307806824084883
13673619 4 18187085057046420093
13782708 43 18187646942401274497
13911852 28 18342177760919306525
13955234 65 18127412482311963032
14251764 75 8934705700369515222
14931854 50 17458064828953579058
15188451 53 18040713637372491534
15510800 12 18334017193917594602
15519825 34 15769481128208245039
16096371 109 17842545529393793568
1768 124 17918273151673982878
190975 80 18273208699771038632
1979834 28 17274556351083136116
20105231 36 17632018551801690966
20165401 70 18269560610432539175
2026 5 18187081767692646843
21033650 10 16081361917848681093
21307412 95 17967532394149105875
21315764 119 16081364133534249763
21585481 104 14779540124190440126
21585482 111 9150633321735644751
21585482 310 18261684739337370307
21682296 61 18408609175854266457
22149856 69 18130234757594157200
229767 8 17769106648757633326
2303208 19 17749956686811695209
23559900 14 17895477059232625973
270888 7 9367336016755256852
3014063 24 18201716258419056095
32027 91 18336829796691442577
3383291 50 18335703857830032987
34797466 226 16806453698591057205
4046055 4 18260545598226657845
439807 62 17967816037266467641
4461854 278 17917996092435725982
46194498 28 17749669692248635052
474113 269 18060412513729437109
5104073 3 17843397381307680056
513202 73 18411700985483149125
5718773 13 18410291402073184614
59682541 35 18342166779510532640
6126387 218 18059849546448719409
96874 4 17846488266996003727
9689198 14 12751239220357137022
9962374 69 18270389628765581455

>  <PUBCHEM_SHAPE_MULTIPOLES>
520.43
25.03
3.33
1.58
5.48
1.87
-0.01
-22.64
-2.84
-3.92
0.39
2.68
-0.7
1.55

>  <PUBCHEM_SHAPE_SELFOVERLAP>
1103.249

>  <PUBCHEM_SHAPE_VOLUME>
290

>  <RI>
-2.80906e+08

>  <Rbt.Current_Directory>
/root/miniconda3/envs/rdock/share/rxdock-2013.1.1_148c5bd1-0/data/ligands/prepped_ligands/Curcumin

>  <Rbt.Executable>
rbdock/0.1.0

>  <Rbt.Library>
librxdock.so/0.1.0

>  <Rbt.Parameter_File>
/root/miniconda3/envs/rdock/share/rxdock-2013.1.1_148c5bd1-0/data/scripts/dock.prm

>  <Rbt.Receptor>
def.prm

>  <SCORE>
-9.88396

>  <SCORE.INTER>
-6.85468

>  <SCORE.INTER.CONST>
1

>  <SCORE.INTER.POLAR>
0

>  <SCORE.INTER.REPUL>
0

>  <SCORE.INTER.ROT>
8

>  <SCORE.INTER.VDW>
-20.2547

>  <SCORE.INTER.norm>
-0.253877

>  <SCORE.INTRA>
-1.94093

>  <SCORE.INTRA.DIHEDRAL>
11.1266

>  <SCORE.INTRA.DIHEDRAL.0>
9.63727

>  <SCORE.INTRA.POLAR>
0.107475

>  <SCORE.INTRA.POLAR.0>
-0.167074

>  <SCORE.INTRA.REPUL>
0

>  <SCORE.INTRA.REPUL.0>
0

>  <SCORE.INTRA.VDW>
-7.86964

>  <SCORE.INTRA.VDW.0>
9.25931

>  <SCORE.INTRA.norm>
-0.0718862

>  <SCORE.RESTR>
0

>  <SCORE.RESTR.CAVITY>
0

>  <SCORE.RESTR.norm>
0

>  <SCORE.SYSTEM>
-1.08836

>  <SCORE.SYSTEM.CONST>
0

>  <SCORE.SYSTEM.DIHEDRAL>
0.0446202

>  <SCORE.SYSTEM.POLAR>
-0.00635103

>  <SCORE.SYSTEM.VDW>
-1.08907

>  <SCORE.SYSTEM.norm>
-0.0403095

>  <SCORE.heavy>
27

>  <SCORE.norm>
-0.366073

$$$$
