969516
  RxDock  02242112513D
librxdock.so/0.1.0
 29 30  0  0  0  0  0  0  0  0999 V2000
  -44.4401    2.1766   19.8889 O   0  0  0  0  0  0
  -56.1473   -7.5977   14.9605 O   0  0  0  0  0  0
  -42.4257    0.5240   18.9213 O   0  0  0  0  0  0
  -54.5763   -9.0157   16.7622 O   0  0  0  0  0  0
  -50.2688   -0.0264   15.8963 O   0  0  0  0  0  0
  -52.0526   -1.5316   13.8314 O   0  0  0  0  0  0
  -46.2688    0.2026   17.4362 C   0  0  0  0  0  0
  -53.2969   -5.3606   15.3189 C   0  0  0  0  0  0
  -49.7512   -1.8860   14.4529 C   0  0  0  0  0  0
  -46.0021    1.1422   18.4186 C   0  0  0  0  0  0
  -54.5148   -5.8651   14.8927 C   0  0  0  0  0  0
  -44.7060    1.2543   18.9222 C   0  0  0  0  0  0
  -54.9506   -7.0983   15.3780 C   0  0  0  0  0  0
  -45.2754   -0.6279   16.9434 C   0  0  0  0  0  0
  -52.5029   -6.0553   16.2170 C   0  0  0  0  0  0
  -47.6376    0.0844   16.9031 C   0  0  0  0  0  0
  -52.8367   -4.0576   14.8073 C   0  0  0  0  0  0
  -43.6949    0.4251   18.4365 C   0  0  0  0  0  0
  -54.1623   -7.8098   16.2825 C   0  0  0  0  0  0
  -49.4232   -0.8055   15.4643 C   0  0  0  0  0  0
  -51.2164   -2.2625   14.3560 C   0  0  0  0  0  0
  -43.9796   -0.5159   17.4469 C   0  0  0  0  0  0
  -52.9386   -7.2882   16.7020 C   0  0  0  0  0  0
  -48.0093   -0.7736   15.9427 C   0  0  0  0  0  0
  -51.5779   -3.6057   14.8984 C   0  0  0  0  0  0
  -45.1263    2.0303   21.1306 C   0  0  0  0  0  0
  -56.4132   -7.5579   13.5598 C   0  0  0  0  0  0
  -42.3899    1.2805   19.5322 H   0  0  0  0  0  0
  -55.4528   -9.2193   16.3933 H   0  0  0  0  0  0
  1 12  1  0  0  0
  1 26  1  0  0  0
  2 13  1  0  0  0
  2 27  1  0  0  0
  3 18  1  0  0  0
  3 28  1  0  0  0
  4 19  1  0  0  0
  4 29  1  0  0  0
  5 20  2  0  0  0
  6 21  2  0  0  0
  7 10  2  0  0  0
  7 14  1  0  0  0
  7 16  1  0  0  0
  8 11  2  0  0  0
  8 15  1  0  0  0
  8 17  1  0  0  0
  9 20  1  0  0  0
  9 21  1  0  0  0
 10 12  1  0  0  0
 11 13  1  0  0  0
 12 18  2  0  0  0
 13 19  2  0  0  0
 14 22  2  0  0  0
 15 23  2  0  0  0
 16 24  2  0  0  0
 17 25  2  0  0  0
 18 22  1  0  0  0
 19 23  1  0  0  0
 20 24  1  0  0  0
 21 25  1  0  0  0
M  END
>  <CHROM.0>
-60.36943993,-176.85970556,178.18025246

>  <CHROM.1>
61.96813360,46.73132429,-5.53765483,-1.68741555,179.12313128,-164.33323052
-19.93126791,73.03103076,2.51678123,0.91615372,-49.80223435,-2.66463450,16.47598597
-0.33735288,0.63996476,2.51194580

>  <Name>
969516

>  <PUBCHEM_ATOM_DEF_STEREO_COUNT>
0

>  <PUBCHEM_ATOM_UDEF_STEREO_COUNT>
0

>  <PUBCHEM_BOND_DEF_STEREO_COUNT>
2

>  <PUBCHEM_BOND_UDEF_STEREO_COUNT>
0

>  <PUBCHEM_CACTVS_TAUTO_COUNT>
49

>  <PUBCHEM_COMPONENT_COUNT>
1

>  <PUBCHEM_COMPOUND_CID>
969516

>  <PUBCHEM_CONFORMER_DIVERSEORDER>
82
80
54
21
40
74
55
61
46
34
47
4
43
38
81
26
17
78
6
35
23
73
57
63
2
39
32
14
1
30
56
36
72
41
70
60
3
69
27
58
33
25
49
71
42
65
28
76
5
48
52
77
37
79
59
9
29
8
13
50
31
20
62
7
44
16
66
75
51
68
67
22
64
45
24
12
19
11
18
15
10
53

>  <PUBCHEM_CONFORMER_ID>
000ECB2C00000052

>  <PUBCHEM_CONFORMER_RMSD>
1

>  <PUBCHEM_COORDINATE_TYPE>
2
5
10

>  <PUBCHEM_EFFECTIVE_ROTOR_COUNT>
8

>  <PUBCHEM_FEATURE_SELFOVERLAP>
45.672

>  <PUBCHEM_HEAVY_ATOM_COUNT>
27

>  <PUBCHEM_ISOTOPIC_ATOM_COUNT>
0

>  <PUBCHEM_MMFF94_ENERGY>
92.651

>  <PUBCHEM_MMFF94_PARTIAL_CHARGES>
39
1 -0.36
10 -0.15
11 -0.15
12 0.08
13 0.08
14 -0.15
15 -0.15
16 -0.18
17 -0.18
18 0.08
19 0.08
2 -0.36
20 0.49
21 0.49
22 -0.15
23 -0.15
24 -0.14
25 -0.14
26 0.28
27 0.28
3 -0.53
30 0.15
31 0.15
32 0.15
33 0.15
34 0.15
35 0.15
36 0.15
37 0.15
38 0.15
39 0.15
4 -0.53
40 0.45
41 0.45
5 -0.57
6 -0.57
7 0.03
8 0.03
9 0.12

>  <PUBCHEM_PHARMACOPHORE_FEATURES>
9
1 1 acceptor
1 2 acceptor
1 3 donor
1 4 donor
1 5 acceptor
1 6 acceptor
1 9 anion
6 7 10 12 14 18 22 rings
6 8 11 13 15 19 23 rings

>  <PUBCHEM_SHAPE_FINGERPRINT>
10 15 12751240315890217573
10319688 140 18337398252872831732
10669705 162 18337104575972446653
10917259 69 18192703459598944165
11211813 128 18272932692783743174
11410812 94 16370996361790263860
117089 54 18267879293612551318
11828532 37 17896331370365246675
12342043 65 18188209905213906085
12758862 65 18410567410511369408
12760667 363 18411139121760541745
13533116 47 18272092759487660785
1361 87 17822307806824084883
13673619 4 18187085057046420093
13782708 43 18187646942401274497
13911852 28 18342177760919306525
13955234 65 18127412482311963032
14251764 75 8934705700369515222
14931854 50 17458064828953579058
15188451 53 18040713637372491534
15510800 12 18334017193917594602
15519825 34 15769481128208245039
16096371 109 17842545529393793568
1768 124 17918273151673982878
190975 80 18273208699771038632
1979834 28 17274556351083136116
20105231 36 17632018551801690966
20165401 70 18269560610432539175
2026 5 18187081767692646843
21033650 10 16081361917848681093
21307412 95 17967532394149105875
21315764 119 16081364133534249763
21585481 104 14779540124190440126
21585482 111 9150633321735644751
21585482 310 18261684739337370307
21682296 61 18408609175854266457
22149856 69 18130234757594157200
229767 8 17769106648757633326
2303208 19 17749956686811695209
23559900 14 17895477059232625973
270888 7 9367336016755256852
3014063 24 18201716258419056095
32027 91 18336829796691442577
3383291 50 18335703857830032987
34797466 226 16806453698591057205
4046055 4 18260545598226657845
439807 62 17967816037266467641
4461854 278 17917996092435725982
46194498 28 17749669692248635052
474113 269 18060412513729437109
5104073 3 17843397381307680056
513202 73 18411700985483149125
5718773 13 18410291402073184614
59682541 35 18342166779510532640
6126387 218 18059849546448719409
96874 4 17846488266996003727
9689198 14 12751239220357137022
9962374 69 18270389628765581455

>  <PUBCHEM_SHAPE_MULTIPOLES>
520.43
25.03
3.33
1.58
5.48
1.87
-0.01
-22.64
-2.84
-3.92
0.39
2.68
-0.7
1.55

>  <PUBCHEM_SHAPE_SELFOVERLAP>
1103.249

>  <PUBCHEM_SHAPE_VOLUME>
290

>  <RI>
-8.85374e+08

>  <Rbt.Current_Directory>
/root/miniconda3/envs/rdock/share/rxdock-2013.1.1_148c5bd1-0/data/ligands/prepped_ligands/Curcumin

>  <Rbt.Executable>
rbdock/0.1.0

>  <Rbt.Library>
librxdock.so/0.1.0

>  <Rbt.Parameter_File>
/root/miniconda3/envs/rdock/share/rxdock-2013.1.1_148c5bd1-0/data/scripts/dock.prm

>  <Rbt.Receptor>
def.prm

>  <SCORE>
-16.8726

>  <SCORE.INTER>
-8.43793

>  <SCORE.INTER.CONST>
1

>  <SCORE.INTER.POLAR>
-1.22579

>  <SCORE.INTER.REPUL>
0

>  <SCORE.INTER.ROT>
8

>  <SCORE.INTER.VDW>
-17.6703

>  <SCORE.INTER.norm>
-0.312516

>  <SCORE.INTRA>
-7.3521

>  <SCORE.INTRA.DIHEDRAL>
-0.0794658

>  <SCORE.INTRA.DIHEDRAL.0>
9.63727

>  <SCORE.INTRA.POLAR>
-0.0966182

>  <SCORE.INTRA.POLAR.0>
-0.167074

>  <SCORE.INTRA.REPUL>
0

>  <SCORE.INTRA.REPUL.0>
0

>  <SCORE.INTRA.VDW>
-6.98386

>  <SCORE.INTRA.VDW.0>
9.25931

>  <SCORE.INTRA.norm>
-0.2723

>  <SCORE.RESTR>
0

>  <SCORE.RESTR.CAVITY>
0

>  <SCORE.RESTR.norm>
0

>  <SCORE.SYSTEM>
-1.08259

>  <SCORE.SYSTEM.CONST>
0

>  <SCORE.SYSTEM.DIHEDRAL>
0.0590116

>  <SCORE.SYSTEM.VDW>
-1.1121

>  <SCORE.SYSTEM.norm>
-0.040096

>  <SCORE.heavy>
27

>  <SCORE.norm>
-0.624912

$$$$
969516
  RxDock  02242112513D
librxdock.so/0.1.0
 29 30  0  0  0  0  0  0  0  0999 V2000
  -45.6557   -1.5841   19.6157 O   0  0  0  0  0  0
  -50.2586   -8.2815   17.2881 O   0  0  0  0  0  0
  -42.9245   -1.8991   19.2070 O   0  0  0  0  0  0
  -52.0960   -7.5424   19.2382 O   0  0  0  0  0  0
  -48.1179   -0.2005   12.7707 O   0  0  0  0  0  0
  -49.2855   -3.5209   11.9361 O   0  0  0  0  0  0
  -45.4442   -1.2499   15.9962 C   0  0  0  0  0  0
  -51.0884   -4.8993   16.2251 C   0  0  0  0  0  0
  -49.7760   -1.7781   13.5269 C   0  0  0  0  0  0
  -45.9797   -1.3076   17.2726 C   0  0  0  0  0  0
  -50.4990   -6.1529   16.2476 C   0  0  0  0  0  0
  -45.1326   -1.5260   18.3592 C   0  0  0  0  0  0
  -50.8368   -7.0483   17.2626 C   0  0  0  0  0  0
  -44.0851   -1.4046   15.7765 C   0  0  0  0  0  0
  -52.0064   -4.5166   17.1897 C   0  0  0  0  0  0
  -46.3385   -1.0182   14.8482 C   0  0  0  0  0  0
  -50.7327   -3.9536   15.1526 C   0  0  0  0  0  0
  -43.7618   -1.6839   18.1542 C   0  0  0  0  0  0
  -51.7593   -6.6775   18.2411 C   0  0  0  0  0  0
  -48.4708   -1.0129   13.6218 C   0  0  0  0  0  0
  -49.6535   -3.2177   13.0681 C   0  0  0  0  0  0
  -43.2381   -1.6229   16.8628 C   0  0  0  0  0  0
  -52.3441   -5.4117   18.2045 C   0  0  0  0  0  0
  -47.6544   -1.2735   14.8444 C   0  0  0  0  0  0
  -49.9640   -4.2546   14.0964 C   0  0  0  0  0  0
  -45.7878   -0.3511   20.3204 C   0  0  0  0  0  0
  -48.9008   -8.3519   17.7190 C   0  0  0  0  0  0
  -43.4217   -2.3630   19.9030 H   0  0  0  0  0  0
  -52.3184   -7.0340   20.0369 H   0  0  0  0  0  0
  1 12  1  0  0  0
  1 26  1  0  0  0
  2 13  1  0  0  0
  2 27  1  0  0  0
  3 18  1  0  0  0
  3 28  1  0  0  0
  4 19  1  0  0  0
  4 29  1  0  0  0
  5 20  2  0  0  0
  6 21  2  0  0  0
  7 10  2  0  0  0
  7 14  1  0  0  0
  7 16  1  0  0  0
  8 11  2  0  0  0
  8 15  1  0  0  0
  8 17  1  0  0  0
  9 20  1  0  0  0
  9 21  1  0  0  0
 10 12  1  0  0  0
 11 13  1  0  0  0
 12 18  2  0  0  0
 13 19  2  0  0  0
 14 22  2  0  0  0
 15 23  2  0  0  0
 16 24  2  0  0  0
 17 25  2  0  0  0
 18 22  1  0  0  0
 19 23  1  0  0  0
 20 24  1  0  0  0
 21 25  1  0  0  0
M  END
>  <CHROM.0>
-71.20753238,-63.34045277,175.21844600

>  <CHROM.1>
-87.76043001,74.85902610,29.32089449,149.37245005,-22.49044184,6.88516898
102.48032454,-66.30225991,-23.68610532,-159.51683221,-48.19852253,-3.43196385
16.46316958,-0.32481867,0.62894039,2.12407598

>  <Name>
969516

>  <PUBCHEM_ATOM_DEF_STEREO_COUNT>
0

>  <PUBCHEM_ATOM_UDEF_STEREO_COUNT>
0

>  <PUBCHEM_BOND_DEF_STEREO_COUNT>
2

>  <PUBCHEM_BOND_UDEF_STEREO_COUNT>
0

>  <PUBCHEM_CACTVS_TAUTO_COUNT>
49

>  <PUBCHEM_COMPONENT_COUNT>
1

>  <PUBCHEM_COMPOUND_CID>
969516

>  <PUBCHEM_CONFORMER_DIVERSEORDER>
82
80
54
21
40
74
55
61
46
34
47
4
43
38
81
26
17
78
6
35
23
73
57
63
2
39
32
14
1
30
56
36
72
41
70
60
3
69
27
58
33
25
49
71
42
65
28
76
5
48
52
77
37
79
59
9
29
8
13
50
31
20
62
7
44
16
66
75
51
68
67
22
64
45
24
12
19
11
18
15
10
53

>  <PUBCHEM_CONFORMER_ID>
000ECB2C00000052

>  <PUBCHEM_CONFORMER_RMSD>
1

>  <PUBCHEM_COORDINATE_TYPE>
2
5
10

>  <PUBCHEM_EFFECTIVE_ROTOR_COUNT>
8

>  <PUBCHEM_FEATURE_SELFOVERLAP>
45.672

>  <PUBCHEM_HEAVY_ATOM_COUNT>
27

>  <PUBCHEM_ISOTOPIC_ATOM_COUNT>
0

>  <PUBCHEM_MMFF94_ENERGY>
92.651

>  <PUBCHEM_MMFF94_PARTIAL_CHARGES>
39
1 -0.36
10 -0.15
11 -0.15
12 0.08
13 0.08
14 -0.15
15 -0.15
16 -0.18
17 -0.18
18 0.08
19 0.08
2 -0.36
20 0.49
21 0.49
22 -0.15
23 -0.15
24 -0.14
25 -0.14
26 0.28
27 0.28
3 -0.53
30 0.15
31 0.15
32 0.15
33 0.15
34 0.15
35 0.15
36 0.15
37 0.15
38 0.15
39 0.15
4 -0.53
40 0.45
41 0.45
5 -0.57
6 -0.57
7 0.03
8 0.03
9 0.12

>  <PUBCHEM_PHARMACOPHORE_FEATURES>
9
1 1 acceptor
1 2 acceptor
1 3 donor
1 4 donor
1 5 acceptor
1 6 acceptor
1 9 anion
6 7 10 12 14 18 22 rings
6 8 11 13 15 19 23 rings

>  <PUBCHEM_SHAPE_FINGERPRINT>
10 15 12751240315890217573
10319688 140 18337398252872831732
10669705 162 18337104575972446653
10917259 69 18192703459598944165
11211813 128 18272932692783743174
11410812 94 16370996361790263860
117089 54 18267879293612551318
11828532 37 17896331370365246675
12342043 65 18188209905213906085
12758862 65 18410567410511369408
12760667 363 18411139121760541745
13533116 47 18272092759487660785
1361 87 17822307806824084883
13673619 4 18187085057046420093
13782708 43 18187646942401274497
13911852 28 18342177760919306525
13955234 65 18127412482311963032
14251764 75 8934705700369515222
14931854 50 17458064828953579058
15188451 53 18040713637372491534
15510800 12 18334017193917594602
15519825 34 15769481128208245039
16096371 109 17842545529393793568
1768 124 17918273151673982878
190975 80 18273208699771038632
1979834 28 17274556351083136116
20105231 36 17632018551801690966
20165401 70 18269560610432539175
2026 5 18187081767692646843
21033650 10 16081361917848681093
21307412 95 17967532394149105875
21315764 119 16081364133534249763
21585481 104 14779540124190440126
21585482 111 9150633321735644751
21585482 310 18261684739337370307
21682296 61 18408609175854266457
22149856 69 18130234757594157200
229767 8 17769106648757633326
2303208 19 17749956686811695209
23559900 14 17895477059232625973
270888 7 9367336016755256852
3014063 24 18201716258419056095
32027 91 18336829796691442577
3383291 50 18335703857830032987
34797466 226 16806453698591057205
4046055 4 18260545598226657845
439807 62 17967816037266467641
4461854 278 17917996092435725982
46194498 28 17749669692248635052
474113 269 18060412513729437109
5104073 3 17843397381307680056
513202 73 18411700985483149125
5718773 13 18410291402073184614
59682541 35 18342166779510532640
6126387 218 18059849546448719409
96874 4 17846488266996003727
9689198 14 12751239220357137022
9962374 69 18270389628765581455

>  <PUBCHEM_SHAPE_MULTIPOLES>
520.43
25.03
3.33
1.58
5.48
1.87
-0.01
-22.64
-2.84
-3.92
0.39
2.68
-0.7
1.55

>  <PUBCHEM_SHAPE_SELFOVERLAP>
1103.249

>  <PUBCHEM_SHAPE_VOLUME>
290

>  <RI>
-8.85374e+08

>  <Rbt.Current_Directory>
/root/miniconda3/envs/rdock/share/rxdock-2013.1.1_148c5bd1-0/data/ligands/prepped_ligands/Curcumin

>  <Rbt.Executable>
rbdock/0.1.0

>  <Rbt.Library>
librxdock.so/0.1.0

>  <Rbt.Parameter_File>
/root/miniconda3/envs/rdock/share/rxdock-2013.1.1_148c5bd1-0/data/scripts/dock.prm

>  <Rbt.Receptor>
def.prm

>  <SCORE>
-14.5444

>  <SCORE.INTER>
-10.5007

>  <SCORE.INTER.CONST>
1

>  <SCORE.INTER.POLAR>
-0.388663

>  <SCORE.INTER.REPUL>
0

>  <SCORE.INTER.ROT>
8

>  <SCORE.INTER.VDW>
-22.5793

>  <SCORE.INTER.norm>
-0.388916

>  <SCORE.INTRA>
-3.17688

>  <SCORE.INTRA.DIHEDRAL>
9.51632

>  <SCORE.INTRA.DIHEDRAL.0>
9.63727

>  <SCORE.INTRA.POLAR>
0.157936

>  <SCORE.INTRA.POLAR.0>
-0.167074

>  <SCORE.INTRA.REPUL>
0

>  <SCORE.INTRA.REPUL.0>
0

>  <SCORE.INTRA.VDW>
-8.47202

>  <SCORE.INTRA.VDW.0>
9.25931

>  <SCORE.INTRA.norm>
-0.117662

>  <SCORE.RESTR>
0

>  <SCORE.RESTR.CAVITY>
0

>  <SCORE.RESTR.norm>
0

>  <SCORE.SYSTEM>
-0.866825

>  <SCORE.SYSTEM.CONST>
0

>  <SCORE.SYSTEM.DIHEDRAL>
0.424037

>  <SCORE.SYSTEM.VDW>
-1.07884

>  <SCORE.SYSTEM.norm>
-0.0321046

>  <SCORE.heavy>
27

>  <SCORE.norm>
-0.538683

$$$$
969516
  RxDock  02242112513D
librxdock.so/0.1.0
 29 30  0  0  0  0  0  0  0  0999 V2000
  -43.4325    1.1226   19.2687 O   0  0  0  0  0  0
  -49.7812   -7.3367   17.9546 O   0  0  0  0  0  0
  -42.0991   -1.3143   19.1720 O   0  0  0  0  0  0
  -52.3506   -8.3662   18.2059 O   0  0  0  0  0  0
  -48.2234    0.4038   13.6454 O   0  0  0  0  0  0
  -51.0491   -1.4424   13.5840 O   0  0  0  0  0  0
  -45.1725   -0.5216   16.5253 C   0  0  0  0  0  0
  -51.6703   -5.0266   15.8685 C   0  0  0  0  0  0
  -48.7130   -1.9200   13.2333 C   0  0  0  0  0  0
  -44.8193    0.4416   17.4564 C   0  0  0  0  0  0
  -50.6030   -5.6216   16.5213 C   0  0  0  0  0  0
  -43.7820    0.1782   18.3512 C   0  0  0  0  0  0
  -50.8283   -6.7494   17.3108 C   0  0  0  0  0  0
  -44.5171   -1.7407   16.4643 C   0  0  0  0  0  0
  -52.9567   -5.5283   15.9834 C   0  0  0  0  0  0
  -46.2674   -0.2435   15.5791 C   0  0  0  0  0  0
  -51.4327   -3.8358   15.0336 C   0  0  0  0  0  0
  -43.1126   -1.0447   18.3026 C   0  0  0  0  0  0
  -52.1178   -7.2664   17.4366 C   0  0  0  0  0  0
  -47.9440   -0.7731   13.8589 C   0  0  0  0  0  0
  -50.0896   -2.1736   13.8153 C   0  0  0  0  0  0
  -43.4801   -2.0041   17.3590 C   0  0  0  0  0  0
  -53.1818   -6.6558   16.7728 C   0  0  0  0  0  0
  -46.8469   -1.1623   14.7938 C   0  0  0  0  0  0
  -50.2226   -3.4008   14.6550 C   0  0  0  0  0  0
  -42.4405    2.0699   18.8779 C   0  0  0  0  0  0
  -49.1748   -8.4589   17.3164 C   0  0  0  0  0  0
  -41.6106   -2.0881   18.8415 H   0  0  0  0  0  0
  -51.5206   -8.6327   18.6370 H   0  0  0  0  0  0
  1 12  1  0  0  0
  1 26  1  0  0  0
  2 13  1  0  0  0
  2 27  1  0  0  0
  3 18  1  0  0  0
  3 28  1  0  0  0
  4 19  1  0  0  0
  4 29  1  0  0  0
  5 20  2  0  0  0
  6 21  2  0  0  0
  7 10  2  0  0  0
  7 14  1  0  0  0
  7 16  1  0  0  0
  8 11  2  0  0  0
  8 15  1  0  0  0
  8 17  1  0  0  0
  9 20  1  0  0  0
  9 21  1  0  0  0
 10 12  1  0  0  0
 11 13  1  0  0  0
 12 18  2  0  0  0
 13 19  2  0  0  0
 14 22  2  0  0  0
 15 23  2  0  0  0
 16 24  2  0  0  0
 17 25  2  0  0  0
 18 22  1  0  0  0
 19 23  1  0  0  0
 20 24  1  0  0  0
 21 25  1  0  0  0
M  END
>  <CHROM.0>
177.58072384,-65.03543893,63.55052898

>  <CHROM.1>
-89.43971419,-96.71383534,-165.15571148,3.33746136,-168.17410796,12.31898416
-73.98050950,74.23935805,10.03979453,8.95567068,-47.97044308,-2.91224361
16.46903795,-0.44078861,0.55689493,2.47750383

>  <Name>
969516

>  <PUBCHEM_ATOM_DEF_STEREO_COUNT>
0

>  <PUBCHEM_ATOM_UDEF_STEREO_COUNT>
0

>  <PUBCHEM_BOND_DEF_STEREO_COUNT>
2

>  <PUBCHEM_BOND_UDEF_STEREO_COUNT>
0

>  <PUBCHEM_CACTVS_TAUTO_COUNT>
49

>  <PUBCHEM_COMPONENT_COUNT>
1

>  <PUBCHEM_COMPOUND_CID>
969516

>  <PUBCHEM_CONFORMER_DIVERSEORDER>
82
80
54
21
40
74
55
61
46
34
47
4
43
38
81
26
17
78
6
35
23
73
57
63
2
39
32
14
1
30
56
36
72
41
70
60
3
69
27
58
33
25
49
71
42
65
28
76
5
48
52
77
37
79
59
9
29
8
13
50
31
20
62
7
44
16
66
75
51
68
67
22
64
45
24
12
19
11
18
15
10
53

>  <PUBCHEM_CONFORMER_ID>
000ECB2C00000052

>  <PUBCHEM_CONFORMER_RMSD>
1

>  <PUBCHEM_COORDINATE_TYPE>
2
5
10

>  <PUBCHEM_EFFECTIVE_ROTOR_COUNT>
8

>  <PUBCHEM_FEATURE_SELFOVERLAP>
45.672

>  <PUBCHEM_HEAVY_ATOM_COUNT>
27

>  <PUBCHEM_ISOTOPIC_ATOM_COUNT>
0

>  <PUBCHEM_MMFF94_ENERGY>
92.651

>  <PUBCHEM_MMFF94_PARTIAL_CHARGES>
39
1 -0.36
10 -0.15
11 -0.15
12 0.08
13 0.08
14 -0.15
15 -0.15
16 -0.18
17 -0.18
18 0.08
19 0.08
2 -0.36
20 0.49
21 0.49
22 -0.15
23 -0.15
24 -0.14
25 -0.14
26 0.28
27 0.28
3 -0.53
30 0.15
31 0.15
32 0.15
33 0.15
34 0.15
35 0.15
36 0.15
37 0.15
38 0.15
39 0.15
4 -0.53
40 0.45
41 0.45
5 -0.57
6 -0.57
7 0.03
8 0.03
9 0.12

>  <PUBCHEM_PHARMACOPHORE_FEATURES>
9
1 1 acceptor
1 2 acceptor
1 3 donor
1 4 donor
1 5 acceptor
1 6 acceptor
1 9 anion
6 7 10 12 14 18 22 rings
6 8 11 13 15 19 23 rings

>  <PUBCHEM_SHAPE_FINGERPRINT>
10 15 12751240315890217573
10319688 140 18337398252872831732
10669705 162 18337104575972446653
10917259 69 18192703459598944165
11211813 128 18272932692783743174
11410812 94 16370996361790263860
117089 54 18267879293612551318
11828532 37 17896331370365246675
12342043 65 18188209905213906085
12758862 65 18410567410511369408
12760667 363 18411139121760541745
13533116 47 18272092759487660785
1361 87 17822307806824084883
13673619 4 18187085057046420093
13782708 43 18187646942401274497
13911852 28 18342177760919306525
13955234 65 18127412482311963032
14251764 75 8934705700369515222
14931854 50 17458064828953579058
15188451 53 18040713637372491534
15510800 12 18334017193917594602
15519825 34 15769481128208245039
16096371 109 17842545529393793568
1768 124 17918273151673982878
190975 80 18273208699771038632
1979834 28 17274556351083136116
20105231 36 17632018551801690966
20165401 70 18269560610432539175
2026 5 18187081767692646843
21033650 10 16081361917848681093
21307412 95 17967532394149105875
21315764 119 16081364133534249763
21585481 104 14779540124190440126
21585482 111 9150633321735644751
21585482 310 18261684739337370307
21682296 61 18408609175854266457
22149856 69 18130234757594157200
229767 8 17769106648757633326
2303208 19 17749956686811695209
23559900 14 17895477059232625973
270888 7 9367336016755256852
3014063 24 18201716258419056095
32027 91 18336829796691442577
3383291 50 18335703857830032987
34797466 226 16806453698591057205
4046055 4 18260545598226657845
439807 62 17967816037266467641
4461854 278 17917996092435725982
46194498 28 17749669692248635052
474113 269 18060412513729437109
5104073 3 17843397381307680056
513202 73 18411700985483149125
5718773 13 18410291402073184614
59682541 35 18342166779510532640
6126387 218 18059849546448719409
96874 4 17846488266996003727
9689198 14 12751239220357137022
9962374 69 18270389628765581455

>  <PUBCHEM_SHAPE_MULTIPOLES>
520.43
25.03
3.33
1.58
5.48
1.87
-0.01
-22.64
-2.84
-3.92
0.39
2.68
-0.7
1.55

>  <PUBCHEM_SHAPE_SELFOVERLAP>
1103.249

>  <PUBCHEM_SHAPE_VOLUME>
290

>  <RI>
-8.85374e+08

>  <Rbt.Current_Directory>
/root/miniconda3/envs/rdock/share/rxdock-2013.1.1_148c5bd1-0/data/ligands/prepped_ligands/Curcumin

>  <Rbt.Executable>
rbdock/0.1.0

>  <Rbt.Library>
librxdock.so/0.1.0

>  <Rbt.Parameter_File>
/root/miniconda3/envs/rdock/share/rxdock-2013.1.1_148c5bd1-0/data/scripts/dock.prm

>  <Rbt.Receptor>
def.prm

>  <SCORE>
-25.5353

>  <SCORE.INTER>
-17.6048

>  <SCORE.INTER.CONST>
1

>  <SCORE.INTER.POLAR>
-2.20166

>  <SCORE.INTER.REPUL>
0.00320332

>  <SCORE.INTER.ROT>
8

>  <SCORE.INTER.VDW>
-23.5352

>  <SCORE.INTER.norm>
-0.652029

>  <SCORE.INTRA>
-6.93984

>  <SCORE.INTRA.DIHEDRAL>
2.82449

>  <SCORE.INTRA.DIHEDRAL.0>
9.63727

>  <SCORE.INTRA.POLAR>
0.167074

>  <SCORE.INTRA.POLAR.0>
-0.167074

>  <SCORE.INTRA.REPUL>
0

>  <SCORE.INTRA.REPUL.0>
0

>  <SCORE.INTRA.VDW>
-8.92013

>  <SCORE.INTRA.VDW.0>
9.25931

>  <SCORE.INTRA.norm>
-0.257031

>  <SCORE.RESTR>
0

>  <SCORE.RESTR.CAVITY>
0

>  <SCORE.RESTR.norm>
0

>  <SCORE.SYSTEM>
-0.990653

>  <SCORE.SYSTEM.CONST>
0

>  <SCORE.SYSTEM.DIHEDRAL>
0.168942

>  <SCORE.SYSTEM.POLAR>
-0.00856035

>  <SCORE.SYSTEM.VDW>
-1.04602

>  <SCORE.SYSTEM.norm>
-0.0366908

>  <SCORE.heavy>
27

>  <SCORE.norm>
-0.945751

$$$$
969516
  RxDock  02242112513D
librxdock.so/0.1.0
 29 30  0  0  0  0  0  0  0  0999 V2000
  -49.7874   -9.0559   17.6363 O   0  0  0  0  0  0
  -45.7061    2.2598   18.7986 O   0  0  0  0  0  0
  -51.8200   -8.3430   19.3929 O   0  0  0  0  0  0
  -43.2766    1.8248   20.0766 O   0  0  0  0  0  0
  -49.2578   -0.9932   15.2870 O   0  0  0  0  0  0
  -45.7933   -3.4013   13.9611 O   0  0  0  0  0  0
  -50.0295   -5.4766   17.0145 C   0  0  0  0  0  0
  -44.5752   -0.7786   17.1414 C   0  0  0  0  0  0
  -48.1202   -2.8250   14.2098 C   0  0  0  0  0  0
  -49.6028   -6.7914   16.9227 C   0  0  0  0  0  0
  -45.3658    0.3086   17.4764 C   0  0  0  0  0  0
  -50.2049   -7.7621   17.7234 C   0  0  0  0  0  0
  -44.9309    1.1901   18.4662 C   0  0  0  0  0  0
  -51.0417   -5.1058   17.8848 C   0  0  0  0  0  0
  -43.3615   -1.0085   17.7690 C   0  0  0  0  0  0
  -49.3945   -4.4509   16.1682 C   0  0  0  0  0  0
  -45.0338   -1.7095   16.0952 C   0  0  0  0  0  0
  -51.2253   -7.4045   18.6048 C   0  0  0  0  0  0
  -43.7113    0.9720   19.1074 C   0  0  0  0  0  0
  -49.0562   -2.2034   15.2275 C   0  0  0  0  0  0
  -46.6442   -2.7335   14.5431 C   0  0  0  0  0  0
  -51.6438   -6.0762   18.6853 C   0  0  0  0  0  0
  -42.9268   -0.1273   18.7586 C   0  0  0  0  0  0
  -49.7593   -3.1616   16.1311 C   0  0  0  0  0  0
  -46.2777   -1.7411   15.5966 C   0  0  0  0  0  0
  -48.6756   -9.4340   18.4457 C   0  0  0  0  0  0
  -47.0706    1.9965   19.1201 C   0  0  0  0  0  0
  -52.4265   -7.8894   20.0037 H   0  0  0  0  0  0
  -43.9661    2.4893   20.2464 H   0  0  0  0  0  0
  1 12  1  0  0  0
  1 26  1  0  0  0
  2 13  1  0  0  0
  2 27  1  0  0  0
  3 18  1  0  0  0
  3 28  1  0  0  0
  4 19  1  0  0  0
  4 29  1  0  0  0
  5 20  2  0  0  0
  6 21  2  0  0  0
  7 10  2  0  0  0
  7 14  1  0  0  0
  7 16  1  0  0  0
  8 11  2  0  0  0
  8 15  1  0  0  0
  8 17  1  0  0  0
  9 20  1  0  0  0
  9 21  1  0  0  0
 10 12  1  0  0  0
 11 13  1  0  0  0
 12 18  2  0  0  0
 13 19  2  0  0  0
 14 22  2  0  0  0
 15 23  2  0  0  0
 16 24  2  0  0  0
 17 25  2  0  0  0
 18 22  1  0  0  0
 19 23  1  0  0  0
 20 24  1  0  0  0
 21 25  1  0  0  0
M  END
>  <CHROM.0>
54.95604775,64.55241273,-60.75442345

>  <CHROM.1>
86.31744029,51.89984086,173.57632285,4.39010455,177.16525038,-13.02155147
79.34399706,165.70718966,-171.15488120,-11.22122823,-47.57711020,-3.03931020
17.30550539,-2.99730556,-0.94407295,-1.35329713

>  <Name>
969516

>  <PUBCHEM_ATOM_DEF_STEREO_COUNT>
0

>  <PUBCHEM_ATOM_UDEF_STEREO_COUNT>
0

>  <PUBCHEM_BOND_DEF_STEREO_COUNT>
2

>  <PUBCHEM_BOND_UDEF_STEREO_COUNT>
0

>  <PUBCHEM_CACTVS_TAUTO_COUNT>
49

>  <PUBCHEM_COMPONENT_COUNT>
1

>  <PUBCHEM_COMPOUND_CID>
969516

>  <PUBCHEM_CONFORMER_DIVERSEORDER>
82
80
54
21
40
74
55
61
46
34
47
4
43
38
81
26
17
78
6
35
23
73
57
63
2
39
32
14
1
30
56
36
72
41
70
60
3
69
27
58
33
25
49
71
42
65
28
76
5
48
52
77
37
79
59
9
29
8
13
50
31
20
62
7
44
16
66
75
51
68
67
22
64
45
24
12
19
11
18
15
10
53

>  <PUBCHEM_CONFORMER_ID>
000ECB2C00000052

>  <PUBCHEM_CONFORMER_RMSD>
1

>  <PUBCHEM_COORDINATE_TYPE>
2
5
10

>  <PUBCHEM_EFFECTIVE_ROTOR_COUNT>
8

>  <PUBCHEM_FEATURE_SELFOVERLAP>
45.672

>  <PUBCHEM_HEAVY_ATOM_COUNT>
27

>  <PUBCHEM_ISOTOPIC_ATOM_COUNT>
0

>  <PUBCHEM_MMFF94_ENERGY>
92.651

>  <PUBCHEM_MMFF94_PARTIAL_CHARGES>
39
1 -0.36
10 -0.15
11 -0.15
12 0.08
13 0.08
14 -0.15
15 -0.15
16 -0.18
17 -0.18
18 0.08
19 0.08
2 -0.36
20 0.49
21 0.49
22 -0.15
23 -0.15
24 -0.14
25 -0.14
26 0.28
27 0.28
3 -0.53
30 0.15
31 0.15
32 0.15
33 0.15
34 0.15
35 0.15
36 0.15
37 0.15
38 0.15
39 0.15
4 -0.53
40 0.45
41 0.45
5 -0.57
6 -0.57
7 0.03
8 0.03
9 0.12

>  <PUBCHEM_PHARMACOPHORE_FEATURES>
9
1 1 acceptor
1 2 acceptor
1 3 donor
1 4 donor
1 5 acceptor
1 6 acceptor
1 9 anion
6 7 10 12 14 18 22 rings
6 8 11 13 15 19 23 rings

>  <PUBCHEM_SHAPE_FINGERPRINT>
10 15 12751240315890217573
10319688 140 18337398252872831732
10669705 162 18337104575972446653
10917259 69 18192703459598944165
11211813 128 18272932692783743174
11410812 94 16370996361790263860
117089 54 18267879293612551318
11828532 37 17896331370365246675
12342043 65 18188209905213906085
12758862 65 18410567410511369408
12760667 363 18411139121760541745
13533116 47 18272092759487660785
1361 87 17822307806824084883
13673619 4 18187085057046420093
13782708 43 18187646942401274497
13911852 28 18342177760919306525
13955234 65 18127412482311963032
14251764 75 8934705700369515222
14931854 50 17458064828953579058
15188451 53 18040713637372491534
15510800 12 18334017193917594602
15519825 34 15769481128208245039
16096371 109 17842545529393793568
1768 124 17918273151673982878
190975 80 18273208699771038632
1979834 28 17274556351083136116
20105231 36 17632018551801690966
20165401 70 18269560610432539175
2026 5 18187081767692646843
21033650 10 16081361917848681093
21307412 95 17967532394149105875
21315764 119 16081364133534249763
21585481 104 14779540124190440126
21585482 111 9150633321735644751
21585482 310 18261684739337370307
21682296 61 18408609175854266457
22149856 69 18130234757594157200
229767 8 17769106648757633326
2303208 19 17749956686811695209
23559900 14 17895477059232625973
270888 7 9367336016755256852
3014063 24 18201716258419056095
32027 91 18336829796691442577
3383291 50 18335703857830032987
34797466 226 16806453698591057205
4046055 4 18260545598226657845
439807 62 17967816037266467641
4461854 278 17917996092435725982
46194498 28 17749669692248635052
474113 269 18060412513729437109
5104073 3 17843397381307680056
513202 73 18411700985483149125
5718773 13 18410291402073184614
59682541 35 18342166779510532640
6126387 218 18059849546448719409
96874 4 17846488266996003727
9689198 14 12751239220357137022
9962374 69 18270389628765581455

>  <PUBCHEM_SHAPE_MULTIPOLES>
520.43
25.03
3.33
1.58
5.48
1.87
-0.01
-22.64
-2.84
-3.92
0.39
2.68
-0.7
1.55

>  <PUBCHEM_SHAPE_SELFOVERLAP>
1103.249

>  <PUBCHEM_SHAPE_VOLUME>
290

>  <RI>
-8.85374e+08

>  <Rbt.Current_Directory>
/root/miniconda3/envs/rdock/share/rxdock-2013.1.1_148c5bd1-0/data/ligands/prepped_ligands/Curcumin

>  <Rbt.Executable>
rbdock/0.1.0

>  <Rbt.Library>
librxdock.so/0.1.0

>  <Rbt.Parameter_File>
/root/miniconda3/envs/rdock/share/rxdock-2013.1.1_148c5bd1-0/data/scripts/dock.prm

>  <Rbt.Receptor>
def.prm

>  <SCORE>
-12.4448

>  <SCORE.INTER>
-5.69815

>  <SCORE.INTER.CONST>
1

>  <SCORE.INTER.POLAR>
-0.148109

>  <SCORE.INTER.REPUL>
0

>  <SCORE.INTER.ROT>
8

>  <SCORE.INTER.VDW>
-18.5946

>  <SCORE.INTER.norm>
-0.211043

>  <SCORE.INTRA>
-5.77565

>  <SCORE.INTRA.DIHEDRAL>
0.567541

>  <SCORE.INTRA.DIHEDRAL.0>
9.63727

>  <SCORE.INTRA.POLAR>
0.044477

>  <SCORE.INTRA.POLAR.0>
-0.167074

>  <SCORE.INTRA.REPUL>
0

>  <SCORE.INTRA.REPUL.0>
0

>  <SCORE.INTRA.VDW>
-6.21064

>  <SCORE.INTRA.VDW.0>
9.25931

>  <SCORE.INTRA.norm>
-0.213913

>  <SCORE.RESTR>
0

>  <SCORE.RESTR.CAVITY>
0

>  <SCORE.RESTR.norm>
0

>  <SCORE.SYSTEM>
-0.971014

>  <SCORE.SYSTEM.CONST>
0

>  <SCORE.SYSTEM.DIHEDRAL>
0.1701

>  <SCORE.SYSTEM.VDW>
-1.05606

>  <SCORE.SYSTEM.norm>
-0.0359635

>  <SCORE.heavy>
27

>  <SCORE.norm>
-0.460919

$$$$
969516
  RxDock  02242112523D
librxdock.so/0.1.0
 29 30  0  0  0  0  0  0  0  0999 V2000
  -44.0174   -1.1805   20.9157 O   0  0  0  0  0  0
  -54.1666   -7.3011   16.5260 O   0  0  0  0  0  0
  -42.1013   -1.9045   19.0370 O   0  0  0  0  0  0
  -51.9136   -8.2172   17.8713 O   0  0  0  0  0  0
  -49.8306    0.4084   16.6125 O   0  0  0  0  0  0
  -51.6666   -1.0455   13.4576 O   0  0  0  0  0  0
  -45.8989   -0.8207   17.8193 C   0  0  0  0  0  0
  -51.7606   -4.6876   15.7271 C   0  0  0  0  0  0
  -49.5307   -0.3814   14.3551 C   0  0  0  0  0  0
  -45.5977   -0.8173   19.1716 C   0  0  0  0  0  0
  -52.9464   -5.4031   15.7645 C   0  0  0  0  0  0
  -44.3169   -1.1819   19.5868 C   0  0  0  0  0  0
  -53.0025   -6.5947   16.4876 C   0  0  0  0  0  0
  -44.9545   -1.1785   16.8709 C   0  0  0  0  0  0
  -50.6294   -5.1310   16.3929 C   0  0  0  0  0  0
  -47.2515   -0.4346   17.3802 C   0  0  0  0  0  0
  -51.7012   -3.4283   14.9642 C   0  0  0  0  0  0
  -43.3551   -1.5450   18.6439 C   0  0  0  0  0  0
  -51.8718   -7.0543   17.1631 C   0  0  0  0  0  0
  -49.0885   -0.1034   15.7782 C   0  0  0  0  0  0
  -50.7319   -1.2953   14.2145 C   0  0  0  0  0  0
  -43.6739   -1.5431   17.2859 C   0  0  0  0  0  0
  -50.6854   -6.3223   17.1158 C   0  0  0  0  0  0
  -47.7007   -0.5341   16.1212 C   0  0  0  0  0  0
  -50.6897   -2.5505   15.0218 C   0  0  0  0  0  0
  -43.6577    0.0710   21.4977 C   0  0  0  0  0  0
  -54.6745   -7.7816   15.2828 C   0  0  0  0  0  0
  -41.7555   -2.5534   18.3998 H   0  0  0  0  0  0
  -52.7796   -8.6391   17.7367 H   0  0  0  0  0  0
  1 12  1  0  0  0
  1 26  1  0  0  0
  2 13  1  0  0  0
  2 27  1  0  0  0
  3 18  1  0  0  0
  3 28  1  0  0  0
  4 19  1  0  0  0
  4 29  1  0  0  0
  5 20  2  0  0  0
  6 21  2  0  0  0
  7 10  2  0  0  0
  7 14  1  0  0  0
  7 16  1  0  0  0
  8 11  2  0  0  0
  8 15  1  0  0  0
  8 17  1  0  0  0
  9 20  1  0  0  0
  9 21  1  0  0  0
 10 12  1  0  0  0
 11 13  1  0  0  0
 12 18  2  0  0  0
 13 19  2  0  0  0
 14 22  2  0  0  0
 15 23  2  0  0  0
 16 24  2  0  0  0
 17 25  2  0  0  0
 18 22  1  0  0  0
 19 23  1  0  0  0
 20 24  1  0  0  0
 21 25  1  0  0  0
M  END
>  <CHROM.0>
179.89217691,-62.74556185,-177.70687027

>  <CHROM.1>
-82.59587459,61.22886408,149.10676745,4.98538697,-172.62571524,169.10260084
-58.74312817,134.36146837,3.52118690,-1.77001846,-48.79938054,-2.92091182
16.96661091,-0.28603389,0.54727007,2.61701001

>  <Name>
969516

>  <PUBCHEM_ATOM_DEF_STEREO_COUNT>
0

>  <PUBCHEM_ATOM_UDEF_STEREO_COUNT>
0

>  <PUBCHEM_BOND_DEF_STEREO_COUNT>
2

>  <PUBCHEM_BOND_UDEF_STEREO_COUNT>
0

>  <PUBCHEM_CACTVS_TAUTO_COUNT>
49

>  <PUBCHEM_COMPONENT_COUNT>
1

>  <PUBCHEM_COMPOUND_CID>
969516

>  <PUBCHEM_CONFORMER_DIVERSEORDER>
82
80
54
21
40
74
55
61
46
34
47
4
43
38
81
26
17
78
6
35
23
73
57
63
2
39
32
14
1
30
56
36
72
41
70
60
3
69
27
58
33
25
49
71
42
65
28
76
5
48
52
77
37
79
59
9
29
8
13
50
31
20
62
7
44
16
66
75
51
68
67
22
64
45
24
12
19
11
18
15
10
53

>  <PUBCHEM_CONFORMER_ID>
000ECB2C00000052

>  <PUBCHEM_CONFORMER_RMSD>
1

>  <PUBCHEM_COORDINATE_TYPE>
2
5
10

>  <PUBCHEM_EFFECTIVE_ROTOR_COUNT>
8

>  <PUBCHEM_FEATURE_SELFOVERLAP>
45.672

>  <PUBCHEM_HEAVY_ATOM_COUNT>
27

>  <PUBCHEM_ISOTOPIC_ATOM_COUNT>
0

>  <PUBCHEM_MMFF94_ENERGY>
92.651

>  <PUBCHEM_MMFF94_PARTIAL_CHARGES>
39
1 -0.36
10 -0.15
11 -0.15
12 0.08
13 0.08
14 -0.15
15 -0.15
16 -0.18
17 -0.18
18 0.08
19 0.08
2 -0.36
20 0.49
21 0.49
22 -0.15
23 -0.15
24 -0.14
25 -0.14
26 0.28
27 0.28
3 -0.53
30 0.15
31 0.15
32 0.15
33 0.15
34 0.15
35 0.15
36 0.15
37 0.15
38 0.15
39 0.15
4 -0.53
40 0.45
41 0.45
5 -0.57
6 -0.57
7 0.03
8 0.03
9 0.12

>  <PUBCHEM_PHARMACOPHORE_FEATURES>
9
1 1 acceptor
1 2 acceptor
1 3 donor
1 4 donor
1 5 acceptor
1 6 acceptor
1 9 anion
6 7 10 12 14 18 22 rings
6 8 11 13 15 19 23 rings

>  <PUBCHEM_SHAPE_FINGERPRINT>
10 15 12751240315890217573
10319688 140 18337398252872831732
10669705 162 18337104575972446653
10917259 69 18192703459598944165
11211813 128 18272932692783743174
11410812 94 16370996361790263860
117089 54 18267879293612551318
11828532 37 17896331370365246675
12342043 65 18188209905213906085
12758862 65 18410567410511369408
12760667 363 18411139121760541745
13533116 47 18272092759487660785
1361 87 17822307806824084883
13673619 4 18187085057046420093
13782708 43 18187646942401274497
13911852 28 18342177760919306525
13955234 65 18127412482311963032
14251764 75 8934705700369515222
14931854 50 17458064828953579058
15188451 53 18040713637372491534
15510800 12 18334017193917594602
15519825 34 15769481128208245039
16096371 109 17842545529393793568
1768 124 17918273151673982878
190975 80 18273208699771038632
1979834 28 17274556351083136116
20105231 36 17632018551801690966
20165401 70 18269560610432539175
2026 5 18187081767692646843
21033650 10 16081361917848681093
21307412 95 17967532394149105875
21315764 119 16081364133534249763
21585481 104 14779540124190440126
21585482 111 9150633321735644751
21585482 310 18261684739337370307
21682296 61 18408609175854266457
22149856 69 18130234757594157200
229767 8 17769106648757633326
2303208 19 17749956686811695209
23559900 14 17895477059232625973
270888 7 9367336016755256852
3014063 24 18201716258419056095
32027 91 18336829796691442577
3383291 50 18335703857830032987
34797466 226 16806453698591057205
4046055 4 18260545598226657845
439807 62 17967816037266467641
4461854 278 17917996092435725982
46194498 28 17749669692248635052
474113 269 18060412513729437109
5104073 3 17843397381307680056
513202 73 18411700985483149125
5718773 13 18410291402073184614
59682541 35 18342166779510532640
6126387 218 18059849546448719409
96874 4 17846488266996003727
9689198 14 12751239220357137022
9962374 69 18270389628765581455

>  <PUBCHEM_SHAPE_MULTIPOLES>
520.43
25.03
3.33
1.58
5.48
1.87
-0.01
-22.64
-2.84
-3.92
0.39
2.68
-0.7
1.55

>  <PUBCHEM_SHAPE_SELFOVERLAP>
1103.249

>  <PUBCHEM_SHAPE_VOLUME>
290

>  <RI>
-8.85374e+08

>  <Rbt.Current_Directory>
/root/miniconda3/envs/rdock/share/rxdock-2013.1.1_148c5bd1-0/data/ligands/prepped_ligands/Curcumin

>  <Rbt.Executable>
rbdock/0.1.0

>  <Rbt.Library>
librxdock.so/0.1.0

>  <Rbt.Parameter_File>
/root/miniconda3/envs/rdock/share/rxdock-2013.1.1_148c5bd1-0/data/scripts/dock.prm

>  <Rbt.Receptor>
def.prm

>  <SCORE>
-23.9269

>  <SCORE.INTER>
-16.3985

>  <SCORE.INTER.CONST>
1

>  <SCORE.INTER.POLAR>
-2.21471

>  <SCORE.INTER.REPUL>
0.0701487

>  <SCORE.INTER.ROT>
8

>  <SCORE.INTER.VDW>
-22.6192

>  <SCORE.INTER.norm>
-0.60735

>  <SCORE.INTRA>
-6.45837

>  <SCORE.INTRA.DIHEDRAL>
3.19643

>  <SCORE.INTRA.DIHEDRAL.0>
9.63727

>  <SCORE.INTRA.POLAR>
0.0721925

>  <SCORE.INTRA.POLAR.0>
-0.167074

>  <SCORE.INTRA.REPUL>
0

>  <SCORE.INTRA.REPUL.0>
0

>  <SCORE.INTRA.VDW>
-8.30204

>  <SCORE.INTRA.VDW.0>
9.25931

>  <SCORE.INTRA.norm>
-0.239199

>  <SCORE.RESTR>
0.00577004

>  <SCORE.RESTR.CAVITY>
0.00577004

>  <SCORE.RESTR.norm>
0.000213705

>  <SCORE.SYSTEM>
-1.07584

>  <SCORE.SYSTEM.CONST>
0

>  <SCORE.SYSTEM.DIHEDRAL>
0.048537

>  <SCORE.SYSTEM.POLAR>
-0.0072492

>  <SCORE.SYSTEM.VDW>
-1.07546

>  <SCORE.SYSTEM.norm>
-0.0398459

>  <SCORE.heavy>
27

>  <SCORE.norm>
-0.886182

$$$$
969516
  RxDock  02242112523D
librxdock.so/0.1.0
 29 30  0  0  0  0  0  0  0  0999 V2000
  -45.2228   -0.0677   21.7275 O   0  0  0  0  0  0
  -51.6642   -7.9523   19.1644 O   0  0  0  0  0  0
  -42.8114    1.2035   21.1851 O   0  0  0  0  0  0
  -49.4364   -9.6065   19.0041 O   0  0  0  0  0  0
  -47.4697    0.0784   13.8720 O   0  0  0  0  0  0
  -49.3861   -1.9576   15.4738 O   0  0  0  0  0  0
  -45.2100   -0.1103   18.0868 C   0  0  0  0  0  0
  -49.3846   -5.8746   17.2295 C   0  0  0  0  0  0
  -47.1189   -2.1643   14.6825 C   0  0  0  0  0  0
  -45.6249   -0.3124   19.3930 C   0  0  0  0  0  0
  -50.5239   -6.2858   17.9020 C   0  0  0  0  0  0
  -44.8185    0.1300   20.4418 C   0  0  0  0  0  0
  -50.5453   -7.5445   18.5029 C   0  0  0  0  0  0
  -44.0111    0.5221   17.8004 C   0  0  0  0  0  0
  -48.2660   -6.6875   17.1414 C   0  0  0  0  0  0
  -46.0621   -0.5766   16.9785 C   0  0  0  0  0  0
  -49.3611   -4.5446   16.5955 C   0  0  0  0  0  0
  -43.6083    0.7683   20.1696 C   0  0  0  0  0  0
  -49.4271   -8.3746   18.4228 C   0  0  0  0  0  0
  -46.9004   -0.6643   14.6677 C   0  0  0  0  0  0
  -48.3618   -2.6329   15.4131 C   0  0  0  0  0  0
  -43.2047    0.9645   18.8488 C   0  0  0  0  0  0
  -48.2876   -7.9459   17.7422 C   0  0  0  0  0  0
  -45.9797   -0.1333   15.7162 C   0  0  0  0  0  0
  -48.2827   -3.9949   16.0195 C   0  0  0  0  0  0
  -45.3149   -1.4179   22.1776 C   0  0  0  0  0  0
  -51.9219   -7.3530   20.4328 C   0  0  0  0  0  0
  -43.2705    1.0373   22.0266 H   0  0  0  0  0  0
  -50.3142   -9.7677   19.3907 H   0  0  0  0  0  0
  1 12  1  0  0  0
  1 26  1  0  0  0
  2 13  1  0  0  0
  2 27  1  0  0  0
  3 18  1  0  0  0
  3 28  1  0  0  0
  4 19  1  0  0  0
  4 29  1  0  0  0
  5 20  2  0  0  0
  6 21  2  0  0  0
  7 10  2  0  0  0
  7 14  1  0  0  0
  7 16  1  0  0  0
  8 11  2  0  0  0
  8 15  1  0  0  0
  8 17  1  0  0  0
  9 20  1  0  0  0
  9 21  1  0  0  0
 10 12  1  0  0  0
 11 13  1  0  0  0
 12 18  2  0  0  0
 13 19  2  0  0  0
 14 22  2  0  0  0
 15 23  2  0  0  0
 16 24  2  0  0  0
 17 25  2  0  0  0
 18 22  1  0  0  0
 19 23  1  0  0  0
 20 24  1  0  0  0
 21 25  1  0  0  0
M  END
>  <CHROM.0>
59.52839270,-63.19850177,-176.95404043

>  <CHROM.1>
65.31465369,-73.76372567,-3.65917173,3.01880269,160.50724323,174.01866970
-81.58681592,30.88629704,134.63536046,3.24281689,-47.36836654,-3.07620208
18.02176744,-0.33122940,0.91702419,2.06328822

>  <Name>
969516

>  <PUBCHEM_ATOM_DEF_STEREO_COUNT>
0

>  <PUBCHEM_ATOM_UDEF_STEREO_COUNT>
0

>  <PUBCHEM_BOND_DEF_STEREO_COUNT>
2

>  <PUBCHEM_BOND_UDEF_STEREO_COUNT>
0

>  <PUBCHEM_CACTVS_TAUTO_COUNT>
49

>  <PUBCHEM_COMPONENT_COUNT>
1

>  <PUBCHEM_COMPOUND_CID>
969516

>  <PUBCHEM_CONFORMER_DIVERSEORDER>
82
80
54
21
40
74
55
61
46
34
47
4
43
38
81
26
17
78
6
35
23
73
57
63
2
39
32
14
1
30
56
36
72
41
70
60
3
69
27
58
33
25
49
71
42
65
28
76
5
48
52
77
37
79
59
9
29
8
13
50
31
20
62
7
44
16
66
75
51
68
67
22
64
45
24
12
19
11
18
15
10
53

>  <PUBCHEM_CONFORMER_ID>
000ECB2C00000052

>  <PUBCHEM_CONFORMER_RMSD>
1

>  <PUBCHEM_COORDINATE_TYPE>
2
5
10

>  <PUBCHEM_EFFECTIVE_ROTOR_COUNT>
8

>  <PUBCHEM_FEATURE_SELFOVERLAP>
45.672

>  <PUBCHEM_HEAVY_ATOM_COUNT>
27

>  <PUBCHEM_ISOTOPIC_ATOM_COUNT>
0

>  <PUBCHEM_MMFF94_ENERGY>
92.651

>  <PUBCHEM_MMFF94_PARTIAL_CHARGES>
39
1 -0.36
10 -0.15
11 -0.15
12 0.08
13 0.08
14 -0.15
15 -0.15
16 -0.18
17 -0.18
18 0.08
19 0.08
2 -0.36
20 0.49
21 0.49
22 -0.15
23 -0.15
24 -0.14
25 -0.14
26 0.28
27 0.28
3 -0.53
30 0.15
31 0.15
32 0.15
33 0.15
34 0.15
35 0.15
36 0.15
37 0.15
38 0.15
39 0.15
4 -0.53
40 0.45
41 0.45
5 -0.57
6 -0.57
7 0.03
8 0.03
9 0.12

>  <PUBCHEM_PHARMACOPHORE_FEATURES>
9
1 1 acceptor
1 2 acceptor
1 3 donor
1 4 donor
1 5 acceptor
1 6 acceptor
1 9 anion
6 7 10 12 14 18 22 rings
6 8 11 13 15 19 23 rings

>  <PUBCHEM_SHAPE_FINGERPRINT>
10 15 12751240315890217573
10319688 140 18337398252872831732
10669705 162 18337104575972446653
10917259 69 18192703459598944165
11211813 128 18272932692783743174
11410812 94 16370996361790263860
117089 54 18267879293612551318
11828532 37 17896331370365246675
12342043 65 18188209905213906085
12758862 65 18410567410511369408
12760667 363 18411139121760541745
13533116 47 18272092759487660785
1361 87 17822307806824084883
13673619 4 18187085057046420093
13782708 43 18187646942401274497
13911852 28 18342177760919306525
13955234 65 18127412482311963032
14251764 75 8934705700369515222
14931854 50 17458064828953579058
15188451 53 18040713637372491534
15510800 12 18334017193917594602
15519825 34 15769481128208245039
16096371 109 17842545529393793568
1768 124 17918273151673982878
190975 80 18273208699771038632
1979834 28 17274556351083136116
20105231 36 17632018551801690966
20165401 70 18269560610432539175
2026 5 18187081767692646843
21033650 10 16081361917848681093
21307412 95 17967532394149105875
21315764 119 16081364133534249763
21585481 104 14779540124190440126
21585482 111 9150633321735644751
21585482 310 18261684739337370307
21682296 61 18408609175854266457
22149856 69 18130234757594157200
229767 8 17769106648757633326
2303208 19 17749956686811695209
23559900 14 17895477059232625973
270888 7 9367336016755256852
3014063 24 18201716258419056095
32027 91 18336829796691442577
3383291 50 18335703857830032987
34797466 226 16806453698591057205
4046055 4 18260545598226657845
439807 62 17967816037266467641
4461854 278 17917996092435725982
46194498 28 17749669692248635052
474113 269 18060412513729437109
5104073 3 17843397381307680056
513202 73 18411700985483149125
5718773 13 18410291402073184614
59682541 35 18342166779510532640
6126387 218 18059849546448719409
96874 4 17846488266996003727
9689198 14 12751239220357137022
9962374 69 18270389628765581455

>  <PUBCHEM_SHAPE_MULTIPOLES>
520.43
25.03
3.33
1.58
5.48
1.87
-0.01
-22.64
-2.84
-3.92
0.39
2.68
-0.7
1.55

>  <PUBCHEM_SHAPE_SELFOVERLAP>
1103.249

>  <PUBCHEM_SHAPE_VOLUME>
290

>  <RI>
-8.85374e+08

>  <Rbt.Current_Directory>
/root/miniconda3/envs/rdock/share/rxdock-2013.1.1_148c5bd1-0/data/ligands/prepped_ligands/Curcumin

>  <Rbt.Executable>
rbdock/0.1.0

>  <Rbt.Library>
librxdock.so/0.1.0

>  <Rbt.Parameter_File>
/root/miniconda3/envs/rdock/share/rxdock-2013.1.1_148c5bd1-0/data/scripts/dock.prm

>  <Rbt.Receptor>
def.prm

>  <SCORE>
-9.22495

>  <SCORE.INTER>
-3.82383

>  <SCORE.INTER.CONST>
1

>  <SCORE.INTER.POLAR>
-0.275183

>  <SCORE.INTER.REPUL>
0.0223207

>  <SCORE.INTER.ROT>
8

>  <SCORE.INTER.VDW>
-16.3998

>  <SCORE.INTER.norm>
-0.141623

>  <SCORE.INTRA>
-4.33099

>  <SCORE.INTRA.DIHEDRAL>
8.17418

>  <SCORE.INTRA.DIHEDRAL.0>
9.63727

>  <SCORE.INTRA.POLAR>
-0.0100528

>  <SCORE.INTRA.POLAR.0>
-0.167074

>  <SCORE.INTRA.REPUL>
0

>  <SCORE.INTRA.REPUL.0>
0

>  <SCORE.INTRA.VDW>
-8.3839

>  <SCORE.INTRA.VDW.0>
9.25931

>  <SCORE.INTRA.norm>
-0.160407

>  <SCORE.RESTR>
0

>  <SCORE.RESTR.CAVITY>
0

>  <SCORE.RESTR.norm>
0

>  <SCORE.SYSTEM>
-1.07013

>  <SCORE.SYSTEM.CONST>
0

>  <SCORE.SYSTEM.DIHEDRAL>
0.0718341

>  <SCORE.SYSTEM.POLAR>
-0.00876049

>  <SCORE.SYSTEM.VDW>
-1.07626

>  <SCORE.SYSTEM.norm>
-0.0396345

>  <SCORE.heavy>
27

>  <SCORE.norm>
-0.341665

$$$$
969516
  RxDock  02242112523D
librxdock.so/0.1.0
 29 30  0  0  0  0  0  0  0  0999 V2000
  -51.4057   -7.3788   18.9219 O   0  0  0  0  0  0
  -53.8301   -7.9955   16.6417 O   0  0  0  0  0  0
  -51.0155   -6.3462   21.4728 O   0  0  0  0  0  0
  -56.1177   -6.4428   16.3570 O   0  0  0  0  0  0
  -46.6448   -1.5680   15.5666 O   0  0  0  0  0  0
  -48.9141   -3.3025   13.1688 O   0  0  0  0  0  0
  -49.6515   -4.2795   18.1641 C   0  0  0  0  0  0
  -52.4452   -4.9688   15.1655 C   0  0  0  0  0  0
  -48.9325   -1.5360   14.8083 C   0  0  0  0  0  0
  -50.3029   -5.4887   17.9825 C   0  0  0  0  0  0
  -52.5176   -6.2424   15.7061 C   0  0  0  0  0  0
  -50.7654   -6.1892   19.0966 C   0  0  0  0  0  0
  -53.7554   -6.7439   16.1090 C   0  0  0  0  0  0
  -49.4499   -3.7516   19.4291 C   0  0  0  0  0  0
  -53.5766   -4.1831   15.0166 C   0  0  0  0  0  0
  -49.1636   -3.5386   16.9874 C   0  0  0  0  0  0
  -51.1380   -4.4391   14.7388 C   0  0  0  0  0  0
  -50.5698   -5.6708   20.3769 C   0  0  0  0  0  0
  -54.9036   -5.9648   15.9658 C   0  0  0  0  0  0
  -47.8153   -1.8768   15.7746 C   0  0  0  0  0  0
  -49.5237   -2.7126   14.0572 C   0  0  0  0  0  0
  -49.9122   -4.4519   20.5430 C   0  0  0  0  0  0
  -54.8140   -4.6845   15.4195 C   0  0  0  0  0  0
  -48.2322   -2.5755   17.0265 C   0  0  0  0  0  0
  -50.8833   -3.1454   14.4967 C   0  0  0  0  0  0
  -50.7961   -8.3196   18.0402 C   0  0  0  0  0  0
  -54.5328   -8.9804   15.8865 C   0  0  0  0  0  0
  -51.8722   -6.7524   21.2540 H   0  0  0  0  0  0
  -56.5571   -6.8545   15.5932 H   0  0  0  0  0  0
  1 12  1  0  0  0
  1 26  1  0  0  0
  2 13  1  0  0  0
  2 27  1  0  0  0
  3 18  1  0  0  0
  3 28  1  0  0  0
  4 19  1  0  0  0
  4 29  1  0  0  0
  5 20  2  0  0  0
  6 21  2  0  0  0
  7 10  2  0  0  0
  7 14  1  0  0  0
  7 16  1  0  0  0
  8 11  2  0  0  0
  8 15  1  0  0  0
  8 17  1  0  0  0
  9 20  1  0  0  0
  9 21  1  0  0  0
 10 12  1  0  0  0
 11 13  1  0  0  0
 12 18  2  0  0  0
 13 19  2  0  0  0
 14 22  2  0  0  0
 15 23  2  0  0  0
 16 24  2  0  0  0
 17 25  2  0  0  0
 18 22  1  0  0  0
 19 23  1  0  0  0
 20 24  1  0  0  0
 21 25  1  0  0  0
M  END
>  <CHROM.0>
177.57673504,-169.68758303,-59.54235383

>  <CHROM.1>
47.11357695,-113.48052171,-37.97186136,-93.55583186,-161.24800717,-163.86222391
109.34314589,-71.38750768,-141.21413452,46.57021861,-51.20474387,-4.99068736
16.79108394,-2.67977652,-0.58044019,-1.09129924

>  <Name>
969516

>  <PUBCHEM_ATOM_DEF_STEREO_COUNT>
0

>  <PUBCHEM_ATOM_UDEF_STEREO_COUNT>
0

>  <PUBCHEM_BOND_DEF_STEREO_COUNT>
2

>  <PUBCHEM_BOND_UDEF_STEREO_COUNT>
0

>  <PUBCHEM_CACTVS_TAUTO_COUNT>
49

>  <PUBCHEM_COMPONENT_COUNT>
1

>  <PUBCHEM_COMPOUND_CID>
969516

>  <PUBCHEM_CONFORMER_DIVERSEORDER>
82
80
54
21
40
74
55
61
46
34
47
4
43
38
81
26
17
78
6
35
23
73
57
63
2
39
32
14
1
30
56
36
72
41
70
60
3
69
27
58
33
25
49
71
42
65
28
76
5
48
52
77
37
79
59
9
29
8
13
50
31
20
62
7
44
16
66
75
51
68
67
22
64
45
24
12
19
11
18
15
10
53

>  <PUBCHEM_CONFORMER_ID>
000ECB2C00000052

>  <PUBCHEM_CONFORMER_RMSD>
1

>  <PUBCHEM_COORDINATE_TYPE>
2
5
10

>  <PUBCHEM_EFFECTIVE_ROTOR_COUNT>
8

>  <PUBCHEM_FEATURE_SELFOVERLAP>
45.672

>  <PUBCHEM_HEAVY_ATOM_COUNT>
27

>  <PUBCHEM_ISOTOPIC_ATOM_COUNT>
0

>  <PUBCHEM_MMFF94_ENERGY>
92.651

>  <PUBCHEM_MMFF94_PARTIAL_CHARGES>
39
1 -0.36
10 -0.15
11 -0.15
12 0.08
13 0.08
14 -0.15
15 -0.15
16 -0.18
17 -0.18
18 0.08
19 0.08
2 -0.36
20 0.49
21 0.49
22 -0.15
23 -0.15
24 -0.14
25 -0.14
26 0.28
27 0.28
3 -0.53
30 0.15
31 0.15
32 0.15
33 0.15
34 0.15
35 0.15
36 0.15
37 0.15
38 0.15
39 0.15
4 -0.53
40 0.45
41 0.45
5 -0.57
6 -0.57
7 0.03
8 0.03
9 0.12

>  <PUBCHEM_PHARMACOPHORE_FEATURES>
9
1 1 acceptor
1 2 acceptor
1 3 donor
1 4 donor
1 5 acceptor
1 6 acceptor
1 9 anion
6 7 10 12 14 18 22 rings
6 8 11 13 15 19 23 rings

>  <PUBCHEM_SHAPE_FINGERPRINT>
10 15 12751240315890217573
10319688 140 18337398252872831732
10669705 162 18337104575972446653
10917259 69 18192703459598944165
11211813 128 18272932692783743174
11410812 94 16370996361790263860
117089 54 18267879293612551318
11828532 37 17896331370365246675
12342043 65 18188209905213906085
12758862 65 18410567410511369408
12760667 363 18411139121760541745
13533116 47 18272092759487660785
1361 87 17822307806824084883
13673619 4 18187085057046420093
13782708 43 18187646942401274497
13911852 28 18342177760919306525
13955234 65 18127412482311963032
14251764 75 8934705700369515222
14931854 50 17458064828953579058
15188451 53 18040713637372491534
15510800 12 18334017193917594602
15519825 34 15769481128208245039
16096371 109 17842545529393793568
1768 124 17918273151673982878
190975 80 18273208699771038632
1979834 28 17274556351083136116
20105231 36 17632018551801690966
20165401 70 18269560610432539175
2026 5 18187081767692646843
21033650 10 16081361917848681093
21307412 95 17967532394149105875
21315764 119 16081364133534249763
21585481 104 14779540124190440126
21585482 111 9150633321735644751
21585482 310 18261684739337370307
21682296 61 18408609175854266457
22149856 69 18130234757594157200
229767 8 17769106648757633326
2303208 19 17749956686811695209
23559900 14 17895477059232625973
270888 7 9367336016755256852
3014063 24 18201716258419056095
32027 91 18336829796691442577
3383291 50 18335703857830032987
34797466 226 16806453698591057205
4046055 4 18260545598226657845
439807 62 17967816037266467641
4461854 278 17917996092435725982
46194498 28 17749669692248635052
474113 269 18060412513729437109
5104073 3 17843397381307680056
513202 73 18411700985483149125
5718773 13 18410291402073184614
59682541 35 18342166779510532640
6126387 218 18059849546448719409
96874 4 17846488266996003727
9689198 14 12751239220357137022
9962374 69 18270389628765581455

>  <PUBCHEM_SHAPE_MULTIPOLES>
520.43
25.03
3.33
1.58
5.48
1.87
-0.01
-22.64
-2.84
-3.92
0.39
2.68
-0.7
1.55

>  <PUBCHEM_SHAPE_SELFOVERLAP>
1103.249

>  <PUBCHEM_SHAPE_VOLUME>
290

>  <RI>
-8.85374e+08

>  <Rbt.Current_Directory>
/root/miniconda3/envs/rdock/share/rxdock-2013.1.1_148c5bd1-0/data/ligands/prepped_ligands/Curcumin

>  <Rbt.Executable>
rbdock/0.1.0

>  <Rbt.Library>
librxdock.so/0.1.0

>  <Rbt.Parameter_File>
/root/miniconda3/envs/rdock/share/rxdock-2013.1.1_148c5bd1-0/data/scripts/dock.prm

>  <Rbt.Receptor>
def.prm

>  <SCORE>
-7.40219

>  <SCORE.INTER>
-7.34752

>  <SCORE.INTER.CONST>
1

>  <SCORE.INTER.POLAR>
-0.887926

>  <SCORE.INTER.REPUL>
0

>  <SCORE.INTER.ROT>
8

>  <SCORE.INTER.VDW>
-17.7286

>  <SCORE.INTER.norm>
-0.27213

>  <SCORE.INTRA>
0.773613

>  <SCORE.INTRA.DIHEDRAL>
19.4903

>  <SCORE.INTRA.DIHEDRAL.0>
9.63727

>  <SCORE.INTRA.POLAR>
0.167074

>  <SCORE.INTRA.POLAR.0>
-0.167074

>  <SCORE.INTRA.REPUL>
0

>  <SCORE.INTRA.REPUL.0>
0

>  <SCORE.INTRA.VDW>
-9.5396

>  <SCORE.INTRA.VDW.0>
9.25931

>  <SCORE.INTRA.norm>
0.0286523

>  <SCORE.RESTR>
0

>  <SCORE.RESTR.CAVITY>
0

>  <SCORE.RESTR.norm>
0

>  <SCORE.SYSTEM>
-0.828283

>  <SCORE.SYSTEM.CONST>
0

>  <SCORE.SYSTEM.DIHEDRAL>
0.528769

>  <SCORE.SYSTEM.POLAR>
-0.00194459

>  <SCORE.SYSTEM.VDW>
-1.08606

>  <SCORE.SYSTEM.norm>
-0.0306772

>  <SCORE.heavy>
27

>  <SCORE.norm>
-0.274155

$$$$
969516
  RxDock  02242112523D
librxdock.so/0.1.0
 29 30  0  0  0  0  0  0  0  0999 V2000
  -50.8820   -8.4129   20.9224 O   0  0  0  0  0  0
  -43.0989   -1.1590   17.5483 O   0  0  0  0  0  0
  -49.5864   -9.9422   18.9968 O   0  0  0  0  0  0
  -42.2827    0.9231   19.1987 O   0  0  0  0  0  0
  -52.0300   -2.0831   17.1214 O   0  0  0  0  0  0
  -50.2901    0.5734   16.6009 O   0  0  0  0  0  0
  -50.6378   -6.0298   18.1804 C   0  0  0  0  0  0
  -46.2204    0.6674   17.9702 C   0  0  0  0  0  0
  -50.0875   -1.6740   15.7543 C   0  0  0  0  0  0
  -50.9397   -6.5640   19.4226 C   0  0  0  0  0  0
  -45.3185   -0.2960   17.5486 C   0  0  0  0  0  0
  -50.5861   -7.8840   19.7024 C   0  0  0  0  0  0
  -43.9885   -0.2137   17.9615 C   0  0  0  0  0  0
  -49.9920   -6.7792   17.2105 C   0  0  0  0  0  0
  -45.8289    1.7109   18.7933 C   0  0  0  0  0  0
  -51.0103   -4.6350   17.8847 C   0  0  0  0  0  0
  -47.6255    0.5803   17.5351 C   0  0  0  0  0  0
  -49.9356   -8.6516   18.7361 C   0  0  0  0  0  0
  -43.5790    0.8310   18.7901 C   0  0  0  0  0  0
  -50.9894   -2.5171   16.6340 C   0  0  0  0  0  0
  -49.5693   -0.3982   16.3882 C   0  0  0  0  0  0
  -49.6384   -8.0990   17.4902 C   0  0  0  0  0  0
  -44.4993    1.7932   19.2060 C   0  0  0  0  0  0
  -50.5577   -3.9318   16.8372 C   0  0  0  0  0  0
  -48.1301   -0.4094   16.7848 C   0  0  0  0  0  0
  -52.1919   -8.1722   21.4327 C   0  0  0  0  0  0
  -43.4665   -2.5235   17.7411 C   0  0  0  0  0  0
  -48.9257  -10.2191   18.3384 H   0  0  0  0  0  0
  -41.7688    0.2085   18.7851 H   0  0  0  0  0  0
  1 12  1  0  0  0
  1 26  1  0  0  0
  2 13  1  0  0  0
  2 27  1  0  0  0
  3 18  1  0  0  0
  3 28  1  0  0  0
  4 19  1  0  0  0
  4 29  1  0  0  0
  5 20  2  0  0  0
  6 21  2  0  0  0
  7 10  2  0  0  0
  7 14  1  0  0  0
  7 16  1  0  0  0
  8 11  2  0  0  0
  8 15  1  0  0  0
  8 17  1  0  0  0
  9 20  1  0  0  0
  9 21  1  0  0  0
 10 12  1  0  0  0
 11 13  1  0  0  0
 12 18  2  0  0  0
 13 19  2  0  0  0
 14 22  2  0  0  0
 15 23  2  0  0  0
 16 24  2  0  0  0
 17 25  2  0  0  0
 18 22  1  0  0  0
 19 23  1  0  0  0
 20 24  1  0  0  0
 21 25  1  0  0  0
M  END
>  <CHROM.0>
178.78202847,-60.31105167,-60.80508684

>  <CHROM.1>
45.42724754,-51.22050914,-163.09647322,2.91742316,166.71320766,2.71224094
57.94272788,-71.61608496,-22.74520641,8.32994610,-48.23263278,-3.13066235
18.11718645,-2.22361620,-0.25133768,-0.31076394

>  <Name>
969516

>  <PUBCHEM_ATOM_DEF_STEREO_COUNT>
0

>  <PUBCHEM_ATOM_UDEF_STEREO_COUNT>
0

>  <PUBCHEM_BOND_DEF_STEREO_COUNT>
2

>  <PUBCHEM_BOND_UDEF_STEREO_COUNT>
0

>  <PUBCHEM_CACTVS_TAUTO_COUNT>
49

>  <PUBCHEM_COMPONENT_COUNT>
1

>  <PUBCHEM_COMPOUND_CID>
969516

>  <PUBCHEM_CONFORMER_DIVERSEORDER>
82
80
54
21
40
74
55
61
46
34
47
4
43
38
81
26
17
78
6
35
23
73
57
63
2
39
32
14
1
30
56
36
72
41
70
60
3
69
27
58
33
25
49
71
42
65
28
76
5
48
52
77
37
79
59
9
29
8
13
50
31
20
62
7
44
16
66
75
51
68
67
22
64
45
24
12
19
11
18
15
10
53

>  <PUBCHEM_CONFORMER_ID>
000ECB2C00000052

>  <PUBCHEM_CONFORMER_RMSD>
1

>  <PUBCHEM_COORDINATE_TYPE>
2
5
10

>  <PUBCHEM_EFFECTIVE_ROTOR_COUNT>
8

>  <PUBCHEM_FEATURE_SELFOVERLAP>
45.672

>  <PUBCHEM_HEAVY_ATOM_COUNT>
27

>  <PUBCHEM_ISOTOPIC_ATOM_COUNT>
0

>  <PUBCHEM_MMFF94_ENERGY>
92.651

>  <PUBCHEM_MMFF94_PARTIAL_CHARGES>
39
1 -0.36
10 -0.15
11 -0.15
12 0.08
13 0.08
14 -0.15
15 -0.15
16 -0.18
17 -0.18
18 0.08
19 0.08
2 -0.36
20 0.49
21 0.49
22 -0.15
23 -0.15
24 -0.14
25 -0.14
26 0.28
27 0.28
3 -0.53
30 0.15
31 0.15
32 0.15
33 0.15
34 0.15
35 0.15
36 0.15
37 0.15
38 0.15
39 0.15
4 -0.53
40 0.45
41 0.45
5 -0.57
6 -0.57
7 0.03
8 0.03
9 0.12

>  <PUBCHEM_PHARMACOPHORE_FEATURES>
9
1 1 acceptor
1 2 acceptor
1 3 donor
1 4 donor
1 5 acceptor
1 6 acceptor
1 9 anion
6 7 10 12 14 18 22 rings
6 8 11 13 15 19 23 rings

>  <PUBCHEM_SHAPE_FINGERPRINT>
10 15 12751240315890217573
10319688 140 18337398252872831732
10669705 162 18337104575972446653
10917259 69 18192703459598944165
11211813 128 18272932692783743174
11410812 94 16370996361790263860
117089 54 18267879293612551318
11828532 37 17896331370365246675
12342043 65 18188209905213906085
12758862 65 18410567410511369408
12760667 363 18411139121760541745
13533116 47 18272092759487660785
1361 87 17822307806824084883
13673619 4 18187085057046420093
13782708 43 18187646942401274497
13911852 28 18342177760919306525
13955234 65 18127412482311963032
14251764 75 8934705700369515222
14931854 50 17458064828953579058
15188451 53 18040713637372491534
15510800 12 18334017193917594602
15519825 34 15769481128208245039
16096371 109 17842545529393793568
1768 124 17918273151673982878
190975 80 18273208699771038632
1979834 28 17274556351083136116
20105231 36 17632018551801690966
20165401 70 18269560610432539175
2026 5 18187081767692646843
21033650 10 16081361917848681093
21307412 95 17967532394149105875
21315764 119 16081364133534249763
21585481 104 14779540124190440126
21585482 111 9150633321735644751
21585482 310 18261684739337370307
21682296 61 18408609175854266457
22149856 69 18130234757594157200
229767 8 17769106648757633326
2303208 19 17749956686811695209
23559900 14 17895477059232625973
270888 7 9367336016755256852
3014063 24 18201716258419056095
32027 91 18336829796691442577
3383291 50 18335703857830032987
34797466 226 16806453698591057205
4046055 4 18260545598226657845
439807 62 17967816037266467641
4461854 278 17917996092435725982
46194498 28 17749669692248635052
474113 269 18060412513729437109
5104073 3 17843397381307680056
513202 73 18411700985483149125
5718773 13 18410291402073184614
59682541 35 18342166779510532640
6126387 218 18059849546448719409
96874 4 17846488266996003727
9689198 14 12751239220357137022
9962374 69 18270389628765581455

>  <PUBCHEM_SHAPE_MULTIPOLES>
520.43
25.03
3.33
1.58
5.48
1.87
-0.01
-22.64
-2.84
-3.92
0.39
2.68
-0.7
1.55

>  <PUBCHEM_SHAPE_SELFOVERLAP>
1103.249

>  <PUBCHEM_SHAPE_VOLUME>
290

>  <RI>
-8.85374e+08

>  <Rbt.Current_Directory>
/root/miniconda3/envs/rdock/share/rxdock-2013.1.1_148c5bd1-0/data/ligands/prepped_ligands/Curcumin

>  <Rbt.Executable>
rbdock/0.1.0

>  <Rbt.Library>
librxdock.so/0.1.0

>  <Rbt.Parameter_File>
/root/miniconda3/envs/rdock/share/rxdock-2013.1.1_148c5bd1-0/data/scripts/dock.prm

>  <Rbt.Receptor>
def.prm

>  <SCORE>
-13.5425

>  <SCORE.INTER>
-5.9231

>  <SCORE.INTER.CONST>
1

>  <SCORE.INTER.POLAR>
-0.636263

>  <SCORE.INTER.REPUL>
0

>  <SCORE.INTER.ROT>
8

>  <SCORE.INTER.VDW>
-17.1598

>  <SCORE.INTER.norm>
-0.219374

>  <SCORE.INTRA>
-6.56481

>  <SCORE.INTRA.DIHEDRAL>
-0.985871

>  <SCORE.INTRA.DIHEDRAL.0>
9.63727

>  <SCORE.INTRA.POLAR>
0.0317748

>  <SCORE.INTRA.POLAR.0>
-0.167074

>  <SCORE.INTRA.REPUL>
0

>  <SCORE.INTRA.REPUL.0>
0

>  <SCORE.INTRA.VDW>
-6.17991

>  <SCORE.INTRA.VDW.0>
9.25931

>  <SCORE.INTRA.norm>
-0.243141

>  <SCORE.RESTR>
0

>  <SCORE.RESTR.CAVITY>
0

>  <SCORE.RESTR.norm>
0

>  <SCORE.SYSTEM>
-1.05454

>  <SCORE.SYSTEM.CONST>
0

>  <SCORE.SYSTEM.DIHEDRAL>
0.00749238

>  <SCORE.SYSTEM.VDW>
-1.05828

>  <SCORE.SYSTEM.norm>
-0.039057

>  <SCORE.heavy>
27

>  <SCORE.norm>
-0.501572

$$$$
969516
  RxDock  02242112523D
librxdock.so/0.1.0
 29 30  0  0  0  0  0  0  0  0999 V2000
  -48.3010   -6.1802   19.0776 O   0  0  0  0  0  0
  -45.1149   -1.9939   18.8835 O   0  0  0  0  0  0
  -50.1828   -7.4711   20.6642 O   0  0  0  0  0  0
  -42.8781   -1.5578   17.2923 O   0  0  0  0  0  0
  -52.7795   -2.6441   14.2671 O   0  0  0  0  0  0
  -49.6051   -3.9296   12.2853 O   0  0  0  0  0  0
  -51.4021   -5.1240   17.4887 C   0  0  0  0  0  0
  -46.5267   -2.4226   15.5547 C   0  0  0  0  0  0
  -50.5430   -2.1040   13.5487 C   0  0  0  0  0  0
  -50.0477   -5.2564   17.7483 C   0  0  0  0  0  0
  -46.4367   -2.3538   16.9355 C   0  0  0  0  0  0
  -49.6319   -6.0482   18.8189 C   0  0  0  0  0  0
  -45.2071   -2.0616   17.5260 C   0  0  0  0  0  0
  -52.3521   -5.7615   18.2701 C   0  0  0  0  0  0
  -45.4209   -2.2071   14.7482 C   0  0  0  0  0  0
  -51.8418   -4.2885   16.3573 C   0  0  0  0  0  0
  -47.8256   -2.7302   14.9305 C   0  0  0  0  0  0
  -50.5763   -6.6964   19.6151 C   0  0  0  0  0  0
  -44.0845   -1.8424   16.7275 C   0  0  0  0  0  0
  -51.5705   -2.7536   14.4544 C   0  0  0  0  0  0
  -49.4226   -3.0116   13.0808 C   0  0  0  0  0  0
  -51.9364   -6.5531   19.3405 C   0  0  0  0  0  0
  -44.1916   -1.9150   15.3386 C   0  0  0  0  0  0
  -51.0207   -3.5793   15.5702 C   0  0  0  0  0  0
  -48.0645   -2.6919   13.6120 C   0  0  0  0  0  0
  -47.5363   -6.9590   18.1594 C   0  0  0  0  0  0
  -45.3240   -0.7175   19.4845 C   0  0  0  0  0  0
  -49.2130   -7.5463   20.6418 H   0  0  0  0  0  0
  -43.0231   -1.1930   18.1821 H   0  0  0  0  0  0
  1 12  1  0  0  0
  1 26  1  0  0  0
  2 13  1  0  0  0
  2 27  1  0  0  0
  3 18  1  0  0  0
  3 28  1  0  0  0
  4 19  1  0  0  0
  4 29  1  0  0  0
  5 20  2  0  0  0
  6 21  2  0  0  0
  7 10  2  0  0  0
  7 14  1  0  0  0
  7 16  1  0  0  0
  8 11  2  0  0  0
  8 15  1  0  0  0
  8 17  1  0  0  0
  9 20  1  0  0  0
  9 21  1  0  0  0
 10 12  1  0  0  0
 11 13  1  0  0  0
 12 18  2  0  0  0
 13 19  2  0  0  0
 14 22  2  0  0  0
 15 23  2  0  0  0
 16 24  2  0  0  0
 17 25  2  0  0  0
 18 22  1  0  0  0
 19 23  1  0  0  0
 20 24  1  0  0  0
 21 25  1  0  0  0
M  END
>  <CHROM.0>
-59.19455432,62.80808362,-66.99200162

>  <CHROM.1>
-71.36140264,-90.96487840,-6.89098002,-22.87599013,-3.09709418,173.00914831
-131.35279991,69.68271271,3.77835961,-120.83765247,-48.46290576,-3.74631118
16.70914213,-2.76882215,-0.39819187,-1.03222374

>  <Name>
969516

>  <PUBCHEM_ATOM_DEF_STEREO_COUNT>
0

>  <PUBCHEM_ATOM_UDEF_STEREO_COUNT>
0

>  <PUBCHEM_BOND_DEF_STEREO_COUNT>
2

>  <PUBCHEM_BOND_UDEF_STEREO_COUNT>
0

>  <PUBCHEM_CACTVS_TAUTO_COUNT>
49

>  <PUBCHEM_COMPONENT_COUNT>
1

>  <PUBCHEM_COMPOUND_CID>
969516

>  <PUBCHEM_CONFORMER_DIVERSEORDER>
82
80
54
21
40
74
55
61
46
34
47
4
43
38
81
26
17
78
6
35
23
73
57
63
2
39
32
14
1
30
56
36
72
41
70
60
3
69
27
58
33
25
49
71
42
65
28
76
5
48
52
77
37
79
59
9
29
8
13
50
31
20
62
7
44
16
66
75
51
68
67
22
64
45
24
12
19
11
18
15
10
53

>  <PUBCHEM_CONFORMER_ID>
000ECB2C00000052

>  <PUBCHEM_CONFORMER_RMSD>
1

>  <PUBCHEM_COORDINATE_TYPE>
2
5
10

>  <PUBCHEM_EFFECTIVE_ROTOR_COUNT>
8

>  <PUBCHEM_FEATURE_SELFOVERLAP>
45.672

>  <PUBCHEM_HEAVY_ATOM_COUNT>
27

>  <PUBCHEM_ISOTOPIC_ATOM_COUNT>
0

>  <PUBCHEM_MMFF94_ENERGY>
92.651

>  <PUBCHEM_MMFF94_PARTIAL_CHARGES>
39
1 -0.36
10 -0.15
11 -0.15
12 0.08
13 0.08
14 -0.15
15 -0.15
16 -0.18
17 -0.18
18 0.08
19 0.08
2 -0.36
20 0.49
21 0.49
22 -0.15
23 -0.15
24 -0.14
25 -0.14
26 0.28
27 0.28
3 -0.53
30 0.15
31 0.15
32 0.15
33 0.15
34 0.15
35 0.15
36 0.15
37 0.15
38 0.15
39 0.15
4 -0.53
40 0.45
41 0.45
5 -0.57
6 -0.57
7 0.03
8 0.03
9 0.12

>  <PUBCHEM_PHARMACOPHORE_FEATURES>
9
1 1 acceptor
1 2 acceptor
1 3 donor
1 4 donor
1 5 acceptor
1 6 acceptor
1 9 anion
6 7 10 12 14 18 22 rings
6 8 11 13 15 19 23 rings

>  <PUBCHEM_SHAPE_FINGERPRINT>
10 15 12751240315890217573
10319688 140 18337398252872831732
10669705 162 18337104575972446653
10917259 69 18192703459598944165
11211813 128 18272932692783743174
11410812 94 16370996361790263860
117089 54 18267879293612551318
11828532 37 17896331370365246675
12342043 65 18188209905213906085
12758862 65 18410567410511369408
12760667 363 18411139121760541745
13533116 47 18272092759487660785
1361 87 17822307806824084883
13673619 4 18187085057046420093
13782708 43 18187646942401274497
13911852 28 18342177760919306525
13955234 65 18127412482311963032
14251764 75 8934705700369515222
14931854 50 17458064828953579058
15188451 53 18040713637372491534
15510800 12 18334017193917594602
15519825 34 15769481128208245039
16096371 109 17842545529393793568
1768 124 17918273151673982878
190975 80 18273208699771038632
1979834 28 17274556351083136116
20105231 36 17632018551801690966
20165401 70 18269560610432539175
2026 5 18187081767692646843
21033650 10 16081361917848681093
21307412 95 17967532394149105875
21315764 119 16081364133534249763
21585481 104 14779540124190440126
21585482 111 9150633321735644751
21585482 310 18261684739337370307
21682296 61 18408609175854266457
22149856 69 18130234757594157200
229767 8 17769106648757633326
2303208 19 17749956686811695209
23559900 14 17895477059232625973
270888 7 9367336016755256852
3014063 24 18201716258419056095
32027 91 18336829796691442577
3383291 50 18335703857830032987
34797466 226 16806453698591057205
4046055 4 18260545598226657845
439807 62 17967816037266467641
4461854 278 17917996092435725982
46194498 28 17749669692248635052
474113 269 18060412513729437109
5104073 3 17843397381307680056
513202 73 18411700985483149125
5718773 13 18410291402073184614
59682541 35 18342166779510532640
6126387 218 18059849546448719409
96874 4 17846488266996003727
9689198 14 12751239220357137022
9962374 69 18270389628765581455

>  <PUBCHEM_SHAPE_MULTIPOLES>
520.43
25.03
3.33
1.58
5.48
1.87
-0.01
-22.64
-2.84
-3.92
0.39
2.68
-0.7
1.55

>  <PUBCHEM_SHAPE_SELFOVERLAP>
1103.249

>  <PUBCHEM_SHAPE_VOLUME>
290

>  <RI>
-8.85374e+08

>  <Rbt.Current_Directory>
/root/miniconda3/envs/rdock/share/rxdock-2013.1.1_148c5bd1-0/data/ligands/prepped_ligands/Curcumin

>  <Rbt.Executable>
rbdock/0.1.0

>  <Rbt.Library>
librxdock.so/0.1.0

>  <Rbt.Parameter_File>
/root/miniconda3/envs/rdock/share/rxdock-2013.1.1_148c5bd1-0/data/scripts/dock.prm

>  <Rbt.Receptor>
def.prm

>  <SCORE>
-12.7426

>  <SCORE.INTER>
-8.69166

>  <SCORE.INTER.CONST>
1

>  <SCORE.INTER.POLAR>
-0.828615

>  <SCORE.INTER.REPUL>
0.215943

>  <SCORE.INTER.ROT>
8

>  <SCORE.INTER.VDW>
-20.3541

>  <SCORE.INTER.norm>
-0.321913

>  <SCORE.INTRA>
-3.0952

>  <SCORE.INTRA.DIHEDRAL>
11.6979

>  <SCORE.INTRA.DIHEDRAL.0>
9.63727

>  <SCORE.INTRA.POLAR>
0.0985075

>  <SCORE.INTRA.POLAR.0>
-0.167074

>  <SCORE.INTRA.REPUL>
0

>  <SCORE.INTRA.REPUL.0>
0

>  <SCORE.INTRA.VDW>
-9.27908

>  <SCORE.INTRA.VDW.0>
9.25931

>  <SCORE.INTRA.norm>
-0.114637

>  <SCORE.RESTR>
0.0219358

>  <SCORE.RESTR.CAVITY>
0.0219358

>  <SCORE.RESTR.norm>
0.000812438

>  <SCORE.SYSTEM>
-0.97767

>  <SCORE.SYSTEM.CONST>
0

>  <SCORE.SYSTEM.DIHEDRAL>
0.164903

>  <SCORE.SYSTEM.VDW>
-1.06012

>  <SCORE.SYSTEM.norm>
-0.03621

>  <SCORE.heavy>
27

>  <SCORE.norm>
-0.471948

$$$$
969516
  RxDock  02242112523D
librxdock.so/0.1.0
 29 30  0  0  0  0  0  0  0  0999 V2000
  -49.7026   -7.5146   17.9635 O   0  0  0  0  0  0
  -44.6578   -1.6106   20.1516 O   0  0  0  0  0  0
  -52.4346   -7.9787   17.7497 O   0  0  0  0  0  0
  -42.1095   -1.9129   19.0840 O   0  0  0  0  0  0
  -50.6569   -0.6710   13.1793 O   0  0  0  0  0  0
  -48.1029    0.5540   13.2129 O   0  0  0  0  0  0
  -50.7035   -4.8061   15.7455 C   0  0  0  0  0  0
  -45.3699   -1.4684   16.5837 C   0  0  0  0  0  0
  -48.5543   -1.7890   13.5521 C   0  0  0  0  0  0
  -49.9046   -5.6302   16.5213 C   0  0  0  0  0  0
  -45.5663   -1.4643   17.9551 C   0  0  0  0  0  0
  -50.4849   -6.7026   17.1990 C   0  0  0  0  0  0
  -44.4683   -1.6135   18.8026 C   0  0  0  0  0  0
  -52.0666   -5.0248   15.6286 C   0  0  0  0  0  0
  -44.1058   -1.6175   16.0364 C   0  0  0  0  0  0
  -50.0908   -3.6738   15.0285 C   0  0  0  0  0  0
  -46.5293   -1.3098   15.6881 C   0  0  0  0  0  0
  -51.8561   -6.9357   17.0916 C   0  0  0  0  0  0
  -43.1893   -1.7648   18.2668 C   0  0  0  0  0  0
  -50.0571   -1.6260   13.6663 C   0  0  0  0  0  0
  -47.7487   -0.5141   13.7054 C   0  0  0  0  0  0
  -52.6468   -6.0969   16.3062 C   0  0  0  0  0  0
  -43.0082   -1.7667   16.8838 C   0  0  0  0  0  0
  -50.7766   -2.7277   14.3718 C   0  0  0  0  0  0
  -46.5134   -0.6236   14.5366 C   0  0  0  0  0  0
  -48.4617   -7.9361   17.4008 C   0  0  0  0  0  0
  -45.0597   -0.3784   20.7471 C   0  0  0  0  0  0
  -51.7396   -8.4588   18.2327 H   0  0  0  0  0  0
  -41.3811   -2.3112   18.5773 H   0  0  0  0  0  0
  1 12  1  0  0  0
  1 26  1  0  0  0
  2 13  1  0  0  0
  2 27  1  0  0  0
  3 18  1  0  0  0
  3 28  1  0  0  0
  4 19  1  0  0  0
  4 29  1  0  0  0
  5 20  2  0  0  0
  6 21  2  0  0  0
  7 10  2  0  0  0
  7 14  1  0  0  0
  7 16  1  0  0  0
  8 11  2  0  0  0
  8 15  1  0  0  0
  8 17  1  0  0  0
  9 20  1  0  0  0
  9 21  1  0  0  0
 10 12  1  0  0  0
 11 13  1  0  0  0
 12 18  2  0  0  0
 13 19  2  0  0  0
 14 22  2  0  0  0
 15 23  2  0  0  0
 16 24  2  0  0  0
 17 25  2  0  0  0
 18 22  1  0  0  0
 19 23  1  0  0  0
 20 24  1  0  0  0
 21 25  1  0  0  0
M  END
>  <CHROM.0>
-179.56517513,178.57159687,58.15312237

>  <CHROM.1>
-44.83183405,-68.51564323,-0.83752986,160.11441945,-172.29497368,142.89045183
39.82476275,-40.45382881,-172.11267058,135.14373501,-47.93621015,-3.15503218
16.46576141,-2.83625780,-0.55092438,-0.72640070

>  <Name>
969516

>  <PUBCHEM_ATOM_DEF_STEREO_COUNT>
0

>  <PUBCHEM_ATOM_UDEF_STEREO_COUNT>
0

>  <PUBCHEM_BOND_DEF_STEREO_COUNT>
2

>  <PUBCHEM_BOND_UDEF_STEREO_COUNT>
0

>  <PUBCHEM_CACTVS_TAUTO_COUNT>
49

>  <PUBCHEM_COMPONENT_COUNT>
1

>  <PUBCHEM_COMPOUND_CID>
969516

>  <PUBCHEM_CONFORMER_DIVERSEORDER>
82
80
54
21
40
74
55
61
46
34
47
4
43
38
81
26
17
78
6
35
23
73
57
63
2
39
32
14
1
30
56
36
72
41
70
60
3
69
27
58
33
25
49
71
42
65
28
76
5
48
52
77
37
79
59
9
29
8
13
50
31
20
62
7
44
16
66
75
51
68
67
22
64
45
24
12
19
11
18
15
10
53

>  <PUBCHEM_CONFORMER_ID>
000ECB2C00000052

>  <PUBCHEM_CONFORMER_RMSD>
1

>  <PUBCHEM_COORDINATE_TYPE>
2
5
10

>  <PUBCHEM_EFFECTIVE_ROTOR_COUNT>
8

>  <PUBCHEM_FEATURE_SELFOVERLAP>
45.672

>  <PUBCHEM_HEAVY_ATOM_COUNT>
27

>  <PUBCHEM_ISOTOPIC_ATOM_COUNT>
0

>  <PUBCHEM_MMFF94_ENERGY>
92.651

>  <PUBCHEM_MMFF94_PARTIAL_CHARGES>
39
1 -0.36
10 -0.15
11 -0.15
12 0.08
13 0.08
14 -0.15
15 -0.15
16 -0.18
17 -0.18
18 0.08
19 0.08
2 -0.36
20 0.49
21 0.49
22 -0.15
23 -0.15
24 -0.14
25 -0.14
26 0.28
27 0.28
3 -0.53
30 0.15
31 0.15
32 0.15
33 0.15
34 0.15
35 0.15
36 0.15
37 0.15
38 0.15
39 0.15
4 -0.53
40 0.45
41 0.45
5 -0.57
6 -0.57
7 0.03
8 0.03
9 0.12

>  <PUBCHEM_PHARMACOPHORE_FEATURES>
9
1 1 acceptor
1 2 acceptor
1 3 donor
1 4 donor
1 5 acceptor
1 6 acceptor
1 9 anion
6 7 10 12 14 18 22 rings
6 8 11 13 15 19 23 rings

>  <PUBCHEM_SHAPE_FINGERPRINT>
10 15 12751240315890217573
10319688 140 18337398252872831732
10669705 162 18337104575972446653
10917259 69 18192703459598944165
11211813 128 18272932692783743174
11410812 94 16370996361790263860
117089 54 18267879293612551318
11828532 37 17896331370365246675
12342043 65 18188209905213906085
12758862 65 18410567410511369408
12760667 363 18411139121760541745
13533116 47 18272092759487660785
1361 87 17822307806824084883
13673619 4 18187085057046420093
13782708 43 18187646942401274497
13911852 28 18342177760919306525
13955234 65 18127412482311963032
14251764 75 8934705700369515222
14931854 50 17458064828953579058
15188451 53 18040713637372491534
15510800 12 18334017193917594602
15519825 34 15769481128208245039
16096371 109 17842545529393793568
1768 124 17918273151673982878
190975 80 18273208699771038632
1979834 28 17274556351083136116
20105231 36 17632018551801690966
20165401 70 18269560610432539175
2026 5 18187081767692646843
21033650 10 16081361917848681093
21307412 95 17967532394149105875
21315764 119 16081364133534249763
21585481 104 14779540124190440126
21585482 111 9150633321735644751
21585482 310 18261684739337370307
21682296 61 18408609175854266457
22149856 69 18130234757594157200
229767 8 17769106648757633326
2303208 19 17749956686811695209
23559900 14 17895477059232625973
270888 7 9367336016755256852
3014063 24 18201716258419056095
32027 91 18336829796691442577
3383291 50 18335703857830032987
34797466 226 16806453698591057205
4046055 4 18260545598226657845
439807 62 17967816037266467641
4461854 278 17917996092435725982
46194498 28 17749669692248635052
474113 269 18060412513729437109
5104073 3 17843397381307680056
513202 73 18411700985483149125
5718773 13 18410291402073184614
59682541 35 18342166779510532640
6126387 218 18059849546448719409
96874 4 17846488266996003727
9689198 14 12751239220357137022
9962374 69 18270389628765581455

>  <PUBCHEM_SHAPE_MULTIPOLES>
520.43
25.03
3.33
1.58
5.48
1.87
-0.01
-22.64
-2.84
-3.92
0.39
2.68
-0.7
1.55

>  <PUBCHEM_SHAPE_SELFOVERLAP>
1103.249

>  <PUBCHEM_SHAPE_VOLUME>
290

>  <RI>
-8.85374e+08

>  <Rbt.Current_Directory>
/root/miniconda3/envs/rdock/share/rxdock-2013.1.1_148c5bd1-0/data/ligands/prepped_ligands/Curcumin

>  <Rbt.Executable>
rbdock/0.1.0

>  <Rbt.Library>
librxdock.so/0.1.0

>  <Rbt.Parameter_File>
/root/miniconda3/envs/rdock/share/rxdock-2013.1.1_148c5bd1-0/data/scripts/dock.prm

>  <Rbt.Receptor>
def.prm

>  <SCORE>
-17.0899

>  <SCORE.INTER>
-15.184

>  <SCORE.INTER.CONST>
1

>  <SCORE.INTER.POLAR>
-1.5801

>  <SCORE.INTER.REPUL>
0.00425873

>  <SCORE.INTER.ROT>
8

>  <SCORE.INTER.VDW>
-23.2329

>  <SCORE.INTER.norm>
-0.562371

>  <SCORE.INTRA>
-0.883488

>  <SCORE.INTRA.DIHEDRAL>
9.41549

>  <SCORE.INTRA.DIHEDRAL.0>
9.63727

>  <SCORE.INTRA.POLAR>
0.000172962

>  <SCORE.INTRA.POLAR.0>
-0.167074

>  <SCORE.INTRA.REPUL>
0

>  <SCORE.INTRA.REPUL.0>
0

>  <SCORE.INTRA.VDW>
-5.59182

>  <SCORE.INTRA.VDW.0>
9.25931

>  <SCORE.INTRA.norm>
-0.0327218

>  <SCORE.RESTR>
0.0446432

>  <SCORE.RESTR.CAVITY>
0.0446432

>  <SCORE.RESTR.norm>
0.00165345

>  <SCORE.SYSTEM>
-1.067

>  <SCORE.SYSTEM.CONST>
0

>  <SCORE.SYSTEM.DIHEDRAL>
0.0203232

>  <SCORE.SYSTEM.VDW>
-1.07717

>  <SCORE.SYSTEM.norm>
-0.0395186

>  <SCORE.heavy>
27

>  <SCORE.norm>
-0.632958

$$$$
