969516
  RxDock  02242110303D
librxdock.so/0.1.0
 29 30  0  0  0  0  0  0  0  0999 V2000
  -45.6350   -1.4359   19.9615 O   0  0  0  0  0  0
  -54.8932   -5.1396   16.1698 O   0  0  0  0  0  0
  -42.9212   -1.9954   19.7435 O   0  0  0  0  0  0
  -53.5095   -7.2950   17.2490 O   0  0  0  0  0  0
  -47.6438    0.6351   13.2045 O   0  0  0  0  0  0
  -50.8744    0.1565   13.3627 O   0  0  0  0  0  0
  -45.1147   -1.0060   16.3836 C   0  0  0  0  0  0
  -51.4581   -4.2464   15.3577 C   0  0  0  0  0  0
  -48.9972   -1.3549   13.3386 C   0  0  0  0  0  0
  -45.7503   -1.0539   17.6138 C   0  0  0  0  0  0
  -52.8390   -4.1773   15.4449 C   0  0  0  0  0  0
  -45.0134   -1.3870   18.7504 C   0  0  0  0  0  0
  -53.5353   -5.2039   16.0830 C   0  0  0  0  0  0
  -43.7628   -1.2817   16.2589 C   0  0  0  0  0  0
  -50.7542   -5.3139   15.8912 C   0  0  0  0  0  0
  -45.8925   -0.6532   15.1827 C   0  0  0  0  0  0
  -50.7222   -3.1616   14.6847 C   0  0  0  0  0  0
  -43.6513   -1.6675   18.6411 C   0  0  0  0  0  0
  -52.8408   -6.2855   16.6250 C   0  0  0  0  0  0
  -47.9146   -0.4016   13.8050 C   0  0  0  0  0  0
  -50.4165   -0.9403   13.6729 C   0  0  0  0  0  0
  -43.0260   -1.6147   17.3953 C   0  0  0  0  0  0
  -51.4503   -6.3403   16.5291 C   0  0  0  0  0  0
  -47.2226   -0.7777   15.0734 C   0  0  0  0  0  0
  -51.2466   -1.9698   14.3657 C   0  0  0  0  0  0
  -45.8514   -0.1945   20.6296 C   0  0  0  0  0  0
  -55.6402   -5.8381   15.1757 C   0  0  0  0  0  0
  -43.5320   -2.3130   20.4312 H   0  0  0  0  0  0
  -54.4364   -7.2905   16.9545 H   0  0  0  0  0  0
  1 12  1  0  0  0
  1 26  1  0  0  0
  2 13  1  0  0  0
  2 27  1  0  0  0
  3 18  1  0  0  0
  3 28  1  0  0  0
  4 19  1  0  0  0
  4 29  1  0  0  0
  5 20  2  0  0  0
  6 21  2  0  0  0
  7 10  2  0  0  0
  7 14  1  0  0  0
  7 16  1  0  0  0
  8 11  2  0  0  0
  8 15  1  0  0  0
  8 17  1  0  0  0
  9 20  1  0  0  0
  9 21  1  0  0  0
 10 12  1  0  0  0
 11 13  1  0  0  0
 12 18  2  0  0  0
 13 19  2  0  0  0
 14 22  2  0  0  0
 15 23  2  0  0  0
 16 24  2  0  0  0
 17 25  2  0  0  0
 18 22  1  0  0  0
 19 23  1  0  0  0
 20 24  1  0  0  0
 21 25  1  0  0  0
M  END
>  <CHROM.0>
50.07071741,64.79340422,-86.00902179

>  <CHROM.1>
-80.36658333,95.87844202,21.20497695,20.80046439,-22.24007016,13.64465205
-78.85959299,53.97674167,-44.51431764,179.57963556,-48.88027951,-2.59896471
16.21686714,-0.08676770,0.48063946,2.24066473

>  <Name>
969516

>  <PUBCHEM_ATOM_DEF_STEREO_COUNT>
0

>  <PUBCHEM_ATOM_UDEF_STEREO_COUNT>
0

>  <PUBCHEM_BOND_DEF_STEREO_COUNT>
2

>  <PUBCHEM_BOND_UDEF_STEREO_COUNT>
0

>  <PUBCHEM_CACTVS_TAUTO_COUNT>
49

>  <PUBCHEM_COMPONENT_COUNT>
1

>  <PUBCHEM_COMPOUND_CID>
969516

>  <PUBCHEM_CONFORMER_DIVERSEORDER>
82
80
54
21
40
74
55
61
46
34
47
4
43
38
81
26
17
78
6
35
23
73
57
63
2
39
32
14
1
30
56
36
72
41
70
60
3
69
27
58
33
25
49
71
42
65
28
76
5
48
52
77
37
79
59
9
29
8
13
50
31
20
62
7
44
16
66
75
51
68
67
22
64
45
24
12
19
11
18
15
10
53

>  <PUBCHEM_CONFORMER_ID>
000ECB2C00000052

>  <PUBCHEM_CONFORMER_RMSD>
1

>  <PUBCHEM_COORDINATE_TYPE>
2
5
10

>  <PUBCHEM_EFFECTIVE_ROTOR_COUNT>
8

>  <PUBCHEM_FEATURE_SELFOVERLAP>
45.672

>  <PUBCHEM_HEAVY_ATOM_COUNT>
27

>  <PUBCHEM_ISOTOPIC_ATOM_COUNT>
0

>  <PUBCHEM_MMFF94_ENERGY>
92.651

>  <PUBCHEM_MMFF94_PARTIAL_CHARGES>
39
1 -0.36
10 -0.15
11 -0.15
12 0.08
13 0.08
14 -0.15
15 -0.15
16 -0.18
17 -0.18
18 0.08
19 0.08
2 -0.36
20 0.49
21 0.49
22 -0.15
23 -0.15
24 -0.14
25 -0.14
26 0.28
27 0.28
3 -0.53
30 0.15
31 0.15
32 0.15
33 0.15
34 0.15
35 0.15
36 0.15
37 0.15
38 0.15
39 0.15
4 -0.53
40 0.45
41 0.45
5 -0.57
6 -0.57
7 0.03
8 0.03
9 0.12

>  <PUBCHEM_PHARMACOPHORE_FEATURES>
9
1 1 acceptor
1 2 acceptor
1 3 donor
1 4 donor
1 5 acceptor
1 6 acceptor
1 9 anion
6 7 10 12 14 18 22 rings
6 8 11 13 15 19 23 rings

>  <PUBCHEM_SHAPE_FINGERPRINT>
10 15 12751240315890217573
10319688 140 18337398252872831732
10669705 162 18337104575972446653
10917259 69 18192703459598944165
11211813 128 18272932692783743174
11410812 94 16370996361790263860
117089 54 18267879293612551318
11828532 37 17896331370365246675
12342043 65 18188209905213906085
12758862 65 18410567410511369408
12760667 363 18411139121760541745
13533116 47 18272092759487660785
1361 87 17822307806824084883
13673619 4 18187085057046420093
13782708 43 18187646942401274497
13911852 28 18342177760919306525
13955234 65 18127412482311963032
14251764 75 8934705700369515222
14931854 50 17458064828953579058
15188451 53 18040713637372491534
15510800 12 18334017193917594602
15519825 34 15769481128208245039
16096371 109 17842545529393793568
1768 124 17918273151673982878
190975 80 18273208699771038632
1979834 28 17274556351083136116
20105231 36 17632018551801690966
20165401 70 18269560610432539175
2026 5 18187081767692646843
21033650 10 16081361917848681093
21307412 95 17967532394149105875
21315764 119 16081364133534249763
21585481 104 14779540124190440126
21585482 111 9150633321735644751
21585482 310 18261684739337370307
21682296 61 18408609175854266457
22149856 69 18130234757594157200
229767 8 17769106648757633326
2303208 19 17749956686811695209
23559900 14 17895477059232625973
270888 7 9367336016755256852
3014063 24 18201716258419056095
32027 91 18336829796691442577
3383291 50 18335703857830032987
34797466 226 16806453698591057205
4046055 4 18260545598226657845
439807 62 17967816037266467641
4461854 278 17917996092435725982
46194498 28 17749669692248635052
474113 269 18060412513729437109
5104073 3 17843397381307680056
513202 73 18411700985483149125
5718773 13 18410291402073184614
59682541 35 18342166779510532640
6126387 218 18059849546448719409
96874 4 17846488266996003727
9689198 14 12751239220357137022
9962374 69 18270389628765581455

>  <PUBCHEM_SHAPE_MULTIPOLES>
520.43
25.03
3.33
1.58
5.48
1.87
-0.01
-22.64
-2.84
-3.92
0.39
2.68
-0.7
1.55

>  <PUBCHEM_SHAPE_SELFOVERLAP>
1103.249

>  <PUBCHEM_SHAPE_VOLUME>
290

>  <RI>
-6.78624e+08

>  <Rbt.Current_Directory>
/root/miniconda3/envs/rdock/share/rxdock-2013.1.1_148c5bd1-0/data/ligands/prepped_ligands/Curcumin

>  <Rbt.Executable>
rbdock/0.1.0

>  <Rbt.Library>
librxdock.so/0.1.0

>  <Rbt.Parameter_File>
/root/miniconda3/envs/rdock/share/rxdock-2013.1.1_148c5bd1-0/data/scripts/dock.prm

>  <Rbt.Receptor>
def.prm

>  <SCORE>
-17.803

>  <SCORE.INTER>
-15.0694

>  <SCORE.INTER.CONST>
1

>  <SCORE.INTER.POLAR>
-1.71739

>  <SCORE.INTER.REPUL>
0.0360162

>  <SCORE.INTER.ROT>
8

>  <SCORE.INTER.VDW>
-22.8103

>  <SCORE.INTER.norm>
-0.558124

>  <SCORE.INTRA>
-2.69788

>  <SCORE.INTRA.DIHEDRAL>
9.72378

>  <SCORE.INTRA.DIHEDRAL.0>
9.63727

>  <SCORE.INTRA.POLAR>
0.13136

>  <SCORE.INTRA.POLAR.0>
-0.167074

>  <SCORE.INTRA.REPUL>
0

>  <SCORE.INTRA.REPUL.0>
0

>  <SCORE.INTRA.VDW>
-8.00639

>  <SCORE.INTRA.VDW.0>
9.25931

>  <SCORE.INTRA.norm>
-0.0999214

>  <SCORE.RESTR>
0

>  <SCORE.RESTR.CAVITY>
0

>  <SCORE.RESTR.norm>
0

>  <SCORE.SYSTEM>
-0.0357742

>  <SCORE.SYSTEM.CONST>
0

>  <SCORE.SYSTEM.DIHEDRAL>
1.79957

>  <SCORE.SYSTEM.VDW>
-0.935557

>  <SCORE.SYSTEM.norm>
-0.00132497

>  <SCORE.heavy>
27

>  <SCORE.norm>
-0.659371

$$$$
969516
  RxDock  02242110303D
librxdock.so/0.1.0
 29 30  0  0  0  0  0  0  0  0999 V2000
  -43.0867    0.9202   18.7444 O   0  0  0  0  0  0
  -49.1292   -5.3147   20.2075 O   0  0  0  0  0  0
  -42.7909   -1.7361   19.5072 O   0  0  0  0  0  0
  -50.2722   -7.7583   19.5383 O   0  0  0  0  0  0
  -48.2366    0.3561   13.4269 O   0  0  0  0  0  0
  -48.8806   -3.1859   12.1833 O   0  0  0  0  0  0
  -45.5395   -0.7036   16.5989 C   0  0  0  0  0  0
  -49.6732   -4.8802   16.6336 C   0  0  0  0  0  0
  -49.6348   -1.5705   13.8052 C   0  0  0  0  0  0
  -44.7720    0.2901   17.1843 C   0  0  0  0  0  0
  -49.2972   -4.6092   17.9392 C   0  0  0  0  0  0
  -43.8426   -0.0543   18.1660 C   0  0  0  0  0  0
  -49.4971   -5.5782   18.9226 C   0  0  0  0  0  0
  -45.4034   -2.0320   16.9680 C   0  0  0  0  0  0
  -50.2435   -6.0936   16.2844 C   0  0  0  0  0  0
  -46.5207   -0.3405   15.5611 C   0  0  0  0  0  0
  -49.4612   -3.8573   15.5943 C   0  0  0  0  0  0
  -43.6940   -1.3875   18.5487 C   0  0  0  0  0  0
  -50.0704   -6.8047   18.5867 C   0  0  0  0  0  0
  -48.4227   -0.6911   14.0413 C   0  0  0  0  0  0
  -49.3351   -2.9694   13.3037 C   0  0  0  0  0  0
  -44.4743   -2.3764   17.9495 C   0  0  0  0  0  0
  -50.4434   -7.0623   17.2676 C   0  0  0  0  0  0
  -47.4842   -1.1538   15.1062 C   0  0  0  0  0  0
  -49.5828   -4.0740   14.2770 C   0  0  0  0  0  0
  -43.5630    1.4666   19.9728 C   0  0  0  0  0  0
  -49.9548   -4.4170   20.9470 C   0  0  0  0  0  0
  -42.9673   -2.6552   19.7734 H   0  0  0  0  0  0
  -49.8923   -7.4517   20.3795 H   0  0  0  0  0  0
  1 12  1  0  0  0
  1 26  1  0  0  0
  2 13  1  0  0  0
  2 27  1  0  0  0
  3 18  1  0  0  0
  3 28  1  0  0  0
  4 19  1  0  0  0
  4 29  1  0  0  0
  5 20  2  0  0  0
  6 21  2  0  0  0
  7 10  2  0  0  0
  7 14  1  0  0  0
  7 16  1  0  0  0
  8 11  2  0  0  0
  8 15  1  0  0  0
  8 17  1  0  0  0
  9 20  1  0  0  0
  9 21  1  0  0  0
 10 12  1  0  0  0
 11 13  1  0  0  0
 12 18  2  0  0  0
 13 19  2  0  0  0
 14 22  2  0  0  0
 15 23  2  0  0  0
 16 24  2  0  0  0
 17 25  2  0  0  0
 18 22  1  0  0  0
 19 23  1  0  0  0
 20 24  1  0  0  0
 21 25  1  0  0  0
M  END
>  <CHROM.0>
64.13320712,-178.16078946,62.01804957

>  <CHROM.1>
94.84207399,74.11235390,167.70939780,-4.77577659,-166.82755519,168.87423271
118.26893697,-68.27304372,10.08385215,148.44982489,-47.49907955,-2.79260354
17.00095532,-0.31261506,0.71578972,2.12215583

>  <Name>
969516

>  <PUBCHEM_ATOM_DEF_STEREO_COUNT>
0

>  <PUBCHEM_ATOM_UDEF_STEREO_COUNT>
0

>  <PUBCHEM_BOND_DEF_STEREO_COUNT>
2

>  <PUBCHEM_BOND_UDEF_STEREO_COUNT>
0

>  <PUBCHEM_CACTVS_TAUTO_COUNT>
49

>  <PUBCHEM_COMPONENT_COUNT>
1

>  <PUBCHEM_COMPOUND_CID>
969516

>  <PUBCHEM_CONFORMER_DIVERSEORDER>
82
80
54
21
40
74
55
61
46
34
47
4
43
38
81
26
17
78
6
35
23
73
57
63
2
39
32
14
1
30
56
36
72
41
70
60
3
69
27
58
33
25
49
71
42
65
28
76
5
48
52
77
37
79
59
9
29
8
13
50
31
20
62
7
44
16
66
75
51
68
67
22
64
45
24
12
19
11
18
15
10
53

>  <PUBCHEM_CONFORMER_ID>
000ECB2C00000052

>  <PUBCHEM_CONFORMER_RMSD>
1

>  <PUBCHEM_COORDINATE_TYPE>
2
5
10

>  <PUBCHEM_EFFECTIVE_ROTOR_COUNT>
8

>  <PUBCHEM_FEATURE_SELFOVERLAP>
45.672

>  <PUBCHEM_HEAVY_ATOM_COUNT>
27

>  <PUBCHEM_ISOTOPIC_ATOM_COUNT>
0

>  <PUBCHEM_MMFF94_ENERGY>
92.651

>  <PUBCHEM_MMFF94_PARTIAL_CHARGES>
39
1 -0.36
10 -0.15
11 -0.15
12 0.08
13 0.08
14 -0.15
15 -0.15
16 -0.18
17 -0.18
18 0.08
19 0.08
2 -0.36
20 0.49
21 0.49
22 -0.15
23 -0.15
24 -0.14
25 -0.14
26 0.28
27 0.28
3 -0.53
30 0.15
31 0.15
32 0.15
33 0.15
34 0.15
35 0.15
36 0.15
37 0.15
38 0.15
39 0.15
4 -0.53
40 0.45
41 0.45
5 -0.57
6 -0.57
7 0.03
8 0.03
9 0.12

>  <PUBCHEM_PHARMACOPHORE_FEATURES>
9
1 1 acceptor
1 2 acceptor
1 3 donor
1 4 donor
1 5 acceptor
1 6 acceptor
1 9 anion
6 7 10 12 14 18 22 rings
6 8 11 13 15 19 23 rings

>  <PUBCHEM_SHAPE_FINGERPRINT>
10 15 12751240315890217573
10319688 140 18337398252872831732
10669705 162 18337104575972446653
10917259 69 18192703459598944165
11211813 128 18272932692783743174
11410812 94 16370996361790263860
117089 54 18267879293612551318
11828532 37 17896331370365246675
12342043 65 18188209905213906085
12758862 65 18410567410511369408
12760667 363 18411139121760541745
13533116 47 18272092759487660785
1361 87 17822307806824084883
13673619 4 18187085057046420093
13782708 43 18187646942401274497
13911852 28 18342177760919306525
13955234 65 18127412482311963032
14251764 75 8934705700369515222
14931854 50 17458064828953579058
15188451 53 18040713637372491534
15510800 12 18334017193917594602
15519825 34 15769481128208245039
16096371 109 17842545529393793568
1768 124 17918273151673982878
190975 80 18273208699771038632
1979834 28 17274556351083136116
20105231 36 17632018551801690966
20165401 70 18269560610432539175
2026 5 18187081767692646843
21033650 10 16081361917848681093
21307412 95 17967532394149105875
21315764 119 16081364133534249763
21585481 104 14779540124190440126
21585482 111 9150633321735644751
21585482 310 18261684739337370307
21682296 61 18408609175854266457
22149856 69 18130234757594157200
229767 8 17769106648757633326
2303208 19 17749956686811695209
23559900 14 17895477059232625973
270888 7 9367336016755256852
3014063 24 18201716258419056095
32027 91 18336829796691442577
3383291 50 18335703857830032987
34797466 226 16806453698591057205
4046055 4 18260545598226657845
439807 62 17967816037266467641
4461854 278 17917996092435725982
46194498 28 17749669692248635052
474113 269 18060412513729437109
5104073 3 17843397381307680056
513202 73 18411700985483149125
5718773 13 18410291402073184614
59682541 35 18342166779510532640
6126387 218 18059849546448719409
96874 4 17846488266996003727
9689198 14 12751239220357137022
9962374 69 18270389628765581455

>  <PUBCHEM_SHAPE_MULTIPOLES>
520.43
25.03
3.33
1.58
5.48
1.87
-0.01
-22.64
-2.84
-3.92
0.39
2.68
-0.7
1.55

>  <PUBCHEM_SHAPE_SELFOVERLAP>
1103.249

>  <PUBCHEM_SHAPE_VOLUME>
290

>  <RI>
-6.78624e+08

>  <Rbt.Current_Directory>
/root/miniconda3/envs/rdock/share/rxdock-2013.1.1_148c5bd1-0/data/ligands/prepped_ligands/Curcumin

>  <Rbt.Executable>
rbdock/0.1.0

>  <Rbt.Library>
librxdock.so/0.1.0

>  <Rbt.Parameter_File>
/root/miniconda3/envs/rdock/share/rxdock-2013.1.1_148c5bd1-0/data/scripts/dock.prm

>  <Rbt.Receptor>
def.prm

>  <SCORE>
-13.3288

>  <SCORE.INTER>
-7.77133

>  <SCORE.INTER.CONST>
1

>  <SCORE.INTER.POLAR>
-0.742801

>  <SCORE.INTER.REPUL>
0

>  <SCORE.INTER.ROT>
8

>  <SCORE.INTER.VDW>
-18.6458

>  <SCORE.INTER.norm>
-0.287827

>  <SCORE.INTRA>
-4.55315

>  <SCORE.INTRA.DIHEDRAL>
7.16104

>  <SCORE.INTRA.DIHEDRAL.0>
9.63727

>  <SCORE.INTRA.POLAR>
0.0976111

>  <SCORE.INTRA.POLAR.0>
-0.167074

>  <SCORE.INTRA.REPUL>
0

>  <SCORE.INTRA.REPUL.0>
0

>  <SCORE.INTRA.VDW>
-8.46555

>  <SCORE.INTRA.VDW.0>
9.25931

>  <SCORE.INTRA.norm>
-0.168635

>  <SCORE.RESTR>
0

>  <SCORE.RESTR.CAVITY>
0

>  <SCORE.RESTR.norm>
0

>  <SCORE.SYSTEM>
-1.00434

>  <SCORE.SYSTEM.CONST>
0

>  <SCORE.SYSTEM.DIHEDRAL>
0.0642308

>  <SCORE.SYSTEM.POLAR>
-0.00559816

>  <SCORE.SYSTEM.VDW>
-1.01742

>  <SCORE.SYSTEM.norm>
-0.0371978

>  <SCORE.heavy>
27

>  <SCORE.norm>
-0.49366

$$$$
969516
  RxDock  02242110303D
librxdock.so/0.1.0
 29 30  0  0  0  0  0  0  0  0999 V2000
  -55.6579   -6.6911   14.7126 O   0  0  0  0  0  0
  -45.4477   -1.6057   19.7309 O   0  0  0  0  0  0
  -54.1706   -8.1248   16.5721 O   0  0  0  0  0  0
  -42.7894   -2.2898   19.2943 O   0  0  0  0  0  0
  -51.2228   -0.6519   13.9770 O   0  0  0  0  0  0
  -48.0413    0.5289   13.2376 O   0  0  0  0  0  0
  -52.7336   -4.5520   15.0725 C   0  0  0  0  0  0
  -45.2054   -1.2122   16.1192 C   0  0  0  0  0  0
  -49.1514   -1.6100   13.2016 C   0  0  0  0  0  0
  -53.9619   -5.0211   14.6360 C   0  0  0  0  0  0
  -45.7386   -1.2269   17.3978 C   0  0  0  0  0  0
  -54.4508   -6.2264   15.1401 C   0  0  0  0  0  0
  -44.9264   -1.5895   18.4724 C   0  0  0  0  0  0
  -51.9808   -5.2549   15.9992 C   0  0  0  0  0  0
  -43.8821   -1.5501   15.8857 C   0  0  0  0  0  0
  -52.2171   -3.2783   14.5410 C   0  0  0  0  0  0
  -46.0628   -0.8283   14.9840 C   0  0  0  0  0  0
  -53.7045   -6.9459   16.0735 C   0  0  0  0  0  0
  -43.5921   -1.9325   18.2534 C   0  0  0  0  0  0
  -50.4988   -1.6408   13.8957 C   0  0  0  0  0  0
  -48.1685   -0.5868   13.7354 C   0  0  0  0  0  0
  -52.4696   -6.4599   16.5032 C   0  0  0  0  0  0
  -43.0701   -1.9126   16.9600 C   0  0  0  0  0  0
  -50.9174   -2.9669   14.4392 C   0  0  0  0  0  0
  -47.3914   -1.0015   14.9408 C   0  0  0  0  0  0
  -56.7425   -6.6236   15.6363 C   0  0  0  0  0  0
  -45.4742   -0.3671   20.4375 C   0  0  0  0  0  0
  -54.8667   -8.4542   15.9774 H   0  0  0  0  0  0
  -41.8842   -2.4239   18.9648 H   0  0  0  0  0  0
  1 12  1  0  0  0
  1 26  1  0  0  0
  2 13  1  0  0  0
  2 27  1  0  0  0
  3 18  1  0  0  0
  3 28  1  0  0  0
  4 19  1  0  0  0
  4 29  1  0  0  0
  5 20  2  0  0  0
  6 21  2  0  0  0
  7 10  2  0  0  0
  7 14  1  0  0  0
  7 16  1  0  0  0
  8 11  2  0  0  0
  8 15  1  0  0  0
  8 17  1  0  0  0
  9 20  1  0  0  0
  9 21  1  0  0  0
 10 12  1  0  0  0
 11 13  1  0  0  0
 12 18  2  0  0  0
 13 19  2  0  0  0
 14 22  2  0  0  0
 15 23  2  0  0  0
 16 24  2  0  0  0
 17 25  2  0  0  0
 18 22  1  0  0  0
 19 23  1  0  0  0
 20 24  1  0  0  0
 21 25  1  0  0  0
M  END
>  <CHROM.0>
175.21176036,-179.05703555,-65.04967959

>  <CHROM.1>
-107.72691693,-84.19236244,18.19487957,-175.50477247,-152.45971560,-28.40423829
56.97192225,-94.93807557,26.70381678,-49.86874848,-49.27921430,-3.04180148
15.96239185,-3.01137952,-0.48309958,-0.85928390

>  <Name>
969516

>  <PUBCHEM_ATOM_DEF_STEREO_COUNT>
0

>  <PUBCHEM_ATOM_UDEF_STEREO_COUNT>
0

>  <PUBCHEM_BOND_DEF_STEREO_COUNT>
2

>  <PUBCHEM_BOND_UDEF_STEREO_COUNT>
0

>  <PUBCHEM_CACTVS_TAUTO_COUNT>
49

>  <PUBCHEM_COMPONENT_COUNT>
1

>  <PUBCHEM_COMPOUND_CID>
969516

>  <PUBCHEM_CONFORMER_DIVERSEORDER>
82
80
54
21
40
74
55
61
46
34
47
4
43
38
81
26
17
78
6
35
23
73
57
63
2
39
32
14
1
30
56
36
72
41
70
60
3
69
27
58
33
25
49
71
42
65
28
76
5
48
52
77
37
79
59
9
29
8
13
50
31
20
62
7
44
16
66
75
51
68
67
22
64
45
24
12
19
11
18
15
10
53

>  <PUBCHEM_CONFORMER_ID>
000ECB2C00000052

>  <PUBCHEM_CONFORMER_RMSD>
1

>  <PUBCHEM_COORDINATE_TYPE>
2
5
10

>  <PUBCHEM_EFFECTIVE_ROTOR_COUNT>
8

>  <PUBCHEM_FEATURE_SELFOVERLAP>
45.672

>  <PUBCHEM_HEAVY_ATOM_COUNT>
27

>  <PUBCHEM_ISOTOPIC_ATOM_COUNT>
0

>  <PUBCHEM_MMFF94_ENERGY>
92.651

>  <PUBCHEM_MMFF94_PARTIAL_CHARGES>
39
1 -0.36
10 -0.15
11 -0.15
12 0.08
13 0.08
14 -0.15
15 -0.15
16 -0.18
17 -0.18
18 0.08
19 0.08
2 -0.36
20 0.49
21 0.49
22 -0.15
23 -0.15
24 -0.14
25 -0.14
26 0.28
27 0.28
3 -0.53
30 0.15
31 0.15
32 0.15
33 0.15
34 0.15
35 0.15
36 0.15
37 0.15
38 0.15
39 0.15
4 -0.53
40 0.45
41 0.45
5 -0.57
6 -0.57
7 0.03
8 0.03
9 0.12

>  <PUBCHEM_PHARMACOPHORE_FEATURES>
9
1 1 acceptor
1 2 acceptor
1 3 donor
1 4 donor
1 5 acceptor
1 6 acceptor
1 9 anion
6 7 10 12 14 18 22 rings
6 8 11 13 15 19 23 rings

>  <PUBCHEM_SHAPE_FINGERPRINT>
10 15 12751240315890217573
10319688 140 18337398252872831732
10669705 162 18337104575972446653
10917259 69 18192703459598944165
11211813 128 18272932692783743174
11410812 94 16370996361790263860
117089 54 18267879293612551318
11828532 37 17896331370365246675
12342043 65 18188209905213906085
12758862 65 18410567410511369408
12760667 363 18411139121760541745
13533116 47 18272092759487660785
1361 87 17822307806824084883
13673619 4 18187085057046420093
13782708 43 18187646942401274497
13911852 28 18342177760919306525
13955234 65 18127412482311963032
14251764 75 8934705700369515222
14931854 50 17458064828953579058
15188451 53 18040713637372491534
15510800 12 18334017193917594602
15519825 34 15769481128208245039
16096371 109 17842545529393793568
1768 124 17918273151673982878
190975 80 18273208699771038632
1979834 28 17274556351083136116
20105231 36 17632018551801690966
20165401 70 18269560610432539175
2026 5 18187081767692646843
21033650 10 16081361917848681093
21307412 95 17967532394149105875
21315764 119 16081364133534249763
21585481 104 14779540124190440126
21585482 111 9150633321735644751
21585482 310 18261684739337370307
21682296 61 18408609175854266457
22149856 69 18130234757594157200
229767 8 17769106648757633326
2303208 19 17749956686811695209
23559900 14 17895477059232625973
270888 7 9367336016755256852
3014063 24 18201716258419056095
32027 91 18336829796691442577
3383291 50 18335703857830032987
34797466 226 16806453698591057205
4046055 4 18260545598226657845
439807 62 17967816037266467641
4461854 278 17917996092435725982
46194498 28 17749669692248635052
474113 269 18060412513729437109
5104073 3 17843397381307680056
513202 73 18411700985483149125
5718773 13 18410291402073184614
59682541 35 18342166779510532640
6126387 218 18059849546448719409
96874 4 17846488266996003727
9689198 14 12751239220357137022
9962374 69 18270389628765581455

>  <PUBCHEM_SHAPE_MULTIPOLES>
520.43
25.03
3.33
1.58
5.48
1.87
-0.01
-22.64
-2.84
-3.92
0.39
2.68
-0.7
1.55

>  <PUBCHEM_SHAPE_SELFOVERLAP>
1103.249

>  <PUBCHEM_SHAPE_VOLUME>
290

>  <RI>
-6.78624e+08

>  <Rbt.Current_Directory>
/root/miniconda3/envs/rdock/share/rxdock-2013.1.1_148c5bd1-0/data/ligands/prepped_ligands/Curcumin

>  <Rbt.Executable>
rbdock/0.1.0

>  <Rbt.Library>
librxdock.so/0.1.0

>  <Rbt.Parameter_File>
/root/miniconda3/envs/rdock/share/rxdock-2013.1.1_148c5bd1-0/data/scripts/dock.prm

>  <Rbt.Receptor>
def.prm

>  <SCORE>
-17.7746

>  <SCORE.INTER>
-16.5062

>  <SCORE.INTER.CONST>
1

>  <SCORE.INTER.POLAR>
-1.89201

>  <SCORE.INTER.REPUL>
0.0508816

>  <SCORE.INTER.ROT>
8

>  <SCORE.INTER.VDW>
-23.7278

>  <SCORE.INTER.norm>
-0.611341

>  <SCORE.INTRA>
-0.372873

>  <SCORE.INTRA.DIHEDRAL>
16.3134

>  <SCORE.INTRA.DIHEDRAL.0>
9.63727

>  <SCORE.INTRA.POLAR>
0.167074

>  <SCORE.INTRA.POLAR.0>
-0.167074

>  <SCORE.INTRA.REPUL>
0

>  <SCORE.INTRA.REPUL.0>
0

>  <SCORE.INTRA.VDW>
-9.09763

>  <SCORE.INTRA.VDW.0>
9.25931

>  <SCORE.INTRA.norm>
-0.0138101

>  <SCORE.RESTR>
0.110626

>  <SCORE.RESTR.CAVITY>
0.110626

>  <SCORE.RESTR.norm>
0.00409727

>  <SCORE.SYSTEM>
-1.00613

>  <SCORE.SYSTEM.CONST>
0

>  <SCORE.SYSTEM.DIHEDRAL>
0.130981

>  <SCORE.SYSTEM.VDW>
-1.07162

>  <SCORE.SYSTEM.norm>
-0.0372641

>  <SCORE.heavy>
27

>  <SCORE.norm>
-0.658318

$$$$
969516
  RxDock  02242110303D
librxdock.so/0.1.0
 29 30  0  0  0  0  0  0  0  0999 V2000
  -44.0663   -0.5055   20.5046 O   0  0  0  0  0  0
  -53.6667   -6.8163   17.0394 O   0  0  0  0  0  0
  -42.0809   -1.8609   19.1096 O   0  0  0  0  0  0
  -52.0892   -8.2783   18.7999 O   0  0  0  0  0  0
  -49.9471   -1.5956   16.0887 O   0  0  0  0  0  0
  -49.3433   -3.5497   12.1426 O   0  0  0  0  0  0
  -45.9123   -1.6362   17.5770 C   0  0  0  0  0  0
  -50.3311   -5.7400   16.0530 C   0  0  0  0  0  0
  -49.2301   -1.8004   13.7966 C   0  0  0  0  0  0
  -45.6348   -1.0283   18.7906 C   0  0  0  0  0  0
  -51.7119   -5.8500   16.0823 C   0  0  0  0  0  0
  -44.3427   -1.1014   19.3112 C   0  0  0  0  0  0
  -52.3093   -6.7052   17.0083 C   0  0  0  0  0  0
  -44.9334   -2.3150   16.8696 C   0  0  0  0  0  0
  -49.5314   -6.4617   16.9243 C   0  0  0  0  0  0
  -47.2769   -1.5585   17.0262 C   0  0  0  0  0  0
  -49.6997   -4.8360   15.0756 C   0  0  0  0  0  0
  -43.3461   -1.7814   18.6109 C   0  0  0  0  0  0
  -51.5176   -7.4387   17.8922 C   0  0  0  0  0  0
  -49.0174   -1.7171   15.2953 C   0  0  0  0  0  0
  -49.6337   -3.1642   13.2722 C   0  0  0  0  0  0
  -43.6415   -2.3880   17.3900 C   0  0  0  0  0  0
  -50.1288   -7.3168   17.8501 C   0  0  0  0  0  0
  -47.6026   -1.8388   15.7565 C   0  0  0  0  0  0
  -50.3704   -4.0367   14.2339 C   0  0  0  0  0  0
  -43.8242   -1.3644   21.6172 C   0  0  0  0  0  0
  -54.2956   -7.3992   15.8997 C   0  0  0  0  0  0
  -41.5507   -2.4153   18.5110 H   0  0  0  0  0  0
  -51.3888   -8.7747   19.2571 H   0  0  0  0  0  0
  1 12  1  0  0  0
  1 26  1  0  0  0
  2 13  1  0  0  0
  2 27  1  0  0  0
  3 18  1  0  0  0
  3 28  1  0  0  0
  4 19  1  0  0  0
  4 29  1  0  0  0
  5 20  2  0  0  0
  6 21  2  0  0  0
  7 10  2  0  0  0
  7 14  1  0  0  0
  7 16  1  0  0  0
  8 11  2  0  0  0
  8 15  1  0  0  0
  8 17  1  0  0  0
  9 20  1  0  0  0
  9 21  1  0  0  0
 10 12  1  0  0  0
 11 13  1  0  0  0
 12 18  2  0  0  0
 13 19  2  0  0  0
 14 22  2  0  0  0
 15 23  2  0  0  0
 16 24  2  0  0  0
 17 25  2  0  0  0
 18 22  1  0  0  0
 19 23  1  0  0  0
 20 24  1  0  0  0
 21 25  1  0  0  0
M  END
>  <CHROM.0>
-174.87166445,62.02472864,-56.05892488

>  <CHROM.1>
109.30039745,66.06355555,176.59814447,173.69477604,164.66099035,3.67850935
-80.96376189,-150.44329648,-13.13234068,90.46752031,-48.36104130,-3.72330571
16.93170592,-0.03759764,0.62261974,2.12219611

>  <Name>
969516

>  <PUBCHEM_ATOM_DEF_STEREO_COUNT>
0

>  <PUBCHEM_ATOM_UDEF_STEREO_COUNT>
0

>  <PUBCHEM_BOND_DEF_STEREO_COUNT>
2

>  <PUBCHEM_BOND_UDEF_STEREO_COUNT>
0

>  <PUBCHEM_CACTVS_TAUTO_COUNT>
49

>  <PUBCHEM_COMPONENT_COUNT>
1

>  <PUBCHEM_COMPOUND_CID>
969516

>  <PUBCHEM_CONFORMER_DIVERSEORDER>
82
80
54
21
40
74
55
61
46
34
47
4
43
38
81
26
17
78
6
35
23
73
57
63
2
39
32
14
1
30
56
36
72
41
70
60
3
69
27
58
33
25
49
71
42
65
28
76
5
48
52
77
37
79
59
9
29
8
13
50
31
20
62
7
44
16
66
75
51
68
67
22
64
45
24
12
19
11
18
15
10
53

>  <PUBCHEM_CONFORMER_ID>
000ECB2C00000052

>  <PUBCHEM_CONFORMER_RMSD>
1

>  <PUBCHEM_COORDINATE_TYPE>
2
5
10

>  <PUBCHEM_EFFECTIVE_ROTOR_COUNT>
8

>  <PUBCHEM_FEATURE_SELFOVERLAP>
45.672

>  <PUBCHEM_HEAVY_ATOM_COUNT>
27

>  <PUBCHEM_ISOTOPIC_ATOM_COUNT>
0

>  <PUBCHEM_MMFF94_ENERGY>
92.651

>  <PUBCHEM_MMFF94_PARTIAL_CHARGES>
39
1 -0.36
10 -0.15
11 -0.15
12 0.08
13 0.08
14 -0.15
15 -0.15
16 -0.18
17 -0.18
18 0.08
19 0.08
2 -0.36
20 0.49
21 0.49
22 -0.15
23 -0.15
24 -0.14
25 -0.14
26 0.28
27 0.28
3 -0.53
30 0.15
31 0.15
32 0.15
33 0.15
34 0.15
35 0.15
36 0.15
37 0.15
38 0.15
39 0.15
4 -0.53
40 0.45
41 0.45
5 -0.57
6 -0.57
7 0.03
8 0.03
9 0.12

>  <PUBCHEM_PHARMACOPHORE_FEATURES>
9
1 1 acceptor
1 2 acceptor
1 3 donor
1 4 donor
1 5 acceptor
1 6 acceptor
1 9 anion
6 7 10 12 14 18 22 rings
6 8 11 13 15 19 23 rings

>  <PUBCHEM_SHAPE_FINGERPRINT>
10 15 12751240315890217573
10319688 140 18337398252872831732
10669705 162 18337104575972446653
10917259 69 18192703459598944165
11211813 128 18272932692783743174
11410812 94 16370996361790263860
117089 54 18267879293612551318
11828532 37 17896331370365246675
12342043 65 18188209905213906085
12758862 65 18410567410511369408
12760667 363 18411139121760541745
13533116 47 18272092759487660785
1361 87 17822307806824084883
13673619 4 18187085057046420093
13782708 43 18187646942401274497
13911852 28 18342177760919306525
13955234 65 18127412482311963032
14251764 75 8934705700369515222
14931854 50 17458064828953579058
15188451 53 18040713637372491534
15510800 12 18334017193917594602
15519825 34 15769481128208245039
16096371 109 17842545529393793568
1768 124 17918273151673982878
190975 80 18273208699771038632
1979834 28 17274556351083136116
20105231 36 17632018551801690966
20165401 70 18269560610432539175
2026 5 18187081767692646843
21033650 10 16081361917848681093
21307412 95 17967532394149105875
21315764 119 16081364133534249763
21585481 104 14779540124190440126
21585482 111 9150633321735644751
21585482 310 18261684739337370307
21682296 61 18408609175854266457
22149856 69 18130234757594157200
229767 8 17769106648757633326
2303208 19 17749956686811695209
23559900 14 17895477059232625973
270888 7 9367336016755256852
3014063 24 18201716258419056095
32027 91 18336829796691442577
3383291 50 18335703857830032987
34797466 226 16806453698591057205
4046055 4 18260545598226657845
439807 62 17967816037266467641
4461854 278 17917996092435725982
46194498 28 17749669692248635052
474113 269 18060412513729437109
5104073 3 17843397381307680056
513202 73 18411700985483149125
5718773 13 18410291402073184614
59682541 35 18342166779510532640
6126387 218 18059849546448719409
96874 4 17846488266996003727
9689198 14 12751239220357137022
9962374 69 18270389628765581455

>  <PUBCHEM_SHAPE_MULTIPOLES>
520.43
25.03
3.33
1.58
5.48
1.87
-0.01
-22.64
-2.84
-3.92
0.39
2.68
-0.7
1.55

>  <PUBCHEM_SHAPE_SELFOVERLAP>
1103.249

>  <PUBCHEM_SHAPE_VOLUME>
290

>  <RI>
-6.78624e+08

>  <Rbt.Current_Directory>
/root/miniconda3/envs/rdock/share/rxdock-2013.1.1_148c5bd1-0/data/ligands/prepped_ligands/Curcumin

>  <Rbt.Executable>
rbdock/0.1.0

>  <Rbt.Library>
librxdock.so/0.1.0

>  <Rbt.Parameter_File>
/root/miniconda3/envs/rdock/share/rxdock-2013.1.1_148c5bd1-0/data/scripts/dock.prm

>  <Rbt.Receptor>
def.prm

>  <SCORE>
-14.4169

>  <SCORE.INTER>
-12.6841

>  <SCORE.INTER.CONST>
1

>  <SCORE.INTER.POLAR>
-1.07701

>  <SCORE.INTER.REPUL>
0.00861032

>  <SCORE.INTER.ROT>
8

>  <SCORE.INTER.VDW>
-22.4653

>  <SCORE.INTER.norm>
-0.469782

>  <SCORE.INTRA>
-0.816301

>  <SCORE.INTRA.DIHEDRAL>
13.5965

>  <SCORE.INTRA.DIHEDRAL.0>
9.63727

>  <SCORE.INTRA.POLAR>
0.167074

>  <SCORE.INTRA.POLAR.0>
-0.167074

>  <SCORE.INTRA.REPUL>
0

>  <SCORE.INTRA.REPUL.0>
0

>  <SCORE.INTRA.VDW>
-8.18262

>  <SCORE.INTRA.VDW.0>
9.25931

>  <SCORE.INTRA.norm>
-0.0302334

>  <SCORE.RESTR>
0.0246856

>  <SCORE.RESTR.CAVITY>
0.0246856

>  <SCORE.RESTR.norm>
0.000914283

>  <SCORE.SYSTEM>
-0.941123

>  <SCORE.SYSTEM.CONST>
0

>  <SCORE.SYSTEM.DIHEDRAL>
0.116161

>  <SCORE.SYSTEM.POLAR>
-0.00956705

>  <SCORE.SYSTEM.VDW>
-0.966676

>  <SCORE.SYSTEM.norm>
-0.0348564

>  <SCORE.heavy>
27

>  <SCORE.norm>
-0.533957

$$$$
969516
  RxDock  02242110303D
librxdock.so/0.1.0
 29 30  0  0  0  0  0  0  0  0999 V2000
  -44.0407   -0.3176   20.3297 O   0  0  0  0  0  0
  -51.3931   -7.1335   17.2244 O   0  0  0  0  0  0
  -42.0416   -1.7875   19.0774 O   0  0  0  0  0  0
  -53.9558   -8.0188   16.6128 O   0  0  0  0  0  0
  -50.1841    0.5628   16.6779 O   0  0  0  0  0  0
  -51.2939   -0.6165   13.5922 O   0  0  0  0  0  0
  -45.6377   -1.1132   17.1558 C   0  0  0  0  0  0
  -52.6265   -4.3694   15.2005 C   0  0  0  0  0  0
  -49.2305   -0.6660   14.8366 C   0  0  0  0  0  0
  -45.4455   -0.5976   18.4272 C   0  0  0  0  0  0
  -51.7790   -5.1404   15.9794 C   0  0  0  0  0  0
  -44.2330   -0.8224   19.0791 C   0  0  0  0  0  0
  -52.2236   -6.3731   16.4576 C   0  0  0  0  0  0
  -44.6508   -1.8474   16.5184 C   0  0  0  0  0  0
  -53.9064   -4.7973   14.8866 C   0  0  0  0  0  0
  -46.9181   -0.8751   16.4663 C   0  0  0  0  0  0
  -52.1569   -3.0676   14.6943 C   0  0  0  0  0  0
  -43.2295   -1.5600   18.4506 C   0  0  0  0  0  0
  -53.5096   -6.8177   16.1504 C   0  0  0  0  0  0
  -49.2138   -0.0292   16.2122 C   0  0  0  0  0  0
  -50.5724   -1.2110   14.3889 C   0  0  0  0  0  0
  -43.4384   -2.0723   17.1701 C   0  0  0  0  0  0
  -54.3508   -6.0297   15.3648 C   0  0  0  0  0  0
  -47.9531   -0.2053   16.9924 C   0  0  0  0  0  0
  -50.9470   -2.5462   14.9418 C   0  0  0  0  0  0
  -44.6337   -1.0292   21.4141 C   0  0  0  0  0  0
  -51.7211   -7.2590   18.6068 C   0  0  0  0  0  0
  -41.5193   -2.3990   18.5297 H   0  0  0  0  0  0
  -54.8588   -8.1690   16.2845 H   0  0  0  0  0  0
  1 12  1  0  0  0
  1 26  1  0  0  0
  2 13  1  0  0  0
  2 27  1  0  0  0
  3 18  1  0  0  0
  3 28  1  0  0  0
  4 19  1  0  0  0
  4 29  1  0  0  0
  5 20  2  0  0  0
  6 21  2  0  0  0
  7 10  2  0  0  0
  7 14  1  0  0  0
  7 16  1  0  0  0
  8 11  2  0  0  0
  8 15  1  0  0  0
  8 17  1  0  0  0
  9 20  1  0  0  0
  9 21  1  0  0  0
 10 12  1  0  0  0
 11 13  1  0  0  0
 12 18  2  0  0  0
 13 19  2  0  0  0
 14 22  2  0  0  0
 15 23  2  0  0  0
 16 24  2  0  0  0
 17 25  2  0  0  0
 18 22  1  0  0  0
 19 23  1  0  0  0
 20 24  1  0  0  0
 21 25  1  0  0  0
M  END
>  <CHROM.0>
-60.21883773,174.17171821,-62.94122008

>  <CHROM.1>
78.90941854,109.56998700,173.53454287,-178.74228791,-1.49207932,-0.65612893
-32.19378812,102.21976715,178.90209799,-7.39505575,-48.91987964,-2.83183833
16.83418066,-0.27231838,0.49511760,2.63838959

>  <Name>
969516

>  <PUBCHEM_ATOM_DEF_STEREO_COUNT>
0

>  <PUBCHEM_ATOM_UDEF_STEREO_COUNT>
0

>  <PUBCHEM_BOND_DEF_STEREO_COUNT>
2

>  <PUBCHEM_BOND_UDEF_STEREO_COUNT>
0

>  <PUBCHEM_CACTVS_TAUTO_COUNT>
49

>  <PUBCHEM_COMPONENT_COUNT>
1

>  <PUBCHEM_COMPOUND_CID>
969516

>  <PUBCHEM_CONFORMER_DIVERSEORDER>
82
80
54
21
40
74
55
61
46
34
47
4
43
38
81
26
17
78
6
35
23
73
57
63
2
39
32
14
1
30
56
36
72
41
70
60
3
69
27
58
33
25
49
71
42
65
28
76
5
48
52
77
37
79
59
9
29
8
13
50
31
20
62
7
44
16
66
75
51
68
67
22
64
45
24
12
19
11
18
15
10
53

>  <PUBCHEM_CONFORMER_ID>
000ECB2C00000052

>  <PUBCHEM_CONFORMER_RMSD>
1

>  <PUBCHEM_COORDINATE_TYPE>
2
5
10

>  <PUBCHEM_EFFECTIVE_ROTOR_COUNT>
8

>  <PUBCHEM_FEATURE_SELFOVERLAP>
45.672

>  <PUBCHEM_HEAVY_ATOM_COUNT>
27

>  <PUBCHEM_ISOTOPIC_ATOM_COUNT>
0

>  <PUBCHEM_MMFF94_ENERGY>
92.651

>  <PUBCHEM_MMFF94_PARTIAL_CHARGES>
39
1 -0.36
10 -0.15
11 -0.15
12 0.08
13 0.08
14 -0.15
15 -0.15
16 -0.18
17 -0.18
18 0.08
19 0.08
2 -0.36
20 0.49
21 0.49
22 -0.15
23 -0.15
24 -0.14
25 -0.14
26 0.28
27 0.28
3 -0.53
30 0.15
31 0.15
32 0.15
33 0.15
34 0.15
35 0.15
36 0.15
37 0.15
38 0.15
39 0.15
4 -0.53
40 0.45
41 0.45
5 -0.57
6 -0.57
7 0.03
8 0.03
9 0.12

>  <PUBCHEM_PHARMACOPHORE_FEATURES>
9
1 1 acceptor
1 2 acceptor
1 3 donor
1 4 donor
1 5 acceptor
1 6 acceptor
1 9 anion
6 7 10 12 14 18 22 rings
6 8 11 13 15 19 23 rings

>  <PUBCHEM_SHAPE_FINGERPRINT>
10 15 12751240315890217573
10319688 140 18337398252872831732
10669705 162 18337104575972446653
10917259 69 18192703459598944165
11211813 128 18272932692783743174
11410812 94 16370996361790263860
117089 54 18267879293612551318
11828532 37 17896331370365246675
12342043 65 18188209905213906085
12758862 65 18410567410511369408
12760667 363 18411139121760541745
13533116 47 18272092759487660785
1361 87 17822307806824084883
13673619 4 18187085057046420093
13782708 43 18187646942401274497
13911852 28 18342177760919306525
13955234 65 18127412482311963032
14251764 75 8934705700369515222
14931854 50 17458064828953579058
15188451 53 18040713637372491534
15510800 12 18334017193917594602
15519825 34 15769481128208245039
16096371 109 17842545529393793568
1768 124 17918273151673982878
190975 80 18273208699771038632
1979834 28 17274556351083136116
20105231 36 17632018551801690966
20165401 70 18269560610432539175
2026 5 18187081767692646843
21033650 10 16081361917848681093
21307412 95 17967532394149105875
21315764 119 16081364133534249763
21585481 104 14779540124190440126
21585482 111 9150633321735644751
21585482 310 18261684739337370307
21682296 61 18408609175854266457
22149856 69 18130234757594157200
229767 8 17769106648757633326
2303208 19 17749956686811695209
23559900 14 17895477059232625973
270888 7 9367336016755256852
3014063 24 18201716258419056095
32027 91 18336829796691442577
3383291 50 18335703857830032987
34797466 226 16806453698591057205
4046055 4 18260545598226657845
439807 62 17967816037266467641
4461854 278 17917996092435725982
46194498 28 17749669692248635052
474113 269 18060412513729437109
5104073 3 17843397381307680056
513202 73 18411700985483149125
5718773 13 18410291402073184614
59682541 35 18342166779510532640
6126387 218 18059849546448719409
96874 4 17846488266996003727
9689198 14 12751239220357137022
9962374 69 18270389628765581455

>  <PUBCHEM_SHAPE_MULTIPOLES>
520.43
25.03
3.33
1.58
5.48
1.87
-0.01
-22.64
-2.84
-3.92
0.39
2.68
-0.7
1.55

>  <PUBCHEM_SHAPE_SELFOVERLAP>
1103.249

>  <PUBCHEM_SHAPE_VOLUME>
290

>  <RI>
-6.78624e+08

>  <Rbt.Current_Directory>
/root/miniconda3/envs/rdock/share/rxdock-2013.1.1_148c5bd1-0/data/ligands/prepped_ligands/Curcumin

>  <Rbt.Executable>
rbdock/0.1.0

>  <Rbt.Library>
librxdock.so/0.1.0

>  <Rbt.Parameter_File>
/root/miniconda3/envs/rdock/share/rxdock-2013.1.1_148c5bd1-0/data/scripts/dock.prm

>  <Rbt.Receptor>
def.prm

>  <SCORE>
-21.525

>  <SCORE.INTER>
-15.52

>  <SCORE.INTER.CONST>
1

>  <SCORE.INTER.POLAR>
-1.73182

>  <SCORE.INTER.REPUL>
0.0437097

>  <SCORE.INTER.ROT>
8

>  <SCORE.INTER.VDW>
-23.2504

>  <SCORE.INTER.norm>
-0.574814

>  <SCORE.INTRA>
-4.99535

>  <SCORE.INTRA.DIHEDRAL>
2.67914

>  <SCORE.INTRA.DIHEDRAL.0>
9.63727

>  <SCORE.INTRA.POLAR>
0.167074

>  <SCORE.INTRA.POLAR.0>
-0.167074

>  <SCORE.INTRA.REPUL>
0

>  <SCORE.INTRA.REPUL.0>
0

>  <SCORE.INTRA.VDW>
-6.90297

>  <SCORE.INTRA.VDW.0>
9.25931

>  <SCORE.INTRA.norm>
-0.185013

>  <SCORE.RESTR>
0

>  <SCORE.RESTR.CAVITY>
0

>  <SCORE.RESTR.norm>
0

>  <SCORE.SYSTEM>
-1.00969

>  <SCORE.SYSTEM.CONST>
0

>  <SCORE.SYSTEM.DIHEDRAL>
0.190505

>  <SCORE.SYSTEM.VDW>
-1.10494

>  <SCORE.SYSTEM.norm>
-0.0373958

>  <SCORE.heavy>
27

>  <SCORE.norm>
-0.797223

$$$$
969516
  RxDock  02242110303D
librxdock.so/0.1.0
 29 30  0  0  0  0  0  0  0  0999 V2000
  -47.8048   -1.5616   20.4483 O   0  0  0  0  0  0
  -47.3776   -6.5993   18.8205 O   0  0  0  0  0  0
  -46.0169    0.2870   21.5024 O   0  0  0  0  0  0
  -49.3615   -8.4670   19.3688 O   0  0  0  0  0  0
  -47.5560    0.1920   13.2102 O   0  0  0  0  0  0
  -50.7800   -2.3444   13.7525 O   0  0  0  0  0  0
  -46.6795    0.1289   17.4262 C   0  0  0  0  0  0
  -49.9944   -5.5395   16.5213 C   0  0  0  0  0  0
  -48.4407   -2.0497   13.2526 C   0  0  0  0  0  0
  -47.3592   -0.7494   18.2544 C   0  0  0  0  0  0
  -48.7841   -5.5749   17.1946 C   0  0  0  0  0  0
  -47.1388   -0.6990   19.6309 C   0  0  0  0  0  0
  -48.5662   -6.5619   18.1561 C   0  0  0  0  0  0
  -45.7856    1.0562   17.9366 C   0  0  0  0  0  0
  -50.9928   -6.4638   16.7830 C   0  0  0  0  0  0
  -46.9127    0.0766   15.9721 C   0  0  0  0  0  0
  -50.2246   -4.4978   15.5048 C   0  0  0  0  0  0
  -46.2417    0.2290   20.1600 C   0  0  0  0  0  0
  -49.5618   -7.4995   18.4310 C   0  0  0  0  0  0
  -47.8504   -0.7991   13.8734 C   0  0  0  0  0  0
  -49.6162   -2.6521   13.9966 C   0  0  0  0  0  0
  -45.5652    1.1067   19.3128 C   0  0  0  0  0  0
  -50.7749   -7.4504   17.7444 C   0  0  0  0  0  0
  -47.6894   -0.8266   15.3575 C   0  0  0  0  0  0
  -49.2756   -3.6848   15.0196 C   0  0  0  0  0  0
  -48.9695   -1.0642   21.1043 C   0  0  0  0  0  0
  -46.5504   -7.7411   18.6055 C   0  0  0  0  0  0
  -45.5652    1.1257   21.7006 H   0  0  0  0  0  0
  -50.1030   -9.0956   19.3387 H   0  0  0  0  0  0
  1 12  1  0  0  0
  1 26  1  0  0  0
  2 13  1  0  0  0
  2 27  1  0  0  0
  3 18  1  0  0  0
  3 28  1  0  0  0
  4 19  1  0  0  0
  4 29  1  0  0  0
  5 20  2  0  0  0
  6 21  2  0  0  0
  7 10  2  0  0  0
  7 14  1  0  0  0
  7 16  1  0  0  0
  8 11  2  0  0  0
  8 15  1  0  0  0
  8 17  1  0  0  0
  9 20  1  0  0  0
  9 21  1  0  0  0
 10 12  1  0  0  0
 11 13  1  0  0  0
 12 18  2  0  0  0
 13 19  2  0  0  0
 14 22  2  0  0  0
 15 23  2  0  0  0
 16 24  2  0  0  0
 17 25  2  0  0  0
 18 22  1  0  0  0
 19 23  1  0  0  0
 20 24  1  0  0  0
 21 25  1  0  0  0
M  END
>  <CHROM.0>
56.04197817,60.92739254,176.64571899

>  <CHROM.1>
-98.44757143,-115.14275976,-164.94964610,-172.30464085,-4.25801321,10.70829658
-135.24746853,90.99024470,-17.21890295,13.71738164,-48.20788490,-2.97960229
17.37028175,-0.65407380,1.12978366,2.31091432

>  <Name>
969516

>  <PUBCHEM_ATOM_DEF_STEREO_COUNT>
0

>  <PUBCHEM_ATOM_UDEF_STEREO_COUNT>
0

>  <PUBCHEM_BOND_DEF_STEREO_COUNT>
2

>  <PUBCHEM_BOND_UDEF_STEREO_COUNT>
0

>  <PUBCHEM_CACTVS_TAUTO_COUNT>
49

>  <PUBCHEM_COMPONENT_COUNT>
1

>  <PUBCHEM_COMPOUND_CID>
969516

>  <PUBCHEM_CONFORMER_DIVERSEORDER>
82
80
54
21
40
74
55
61
46
34
47
4
43
38
81
26
17
78
6
35
23
73
57
63
2
39
32
14
1
30
56
36
72
41
70
60
3
69
27
58
33
25
49
71
42
65
28
76
5
48
52
77
37
79
59
9
29
8
13
50
31
20
62
7
44
16
66
75
51
68
67
22
64
45
24
12
19
11
18
15
10
53

>  <PUBCHEM_CONFORMER_ID>
000ECB2C00000052

>  <PUBCHEM_CONFORMER_RMSD>
1

>  <PUBCHEM_COORDINATE_TYPE>
2
5
10

>  <PUBCHEM_EFFECTIVE_ROTOR_COUNT>
8

>  <PUBCHEM_FEATURE_SELFOVERLAP>
45.672

>  <PUBCHEM_HEAVY_ATOM_COUNT>
27

>  <PUBCHEM_ISOTOPIC_ATOM_COUNT>
0

>  <PUBCHEM_MMFF94_ENERGY>
92.651

>  <PUBCHEM_MMFF94_PARTIAL_CHARGES>
39
1 -0.36
10 -0.15
11 -0.15
12 0.08
13 0.08
14 -0.15
15 -0.15
16 -0.18
17 -0.18
18 0.08
19 0.08
2 -0.36
20 0.49
21 0.49
22 -0.15
23 -0.15
24 -0.14
25 -0.14
26 0.28
27 0.28
3 -0.53
30 0.15
31 0.15
32 0.15
33 0.15
34 0.15
35 0.15
36 0.15
37 0.15
38 0.15
39 0.15
4 -0.53
40 0.45
41 0.45
5 -0.57
6 -0.57
7 0.03
8 0.03
9 0.12

>  <PUBCHEM_PHARMACOPHORE_FEATURES>
9
1 1 acceptor
1 2 acceptor
1 3 donor
1 4 donor
1 5 acceptor
1 6 acceptor
1 9 anion
6 7 10 12 14 18 22 rings
6 8 11 13 15 19 23 rings

>  <PUBCHEM_SHAPE_FINGERPRINT>
10 15 12751240315890217573
10319688 140 18337398252872831732
10669705 162 18337104575972446653
10917259 69 18192703459598944165
11211813 128 18272932692783743174
11410812 94 16370996361790263860
117089 54 18267879293612551318
11828532 37 17896331370365246675
12342043 65 18188209905213906085
12758862 65 18410567410511369408
12760667 363 18411139121760541745
13533116 47 18272092759487660785
1361 87 17822307806824084883
13673619 4 18187085057046420093
13782708 43 18187646942401274497
13911852 28 18342177760919306525
13955234 65 18127412482311963032
14251764 75 8934705700369515222
14931854 50 17458064828953579058
15188451 53 18040713637372491534
15510800 12 18334017193917594602
15519825 34 15769481128208245039
16096371 109 17842545529393793568
1768 124 17918273151673982878
190975 80 18273208699771038632
1979834 28 17274556351083136116
20105231 36 17632018551801690966
20165401 70 18269560610432539175
2026 5 18187081767692646843
21033650 10 16081361917848681093
21307412 95 17967532394149105875
21315764 119 16081364133534249763
21585481 104 14779540124190440126
21585482 111 9150633321735644751
21585482 310 18261684739337370307
21682296 61 18408609175854266457
22149856 69 18130234757594157200
229767 8 17769106648757633326
2303208 19 17749956686811695209
23559900 14 17895477059232625973
270888 7 9367336016755256852
3014063 24 18201716258419056095
32027 91 18336829796691442577
3383291 50 18335703857830032987
34797466 226 16806453698591057205
4046055 4 18260545598226657845
439807 62 17967816037266467641
4461854 278 17917996092435725982
46194498 28 17749669692248635052
474113 269 18060412513729437109
5104073 3 17843397381307680056
513202 73 18411700985483149125
5718773 13 18410291402073184614
59682541 35 18342166779510532640
6126387 218 18059849546448719409
96874 4 17846488266996003727
9689198 14 12751239220357137022
9962374 69 18270389628765581455

>  <PUBCHEM_SHAPE_MULTIPOLES>
520.43
25.03
3.33
1.58
5.48
1.87
-0.01
-22.64
-2.84
-3.92
0.39
2.68
-0.7
1.55

>  <PUBCHEM_SHAPE_SELFOVERLAP>
1103.249

>  <PUBCHEM_SHAPE_VOLUME>
290

>  <RI>
-6.78624e+08

>  <Rbt.Current_Directory>
/root/miniconda3/envs/rdock/share/rxdock-2013.1.1_148c5bd1-0/data/ligands/prepped_ligands/Curcumin

>  <Rbt.Executable>
rbdock/0.1.0

>  <Rbt.Library>
librxdock.so/0.1.0

>  <Rbt.Parameter_File>
/root/miniconda3/envs/rdock/share/rxdock-2013.1.1_148c5bd1-0/data/scripts/dock.prm

>  <Rbt.Receptor>
def.prm

>  <SCORE>
-12.515

>  <SCORE.INTER>
-6.53116

>  <SCORE.INTER.CONST>
1

>  <SCORE.INTER.POLAR>
-1.05746

>  <SCORE.INTER.REPUL>
0.0313522

>  <SCORE.INTER.ROT>
8

>  <SCORE.INTER.VDW>
-16.4925

>  <SCORE.INTER.norm>
-0.241895

>  <SCORE.INTRA>
-5.00543

>  <SCORE.INTRA.DIHEDRAL>
5.12893

>  <SCORE.INTRA.DIHEDRAL.0>
9.63727

>  <SCORE.INTRA.POLAR>
0.167074

>  <SCORE.INTRA.POLAR.0>
-0.167074

>  <SCORE.INTRA.REPUL>
0

>  <SCORE.INTRA.REPUL.0>
0

>  <SCORE.INTRA.VDW>
-8.13795

>  <SCORE.INTRA.VDW.0>
9.25931

>  <SCORE.INTRA.norm>
-0.185386

>  <SCORE.RESTR>
0

>  <SCORE.RESTR.CAVITY>
0

>  <SCORE.RESTR.norm>
0

>  <SCORE.SYSTEM>
-0.978379

>  <SCORE.SYSTEM.CONST>
0

>  <SCORE.SYSTEM.DIHEDRAL>
0.0762731

>  <SCORE.SYSTEM.VDW>
-1.01652

>  <SCORE.SYSTEM.norm>
-0.0362362

>  <SCORE.heavy>
27

>  <SCORE.norm>
-0.463517

$$$$
969516
  RxDock  02242110313D
librxdock.so/0.1.0
 29 30  0  0  0  0  0  0  0  0999 V2000
  -52.1285   -7.3993   17.0433 O   0  0  0  0  0  0
  -43.3703    1.3580   19.4714 O   0  0  0  0  0  0
  -54.8246   -6.9625   16.5281 O   0  0  0  0  0  0
  -42.7687   -1.2512   20.2167 O   0  0  0  0  0  0
  -50.3832   -0.3123   12.8516 O   0  0  0  0  0  0
  -47.6239    0.2324   13.4915 O   0  0  0  0  0  0
  -51.9830   -4.3206   15.1050 C   0  0  0  0  0  0
  -45.2351   -0.5318   16.9796 C   0  0  0  0  0  0
  -48.7460   -1.8953   13.6413 C   0  0  0  0  0  0
  -51.5725   -5.4215   15.8389 C   0  0  0  0  0  0
  -44.7157    0.5425   17.6836 C   0  0  0  0  0  0
  -52.5284   -6.3160   16.3206 C   0  0  0  0  0  0
  -43.8822    0.3040   18.7765 C   0  0  0  0  0  0
  -53.3230   -4.0895   14.8395 C   0  0  0  0  0  0
  -44.9440   -1.8379   17.3385 C   0  0  0  0  0  0
  -50.9735   -3.3759   14.5951 C   0  0  0  0  0  0
  -46.1147   -0.2803   15.8244 C   0  0  0  0  0  0
  -53.8815   -6.0970   16.0618 C   0  0  0  0  0  0
  -43.5800   -1.0055   19.1504 C   0  0  0  0  0  0
  -50.1531   -1.3753   13.4225 C   0  0  0  0  0  0
  -47.7253   -0.8539   14.0558 C   0  0  0  0  0  0
  -54.2788   -4.9837   15.3211 C   0  0  0  0  0  0
  -44.1108   -2.0763   18.4312 C   0  0  0  0  0  0
  -51.2536   -2.2613   13.9052 C   0  0  0  0  0  0
  -46.8752   -1.2105   15.2301 C   0  0  0  0  0  0
  -51.1343   -7.1809   18.0423 C   0  0  0  0  0  0
  -42.3493    2.1214   18.8319 C   0  0  0  0  0  0
  -54.3784   -7.7833   16.7998 H   0  0  0  0  0  0
  -43.1019   -2.0294   20.6955 H   0  0  0  0  0  0
  1 12  1  0  0  0
  1 26  1  0  0  0
  2 13  1  0  0  0
  2 27  1  0  0  0
  3 18  1  0  0  0
  3 28  1  0  0  0
  4 19  1  0  0  0
  4 29  1  0  0  0
  5 20  2  0  0  0
  6 21  2  0  0  0
  7 10  2  0  0  0
  7 14  1  0  0  0
  7 16  1  0  0  0
  8 11  2  0  0  0
  8 15  1  0  0  0
  8 17  1  0  0  0
  9 20  1  0  0  0
  9 21  1  0  0  0
 10 12  1  0  0  0
 11 13  1  0  0  0
 12 18  2  0  0  0
 13 19  2  0  0  0
 14 22  2  0  0  0
 15 23  2  0  0  0
 16 24  2  0  0  0
 17 25  2  0  0  0
 18 22  1  0  0  0
 19 23  1  0  0  0
 20 24  1  0  0  0
 21 25  1  0  0  0
M  END
>  <CHROM.0>
-54.92850031,-66.80695566,-179.74945453

>  <CHROM.1>
44.03563516,-72.08097682,-15.26972472,142.18988898,-178.19870181,-166.54330812
41.33026587,-46.59030868,-176.00231479,9.90471461,-48.51479303,-2.46987415
16.30659329,-2.96746918,-0.57667807,-0.82845145

>  <Name>
969516

>  <PUBCHEM_ATOM_DEF_STEREO_COUNT>
0

>  <PUBCHEM_ATOM_UDEF_STEREO_COUNT>
0

>  <PUBCHEM_BOND_DEF_STEREO_COUNT>
2

>  <PUBCHEM_BOND_UDEF_STEREO_COUNT>
0

>  <PUBCHEM_CACTVS_TAUTO_COUNT>
49

>  <PUBCHEM_COMPONENT_COUNT>
1

>  <PUBCHEM_COMPOUND_CID>
969516

>  <PUBCHEM_CONFORMER_DIVERSEORDER>
82
80
54
21
40
74
55
61
46
34
47
4
43
38
81
26
17
78
6
35
23
73
57
63
2
39
32
14
1
30
56
36
72
41
70
60
3
69
27
58
33
25
49
71
42
65
28
76
5
48
52
77
37
79
59
9
29
8
13
50
31
20
62
7
44
16
66
75
51
68
67
22
64
45
24
12
19
11
18
15
10
53

>  <PUBCHEM_CONFORMER_ID>
000ECB2C00000052

>  <PUBCHEM_CONFORMER_RMSD>
1

>  <PUBCHEM_COORDINATE_TYPE>
2
5
10

>  <PUBCHEM_EFFECTIVE_ROTOR_COUNT>
8

>  <PUBCHEM_FEATURE_SELFOVERLAP>
45.672

>  <PUBCHEM_HEAVY_ATOM_COUNT>
27

>  <PUBCHEM_ISOTOPIC_ATOM_COUNT>
0

>  <PUBCHEM_MMFF94_ENERGY>
92.651

>  <PUBCHEM_MMFF94_PARTIAL_CHARGES>
39
1 -0.36
10 -0.15
11 -0.15
12 0.08
13 0.08
14 -0.15
15 -0.15
16 -0.18
17 -0.18
18 0.08
19 0.08
2 -0.36
20 0.49
21 0.49
22 -0.15
23 -0.15
24 -0.14
25 -0.14
26 0.28
27 0.28
3 -0.53
30 0.15
31 0.15
32 0.15
33 0.15
34 0.15
35 0.15
36 0.15
37 0.15
38 0.15
39 0.15
4 -0.53
40 0.45
41 0.45
5 -0.57
6 -0.57
7 0.03
8 0.03
9 0.12

>  <PUBCHEM_PHARMACOPHORE_FEATURES>
9
1 1 acceptor
1 2 acceptor
1 3 donor
1 4 donor
1 5 acceptor
1 6 acceptor
1 9 anion
6 7 10 12 14 18 22 rings
6 8 11 13 15 19 23 rings

>  <PUBCHEM_SHAPE_FINGERPRINT>
10 15 12751240315890217573
10319688 140 18337398252872831732
10669705 162 18337104575972446653
10917259 69 18192703459598944165
11211813 128 18272932692783743174
11410812 94 16370996361790263860
117089 54 18267879293612551318
11828532 37 17896331370365246675
12342043 65 18188209905213906085
12758862 65 18410567410511369408
12760667 363 18411139121760541745
13533116 47 18272092759487660785
1361 87 17822307806824084883
13673619 4 18187085057046420093
13782708 43 18187646942401274497
13911852 28 18342177760919306525
13955234 65 18127412482311963032
14251764 75 8934705700369515222
14931854 50 17458064828953579058
15188451 53 18040713637372491534
15510800 12 18334017193917594602
15519825 34 15769481128208245039
16096371 109 17842545529393793568
1768 124 17918273151673982878
190975 80 18273208699771038632
1979834 28 17274556351083136116
20105231 36 17632018551801690966
20165401 70 18269560610432539175
2026 5 18187081767692646843
21033650 10 16081361917848681093
21307412 95 17967532394149105875
21315764 119 16081364133534249763
21585481 104 14779540124190440126
21585482 111 9150633321735644751
21585482 310 18261684739337370307
21682296 61 18408609175854266457
22149856 69 18130234757594157200
229767 8 17769106648757633326
2303208 19 17749956686811695209
23559900 14 17895477059232625973
270888 7 9367336016755256852
3014063 24 18201716258419056095
32027 91 18336829796691442577
3383291 50 18335703857830032987
34797466 226 16806453698591057205
4046055 4 18260545598226657845
439807 62 17967816037266467641
4461854 278 17917996092435725982
46194498 28 17749669692248635052
474113 269 18060412513729437109
5104073 3 17843397381307680056
513202 73 18411700985483149125
5718773 13 18410291402073184614
59682541 35 18342166779510532640
6126387 218 18059849546448719409
96874 4 17846488266996003727
9689198 14 12751239220357137022
9962374 69 18270389628765581455

>  <PUBCHEM_SHAPE_MULTIPOLES>
520.43
25.03
3.33
1.58
5.48
1.87
-0.01
-22.64
-2.84
-3.92
0.39
2.68
-0.7
1.55

>  <PUBCHEM_SHAPE_SELFOVERLAP>
1103.249

>  <PUBCHEM_SHAPE_VOLUME>
290

>  <RI>
-6.78624e+08

>  <Rbt.Current_Directory>
/root/miniconda3/envs/rdock/share/rxdock-2013.1.1_148c5bd1-0/data/ligands/prepped_ligands/Curcumin

>  <Rbt.Executable>
rbdock/0.1.0

>  <Rbt.Library>
librxdock.so/0.1.0

>  <Rbt.Parameter_File>
/root/miniconda3/envs/rdock/share/rxdock-2013.1.1_148c5bd1-0/data/scripts/dock.prm

>  <Rbt.Receptor>
def.prm

>  <SCORE>
-20.4092

>  <SCORE.INTER>
-14.3579

>  <SCORE.INTER.CONST>
1

>  <SCORE.INTER.POLAR>
-1.25452

>  <SCORE.INTER.REPUL>
0.0156203

>  <SCORE.INTER.ROT>
8

>  <SCORE.INTER.VDW>
-23.5706

>  <SCORE.INTER.norm>
-0.531774

>  <SCORE.INTRA>
-5.04396

>  <SCORE.INTRA.DIHEDRAL>
1.29982

>  <SCORE.INTRA.DIHEDRAL.0>
9.63727

>  <SCORE.INTRA.POLAR>
0.0530189

>  <SCORE.INTRA.POLAR.0>
-0.167074

>  <SCORE.INTRA.REPUL>
0

>  <SCORE.INTRA.REPUL.0>
0

>  <SCORE.INTRA.VDW>
-5.87414

>  <SCORE.INTRA.VDW.0>
9.25931

>  <SCORE.INTRA.norm>
-0.186813

>  <SCORE.RESTR>
0

>  <SCORE.RESTR.CAVITY>
0

>  <SCORE.RESTR.norm>
0

>  <SCORE.SYSTEM>
-1.00736

>  <SCORE.SYSTEM.CONST>
0

>  <SCORE.SYSTEM.DIHEDRAL>
0.285776

>  <SCORE.SYSTEM.POLAR>
-0.00261973

>  <SCORE.SYSTEM.VDW>
-1.14134

>  <SCORE.SYSTEM.norm>
-0.0373097

>  <SCORE.heavy>
27

>  <SCORE.norm>
-0.755897

$$$$
969516
  RxDock  02242110313D
librxdock.so/0.1.0
 29 30  0  0  0  0  0  0  0  0999 V2000
  -43.9567   -0.3439   20.2975 O   0  0  0  0  0  0
  -51.3585   -6.7851   17.6851 O   0  0  0  0  0  0
  -42.0227   -1.8935   19.0390 O   0  0  0  0  0  0
  -53.7143   -7.9472   16.7770 O   0  0  0  0  0  0
  -50.1499    0.6080   16.7468 O   0  0  0  0  0  0
  -51.2279   -0.5717   13.5531 O   0  0  0  0  0  0
  -45.6206   -1.1280   17.1553 C   0  0  0  0  0  0
  -52.4586   -4.3227   15.2390 C   0  0  0  0  0  0
  -49.1900   -0.5079   14.8381 C   0  0  0  0  0  0
  -45.3950   -0.6026   18.4172 C   0  0  0  0  0  0
  -51.6908   -4.9460   16.2092 C   0  0  0  0  0  0
  -44.1817   -0.8582   19.0563 C   0  0  0  0  0  0
  -52.1107   -6.1698   16.7305 C   0  0  0  0  0  0
  -44.6663   -1.9017   16.5149 C   0  0  0  0  0  0
  -53.6349   -4.8897   14.7757 C   0  0  0  0  0  0
  -46.9018   -0.8575   16.4793 C   0  0  0  0  0  0
  -52.0148   -3.0305   14.6872 C   0  0  0  0  0  0
  -43.2109   -1.6357   18.4246 C   0  0  0  0  0  0
  -53.2929   -6.7533   16.2745 C   0  0  0  0  0  0
  -49.1755    0.0517   16.2469 C   0  0  0  0  0  0
  -50.5080   -1.1088   14.3909 C   0  0  0  0  0  0
  -43.4532   -2.1573   17.1538 C   0  0  0  0  0  0
  -54.0548   -6.1132   15.2971 C   0  0  0  0  0  0
  -47.9112   -0.1558   17.0135 C   0  0  0  0  0  0
  -50.8597   -2.4260   14.9992 C   0  0  0  0  0  0
  -44.4366   -1.0986   21.4085 C   0  0  0  0  0  0
  -50.1374   -7.3871   17.2599 C   0  0  0  0  0  0
  -41.4786   -1.0877   19.0025 H   0  0  0  0  0  0
  -53.0110   -8.3223   17.3343 H   0  0  0  0  0  0
  1 12  1  0  0  0
  1 26  1  0  0  0
  2 13  1  0  0  0
  2 27  1  0  0  0
  3 18  1  0  0  0
  3 28  1  0  0  0
  4 19  1  0  0  0
  4 29  1  0  0  0
  5 20  2  0  0  0
  6 21  2  0  0  0
  7 10  2  0  0  0
  7 14  1  0  0  0
  7 16  1  0  0  0
  8 11  2  0  0  0
  8 15  1  0  0  0
  8 17  1  0  0  0
  9 20  1  0  0  0
  9 21  1  0  0  0
 10 12  1  0  0  0
 11 13  1  0  0  0
 12 18  2  0  0  0
 13 19  2  0  0  0
 14 22  2  0  0  0
 15 23  2  0  0  0
 16 24  2  0  0  0
 17 25  2  0  0  0
 18 22  1  0  0  0
 19 23  1  0  0  0
 20 24  1  0  0  0
 21 25  1  0  0  0
M  END
>  <CHROM.0>
-64.57899653,177.66950991,-52.78220666

>  <CHROM.1>
85.38798924,-73.33076641,-74.75025357,-8.96275698,-1.97941395,4.05001838
-35.41310159,108.96740619,174.76127490,-3.16896574,-48.76322468,-2.79872252
16.82609781,-0.28978983,0.48709335,2.70469193

>  <Name>
969516

>  <PUBCHEM_ATOM_DEF_STEREO_COUNT>
0

>  <PUBCHEM_ATOM_UDEF_STEREO_COUNT>
0

>  <PUBCHEM_BOND_DEF_STEREO_COUNT>
2

>  <PUBCHEM_BOND_UDEF_STEREO_COUNT>
0

>  <PUBCHEM_CACTVS_TAUTO_COUNT>
49

>  <PUBCHEM_COMPONENT_COUNT>
1

>  <PUBCHEM_COMPOUND_CID>
969516

>  <PUBCHEM_CONFORMER_DIVERSEORDER>
82
80
54
21
40
74
55
61
46
34
47
4
43
38
81
26
17
78
6
35
23
73
57
63
2
39
32
14
1
30
56
36
72
41
70
60
3
69
27
58
33
25
49
71
42
65
28
76
5
48
52
77
37
79
59
9
29
8
13
50
31
20
62
7
44
16
66
75
51
68
67
22
64
45
24
12
19
11
18
15
10
53

>  <PUBCHEM_CONFORMER_ID>
000ECB2C00000052

>  <PUBCHEM_CONFORMER_RMSD>
1

>  <PUBCHEM_COORDINATE_TYPE>
2
5
10

>  <PUBCHEM_EFFECTIVE_ROTOR_COUNT>
8

>  <PUBCHEM_FEATURE_SELFOVERLAP>
45.672

>  <PUBCHEM_HEAVY_ATOM_COUNT>
27

>  <PUBCHEM_ISOTOPIC_ATOM_COUNT>
0

>  <PUBCHEM_MMFF94_ENERGY>
92.651

>  <PUBCHEM_MMFF94_PARTIAL_CHARGES>
39
1 -0.36
10 -0.15
11 -0.15
12 0.08
13 0.08
14 -0.15
15 -0.15
16 -0.18
17 -0.18
18 0.08
19 0.08
2 -0.36
20 0.49
21 0.49
22 -0.15
23 -0.15
24 -0.14
25 -0.14
26 0.28
27 0.28
3 -0.53
30 0.15
31 0.15
32 0.15
33 0.15
34 0.15
35 0.15
36 0.15
37 0.15
38 0.15
39 0.15
4 -0.53
40 0.45
41 0.45
5 -0.57
6 -0.57
7 0.03
8 0.03
9 0.12

>  <PUBCHEM_PHARMACOPHORE_FEATURES>
9
1 1 acceptor
1 2 acceptor
1 3 donor
1 4 donor
1 5 acceptor
1 6 acceptor
1 9 anion
6 7 10 12 14 18 22 rings
6 8 11 13 15 19 23 rings

>  <PUBCHEM_SHAPE_FINGERPRINT>
10 15 12751240315890217573
10319688 140 18337398252872831732
10669705 162 18337104575972446653
10917259 69 18192703459598944165
11211813 128 18272932692783743174
11410812 94 16370996361790263860
117089 54 18267879293612551318
11828532 37 17896331370365246675
12342043 65 18188209905213906085
12758862 65 18410567410511369408
12760667 363 18411139121760541745
13533116 47 18272092759487660785
1361 87 17822307806824084883
13673619 4 18187085057046420093
13782708 43 18187646942401274497
13911852 28 18342177760919306525
13955234 65 18127412482311963032
14251764 75 8934705700369515222
14931854 50 17458064828953579058
15188451 53 18040713637372491534
15510800 12 18334017193917594602
15519825 34 15769481128208245039
16096371 109 17842545529393793568
1768 124 17918273151673982878
190975 80 18273208699771038632
1979834 28 17274556351083136116
20105231 36 17632018551801690966
20165401 70 18269560610432539175
2026 5 18187081767692646843
21033650 10 16081361917848681093
21307412 95 17967532394149105875
21315764 119 16081364133534249763
21585481 104 14779540124190440126
21585482 111 9150633321735644751
21585482 310 18261684739337370307
21682296 61 18408609175854266457
22149856 69 18130234757594157200
229767 8 17769106648757633326
2303208 19 17749956686811695209
23559900 14 17895477059232625973
270888 7 9367336016755256852
3014063 24 18201716258419056095
32027 91 18336829796691442577
3383291 50 18335703857830032987
34797466 226 16806453698591057205
4046055 4 18260545598226657845
439807 62 17967816037266467641
4461854 278 17917996092435725982
46194498 28 17749669692248635052
474113 269 18060412513729437109
5104073 3 17843397381307680056
513202 73 18411700985483149125
5718773 13 18410291402073184614
59682541 35 18342166779510532640
6126387 218 18059849546448719409
96874 4 17846488266996003727
9689198 14 12751239220357137022
9962374 69 18270389628765581455

>  <PUBCHEM_SHAPE_MULTIPOLES>
520.43
25.03
3.33
1.58
5.48
1.87
-0.01
-22.64
-2.84
-3.92
0.39
2.68
-0.7
1.55

>  <PUBCHEM_SHAPE_SELFOVERLAP>
1103.249

>  <PUBCHEM_SHAPE_VOLUME>
290

>  <RI>
-6.78624e+08

>  <Rbt.Current_Directory>
/root/miniconda3/envs/rdock/share/rxdock-2013.1.1_148c5bd1-0/data/ligands/prepped_ligands/Curcumin

>  <Rbt.Executable>
rbdock/0.1.0

>  <Rbt.Library>
librxdock.so/0.1.0

>  <Rbt.Parameter_File>
/root/miniconda3/envs/rdock/share/rxdock-2013.1.1_148c5bd1-0/data/scripts/dock.prm

>  <Rbt.Receptor>
def.prm

>  <SCORE>
-15.8514

>  <SCORE.INTER>
-11.0833

>  <SCORE.INTER.CONST>
1

>  <SCORE.INTER.POLAR>
-0.692398

>  <SCORE.INTER.REPUL>
0

>  <SCORE.INTER.ROT>
8

>  <SCORE.INTER.VDW>
-22.1292

>  <SCORE.INTER.norm>
-0.410493

>  <SCORE.INTRA>
-3.80815

>  <SCORE.INTRA.DIHEDRAL>
7.61839

>  <SCORE.INTRA.DIHEDRAL.0>
9.63727

>  <SCORE.INTRA.POLAR>
0.116872

>  <SCORE.INTRA.POLAR.0>
-0.167074

>  <SCORE.INTRA.REPUL>
0

>  <SCORE.INTRA.REPUL.0>
0

>  <SCORE.INTRA.VDW>
-8.01471

>  <SCORE.INTRA.VDW.0>
9.25931

>  <SCORE.INTRA.norm>
-0.141043

>  <SCORE.RESTR>
0

>  <SCORE.RESTR.CAVITY>
0

>  <SCORE.RESTR.norm>
0

>  <SCORE.SYSTEM>
-0.959969

>  <SCORE.SYSTEM.CONST>
0

>  <SCORE.SYSTEM.DIHEDRAL>
0.203071

>  <SCORE.SYSTEM.POLAR>
-0.0147346

>  <SCORE.SYSTEM.VDW>
-1.01141

>  <SCORE.SYSTEM.norm>
-0.0355544

>  <SCORE.heavy>
27

>  <SCORE.norm>
-0.58709

$$$$
969516
  RxDock  02242110313D
librxdock.so/0.1.0
 29 30  0  0  0  0  0  0  0  0999 V2000
  -43.2961    0.9202   18.0257 O   0  0  0  0  0  0
  -49.3571   -7.8555   16.9861 O   0  0  0  0  0  0
  -42.4248   -1.5219   19.0267 O   0  0  0  0  0  0
  -51.7339   -8.3300   18.3466 O   0  0  0  0  0  0
  -48.6718    0.7244   13.2393 O   0  0  0  0  0  0
  -50.9804   -1.4333   13.5582 O   0  0  0  0  0  0
  -45.4599   -1.3890   16.2249 C   0  0  0  0  0  0
  -51.2907   -4.9093   16.0703 C   0  0  0  0  0  0
  -48.5974   -1.6841   13.2990 C   0  0  0  0  0  0
  -44.8867   -0.2032   16.6549 C   0  0  0  0  0  0
  -50.2414   -5.8109   16.1440 C   0  0  0  0  0  0
  -43.8616   -0.2437   17.6001 C   0  0  0  0  0  0
  -50.3871   -6.9671   16.9108 C   0  0  0  0  0  0
  -45.0361   -2.6140   16.7140 C   0  0  0  0  0  0
  -52.4817   -5.1321   16.7422 C   0  0  0  0  0  0
  -46.5421   -1.3468   15.2257 C   0  0  0  0  0  0
  -51.1376   -3.6884   15.2595 C   0  0  0  0  0  0
  -43.4240   -1.4694   18.1023 C   0  0  0  0  0  0
  -51.5801   -7.2055   17.5934 C   0  0  0  0  0  0
  -48.1428   -0.2905   13.6853 C   0  0  0  0  0  0
  -49.9688   -2.0844   13.8061 C   0  0  0  0  0  0
  -44.0112   -2.6545   17.6591 C   0  0  0  0  0  0
  -52.6273   -6.2879   17.5089 C   0  0  0  0  0  0
  -47.0348   -0.2241   14.6838 C   0  0  0  0  0  0
  -50.0248   -3.3527   14.5918 C   0  0  0  0  0  0
  -44.0931    1.7621   18.8565 C   0  0  0  0  0  0
  -48.1636   -7.4113   17.6282 C   0  0  0  0  0  0
  -42.0699   -0.6236   19.1445 H   0  0  0  0  0  0
  -52.4047   -8.1636   19.0309 H   0  0  0  0  0  0
  1 12  1  0  0  0
  1 26  1  0  0  0
  2 13  1  0  0  0
  2 27  1  0  0  0
  3 18  1  0  0  0
  3 28  1  0  0  0
  4 19  1  0  0  0
  4 29  1  0  0  0
  5 20  2  0  0  0
  6 21  2  0  0  0
  7 10  2  0  0  0
  7 14  1  0  0  0
  7 16  1  0  0  0
  8 11  2  0  0  0
  8 15  1  0  0  0
  8 17  1  0  0  0
  9 20  1  0  0  0
  9 21  1  0  0  0
 10 12  1  0  0  0
 11 13  1  0  0  0
 12 18  2  0  0  0
 13 19  2  0  0  0
 14 22  2  0  0  0
 15 23  2  0  0  0
 16 24  2  0  0  0
 17 25  2  0  0  0
 18 22  1  0  0  0
 19 23  1  0  0  0
 20 24  1  0  0  0
 21 25  1  0  0  0
M  END
>  <CHROM.0>
-179.90188566,-64.84443389,176.76781734

>  <CHROM.1>
70.67459682,65.50025958,-6.21113987,155.23334761,-0.13715182,-1.60377687
-68.38807692,56.60134963,175.14292625,-12.49701392,-47.94504334,-2.98599653
16.34213439,-0.54062091,0.51614696,2.53500014

>  <Name>
969516

>  <PUBCHEM_ATOM_DEF_STEREO_COUNT>
0

>  <PUBCHEM_ATOM_UDEF_STEREO_COUNT>
0

>  <PUBCHEM_BOND_DEF_STEREO_COUNT>
2

>  <PUBCHEM_BOND_UDEF_STEREO_COUNT>
0

>  <PUBCHEM_CACTVS_TAUTO_COUNT>
49

>  <PUBCHEM_COMPONENT_COUNT>
1

>  <PUBCHEM_COMPOUND_CID>
969516

>  <PUBCHEM_CONFORMER_DIVERSEORDER>
82
80
54
21
40
74
55
61
46
34
47
4
43
38
81
26
17
78
6
35
23
73
57
63
2
39
32
14
1
30
56
36
72
41
70
60
3
69
27
58
33
25
49
71
42
65
28
76
5
48
52
77
37
79
59
9
29
8
13
50
31
20
62
7
44
16
66
75
51
68
67
22
64
45
24
12
19
11
18
15
10
53

>  <PUBCHEM_CONFORMER_ID>
000ECB2C00000052

>  <PUBCHEM_CONFORMER_RMSD>
1

>  <PUBCHEM_COORDINATE_TYPE>
2
5
10

>  <PUBCHEM_EFFECTIVE_ROTOR_COUNT>
8

>  <PUBCHEM_FEATURE_SELFOVERLAP>
45.672

>  <PUBCHEM_HEAVY_ATOM_COUNT>
27

>  <PUBCHEM_ISOTOPIC_ATOM_COUNT>
0

>  <PUBCHEM_MMFF94_ENERGY>
92.651

>  <PUBCHEM_MMFF94_PARTIAL_CHARGES>
39
1 -0.36
10 -0.15
11 -0.15
12 0.08
13 0.08
14 -0.15
15 -0.15
16 -0.18
17 -0.18
18 0.08
19 0.08
2 -0.36
20 0.49
21 0.49
22 -0.15
23 -0.15
24 -0.14
25 -0.14
26 0.28
27 0.28
3 -0.53
30 0.15
31 0.15
32 0.15
33 0.15
34 0.15
35 0.15
36 0.15
37 0.15
38 0.15
39 0.15
4 -0.53
40 0.45
41 0.45
5 -0.57
6 -0.57
7 0.03
8 0.03
9 0.12

>  <PUBCHEM_PHARMACOPHORE_FEATURES>
9
1 1 acceptor
1 2 acceptor
1 3 donor
1 4 donor
1 5 acceptor
1 6 acceptor
1 9 anion
6 7 10 12 14 18 22 rings
6 8 11 13 15 19 23 rings

>  <PUBCHEM_SHAPE_FINGERPRINT>
10 15 12751240315890217573
10319688 140 18337398252872831732
10669705 162 18337104575972446653
10917259 69 18192703459598944165
11211813 128 18272932692783743174
11410812 94 16370996361790263860
117089 54 18267879293612551318
11828532 37 17896331370365246675
12342043 65 18188209905213906085
12758862 65 18410567410511369408
12760667 363 18411139121760541745
13533116 47 18272092759487660785
1361 87 17822307806824084883
13673619 4 18187085057046420093
13782708 43 18187646942401274497
13911852 28 18342177760919306525
13955234 65 18127412482311963032
14251764 75 8934705700369515222
14931854 50 17458064828953579058
15188451 53 18040713637372491534
15510800 12 18334017193917594602
15519825 34 15769481128208245039
16096371 109 17842545529393793568
1768 124 17918273151673982878
190975 80 18273208699771038632
1979834 28 17274556351083136116
20105231 36 17632018551801690966
20165401 70 18269560610432539175
2026 5 18187081767692646843
21033650 10 16081361917848681093
21307412 95 17967532394149105875
21315764 119 16081364133534249763
21585481 104 14779540124190440126
21585482 111 9150633321735644751
21585482 310 18261684739337370307
21682296 61 18408609175854266457
22149856 69 18130234757594157200
229767 8 17769106648757633326
2303208 19 17749956686811695209
23559900 14 17895477059232625973
270888 7 9367336016755256852
3014063 24 18201716258419056095
32027 91 18336829796691442577
3383291 50 18335703857830032987
34797466 226 16806453698591057205
4046055 4 18260545598226657845
439807 62 17967816037266467641
4461854 278 17917996092435725982
46194498 28 17749669692248635052
474113 269 18060412513729437109
5104073 3 17843397381307680056
513202 73 18411700985483149125
5718773 13 18410291402073184614
59682541 35 18342166779510532640
6126387 218 18059849546448719409
96874 4 17846488266996003727
9689198 14 12751239220357137022
9962374 69 18270389628765581455

>  <PUBCHEM_SHAPE_MULTIPOLES>
520.43
25.03
3.33
1.58
5.48
1.87
-0.01
-22.64
-2.84
-3.92
0.39
2.68
-0.7
1.55

>  <PUBCHEM_SHAPE_SELFOVERLAP>
1103.249

>  <PUBCHEM_SHAPE_VOLUME>
290

>  <RI>
-6.78624e+08

>  <Rbt.Current_Directory>
/root/miniconda3/envs/rdock/share/rxdock-2013.1.1_148c5bd1-0/data/ligands/prepped_ligands/Curcumin

>  <Rbt.Executable>
rbdock/0.1.0

>  <Rbt.Library>
librxdock.so/0.1.0

>  <Rbt.Parameter_File>
/root/miniconda3/envs/rdock/share/rxdock-2013.1.1_148c5bd1-0/data/scripts/dock.prm

>  <Rbt.Receptor>
def.prm

>  <SCORE>
-19.4549

>  <SCORE.INTER>
-11.6285

>  <SCORE.INTER.CONST>
1

>  <SCORE.INTER.POLAR>
-0.806883

>  <SCORE.INTER.REPUL>
0.0327331

>  <SCORE.INTER.ROT>
8

>  <SCORE.INTER.VDW>
-22.4488

>  <SCORE.INTER.norm>
-0.430685

>  <SCORE.INTRA>
-6.76613

>  <SCORE.INTRA.DIHEDRAL>
0.228563

>  <SCORE.INTRA.DIHEDRAL.0>
9.63727

>  <SCORE.INTRA.POLAR>
0.0781462

>  <SCORE.INTRA.POLAR.0>
-0.167074

>  <SCORE.INTRA.REPUL>
0

>  <SCORE.INTRA.REPUL.0>
0

>  <SCORE.INTRA.VDW>
-7.1461

>  <SCORE.INTRA.VDW.0>
9.25931

>  <SCORE.INTRA.norm>
-0.250597

>  <SCORE.RESTR>
0

>  <SCORE.RESTR.CAVITY>
0

>  <SCORE.RESTR.norm>
0

>  <SCORE.SYSTEM>
-1.06031

>  <SCORE.SYSTEM.CONST>
0

>  <SCORE.SYSTEM.DIHEDRAL>
0.143683

>  <SCORE.SYSTEM.VDW>
-1.13215

>  <SCORE.SYSTEM.norm>
-0.0392707

>  <SCORE.heavy>
27

>  <SCORE.norm>
-0.720553

$$$$
969516
  RxDock  02242110313D
librxdock.so/0.1.0
 29 30  0  0  0  0  0  0  0  0999 V2000
  -51.6868   -8.1478   18.6836 O   0  0  0  0  0  0
  -43.4556    1.0804   19.2418 O   0  0  0  0  0  0
  -49.1232   -9.2190   18.6081 O   0  0  0  0  0  0
  -42.0468   -1.3113   19.1003 O   0  0  0  0  0  0
  -50.8718   -1.9847   14.6616 O   0  0  0  0  0  0
  -48.1536    0.2996   13.5174 O   0  0  0  0  0  0
  -49.9572   -5.6860   16.6330 C   0  0  0  0  0  0
  -45.1398   -0.5633   16.4634 C   0  0  0  0  0  0
  -48.8327   -2.0086   13.3766 C   0  0  0  0  0  0
  -50.9704   -6.3244   17.3296 C   0  0  0  0  0  0
  -44.8180    0.3919   17.4139 C   0  0  0  0  0  0
  -50.6929   -7.5169   17.9981 C   0  0  0  0  0  0
  -43.7742    0.1436   18.3055 C   0  0  0  0  0  0
  -48.6744   -6.2071   16.5865 C   0  0  0  0  0  0
  -44.4465   -1.7600   16.3800 C   0  0  0  0  0  0
  -50.2496   -4.4257   15.9274 C   0  0  0  0  0  0
  -46.2415   -0.3010   15.5207 C   0  0  0  0  0  0
  -49.4062   -8.0544   17.9605 C   0  0  0  0  0  0
  -43.0669   -1.0566   18.2342 C   0  0  0  0  0  0
  -49.8094   -2.5449   14.4045 C   0  0  0  0  0  0
  -47.9545   -0.8665   13.8483 C   0  0  0  0  0  0
  -48.3969   -7.3994   17.2548 C   0  0  0  0  0  0
  -43.4031   -2.0082   17.2714 C   0  0  0  0  0  0
  -49.4212   -3.8298   15.0583 C   0  0  0  0  0  0
  -46.8528   -1.2395   14.7841 C   0  0  0  0  0  0
  -51.6307   -8.0886   20.1075 C   0  0  0  0  0  0
  -42.4276    2.0100   18.9050 C   0  0  0  0  0  0
  -48.2292   -9.5029   18.3498 H   0  0  0  0  0  0
  -41.5882   -2.1219   18.8200 H   0  0  0  0  0  0
  1 12  1  0  0  0
  1 26  1  0  0  0
  2 13  1  0  0  0
  2 27  1  0  0  0
  3 18  1  0  0  0
  3 28  1  0  0  0
  4 19  1  0  0  0
  4 29  1  0  0  0
  5 20  2  0  0  0
  6 21  2  0  0  0
  7 10  2  0  0  0
  7 14  1  0  0  0
  7 16  1  0  0  0
  8 11  2  0  0  0
  8 15  1  0  0  0
  8 17  1  0  0  0
  9 20  1  0  0  0
  9 21  1  0  0  0
 10 12  1  0  0  0
 11 13  1  0  0  0
 12 18  2  0  0  0
 13 19  2  0  0  0
 14 22  2  0  0  0
 15 23  2  0  0  0
 16 24  2  0  0  0
 17 25  2  0  0  0
 18 22  1  0  0  0
 19 23  1  0  0  0
 20 24  1  0  0  0
 21 25  1  0  0  0
M  END
>  <CHROM.0>
50.16235518,61.63939805,175.12966816

>  <CHROM.1>
-107.03896327,-93.60493117,170.97851230,-171.50516457,-169.12928530,-163.32464692
79.54262450,-103.95301875,1.68475641,15.01876016,-47.45240613,-3.21616438
16.85506897,-2.49707367,-0.59575023,-0.67639668

>  <Name>
969516

>  <PUBCHEM_ATOM_DEF_STEREO_COUNT>
0

>  <PUBCHEM_ATOM_UDEF_STEREO_COUNT>
0

>  <PUBCHEM_BOND_DEF_STEREO_COUNT>
2

>  <PUBCHEM_BOND_UDEF_STEREO_COUNT>
0

>  <PUBCHEM_CACTVS_TAUTO_COUNT>
49

>  <PUBCHEM_COMPONENT_COUNT>
1

>  <PUBCHEM_COMPOUND_CID>
969516

>  <PUBCHEM_CONFORMER_DIVERSEORDER>
82
80
54
21
40
74
55
61
46
34
47
4
43
38
81
26
17
78
6
35
23
73
57
63
2
39
32
14
1
30
56
36
72
41
70
60
3
69
27
58
33
25
49
71
42
65
28
76
5
48
52
77
37
79
59
9
29
8
13
50
31
20
62
7
44
16
66
75
51
68
67
22
64
45
24
12
19
11
18
15
10
53

>  <PUBCHEM_CONFORMER_ID>
000ECB2C00000052

>  <PUBCHEM_CONFORMER_RMSD>
1

>  <PUBCHEM_COORDINATE_TYPE>
2
5
10

>  <PUBCHEM_EFFECTIVE_ROTOR_COUNT>
8

>  <PUBCHEM_FEATURE_SELFOVERLAP>
45.672

>  <PUBCHEM_HEAVY_ATOM_COUNT>
27

>  <PUBCHEM_ISOTOPIC_ATOM_COUNT>
0

>  <PUBCHEM_MMFF94_ENERGY>
92.651

>  <PUBCHEM_MMFF94_PARTIAL_CHARGES>
39
1 -0.36
10 -0.15
11 -0.15
12 0.08
13 0.08
14 -0.15
15 -0.15
16 -0.18
17 -0.18
18 0.08
19 0.08
2 -0.36
20 0.49
21 0.49
22 -0.15
23 -0.15
24 -0.14
25 -0.14
26 0.28
27 0.28
3 -0.53
30 0.15
31 0.15
32 0.15
33 0.15
34 0.15
35 0.15
36 0.15
37 0.15
38 0.15
39 0.15
4 -0.53
40 0.45
41 0.45
5 -0.57
6 -0.57
7 0.03
8 0.03
9 0.12

>  <PUBCHEM_PHARMACOPHORE_FEATURES>
9
1 1 acceptor
1 2 acceptor
1 3 donor
1 4 donor
1 5 acceptor
1 6 acceptor
1 9 anion
6 7 10 12 14 18 22 rings
6 8 11 13 15 19 23 rings

>  <PUBCHEM_SHAPE_FINGERPRINT>
10 15 12751240315890217573
10319688 140 18337398252872831732
10669705 162 18337104575972446653
10917259 69 18192703459598944165
11211813 128 18272932692783743174
11410812 94 16370996361790263860
117089 54 18267879293612551318
11828532 37 17896331370365246675
12342043 65 18188209905213906085
12758862 65 18410567410511369408
12760667 363 18411139121760541745
13533116 47 18272092759487660785
1361 87 17822307806824084883
13673619 4 18187085057046420093
13782708 43 18187646942401274497
13911852 28 18342177760919306525
13955234 65 18127412482311963032
14251764 75 8934705700369515222
14931854 50 17458064828953579058
15188451 53 18040713637372491534
15510800 12 18334017193917594602
15519825 34 15769481128208245039
16096371 109 17842545529393793568
1768 124 17918273151673982878
190975 80 18273208699771038632
1979834 28 17274556351083136116
20105231 36 17632018551801690966
20165401 70 18269560610432539175
2026 5 18187081767692646843
21033650 10 16081361917848681093
21307412 95 17967532394149105875
21315764 119 16081364133534249763
21585481 104 14779540124190440126
21585482 111 9150633321735644751
21585482 310 18261684739337370307
21682296 61 18408609175854266457
22149856 69 18130234757594157200
229767 8 17769106648757633326
2303208 19 17749956686811695209
23559900 14 17895477059232625973
270888 7 9367336016755256852
3014063 24 18201716258419056095
32027 91 18336829796691442577
3383291 50 18335703857830032987
34797466 226 16806453698591057205
4046055 4 18260545598226657845
439807 62 17967816037266467641
4461854 278 17917996092435725982
46194498 28 17749669692248635052
474113 269 18060412513729437109
5104073 3 17843397381307680056
513202 73 18411700985483149125
5718773 13 18410291402073184614
59682541 35 18342166779510532640
6126387 218 18059849546448719409
96874 4 17846488266996003727
9689198 14 12751239220357137022
9962374 69 18270389628765581455

>  <PUBCHEM_SHAPE_MULTIPOLES>
520.43
25.03
3.33
1.58
5.48
1.87
-0.01
-22.64
-2.84
-3.92
0.39
2.68
-0.7
1.55

>  <PUBCHEM_SHAPE_SELFOVERLAP>
1103.249

>  <PUBCHEM_SHAPE_VOLUME>
290

>  <RI>
-6.78624e+08

>  <Rbt.Current_Directory>
/root/miniconda3/envs/rdock/share/rxdock-2013.1.1_148c5bd1-0/data/ligands/prepped_ligands/Curcumin

>  <Rbt.Executable>
rbdock/0.1.0

>  <Rbt.Library>
librxdock.so/0.1.0

>  <Rbt.Parameter_File>
/root/miniconda3/envs/rdock/share/rxdock-2013.1.1_148c5bd1-0/data/scripts/dock.prm

>  <Rbt.Receptor>
def.prm

>  <SCORE>
-20.5643

>  <SCORE.INTER>
-14.1804

>  <SCORE.INTER.CONST>
1

>  <SCORE.INTER.POLAR>
-1.46113

>  <SCORE.INTER.REPUL>
0.0127175

>  <SCORE.INTER.ROT>
8

>  <SCORE.INTER.VDW>
-22.6761

>  <SCORE.INTER.norm>
-0.525199

>  <SCORE.INTRA>
-5.53889

>  <SCORE.INTRA.DIHEDRAL>
5.05235

>  <SCORE.INTRA.DIHEDRAL.0>
9.63727

>  <SCORE.INTRA.POLAR>
0.167074

>  <SCORE.INTRA.POLAR.0>
-0.167074

>  <SCORE.INTRA.REPUL>
0

>  <SCORE.INTRA.REPUL.0>
0

>  <SCORE.INTRA.VDW>
-8.63312

>  <SCORE.INTRA.VDW.0>
9.25931

>  <SCORE.INTRA.norm>
-0.205144

>  <SCORE.RESTR>
0

>  <SCORE.RESTR.CAVITY>
0

>  <SCORE.RESTR.norm>
0

>  <SCORE.SYSTEM>
-0.845052

>  <SCORE.SYSTEM.CONST>
0

>  <SCORE.SYSTEM.DIHEDRAL>
0.316095

>  <SCORE.SYSTEM.VDW>
-1.0031

>  <SCORE.SYSTEM.norm>
-0.0312982

>  <SCORE.heavy>
27

>  <SCORE.norm>
-0.761641

$$$$
