969516
  RxDock  02242101123D
librxdock.so/0.1.0
 29 30  0  0  0  0  0  0  0  0999 V2000
  -43.3408    1.0331   19.3342 O   0  0  0  0  0  0
  -49.5178   -7.5607   18.1004 O   0  0  0  0  0  0
  -42.3467   -1.5470   19.6174 O   0  0  0  0  0  0
  -52.2463   -8.0839   18.0195 O   0  0  0  0  0  0
  -47.8859    0.2264   13.5193 O   0  0  0  0  0  0
  -50.7805   -0.9170   13.1262 O   0  0  0  0  0  0
  -45.1501   -0.7097   16.6987 C   0  0  0  0  0  0
  -50.6560   -4.9966   15.7793 C   0  0  0  0  0  0
  -48.6653   -2.0487   13.3578 C   0  0  0  0  0  0
  -44.7160    0.3107   17.5291 C   0  0  0  0  0  0
  -49.8120   -5.7625   16.5670 C   0  0  0  0  0  0
  -43.7694    0.0325   18.5153 C   0  0  0  0  0  0
  -50.3447   -6.8060   17.3242 C   0  0  0  0  0  0
  -44.6637   -2.0006   16.8271 C   0  0  0  0  0  0
  -52.0180   -5.2454   15.7281 C   0  0  0  0  0  0
  -46.1493   -0.4160   15.6561 C   0  0  0  0  0  0
  -50.0936   -3.8949   14.9784 C   0  0  0  0  0  0
  -43.2703   -1.2624   18.6573 C   0  0  0  0  0  0
  -51.7141   -7.0688   17.2834 C   0  0  0  0  0  0
  -47.7788   -0.9399   13.8895 C   0  0  0  0  0  0
  -50.1512   -1.8626   13.5937 C   0  0  0  0  0  0
  -43.7173   -2.2789   17.8130 C   0  0  0  0  0  0
  -52.5505   -6.2886   16.4852 C   0  0  0  0  0  0
  -46.7902   -1.3447   14.9325 C   0  0  0  0  0  0
  -50.8192   -2.9303   14.3952 C   0  0  0  0  0  0
  -42.4521    1.9959   18.7707 C   0  0  0  0  0  0
  -48.3207   -8.0432   17.4934 C   0  0  0  0  0  0
  -42.1763   -0.7361   20.1275 H   0  0  0  0  0  0
  -51.5469   -8.4771   18.5692 H   0  0  0  0  0  0
  1 12  1  0  0  0
  1 26  1  0  0  0
  2 13  1  0  0  0
  2 27  1  0  0  0
  3 18  1  0  0  0
  3 28  1  0  0  0
  4 19  1  0  0  0
  4 29  1  0  0  0
  5 20  2  0  0  0
  6 21  2  0  0  0
  7 10  2  0  0  0
  7 14  1  0  0  0
  7 16  1  0  0  0
  8 11  2  0  0  0
  8 15  1  0  0  0
  8 17  1  0  0  0
  9 20  1  0  0  0
  9 21  1  0  0  0
 10 12  1  0  0  0
 11 13  1  0  0  0
 12 18  2  0  0  0
 13 19  2  0  0  0
 14 22  2  0  0  0
 15 23  2  0  0  0
 16 24  2  0  0  0
 17 25  2  0  0  0
 18 22  1  0  0  0
 19 23  1  0  0  0
 20 24  1  0  0  0
 21 25  1  0  0  0
M  END
>  <CHROM.0>
-62.39989198,175.90323137,-66.31966417

>  <CHROM.1>
-73.92765401,-47.69908722,1.90791544,4.49055488,-169.48564249,-166.14668729
-59.57038147,61.76332349,11.37327454,-174.90446737,-47.73303048,-2.90664264
16.49425020,-0.41436497,0.59510732,2.48279038

>  <Name>
969516

>  <PUBCHEM_ATOM_DEF_STEREO_COUNT>
0

>  <PUBCHEM_ATOM_UDEF_STEREO_COUNT>
0

>  <PUBCHEM_BOND_DEF_STEREO_COUNT>
2

>  <PUBCHEM_BOND_UDEF_STEREO_COUNT>
0

>  <PUBCHEM_CACTVS_TAUTO_COUNT>
49

>  <PUBCHEM_COMPONENT_COUNT>
1

>  <PUBCHEM_COMPOUND_CID>
969516

>  <PUBCHEM_CONFORMER_DIVERSEORDER>
82
80
54
21
40
74
55
61
46
34
47
4
43
38
81
26
17
78
6
35
23
73
57
63
2
39
32
14
1
30
56
36
72
41
70
60
3
69
27
58
33
25
49
71
42
65
28
76
5
48
52
77
37
79
59
9
29
8
13
50
31
20
62
7
44
16
66
75
51
68
67
22
64
45
24
12
19
11
18
15
10
53

>  <PUBCHEM_CONFORMER_ID>
000ECB2C00000052

>  <PUBCHEM_CONFORMER_RMSD>
1

>  <PUBCHEM_COORDINATE_TYPE>
2
5
10

>  <PUBCHEM_EFFECTIVE_ROTOR_COUNT>
8

>  <PUBCHEM_FEATURE_SELFOVERLAP>
45.672

>  <PUBCHEM_HEAVY_ATOM_COUNT>
27

>  <PUBCHEM_ISOTOPIC_ATOM_COUNT>
0

>  <PUBCHEM_MMFF94_ENERGY>
92.651

>  <PUBCHEM_MMFF94_PARTIAL_CHARGES>
39
1 -0.36
10 -0.15
11 -0.15
12 0.08
13 0.08
14 -0.15
15 -0.15
16 -0.18
17 -0.18
18 0.08
19 0.08
2 -0.36
20 0.49
21 0.49
22 -0.15
23 -0.15
24 -0.14
25 -0.14
26 0.28
27 0.28
3 -0.53
30 0.15
31 0.15
32 0.15
33 0.15
34 0.15
35 0.15
36 0.15
37 0.15
38 0.15
39 0.15
4 -0.53
40 0.45
41 0.45
5 -0.57
6 -0.57
7 0.03
8 0.03
9 0.12

>  <PUBCHEM_PHARMACOPHORE_FEATURES>
9
1 1 acceptor
1 2 acceptor
1 3 donor
1 4 donor
1 5 acceptor
1 6 acceptor
1 9 anion
6 7 10 12 14 18 22 rings
6 8 11 13 15 19 23 rings

>  <PUBCHEM_SHAPE_FINGERPRINT>
10 15 12751240315890217573
10319688 140 18337398252872831732
10669705 162 18337104575972446653
10917259 69 18192703459598944165
11211813 128 18272932692783743174
11410812 94 16370996361790263860
117089 54 18267879293612551318
11828532 37 17896331370365246675
12342043 65 18188209905213906085
12758862 65 18410567410511369408
12760667 363 18411139121760541745
13533116 47 18272092759487660785
1361 87 17822307806824084883
13673619 4 18187085057046420093
13782708 43 18187646942401274497
13911852 28 18342177760919306525
13955234 65 18127412482311963032
14251764 75 8934705700369515222
14931854 50 17458064828953579058
15188451 53 18040713637372491534
15510800 12 18334017193917594602
15519825 34 15769481128208245039
16096371 109 17842545529393793568
1768 124 17918273151673982878
190975 80 18273208699771038632
1979834 28 17274556351083136116
20105231 36 17632018551801690966
20165401 70 18269560610432539175
2026 5 18187081767692646843
21033650 10 16081361917848681093
21307412 95 17967532394149105875
21315764 119 16081364133534249763
21585481 104 14779540124190440126
21585482 111 9150633321735644751
21585482 310 18261684739337370307
21682296 61 18408609175854266457
22149856 69 18130234757594157200
229767 8 17769106648757633326
2303208 19 17749956686811695209
23559900 14 17895477059232625973
270888 7 9367336016755256852
3014063 24 18201716258419056095
32027 91 18336829796691442577
3383291 50 18335703857830032987
34797466 226 16806453698591057205
4046055 4 18260545598226657845
439807 62 17967816037266467641
4461854 278 17917996092435725982
46194498 28 17749669692248635052
474113 269 18060412513729437109
5104073 3 17843397381307680056
513202 73 18411700985483149125
5718773 13 18410291402073184614
59682541 35 18342166779510532640
6126387 218 18059849546448719409
96874 4 17846488266996003727
9689198 14 12751239220357137022
9962374 69 18270389628765581455

>  <PUBCHEM_SHAPE_MULTIPOLES>
520.43
25.03
3.33
1.58
5.48
1.87
-0.01
-22.64
-2.84
-3.92
0.39
2.68
-0.7
1.55

>  <PUBCHEM_SHAPE_SELFOVERLAP>
1103.249

>  <PUBCHEM_SHAPE_VOLUME>
290

>  <RI>
-2.62323e+08

>  <Rbt.Current_Directory>
/root/miniconda3/envs/rdock/share/rxdock-2013.1.1_148c5bd1-0/data/ligands/prepped_ligands/Curcumin

>  <Rbt.Executable>
rbdock/0.1.0

>  <Rbt.Library>
librxdock.so/0.1.0

>  <Rbt.Parameter_File>
/root/miniconda3/envs/rdock/share/rxdock-2013.1.1_148c5bd1-0/data/scripts/dock.prm

>  <Rbt.Receptor>
def.prm

>  <SCORE>
-18.9416

>  <SCORE.INTER>
-10.9197

>  <SCORE.INTER.CONST>
1

>  <SCORE.INTER.POLAR>
-0.413491

>  <SCORE.INTER.REPUL>
0

>  <SCORE.INTER.ROT>
8

>  <SCORE.INTER.VDW>
-22.9139

>  <SCORE.INTER.norm>
-0.404435

>  <SCORE.INTRA>
-7.02366

>  <SCORE.INTRA.DIHEDRAL>
-0.719485

>  <SCORE.INTRA.DIHEDRAL.0>
9.63727

>  <SCORE.INTRA.POLAR>
-0.0537703

>  <SCORE.INTRA.POLAR.0>
-0.167074

>  <SCORE.INTRA.REPUL>
0

>  <SCORE.INTRA.REPUL.0>
0

>  <SCORE.INTRA.VDW>
-6.4811

>  <SCORE.INTRA.VDW.0>
9.25931

>  <SCORE.INTRA.norm>
-0.260136

>  <SCORE.RESTR>
0

>  <SCORE.RESTR.CAVITY>
0

>  <SCORE.RESTR.norm>
0

>  <SCORE.SYSTEM>
-0.998162

>  <SCORE.SYSTEM.CONST>
0

>  <SCORE.SYSTEM.DIHEDRAL>
0.20137

>  <SCORE.SYSTEM.VDW>
-1.09885

>  <SCORE.SYSTEM.norm>
-0.0369689

>  <SCORE.heavy>
27

>  <SCORE.norm>
-0.701539

$$$$
969516
  RxDock  02242101133D
librxdock.so/0.1.0
 29 30  0  0  0  0  0  0  0  0999 V2000
  -48.1436   -7.9260   17.8602 O   0  0  0  0  0  0
  -43.5951   -0.8700   16.9970 O   0  0  0  0  0  0
  -48.7906   -7.0086   20.4028 O   0  0  0  0  0  0
  -44.4881    0.5542   19.2104 O   0  0  0  0  0  0
  -49.4488   -3.4107   12.3942 O   0  0  0  0  0  0
  -50.3561    0.0821   12.9380 O   0  0  0  0  0  0
  -49.6210   -4.6899   17.0842 C   0  0  0  0  0  0
  -47.0677   -0.2622   16.0866 C   0  0  0  0  0  0
  -50.8226   -2.0907   13.8706 C   0  0  0  0  0  0
  -49.0184   -5.9252   16.9100 C   0  0  0  0  0  0
  -45.7578   -0.7074   16.0134 C   0  0  0  0  0  0
  -48.7369   -6.7112   18.0275 C   0  0  0  0  0  0
  -44.8840   -0.4344   17.0659 C   0  0  0  0  0  0
  -49.9500   -4.2192   18.3450 C   0  0  0  0  0  0
  -47.5279    0.4483   17.1834 C   0  0  0  0  0  0
  -49.9195   -3.8597   15.9039 C   0  0  0  0  0  0
  -47.9914   -0.5512   14.9754 C   0  0  0  0  0  0
  -49.0618   -6.2509   19.3037 C   0  0  0  0  0  0
  -45.3323    0.2800   18.1770 C   0  0  0  0  0  0
  -49.9113   -3.2506   13.5207 C   0  0  0  0  0  0
  -50.1709   -0.7222   13.8477 C   0  0  0  0  0  0
  -49.6686   -5.0050   19.4623 C   0  0  0  0  0  0
  -46.6542    0.7212   18.2356 C   0  0  0  0  0  0
  -49.5696   -4.1687   14.6474 C   0  0  0  0  0  0
  -49.3210   -0.3890   15.0290 C   0  0  0  0  0  0
  -49.0042   -9.0448   17.6553 C   0  0  0  0  0  0
  -43.3246   -2.1766   17.5008 C   0  0  0  0  0  0
  -49.0855   -6.5203   21.1910 H   0  0  0  0  0  0
  -43.5727    0.3976   18.9217 H   0  0  0  0  0  0
  1 12  1  0  0  0
  1 26  1  0  0  0
  2 13  1  0  0  0
  2 27  1  0  0  0
  3 18  1  0  0  0
  3 28  1  0  0  0
  4 19  1  0  0  0
  4 29  1  0  0  0
  5 20  2  0  0  0
  6 21  2  0  0  0
  7 10  2  0  0  0
  7 14  1  0  0  0
  7 16  1  0  0  0
  8 11  2  0  0  0
  8 15  1  0  0  0
  8 17  1  0  0  0
  9 20  1  0  0  0
  9 21  1  0  0  0
 10 12  1  0  0  0
 11 13  1  0  0  0
 12 18  2  0  0  0
 13 19  2  0  0  0
 14 22  2  0  0  0
 15 23  2  0  0  0
 16 24  2  0  0  0
 17 25  2  0  0  0
 18 22  1  0  0  0
 19 23  1  0  0  0
 20 24  1  0  0  0
 21 25  1  0  0  0
M  END
>  <CHROM.0>
-176.40205330,-55.79202784,59.65200166

>  <CHROM.1>
-88.64028797,-88.70950141,179.81979622,14.90946239,-4.66107172,167.51348125
-67.73117314,104.46369381,169.79149597,-84.77999848,-48.02617732,-2.91589359
16.63876675,-2.10889894,-0.71366231,-0.59449072

>  <Name>
969516

>  <PUBCHEM_ATOM_DEF_STEREO_COUNT>
0

>  <PUBCHEM_ATOM_UDEF_STEREO_COUNT>
0

>  <PUBCHEM_BOND_DEF_STEREO_COUNT>
2

>  <PUBCHEM_BOND_UDEF_STEREO_COUNT>
0

>  <PUBCHEM_CACTVS_TAUTO_COUNT>
49

>  <PUBCHEM_COMPONENT_COUNT>
1

>  <PUBCHEM_COMPOUND_CID>
969516

>  <PUBCHEM_CONFORMER_DIVERSEORDER>
82
80
54
21
40
74
55
61
46
34
47
4
43
38
81
26
17
78
6
35
23
73
57
63
2
39
32
14
1
30
56
36
72
41
70
60
3
69
27
58
33
25
49
71
42
65
28
76
5
48
52
77
37
79
59
9
29
8
13
50
31
20
62
7
44
16
66
75
51
68
67
22
64
45
24
12
19
11
18
15
10
53

>  <PUBCHEM_CONFORMER_ID>
000ECB2C00000052

>  <PUBCHEM_CONFORMER_RMSD>
1

>  <PUBCHEM_COORDINATE_TYPE>
2
5
10

>  <PUBCHEM_EFFECTIVE_ROTOR_COUNT>
8

>  <PUBCHEM_FEATURE_SELFOVERLAP>
45.672

>  <PUBCHEM_HEAVY_ATOM_COUNT>
27

>  <PUBCHEM_ISOTOPIC_ATOM_COUNT>
0

>  <PUBCHEM_MMFF94_ENERGY>
92.651

>  <PUBCHEM_MMFF94_PARTIAL_CHARGES>
39
1 -0.36
10 -0.15
11 -0.15
12 0.08
13 0.08
14 -0.15
15 -0.15
16 -0.18
17 -0.18
18 0.08
19 0.08
2 -0.36
20 0.49
21 0.49
22 -0.15
23 -0.15
24 -0.14
25 -0.14
26 0.28
27 0.28
3 -0.53
30 0.15
31 0.15
32 0.15
33 0.15
34 0.15
35 0.15
36 0.15
37 0.15
38 0.15
39 0.15
4 -0.53
40 0.45
41 0.45
5 -0.57
6 -0.57
7 0.03
8 0.03
9 0.12

>  <PUBCHEM_PHARMACOPHORE_FEATURES>
9
1 1 acceptor
1 2 acceptor
1 3 donor
1 4 donor
1 5 acceptor
1 6 acceptor
1 9 anion
6 7 10 12 14 18 22 rings
6 8 11 13 15 19 23 rings

>  <PUBCHEM_SHAPE_FINGERPRINT>
10 15 12751240315890217573
10319688 140 18337398252872831732
10669705 162 18337104575972446653
10917259 69 18192703459598944165
11211813 128 18272932692783743174
11410812 94 16370996361790263860
117089 54 18267879293612551318
11828532 37 17896331370365246675
12342043 65 18188209905213906085
12758862 65 18410567410511369408
12760667 363 18411139121760541745
13533116 47 18272092759487660785
1361 87 17822307806824084883
13673619 4 18187085057046420093
13782708 43 18187646942401274497
13911852 28 18342177760919306525
13955234 65 18127412482311963032
14251764 75 8934705700369515222
14931854 50 17458064828953579058
15188451 53 18040713637372491534
15510800 12 18334017193917594602
15519825 34 15769481128208245039
16096371 109 17842545529393793568
1768 124 17918273151673982878
190975 80 18273208699771038632
1979834 28 17274556351083136116
20105231 36 17632018551801690966
20165401 70 18269560610432539175
2026 5 18187081767692646843
21033650 10 16081361917848681093
21307412 95 17967532394149105875
21315764 119 16081364133534249763
21585481 104 14779540124190440126
21585482 111 9150633321735644751
21585482 310 18261684739337370307
21682296 61 18408609175854266457
22149856 69 18130234757594157200
229767 8 17769106648757633326
2303208 19 17749956686811695209
23559900 14 17895477059232625973
270888 7 9367336016755256852
3014063 24 18201716258419056095
32027 91 18336829796691442577
3383291 50 18335703857830032987
34797466 226 16806453698591057205
4046055 4 18260545598226657845
439807 62 17967816037266467641
4461854 278 17917996092435725982
46194498 28 17749669692248635052
474113 269 18060412513729437109
5104073 3 17843397381307680056
513202 73 18411700985483149125
5718773 13 18410291402073184614
59682541 35 18342166779510532640
6126387 218 18059849546448719409
96874 4 17846488266996003727
9689198 14 12751239220357137022
9962374 69 18270389628765581455

>  <PUBCHEM_SHAPE_MULTIPOLES>
520.43
25.03
3.33
1.58
5.48
1.87
-0.01
-22.64
-2.84
-3.92
0.39
2.68
-0.7
1.55

>  <PUBCHEM_SHAPE_SELFOVERLAP>
1103.249

>  <PUBCHEM_SHAPE_VOLUME>
290

>  <RI>
-2.62323e+08

>  <Rbt.Current_Directory>
/root/miniconda3/envs/rdock/share/rxdock-2013.1.1_148c5bd1-0/data/ligands/prepped_ligands/Curcumin

>  <Rbt.Executable>
rbdock/0.1.0

>  <Rbt.Library>
librxdock.so/0.1.0

>  <Rbt.Parameter_File>
/root/miniconda3/envs/rdock/share/rxdock-2013.1.1_148c5bd1-0/data/scripts/dock.prm

>  <Rbt.Receptor>
def.prm

>  <SCORE>
-11.82

>  <SCORE.INTER>
-10.0994

>  <SCORE.INTER.CONST>
1

>  <SCORE.INTER.POLAR>
-0.824621

>  <SCORE.INTER.REPUL>
0.0297202

>  <SCORE.INTER.ROT>
8

>  <SCORE.INTER.VDW>
-20.8443

>  <SCORE.INTER.norm>
-0.374052

>  <SCORE.INTRA>
-0.773816

>  <SCORE.INTRA.DIHEDRAL>
14.862

>  <SCORE.INTRA.DIHEDRAL.0>
9.63727

>  <SCORE.INTRA.POLAR>
0.140613

>  <SCORE.INTRA.POLAR.0>
-0.167074

>  <SCORE.INTRA.REPUL>
0

>  <SCORE.INTRA.REPUL.0>
0

>  <SCORE.INTRA.VDW>
-8.68291

>  <SCORE.INTRA.VDW.0>
9.25931

>  <SCORE.INTRA.norm>
-0.0286599

>  <SCORE.RESTR>
0

>  <SCORE.RESTR.CAVITY>
0

>  <SCORE.RESTR.norm>
0

>  <SCORE.SYSTEM>
-0.946814

>  <SCORE.SYSTEM.CONST>
0

>  <SCORE.SYSTEM.DIHEDRAL>
0.117013

>  <SCORE.SYSTEM.POLAR>
-0.000210452

>  <SCORE.SYSTEM.VDW>
-1.0046

>  <SCORE.SYSTEM.norm>
-0.0350672

>  <SCORE.heavy>
27

>  <SCORE.norm>
-0.437779

$$$$
969516
  RxDock  02242101133D
librxdock.so/0.1.0
 29 30  0  0  0  0  0  0  0  0999 V2000
  -44.4088    0.3755   17.6903 O   0  0  0  0  0  0
  -49.0585   -8.3438   17.6245 O   0  0  0  0  0  0
  -43.2919   -2.1015   17.1050 O   0  0  0  0  0  0
  -49.8641  -10.0519   19.6637 O   0  0  0  0  0  0
  -51.5814    0.5947   18.3501 O   0  0  0  0  0  0
  -53.0268   -2.2521   19.3119 O   0  0  0  0  0  0
  -47.3948   -1.6833   17.3708 C   0  0  0  0  0  0
  -51.4000   -6.2221   19.4338 C   0  0  0  0  0  0
  -51.6968   -1.6193   17.4043 C   0  0  0  0  0  0
  -46.5894   -0.5751   17.5768 C   0  0  0  0  0  0
  -50.4822   -6.6388   18.4833 C   0  0  0  0  0  0
  -45.2040   -0.7119   17.4875 C   0  0  0  0  0  0
  -49.9618   -7.9310   18.5570 C   0  0  0  0  0  0
  -46.8532   -2.9243   17.0778 C   0  0  0  0  0  0
  -51.8118   -7.0621   20.4558 C   0  0  0  0  0  0
  -48.8584   -1.5391   17.4640 C   0  0  0  0  0  0
  -51.9508   -4.8576   19.3557 C   0  0  0  0  0  0
  -44.6434   -1.9550   17.1935 C   0  0  0  0  0  0
  -50.3663   -8.7884   19.5802 C   0  0  0  0  0  0
  -50.9823   -0.3731   17.8885 C   0  0  0  0  0  0
  -52.1661   -2.5640   18.4930 C   0  0  0  0  0  0
  -45.4681   -3.0611   16.9885 C   0  0  0  0  0  0
  -51.2914   -8.3539   20.5295 C   0  0  0  0  0  0
  -49.4916   -0.4105   17.8131 C   0  0  0  0  0  0
  -51.5493   -3.9235   18.4821 C   0  0  0  0  0  0
  -43.7441    0.4666   18.9489 C   0  0  0  0  0  0
  -47.7338   -7.8263   17.7317 C   0  0  0  0  0  0
  -43.1031   -2.9894   16.7548 H   0  0  0  0  0  0
  -49.2921  -10.2169   18.8947 H   0  0  0  0  0  0
  1 12  1  0  0  0
  1 26  1  0  0  0
  2 13  1  0  0  0
  2 27  1  0  0  0
  3 18  1  0  0  0
  3 28  1  0  0  0
  4 19  1  0  0  0
  4 29  1  0  0  0
  5 20  2  0  0  0
  6 21  2  0  0  0
  7 10  2  0  0  0
  7 14  1  0  0  0
  7 16  1  0  0  0
  8 11  2  0  0  0
  8 15  1  0  0  0
  8 17  1  0  0  0
  9 20  1  0  0  0
  9 21  1  0  0  0
 10 12  1  0  0  0
 11 13  1  0  0  0
 12 18  2  0  0  0
 13 19  2  0  0  0
 14 22  2  0  0  0
 15 23  2  0  0  0
 16 24  2  0  0  0
 17 25  2  0  0  0
 18 22  1  0  0  0
 19 23  1  0  0  0
 20 24  1  0  0  0
 21 25  1  0  0  0
M  END
>  <CHROM.0>
-60.81593195,66.85142820,60.47191913

>  <CHROM.1>
103.15742572,74.35544372,-170.93254122,-4.42398122,-3.94150377,-5.72818463
-77.83681562,65.00368966,171.55192999,1.73402998,-48.85839464,-3.72014894
18.29466437,-0.94247335,-0.16631939,3.03105533

>  <Name>
969516

>  <PUBCHEM_ATOM_DEF_STEREO_COUNT>
0

>  <PUBCHEM_ATOM_UDEF_STEREO_COUNT>
0

>  <PUBCHEM_BOND_DEF_STEREO_COUNT>
2

>  <PUBCHEM_BOND_UDEF_STEREO_COUNT>
0

>  <PUBCHEM_CACTVS_TAUTO_COUNT>
49

>  <PUBCHEM_COMPONENT_COUNT>
1

>  <PUBCHEM_COMPOUND_CID>
969516

>  <PUBCHEM_CONFORMER_DIVERSEORDER>
82
80
54
21
40
74
55
61
46
34
47
4
43
38
81
26
17
78
6
35
23
73
57
63
2
39
32
14
1
30
56
36
72
41
70
60
3
69
27
58
33
25
49
71
42
65
28
76
5
48
52
77
37
79
59
9
29
8
13
50
31
20
62
7
44
16
66
75
51
68
67
22
64
45
24
12
19
11
18
15
10
53

>  <PUBCHEM_CONFORMER_ID>
000ECB2C00000052

>  <PUBCHEM_CONFORMER_RMSD>
1

>  <PUBCHEM_COORDINATE_TYPE>
2
5
10

>  <PUBCHEM_EFFECTIVE_ROTOR_COUNT>
8

>  <PUBCHEM_FEATURE_SELFOVERLAP>
45.672

>  <PUBCHEM_HEAVY_ATOM_COUNT>
27

>  <PUBCHEM_ISOTOPIC_ATOM_COUNT>
0

>  <PUBCHEM_MMFF94_ENERGY>
92.651

>  <PUBCHEM_MMFF94_PARTIAL_CHARGES>
39
1 -0.36
10 -0.15
11 -0.15
12 0.08
13 0.08
14 -0.15
15 -0.15
16 -0.18
17 -0.18
18 0.08
19 0.08
2 -0.36
20 0.49
21 0.49
22 -0.15
23 -0.15
24 -0.14
25 -0.14
26 0.28
27 0.28
3 -0.53
30 0.15
31 0.15
32 0.15
33 0.15
34 0.15
35 0.15
36 0.15
37 0.15
38 0.15
39 0.15
4 -0.53
40 0.45
41 0.45
5 -0.57
6 -0.57
7 0.03
8 0.03
9 0.12

>  <PUBCHEM_PHARMACOPHORE_FEATURES>
9
1 1 acceptor
1 2 acceptor
1 3 donor
1 4 donor
1 5 acceptor
1 6 acceptor
1 9 anion
6 7 10 12 14 18 22 rings
6 8 11 13 15 19 23 rings

>  <PUBCHEM_SHAPE_FINGERPRINT>
10 15 12751240315890217573
10319688 140 18337398252872831732
10669705 162 18337104575972446653
10917259 69 18192703459598944165
11211813 128 18272932692783743174
11410812 94 16370996361790263860
117089 54 18267879293612551318
11828532 37 17896331370365246675
12342043 65 18188209905213906085
12758862 65 18410567410511369408
12760667 363 18411139121760541745
13533116 47 18272092759487660785
1361 87 17822307806824084883
13673619 4 18187085057046420093
13782708 43 18187646942401274497
13911852 28 18342177760919306525
13955234 65 18127412482311963032
14251764 75 8934705700369515222
14931854 50 17458064828953579058
15188451 53 18040713637372491534
15510800 12 18334017193917594602
15519825 34 15769481128208245039
16096371 109 17842545529393793568
1768 124 17918273151673982878
190975 80 18273208699771038632
1979834 28 17274556351083136116
20105231 36 17632018551801690966
20165401 70 18269560610432539175
2026 5 18187081767692646843
21033650 10 16081361917848681093
21307412 95 17967532394149105875
21315764 119 16081364133534249763
21585481 104 14779540124190440126
21585482 111 9150633321735644751
21585482 310 18261684739337370307
21682296 61 18408609175854266457
22149856 69 18130234757594157200
229767 8 17769106648757633326
2303208 19 17749956686811695209
23559900 14 17895477059232625973
270888 7 9367336016755256852
3014063 24 18201716258419056095
32027 91 18336829796691442577
3383291 50 18335703857830032987
34797466 226 16806453698591057205
4046055 4 18260545598226657845
439807 62 17967816037266467641
4461854 278 17917996092435725982
46194498 28 17749669692248635052
474113 269 18060412513729437109
5104073 3 17843397381307680056
513202 73 18411700985483149125
5718773 13 18410291402073184614
59682541 35 18342166779510532640
6126387 218 18059849546448719409
96874 4 17846488266996003727
9689198 14 12751239220357137022
9962374 69 18270389628765581455

>  <PUBCHEM_SHAPE_MULTIPOLES>
520.43
25.03
3.33
1.58
5.48
1.87
-0.01
-22.64
-2.84
-3.92
0.39
2.68
-0.7
1.55

>  <PUBCHEM_SHAPE_SELFOVERLAP>
1103.249

>  <PUBCHEM_SHAPE_VOLUME>
290

>  <RI>
-2.62323e+08

>  <Rbt.Current_Directory>
/root/miniconda3/envs/rdock/share/rxdock-2013.1.1_148c5bd1-0/data/ligands/prepped_ligands/Curcumin

>  <Rbt.Executable>
rbdock/0.1.0

>  <Rbt.Library>
librxdock.so/0.1.0

>  <Rbt.Parameter_File>
/root/miniconda3/envs/rdock/share/rxdock-2013.1.1_148c5bd1-0/data/scripts/dock.prm

>  <Rbt.Receptor>
def.prm

>  <SCORE>
-14.3306

>  <SCORE.INTER>
-6.18729

>  <SCORE.INTER.CONST>
1

>  <SCORE.INTER.POLAR>
-0.87178

>  <SCORE.INTER.REPUL>
0.000427854

>  <SCORE.INTER.ROT>
8

>  <SCORE.INTER.VDW>
-16.6254

>  <SCORE.INTER.norm>
-0.229159

>  <SCORE.INTRA>
-7.16245

>  <SCORE.INTRA.DIHEDRAL>
0.559323

>  <SCORE.INTRA.DIHEDRAL.0>
9.63727

>  <SCORE.INTRA.POLAR>
0.0983876

>  <SCORE.INTRA.POLAR.0>
-0.167074

>  <SCORE.INTRA.REPUL>
0

>  <SCORE.INTRA.REPUL.0>
0

>  <SCORE.INTRA.VDW>
-7.77663

>  <SCORE.INTRA.VDW.0>
9.25931

>  <SCORE.INTRA.norm>
-0.265276

>  <SCORE.RESTR>
0

>  <SCORE.RESTR.CAVITY>
0

>  <SCORE.RESTR.norm>
0

>  <SCORE.SYSTEM>
-0.980821

>  <SCORE.SYSTEM.CONST>
0

>  <SCORE.SYSTEM.DIHEDRAL>
0.231787

>  <SCORE.SYSTEM.POLAR>
-0.00219004

>  <SCORE.SYSTEM.VDW>
-1.08927

>  <SCORE.SYSTEM.norm>
-0.0363267

>  <SCORE.heavy>
27

>  <SCORE.norm>
-0.530761

$$$$
969516
  RxDock  02242101133D
librxdock.so/0.1.0
 29 30  0  0  0  0  0  0  0  0999 V2000
  -43.5944    0.8983   19.1493 O   0  0  0  0  0  0
  -50.5174   -8.2057   17.2567 O   0  0  0  0  0  0
  -42.4197   -1.6184   19.0424 O   0  0  0  0  0  0
  -52.0090   -7.2845   19.4135 O   0  0  0  0  0  0
  -48.2698    0.4110   13.3158 O   0  0  0  0  0  0
  -48.5921   -3.3226   12.3280 O   0  0  0  0  0  0
  -45.4147   -0.6092   16.3797 C   0  0  0  0  0  0
  -50.7520   -4.6555   16.4830 C   0  0  0  0  0  0
  -49.5453   -1.5954   13.7124 C   0  0  0  0  0  0
  -45.0077    0.3220   17.3213 C   0  0  0  0  0  0
  -50.4200   -5.9961   16.3738 C   0  0  0  0  0  0
  -43.9967   -0.0144   18.2216 C   0  0  0  0  0  0
  -50.8428   -6.8869   17.3605 C   0  0  0  0  0  0
  -44.8386   -1.8673   16.3135 C   0  0  0  0  0  0
  -51.4953   -4.1813   17.5518 C   0  0  0  0  0  0
  -46.4820   -0.2539   15.4277 C   0  0  0  0  0  0
  -50.3065   -3.7143   15.4404 C   0  0  0  0  0  0
  -43.4069   -1.2775   18.1678 C   0  0  0  0  0  0
  -51.5917   -6.4247   18.4428 C   0  0  0  0  0  0
  -48.3580   -0.6701   13.8922 C   0  0  0  0  0  0
  -49.2043   -3.0276   13.3512 C   0  0  0  0  0  0
  -43.8277   -2.2038   17.2136 C   0  0  0  0  0  0
  -51.9180   -5.0719   18.5383 C   0  0  0  0  0  0
  -47.3152   -1.1338   14.8548 C   0  0  0  0  0  0
  -49.6186   -4.0629   14.3439 C   0  0  0  0  0  0
  -42.4794    1.7200   18.8091 C   0  0  0  0  0  0
  -49.2239   -8.5924   17.7167 C   0  0  0  0  0  0
  -41.9532   -2.3957   18.6890 H   0  0  0  0  0  0
  -52.6496   -6.8290   19.9861 H   0  0  0  0  0  0
  1 12  1  0  0  0
  1 26  1  0  0  0
  2 13  1  0  0  0
  2 27  1  0  0  0
  3 18  1  0  0  0
  3 28  1  0  0  0
  4 19  1  0  0  0
  4 29  1  0  0  0
  5 20  2  0  0  0
  6 21  2  0  0  0
  7 10  2  0  0  0
  7 14  1  0  0  0
  7 16  1  0  0  0
  8 11  2  0  0  0
  8 15  1  0  0  0
  8 17  1  0  0  0
  9 20  1  0  0  0
  9 21  1  0  0  0
 10 12  1  0  0  0
 11 13  1  0  0  0
 12 18  2  0  0  0
 13 19  2  0  0  0
 14 22  2  0  0  0
 15 23  2  0  0  0
 16 24  2  0  0  0
 17 25  2  0  0  0
 18 22  1  0  0  0
 19 23  1  0  0  0
 20 24  1  0  0  0
 21 25  1  0  0  0
M  END
>  <CHROM.0>
175.87488410,65.27716769,58.66799651

>  <CHROM.1>
-93.70670466,82.80210555,-162.63543588,-169.31443159,-152.44505799,2.01993923
128.38896046,-60.47600871,20.39935944,-178.82181099,-47.79618258,-2.96059947
16.57113485,-0.40199873,0.63430199,2.24607556

>  <Name>
969516

>  <PUBCHEM_ATOM_DEF_STEREO_COUNT>
0

>  <PUBCHEM_ATOM_UDEF_STEREO_COUNT>
0

>  <PUBCHEM_BOND_DEF_STEREO_COUNT>
2

>  <PUBCHEM_BOND_UDEF_STEREO_COUNT>
0

>  <PUBCHEM_CACTVS_TAUTO_COUNT>
49

>  <PUBCHEM_COMPONENT_COUNT>
1

>  <PUBCHEM_COMPOUND_CID>
969516

>  <PUBCHEM_CONFORMER_DIVERSEORDER>
82
80
54
21
40
74
55
61
46
34
47
4
43
38
81
26
17
78
6
35
23
73
57
63
2
39
32
14
1
30
56
36
72
41
70
60
3
69
27
58
33
25
49
71
42
65
28
76
5
48
52
77
37
79
59
9
29
8
13
50
31
20
62
7
44
16
66
75
51
68
67
22
64
45
24
12
19
11
18
15
10
53

>  <PUBCHEM_CONFORMER_ID>
000ECB2C00000052

>  <PUBCHEM_CONFORMER_RMSD>
1

>  <PUBCHEM_COORDINATE_TYPE>
2
5
10

>  <PUBCHEM_EFFECTIVE_ROTOR_COUNT>
8

>  <PUBCHEM_FEATURE_SELFOVERLAP>
45.672

>  <PUBCHEM_HEAVY_ATOM_COUNT>
27

>  <PUBCHEM_ISOTOPIC_ATOM_COUNT>
0

>  <PUBCHEM_MMFF94_ENERGY>
92.651

>  <PUBCHEM_MMFF94_PARTIAL_CHARGES>
39
1 -0.36
10 -0.15
11 -0.15
12 0.08
13 0.08
14 -0.15
15 -0.15
16 -0.18
17 -0.18
18 0.08
19 0.08
2 -0.36
20 0.49
21 0.49
22 -0.15
23 -0.15
24 -0.14
25 -0.14
26 0.28
27 0.28
3 -0.53
30 0.15
31 0.15
32 0.15
33 0.15
34 0.15
35 0.15
36 0.15
37 0.15
38 0.15
39 0.15
4 -0.53
40 0.45
41 0.45
5 -0.57
6 -0.57
7 0.03
8 0.03
9 0.12

>  <PUBCHEM_PHARMACOPHORE_FEATURES>
9
1 1 acceptor
1 2 acceptor
1 3 donor
1 4 donor
1 5 acceptor
1 6 acceptor
1 9 anion
6 7 10 12 14 18 22 rings
6 8 11 13 15 19 23 rings

>  <PUBCHEM_SHAPE_FINGERPRINT>
10 15 12751240315890217573
10319688 140 18337398252872831732
10669705 162 18337104575972446653
10917259 69 18192703459598944165
11211813 128 18272932692783743174
11410812 94 16370996361790263860
117089 54 18267879293612551318
11828532 37 17896331370365246675
12342043 65 18188209905213906085
12758862 65 18410567410511369408
12760667 363 18411139121760541745
13533116 47 18272092759487660785
1361 87 17822307806824084883
13673619 4 18187085057046420093
13782708 43 18187646942401274497
13911852 28 18342177760919306525
13955234 65 18127412482311963032
14251764 75 8934705700369515222
14931854 50 17458064828953579058
15188451 53 18040713637372491534
15510800 12 18334017193917594602
15519825 34 15769481128208245039
16096371 109 17842545529393793568
1768 124 17918273151673982878
190975 80 18273208699771038632
1979834 28 17274556351083136116
20105231 36 17632018551801690966
20165401 70 18269560610432539175
2026 5 18187081767692646843
21033650 10 16081361917848681093
21307412 95 17967532394149105875
21315764 119 16081364133534249763
21585481 104 14779540124190440126
21585482 111 9150633321735644751
21585482 310 18261684739337370307
21682296 61 18408609175854266457
22149856 69 18130234757594157200
229767 8 17769106648757633326
2303208 19 17749956686811695209
23559900 14 17895477059232625973
270888 7 9367336016755256852
3014063 24 18201716258419056095
32027 91 18336829796691442577
3383291 50 18335703857830032987
34797466 226 16806453698591057205
4046055 4 18260545598226657845
439807 62 17967816037266467641
4461854 278 17917996092435725982
46194498 28 17749669692248635052
474113 269 18060412513729437109
5104073 3 17843397381307680056
513202 73 18411700985483149125
5718773 13 18410291402073184614
59682541 35 18342166779510532640
6126387 218 18059849546448719409
96874 4 17846488266996003727
9689198 14 12751239220357137022
9962374 69 18270389628765581455

>  <PUBCHEM_SHAPE_MULTIPOLES>
520.43
25.03
3.33
1.58
5.48
1.87
-0.01
-22.64
-2.84
-3.92
0.39
2.68
-0.7
1.55

>  <PUBCHEM_SHAPE_SELFOVERLAP>
1103.249

>  <PUBCHEM_SHAPE_VOLUME>
290

>  <RI>
-2.62323e+08

>  <Rbt.Current_Directory>
/root/miniconda3/envs/rdock/share/rxdock-2013.1.1_148c5bd1-0/data/ligands/prepped_ligands/Curcumin

>  <Rbt.Executable>
rbdock/0.1.0

>  <Rbt.Library>
librxdock.so/0.1.0

>  <Rbt.Parameter_File>
/root/miniconda3/envs/rdock/share/rxdock-2013.1.1_148c5bd1-0/data/scripts/dock.prm

>  <Rbt.Receptor>
def.prm

>  <SCORE>
-18.2078

>  <SCORE.INTER>
-13.853

>  <SCORE.INTER.CONST>
1

>  <SCORE.INTER.POLAR>
-1.53424

>  <SCORE.INTER.REPUL>
0

>  <SCORE.INTER.ROT>
8

>  <SCORE.INTER.VDW>
-22.0366

>  <SCORE.INTER.norm>
-0.513076

>  <SCORE.INTRA>
-3.39469

>  <SCORE.INTRA.DIHEDRAL>
7.35692

>  <SCORE.INTRA.DIHEDRAL.0>
9.63727

>  <SCORE.INTRA.POLAR>
0.167074

>  <SCORE.INTRA.POLAR.0>
-0.167074

>  <SCORE.INTRA.REPUL>
0

>  <SCORE.INTRA.REPUL.0>
0

>  <SCORE.INTRA.VDW>
-7.6412

>  <SCORE.INTRA.VDW.0>
9.25931

>  <SCORE.INTRA.norm>
-0.125729

>  <SCORE.RESTR>
0.000955817

>  <SCORE.RESTR.CAVITY>
0.000955817

>  <SCORE.RESTR.norm>
3.54006e-05

>  <SCORE.SYSTEM>
-0.961055

>  <SCORE.SYSTEM.CONST>
0

>  <SCORE.SYSTEM.DIHEDRAL>
0.187064

>  <SCORE.SYSTEM.VDW>
-1.05459

>  <SCORE.SYSTEM.norm>
-0.0355946

>  <SCORE.heavy>
27

>  <SCORE.norm>
-0.674364

$$$$
969516
  RxDock  02242101133D
librxdock.so/0.1.0
 29 30  0  0  0  0  0  0  0  0999 V2000
  -42.8983   -0.4682   18.1613 O   0  0  0  0  0  0
  -52.0408   -7.4438   17.7444 O   0  0  0  0  0  0
  -44.1754    1.0197   20.1311 O   0  0  0  0  0  0
  -54.2144   -8.4654   16.3455 O   0  0  0  0  0  0
  -48.2327   -0.3677   12.8536 O   0  0  0  0  0  0
  -50.9209   -0.4185   16.0699 O   0  0  0  0  0  0
  -46.1369    0.1227   16.6059 C   0  0  0  0  0  0
  -52.7143   -4.7290   15.4134 C   0  0  0  0  0  0
  -50.1446   -1.3176   13.9728 C   0  0  0  0  0  0
  -44.8396   -0.3278   16.7892 C   0  0  0  0  0  0
  -52.1197   -5.4603   16.4288 C   0  0  0  0  0  0
  -44.1742   -0.0276   17.9779 C   0  0  0  0  0  0
  -52.6226   -6.7222   16.7461 C   0  0  0  0  0  0
  -46.7869    0.8648   17.5785 C   0  0  0  0  0  0
  -53.7980   -5.2249   14.7067 C   0  0  0  0  0  0
  -46.8406   -0.1950   15.3508 C   0  0  0  0  0  0
  -52.1828   -3.3964   15.0772 C   0  0  0  0  0  0
  -44.8152    0.7189   18.9667 C   0  0  0  0  0  0
  -53.7133   -7.2351   16.0438 C   0  0  0  0  0  0
  -48.7844   -0.6507   13.9140 C   0  0  0  0  0  0
  -50.7672   -1.4035   15.3523 C   0  0  0  0  0  0
  -46.1217    1.1650   18.7670 C   0  0  0  0  0  0
  -54.3007   -6.4864   15.0240 C   0  0  0  0  0  0
  -48.1705   -0.3138   15.2326 C   0  0  0  0  0  0
  -51.2292   -2.7598   15.7718 C   0  0  0  0  0  0
  -42.7302   -1.6806   18.8936 C   0  0  0  0  0  0
  -51.8805   -6.7950   19.0045 C   0  0  0  0  0  0
  -44.7189    1.6603   20.6219 H   0  0  0  0  0  0
  -53.6513   -8.8796   17.0216 H   0  0  0  0  0  0
  1 12  1  0  0  0
  1 26  1  0  0  0
  2 13  1  0  0  0
  2 27  1  0  0  0
  3 18  1  0  0  0
  3 28  1  0  0  0
  4 19  1  0  0  0
  4 29  1  0  0  0
  5 20  2  0  0  0
  6 21  2  0  0  0
  7 10  2  0  0  0
  7 14  1  0  0  0
  7 16  1  0  0  0
  8 11  2  0  0  0
  8 15  1  0  0  0
  8 17  1  0  0  0
  9 20  1  0  0  0
  9 21  1  0  0  0
 10 12  1  0  0  0
 11 13  1  0  0  0
 12 18  2  0  0  0
 13 19  2  0  0  0
 14 22  2  0  0  0
 15 23  2  0  0  0
 16 24  2  0  0  0
 17 25  2  0  0  0
 18 22  1  0  0  0
 19 23  1  0  0  0
 20 24  1  0  0  0
 21 25  1  0  0  0
M  END
>  <CHROM.0>
-178.27644003,174.56074792,-56.58888885

>  <CHROM.1>
-96.46229066,52.27090306,170.72560304,-4.66452059,152.01526349,-6.88780138
-171.11308688,53.95290053,-26.64076134,116.59788403,-49.12251049,-2.54892181
16.53355602,-0.35377872,0.59505316,2.41186672

>  <Name>
969516

>  <PUBCHEM_ATOM_DEF_STEREO_COUNT>
0

>  <PUBCHEM_ATOM_UDEF_STEREO_COUNT>
0

>  <PUBCHEM_BOND_DEF_STEREO_COUNT>
2

>  <PUBCHEM_BOND_UDEF_STEREO_COUNT>
0

>  <PUBCHEM_CACTVS_TAUTO_COUNT>
49

>  <PUBCHEM_COMPONENT_COUNT>
1

>  <PUBCHEM_COMPOUND_CID>
969516

>  <PUBCHEM_CONFORMER_DIVERSEORDER>
82
80
54
21
40
74
55
61
46
34
47
4
43
38
81
26
17
78
6
35
23
73
57
63
2
39
32
14
1
30
56
36
72
41
70
60
3
69
27
58
33
25
49
71
42
65
28
76
5
48
52
77
37
79
59
9
29
8
13
50
31
20
62
7
44
16
66
75
51
68
67
22
64
45
24
12
19
11
18
15
10
53

>  <PUBCHEM_CONFORMER_ID>
000ECB2C00000052

>  <PUBCHEM_CONFORMER_RMSD>
1

>  <PUBCHEM_COORDINATE_TYPE>
2
5
10

>  <PUBCHEM_EFFECTIVE_ROTOR_COUNT>
8

>  <PUBCHEM_FEATURE_SELFOVERLAP>
45.672

>  <PUBCHEM_HEAVY_ATOM_COUNT>
27

>  <PUBCHEM_ISOTOPIC_ATOM_COUNT>
0

>  <PUBCHEM_MMFF94_ENERGY>
92.651

>  <PUBCHEM_MMFF94_PARTIAL_CHARGES>
39
1 -0.36
10 -0.15
11 -0.15
12 0.08
13 0.08
14 -0.15
15 -0.15
16 -0.18
17 -0.18
18 0.08
19 0.08
2 -0.36
20 0.49
21 0.49
22 -0.15
23 -0.15
24 -0.14
25 -0.14
26 0.28
27 0.28
3 -0.53
30 0.15
31 0.15
32 0.15
33 0.15
34 0.15
35 0.15
36 0.15
37 0.15
38 0.15
39 0.15
4 -0.53
40 0.45
41 0.45
5 -0.57
6 -0.57
7 0.03
8 0.03
9 0.12

>  <PUBCHEM_PHARMACOPHORE_FEATURES>
9
1 1 acceptor
1 2 acceptor
1 3 donor
1 4 donor
1 5 acceptor
1 6 acceptor
1 9 anion
6 7 10 12 14 18 22 rings
6 8 11 13 15 19 23 rings

>  <PUBCHEM_SHAPE_FINGERPRINT>
10 15 12751240315890217573
10319688 140 18337398252872831732
10669705 162 18337104575972446653
10917259 69 18192703459598944165
11211813 128 18272932692783743174
11410812 94 16370996361790263860
117089 54 18267879293612551318
11828532 37 17896331370365246675
12342043 65 18188209905213906085
12758862 65 18410567410511369408
12760667 363 18411139121760541745
13533116 47 18272092759487660785
1361 87 17822307806824084883
13673619 4 18187085057046420093
13782708 43 18187646942401274497
13911852 28 18342177760919306525
13955234 65 18127412482311963032
14251764 75 8934705700369515222
14931854 50 17458064828953579058
15188451 53 18040713637372491534
15510800 12 18334017193917594602
15519825 34 15769481128208245039
16096371 109 17842545529393793568
1768 124 17918273151673982878
190975 80 18273208699771038632
1979834 28 17274556351083136116
20105231 36 17632018551801690966
20165401 70 18269560610432539175
2026 5 18187081767692646843
21033650 10 16081361917848681093
21307412 95 17967532394149105875
21315764 119 16081364133534249763
21585481 104 14779540124190440126
21585482 111 9150633321735644751
21585482 310 18261684739337370307
21682296 61 18408609175854266457
22149856 69 18130234757594157200
229767 8 17769106648757633326
2303208 19 17749956686811695209
23559900 14 17895477059232625973
270888 7 9367336016755256852
3014063 24 18201716258419056095
32027 91 18336829796691442577
3383291 50 18335703857830032987
34797466 226 16806453698591057205
4046055 4 18260545598226657845
439807 62 17967816037266467641
4461854 278 17917996092435725982
46194498 28 17749669692248635052
474113 269 18060412513729437109
5104073 3 17843397381307680056
513202 73 18411700985483149125
5718773 13 18410291402073184614
59682541 35 18342166779510532640
6126387 218 18059849546448719409
96874 4 17846488266996003727
9689198 14 12751239220357137022
9962374 69 18270389628765581455

>  <PUBCHEM_SHAPE_MULTIPOLES>
520.43
25.03
3.33
1.58
5.48
1.87
-0.01
-22.64
-2.84
-3.92
0.39
2.68
-0.7
1.55

>  <PUBCHEM_SHAPE_SELFOVERLAP>
1103.249

>  <PUBCHEM_SHAPE_VOLUME>
290

>  <RI>
-2.62323e+08

>  <Rbt.Current_Directory>
/root/miniconda3/envs/rdock/share/rxdock-2013.1.1_148c5bd1-0/data/ligands/prepped_ligands/Curcumin

>  <Rbt.Executable>
rbdock/0.1.0

>  <Rbt.Library>
librxdock.so/0.1.0

>  <Rbt.Parameter_File>
/root/miniconda3/envs/rdock/share/rxdock-2013.1.1_148c5bd1-0/data/scripts/dock.prm

>  <Rbt.Receptor>
def.prm

>  <SCORE>
-11.0078

>  <SCORE.INTER>
-9.21193

>  <SCORE.INTER.CONST>
1

>  <SCORE.INTER.POLAR>
-0.305364

>  <SCORE.INTER.REPUL>
0.132998

>  <SCORE.INTER.ROT>
8

>  <SCORE.INTER.VDW>
-22.2387

>  <SCORE.INTER.norm>
-0.341183

>  <SCORE.INTRA>
-0.82681

>  <SCORE.INTRA.DIHEDRAL>
12.547

>  <SCORE.INTRA.DIHEDRAL.0>
9.63727

>  <SCORE.INTRA.POLAR>
0.0359058

>  <SCORE.INTRA.POLAR.0>
-0.167074

>  <SCORE.INTRA.REPUL>
0

>  <SCORE.INTRA.REPUL.0>
0

>  <SCORE.INTRA.VDW>
-7.22237

>  <SCORE.INTRA.VDW.0>
9.25931

>  <SCORE.INTRA.norm>
-0.0306226

>  <SCORE.RESTR>
0

>  <SCORE.RESTR.CAVITY>
0

>  <SCORE.RESTR.norm>
0

>  <SCORE.SYSTEM>
-0.969034

>  <SCORE.SYSTEM.CONST>
0

>  <SCORE.SYSTEM.DIHEDRAL>
0.177132

>  <SCORE.SYSTEM.POLAR>
-0.00855207

>  <SCORE.SYSTEM.VDW>
-1.02852

>  <SCORE.SYSTEM.norm>
-0.0358902

>  <SCORE.heavy>
27

>  <SCORE.norm>
-0.407695

$$$$
969516
  RxDock  02242101133D
librxdock.so/0.1.0
 29 30  0  0  0  0  0  0  0  0999 V2000
  -45.2340   -1.5128   20.4414 O   0  0  0  0  0  0
  -50.2122   -6.6607   18.4999 O   0  0  0  0  0  0
  -42.5795   -1.6190   19.6243 O   0  0  0  0  0  0
  -52.4933   -6.2537   20.0347 O   0  0  0  0  0  0
  -47.9502    0.5581   13.1100 O   0  0  0  0  0  0
  -50.7402   -0.9882   13.6906 O   0  0  0  0  0  0
  -45.5993   -1.2305   16.8297 C   0  0  0  0  0  0
  -51.5536   -3.6381   16.9762 C   0  0  0  0  0  0
  -48.4717   -1.7688   13.4611 C   0  0  0  0  0  0
  -45.9295   -1.3064   18.1731 C   0  0  0  0  0  0
  -50.7180   -4.7153   17.2229 C   0  0  0  0  0  0
  -44.9131   -1.4370   19.1196 C   0  0  0  0  0  0
  -51.0319   -5.6009   18.2540 C   0  0  0  0  0  0
  -44.2809   -1.2815   16.4069 C   0  0  0  0  0  0
  -52.6944   -3.4222   17.7321 C   0  0  0  0  0  0
  -46.6725   -1.0914   15.8295 C   0  0  0  0  0  0
  -51.2229   -2.7029   15.8864 C   0  0  0  0  0  0
  -43.5808   -1.4901   18.7096 C   0  0  0  0  0  0
  -52.1770   -5.3968   19.0241 C   0  0  0  0  0  0
  -47.6588   -0.5039   13.6541 C   0  0  0  0  0  0
  -49.8575   -1.7509   14.0752 C   0  0  0  0  0  0
  -43.2648   -1.4121   17.3532 C   0  0  0  0  0  0
  -53.0082   -4.3075   18.7630 C   0  0  0  0  0  0
  -46.4997   -0.6148   14.5886 C   0  0  0  0  0  0
  -50.1026   -2.7554   15.1521 C   0  0  0  0  0  0
  -45.1036   -0.3181   21.2095 C   0  0  0  0  0  0
  -50.4879   -7.8704   17.7963 C   0  0  0  0  0  0
  -42.9482   -2.0311   20.4249 H   0  0  0  0  0  0
  -51.9336   -7.0460   19.9651 H   0  0  0  0  0  0
  1 12  1  0  0  0
  1 26  1  0  0  0
  2 13  1  0  0  0
  2 27  1  0  0  0
  3 18  1  0  0  0
  3 28  1  0  0  0
  4 19  1  0  0  0
  4 29  1  0  0  0
  5 20  2  0  0  0
  6 21  2  0  0  0
  7 10  2  0  0  0
  7 14  1  0  0  0
  7 16  1  0  0  0
  8 11  2  0  0  0
  8 15  1  0  0  0
  8 17  1  0  0  0
  9 20  1  0  0  0
  9 21  1  0  0  0
 10 12  1  0  0  0
 11 13  1  0  0  0
 12 18  2  0  0  0
 13 19  2  0  0  0
 14 22  2  0  0  0
 15 23  2  0  0  0
 16 24  2  0  0  0
 17 25  2  0  0  0
 18 22  1  0  0  0
 19 23  1  0  0  0
 20 24  1  0  0  0
 21 25  1  0  0  0
M  END
>  <CHROM.0>
-167.55413226,-64.24527320,176.21806833

>  <CHROM.1>
-99.65573747,-89.53575988,23.95110688,-11.96181532,158.94244946,-4.93862637
-68.56399263,64.87938637,125.00371150,-11.38214804,-48.28336940,-2.66259379
17.15348156,-0.26474122,0.45755360,2.11538366

>  <Name>
969516

>  <PUBCHEM_ATOM_DEF_STEREO_COUNT>
0

>  <PUBCHEM_ATOM_UDEF_STEREO_COUNT>
0

>  <PUBCHEM_BOND_DEF_STEREO_COUNT>
2

>  <PUBCHEM_BOND_UDEF_STEREO_COUNT>
0

>  <PUBCHEM_CACTVS_TAUTO_COUNT>
49

>  <PUBCHEM_COMPONENT_COUNT>
1

>  <PUBCHEM_COMPOUND_CID>
969516

>  <PUBCHEM_CONFORMER_DIVERSEORDER>
82
80
54
21
40
74
55
61
46
34
47
4
43
38
81
26
17
78
6
35
23
73
57
63
2
39
32
14
1
30
56
36
72
41
70
60
3
69
27
58
33
25
49
71
42
65
28
76
5
48
52
77
37
79
59
9
29
8
13
50
31
20
62
7
44
16
66
75
51
68
67
22
64
45
24
12
19
11
18
15
10
53

>  <PUBCHEM_CONFORMER_ID>
000ECB2C00000052

>  <PUBCHEM_CONFORMER_RMSD>
1

>  <PUBCHEM_COORDINATE_TYPE>
2
5
10

>  <PUBCHEM_EFFECTIVE_ROTOR_COUNT>
8

>  <PUBCHEM_FEATURE_SELFOVERLAP>
45.672

>  <PUBCHEM_HEAVY_ATOM_COUNT>
27

>  <PUBCHEM_ISOTOPIC_ATOM_COUNT>
0

>  <PUBCHEM_MMFF94_ENERGY>
92.651

>  <PUBCHEM_MMFF94_PARTIAL_CHARGES>
39
1 -0.36
10 -0.15
11 -0.15
12 0.08
13 0.08
14 -0.15
15 -0.15
16 -0.18
17 -0.18
18 0.08
19 0.08
2 -0.36
20 0.49
21 0.49
22 -0.15
23 -0.15
24 -0.14
25 -0.14
26 0.28
27 0.28
3 -0.53
30 0.15
31 0.15
32 0.15
33 0.15
34 0.15
35 0.15
36 0.15
37 0.15
38 0.15
39 0.15
4 -0.53
40 0.45
41 0.45
5 -0.57
6 -0.57
7 0.03
8 0.03
9 0.12

>  <PUBCHEM_PHARMACOPHORE_FEATURES>
9
1 1 acceptor
1 2 acceptor
1 3 donor
1 4 donor
1 5 acceptor
1 6 acceptor
1 9 anion
6 7 10 12 14 18 22 rings
6 8 11 13 15 19 23 rings

>  <PUBCHEM_SHAPE_FINGERPRINT>
10 15 12751240315890217573
10319688 140 18337398252872831732
10669705 162 18337104575972446653
10917259 69 18192703459598944165
11211813 128 18272932692783743174
11410812 94 16370996361790263860
117089 54 18267879293612551318
11828532 37 17896331370365246675
12342043 65 18188209905213906085
12758862 65 18410567410511369408
12760667 363 18411139121760541745
13533116 47 18272092759487660785
1361 87 17822307806824084883
13673619 4 18187085057046420093
13782708 43 18187646942401274497
13911852 28 18342177760919306525
13955234 65 18127412482311963032
14251764 75 8934705700369515222
14931854 50 17458064828953579058
15188451 53 18040713637372491534
15510800 12 18334017193917594602
15519825 34 15769481128208245039
16096371 109 17842545529393793568
1768 124 17918273151673982878
190975 80 18273208699771038632
1979834 28 17274556351083136116
20105231 36 17632018551801690966
20165401 70 18269560610432539175
2026 5 18187081767692646843
21033650 10 16081361917848681093
21307412 95 17967532394149105875
21315764 119 16081364133534249763
21585481 104 14779540124190440126
21585482 111 9150633321735644751
21585482 310 18261684739337370307
21682296 61 18408609175854266457
22149856 69 18130234757594157200
229767 8 17769106648757633326
2303208 19 17749956686811695209
23559900 14 17895477059232625973
270888 7 9367336016755256852
3014063 24 18201716258419056095
32027 91 18336829796691442577
3383291 50 18335703857830032987
34797466 226 16806453698591057205
4046055 4 18260545598226657845
439807 62 17967816037266467641
4461854 278 17917996092435725982
46194498 28 17749669692248635052
474113 269 18060412513729437109
5104073 3 17843397381307680056
513202 73 18411700985483149125
5718773 13 18410291402073184614
59682541 35 18342166779510532640
6126387 218 18059849546448719409
96874 4 17846488266996003727
9689198 14 12751239220357137022
9962374 69 18270389628765581455

>  <PUBCHEM_SHAPE_MULTIPOLES>
520.43
25.03
3.33
1.58
5.48
1.87
-0.01
-22.64
-2.84
-3.92
0.39
2.68
-0.7
1.55

>  <PUBCHEM_SHAPE_SELFOVERLAP>
1103.249

>  <PUBCHEM_SHAPE_VOLUME>
290

>  <RI>
-2.62323e+08

>  <Rbt.Current_Directory>
/root/miniconda3/envs/rdock/share/rxdock-2013.1.1_148c5bd1-0/data/ligands/prepped_ligands/Curcumin

>  <Rbt.Executable>
rbdock/0.1.0

>  <Rbt.Library>
librxdock.so/0.1.0

>  <Rbt.Parameter_File>
/root/miniconda3/envs/rdock/share/rxdock-2013.1.1_148c5bd1-0/data/scripts/dock.prm

>  <Rbt.Receptor>
def.prm

>  <SCORE>
-13.982

>  <SCORE.INTER>
-9.5857

>  <SCORE.INTER.CONST>
1

>  <SCORE.INTER.POLAR>
-1.42543

>  <SCORE.INTER.REPUL>
0.0174275

>  <SCORE.INTER.ROT>
8

>  <SCORE.INTER.VDW>
-18.2264

>  <SCORE.INTER.norm>
-0.355026

>  <SCORE.INTRA>
-3.56383

>  <SCORE.INTRA.DIHEDRAL>
10.5938

>  <SCORE.INTRA.DIHEDRAL.0>
9.63727

>  <SCORE.INTRA.POLAR>
0.16058

>  <SCORE.INTRA.POLAR.0>
-0.167074

>  <SCORE.INTRA.REPUL>
0

>  <SCORE.INTRA.REPUL.0>
0

>  <SCORE.INTRA.VDW>
-9.4067

>  <SCORE.INTRA.VDW.0>
9.25931

>  <SCORE.INTRA.norm>
-0.131994

>  <SCORE.RESTR>
8.22972e-05

>  <SCORE.RESTR.CAVITY>
8.22972e-05

>  <SCORE.RESTR.norm>
3.04805e-06

>  <SCORE.SYSTEM>
-0.832509

>  <SCORE.SYSTEM.CONST>
0

>  <SCORE.SYSTEM.DIHEDRAL>
0.487294

>  <SCORE.SYSTEM.VDW>
-1.07616

>  <SCORE.SYSTEM.norm>
-0.0308337

>  <SCORE.heavy>
27

>  <SCORE.norm>
-0.51785

$$$$
969516
  RxDock  02242101133D
librxdock.so/0.1.0
 29 30  0  0  0  0  0  0  0  0999 V2000
  -49.8718    0.3816   13.3460 O   0  0  0  0  0  0
  -50.9784   -0.1808   16.9651 O   0  0  0  0  0  0
  -51.0226   -2.1306   13.0464 O   0  0  0  0  0  0
  -51.4145    2.0800   18.5220 O   0  0  0  0  0  0
  -43.5799   -3.1636   17.6246 O   0  0  0  0  0  0
  -42.8402    0.1685   18.9758 O   0  0  0  0  0  0
  -47.3575   -1.7341   14.9142 C   0  0  0  0  0  0
  -47.5836    0.6153   18.0134 C   0  0  0  0  0  0
  -43.6648   -0.8502   16.9532 C   0  0  0  0  0  0
  -47.9999   -0.6009   14.4424 C   0  0  0  0  0  0
  -48.6414   -0.0349   17.3988 C   0  0  0  0  0  0
  -49.2375   -0.7303   13.8119 C   0  0  0  0  0  0
  -49.9360    0.4566   17.5674 C   0  0  0  0  0  0
  -47.9184   -2.9929   14.7728 C   0  0  0  0  0  0
  -47.7849    1.7436   18.7920 C   0  0  0  0  0  0
  -46.0506   -1.5978   15.5813 C   0  0  0  0  0  0
  -46.2158    0.0971   17.8348 C   0  0  0  0  0  0
  -49.8152   -1.9911   13.6617 C   0  0  0  0  0  0
  -50.1548    1.5914   18.3485 C   0  0  0  0  0  0
  -44.1870   -2.2708   17.0389 C   0  0  0  0  0  0
  -43.7905   -0.0337   18.2242 C   0  0  0  0  0  0
  -49.1557   -3.1224   14.1424 C   0  0  0  0  0  0
  -49.0792    2.2348   18.9606 C   0  0  0  0  0  0
  -45.5163   -2.5118   16.4034 C   0  0  0  0  0  0
  -45.1374    0.5544   18.4865 C   0  0  0  0  0  0
  -49.2198    1.1136   12.3101 C   0  0  0  0  0  0
  -51.0761   -1.5903   17.1597 C   0  0  0  0  0  0
  -51.7106   -1.7858   13.6417 H   0  0  0  0  0  0
  -52.0409    1.5233   18.0284 H   0  0  0  0  0  0
  1 12  1  0  0  0
  1 26  1  0  0  0
  2 13  1  0  0  0
  2 27  1  0  0  0
  3 18  1  0  0  0
  3 28  1  0  0  0
  4 19  1  0  0  0
  4 29  1  0  0  0
  5 20  2  0  0  0
  6 21  2  0  0  0
  7 10  2  0  0  0
  7 14  1  0  0  0
  7 16  1  0  0  0
  8 11  2  0  0  0
  8 15  1  0  0  0
  8 17  1  0  0  0
  9 20  1  0  0  0
  9 21  1  0  0  0
 10 12  1  0  0  0
 11 13  1  0  0  0
 12 18  2  0  0  0
 13 19  2  0  0  0
 14 22  2  0  0  0
 15 23  2  0  0  0
 16 24  2  0  0  0
 17 25  2  0  0  0
 18 22  1  0  0  0
 19 23  1  0  0  0
 20 24  1  0  0  0
 21 25  1  0  0  0
M  END
>  <CHROM.0>
-177.34337516,-173.09643250,52.20573582

>  <CHROM.1>
63.30663769,50.65602234,-71.98204530,-0.40245802,159.75613620,-172.74910257
-74.94362493,101.79248211,-168.53417929,-165.40137692,-47.81270836,-0.52988002
16.39740922,-2.81142196,-0.32110245,0.95817225

>  <Name>
969516

>  <PUBCHEM_ATOM_DEF_STEREO_COUNT>
0

>  <PUBCHEM_ATOM_UDEF_STEREO_COUNT>
0

>  <PUBCHEM_BOND_DEF_STEREO_COUNT>
2

>  <PUBCHEM_BOND_UDEF_STEREO_COUNT>
0

>  <PUBCHEM_CACTVS_TAUTO_COUNT>
49

>  <PUBCHEM_COMPONENT_COUNT>
1

>  <PUBCHEM_COMPOUND_CID>
969516

>  <PUBCHEM_CONFORMER_DIVERSEORDER>
82
80
54
21
40
74
55
61
46
34
47
4
43
38
81
26
17
78
6
35
23
73
57
63
2
39
32
14
1
30
56
36
72
41
70
60
3
69
27
58
33
25
49
71
42
65
28
76
5
48
52
77
37
79
59
9
29
8
13
50
31
20
62
7
44
16
66
75
51
68
67
22
64
45
24
12
19
11
18
15
10
53

>  <PUBCHEM_CONFORMER_ID>
000ECB2C00000052

>  <PUBCHEM_CONFORMER_RMSD>
1

>  <PUBCHEM_COORDINATE_TYPE>
2
5
10

>  <PUBCHEM_EFFECTIVE_ROTOR_COUNT>
8

>  <PUBCHEM_FEATURE_SELFOVERLAP>
45.672

>  <PUBCHEM_HEAVY_ATOM_COUNT>
27

>  <PUBCHEM_ISOTOPIC_ATOM_COUNT>
0

>  <PUBCHEM_MMFF94_ENERGY>
92.651

>  <PUBCHEM_MMFF94_PARTIAL_CHARGES>
39
1 -0.36
10 -0.15
11 -0.15
12 0.08
13 0.08
14 -0.15
15 -0.15
16 -0.18
17 -0.18
18 0.08
19 0.08
2 -0.36
20 0.49
21 0.49
22 -0.15
23 -0.15
24 -0.14
25 -0.14
26 0.28
27 0.28
3 -0.53
30 0.15
31 0.15
32 0.15
33 0.15
34 0.15
35 0.15
36 0.15
37 0.15
38 0.15
39 0.15
4 -0.53
40 0.45
41 0.45
5 -0.57
6 -0.57
7 0.03
8 0.03
9 0.12

>  <PUBCHEM_PHARMACOPHORE_FEATURES>
9
1 1 acceptor
1 2 acceptor
1 3 donor
1 4 donor
1 5 acceptor
1 6 acceptor
1 9 anion
6 7 10 12 14 18 22 rings
6 8 11 13 15 19 23 rings

>  <PUBCHEM_SHAPE_FINGERPRINT>
10 15 12751240315890217573
10319688 140 18337398252872831732
10669705 162 18337104575972446653
10917259 69 18192703459598944165
11211813 128 18272932692783743174
11410812 94 16370996361790263860
117089 54 18267879293612551318
11828532 37 17896331370365246675
12342043 65 18188209905213906085
12758862 65 18410567410511369408
12760667 363 18411139121760541745
13533116 47 18272092759487660785
1361 87 17822307806824084883
13673619 4 18187085057046420093
13782708 43 18187646942401274497
13911852 28 18342177760919306525
13955234 65 18127412482311963032
14251764 75 8934705700369515222
14931854 50 17458064828953579058
15188451 53 18040713637372491534
15510800 12 18334017193917594602
15519825 34 15769481128208245039
16096371 109 17842545529393793568
1768 124 17918273151673982878
190975 80 18273208699771038632
1979834 28 17274556351083136116
20105231 36 17632018551801690966
20165401 70 18269560610432539175
2026 5 18187081767692646843
21033650 10 16081361917848681093
21307412 95 17967532394149105875
21315764 119 16081364133534249763
21585481 104 14779540124190440126
21585482 111 9150633321735644751
21585482 310 18261684739337370307
21682296 61 18408609175854266457
22149856 69 18130234757594157200
229767 8 17769106648757633326
2303208 19 17749956686811695209
23559900 14 17895477059232625973
270888 7 9367336016755256852
3014063 24 18201716258419056095
32027 91 18336829796691442577
3383291 50 18335703857830032987
34797466 226 16806453698591057205
4046055 4 18260545598226657845
439807 62 17967816037266467641
4461854 278 17917996092435725982
46194498 28 17749669692248635052
474113 269 18060412513729437109
5104073 3 17843397381307680056
513202 73 18411700985483149125
5718773 13 18410291402073184614
59682541 35 18342166779510532640
6126387 218 18059849546448719409
96874 4 17846488266996003727
9689198 14 12751239220357137022
9962374 69 18270389628765581455

>  <PUBCHEM_SHAPE_MULTIPOLES>
520.43
25.03
3.33
1.58
5.48
1.87
-0.01
-22.64
-2.84
-3.92
0.39
2.68
-0.7
1.55

>  <PUBCHEM_SHAPE_SELFOVERLAP>
1103.249

>  <PUBCHEM_SHAPE_VOLUME>
290

>  <RI>
-2.62323e+08

>  <Rbt.Current_Directory>
/root/miniconda3/envs/rdock/share/rxdock-2013.1.1_148c5bd1-0/data/ligands/prepped_ligands/Curcumin

>  <Rbt.Executable>
rbdock/0.1.0

>  <Rbt.Library>
librxdock.so/0.1.0

>  <Rbt.Parameter_File>
/root/miniconda3/envs/rdock/share/rxdock-2013.1.1_148c5bd1-0/data/scripts/dock.prm

>  <Rbt.Receptor>
def.prm

>  <SCORE>
-14.6556

>  <SCORE.INTER>
-10.0986

>  <SCORE.INTER.CONST>
1

>  <SCORE.INTER.POLAR>
-0.69282

>  <SCORE.INTER.REPUL>
0

>  <SCORE.INTER.ROT>
8

>  <SCORE.INTER.VDW>
-21.143

>  <SCORE.INTER.norm>
-0.374023

>  <SCORE.INTRA>
-3.66149

>  <SCORE.INTRA.DIHEDRAL>
7.01066

>  <SCORE.INTRA.DIHEDRAL.0>
9.63727

>  <SCORE.INTRA.POLAR>
0.0315841

>  <SCORE.INTRA.POLAR.0>
-0.167074

>  <SCORE.INTRA.REPUL>
0

>  <SCORE.INTRA.REPUL.0>
0

>  <SCORE.INTRA.VDW>
-7.2742

>  <SCORE.INTRA.VDW.0>
9.25931

>  <SCORE.INTRA.norm>
-0.135611

>  <SCORE.RESTR>
0

>  <SCORE.RESTR.CAVITY>
0

>  <SCORE.RESTR.norm>
0

>  <SCORE.SYSTEM>
-0.89549

>  <SCORE.SYSTEM.CONST>
0

>  <SCORE.SYSTEM.DIHEDRAL>
0.402268

>  <SCORE.SYSTEM.VDW>
-1.09662

>  <SCORE.SYSTEM.norm>
-0.0331663

>  <SCORE.heavy>
27

>  <SCORE.norm>
-0.5428

$$$$
969516
  RxDock  02242101133D
librxdock.so/0.1.0
 29 30  0  0  0  0  0  0  0  0999 V2000
  -54.4548   -5.0196   14.7975 O   0  0  0  0  0  0
  -46.7246    0.3838   16.8035 O   0  0  0  0  0  0
  -55.9909   -7.0469   13.6768 O   0  0  0  0  0  0
  -45.3094   -1.2934   15.0978 O   0  0  0  0  0  0
  -50.6142   -8.8806   19.8972 O   0  0  0  0  0  0
  -51.2937   -4.4707   20.1118 O   0  0  0  0  0  0
  -53.3535   -7.8927   16.7440 C   0  0  0  0  0  0
  -48.1506   -2.8549   17.6608 C   0  0  0  0  0  0
  -50.1447   -6.5700   20.3978 C   0  0  0  0  0  0
  -53.4592   -6.5895   16.2859 C   0  0  0  0  0  0
  -47.9160   -1.4895   17.6653 C   0  0  0  0  0  0
  -54.3487   -6.2997   15.2511 C   0  0  0  0  0  0
  -46.9583   -0.9583   16.8013 C   0  0  0  0  0  0
  -54.1126   -8.9139   16.1961 C   0  0  0  0  0  0
  -47.4538   -3.7037   16.8160 C   0  0  0  0  0  0
  -52.4147   -8.1992   17.8378 C   0  0  0  0  0  0
  -49.1630   -3.4163   18.5725 C   0  0  0  0  0  0
  -55.1199   -7.3171   14.6888 C   0  0  0  0  0  0
  -46.2483   -1.8000   15.9449 C   0  0  0  0  0  0
  -50.8046   -7.6972   19.6284 C   0  0  0  0  0  0
  -50.3390   -5.1842   19.8147 C   0  0  0  0  0  0
  -55.0019   -8.6242   15.1615 C   0  0  0  0  0  0
  -46.4962   -3.1726   15.9523 C   0  0  0  0  0  0
  -51.7433   -7.2796   18.5451 C   0  0  0  0  0  0
  -49.2678   -4.7154   18.8864 C   0  0  0  0  0  0
  -53.2869   -4.2049   14.8769 C   0  0  0  0  0  0
  -46.2844    0.9630   18.0303 C   0  0  0  0  0  0
  -56.6973   -7.7158   13.6948 H   0  0  0  0  0  0
  -45.3643   -0.3224   15.1082 H   0  0  0  0  0  0
  1 12  1  0  0  0
  1 26  1  0  0  0
  2 13  1  0  0  0
  2 27  1  0  0  0
  3 18  1  0  0  0
  3 28  1  0  0  0
  4 19  1  0  0  0
  4 29  1  0  0  0
  5 20  2  0  0  0
  6 21  2  0  0  0
  7 10  2  0  0  0
  7 14  1  0  0  0
  7 16  1  0  0  0
  8 11  2  0  0  0
  8 15  1  0  0  0
  8 17  1  0  0  0
  9 20  1  0  0  0
  9 21  1  0  0  0
 10 12  1  0  0  0
 11 13  1  0  0  0
 12 18  2  0  0  0
 13 19  2  0  0  0
 14 22  2  0  0  0
 15 23  2  0  0  0
 16 24  2  0  0  0
 17 25  2  0  0  0
 18 22  1  0  0  0
 19 23  1  0  0  0
 20 24  1  0  0  0
 21 25  1  0  0  0
M  END
>  <CHROM.0>
-66.59523318,-64.18907058,-63.10020571

>  <CHROM.1>
30.48649718,59.83387878,-154.12095796,-9.47217168,7.86510993,-163.87757783
171.92246338,88.93797154,0.43323121,14.17053805,-50.60615265,-4.83493627
17.08560809,2.80213085,0.63718487,2.25311839

>  <Name>
969516

>  <PUBCHEM_ATOM_DEF_STEREO_COUNT>
0

>  <PUBCHEM_ATOM_UDEF_STEREO_COUNT>
0

>  <PUBCHEM_BOND_DEF_STEREO_COUNT>
2

>  <PUBCHEM_BOND_UDEF_STEREO_COUNT>
0

>  <PUBCHEM_CACTVS_TAUTO_COUNT>
49

>  <PUBCHEM_COMPONENT_COUNT>
1

>  <PUBCHEM_COMPOUND_CID>
969516

>  <PUBCHEM_CONFORMER_DIVERSEORDER>
82
80
54
21
40
74
55
61
46
34
47
4
43
38
81
26
17
78
6
35
23
73
57
63
2
39
32
14
1
30
56
36
72
41
70
60
3
69
27
58
33
25
49
71
42
65
28
76
5
48
52
77
37
79
59
9
29
8
13
50
31
20
62
7
44
16
66
75
51
68
67
22
64
45
24
12
19
11
18
15
10
53

>  <PUBCHEM_CONFORMER_ID>
000ECB2C00000052

>  <PUBCHEM_CONFORMER_RMSD>
1

>  <PUBCHEM_COORDINATE_TYPE>
2
5
10

>  <PUBCHEM_EFFECTIVE_ROTOR_COUNT>
8

>  <PUBCHEM_FEATURE_SELFOVERLAP>
45.672

>  <PUBCHEM_HEAVY_ATOM_COUNT>
27

>  <PUBCHEM_ISOTOPIC_ATOM_COUNT>
0

>  <PUBCHEM_MMFF94_ENERGY>
92.651

>  <PUBCHEM_MMFF94_PARTIAL_CHARGES>
39
1 -0.36
10 -0.15
11 -0.15
12 0.08
13 0.08
14 -0.15
15 -0.15
16 -0.18
17 -0.18
18 0.08
19 0.08
2 -0.36
20 0.49
21 0.49
22 -0.15
23 -0.15
24 -0.14
25 -0.14
26 0.28
27 0.28
3 -0.53
30 0.15
31 0.15
32 0.15
33 0.15
34 0.15
35 0.15
36 0.15
37 0.15
38 0.15
39 0.15
4 -0.53
40 0.45
41 0.45
5 -0.57
6 -0.57
7 0.03
8 0.03
9 0.12

>  <PUBCHEM_PHARMACOPHORE_FEATURES>
9
1 1 acceptor
1 2 acceptor
1 3 donor
1 4 donor
1 5 acceptor
1 6 acceptor
1 9 anion
6 7 10 12 14 18 22 rings
6 8 11 13 15 19 23 rings

>  <PUBCHEM_SHAPE_FINGERPRINT>
10 15 12751240315890217573
10319688 140 18337398252872831732
10669705 162 18337104575972446653
10917259 69 18192703459598944165
11211813 128 18272932692783743174
11410812 94 16370996361790263860
117089 54 18267879293612551318
11828532 37 17896331370365246675
12342043 65 18188209905213906085
12758862 65 18410567410511369408
12760667 363 18411139121760541745
13533116 47 18272092759487660785
1361 87 17822307806824084883
13673619 4 18187085057046420093
13782708 43 18187646942401274497
13911852 28 18342177760919306525
13955234 65 18127412482311963032
14251764 75 8934705700369515222
14931854 50 17458064828953579058
15188451 53 18040713637372491534
15510800 12 18334017193917594602
15519825 34 15769481128208245039
16096371 109 17842545529393793568
1768 124 17918273151673982878
190975 80 18273208699771038632
1979834 28 17274556351083136116
20105231 36 17632018551801690966
20165401 70 18269560610432539175
2026 5 18187081767692646843
21033650 10 16081361917848681093
21307412 95 17967532394149105875
21315764 119 16081364133534249763
21585481 104 14779540124190440126
21585482 111 9150633321735644751
21585482 310 18261684739337370307
21682296 61 18408609175854266457
22149856 69 18130234757594157200
229767 8 17769106648757633326
2303208 19 17749956686811695209
23559900 14 17895477059232625973
270888 7 9367336016755256852
3014063 24 18201716258419056095
32027 91 18336829796691442577
3383291 50 18335703857830032987
34797466 226 16806453698591057205
4046055 4 18260545598226657845
439807 62 17967816037266467641
4461854 278 17917996092435725982
46194498 28 17749669692248635052
474113 269 18060412513729437109
5104073 3 17843397381307680056
513202 73 18411700985483149125
5718773 13 18410291402073184614
59682541 35 18342166779510532640
6126387 218 18059849546448719409
96874 4 17846488266996003727
9689198 14 12751239220357137022
9962374 69 18270389628765581455

>  <PUBCHEM_SHAPE_MULTIPOLES>
520.43
25.03
3.33
1.58
5.48
1.87
-0.01
-22.64
-2.84
-3.92
0.39
2.68
-0.7
1.55

>  <PUBCHEM_SHAPE_SELFOVERLAP>
1103.249

>  <PUBCHEM_SHAPE_VOLUME>
290

>  <RI>
-2.62323e+08

>  <Rbt.Current_Directory>
/root/miniconda3/envs/rdock/share/rxdock-2013.1.1_148c5bd1-0/data/ligands/prepped_ligands/Curcumin

>  <Rbt.Executable>
rbdock/0.1.0

>  <Rbt.Library>
librxdock.so/0.1.0

>  <Rbt.Parameter_File>
/root/miniconda3/envs/rdock/share/rxdock-2013.1.1_148c5bd1-0/data/scripts/dock.prm

>  <Rbt.Receptor>
def.prm

>  <SCORE>
-13.0267

>  <SCORE.INTER>
-6.97727

>  <SCORE.INTER.CONST>
1

>  <SCORE.INTER.POLAR>
0

>  <SCORE.INTER.REPUL>
0.0349027

>  <SCORE.INTER.ROT>
8

>  <SCORE.INTER.VDW>
-20.5518

>  <SCORE.INTER.norm>
-0.258417

>  <SCORE.INTRA>
-5.05882

>  <SCORE.INTRA.DIHEDRAL>
-0.389148

>  <SCORE.INTRA.DIHEDRAL.0>
9.63727

>  <SCORE.INTRA.POLAR>
0.063642

>  <SCORE.INTRA.POLAR.0>
-0.167074

>  <SCORE.INTRA.REPUL>
0

>  <SCORE.INTRA.REPUL.0>
0

>  <SCORE.INTRA.VDW>
-5.08063

>  <SCORE.INTRA.VDW.0>
9.25931

>  <SCORE.INTRA.norm>
-0.187364

>  <SCORE.RESTR>
0

>  <SCORE.RESTR.CAVITY>
0

>  <SCORE.RESTR.norm>
0

>  <SCORE.SYSTEM>
-0.990596

>  <SCORE.SYSTEM.CONST>
0

>  <SCORE.SYSTEM.DIHEDRAL>
0.223666

>  <SCORE.SYSTEM.VDW>
-1.10243

>  <SCORE.SYSTEM.norm>
-0.0366887

>  <SCORE.heavy>
27

>  <SCORE.norm>
-0.48247

$$$$
969516
  RxDock  02242101133D
librxdock.so/0.1.0
 29 30  0  0  0  0  0  0  0  0999 V2000
  -50.6715   -8.8886   18.7381 O   0  0  0  0  0  0
  -44.6615    0.7935   19.6521 O   0  0  0  0  0  0
  -51.9107   -9.0974   21.2172 O   0  0  0  0  0  0
  -42.1271   -0.3395   19.5181 O   0  0  0  0  0  0
  -52.1286   -1.8091   16.9840 O   0  0  0  0  0  0
  -48.5925   -4.1457   15.6854 O   0  0  0  0  0  0
  -51.9119   -5.4955   19.1911 C   0  0  0  0  0  0
  -45.3105   -2.1370   17.5910 C   0  0  0  0  0  0
  -50.0384   -2.2252   15.8582 C   0  0  0  0  0  0
  -51.2874   -6.5914   18.6179 C   0  0  0  0  0  0
  -45.5255   -0.9670   18.3010 C   0  0  0  0  0  0
  -51.2852   -7.8091   19.2982 C   0  0  0  0  0  0
  -44.4535   -0.3567   18.9524 C   0  0  0  0  0  0
  -52.5342   -5.5839   20.4257 C   0  0  0  0  0  0
  -44.0530   -2.7136   17.5144 C   0  0  0  0  0  0
  -51.9153   -4.2091   18.4723 C   0  0  0  0  0  0
  -46.4424   -2.7815   16.9018 C   0  0  0  0  0  0
  -51.9074   -7.9141   20.5424 C   0  0  0  0  0  0
  -43.1814   -0.9251   18.8849 C   0  0  0  0  0  0
  -51.1791   -2.5655   16.7969 C   0  0  0  0  0  0
  -48.7542   -2.9970   16.0893 C   0  0  0  0  0  0
  -52.5320   -6.8014   21.1060 C   0  0  0  0  0  0
  -42.9813   -2.1035   18.1658 C   0  0  0  0  0  0
  -51.1022   -3.9054   17.4508 C   0  0  0  0  0  0
  -47.6715   -2.2559   16.8015 C   0  0  0  0  0  0
  -49.3035   -8.7353   18.3651 C   0  0  0  0  0  0
  -45.4070    1.8215   19.0026 C   0  0  0  0  0  0
  -52.4236   -8.9810   22.0358 H   0  0  0  0  0  0
  -42.4410    0.4492   19.9928 H   0  0  0  0  0  0
  1 12  1  0  0  0
  1 26  1  0  0  0
  2 13  1  0  0  0
  2 27  1  0  0  0
  3 18  1  0  0  0
  3 28  1  0  0  0
  4 19  1  0  0  0
  4 29  1  0  0  0
  5 20  2  0  0  0
  6 21  2  0  0  0
  7 10  2  0  0  0
  7 14  1  0  0  0
  7 16  1  0  0  0
  8 11  2  0  0  0
  8 15  1  0  0  0
  8 17  1  0  0  0
  9 20  1  0  0  0
  9 21  1  0  0  0
 10 12  1  0  0  0
 11 13  1  0  0  0
 12 18  2  0  0  0
 13 19  2  0  0  0
 14 22  2  0  0  0
 15 23  2  0  0  0
 16 24  2  0  0  0
 17 25  2  0  0  0
 18 22  1  0  0  0
 19 23  1  0  0  0
 20 24  1  0  0  0
 21 25  1  0  0  0
M  END
>  <CHROM.0>
-61.71581917,178.23774841,63.99201183

>  <CHROM.1>
55.12232594,-47.63876084,-177.42511715,1.79402397,-16.57853729,6.38148497
159.74483052,79.58504260,-14.16218927,6.70349153,-48.45623464,-3.73480874
18.39746968,-2.45476649,-0.26658100,-0.45118304

>  <Name>
969516

>  <PUBCHEM_ATOM_DEF_STEREO_COUNT>
0

>  <PUBCHEM_ATOM_UDEF_STEREO_COUNT>
0

>  <PUBCHEM_BOND_DEF_STEREO_COUNT>
2

>  <PUBCHEM_BOND_UDEF_STEREO_COUNT>
0

>  <PUBCHEM_CACTVS_TAUTO_COUNT>
49

>  <PUBCHEM_COMPONENT_COUNT>
1

>  <PUBCHEM_COMPOUND_CID>
969516

>  <PUBCHEM_CONFORMER_DIVERSEORDER>
82
80
54
21
40
74
55
61
46
34
47
4
43
38
81
26
17
78
6
35
23
73
57
63
2
39
32
14
1
30
56
36
72
41
70
60
3
69
27
58
33
25
49
71
42
65
28
76
5
48
52
77
37
79
59
9
29
8
13
50
31
20
62
7
44
16
66
75
51
68
67
22
64
45
24
12
19
11
18
15
10
53

>  <PUBCHEM_CONFORMER_ID>
000ECB2C00000052

>  <PUBCHEM_CONFORMER_RMSD>
1

>  <PUBCHEM_COORDINATE_TYPE>
2
5
10

>  <PUBCHEM_EFFECTIVE_ROTOR_COUNT>
8

>  <PUBCHEM_FEATURE_SELFOVERLAP>
45.672

>  <PUBCHEM_HEAVY_ATOM_COUNT>
27

>  <PUBCHEM_ISOTOPIC_ATOM_COUNT>
0

>  <PUBCHEM_MMFF94_ENERGY>
92.651

>  <PUBCHEM_MMFF94_PARTIAL_CHARGES>
39
1 -0.36
10 -0.15
11 -0.15
12 0.08
13 0.08
14 -0.15
15 -0.15
16 -0.18
17 -0.18
18 0.08
19 0.08
2 -0.36
20 0.49
21 0.49
22 -0.15
23 -0.15
24 -0.14
25 -0.14
26 0.28
27 0.28
3 -0.53
30 0.15
31 0.15
32 0.15
33 0.15
34 0.15
35 0.15
36 0.15
37 0.15
38 0.15
39 0.15
4 -0.53
40 0.45
41 0.45
5 -0.57
6 -0.57
7 0.03
8 0.03
9 0.12

>  <PUBCHEM_PHARMACOPHORE_FEATURES>
9
1 1 acceptor
1 2 acceptor
1 3 donor
1 4 donor
1 5 acceptor
1 6 acceptor
1 9 anion
6 7 10 12 14 18 22 rings
6 8 11 13 15 19 23 rings

>  <PUBCHEM_SHAPE_FINGERPRINT>
10 15 12751240315890217573
10319688 140 18337398252872831732
10669705 162 18337104575972446653
10917259 69 18192703459598944165
11211813 128 18272932692783743174
11410812 94 16370996361790263860
117089 54 18267879293612551318
11828532 37 17896331370365246675
12342043 65 18188209905213906085
12758862 65 18410567410511369408
12760667 363 18411139121760541745
13533116 47 18272092759487660785
1361 87 17822307806824084883
13673619 4 18187085057046420093
13782708 43 18187646942401274497
13911852 28 18342177760919306525
13955234 65 18127412482311963032
14251764 75 8934705700369515222
14931854 50 17458064828953579058
15188451 53 18040713637372491534
15510800 12 18334017193917594602
15519825 34 15769481128208245039
16096371 109 17842545529393793568
1768 124 17918273151673982878
190975 80 18273208699771038632
1979834 28 17274556351083136116
20105231 36 17632018551801690966
20165401 70 18269560610432539175
2026 5 18187081767692646843
21033650 10 16081361917848681093
21307412 95 17967532394149105875
21315764 119 16081364133534249763
21585481 104 14779540124190440126
21585482 111 9150633321735644751
21585482 310 18261684739337370307
21682296 61 18408609175854266457
22149856 69 18130234757594157200
229767 8 17769106648757633326
2303208 19 17749956686811695209
23559900 14 17895477059232625973
270888 7 9367336016755256852
3014063 24 18201716258419056095
32027 91 18336829796691442577
3383291 50 18335703857830032987
34797466 226 16806453698591057205
4046055 4 18260545598226657845
439807 62 17967816037266467641
4461854 278 17917996092435725982
46194498 28 17749669692248635052
474113 269 18060412513729437109
5104073 3 17843397381307680056
513202 73 18411700985483149125
5718773 13 18410291402073184614
59682541 35 18342166779510532640
6126387 218 18059849546448719409
96874 4 17846488266996003727
9689198 14 12751239220357137022
9962374 69 18270389628765581455

>  <PUBCHEM_SHAPE_MULTIPOLES>
520.43
25.03
3.33
1.58
5.48
1.87
-0.01
-22.64
-2.84
-3.92
0.39
2.68
-0.7
1.55

>  <PUBCHEM_SHAPE_SELFOVERLAP>
1103.249

>  <PUBCHEM_SHAPE_VOLUME>
290

>  <RI>
-2.62323e+08

>  <Rbt.Current_Directory>
/root/miniconda3/envs/rdock/share/rxdock-2013.1.1_148c5bd1-0/data/ligands/prepped_ligands/Curcumin

>  <Rbt.Executable>
rbdock/0.1.0

>  <Rbt.Library>
librxdock.so/0.1.0

>  <Rbt.Parameter_File>
/root/miniconda3/envs/rdock/share/rxdock-2013.1.1_148c5bd1-0/data/scripts/dock.prm

>  <Rbt.Receptor>
def.prm

>  <SCORE>
-11.3787

>  <SCORE.INTER>
-4.13508

>  <SCORE.INTER.CONST>
1

>  <SCORE.INTER.POLAR>
0

>  <SCORE.INTER.REPUL>
0

>  <SCORE.INTER.ROT>
8

>  <SCORE.INTER.VDW>
-17.5351

>  <SCORE.INTER.norm>
-0.153151

>  <SCORE.INTRA>
-6.21088

>  <SCORE.INTRA.DIHEDRAL>
-0.429256

>  <SCORE.INTRA.DIHEDRAL.0>
9.63727

>  <SCORE.INTRA.POLAR>
0.022234

>  <SCORE.INTRA.POLAR.0>
-0.167074

>  <SCORE.INTRA.REPUL>
0

>  <SCORE.INTRA.REPUL.0>
0

>  <SCORE.INTRA.VDW>
-6.07185

>  <SCORE.INTRA.VDW.0>
9.25931

>  <SCORE.INTRA.norm>
-0.230033

>  <SCORE.RESTR>
0

>  <SCORE.RESTR.CAVITY>
0

>  <SCORE.RESTR.norm>
0

>  <SCORE.SYSTEM>
-1.03278

>  <SCORE.SYSTEM.CONST>
0

>  <SCORE.SYSTEM.DIHEDRAL>
0.0599841

>  <SCORE.SYSTEM.POLAR>
-0.00933818

>  <SCORE.SYSTEM.VDW>
-1.03102

>  <SCORE.SYSTEM.norm>
-0.038251

>  <SCORE.heavy>
27

>  <SCORE.norm>
-0.421435

$$$$
969516
  RxDock  02242101133D
librxdock.so/0.1.0
 29 30  0  0  0  0  0  0  0  0999 V2000
  -44.1398   -2.7382   17.8964 O   0  0  0  0  0  0
  -54.0873   -8.7791   15.7040 O   0  0  0  0  0  0
  -42.9015   -2.1011   15.4910 O   0  0  0  0  0  0
  -55.7192   -7.3383   13.9760 O   0  0  0  0  0  0
  -50.7531    0.5646   17.0000 O   0  0  0  0  0  0
  -50.3803   -3.3785   19.1515 O   0  0  0  0  0  0
  -46.7816   -0.8782   16.2177 C   0  0  0  0  0  0
  -53.1394   -5.3617   16.5289 C   0  0  0  0  0  0
  -51.2126   -1.1874   18.5903 C   0  0  0  0  0  0
  -46.1116   -1.6068   17.1870 C   0  0  0  0  0  0
  -53.1777   -6.7465   16.5479 C   0  0  0  0  0  0
  -44.8015   -2.0210   16.9459 C   0  0  0  0  0  0
  -54.0466   -7.4176   15.6874 C   0  0  0  0  0  0
  -46.1778   -0.5524   15.0141 C   0  0  0  0  0  0
  -53.9463   -4.6296   15.6729 C   0  0  0  0  0  0
  -48.1652   -0.4395   16.4723 C   0  0  0  0  0  0
  -52.2209   -4.6525   17.4370 C   0  0  0  0  0  0
  -44.1799   -1.7010   15.7388 C   0  0  0  0  0  0
  -54.8654   -6.6945   14.8199 C   0  0  0  0  0  0
  -50.3506   -0.4280   17.6013 C   0  0  0  0  0  0
  -51.1515   -2.6981   18.4800 C   0  0  0  0  0  0
  -44.8680   -0.9666   14.7730 C   0  0  0  0  0  0
  -54.8150   -5.3006   14.8127 C   0  0  0  0  0  0
  -48.9563   -0.9351   17.4342 C   0  0  0  0  0  0
  -52.1248   -3.3189   17.5333 C   0  0  0  0  0  0
  -43.1784   -2.0385   18.6839 C   0  0  0  0  0  0
  -55.2756   -9.3860   16.2080 C   0  0  0  0  0  0
  -42.8356   -3.0521   15.6859 H   0  0  0  0  0  0
  -55.9426   -6.7453   13.2382 H   0  0  0  0  0  0
  1 12  1  0  0  0
  1 26  1  0  0  0
  2 13  1  0  0  0
  2 27  1  0  0  0
  3 18  1  0  0  0
  3 28  1  0  0  0
  4 19  1  0  0  0
  4 29  1  0  0  0
  5 20  2  0  0  0
  6 21  2  0  0  0
  7 10  2  0  0  0
  7 14  1  0  0  0
  7 16  1  0  0  0
  8 11  2  0  0  0
  8 15  1  0  0  0
  8 17  1  0  0  0
  9 20  1  0  0  0
  9 21  1  0  0  0
 10 12  1  0  0  0
 11 13  1  0  0  0
 12 18  2  0  0  0
 13 19  2  0  0  0
 14 22  2  0  0  0
 15 23  2  0  0  0
 16 24  2  0  0  0
 17 25  2  0  0  0
 18 22  1  0  0  0
 19 23  1  0  0  0
 20 24  1  0  0  0
 21 25  1  0  0  0
M  END
>  <CHROM.0>
59.19971926,-61.78843721,-179.53014004

>  <CHROM.1>
-102.54104284,111.33251624,49.86901508,-158.40542122,-16.13085801,-178.03102886
136.47434160,93.51036423,-10.01195380,2.98710431,-49.88968506,-3.48763790
16.58103426,-0.53066903,-0.08629118,-2.81248297

>  <Name>
969516

>  <PUBCHEM_ATOM_DEF_STEREO_COUNT>
0

>  <PUBCHEM_ATOM_UDEF_STEREO_COUNT>
0

>  <PUBCHEM_BOND_DEF_STEREO_COUNT>
2

>  <PUBCHEM_BOND_UDEF_STEREO_COUNT>
0

>  <PUBCHEM_CACTVS_TAUTO_COUNT>
49

>  <PUBCHEM_COMPONENT_COUNT>
1

>  <PUBCHEM_COMPOUND_CID>
969516

>  <PUBCHEM_CONFORMER_DIVERSEORDER>
82
80
54
21
40
74
55
61
46
34
47
4
43
38
81
26
17
78
6
35
23
73
57
63
2
39
32
14
1
30
56
36
72
41
70
60
3
69
27
58
33
25
49
71
42
65
28
76
5
48
52
77
37
79
59
9
29
8
13
50
31
20
62
7
44
16
66
75
51
68
67
22
64
45
24
12
19
11
18
15
10
53

>  <PUBCHEM_CONFORMER_ID>
000ECB2C00000052

>  <PUBCHEM_CONFORMER_RMSD>
1

>  <PUBCHEM_COORDINATE_TYPE>
2
5
10

>  <PUBCHEM_EFFECTIVE_ROTOR_COUNT>
8

>  <PUBCHEM_FEATURE_SELFOVERLAP>
45.672

>  <PUBCHEM_HEAVY_ATOM_COUNT>
27

>  <PUBCHEM_ISOTOPIC_ATOM_COUNT>
0

>  <PUBCHEM_MMFF94_ENERGY>
92.651

>  <PUBCHEM_MMFF94_PARTIAL_CHARGES>
39
1 -0.36
10 -0.15
11 -0.15
12 0.08
13 0.08
14 -0.15
15 -0.15
16 -0.18
17 -0.18
18 0.08
19 0.08
2 -0.36
20 0.49
21 0.49
22 -0.15
23 -0.15
24 -0.14
25 -0.14
26 0.28
27 0.28
3 -0.53
30 0.15
31 0.15
32 0.15
33 0.15
34 0.15
35 0.15
36 0.15
37 0.15
38 0.15
39 0.15
4 -0.53
40 0.45
41 0.45
5 -0.57
6 -0.57
7 0.03
8 0.03
9 0.12

>  <PUBCHEM_PHARMACOPHORE_FEATURES>
9
1 1 acceptor
1 2 acceptor
1 3 donor
1 4 donor
1 5 acceptor
1 6 acceptor
1 9 anion
6 7 10 12 14 18 22 rings
6 8 11 13 15 19 23 rings

>  <PUBCHEM_SHAPE_FINGERPRINT>
10 15 12751240315890217573
10319688 140 18337398252872831732
10669705 162 18337104575972446653
10917259 69 18192703459598944165
11211813 128 18272932692783743174
11410812 94 16370996361790263860
117089 54 18267879293612551318
11828532 37 17896331370365246675
12342043 65 18188209905213906085
12758862 65 18410567410511369408
12760667 363 18411139121760541745
13533116 47 18272092759487660785
1361 87 17822307806824084883
13673619 4 18187085057046420093
13782708 43 18187646942401274497
13911852 28 18342177760919306525
13955234 65 18127412482311963032
14251764 75 8934705700369515222
14931854 50 17458064828953579058
15188451 53 18040713637372491534
15510800 12 18334017193917594602
15519825 34 15769481128208245039
16096371 109 17842545529393793568
1768 124 17918273151673982878
190975 80 18273208699771038632
1979834 28 17274556351083136116
20105231 36 17632018551801690966
20165401 70 18269560610432539175
2026 5 18187081767692646843
21033650 10 16081361917848681093
21307412 95 17967532394149105875
21315764 119 16081364133534249763
21585481 104 14779540124190440126
21585482 111 9150633321735644751
21585482 310 18261684739337370307
21682296 61 18408609175854266457
22149856 69 18130234757594157200
229767 8 17769106648757633326
2303208 19 17749956686811695209
23559900 14 17895477059232625973
270888 7 9367336016755256852
3014063 24 18201716258419056095
32027 91 18336829796691442577
3383291 50 18335703857830032987
34797466 226 16806453698591057205
4046055 4 18260545598226657845
439807 62 17967816037266467641
4461854 278 17917996092435725982
46194498 28 17749669692248635052
474113 269 18060412513729437109
5104073 3 17843397381307680056
513202 73 18411700985483149125
5718773 13 18410291402073184614
59682541 35 18342166779510532640
6126387 218 18059849546448719409
96874 4 17846488266996003727
9689198 14 12751239220357137022
9962374 69 18270389628765581455

>  <PUBCHEM_SHAPE_MULTIPOLES>
520.43
25.03
3.33
1.58
5.48
1.87
-0.01
-22.64
-2.84
-3.92
0.39
2.68
-0.7
1.55

>  <PUBCHEM_SHAPE_SELFOVERLAP>
1103.249

>  <PUBCHEM_SHAPE_VOLUME>
290

>  <RI>
-2.62323e+08

>  <Rbt.Current_Directory>
/root/miniconda3/envs/rdock/share/rxdock-2013.1.1_148c5bd1-0/data/ligands/prepped_ligands/Curcumin

>  <Rbt.Executable>
rbdock/0.1.0

>  <Rbt.Library>
librxdock.so/0.1.0

>  <Rbt.Parameter_File>
/root/miniconda3/envs/rdock/share/rxdock-2013.1.1_148c5bd1-0/data/scripts/dock.prm

>  <Rbt.Receptor>
def.prm

>  <SCORE>
-19.6824

>  <SCORE.INTER>
-14.1474

>  <SCORE.INTER.CONST>
1

>  <SCORE.INTER.POLAR>
-1.47167

>  <SCORE.INTER.REPUL>
0.0398753

>  <SCORE.INTER.ROT>
8

>  <SCORE.INTER.VDW>
-22.7432

>  <SCORE.INTER.norm>
-0.52398

>  <SCORE.INTRA>
-4.44178

>  <SCORE.INTRA.DIHEDRAL>
7.69713

>  <SCORE.INTRA.DIHEDRAL.0>
9.63727

>  <SCORE.INTRA.POLAR>
0.167074

>  <SCORE.INTRA.POLAR.0>
-0.167074

>  <SCORE.INTRA.REPUL>
0

>  <SCORE.INTRA.REPUL.0>
0

>  <SCORE.INTRA.VDW>
-8.85839

>  <SCORE.INTRA.VDW.0>
9.25931

>  <SCORE.INTRA.norm>
-0.16451

>  <SCORE.RESTR>
0

>  <SCORE.RESTR.CAVITY>
0

>  <SCORE.RESTR.norm>
0

>  <SCORE.SYSTEM>
-1.09318

>  <SCORE.SYSTEM.CONST>
0

>  <SCORE.SYSTEM.DIHEDRAL>
0.0183063

>  <SCORE.SYSTEM.POLAR>
-0.00315409

>  <SCORE.SYSTEM.VDW>
-1.09161

>  <SCORE.SYSTEM.norm>
-0.0404881

>  <SCORE.heavy>
27

>  <SCORE.norm>
-0.728978

$$$$
