Hydroxychloroquine.pdb
  RxDock  02242110593D
librxdock.so/0.1.0
 26 27  0  0  0  0  0  0  0  0999 V2000
  -43.1340   -1.5341   19.2281 Cl  0  0  0  0  0  0
  -54.1042   -7.4773   16.1705 O   0  0  0  0  0  0
  -51.6755   -6.3303   17.5285 N   0  3  0  0  0  0
  -48.1514   -3.0106   14.9169 N   0  0  0  0  0  0
  -47.6404    0.1420   17.7031 N   0  0  0  0  0  0
  -50.0305   -4.6222   14.4796 C   0  0  0  0  0  0
  -50.5022   -4.7046   15.9406 C   0  0  0  0  0  0
  -49.4079   -3.2475   14.1753 C   0  0  0  0  0  0
  -50.8554   -6.1701   16.2706 C   0  0  0  0  0  0
  -53.0346   -5.6779   17.4203 C   0  0  0  0  0  0
  -49.0202   -3.2280   12.6876 C   0  0  0  0  0  0
  -51.7639   -7.7718   17.9754 C   0  0  0  0  0  0
  -47.9819   -1.9746   15.8434 C   0  0  0  0  0  0
  -53.8066   -6.0738   16.1457 C   0  0  0  0  0  0
  -50.4255   -8.3276   18.5018 C   0  0  0  0  0  0
  -46.8283   -1.9087   16.6466 C   0  0  0  0  0  0
  -48.9187   -0.9858   16.0069 C   0  0  0  0  0  0
  -46.7023   -0.8378   17.5470 C   0  0  0  0  0  0
  -45.7891   -2.8621   16.5725 C   0  0  0  0  0  0
  -48.7225    0.0292   16.9231 C   0  0  0  0  0  0
  -45.5402   -0.7464   18.3415 C   0  0  0  0  0  0
  -44.6883   -2.7472   17.3479 C   0  0  0  0  0  0
  -44.5604   -1.6729   18.2440 C   0  0  0  0  0  0
  -53.2751   -8.0292   16.0297 H   0  0  0  0  0  0
  -51.2255   -5.8857   18.1841 H   0  0  0  0  0  0
  -47.5589   -3.6612   14.9187 H   0  0  0  0  0  0
  1 23  1  0  0  0
  2 14  1  0  0  0
  2 24  1  0  0  0
  3  9  1  0  0  0
  3 10  1  0  0  0
  3 12  1  0  0  0
  3 25  1  0  0  0
  4  8  1  0  0  0
  4 13  1  0  0  0
  4 26  1  0  0  0
  5 18  2  0  0  0
  5 20  1  0  0  0
  6  7  1  0  0  0
  6  8  1  0  0  0
  7  9  1  0  0  0
  8 11  1  0  0  0
 10 14  1  0  0  0
 12 15  1  0  0  0
 13 16  2  0  0  0
 13 17  1  0  0  0
 16 18  1  0  0  0
 16 19  1  0  0  0
 17 20  2  0  0  0
 18 21  1  0  0  0
 19 22  2  0  0  0
 21 23  2  0  0  0
 22 23  1  0  0  0
M  END
>  <CHROM.0>
62.25681895,-63.29492611,172.03610942

>  <CHROM.1>
-71.36720500,63.76114499,50.21960906,69.48611416,-118.32303493,171.39870187
-168.92282976,66.21101469,-164.23139542,64.39091732,-48.61365076,-3.56152664
16.78006122,-0.31885253,0.56629052,2.38429539

>  <HEADER>
                                                                          

>  <MASTER>
        0    0    0    0    0    0    0    0   50    0   50    0          

>  <Name>
Hydroxychloroquine.pdb

>  <RI>
-8.21701e+08

>  <Rbt.Current_Directory>
/root/miniconda3/envs/rdock/share/rxdock-2013.1.1_148c5bd1-0/data/ligands/prepped_ligands/Hydroxychloroquine

>  <Rbt.Executable>
rbdock/0.1.0

>  <Rbt.Library>
librxdock.so/0.1.0

>  <Rbt.Parameter_File>
/root/miniconda3/envs/rdock/share/rxdock-2013.1.1_148c5bd1-0/data/scripts/dock.prm

>  <Rbt.Receptor>
def.prm

>  <SCORE>
-20.6219

>  <SCORE.INTER>
-9.54401

>  <SCORE.INTER.CONST>
1

>  <SCORE.INTER.POLAR>
-1.34722

>  <SCORE.INTER.REPUL>
0

>  <SCORE.INTER.ROT>
9

>  <SCORE.INTER.VDW>
-19.3635

>  <SCORE.INTER.norm>
-0.414957

>  <SCORE.INTRA>
-10.0791

>  <SCORE.INTRA.DIHEDRAL>
-20.3748

>  <SCORE.INTRA.DIHEDRAL.0>
26.0734

>  <SCORE.INTRA.POLAR>
0

>  <SCORE.INTRA.POLAR.0>
0

>  <SCORE.INTRA.REPUL>
0

>  <SCORE.INTRA.REPUL.0>
0

>  <SCORE.INTRA.VDW>
0.108254

>  <SCORE.INTRA.VDW.0>
1.41869

>  <SCORE.INTRA.norm>
-0.438224

>  <SCORE.RESTR>
0

>  <SCORE.RESTR.CAVITY>
0

>  <SCORE.RESTR.norm>
0

>  <SCORE.SYSTEM>
-0.998698

>  <SCORE.SYSTEM.CONST>
0

>  <SCORE.SYSTEM.DIHEDRAL>
0.225067

>  <SCORE.SYSTEM.VDW>
-1.11123

>  <SCORE.SYSTEM.norm>
-0.0434217

>  <SCORE.heavy>
23

>  <SCORE.norm>
-0.896602

>  <TITLE>
    3652_D                                                                

$$$$
Hydroxychloroquine.pdb
  RxDock  02242110593D
librxdock.so/0.1.0
 26 27  0  0  0  0  0  0  0  0999 V2000
  -43.0908   -1.7654   19.3118 Cl  0  0  0  0  0  0
  -51.0988   -4.1992   19.5727 O   0  0  0  0  0  0
  -51.2383   -6.4308   17.8858 N   0  3  0  0  0  0
  -48.1539   -3.0162   14.9826 N   0  0  0  0  0  0
  -47.5707    0.0410   17.8594 N   0  0  0  0  0  0
  -50.0277   -4.6590   14.6514 C   0  0  0  0  0  0
  -50.3052   -4.7926   16.1576 C   0  0  0  0  0  0
  -49.4478   -3.2729   14.3158 C   0  0  0  0  0  0
  -50.8678   -6.2016   16.4399 C   0  0  0  0  0  0
  -52.5078   -5.7110   18.2792 C   0  0  0  0  0  0
  -49.1494   -3.2427   12.8078 C   0  0  0  0  0  0
  -51.2767   -7.8996   18.2417 C   0  0  0  0  0  0
  -47.9607   -2.0118   15.9389 C   0  0  0  0  0  0
  -52.2720   -4.2615   18.7489 C   0  0  0  0  0  0
  -51.3725   -8.1544   19.7593 C   0  0  0  0  0  0
  -46.8026   -1.9921   16.7381 C   0  0  0  0  0  0
  -48.8776   -1.0108   16.1365 C   0  0  0  0  0  0
  -46.6523   -0.9513   17.6695 C   0  0  0  0  0  0
  -45.7821   -2.9624   16.6305 C   0  0  0  0  0  0
  -48.6581   -0.0277   17.0817 C   0  0  0  0  0  0
  -45.4853   -0.9059   18.4608 C   0  0  0  0  0  0
  -44.6760   -2.8917   17.4036 C   0  0  0  0  0  0
  -44.5238   -1.8475   18.3308 C   0  0  0  0  0  0
  -50.9471   -3.2685   19.9229 H   0  0  0  0  0  0
  -50.5677   -6.0643   18.3816 H   0  0  0  0  0  0
  -47.5392   -3.6425   14.9180 H   0  0  0  0  0  0
  1 23  1  0  0  0
  2 14  1  0  0  0
  2 24  1  0  0  0
  3  9  1  0  0  0
  3 10  1  0  0  0
  3 12  1  0  0  0
  3 25  1  0  0  0
  4  8  1  0  0  0
  4 13  1  0  0  0
  4 26  1  0  0  0
  5 18  2  0  0  0
  5 20  1  0  0  0
  6  7  1  0  0  0
  6  8  1  0  0  0
  7  9  1  0  0  0
  8 11  1  0  0  0
 10 14  1  0  0  0
 12 15  1  0  0  0
 13 16  2  0  0  0
 13 17  1  0  0  0
 16 18  1  0  0  0
 16 19  1  0  0  0
 17 20  2  0  0  0
 18 21  1  0  0  0
 19 22  2  0  0  0
 21 23  2  0  0  0
 22 23  1  0  0  0
M  END
>  <CHROM.0>
-178.39676582,61.06649286,56.26326119

>  <CHROM.1>
-177.60516317,73.83321991,-87.21717718,168.49640416,-115.81392338,166.52296223
-179.34875037,61.65283250,-177.43099296,-40.82503959,-48.36036175,-3.39005114
17.26643383,-0.25005016,0.57020339,2.08969153

>  <HEADER>
                                                                          

>  <MASTER>
        0    0    0    0    0    0    0    0   50    0   50    0          

>  <Name>
Hydroxychloroquine.pdb

>  <RI>
-8.21701e+08

>  <Rbt.Current_Directory>
/root/miniconda3/envs/rdock/share/rxdock-2013.1.1_148c5bd1-0/data/ligands/prepped_ligands/Hydroxychloroquine

>  <Rbt.Executable>
rbdock/0.1.0

>  <Rbt.Library>
librxdock.so/0.1.0

>  <Rbt.Parameter_File>
/root/miniconda3/envs/rdock/share/rxdock-2013.1.1_148c5bd1-0/data/scripts/dock.prm

>  <Rbt.Receptor>
def.prm

>  <SCORE>
-17.9449

>  <SCORE.INTER>
-4.95201

>  <SCORE.INTER.CONST>
1

>  <SCORE.INTER.POLAR>
-0.527157

>  <SCORE.INTER.REPUL>
0

>  <SCORE.INTER.ROT>
9

>  <SCORE.INTER.VDW>
-17.5597

>  <SCORE.INTER.norm>
-0.215305

>  <SCORE.INTRA>
-12.0178

>  <SCORE.INTRA.DIHEDRAL>
-19.2912

>  <SCORE.INTRA.DIHEDRAL.0>
26.0734

>  <SCORE.INTRA.POLAR>
-0.309671

>  <SCORE.INTRA.POLAR.0>
0

>  <SCORE.INTRA.REPUL>
0

>  <SCORE.INTRA.REPUL.0>
0

>  <SCORE.INTRA.VDW>
-1.31932

>  <SCORE.INTRA.VDW.0>
1.41869

>  <SCORE.INTRA.norm>
-0.522513

>  <SCORE.RESTR>
0

>  <SCORE.RESTR.CAVITY>
0

>  <SCORE.RESTR.norm>
0

>  <SCORE.SYSTEM>
-0.975059

>  <SCORE.SYSTEM.CONST>
0

>  <SCORE.SYSTEM.DIHEDRAL>
0.0483361

>  <SCORE.SYSTEM.VDW>
-0.999227

>  <SCORE.SYSTEM.norm>
-0.0423939

>  <SCORE.heavy>
23

>  <SCORE.norm>
-0.780212

>  <TITLE>
    3652_D                                                                

$$$$
Hydroxychloroquine.pdb
  RxDock  02242110593D
librxdock.so/0.1.0
 26 27  0  0  0  0  0  0  0  0999 V2000
  -46.5324    2.3128   19.0296 Cl  0  0  0  0  0  0
  -55.3500   -6.2591   14.2338 O   0  0  0  0  0  0
  -52.8135   -5.6228   16.9849 N   0  3  0  0  0  0
  -48.9693   -2.5991   15.0453 N   0  0  0  0  0  0
  -45.0327   -1.1769   15.7107 N   0  0  0  0  0  0
  -51.2470   -2.2038   16.0329 C   0  0  0  0  0  0
  -51.5059   -3.7131   15.8965 C   0  0  0  0  0  0
  -50.1684   -1.7349   15.0394 C   0  0  0  0  0  0
  -52.5748   -4.1327   16.9275 C   0  0  0  0  0  0
  -53.4082   -6.1634   15.7049 C   0  0  0  0  0  0
  -50.7547   -1.8503   13.6227 C   0  0  0  0  0  0
  -51.5797   -6.3848   17.4121 C   0  0  0  0  0  0
  -47.6711   -2.1218   15.2627 C   0  0  0  0  0  0
  -54.8269   -5.6339   15.4147 C   0  0  0  0  0  0
  -51.8877   -7.8146   17.9001 C   0  0  0  0  0  0
  -47.4356   -1.0541   16.1486 C   0  0  0  0  0  0
  -46.5814   -2.6679   14.6332 C   0  0  0  0  0  0
  -46.1113   -0.6272   16.3421 C   0  0  0  0  0  0
  -48.4703   -0.4084   16.8606 C   0  0  0  0  0  0
  -45.3104   -2.1825   14.8720 C   0  0  0  0  0  0
  -45.8583    0.4265   17.2453 C   0  0  0  0  0  0
  -48.1955    0.5990   17.7185 C   0  0  0  0  0  0
  -46.8704    1.0216   17.9157 C   0  0  0  0  0  0
  -55.4014   -7.2580   14.3413 H   0  0  0  0  0  0
  -53.4357   -5.7559   17.6368 H   0  0  0  0  0  0
  -49.1016   -3.4668   15.1090 H   0  0  0  0  0  0
  1 23  1  0  0  0
  2 14  1  0  0  0
  2 24  1  0  0  0
  3  9  1  0  0  0
  3 10  1  0  0  0
  3 12  1  0  0  0
  3 25  1  0  0  0
  4  8  1  0  0  0
  4 13  1  0  0  0
  4 26  1  0  0  0
  5 18  2  0  0  0
  5 20  1  0  0  0
  6  7  1  0  0  0
  6  8  1  0  0  0
  7  9  1  0  0  0
  8 11  1  0  0  0
 10 14  1  0  0  0
 12 15  1  0  0  0
 13 16  2  0  0  0
 13 17  1  0  0  0
 16 18  1  0  0  0
 16 19  1  0  0  0
 17 20  2  0  0  0
 18 21  1  0  0  0
 19 22  2  0  0  0
 21 23  2  0  0  0
 22 23  1  0  0  0
M  END
>  <CHROM.0>
-57.83070887,65.05640337,56.60123477

>  <CHROM.1>
60.00484509,-65.51244971,-65.36496796,162.07651287,-124.84314733,34.68369933
179.07994062,-47.90956230,-174.15021448,-176.28717675,-49.50852437,-2.43059571
16.33173555,0.62114667,0.46063997,0.76685169

>  <HEADER>
                                                                          

>  <MASTER>
        0    0    0    0    0    0    0    0   50    0   50    0          

>  <Name>
Hydroxychloroquine.pdb

>  <RI>
-8.21701e+08

>  <Rbt.Current_Directory>
/root/miniconda3/envs/rdock/share/rxdock-2013.1.1_148c5bd1-0/data/ligands/prepped_ligands/Hydroxychloroquine

>  <Rbt.Executable>
rbdock/0.1.0

>  <Rbt.Library>
librxdock.so/0.1.0

>  <Rbt.Parameter_File>
/root/miniconda3/envs/rdock/share/rxdock-2013.1.1_148c5bd1-0/data/scripts/dock.prm

>  <Rbt.Receptor>
def.prm

>  <SCORE>
-14.9057

>  <SCORE.INTER>
-7.25223

>  <SCORE.INTER.CONST>
1

>  <SCORE.INTER.POLAR>
0

>  <SCORE.INTER.REPUL>
0

>  <SCORE.INTER.ROT>
9

>  <SCORE.INTER.VDW>
-21.6522

>  <SCORE.INTER.norm>
-0.315314

>  <SCORE.INTRA>
-6.65697

>  <SCORE.INTRA.DIHEDRAL>
-16.9294

>  <SCORE.INTRA.DIHEDRAL.0>
26.0734

>  <SCORE.INTRA.POLAR>
0

>  <SCORE.INTRA.POLAR.0>
0

>  <SCORE.INTRA.REPUL>
0

>  <SCORE.INTRA.REPUL.0>
0

>  <SCORE.INTRA.VDW>
1.80773

>  <SCORE.INTRA.VDW.0>
1.41869

>  <SCORE.INTRA.norm>
-0.289434

>  <SCORE.RESTR>
0

>  <SCORE.RESTR.CAVITY>
0

>  <SCORE.RESTR.norm>
0

>  <SCORE.SYSTEM>
-0.996452

>  <SCORE.SYSTEM.CONST>
0

>  <SCORE.SYSTEM.DIHEDRAL>
0.166816

>  <SCORE.SYSTEM.VDW>
-1.07986

>  <SCORE.SYSTEM.norm>
-0.043324

>  <SCORE.heavy>
23

>  <SCORE.norm>
-0.648072

>  <TITLE>
    3652_D                                                                

$$$$
Hydroxychloroquine.pdb
  RxDock  02242110593D
librxdock.so/0.1.0
 26 27  0  0  0  0  0  0  0  0999 V2000
  -49.6627    0.4198   13.3149 Cl  0  0  0  0  0  0
  -55.3133   -8.0588   15.9667 O   0  0  0  0  0  0
  -53.1636   -6.0322   15.4023 N   0  3  0  0  0  0
  -50.6073   -4.0498   18.3219 N   0  0  0  0  0  0
  -47.1869   -3.0308   16.0362 N   0  0  0  0  0  0
  -51.9109   -6.0798   19.0290 C   0  0  0  0  0  0
  -51.9749   -6.6172   17.5900 C   0  0  0  0  0  0
  -50.6598   -5.2076   19.2394 C   0  0  0  0  0  0
  -53.2493   -6.0749   16.9094 C   0  0  0  0  0  0
  -54.5218   -6.1043   14.7431 C   0  0  0  0  0  0
  -50.7374   -4.6110   20.6544 C   0  0  0  0  0  0
  -52.3462   -4.8606   14.9077 C   0  0  0  0  0  0
  -49.4813   -3.7153   17.5599 C   0  0  0  0  0  0
  -55.0844   -7.5368   14.6498 C   0  0  0  0  0  0
  -50.8321   -5.1492   14.8701 C   0  0  0  0  0  0
  -49.5615   -2.7431   16.5457 C   0  0  0  0  0  0
  -48.2620   -4.3091   17.7662 C   0  0  0  0  0  0
  -48.3965   -2.4341   15.8239 C   0  0  0  0  0  0
  -50.7563   -2.0566   16.2367 C   0  0  0  0  0  0
  -47.1653   -3.9544   17.0049 C   0  0  0  0  0  0
  -48.4570   -1.4447   14.8203 C   0  0  0  0  0  0
  -50.7820   -1.1140   15.2686 C   0  0  0  0  0  0
  -49.6154   -0.8016   14.5511 C   0  0  0  0  0  0
  -55.9999   -7.5147   16.4612 H   0  0  0  0  0  0
  -52.7131   -6.7832   15.1516 H   0  0  0  0  0  0
  -51.3741   -3.6776   18.1030 H   0  0  0  0  0  0
  1 23  1  0  0  0
  2 14  1  0  0  0
  2 24  1  0  0  0
  3  9  1  0  0  0
  3 10  1  0  0  0
  3 12  1  0  0  0
  3 25  1  0  0  0
  4  8  1  0  0  0
  4 13  1  0  0  0
  4 26  1  0  0  0
  5 18  2  0  0  0
  5 20  1  0  0  0
  6  7  1  0  0  0
  6  8  1  0  0  0
  7  9  1  0  0  0
  8 11  1  0  0  0
 10 14  1  0  0  0
 12 15  1  0  0  0
 13 16  2  0  0  0
 13 17  1  0  0  0
 16 18  1  0  0  0
 16 19  1  0  0  0
 17 20  2  0  0  0
 18 21  1  0  0  0
 19 22  2  0  0  0
 21 23  2  0  0  0
 22 23  1  0  0  0
M  END
>  <CHROM.0>
-60.11647467,174.69773750,57.11509859

>  <CHROM.1>
62.31989259,154.54860170,-80.53914110,84.97409760,-130.62982465,169.35526562
-118.09436216,58.82507117,156.04679487,64.19206052,-50.89524804,-3.96965219
16.21232550,0.68276981,-0.63034818,-0.90330196

>  <HEADER>
                                                                          

>  <MASTER>
        0    0    0    0    0    0    0    0   50    0   50    0          

>  <Name>
Hydroxychloroquine.pdb

>  <RI>
-8.21701e+08

>  <Rbt.Current_Directory>
/root/miniconda3/envs/rdock/share/rxdock-2013.1.1_148c5bd1-0/data/ligands/prepped_ligands/Hydroxychloroquine

>  <Rbt.Executable>
rbdock/0.1.0

>  <Rbt.Library>
librxdock.so/0.1.0

>  <Rbt.Parameter_File>
/root/miniconda3/envs/rdock/share/rxdock-2013.1.1_148c5bd1-0/data/scripts/dock.prm

>  <Rbt.Receptor>
def.prm

>  <SCORE>
-18.3857

>  <SCORE.INTER>
-8.5673

>  <SCORE.INTER.CONST>
1

>  <SCORE.INTER.POLAR>
-1.27279

>  <SCORE.INTER.REPUL>
0.000452629

>  <SCORE.INTER.ROT>
9

>  <SCORE.INTER.VDW>
-18.6421

>  <SCORE.INTER.norm>
-0.372491

>  <SCORE.INTRA>
-8.82047

>  <SCORE.INTRA.DIHEDRAL>
-11.9666

>  <SCORE.INTRA.DIHEDRAL.0>
26.0734

>  <SCORE.INTRA.POLAR>
0

>  <SCORE.INTRA.POLAR.0>
0

>  <SCORE.INTRA.REPUL>
0

>  <SCORE.INTRA.REPUL.0>
0

>  <SCORE.INTRA.VDW>
-2.83717

>  <SCORE.INTRA.VDW.0>
1.41869

>  <SCORE.INTRA.norm>
-0.383499

>  <SCORE.RESTR>
0

>  <SCORE.RESTR.CAVITY>
0

>  <SCORE.RESTR.norm>
0

>  <SCORE.SYSTEM>
-0.997952

>  <SCORE.SYSTEM.CONST>
0

>  <SCORE.SYSTEM.DIHEDRAL>
0.161008

>  <SCORE.SYSTEM.VDW>
-1.07846

>  <SCORE.SYSTEM.norm>
-0.0433892

>  <SCORE.heavy>
23

>  <SCORE.norm>
-0.799379

>  <TITLE>
    3652_D                                                                

$$$$
Hydroxychloroquine.pdb
  RxDock  02242110593D
librxdock.so/0.1.0
 26 27  0  0  0  0  0  0  0  0999 V2000
  -49.1582    0.3974   20.2455 Cl  0  0  0  0  0  0
  -53.6677   -4.3757   17.6337 O   0  0  0  0  0  0
  -52.0459   -3.7960   15.2210 N   0  3  0  0  0  0
  -47.9667   -0.4101   13.6222 N   0  0  0  0  0  0
  -45.3759   -0.2545   16.9726 N   0  0  0  0  0  0
  -50.4192   -0.8505   13.2888 C   0  0  0  0  0  0
  -50.5659   -1.8636   14.4359 C   0  0  0  0  0  0
  -49.3207    0.1825   13.5993 C   0  0  0  0  0  0
  -51.8546   -2.6839   14.2174 C   0  0  0  0  0  0
  -53.4504   -4.3543   15.2055 C   0  0  0  0  0  0
  -49.3044    1.2075   12.4534 C   0  0  0  0  0  0
  -50.9967   -4.8760   15.0867 C   0  0  0  0  0  0
  -47.1136   -0.3512   14.7308 C   0  0  0  0  0  0
  -53.7947   -5.1868   16.4568 C   0  0  0  0  0  0
  -49.7423   -4.6141   15.9441 C   0  0  0  0  0  0
  -47.6283   -0.1527   16.0254 C   0  0  0  0  0  0
  -45.7539   -0.4863   14.6091 C   0  0  0  0  0  0
  -46.7282   -0.1193   17.1035 C   0  0  0  0  0  0
  -49.0083   -0.0030   16.2854 C   0  0  0  0  0  0
  -44.9359   -0.4319   15.7209 C   0  0  0  0  0  0
  -47.2326    0.0554   18.4093 C   0  0  0  0  0  0
  -49.4603    0.1636   17.5480 C   0  0  0  0  0  0
  -48.5602    0.1912   18.6262 C   0  0  0  0  0  0
  -54.3379   -3.6256   17.6346 H   0  0  0  0  0  0
  -51.9245   -3.4213   16.0424 H   0  0  0  0  0  0
  -47.7712   -0.9862   12.9864 H   0  0  0  0  0  0
  1 23  1  0  0  0
  2 14  1  0  0  0
  2 24  1  0  0  0
  3  9  1  0  0  0
  3 10  1  0  0  0
  3 12  1  0  0  0
  3 25  1  0  0  0
  4  8  1  0  0  0
  4 13  1  0  0  0
  4 26  1  0  0  0
  5 18  2  0  0  0
  5 20  1  0  0  0
  6  7  1  0  0  0
  6  8  1  0  0  0
  7  9  1  0  0  0
  8 11  1  0  0  0
 10 14  1  0  0  0
 12 15  1  0  0  0
 13 16  2  0  0  0
 13 17  1  0  0  0
 16 18  1  0  0  0
 16 19  1  0  0  0
 17 20  2  0  0  0
 18 21  1  0  0  0
 19 22  2  0  0  0
 21 23  2  0  0  0
 22 23  1  0  0  0
M  END
>  <CHROM.0>
-177.20025787,176.02007082,54.43404689

>  <CHROM.1>
64.51743695,165.76591592,-163.56047628,89.46575649,-122.10696222,22.64256512
168.34608883,67.59333205,175.04740931,59.68212260,-49.41717966,-1.38805780
16.05973903,0.20651067,0.64565486,1.46848424

>  <HEADER>
                                                                          

>  <MASTER>
        0    0    0    0    0    0    0    0   50    0   50    0          

>  <Name>
Hydroxychloroquine.pdb

>  <RI>
-8.21701e+08

>  <Rbt.Current_Directory>
/root/miniconda3/envs/rdock/share/rxdock-2013.1.1_148c5bd1-0/data/ligands/prepped_ligands/Hydroxychloroquine

>  <Rbt.Executable>
rbdock/0.1.0

>  <Rbt.Library>
librxdock.so/0.1.0

>  <Rbt.Parameter_File>
/root/miniconda3/envs/rdock/share/rxdock-2013.1.1_148c5bd1-0/data/scripts/dock.prm

>  <Rbt.Receptor>
def.prm

>  <SCORE>
-20.235

>  <SCORE.INTER>
-11.107

>  <SCORE.INTER.CONST>
1

>  <SCORE.INTER.POLAR>
-1.04201

>  <SCORE.INTER.REPUL>
0

>  <SCORE.INTER.ROT>
9

>  <SCORE.INTER.VDW>
-21.9641

>  <SCORE.INTER.norm>
-0.482911

>  <SCORE.INTRA>
-8.13625

>  <SCORE.INTRA.DIHEDRAL>
-16.9803

>  <SCORE.INTRA.DIHEDRAL.0>
26.0734

>  <SCORE.INTRA.POLAR>
0

>  <SCORE.INTRA.POLAR.0>
0

>  <SCORE.INTRA.REPUL>
0

>  <SCORE.INTRA.REPUL.0>
0

>  <SCORE.INTRA.VDW>
0.353902

>  <SCORE.INTRA.VDW.0>
1.41869

>  <SCORE.INTRA.norm>
-0.35375

>  <SCORE.RESTR>
0

>  <SCORE.RESTR.CAVITY>
0

>  <SCORE.RESTR.norm>
0

>  <SCORE.SYSTEM>
-0.991826

>  <SCORE.SYSTEM.CONST>
0

>  <SCORE.SYSTEM.DIHEDRAL>
0.175699

>  <SCORE.SYSTEM.VDW>
-1.07968

>  <SCORE.SYSTEM.norm>
-0.0431229

>  <SCORE.heavy>
23

>  <SCORE.norm>
-0.879784

>  <TITLE>
    3652_D                                                                

$$$$
Hydroxychloroquine.pdb
  RxDock  02242110593D
librxdock.so/0.1.0
 26 27  0  0  0  0  0  0  0  0999 V2000
  -43.0813   -2.2576   18.5523 Cl  0  0  0  0  0  0
  -48.5128   -4.6792   15.9758 O   0  0  0  0  0  0
  -50.8688   -4.9095   17.2816 N   0  3  0  0  0  0
  -49.2785   -1.8349   15.8400 N   0  0  0  0  0  0
  -47.2138    0.6342   18.5973 N   0  0  0  0  0  0
  -51.6401   -2.5877   15.4205 C   0  0  0  0  0  0
  -52.0928   -2.6991   16.8855 C   0  0  0  0  0  0
  -50.5859   -1.4788   15.2494 C   0  0  0  0  0  0
  -51.0159   -3.4618   17.6855 C   0  0  0  0  0  0
  -49.6724   -5.5714   17.9259 C   0  0  0  0  0  0
  -50.3268   -1.3073   13.7436 C   0  0  0  0  0  0
  -52.1429   -5.6955   17.4920 C   0  0  0  0  0  0
  -48.5956   -1.0256   16.7560 C   0  0  0  0  0  0
  -48.3246   -5.1205   17.3281 C   0  0  0  0  0  0
  -53.1041   -5.6277   16.2884 C   0  0  0  0  0  0
  -47.2944   -1.3558   17.1781 C   0  0  0  0  0  0
  -49.1543    0.1146   17.2755 C   0  0  0  0  0  0
  -46.6495   -0.4988   18.0853 C   0  0  0  0  0  0
  -46.6074   -2.4998   16.7157 C   0  0  0  0  0  0
  -48.4551    0.8992   18.1719 C   0  0  0  0  0  0
  -45.3360   -0.8051   18.4987 C   0  0  0  0  0  0
  -45.3495   -2.7663   17.1314 C   0  0  0  0  0  0
  -44.7031   -1.9058   18.0342 C   0  0  0  0  0  0
  -47.6327   -4.5704   15.5010 H   0  0  0  0  0  0
  -50.7132   -4.9088   16.3841 H   0  0  0  0  0  0
  -49.0183   -2.6719   15.7610 H   0  0  0  0  0  0
  1 23  1  0  0  0
  2 14  1  0  0  0
  2 24  1  0  0  0
  3  9  1  0  0  0
  3 10  1  0  0  0
  3 12  1  0  0  0
  3 25  1  0  0  0
  4  8  1  0  0  0
  4 13  1  0  0  0
  4 26  1  0  0  0
  5 18  2  0  0  0
  5 20  1  0  0  0
  6  7  1  0  0  0
  6  8  1  0  0  0
  7  9  1  0  0  0
  8 11  1  0  0  0
 10 14  1  0  0  0
 12 15  1  0  0  0
 13 16  2  0  0  0
 13 17  1  0  0  0
 16 18  1  0  0  0
 16 19  1  0  0  0
 17 20  2  0  0  0
 18 21  1  0  0  0
 19 22  2  0  0  0
 21 23  2  0  0  0
 22 23  1  0  0  0
M  END
>  <CHROM.0>
59.02329711,59.61122403,59.72063169

>  <CHROM.1>
-167.65987219,171.18914022,-73.25274271,87.06994484,-127.08922981,-173.52943302
-78.16956886,71.19567642,-66.53050945,-25.83961936,-48.42470391,-2.52953958
17.10170498,-0.32138301,0.29771648,3.01402536

>  <HEADER>
                                                                          

>  <MASTER>
        0    0    0    0    0    0    0    0   50    0   50    0          

>  <Name>
Hydroxychloroquine.pdb

>  <RI>
-8.21701e+08

>  <Rbt.Current_Directory>
/root/miniconda3/envs/rdock/share/rxdock-2013.1.1_148c5bd1-0/data/ligands/prepped_ligands/Hydroxychloroquine

>  <Rbt.Executable>
rbdock/0.1.0

>  <Rbt.Library>
librxdock.so/0.1.0

>  <Rbt.Parameter_File>
/root/miniconda3/envs/rdock/share/rxdock-2013.1.1_148c5bd1-0/data/scripts/dock.prm

>  <Rbt.Receptor>
def.prm

>  <SCORE>
-18.9064

>  <SCORE.INTER>
-4.16778

>  <SCORE.INTER.CONST>
1

>  <SCORE.INTER.POLAR>
-0.0879547

>  <SCORE.INTER.REPUL>
0

>  <SCORE.INTER.ROT>
9

>  <SCORE.INTER.VDW>
-18.2687

>  <SCORE.INTER.norm>
-0.181208

>  <SCORE.INTRA>
-13.7885

>  <SCORE.INTRA.DIHEDRAL>
-14.6463

>  <SCORE.INTRA.DIHEDRAL.0>
26.0734

>  <SCORE.INTRA.POLAR>
-1.17358

>  <SCORE.INTRA.POLAR.0>
0

>  <SCORE.INTRA.REPUL>
0

>  <SCORE.INTRA.REPUL.0>
0

>  <SCORE.INTRA.VDW>
-2.47523

>  <SCORE.INTRA.VDW.0>
1.41869

>  <SCORE.INTRA.norm>
-0.599502

>  <SCORE.RESTR>
0

>  <SCORE.RESTR.CAVITY>
0

>  <SCORE.RESTR.norm>
0

>  <SCORE.SYSTEM>
-0.950054

>  <SCORE.SYSTEM.CONST>
0

>  <SCORE.SYSTEM.DIHEDRAL>
0.00444206

>  <SCORE.SYSTEM.POLAR>
-0.000377708

>  <SCORE.SYSTEM.VDW>
-0.950991

>  <SCORE.SYSTEM.norm>
-0.0413067

>  <SCORE.heavy>
23

>  <SCORE.norm>
-0.822017

>  <TITLE>
    3652_D                                                                

$$$$
Hydroxychloroquine.pdb
  RxDock  02242110593D
librxdock.so/0.1.0
 26 27  0  0  0  0  0  0  0  0999 V2000
  -48.9714   -7.3047   17.1749 Cl  0  0  0  0  0  0
  -43.4185   -2.9823   17.9767 O   0  0  0  0  0  0
  -45.3171   -0.6589   17.6751 N   0  3  0  0  0  0
  -49.1137   -0.6289   16.0118 N   0  0  0  0  0  0
  -49.0481   -2.8828   19.6004 N   0  0  0  0  0  0
  -47.2549   -0.5065   14.3237 C   0  0  0  0  0  0
  -46.1342   -0.9649   15.2710 C   0  0  0  0  0  0
  -48.6047   -1.1327   14.7187 C   0  0  0  0  0  0
  -46.2137   -0.1432   16.5748 C   0  0  0  0  0  0
  -43.8618   -0.6921   17.2681 C   0  0  0  0  0  0
  -49.6443   -0.7048   13.6698 C   0  0  0  0  0  0
  -45.5321    0.0732   18.9802 C   0  0  0  0  0  0
  -49.0990   -1.3772   17.1951 C   0  0  0  0  0  0
  -42.9991   -1.6206   18.1461 C   0  0  0  0  0  0
  -45.2855   -0.8100   20.2198 C   0  0  0  0  0  0
  -49.0888   -2.7839   17.1571 C   0  0  0  0  0  0
  -49.0901   -0.7819   18.4310 C   0  0  0  0  0  0
  -49.0565   -3.4840   18.3745 C   0  0  0  0  0  0
  -49.0928   -3.5166   15.9498 C   0  0  0  0  0  0
  -49.0677   -1.5444   19.5826 C   0  0  0  0  0  0
  -49.0222   -4.8942   18.3509 C   0  0  0  0  0  0
  -49.0602   -4.8676   15.9605 C   0  0  0  0  0  0
  -49.0222   -5.5670   17.1782 C   0  0  0  0  0  0
  -43.3186   -3.2793   17.0208 H   0  0  0  0  0  0
  -45.5654   -1.5230   17.8219 H   0  0  0  0  0  0
  -49.2485    0.2382   16.0784 H   0  0  0  0  0  0
  1 23  1  0  0  0
  2 14  1  0  0  0
  2 24  1  0  0  0
  3  9  1  0  0  0
  3 10  1  0  0  0
  3 12  1  0  0  0
  3 25  1  0  0  0
  4  8  1  0  0  0
  4 13  1  0  0  0
  4 26  1  0  0  0
  5 18  2  0  0  0
  5 20  1  0  0  0
  6  7  1  0  0  0
  6  8  1  0  0  0
  7  9  1  0  0  0
  8 11  1  0  0  0
 10 14  1  0  0  0
 12 15  1  0  0  0
 13 16  2  0  0  0
 13 17  1  0  0  0
 16 18  1  0  0  0
 16 19  1  0  0  0
 17 20  2  0  0  0
 18 21  1  0  0  0
 19 22  2  0  0  0
 21 23  2  0  0  0
 22 23  1  0  0  0
M  END
>  <CHROM.0>
-55.32636117,-66.01444266,175.84162864

>  <CHROM.1>
60.48383234,58.38138906,-160.81082632,148.73132940,-105.90484755,-24.73949587
-79.41930162,67.73095703,170.12948952,64.98536636,-47.51285742,-2.44335919
17.20124126,-2.47288842,-0.56776284,-0.48683585

>  <HEADER>
                                                                          

>  <MASTER>
        0    0    0    0    0    0    0    0   50    0   50    0          

>  <Name>
Hydroxychloroquine.pdb

>  <RI>
-8.21701e+08

>  <Rbt.Current_Directory>
/root/miniconda3/envs/rdock/share/rxdock-2013.1.1_148c5bd1-0/data/ligands/prepped_ligands/Hydroxychloroquine

>  <Rbt.Executable>
rbdock/0.1.0

>  <Rbt.Library>
librxdock.so/0.1.0

>  <Rbt.Parameter_File>
/root/miniconda3/envs/rdock/share/rxdock-2013.1.1_148c5bd1-0/data/scripts/dock.prm

>  <Rbt.Receptor>
def.prm

>  <SCORE>
-16.9885

>  <SCORE.INTER>
-6.36295

>  <SCORE.INTER.CONST>
1

>  <SCORE.INTER.POLAR>
-0.87178

>  <SCORE.INTER.REPUL>
0.000320019

>  <SCORE.INTER.ROT>
9

>  <SCORE.INTER.VDW>
-17.8005

>  <SCORE.INTER.norm>
-0.27665

>  <SCORE.INTRA>
-9.61641

>  <SCORE.INTRA.DIHEDRAL>
-17.7509

>  <SCORE.INTRA.DIHEDRAL.0>
26.0734

>  <SCORE.INTRA.POLAR>
0

>  <SCORE.INTRA.POLAR.0>
0

>  <SCORE.INTRA.REPUL>
0

>  <SCORE.INTRA.REPUL.0>
0

>  <SCORE.INTRA.VDW>
-0.740965

>  <SCORE.INTRA.VDW.0>
1.41869

>  <SCORE.INTRA.norm>
-0.418105

>  <SCORE.RESTR>
0

>  <SCORE.RESTR.CAVITY>
0

>  <SCORE.RESTR.norm>
0

>  <SCORE.SYSTEM>
-1.00911

>  <SCORE.SYSTEM.CONST>
0

>  <SCORE.SYSTEM.DIHEDRAL>
0.273304

>  <SCORE.SYSTEM.VDW>
-1.14577

>  <SCORE.SYSTEM.norm>
-0.0438745

>  <SCORE.heavy>
23

>  <SCORE.norm>
-0.73863

>  <TITLE>
    3652_D                                                                

$$$$
Hydroxychloroquine.pdb
  RxDock  02242110593D
librxdock.so/0.1.0
 26 27  0  0  0  0  0  0  0  0999 V2000
  -45.1597    1.0782   19.9373 Cl  0  0  0  0  0  0
  -51.8641   -6.9658   17.1714 O   0  0  0  0  0  0
  -48.7923   -6.9174   18.3284 N   0  3  0  0  0  0
  -47.1419   -3.2306   15.0952 N   0  0  0  0  0  0
  -43.5725   -1.0084   15.6281 N   0  0  0  0  0  0
  -49.0331   -3.3867   16.7440 C   0  0  0  0  0  0
  -48.7511   -4.8979   16.7596 C   0  0  0  0  0  0
  -48.4850   -2.7342   15.4618 C   0  0  0  0  0  0
  -49.1878   -5.4745   18.1228 C   0  0  0  0  0  0
  -49.6235   -7.8691   17.4991 C   0  0  0  0  0  0
  -49.4070   -3.1384   14.2997 C   0  0  0  0  0  0
  -47.3084   -7.1372   18.1408 C   0  0  0  0  0  0
  -45.9670   -2.4895   15.2712 C   0  0  0  0  0  0
  -51.1045   -7.9224   17.9244 C   0  0  0  0  0  0
  -46.8404   -8.5363   18.5889 C   0  0  0  0  0  0
  -45.8136   -1.6360   16.3795 C   0  0  0  0  0  0
  -44.9223   -2.5627   14.3851 C   0  0  0  0  0  0
  -44.6070   -0.9295   16.5157 C   0  0  0  0  0  0
  -46.8124   -1.4744   17.3647 C   0  0  0  0  0  0
  -43.7712   -1.8263   14.5872 C   0  0  0  0  0  0
  -44.4305   -0.0883   17.6343 C   0  0  0  0  0  0
  -46.6132   -0.6602   18.4247 C   0  0  0  0  0  0
  -45.4042    0.0416   18.5632 C   0  0  0  0  0  0
  -51.9347   -7.2346   16.2046 H   0  0  0  0  0  0
  -48.9716   -7.1086   19.2008 H   0  0  0  0  0  0
  -47.0616   -4.0938   14.9444 H   0  0  0  0  0  0
  1 23  1  0  0  0
  2 14  1  0  0  0
  2 24  1  0  0  0
  3  9  1  0  0  0
  3 10  1  0  0  0
  3 12  1  0  0  0
  3 25  1  0  0  0
  4  8  1  0  0  0
  4 13  1  0  0  0
  4 26  1  0  0  0
  5 18  2  0  0  0
  5 20  1  0  0  0
  6  7  1  0  0  0
  6  8  1  0  0  0
  7  9  1  0  0  0
  8 11  1  0  0  0
 10 14  1  0  0  0
 12 15  1  0  0  0
 13 16  2  0  0  0
 13 17  1  0  0  0
 16 18  1  0  0  0
 16 19  1  0  0  0
 17 20  2  0  0  0
 18 21  1  0  0  0
 19 22  2  0  0  0
 21 23  2  0  0  0
 22 23  1  0  0  0
M  END
>  <CHROM.0>
178.41377195,-66.39262067,-59.57147494

>  <CHROM.1>
69.11201170,-72.92947674,-66.80814130,169.65961239,-105.38558633,35.42641394
174.21936027,-42.53460965,-172.29030146,91.55728139,-47.14752454,-3.32491024
17.11218558,0.21284509,0.95059643,1.31517271

>  <HEADER>
                                                                          

>  <MASTER>
        0    0    0    0    0    0    0    0   50    0   50    0          

>  <Name>
Hydroxychloroquine.pdb

>  <RI>
-8.21701e+08

>  <Rbt.Current_Directory>
/root/miniconda3/envs/rdock/share/rxdock-2013.1.1_148c5bd1-0/data/ligands/prepped_ligands/Hydroxychloroquine

>  <Rbt.Executable>
rbdock/0.1.0

>  <Rbt.Library>
librxdock.so/0.1.0

>  <Rbt.Parameter_File>
/root/miniconda3/envs/rdock/share/rxdock-2013.1.1_148c5bd1-0/data/scripts/dock.prm

>  <Rbt.Receptor>
def.prm

>  <SCORE>
-16.0593

>  <SCORE.INTER>
-11.1452

>  <SCORE.INTER.CONST>
1

>  <SCORE.INTER.POLAR>
-1.5821

>  <SCORE.INTER.REPUL>
0

>  <SCORE.INTER.ROT>
9

>  <SCORE.INTER.VDW>
-20.166

>  <SCORE.INTER.norm>
-0.484573

>  <SCORE.INTRA>
-3.89932

>  <SCORE.INTRA.DIHEDRAL>
-11.8518

>  <SCORE.INTRA.DIHEDRAL.0>
26.0734

>  <SCORE.INTRA.POLAR>
0

>  <SCORE.INTRA.POLAR.0>
0

>  <SCORE.INTRA.REPUL>
0

>  <SCORE.INTRA.REPUL.0>
0

>  <SCORE.INTRA.VDW>
2.02655

>  <SCORE.INTRA.VDW.0>
1.41869

>  <SCORE.INTRA.norm>
-0.169536

>  <SCORE.RESTR>
0

>  <SCORE.RESTR.CAVITY>
0

>  <SCORE.RESTR.norm>
0

>  <SCORE.SYSTEM>
-1.01483

>  <SCORE.SYSTEM.CONST>
0

>  <SCORE.SYSTEM.DIHEDRAL>
0.207468

>  <SCORE.SYSTEM.POLAR>
-0.00187062

>  <SCORE.SYSTEM.VDW>
-1.1122

>  <SCORE.SYSTEM.norm>
-0.044123

>  <SCORE.heavy>
23

>  <SCORE.norm>
-0.698232

>  <TITLE>
    3652_D                                                                

$$$$
Hydroxychloroquine.pdb
  RxDock  02242110593D
librxdock.so/0.1.0
 26 27  0  0  0  0  0  0  0  0999 V2000
  -56.8544   -7.6808   13.4964 Cl  0  0  0  0  0  0
  -49.7147   -5.0823   14.0009 O   0  0  0  0  0  0
  -48.4577   -4.8610   16.7003 N   0  3  0  0  0  0
  -52.0502   -7.8187   18.2755 N   0  0  0  0  0  0
  -54.0839   -4.6146   16.3886 N   0  0  0  0  0  0
  -49.5625   -8.1553   18.4090 C   0  0  0  0  0  0
  -49.1797   -7.2589   17.2200 C   0  0  0  0  0  0
  -50.8376   -7.6415   19.1020 C   0  0  0  0  0  0
  -48.6174   -5.9264   17.7585 C   0  0  0  0  0  0
  -49.7779   -4.2492   16.2912 C   0  0  0  0  0  0
  -51.0648   -8.4975   20.3589 C   0  0  0  0  0  0
  -47.4359   -3.8165   17.0881 C   0  0  0  0  0  0
  -52.7193   -6.7627   17.6449 C   0  0  0  0  0  0
  -50.5111   -5.0465   15.1939 C   0  0  0  0  0  0
  -46.9466   -2.9729   15.8939 C   0  0  0  0  0  0
  -53.6820   -7.0128   16.6494 C   0  0  0  0  0  0
  -52.4738   -5.4519   17.9663 C   0  0  0  0  0  0
  -54.3352   -5.9164   16.0623 C   0  0  0  0  0  0
  -54.0285   -8.3163   16.2305 C   0  0  0  0  0  0
  -53.1541   -4.4297   17.3337 C   0  0  0  0  0  0
  -55.3194   -6.1536   15.0799 C   0  0  0  0  0  0
  -54.9754   -8.5105   15.2861 C   0  0  0  0  0  0
  -55.6322   -7.4139   14.7035 C   0  0  0  0  0  0
  -50.1403   -5.6583   13.2944 H   0  0  0  0  0  0
  -48.1271   -5.2820   15.9632 H   0  0  0  0  0  0
  -52.2400   -8.6371   18.0137 H   0  0  0  0  0  0
  1 23  1  0  0  0
  2 14  1  0  0  0
  2 24  1  0  0  0
  3  9  1  0  0  0
  3 10  1  0  0  0
  3 12  1  0  0  0
  3 25  1  0  0  0
  4  8  1  0  0  0
  4 13  1  0  0  0
  4 26  1  0  0  0
  5 18  2  0  0  0
  5 20  1  0  0  0
  6  7  1  0  0  0
  6  8  1  0  0  0
  7  9  1  0  0  0
  8 11  1  0  0  0
 10 14  1  0  0  0
 12 15  1  0  0  0
 13 16  2  0  0  0
 13 17  1  0  0  0
 16 18  1  0  0  0
 16 19  1  0  0  0
 17 20  2  0  0  0
 18 21  1  0  0  0
 19 22  2  0  0  0
 21 23  2  0  0  0
 22 23  1  0  0  0
M  END
>  <CHROM.0>
-64.58686912,66.79142290,61.83328592

>  <CHROM.1>
175.53186963,75.08901618,-85.32659510,162.91949163,-107.44073877,166.18072966
72.86118011,69.74338533,-168.69307693,-61.93401664,-51.99378069,-6.30538776
16.44823151,-3.09001384,0.41636081,2.24330202

>  <HEADER>
                                                                          

>  <MASTER>
        0    0    0    0    0    0    0    0   50    0   50    0          

>  <Name>
Hydroxychloroquine.pdb

>  <RI>
-8.21701e+08

>  <Rbt.Current_Directory>
/root/miniconda3/envs/rdock/share/rxdock-2013.1.1_148c5bd1-0/data/ligands/prepped_ligands/Hydroxychloroquine

>  <Rbt.Executable>
rbdock/0.1.0

>  <Rbt.Library>
librxdock.so/0.1.0

>  <Rbt.Parameter_File>
/root/miniconda3/envs/rdock/share/rxdock-2013.1.1_148c5bd1-0/data/scripts/dock.prm

>  <Rbt.Receptor>
def.prm

>  <SCORE>
-24.9339

>  <SCORE.INTER>
-12.1677

>  <SCORE.INTER.CONST>
1

>  <SCORE.INTER.POLAR>
0

>  <SCORE.INTER.REPUL>
0

>  <SCORE.INTER.ROT>
9

>  <SCORE.INTER.VDW>
-26.5677

>  <SCORE.INTER.norm>
-0.529028

>  <SCORE.INTRA>
-11.8388

>  <SCORE.INTRA.DIHEDRAL>
-18.4316

>  <SCORE.INTRA.DIHEDRAL.0>
26.0734

>  <SCORE.INTRA.POLAR>
0

>  <SCORE.INTRA.POLAR.0>
0

>  <SCORE.INTRA.REPUL>
0

>  <SCORE.INTRA.REPUL.0>
0

>  <SCORE.INTRA.VDW>
-2.623

>  <SCORE.INTRA.VDW.0>
1.41869

>  <SCORE.INTRA.norm>
-0.514732

>  <SCORE.RESTR>
0

>  <SCORE.RESTR.CAVITY>
0

>  <SCORE.RESTR.norm>
0

>  <SCORE.SYSTEM>
-0.92737

>  <SCORE.SYSTEM.CONST>
0

>  <SCORE.SYSTEM.DIHEDRAL>
0.287234

>  <SCORE.SYSTEM.POLAR>
-0.00521332

>  <SCORE.SYSTEM.VDW>
-1.05326

>  <SCORE.SYSTEM.norm>
-0.0403204

>  <SCORE.heavy>
23

>  <SCORE.norm>
-1.08408

>  <TITLE>
    3652_D                                                                

$$$$
Hydroxychloroquine.pdb
  RxDock  02242110593D
librxdock.so/0.1.0
 26 27  0  0  0  0  0  0  0  0999 V2000
  -45.1379   -1.0073   21.0886 Cl  0  0  0  0  0  0
  -49.1003   -8.3031   16.8027 O   0  0  0  0  0  0
  -50.8719   -5.9298   16.0290 N   0  3  0  0  0  0
  -46.8105   -1.4365   14.5343 N   0  0  0  0  0  0
  -43.1091   -1.8722   16.5523 N   0  0  0  0  0  0
  -48.7360   -3.0527   14.5502 C   0  0  0  0  0  0
  -49.7135   -3.7019   15.5435 C   0  0  0  0  0  0
  -48.1168   -1.7722   15.1392 C   0  0  0  0  0  0
  -50.0767   -5.1139   15.0377 C   0  0  0  0  0  0
  -50.1261   -6.1538   17.3245 C   0  0  0  0  0  0
  -49.0476   -0.5990   14.7912 C   0  0  0  0  0  0
  -52.2573   -5.3679   16.2533 C   0  0  0  0  0  0
  -45.5884   -1.5728   15.2039 C   0  0  0  0  0  0
  -48.8119   -6.9408   17.1489 C   0  0  0  0  0  0
  -53.2665   -6.4216   16.7519 C   0  0  0  0  0  0
  -45.5108   -1.4131   16.5999 C   0  0  0  0  0  0
  -44.4251   -1.8684   14.5396 C   0  0  0  0  0  0
  -44.2621   -1.5782   17.2220 C   0  0  0  0  0  0
  -46.6353   -1.1115   17.3992 C   0  0  0  0  0  0
  -43.2343   -2.0049   15.2261 C   0  0  0  0  0  0
  -44.1741   -1.4442   18.6236 C   0  0  0  0  0  0
  -46.5182   -0.9887   18.7398 C   0  0  0  0  0  0
  -45.2703   -1.1595   19.3618 C   0  0  0  0  0  0
  -48.2560   -8.8274   16.6476 H   0  0  0  0  0  0
  -50.9861   -6.7502   15.6499 H   0  0  0  0  0  0
  -46.7885   -1.3346   13.6605 H   0  0  0  0  0  0
  1 23  1  0  0  0
  2 14  1  0  0  0
  2 24  1  0  0  0
  3  9  1  0  0  0
  3 10  1  0  0  0
  3 12  1  0  0  0
  3 25  1  0  0  0
  4  8  1  0  0  0
  4 13  1  0  0  0
  4 26  1  0  0  0
  5 18  2  0  0  0
  5 20  1  0  0  0
  6  7  1  0  0  0
  6  8  1  0  0  0
  7  9  1  0  0  0
  8 11  1  0  0  0
 10 14  1  0  0  0
 12 15  1  0  0  0
 13 16  2  0  0  0
 13 17  1  0  0  0
 16 18  1  0  0  0
 16 19  1  0  0  0
 17 20  2  0  0  0
 18 21  1  0  0  0
 19 22  2  0  0  0
 21 23  2  0  0  0
 22 23  1  0  0  0
M  END
>  <CHROM.0>
-49.39840120,62.93850641,-67.87201054

>  <CHROM.1>
177.77161805,-60.53953425,-61.79472488,155.96093673,-108.09424545,-30.82237056
-168.35472169,155.51029491,171.54819848,-69.56553241,-47.41259406,-3.07048018
16.80261076,0.08364735,0.68820072,1.79173578

>  <HEADER>
                                                                          

>  <MASTER>
        0    0    0    0    0    0    0    0   50    0   50    0          

>  <Name>
Hydroxychloroquine.pdb

>  <RI>
-8.21701e+08

>  <Rbt.Current_Directory>
/root/miniconda3/envs/rdock/share/rxdock-2013.1.1_148c5bd1-0/data/ligands/prepped_ligands/Hydroxychloroquine

>  <Rbt.Executable>
rbdock/0.1.0

>  <Rbt.Library>
librxdock.so/0.1.0

>  <Rbt.Parameter_File>
/root/miniconda3/envs/rdock/share/rxdock-2013.1.1_148c5bd1-0/data/scripts/dock.prm

>  <Rbt.Receptor>
def.prm

>  <SCORE>
-25.4952

>  <SCORE.INTER>
-16.9

>  <SCORE.INTER.CONST>
1

>  <SCORE.INTER.POLAR>
-3.13544

>  <SCORE.INTER.REPUL>
0

>  <SCORE.INTER.ROT>
9

>  <SCORE.INTER.VDW>
-20.6395

>  <SCORE.INTER.norm>
-0.734782

>  <SCORE.INTRA>
-7.80784

>  <SCORE.INTRA.DIHEDRAL>
-16.9097

>  <SCORE.INTRA.DIHEDRAL.0>
26.0734

>  <SCORE.INTRA.POLAR>
0

>  <SCORE.INTRA.POLAR.0>
0

>  <SCORE.INTRA.REPUL>
0

>  <SCORE.INTRA.REPUL.0>
0

>  <SCORE.INTRA.VDW>
0.646998

>  <SCORE.INTRA.VDW.0>
1.41869

>  <SCORE.INTRA.norm>
-0.339471

>  <SCORE.RESTR>
0

>  <SCORE.RESTR.CAVITY>
0

>  <SCORE.RESTR.norm>
0

>  <SCORE.SYSTEM>
-0.787392

>  <SCORE.SYSTEM.CONST>
0

>  <SCORE.SYSTEM.DIHEDRAL>
0.462527

>  <SCORE.SYSTEM.VDW>
-1.01866

>  <SCORE.SYSTEM.norm>
-0.0342345

>  <SCORE.heavy>
23

>  <SCORE.norm>
-1.10849

>  <TITLE>
    3652_D                                                                

$$$$
