Hydroxychloroquine.pdb
  RxDock  02242112593D
librxdock.so/0.1.0
 26 27  0  0  0  0  0  0  0  0999 V2000
  -43.2698    1.3590   18.5626 Cl  0  0  0  0  0  0
  -54.2583   -7.9699   15.8014 O   0  0  0  0  0  0
  -52.2445   -5.1040   17.2657 N   0  3  0  0  0  0
  -49.0070   -0.8738   15.7272 N   0  0  0  0  0  0
  -48.2805    1.8089   18.9269 N   0  0  0  0  0  0
  -50.7964   -2.4167   14.8685 C   0  0  0  0  0  0
  -51.3047   -2.9732   16.2085 C   0  0  0  0  0  0
  -50.3030   -0.9665   15.0226 C   0  0  0  0  0  0
  -51.6650   -4.4628   16.0273 C   0  0  0  0  0  0
  -52.7245   -6.5153   17.0161 C   0  0  0  0  0  0
  -50.0489   -0.4061   13.6135 C   0  0  0  0  0  0
  -51.3070   -5.0167   18.4485 C   0  0  0  0  0  0
  -48.7630    0.0066   16.7883 C   0  0  0  0  0  0
  -53.8956   -6.5984   16.0166 C   0  0  0  0  0  0
  -51.9719   -5.4159   19.7811 C   0  0  0  0  0  0
  -47.4476    0.2921   17.1987 C   0  0  0  0  0  0
  -49.7814    0.6270   17.4664 C   0  0  0  0  0  0
  -47.2603    1.1962   18.2575 C   0  0  0  0  0  0
  -46.3127   -0.2780   16.5811 C   0  0  0  0  0  0
  -49.5120    1.4972   18.5047 C   0  0  0  0  0  0
  -45.9463    1.5097   18.6638 C   0  0  0  0  0  0
  -45.0664    0.0421   16.9940 C   0  0  0  0  0  0
  -44.8798    0.9506   18.0491 C   0  0  0  0  0  0
  -53.4817   -8.5020   15.4468 H   0  0  0  0  0  0
  -52.9806   -4.6143   17.4852 H   0  0  0  0  0  0
  -48.4356   -1.5312   15.6021 H   0  0  0  0  0  0
  1 23  1  0  0  0
  2 14  1  0  0  0
  2 24  1  0  0  0
  3  9  1  0  0  0
  3 10  1  0  0  0
  3 12  1  0  0  0
  3 25  1  0  0  0
  4  8  1  0  0  0
  4 13  1  0  0  0
  4 26  1  0  0  0
  5 18  2  0  0  0
  5 20  1  0  0  0
  6  7  1  0  0  0
  6  8  1  0  0  0
  7  9  1  0  0  0
  8 11  1  0  0  0
 10 14  1  0  0  0
 12 15  1  0  0  0
 13 16  2  0  0  0
 13 17  1  0  0  0
 16 18  1  0  0  0
 16 19  1  0  0  0
 17 20  2  0  0  0
 18 21  1  0  0  0
 19 22  2  0  0  0
 21 23  2  0  0  0
 22 23  1  0  0  0
M  END
>  <CHROM.0>
-179.65478175,62.82708765,63.71801174

>  <CHROM.1>
-58.84611217,173.80551125,-64.11543110,168.97515102,-131.56340591,-164.09055389
-174.89812929,73.62632854,-177.09351949,178.00738108,-49.14549772,-1.69645970
17.09860541,-0.38722580,0.68182544,2.34153398

>  <HEADER>
                                                                          

>  <MASTER>
        0    0    0    0    0    0    0    0   50    0   50    0          

>  <Name>
Hydroxychloroquine.pdb

>  <RI>
-1.82386e+08

>  <Rbt.Current_Directory>
/root/miniconda3/envs/rdock/share/rxdock-2013.1.1_148c5bd1-0/data/ligands/prepped_ligands/Hydroxychloroquine

>  <Rbt.Executable>
rbdock/0.1.0

>  <Rbt.Library>
librxdock.so/0.1.0

>  <Rbt.Parameter_File>
/root/miniconda3/envs/rdock/share/rxdock-2013.1.1_148c5bd1-0/data/scripts/dock.prm

>  <Rbt.Receptor>
def.prm

>  <SCORE>
-19.6525

>  <SCORE.INTER>
-7.68491

>  <SCORE.INTER.CONST>
1

>  <SCORE.INTER.POLAR>
-0.84089

>  <SCORE.INTER.REPUL>
0

>  <SCORE.INTER.ROT>
9

>  <SCORE.INTER.VDW>
-19.2259

>  <SCORE.INTER.norm>
-0.334126

>  <SCORE.INTRA>
-10.9978

>  <SCORE.INTRA.DIHEDRAL>
-21.0223

>  <SCORE.INTRA.DIHEDRAL.0>
26.0734

>  <SCORE.INTRA.POLAR>
0

>  <SCORE.INTRA.POLAR.0>
0

>  <SCORE.INTRA.REPUL>
0

>  <SCORE.INTRA.REPUL.0>
0

>  <SCORE.INTRA.VDW>
-0.486663

>  <SCORE.INTRA.VDW.0>
1.41869

>  <SCORE.INTRA.norm>
-0.478165

>  <SCORE.RESTR>
0

>  <SCORE.RESTR.CAVITY>
0

>  <SCORE.RESTR.norm>
0

>  <SCORE.SYSTEM>
-0.969796

>  <SCORE.SYSTEM.CONST>
0

>  <SCORE.SYSTEM.DIHEDRAL>
0.0705944

>  <SCORE.SYSTEM.POLAR>
-0.00885938

>  <SCORE.SYSTEM.VDW>
-0.974971

>  <SCORE.SYSTEM.norm>
-0.042165

>  <SCORE.heavy>
23

>  <SCORE.norm>
-0.854457

>  <TITLE>
    3652_D                                                                

$$$$
Hydroxychloroquine.pdb
  RxDock  02242112593D
librxdock.so/0.1.0
 26 27  0  0  0  0  0  0  0  0999 V2000
  -46.8168    2.1191   18.9994 Cl  0  0  0  0  0  0
  -48.6545   -5.6337   18.7658 O   0  0  0  0  0  0
  -50.9813   -4.1839   17.4192 N   0  3  0  0  0  0
  -47.4223   -2.7429   14.3160 N   0  0  0  0  0  0
  -44.0340   -0.8550   16.0241 N   0  0  0  0  0  0
  -49.7729   -3.5845   14.6093 C   0  0  0  0  0  0
  -51.1832   -3.1852   15.0734 C   0  0  0  0  0  0
  -48.8174   -2.3777   14.6398 C   0  0  0  0  0  0
  -51.1559   -2.9305   16.5951 C   0  0  0  0  0  0
  -50.3739   -3.9052   18.7749 C   0  0  0  0  0  0
  -49.2575   -1.4039   13.5343 C   0  0  0  0  0  0
  -52.2573   -4.9888   17.5157 C   0  0  0  0  0  0
  -46.3056   -2.1120   14.8777 C   0  0  0  0  0  0
  -49.8143   -5.1637   19.4680 C   0  0  0  0  0  0
  -52.5679   -5.7904   16.2358 C   0  0  0  0  0  0
  -46.4606   -1.0969   15.8399 C   0  0  0  0  0  0
  -45.0246   -2.4519   14.5237 C   0  0  0  0  0  0
  -45.3054   -0.5103   16.3829 C   0  0  0  0  0  0
  -47.7244   -0.6578   16.2919 C   0  0  0  0  0  0
  -43.9405   -1.8185   15.0994 C   0  0  0  0  0  0
  -45.4457    0.4921   17.3657 C   0  0  0  0  0  0
  -47.8256    0.3054   17.2344 C   0  0  0  0  0  0
  -46.6700    0.8876   17.7811 C   0  0  0  0  0  0
  -48.8846   -5.9164   17.8283 H   0  0  0  0  0  0
  -50.3838   -4.7034   16.9688 H   0  0  0  0  0  0
  -47.2944   -3.5114   13.9067 H   0  0  0  0  0  0
  1 23  1  0  0  0
  2 14  1  0  0  0
  2 24  1  0  0  0
  3  9  1  0  0  0
  3 10  1  0  0  0
  3 12  1  0  0  0
  3 25  1  0  0  0
  4  8  1  0  0  0
  4 13  1  0  0  0
  4 26  1  0  0  0
  5 18  2  0  0  0
  5 20  1  0  0  0
  6  7  1  0  0  0
  6  8  1  0  0  0
  7  9  1  0  0  0
  8 11  1  0  0  0
 10 14  1  0  0  0
 12 15  1  0  0  0
 13 16  2  0  0  0
 13 17  1  0  0  0
 16 18  1  0  0  0
 16 19  1  0  0  0
 17 20  2  0  0  0
 18 21  1  0  0  0
 19 22  2  0  0  0
 21 23  2  0  0  0
 22 23  1  0  0  0
M  END
>  <CHROM.0>
57.04696110,-58.45926019,57.83586740

>  <CHROM.1>
-63.09187695,155.23801869,-163.43897881,76.80918377,-146.68103419,2.12081408
-71.74014045,174.90488115,-70.59125061,68.90575440,-48.18350293,-2.07314191
16.58970373,0.37473760,0.66234608,0.98606468

>  <HEADER>
                                                                          

>  <MASTER>
        0    0    0    0    0    0    0    0   50    0   50    0          

>  <Name>
Hydroxychloroquine.pdb

>  <RI>
-1.82386e+08

>  <Rbt.Current_Directory>
/root/miniconda3/envs/rdock/share/rxdock-2013.1.1_148c5bd1-0/data/ligands/prepped_ligands/Hydroxychloroquine

>  <Rbt.Executable>
rbdock/0.1.0

>  <Rbt.Library>
librxdock.so/0.1.0

>  <Rbt.Parameter_File>
/root/miniconda3/envs/rdock/share/rxdock-2013.1.1_148c5bd1-0/data/scripts/dock.prm

>  <Rbt.Receptor>
def.prm

>  <SCORE>
-17.0922

>  <SCORE.INTER>
-9.42953

>  <SCORE.INTER.CONST>
1

>  <SCORE.INTER.POLAR>
-1.36103

>  <SCORE.INTER.REPUL>
0

>  <SCORE.INTER.ROT>
9

>  <SCORE.INTER.VDW>
-19.202

>  <SCORE.INTER.norm>
-0.40998

>  <SCORE.INTRA>
-6.65644

>  <SCORE.INTRA.DIHEDRAL>
-20.1637

>  <SCORE.INTRA.DIHEDRAL.0>
26.0734

>  <SCORE.INTRA.POLAR>
0

>  <SCORE.INTRA.POLAR.0>
0

>  <SCORE.INTRA.REPUL>
0

>  <SCORE.INTRA.REPUL.0>
0

>  <SCORE.INTRA.VDW>
3.4254

>  <SCORE.INTRA.VDW.0>
1.41869

>  <SCORE.INTRA.norm>
-0.28941

>  <SCORE.RESTR>
0

>  <SCORE.RESTR.CAVITY>
0

>  <SCORE.RESTR.norm>
0

>  <SCORE.SYSTEM>
-1.00618

>  <SCORE.SYSTEM.CONST>
0

>  <SCORE.SYSTEM.DIHEDRAL>
0.0488605

>  <SCORE.SYSTEM.VDW>
-1.03061

>  <SCORE.SYSTEM.norm>
-0.0437469

>  <SCORE.heavy>
23

>  <SCORE.norm>
-0.743137

>  <TITLE>
    3652_D                                                                

$$$$
Hydroxychloroquine.pdb
  RxDock  02242112593D
librxdock.so/0.1.0
 26 27  0  0  0  0  0  0  0  0999 V2000
  -42.8978   -2.1536   19.2544 Cl  0  0  0  0  0  0
  -51.4757   -2.7052   18.9015 O   0  0  0  0  0  0
  -52.3064   -4.3640   16.7050 N   0  3  0  0  0  0
  -48.2666   -1.7945   15.1329 N   0  0  0  0  0  0
  -47.2615    0.3084   18.6727 N   0  0  0  0  0  0
  -49.6017   -3.7495   14.2871 C   0  0  0  0  0  0
  -50.9404   -4.4601   14.5449 C   0  0  0  0  0  0
  -49.6199   -2.3146   14.8448 C   0  0  0  0  0  0
  -51.0319   -4.8278   16.0409 C   0  0  0  0  0  0
  -52.4600   -2.8607   16.6764 C   0  0  0  0  0  0
  -50.1928   -1.3953   13.7536 C   0  0  0  0  0  0
  -53.5258   -5.0766   16.1658 C   0  0  0  0  0  0
  -47.9342   -1.1069   16.3064 C   0  0  0  0  0  0
  -51.4604   -2.1233   17.5900 C   0  0  0  0  0  0
  -53.5483   -6.5811   16.5024 C   0  0  0  0  0  0
  -46.7402   -1.3923   16.9943 C   0  0  0  0  0  0
  -48.7446   -0.1327   16.8318 C   0  0  0  0  0  0
  -46.4484   -0.6596   18.1568 C   0  0  0  0  0  0
  -45.8195   -2.3693   16.5558 C   0  0  0  0  0  0
  -48.3886    0.5356   17.9871 C   0  0  0  0  0  0
  -45.2436   -0.9190   18.8433 C   0  0  0  0  0  0
  -44.6738   -2.5948   17.2362 C   0  0  0  0  0  0
  -44.3801   -1.8579   18.3955 C   0  0  0  0  0  0
  -50.7804   -2.2860   19.4955 H   0  0  0  0  0  0
  -52.2374   -4.6014   17.5818 H   0  0  0  0  0  0
  -47.6066   -2.1001   14.6375 H   0  0  0  0  0  0
  1 23  1  0  0  0
  2 14  1  0  0  0
  2 24  1  0  0  0
  3  9  1  0  0  0
  3 10  1  0  0  0
  3 12  1  0  0  0
  3 25  1  0  0  0
  4  8  1  0  0  0
  4 13  1  0  0  0
  4 26  1  0  0  0
  5 18  2  0  0  0
  5 20  1  0  0  0
  6  7  1  0  0  0
  6  8  1  0  0  0
  7  9  1  0  0  0
  8 11  1  0  0  0
 10 14  1  0  0  0
 12 15  1  0  0  0
 13 16  2  0  0  0
 13 17  1  0  0  0
 16 18  1  0  0  0
 16 19  1  0  0  0
 17 20  2  0  0  0
 18 21  1  0  0  0
 19 22  2  0  0  0
 21 23  2  0  0  0
 22 23  1  0  0  0
M  END
>  <CHROM.0>
174.99069467,62.37857266,-57.58103690

>  <CHROM.1>
175.64672054,-61.47519256,-69.81990124,66.39215170,-135.11240660,136.32776982
-73.78761063,156.32446853,128.25361583,-49.90156144,-48.58350591,-2.42302976
16.94112216,-0.31698273,0.31467187,3.10054174

>  <HEADER>
                                                                          

>  <MASTER>
        0    0    0    0    0    0    0    0   50    0   50    0          

>  <Name>
Hydroxychloroquine.pdb

>  <RI>
-1.82386e+08

>  <Rbt.Current_Directory>
/root/miniconda3/envs/rdock/share/rxdock-2013.1.1_148c5bd1-0/data/ligands/prepped_ligands/Hydroxychloroquine

>  <Rbt.Executable>
rbdock/0.1.0

>  <Rbt.Library>
librxdock.so/0.1.0

>  <Rbt.Parameter_File>
/root/miniconda3/envs/rdock/share/rxdock-2013.1.1_148c5bd1-0/data/scripts/dock.prm

>  <Rbt.Receptor>
def.prm

>  <SCORE>
-11.6027

>  <SCORE.INTER>
-3.60399

>  <SCORE.INTER.CONST>
1

>  <SCORE.INTER.POLAR>
0

>  <SCORE.INTER.REPUL>
0

>  <SCORE.INTER.ROT>
9

>  <SCORE.INTER.VDW>
-18.004

>  <SCORE.INTER.norm>
-0.156695

>  <SCORE.INTRA>
-7.05801

>  <SCORE.INTRA.DIHEDRAL>
-10.6797

>  <SCORE.INTRA.DIHEDRAL.0>
26.0734

>  <SCORE.INTRA.POLAR>
-0.0516295

>  <SCORE.INTRA.POLAR.0>
0

>  <SCORE.INTRA.REPUL>
0

>  <SCORE.INTRA.REPUL.0>
0

>  <SCORE.INTRA.VDW>
-1.54261

>  <SCORE.INTRA.VDW.0>
1.41869

>  <SCORE.INTRA.norm>
-0.30687

>  <SCORE.RESTR>
0.00223783

>  <SCORE.RESTR.CAVITY>
0.00223783

>  <SCORE.RESTR.norm>
9.7297e-05

>  <SCORE.SYSTEM>
-0.942899

>  <SCORE.SYSTEM.CONST>
0

>  <SCORE.SYSTEM.DIHEDRAL>
0.105752

>  <SCORE.SYSTEM.POLAR>
-0.00651462

>  <SCORE.SYSTEM.VDW>
-0.973626

>  <SCORE.SYSTEM.norm>
-0.0409956

>  <SCORE.heavy>
23

>  <SCORE.norm>
-0.504463

>  <TITLE>
    3652_D                                                                

$$$$
Hydroxychloroquine.pdb
  RxDock  02242112593D
librxdock.so/0.1.0
 26 27  0  0  0  0  0  0  0  0999 V2000
  -51.6665   -8.4350   19.6816 Cl  0  0  0  0  0  0
  -43.4614   -2.3554   16.9591 O   0  0  0  0  0  0
  -46.7911   -0.5789   17.3741 N   0  3  0  0  0  0
  -49.4791   -4.3250   14.7558 N   0  0  0  0  0  0
  -52.8140   -4.1055   17.3620 N   0  0  0  0  0  0
  -48.5157   -2.0732   15.3227 C   0  0  0  0  0  0
  -47.3274   -1.1738   14.9452 C   0  0  0  0  0  0
  -48.7745   -3.1337   14.2370 C   0  0  0  0  0  0
  -47.1813   -0.0651   16.0087 C   0  0  0  0  0  0
  -45.3094   -0.8553   17.4867 C   0  0  0  0  0  0
  -49.7200   -2.5152   13.1941 C   0  0  0  0  0  0
  -47.2958    0.3109   18.4872 C   0  0  0  0  0  0
  -50.5835   -4.2597   15.6139 C   0  0  0  0  0  0
  -44.8789   -2.1789   16.8233 C   0  0  0  0  0  0
  -48.8342    0.3938   18.5480 C   0  0  0  0  0  0
  -50.8244   -5.2770   16.5559 C   0  0  0  0  0  0
  -51.4691   -3.2125   15.5797 C   0  0  0  0  0  0
  -51.9376   -5.1516   17.4035 C   0  0  0  0  0  0
  -49.9866   -6.4055   16.6942 C   0  0  0  0  0  0
  -52.5463   -3.1694   16.4433 C   0  0  0  0  0  0
  -52.1777   -6.1524   18.3684 C   0  0  0  0  0  0
  -50.2440   -7.3477   17.6281 C   0  0  0  0  0  0
  -51.3541   -7.2188   18.4792 C   0  0  0  0  0  0
  -43.1535   -3.2005   16.5086 H   0  0  0  0  0  0
  -47.2130   -1.3799   17.4748 H   0  0  0  0  0  0
  -49.3184   -5.0914   14.3543 H   0  0  0  0  0  0
  1 23  1  0  0  0
  2 14  1  0  0  0
  2 24  1  0  0  0
  3  9  1  0  0  0
  3 10  1  0  0  0
  3 12  1  0  0  0
  3 25  1  0  0  0
  4  8  1  0  0  0
  4 13  1  0  0  0
  4 26  1  0  0  0
  5 18  2  0  0  0
  5 20  1  0  0  0
  6  7  1  0  0  0
  6  8  1  0  0  0
  7  9  1  0  0  0
  8 11  1  0  0  0
 10 14  1  0  0  0
 12 15  1  0  0  0
 13 16  2  0  0  0
 13 17  1  0  0  0
 16 18  1  0  0  0
 16 19  1  0  0  0
 17 20  2  0  0  0
 18 21  1  0  0  0
 19 22  2  0  0  0
 21 23  2  0  0  0
 22 23  1  0  0  0
M  END
>  <CHROM.0>
60.78484000,-179.31967792,52.90620410

>  <CHROM.1>
-178.28953513,80.36044926,-77.91127367,62.72412216,44.62199506,-149.41240952
175.64675372,156.15909410,66.00514874,179.22363996,-49.28822914,-3.66705662
16.87102032,-2.38390246,-0.44698999,-0.69282057

>  <HEADER>
                                                                          

>  <MASTER>
        0    0    0    0    0    0    0    0   50    0   50    0          

>  <Name>
Hydroxychloroquine.pdb

>  <RI>
-1.82386e+08

>  <Rbt.Current_Directory>
/root/miniconda3/envs/rdock/share/rxdock-2013.1.1_148c5bd1-0/data/ligands/prepped_ligands/Hydroxychloroquine

>  <Rbt.Executable>
rbdock/0.1.0

>  <Rbt.Library>
librxdock.so/0.1.0

>  <Rbt.Parameter_File>
/root/miniconda3/envs/rdock/share/rxdock-2013.1.1_148c5bd1-0/data/scripts/dock.prm

>  <Rbt.Receptor>
def.prm

>  <SCORE>
-13.3925

>  <SCORE.INTER>
-6.32303

>  <SCORE.INTER.CONST>
1

>  <SCORE.INTER.POLAR>
-0.879017

>  <SCORE.INTER.REPUL>
0.0207227

>  <SCORE.INTER.ROT>
9

>  <SCORE.INTER.VDW>
-17.838

>  <SCORE.INTER.norm>
-0.274914

>  <SCORE.INTRA>
-6.05836

>  <SCORE.INTRA.DIHEDRAL>
-13.1213

>  <SCORE.INTRA.DIHEDRAL.0>
26.0734

>  <SCORE.INTRA.POLAR>
0

>  <SCORE.INTRA.POLAR.0>
0

>  <SCORE.INTRA.REPUL>
0

>  <SCORE.INTRA.REPUL.0>
0

>  <SCORE.INTRA.VDW>
0.502285

>  <SCORE.INTRA.VDW.0>
1.41869

>  <SCORE.INTRA.norm>
-0.263407

>  <SCORE.RESTR>
0

>  <SCORE.RESTR.CAVITY>
0

>  <SCORE.RESTR.norm>
0

>  <SCORE.SYSTEM>
-1.01112

>  <SCORE.SYSTEM.CONST>
0

>  <SCORE.SYSTEM.DIHEDRAL>
0.131814

>  <SCORE.SYSTEM.VDW>
-1.07703

>  <SCORE.SYSTEM.norm>
-0.0439617

>  <SCORE.heavy>
23

>  <SCORE.norm>
-0.582283

>  <TITLE>
    3652_D                                                                

$$$$
Hydroxychloroquine.pdb
  RxDock  02242112593D
librxdock.so/0.1.0
 26 27  0  0  0  0  0  0  0  0999 V2000
  -44.7505   -0.8606   20.9290 Cl  0  0  0  0  0  0
  -53.0306   -3.8286   14.3062 O   0  0  0  0  0  0
  -51.5764   -5.2613   16.3716 N   0  3  0  0  0  0
  -46.7693   -1.5751   14.4983 N   0  0  0  0  0  0
  -42.9704   -1.9555   16.3383 N   0  0  0  0  0  0
  -48.7308   -3.1093   14.8431 C   0  0  0  0  0  0
  -49.8075   -3.4821   15.8752 C   0  0  0  0  0  0
  -48.0483   -1.7791   15.2106 C   0  0  0  0  0  0
  -50.5357   -4.7572   15.4004 C   0  0  0  0  0  0
  -52.7901   -5.8320   15.6747 C   0  0  0  0  0  0
  -48.9672   -0.6372   14.7463 C   0  0  0  0  0  0
  -50.9957   -6.2170   17.3890 C   0  0  0  0  0  0
  -45.5148   -1.6931   15.1088 C   0  0  0  0  0  0
  -53.7508   -4.7546   15.1326 C   0  0  0  0  0  0
  -51.9645   -6.5351   18.5455 C   0  0  0  0  0  0
  -45.3624   -1.4698   16.4898 C   0  0  0  0  0  0
  -44.3905   -2.0311   14.3991 C   0  0  0  0  0  0
  -44.0841   -1.6189   17.0528 C   0  0  0  0  0  0
  -46.4409   -1.1198   17.3317 C   0  0  0  0  0  0
  -43.1663   -2.1482   15.0282 C   0  0  0  0  0  0
  -43.9214   -1.4211   18.4401 C   0  0  0  0  0  0
  -46.2524   -0.9364   18.6572 C   0  0  0  0  0  0
  -44.9749   -1.0912   19.2205 C   0  0  0  0  0  0
  -53.6535   -3.1797   13.8559 H   0  0  0  0  0  0
  -51.8632   -4.5333   16.8380 H   0  0  0  0  0  0
  -46.7970   -1.5729   13.6187 H   0  0  0  0  0  0
  1 23  1  0  0  0
  2 14  1  0  0  0
  2 24  1  0  0  0
  3  9  1  0  0  0
  3 10  1  0  0  0
  3 12  1  0  0  0
  3 25  1  0  0  0
  4  8  1  0  0  0
  4 13  1  0  0  0
  4 26  1  0  0  0
  5 18  2  0  0  0
  5 20  1  0  0  0
  6  7  1  0  0  0
  6  8  1  0  0  0
  7  9  1  0  0  0
  8 11  1  0  0  0
 10 14  1  0  0  0
 12 15  1  0  0  0
 13 16  2  0  0  0
 13 17  1  0  0  0
 16 18  1  0  0  0
 16 19  1  0  0  0
 17 20  2  0  0  0
 18 21  1  0  0  0
 19 22  2  0  0  0
 21 23  2  0  0  0
 22 23  1  0  0  0
M  END
>  <CHROM.0>
-53.42512271,-176.81049345,-173.09570757

>  <CHROM.1>
173.41653822,143.36467794,-77.55028807,169.02065614,-106.18052239,-26.48015500
175.44597441,163.23675766,177.18312429,53.16482838,-47.76529335,-2.73203158
16.63837334,0.19432175,0.46823550,1.67327125

>  <HEADER>
                                                                          

>  <MASTER>
        0    0    0    0    0    0    0    0   50    0   50    0          

>  <Name>
Hydroxychloroquine.pdb

>  <RI>
-1.82386e+08

>  <Rbt.Current_Directory>
/root/miniconda3/envs/rdock/share/rxdock-2013.1.1_148c5bd1-0/data/ligands/prepped_ligands/Hydroxychloroquine

>  <Rbt.Executable>
rbdock/0.1.0

>  <Rbt.Library>
librxdock.so/0.1.0

>  <Rbt.Parameter_File>
/root/miniconda3/envs/rdock/share/rxdock-2013.1.1_148c5bd1-0/data/scripts/dock.prm

>  <Rbt.Receptor>
def.prm

>  <SCORE>
-20.0702

>  <SCORE.INTER>
-11.4974

>  <SCORE.INTER.CONST>
1

>  <SCORE.INTER.POLAR>
-1.78548

>  <SCORE.INTER.REPUL>
0

>  <SCORE.INTER.ROT>
9

>  <SCORE.INTER.VDW>
-19.8268

>  <SCORE.INTER.norm>
-0.499887

>  <SCORE.INTRA>
-7.61894

>  <SCORE.INTRA.DIHEDRAL>
-16.9985

>  <SCORE.INTRA.DIHEDRAL.0>
26.0734

>  <SCORE.INTRA.POLAR>
0

>  <SCORE.INTRA.POLAR.0>
0

>  <SCORE.INTRA.REPUL>
0

>  <SCORE.INTRA.REPUL.0>
0

>  <SCORE.INTRA.VDW>
0.880328

>  <SCORE.INTRA.VDW.0>
1.41869

>  <SCORE.INTRA.norm>
-0.331258

>  <SCORE.RESTR>
0

>  <SCORE.RESTR.CAVITY>
0

>  <SCORE.RESTR.norm>
0

>  <SCORE.SYSTEM>
-0.9539

>  <SCORE.SYSTEM.CONST>
0

>  <SCORE.SYSTEM.DIHEDRAL>
0.261958

>  <SCORE.SYSTEM.POLAR>
-0.0149031

>  <SCORE.SYSTEM.VDW>
-1.03421

>  <SCORE.SYSTEM.norm>
-0.0414739

>  <SCORE.heavy>
23

>  <SCORE.norm>
-0.87262

>  <TITLE>
    3652_D                                                                

$$$$
Hydroxychloroquine.pdb
  RxDock  02242112593D
librxdock.so/0.1.0
 26 27  0  0  0  0  0  0  0  0999 V2000
  -49.0354   -0.9778   20.6117 Cl  0  0  0  0  0  0
  -47.2975   -6.0150   18.3380 O   0  0  0  0  0  0
  -50.0481   -4.7410   16.0557 N   0  3  0  0  0  0
  -47.5863   -0.6309   13.9996 N   0  0  0  0  0  0
  -45.1174   -0.8483   17.4376 N   0  0  0  0  0  0
  -49.5315   -2.0604   13.2977 C   0  0  0  0  0  0
  -49.1955   -3.3260   14.1032 C   0  0  0  0  0  0
  -49.0550   -0.7939   14.0319 C   0  0  0  0  0  0
  -50.2142   -3.4726   15.2530 C   0  0  0  0  0  0
  -48.7768   -4.7462   16.8732 C   0  0  0  0  0  0
  -49.6229    0.4231   13.2832 C   0  0  0  0  0  0
  -51.2690   -5.0555   16.8899 C   0  0  0  0  0  0
  -46.7740   -0.6958   15.1382 C   0  0  0  0  0  0
  -48.4391   -6.1247   17.4756 C   0  0  0  0  0  0
  -52.4953   -5.4550   16.0450 C   0  0  0  0  0  0
  -47.3411   -0.7418   16.4253 C   0  0  0  0  0  0
  -45.4050   -0.7211   15.0535 C   0  0  0  0  0  0
  -46.4793   -0.8239   17.5316 C   0  0  0  0  0  0
  -48.7356   -0.7257   16.6479 C   0  0  0  0  0  0
  -44.6276   -0.7932   16.1930 C   0  0  0  0  0  0
  -47.0348   -0.8944   18.8265 C   0  0  0  0  0  0
  -49.2369   -0.7939   17.9010 C   0  0  0  0  0  0
  -48.3747   -0.8816   19.0065 C   0  0  0  0  0  0
  -47.0865   -6.8943   18.7787 H   0  0  0  0  0  0
  -49.9701   -5.4170   15.4501 H   0  0  0  0  0  0
  -47.1941   -0.6910   13.2140 H   0  0  0  0  0  0
  1 23  1  0  0  0
  2 14  1  0  0  0
  2 24  1  0  0  0
  3  9  1  0  0  0
  3 10  1  0  0  0
  3 12  1  0  0  0
  3 25  1  0  0  0
  4  8  1  0  0  0
  4 13  1  0  0  0
  4 26  1  0  0  0
  5 18  2  0  0  0
  5 20  1  0  0  0
  6  7  1  0  0  0
  6  8  1  0  0  0
  7  9  1  0  0  0
  8 11  1  0  0  0
 10 14  1  0  0  0
 12 15  1  0  0  0
 13 16  2  0  0  0
 13 17  1  0  0  0
 16 18  1  0  0  0
 16 19  1  0  0  0
 17 20  2  0  0  0
 18 21  1  0  0  0
 19 22  2  0  0  0
 21 23  2  0  0  0
 22 23  1  0  0  0
M  END
>  <CHROM.0>
-66.86632955,179.82412978,-66.49479093

>  <CHROM.1>
177.16471907,68.75704189,-168.44634965,68.59477765,-114.19187553,-8.80171091
77.59910500,72.79038473,175.66846886,-174.41562454,-48.43101397,-2.23721391
16.61540039,-0.19736044,0.90305268,1.84636650

>  <HEADER>
                                                                          

>  <MASTER>
        0    0    0    0    0    0    0    0   50    0   50    0          

>  <Name>
Hydroxychloroquine.pdb

>  <RI>
-1.82386e+08

>  <Rbt.Current_Directory>
/root/miniconda3/envs/rdock/share/rxdock-2013.1.1_148c5bd1-0/data/ligands/prepped_ligands/Hydroxychloroquine

>  <Rbt.Executable>
rbdock/0.1.0

>  <Rbt.Library>
librxdock.so/0.1.0

>  <Rbt.Parameter_File>
/root/miniconda3/envs/rdock/share/rxdock-2013.1.1_148c5bd1-0/data/scripts/dock.prm

>  <Rbt.Receptor>
def.prm

>  <SCORE>
-19.3644

>  <SCORE.INTER>
-8.79258

>  <SCORE.INTER.CONST>
1

>  <SCORE.INTER.POLAR>
-1.30143

>  <SCORE.INTER.REPUL>
0

>  <SCORE.INTER.ROT>
9

>  <SCORE.INTER.VDW>
-18.7677

>  <SCORE.INTER.norm>
-0.382286

>  <SCORE.INTRA>
-9.61026

>  <SCORE.INTRA.DIHEDRAL>
-20.4767

>  <SCORE.INTRA.DIHEDRAL.0>
26.0734

>  <SCORE.INTRA.POLAR>
0

>  <SCORE.INTRA.POLAR.0>
0

>  <SCORE.INTRA.REPUL>
0

>  <SCORE.INTRA.REPUL.0>
0

>  <SCORE.INTRA.VDW>
0.628082

>  <SCORE.INTRA.VDW.0>
1.41869

>  <SCORE.INTRA.norm>
-0.417838

>  <SCORE.RESTR>
0

>  <SCORE.RESTR.CAVITY>
0

>  <SCORE.RESTR.norm>
0

>  <SCORE.SYSTEM>
-0.961526

>  <SCORE.SYSTEM.CONST>
0

>  <SCORE.SYSTEM.DIHEDRAL>
0.228667

>  <SCORE.SYSTEM.VDW>
-1.07586

>  <SCORE.SYSTEM.norm>
-0.0418055

>  <SCORE.heavy>
23

>  <SCORE.norm>
-0.841929

>  <TITLE>
    3652_D                                                                

$$$$
Hydroxychloroquine.pdb
  RxDock  02242112593D
librxdock.so/0.1.0
 26 27  0  0  0  0  0  0  0  0999 V2000
  -56.6322   -7.5770   13.7744 Cl  0  0  0  0  0  0
  -43.2017   -2.2110   16.8612 O   0  0  0  0  0  0
  -46.9110   -1.4198   16.6867 N   0  3  0  0  0  0
  -51.1766   -4.6908   16.5756 N   0  0  0  0  0  0
  -53.0481   -8.4389   17.2172 N   0  0  0  0  0  0
  -49.5232   -3.7040   14.9594 C   0  0  0  0  0  0
  -48.9503   -2.8476   16.1005 C   0  0  0  0  0  0
  -50.9871   -4.0906   15.2382 C   0  0  0  0  0  0
  -47.5081   -2.4336   15.7400 C   0  0  0  0  0  0
  -45.4191   -1.2635   16.5016 C   0  0  0  0  0  0
  -51.8200   -2.7982   15.2428 C   0  0  0  0  0  0
  -47.6378   -0.0950   16.6406 C   0  0  0  0  0  0
  -51.8019   -5.9252   16.7895 C   0  0  0  0  0  0
  -44.6027   -2.4430   17.0670 C   0  0  0  0  0  0
  -47.4064    0.7686   17.8967 C   0  0  0  0  0  0
  -52.9590   -6.2800   16.0717 C   0  0  0  0  0  0
  -51.3197   -6.8365   17.6946 C   0  0  0  0  0  0
  -53.5349   -7.5382   16.3139 C   0  0  0  0  0  0
  -53.5524   -5.4331   15.1099 C   0  0  0  0  0  0
  -51.9519   -8.0505   17.8803 C   0  0  0  0  0  0
  -54.6816   -7.9165   15.5843 C   0  0  0  0  0  0
  -54.6515   -5.8242   14.4279 C   0  0  0  0  0  0
  -55.2236   -7.0848   14.6665 C   0  0  0  0  0  0
  -42.8833   -1.4116   17.3823 H   0  0  0  0  0  0
  -47.0352   -1.7514   17.5261 H   0  0  0  0  0  0
  -50.7060   -4.3511   17.2370 H   0  0  0  0  0  0
  1 23  1  0  0  0
  2 14  1  0  0  0
  2 24  1  0  0  0
  3  9  1  0  0  0
  3 10  1  0  0  0
  3 12  1  0  0  0
  3 25  1  0  0  0
  4  8  1  0  0  0
  4 13  1  0  0  0
  4 26  1  0  0  0
  5 18  2  0  0  0
  5 20  1  0  0  0
  6  7  1  0  0  0
  6  8  1  0  0  0
  7  9  1  0  0  0
  8 11  1  0  0  0
 10 14  1  0  0  0
 12 15  1  0  0  0
 13 16  2  0  0  0
 13 17  1  0  0  0
 16 18  1  0  0  0
 16 19  1  0  0  0
 17 20  2  0  0  0
 18 21  1  0  0  0
 19 22  2  0  0  0
 21 23  2  0  0  0
 22 23  1  0  0  0
M  END
>  <CHROM.0>
58.12247611,179.27590668,177.98405705

>  <CHROM.1>
64.71461035,167.23651409,-74.45983004,159.51993975,-126.72237705,-41.39170082
-177.34905591,-51.35454777,171.34665003,-179.51435585,-50.82313826,-4.58363564
16.00689564,2.68232067,0.40527281,2.74324968

>  <HEADER>
                                                                          

>  <MASTER>
        0    0    0    0    0    0    0    0   50    0   50    0          

>  <Name>
Hydroxychloroquine.pdb

>  <RI>
-1.82386e+08

>  <Rbt.Current_Directory>
/root/miniconda3/envs/rdock/share/rxdock-2013.1.1_148c5bd1-0/data/ligands/prepped_ligands/Hydroxychloroquine

>  <Rbt.Executable>
rbdock/0.1.0

>  <Rbt.Library>
librxdock.so/0.1.0

>  <Rbt.Parameter_File>
/root/miniconda3/envs/rdock/share/rxdock-2013.1.1_148c5bd1-0/data/scripts/dock.prm

>  <Rbt.Receptor>
def.prm

>  <SCORE>
-15.4224

>  <SCORE.INTER>
-6.85296

>  <SCORE.INTER.CONST>
1

>  <SCORE.INTER.POLAR>
-0.0258141

>  <SCORE.INTER.REPUL>
0.00128127

>  <SCORE.INTER.ROT>
9

>  <SCORE.INTER.VDW>
-21.1716

>  <SCORE.INTER.norm>
-0.297955

>  <SCORE.INTRA>
-7.49266

>  <SCORE.INTRA.DIHEDRAL>
-17.8594

>  <SCORE.INTRA.DIHEDRAL.0>
26.0734

>  <SCORE.INTRA.POLAR>
0

>  <SCORE.INTRA.POLAR.0>
0

>  <SCORE.INTRA.REPUL>
0

>  <SCORE.INTRA.REPUL.0>
0

>  <SCORE.INTRA.VDW>
1.43705

>  <SCORE.INTRA.VDW.0>
1.41869

>  <SCORE.INTRA.norm>
-0.325768

>  <SCORE.RESTR>
0

>  <SCORE.RESTR.CAVITY>
0

>  <SCORE.RESTR.norm>
0

>  <SCORE.SYSTEM>
-1.07674

>  <SCORE.SYSTEM.CONST>
0

>  <SCORE.SYSTEM.DIHEDRAL>
0.0245228

>  <SCORE.SYSTEM.VDW>
-1.089

>  <SCORE.SYSTEM.norm>
-0.0468148

>  <SCORE.heavy>
23

>  <SCORE.norm>
-0.670538

>  <TITLE>
    3652_D                                                                

$$$$
Hydroxychloroquine.pdb
  RxDock  02242113003D
librxdock.so/0.1.0
 26 27  0  0  0  0  0  0  0  0999 V2000
  -42.4253   -1.5512   18.9227 Cl  0  0  0  0  0  0
  -49.2129   -7.4902   18.3711 O   0  0  0  0  0  0
  -51.0790   -5.7163   15.5810 N   0  3  0  0  0  0
  -48.0754   -1.0995   15.2061 N   0  0  0  0  0  0
  -47.0877    0.3688   19.0572 N   0  0  0  0  0  0
  -49.9354   -2.3380   14.0545 C   0  0  0  0  0  0
  -50.2085   -3.3444   15.1843 C   0  0  0  0  0  0
  -49.4273   -0.9981   14.6172 C   0  0  0  0  0  0
  -50.6499   -4.6864   14.5633 C   0  0  0  0  0  0
  -49.9929   -6.0242   16.5860 C   0  0  0  0  0  0
  -49.2937   -0.0168   13.4410 C   0  0  0  0  0  0
  -52.3895   -5.3563   16.2432 C   0  0  0  0  0  0
  -47.7476   -0.6221   16.4809 C   0  0  0  0  0  0
  -50.2665   -7.2940   17.4168 C   0  0  0  0  0  0
  -53.5799   -5.3379   15.2635 C   0  0  0  0  0  0
  -46.4820   -0.8763   17.0413 C   0  0  0  0  0  0
  -48.6320    0.1096   17.2322 C   0  0  0  0  0  0
  -46.2007   -0.3585   18.3165 C   0  0  0  0  0  0
  -45.4820   -1.6133   16.3696 C   0  0  0  0  0  0
  -48.2797    0.5751   18.4840 C   0  0  0  0  0  0
  -44.9277   -0.5856   18.8804 C   0  0  0  0  0  0
  -44.2722   -1.8144   16.9371 C   0  0  0  0  0  0
  -43.9896   -1.2915   18.2100 C   0  0  0  0  0  0
  -49.1262   -6.6999   18.9874 H   0  0  0  0  0  0
  -51.2290   -6.4856   15.1168 H   0  0  0  0  0  0
  -47.5109   -1.6530   14.8195 H   0  0  0  0  0  0
  1 23  1  0  0  0
  2 14  1  0  0  0
  2 24  1  0  0  0
  3  9  1  0  0  0
  3 10  1  0  0  0
  3 12  1  0  0  0
  3 25  1  0  0  0
  4  8  1  0  0  0
  4 13  1  0  0  0
  4 26  1  0  0  0
  5 18  2  0  0  0
  5 20  1  0  0  0
  6  7  1  0  0  0
  6  8  1  0  0  0
  7  9  1  0  0  0
  8 11  1  0  0  0
 10 14  1  0  0  0
 12 15  1  0  0  0
 13 16  2  0  0  0
 13 17  1  0  0  0
 16 18  1  0  0  0
 16 19  1  0  0  0
 17 20  2  0  0  0
 18 21  1  0  0  0
 19 22  2  0  0  0
 21 23  2  0  0  0
 22 23  1  0  0  0
M  END
>  <CHROM.0>
176.58868056,-61.55847643,-62.28053830

>  <CHROM.1>
58.63170242,-57.81529418,-166.13331418,64.49428880,-129.87277404,173.11684564
-177.35333478,68.53088571,-174.27026090,-178.20510115,-47.98552205,-2.55913191
16.73892395,-0.39485214,0.51908590,2.78000070

>  <HEADER>
                                                                          

>  <MASTER>
        0    0    0    0    0    0    0    0   50    0   50    0          

>  <Name>
Hydroxychloroquine.pdb

>  <RI>
-1.82386e+08

>  <Rbt.Current_Directory>
/root/miniconda3/envs/rdock/share/rxdock-2013.1.1_148c5bd1-0/data/ligands/prepped_ligands/Hydroxychloroquine

>  <Rbt.Executable>
rbdock/0.1.0

>  <Rbt.Library>
librxdock.so/0.1.0

>  <Rbt.Parameter_File>
/root/miniconda3/envs/rdock/share/rxdock-2013.1.1_148c5bd1-0/data/scripts/dock.prm

>  <Rbt.Receptor>
def.prm

>  <SCORE>
-22.2222

>  <SCORE.INTER>
-9.52305

>  <SCORE.INTER.CONST>
1

>  <SCORE.INTER.POLAR>
-1.27279

>  <SCORE.INTER.REPUL>
0.00475645

>  <SCORE.INTER.ROT>
9

>  <SCORE.INTER.VDW>
-19.6193

>  <SCORE.INTER.norm>
-0.414046

>  <SCORE.INTRA>
-11.6565

>  <SCORE.INTRA.DIHEDRAL>
-23.1152

>  <SCORE.INTRA.DIHEDRAL.0>
26.0734

>  <SCORE.INTRA.POLAR>
0

>  <SCORE.INTRA.POLAR.0>
0

>  <SCORE.INTRA.REPUL>
0

>  <SCORE.INTRA.REPUL.0>
0

>  <SCORE.INTRA.VDW>
-0.0989035

>  <SCORE.INTRA.VDW.0>
1.41869

>  <SCORE.INTRA.norm>
-0.506803

>  <SCORE.RESTR>
0

>  <SCORE.RESTR.CAVITY>
0

>  <SCORE.RESTR.norm>
0

>  <SCORE.SYSTEM>
-1.04265

>  <SCORE.SYSTEM.CONST>
0

>  <SCORE.SYSTEM.DIHEDRAL>
0.0579962

>  <SCORE.SYSTEM.VDW>
-1.07165

>  <SCORE.SYSTEM.norm>
-0.0453326

>  <SCORE.heavy>
23

>  <SCORE.norm>
-0.966182

>  <TITLE>
    3652_D                                                                

$$$$
Hydroxychloroquine.pdb
  RxDock  02242113003D
librxdock.so/0.1.0
 26 27  0  0  0  0  0  0  0  0999 V2000
  -47.9123   -7.8849   17.5944 Cl  0  0  0  0  0  0
  -44.2258    2.1537   19.0696 O   0  0  0  0  0  0
  -46.5714   -0.1662   17.1904 N   0  3  0  0  0  0
  -51.9538   -2.8668   15.4908 N   0  0  0  0  0  0
  -52.7780   -6.8071   16.8163 N   0  0  0  0  0  0
  -50.1016   -1.2480   16.0091 C   0  0  0  0  0  0
  -48.5761   -1.0919   15.8999 C   0  0  0  0  0  0
  -50.6072   -2.3910   15.1101 C   0  0  0  0  0  0
  -48.0760   -0.2274   17.0764 C   0  0  0  0  0  0
  -46.1069    0.9036   18.1518 C   0  0  0  0  0  0
  -50.7525   -1.8357   13.6837 C   0  0  0  0  0  0
  -45.9644   -1.5165   17.4963 C   0  0  0  0  0  0
  -52.2214   -4.1715   15.9227 C   0  0  0  0  0  0
  -44.5825    1.1335   18.1258 C   0  0  0  0  0  0
  -45.6957   -2.3613   16.2348 C   0  0  0  0  0  0
  -51.1748   -5.0357   16.2942 C   0  0  0  0  0  0
  -53.5002   -4.6611   16.0065 C   0  0  0  0  0  0
  -51.5019   -6.3283   16.7365 C   0  0  0  0  0  0
  -49.8161   -4.6522   16.2565 C   0  0  0  0  0  0
  -53.7363   -5.9500   16.4434 C   0  0  0  0  0  0
  -50.4641   -7.1972   17.1343 C   0  0  0  0  0  0
  -48.8447   -5.5081   16.6436 C   0  0  0  0  0  0
  -49.1729   -6.7986   17.0911 C   0  0  0  0  0  0
  -43.2328    2.3146   19.0760 H   0  0  0  0  0  0
  -46.2633    0.0730   16.3672 H   0  0  0  0  0  0
  -52.5684   -2.2540   15.6368 H   0  0  0  0  0  0
  1 23  1  0  0  0
  2 14  1  0  0  0
  2 24  1  0  0  0
  3  9  1  0  0  0
  3 10  1  0  0  0
  3 12  1  0  0  0
  3 25  1  0  0  0
  4  8  1  0  0  0
  4 13  1  0  0  0
  4 26  1  0  0  0
  5 18  2  0  0  0
  5 20  1  0  0  0
  6  7  1  0  0  0
  6  8  1  0  0  0
  7  9  1  0  0  0
  8 11  1  0  0  0
 10 14  1  0  0  0
 12 15  1  0  0  0
 13 16  2  0  0  0
 13 17  1  0  0  0
 16 18  1  0  0  0
 16 19  1  0  0  0
 17 20  2  0  0  0
 18 21  1  0  0  0
 19 22  2  0  0  0
 21 23  2  0  0  0
 22 23  1  0  0  0
M  END
>  <CHROM.0>
-178.95605907,178.80042628,174.76020725

>  <CHROM.1>
179.46075441,167.90679365,-171.16837779,85.97540767,-117.95403654,13.75938998
-164.56664981,161.48494069,171.71983616,-179.61338388,-49.10158208,-3.37827298
16.70809841,-2.32604110,-0.37175220,-0.15464796

>  <HEADER>
                                                                          

>  <MASTER>
        0    0    0    0    0    0    0    0   50    0   50    0          

>  <Name>
Hydroxychloroquine.pdb

>  <RI>
-1.82386e+08

>  <Rbt.Current_Directory>
/root/miniconda3/envs/rdock/share/rxdock-2013.1.1_148c5bd1-0/data/ligands/prepped_ligands/Hydroxychloroquine

>  <Rbt.Executable>
rbdock/0.1.0

>  <Rbt.Library>
librxdock.so/0.1.0

>  <Rbt.Parameter_File>
/root/miniconda3/envs/rdock/share/rxdock-2013.1.1_148c5bd1-0/data/scripts/dock.prm

>  <Rbt.Receptor>
def.prm

>  <SCORE>
-14.0444

>  <SCORE.INTER>
-6.51152

>  <SCORE.INTER.CONST>
1

>  <SCORE.INTER.POLAR>
0

>  <SCORE.INTER.REPUL>
0

>  <SCORE.INTER.ROT>
9

>  <SCORE.INTER.VDW>
-20.9115

>  <SCORE.INTER.norm>
-0.283109

>  <SCORE.INTRA>
-6.48113

>  <SCORE.INTRA.DIHEDRAL>
-17.4769

>  <SCORE.INTRA.DIHEDRAL.0>
26.0734

>  <SCORE.INTRA.POLAR>
0

>  <SCORE.INTRA.POLAR.0>
0

>  <SCORE.INTRA.REPUL>
0

>  <SCORE.INTRA.REPUL.0>
0

>  <SCORE.INTRA.VDW>
2.25733

>  <SCORE.INTRA.VDW.0>
1.41869

>  <SCORE.INTRA.norm>
-0.281788

>  <SCORE.RESTR>
0

>  <SCORE.RESTR.CAVITY>
0

>  <SCORE.RESTR.norm>
0

>  <SCORE.SYSTEM>
-1.05181

>  <SCORE.SYSTEM.CONST>
0

>  <SCORE.SYSTEM.DIHEDRAL>
0.0807524

>  <SCORE.SYSTEM.VDW>
-1.09218

>  <SCORE.SYSTEM.norm>
-0.0457307

>  <SCORE.heavy>
23

>  <SCORE.norm>
-0.610628

>  <TITLE>
    3652_D                                                                

$$$$
Hydroxychloroquine.pdb
  RxDock  02242113003D
librxdock.so/0.1.0
 26 27  0  0  0  0  0  0  0  0999 V2000
  -43.3414    1.5678   19.1173 Cl  0  0  0  0  0  0
  -51.4895   -6.2950   18.2413 O   0  0  0  0  0  0
  -53.1039   -6.0658   15.5900 N   0  3  0  0  0  0
  -47.6459   -3.2530   17.0748 N   0  0  0  0  0  0
  -44.2651   -1.4961   15.2184 N   0  0  0  0  0  0
  -49.9496   -4.0373   16.4440 C   0  0  0  0  0  0
  -50.7240   -5.1353   15.6969 C   0  0  0  0  0  0
  -48.4398   -4.3382   16.4609 C   0  0  0  0  0  0
  -52.2361   -4.8508   15.8162 C   0  0  0  0  0  0
  -53.4526   -6.7758   16.8780 C   0  0  0  0  0  0
  -48.2176   -5.5697   17.3543 C   0  0  0  0  0  0
  -54.3265   -5.7501   14.7587 C   0  0  0  0  0  0
  -46.5326   -2.6652   16.4620 C   0  0  0  0  0  0
  -52.2264   -7.3536   17.6127 C   0  0  0  0  0  0
  -55.0881   -7.0086   14.2967 C   0  0  0  0  0  0
  -45.8073   -1.6484   17.1104 C   0  0  0  0  0  0
  -46.0999   -3.0506   15.2186 C   0  0  0  0  0  0
  -44.6883   -1.1063   16.4566 C   0  0  0  0  0  0
  -46.1473   -1.1649   18.3929 C   0  0  0  0  0  0
  -44.9936   -2.4592   14.6405 C   0  0  0  0  0  0
  -43.9381   -0.1028   17.1050 C   0  0  0  0  0  0
  -45.4088   -0.2018   18.9874 C   0  0  0  0  0  0
  -44.2866    0.3358   18.3354 C   0  0  0  0  0  0
  -52.0292   -5.8550   18.9673 H   0  0  0  0  0  0
  -52.6037   -6.6481   15.0997 H   0  0  0  0  0  0
  -48.0051   -2.8324   17.7593 H   0  0  0  0  0  0
  1 23  1  0  0  0
  2 14  1  0  0  0
  2 24  1  0  0  0
  3  9  1  0  0  0
  3 10  1  0  0  0
  3 12  1  0  0  0
  3 25  1  0  0  0
  4  8  1  0  0  0
  4 13  1  0  0  0
  4 26  1  0  0  0
  5 18  2  0  0  0
  5 20  1  0  0  0
  6  7  1  0  0  0
  6  8  1  0  0  0
  7  9  1  0  0  0
  8 11  1  0  0  0
 10 14  1  0  0  0
 12 15  1  0  0  0
 13 16  2  0  0  0
 13 17  1  0  0  0
 16 18  1  0  0  0
 16 19  1  0  0  0
 17 20  2  0  0  0
 18 21  1  0  0  0
 19 22  2  0  0  0
 21 23  2  0  0  0
 22 23  1  0  0  0
M  END
>  <CHROM.0>
-51.79140969,64.76625287,-175.76779793

>  <CHROM.1>
64.97444227,93.45747997,-63.38910483,169.43061863,-128.54055292,-179.02892444
175.08297484,175.37603327,-158.62545542,74.69887563,-48.22468262,-3.22112500
16.81705701,0.33125306,0.56099460,1.27899546

>  <HEADER>
                                                                          

>  <MASTER>
        0    0    0    0    0    0    0    0   50    0   50    0          

>  <Name>
Hydroxychloroquine.pdb

>  <RI>
-1.82386e+08

>  <Rbt.Current_Directory>
/root/miniconda3/envs/rdock/share/rxdock-2013.1.1_148c5bd1-0/data/ligands/prepped_ligands/Hydroxychloroquine

>  <Rbt.Executable>
rbdock/0.1.0

>  <Rbt.Library>
librxdock.so/0.1.0

>  <Rbt.Parameter_File>
/root/miniconda3/envs/rdock/share/rxdock-2013.1.1_148c5bd1-0/data/scripts/dock.prm

>  <Rbt.Receptor>
def.prm

>  <SCORE>
-20.6733

>  <SCORE.INTER>
-11.1997

>  <SCORE.INTER.CONST>
1

>  <SCORE.INTER.POLAR>
-1.27279

>  <SCORE.INTER.REPUL>
0

>  <SCORE.INTER.ROT>
9

>  <SCORE.INTER.VDW>
-21.2722

>  <SCORE.INTER.norm>
-0.486942

>  <SCORE.INTRA>
-8.56111

>  <SCORE.INTRA.DIHEDRAL>
-18.4277

>  <SCORE.INTRA.DIHEDRAL.0>
26.0734

>  <SCORE.INTRA.POLAR>
0

>  <SCORE.INTRA.POLAR.0>
0

>  <SCORE.INTRA.REPUL>
0

>  <SCORE.INTRA.REPUL.0>
0

>  <SCORE.INTRA.VDW>
0.652755

>  <SCORE.INTRA.VDW.0>
1.41869

>  <SCORE.INTRA.norm>
-0.372222

>  <SCORE.RESTR>
0

>  <SCORE.RESTR.CAVITY>
0

>  <SCORE.RESTR.norm>
0

>  <SCORE.SYSTEM>
-0.91255

>  <SCORE.SYSTEM.CONST>
0

>  <SCORE.SYSTEM.DIHEDRAL>
0.310135

>  <SCORE.SYSTEM.POLAR>
-0.0109317

>  <SCORE.SYSTEM.VDW>
-1.03045

>  <SCORE.SYSTEM.norm>
-0.0396761

>  <SCORE.heavy>
23

>  <SCORE.norm>
-0.89884

>  <TITLE>
    3652_D                                                                

$$$$
