Hydroxychloroquine.pdb
 OpenBabel02182114013D

 50 51  0  0  1  0  0  0  0  0999 V2000
    9.6600    2.0100   21.2210 Cl  0  0  0  0  0  0  0  0  0  0  0  0
   10.7490   -9.4480   17.0650 O   0  0  0  0  0  0  0  0  0  0  0  0
   11.2440   -7.1180   19.0230 N   0  3  1  0  0  0  0  0  0  0  0  0
   12.4230   -2.1900   16.6750 N   0  0  0  0  0  0  0  0  0  0  0  0
    8.4580   -0.7880   17.2000 N   0  0  0  0  0  0  0  0  0  0  0  0
   13.1210   -4.2870   17.8730 C   0  0  0  0  0  0  0  0  0  0  0  0
   11.8470   -4.6610   18.6480 C   0  0  0  0  0  0  0  0  0  0  0  0
   12.7760   -3.6180   16.5300 C   0  0  2  0  0  0  0  0  0  0  0  0
   12.1090   -5.9550   19.4470 C   0  0  0  0  0  0  0  0  0  0  0  0
   12.0350   -8.3940   18.8480 C   0  0  0  0  0  0  0  0  0  0  0  0
   14.0400   -3.6450   15.6550 C   0  0  0  0  0  0  0  0  0  0  0  0
   10.0480   -7.3030   19.9290 C   0  0  0  0  0  0  0  0  0  0  0  0
   11.1130   -1.7300   16.8560 C   0  0  0  0  0  0  0  0  0  0  0  0
   11.1710   -9.6000   18.4280 C   0  0  0  0  0  0  0  0  0  0  0  0
   10.4330   -7.5210   21.4060 C   0  0  0  0  0  0  0  0  0  0  0  0
   10.7960   -0.8580   17.9140 C   0  0  0  0  0  0  0  0  0  0  0  0
   10.0910   -2.1000   16.0190 C   0  0  0  0  0  0  0  0  0  0  0  0
    9.4690   -0.4140   18.0380 C   0  0  0  0  0  0  0  0  0  0  0  0
   11.7570   -0.4000   18.8420 C   0  0  0  0  0  0  0  0  0  0  0  0
    8.8090   -1.6250   16.2160 C   0  0  0  0  0  0  0  0  0  0  0  0
    9.1420    0.4790   19.0800 C   0  0  0  0  0  0  0  0  0  0  0  0
   11.4120    0.4550   19.8300 C   0  0  0  0  0  0  0  0  0  0  0  0
   10.0860    0.9030   19.9500 C   0  0  0  0  0  0  0  0  0  0  0  0
   11.9980   -4.1120   16.1430 H   0  0  0  0  0  0  0  0  0  0  0  0
   10.5640   -8.4840   16.8450 H   0  0  0  0  0  0  0  0  0  0  0  0
   10.9130   -6.9030   18.2020 H   0  0  0  0  0  0  0  0  0  0  0  0
   13.0800   -1.6310   16.8490 H   0  0  0  0  0  0  0  0  0  0  0  0
   13.6540   -5.1150   17.7000 H   0  0  0  0  0  0  0  0  0  0  0  0
   13.6490   -3.6400   18.4220 H   0  0  0  0  0  0  0  0  0  0  0  0
   11.0920   -4.8060   18.0080 H   0  0  0  0  0  0  0  0  0  0  0  0
   11.6020   -3.9200   19.2750 H   0  0  0  0  0  0  0  0  0  0  0  0
   13.0680   -6.2130   19.3290 H   0  0  0  0  0  0  0  0  0  0  0  0
   11.8840   -5.7570   20.4010 H   0  0  0  0  0  0  0  0  0  0  0  0
   12.4850   -8.6100   19.7150 H   0  0  0  0  0  0  0  0  0  0  0  0
   12.6930   -8.2340   18.1120 H   0  0  0  0  0  0  0  0  0  0  0  0
   14.7780   -4.0880   16.1640 H   0  0  0  0  0  0  0  0  0  0  0  0
   13.8580   -4.1540   14.8140 H   0  0  0  0  0  0  0  0  0  0  0  0
   14.3060   -2.7110   15.4190 H   0  0  0  0  0  0  0  0  0  0  0  0
    9.5280   -8.0960   19.6130 H   0  0  0  0  0  0  0  0  0  0  0  0
    9.5100   -6.4610   19.8860 H   0  0  0  0  0  0  0  0  0  0  0  0
   11.7040  -10.4410   18.5190 H   0  0  0  0  0  0  0  0  0  0  0  0
   10.3650   -9.6480   19.0180 H   0  0  0  0  0  0  0  0  0  0  0  0
   11.4290   -7.4990   21.4900 H   0  0  0  0  0  0  0  0  0  0  0  0
   10.0310   -6.8000   21.9700 H   0  0  0  0  0  0  0  0  0  0  0  0
   10.0870   -8.4070   21.7170 H   0  0  0  0  0  0  0  0  0  0  0  0
   10.2770   -2.7220   15.2580 H   0  0  0  0  0  0  0  0  0  0  0  0
   12.7040   -0.7110   18.7670 H   0  0  0  0  0  0  0  0  0  0  0  0
    8.0970   -1.9250   15.5820 H   0  0  0  0  0  0  0  0  0  0  0  0
    8.2000    0.8030   19.1770 H   0  0  0  0  0  0  0  0  0  0  0  0
   12.1040    0.7690   20.4800 H   0  0  0  0  0  0  0  0  0  0  0  0
  1 23  1  0  0  0  0
  2 14  1  0  0  0  0
  2 25  1  0  0  0  0
  3  9  1  0  0  0  0
  3 10  1  0  0  0  0
  3 12  1  0  0  0  0
  3 26  1  6  0  0  0
  4  8  1  0  0  0  0
  4 13  1  0  0  0  0
  4 27  1  0  0  0  0
  5 18  2  0  0  0  0
  5 20  1  0  0  0  0
  6  7  1  0  0  0  0
  6  8  1  0  0  0  0
  6 28  1  0  0  0  0
  6 29  1  0  0  0  0
  7  9  1  0  0  0  0
  7 30  1  0  0  0  0
  7 31  1  0  0  0  0
  8 11  1  0  0  0  0
  8 24  1  6  0  0  0
  9 32  1  0  0  0  0
  9 33  1  0  0  0  0
 10 14  1  0  0  0  0
 10 34  1  0  0  0  0
 10 35  1  0  0  0  0
 11 36  1  0  0  0  0
 11 37  1  0  0  0  0
 11 38  1  0  0  0  0
 12 15  1  0  0  0  0
 12 39  1  0  0  0  0
 12 40  1  0  0  0  0
 13 16  2  0  0  0  0
 13 17  1  0  0  0  0
 14 41  1  0  0  0  0
 14 42  1  0  0  0  0
 15 43  1  0  0  0  0
 15 44  1  0  0  0  0
 15 45  1  0  0  0  0
 16 18  1  0  0  0  0
 16 19  1  0  0  0  0
 17 20  2  0  0  0  0
 17 46  1  0  0  0  0
 18 21  1  0  0  0  0
 19 22  2  0  0  0  0
 19 47  1  0  0  0  0
 20 48  1  0  0  0  0
 21 23  2  0  0  0  0
 21 49  1  0  0  0  0
 22 23  1  0  0  0  0
 22 50  1  0  0  0  0
M  CHG  1   3   1
M  END
>  <HEADER>
                                                                          

>  <TITLE>
    3652_D                                                                

>  <MASTER>
        0    0    0    0    0    0    0    0   50    0   50    0          

$$$$
