Myricetin.pdb
  RxDock  02242101283D
librxdock.so/0.1.0
 29 31  0  0  0  0  0  0  0  0999 V2000
  -47.9238   -5.6611   16.7997 O   0  0  0  0  0  0
  -50.3206   -3.0145   15.8146 O   0  0  0  0  0  0
  -52.3253   -7.5514   17.4176 O   0  0  0  0  0  0
  -51.9004   -5.0636   16.4578 O   0  0  0  0  0  0
  -48.4516   -9.9998   18.5524 O   0  0  0  0  0  0
  -47.1674   -0.4374   14.0209 O   0  0  0  0  0  0
  -44.1060   -2.3737   17.1017 O   0  0  0  0  0  0
  -44.7264   -0.4125   15.2838 O   0  0  0  0  0  0
  -50.1657   -6.5337   17.0937 C   0  0  0  0  0  0
  -48.4581   -4.4535   16.4132 C   0  0  0  0  0  0
  -48.7753   -6.6471   17.1793 C   0  0  0  0  0  0
  -47.4713   -3.3887   16.1366 C   0  0  0  0  0  0
  -49.8024   -4.2224   16.2736 C   0  0  0  0  0  0
  -50.6971   -5.2780   16.6000 C   0  0  0  0  0  0
  -50.9717   -7.6143   17.4959 C   0  0  0  0  0  0
  -48.2199   -7.8153   17.6688 C   0  0  0  0  0  0
  -46.2375   -3.3677   16.7702 C   0  0  0  0  0  0
  -47.7702   -2.4032   15.2071 C   0  0  0  0  0  0
  -49.0150   -8.8639   18.0709 C   0  0  0  0  0  0
  -50.3943   -8.7581   17.9803 C   0  0  0  0  0  0
  -46.8603   -1.4082   14.9261 C   0  0  0  0  0  0
  -45.3208   -2.3811   16.4824 C   0  0  0  0  0  0
  -45.6313   -1.3946   15.5622 C   0  0  0  0  0  0
  -51.3082   -3.0765   15.6377 H   0  0  0  0  0  0
  -52.6663   -7.8525   16.5234 H   0  0  0  0  0  0
  -49.1403  -10.6057   18.9648 H   0  0  0  0  0  0
  -46.6637   -0.5647   13.1595 H   0  0  0  0  0  0
  -43.5569   -3.1757   16.8445 H   0  0  0  0  0  0
  -45.0421    0.1756   14.5320 H   0  0  0  0  0  0
  1 10  1  0  0  0
  1 11  1  0  0  0
  2 13  1  0  0  0
  2 24  1  0  0  0
  3 15  1  0  0  0
  3 25  1  0  0  0
  4 14  2  0  0  0
  5 19  1  0  0  0
  5 26  1  0  0  0
  6 21  1  0  0  0
  6 27  1  0  0  0
  7 22  1  0  0  0
  7 28  1  0  0  0
  8 23  1  0  0  0
  8 29  1  0  0  0
  9 11  2  0  0  0
  9 14  1  0  0  0
  9 15  1  0  0  0
 10 12  1  0  0  0
 10 13  2  0  0  0
 11 16  1  0  0  0
 12 17  2  0  0  0
 12 18  1  0  0  0
 13 14  1  0  0  0
 15 20  2  0  0  0
 16 19  2  0  0  0
 17 22  1  0  0  0
 18 21  2  0  0  0
 19 20  1  0  0  0
 21 23  1  0  0  0
 22 23  2  0  0  0
M  END
>  <CHROM.0>
179.91120875,66.47584046,-63.85352093

>  <CHROM.1>
170.83700440,88.18970661,169.32334688,-106.64006986,65.14490611,-6.01371192
-28.20619234,-48.36861410,-4.69834621,16.55591960,-2.14381407,-0.16360263
-0.42420950

>  <HEADER>
                                                                          

>  <MASTER>
        0    0    0    0    0    0    0    0   33    0   33    0          

>  <Name>
Myricetin.pdb

>  <RI>
-6.60524e+08

>  <Rbt.Current_Directory>
/root/miniconda3/envs/rdock/share/rxdock-2013.1.1_148c5bd1-0/data/ligands/prepped_ligands/Myricetin

>  <Rbt.Executable>
rbdock/0.1.0

>  <Rbt.Library>
librxdock.so/0.1.0

>  <Rbt.Parameter_File>
/root/miniconda3/envs/rdock/share/rxdock-2013.1.1_148c5bd1-0/data/scripts/dock.prm

>  <Rbt.Receptor>
def.prm

>  <SCORE>
-21.9597

>  <SCORE.INTER>
-18.8831

>  <SCORE.INTER.CONST>
1

>  <SCORE.INTER.POLAR>
-2.12151

>  <SCORE.INTER.REPUL>
0

>  <SCORE.INTER.ROT>
1

>  <SCORE.INTER.VDW>
-18.07

>  <SCORE.INTER.norm>
-0.821005

>  <SCORE.INTRA>
-2.09504

>  <SCORE.INTRA.DIHEDRAL>
-7.16671

>  <SCORE.INTRA.DIHEDRAL.0>
21.7491

>  <SCORE.INTRA.POLAR>
0

>  <SCORE.INTRA.POLAR.0>
0

>  <SCORE.INTRA.REPUL>
0

>  <SCORE.INTRA.REPUL.0>
0

>  <SCORE.INTRA.VDW>
1.48831

>  <SCORE.INTRA.VDW.0>
-1.39731

>  <SCORE.INTRA.norm>
-0.0910887

>  <SCORE.RESTR>
0

>  <SCORE.RESTR.CAVITY>
0

>  <SCORE.RESTR.norm>
0

>  <SCORE.SYSTEM>
-0.981578

>  <SCORE.SYSTEM.CONST>
0

>  <SCORE.SYSTEM.DIHEDRAL>
0.244895

>  <SCORE.SYSTEM.VDW>
-1.10403

>  <SCORE.SYSTEM.norm>
-0.0426773

>  <SCORE.heavy>
23

>  <SCORE.norm>
-0.954771

>  <TITLE>
    5281672_D                                                             

$$$$
Myricetin.pdb
  RxDock  02242101283D
librxdock.so/0.1.0
 29 31  0  0  0  0  0  0  0  0999 V2000
  -50.0773   -3.9571   16.0387 O   0  0  0  0  0  0
  -47.1371   -5.3582   17.8028 O   0  0  0  0  0  0
  -46.2868   -1.3270   14.6094 O   0  0  0  0  0  0
  -46.0867   -3.4175   16.3066 O   0  0  0  0  0  0
  -50.6492   -0.3045   13.1222 O   0  0  0  0  0  0
  -52.6062   -8.2175   17.2407 O   0  0  0  0  0  0
  -50.1938   -6.9196   21.1277 O   0  0  0  0  0  0
  -52.0858   -8.5034   19.9242 O   0  0  0  0  0  0
  -48.1278   -2.6772   15.3788 C   0  0  0  0  0  0
  -49.2874   -4.6992   16.8864 C   0  0  0  0  0  0
  -49.5004   -2.9391   15.3514 C   0  0  0  0  0  0
  -50.0059   -5.7055   17.6958 C   0  0  0  0  0  0
  -47.9283   -4.5506   16.9904 C   0  0  0  0  0  0
  -47.3084   -3.5325   16.2154 C   0  0  0  0  0  0
  -47.6145   -1.6085   14.6214 C   0  0  0  0  0  0
  -50.3283   -2.1350   14.5893 C   0  0  0  0  0  0
  -49.7488   -5.8574   19.0505 C   0  0  0  0  0  0
  -50.9753   -6.4986   17.0992 C   0  0  0  0  0  0
  -49.8204   -1.0845   13.8600 C   0  0  0  0  0  0
  -48.4585   -0.8263   13.8785 C   0  0  0  0  0  0
  -51.6646   -7.4346   17.8378 C   0  0  0  0  0  0
  -50.4449   -6.7840   19.7943 C   0  0  0  0  0  0
  -51.4025   -7.5796   19.1889 C   0  0  0  0  0  0
  -47.4556   -6.3117   17.8031 H   0  0  0  0  0  0
  -45.9495   -1.1366   13.6839 H   0  0  0  0  0  0
  -51.6144   -0.5325   13.2890 H   0  0  0  0  0  0
  -52.5244   -8.1921   16.2384 H   0  0  0  0  0  0
  -50.0324   -7.8803   21.3759 H   0  0  0  0  0  0
  -51.8811   -8.4171   20.9047 H   0  0  0  0  0  0
  1 10  1  0  0  0
  1 11  1  0  0  0
  2 13  1  0  0  0
  2 24  1  0  0  0
  3 15  1  0  0  0
  3 25  1  0  0  0
  4 14  2  0  0  0
  5 19  1  0  0  0
  5 26  1  0  0  0
  6 21  1  0  0  0
  6 27  1  0  0  0
  7 22  1  0  0  0
  7 28  1  0  0  0
  8 23  1  0  0  0
  8 29  1  0  0  0
  9 11  2  0  0  0
  9 14  1  0  0  0
  9 15  1  0  0  0
 10 12  1  0  0  0
 10 13  2  0  0  0
 11 16  1  0  0  0
 12 17  2  0  0  0
 12 18  1  0  0  0
 13 14  1  0  0  0
 15 20  2  0  0  0
 16 19  2  0  0  0
 17 22  1  0  0  0
 18 21  2  0  0  0
 19 20  1  0  0  0
 21 23  1  0  0  0
 22 23  2  0  0  0
M  END
>  <CHROM.0>
43.28460637,175.74841639,-63.76863070

>  <CHROM.1>
37.43847441,135.83686326,7.11059215,15.54756533,-129.45607651,-172.58757299
-134.91784543,-49.47285294,-4.47423328,16.75438971,1.20677858,-0.27989856
-0.78095469

>  <HEADER>
                                                                          

>  <MASTER>
        0    0    0    0    0    0    0    0   33    0   33    0          

>  <Name>
Myricetin.pdb

>  <RI>
-6.60524e+08

>  <Rbt.Current_Directory>
/root/miniconda3/envs/rdock/share/rxdock-2013.1.1_148c5bd1-0/data/ligands/prepped_ligands/Myricetin

>  <Rbt.Executable>
rbdock/0.1.0

>  <Rbt.Library>
librxdock.so/0.1.0

>  <Rbt.Parameter_File>
/root/miniconda3/envs/rdock/share/rxdock-2013.1.1_148c5bd1-0/data/scripts/dock.prm

>  <Rbt.Receptor>
def.prm

>  <SCORE>
-21.3757

>  <SCORE.INTER>
-16.2348

>  <SCORE.INTER.CONST>
1

>  <SCORE.INTER.POLAR>
-2.11342

>  <SCORE.INTER.REPUL>
0

>  <SCORE.INTER.ROT>
1

>  <SCORE.INTER.VDW>
-15.4492

>  <SCORE.INTER.norm>
-0.705861

>  <SCORE.INTRA>
-4.54675

>  <SCORE.INTRA.DIHEDRAL>
-11.8731

>  <SCORE.INTRA.DIHEDRAL.0>
21.7491

>  <SCORE.INTRA.POLAR>
0

>  <SCORE.INTRA.POLAR.0>
0

>  <SCORE.INTRA.REPUL>
0

>  <SCORE.INTRA.REPUL.0>
0

>  <SCORE.INTRA.VDW>
1.38979

>  <SCORE.INTRA.VDW.0>
-1.39731

>  <SCORE.INTRA.norm>
-0.197685

>  <SCORE.RESTR>
0.0150922

>  <SCORE.RESTR.CAVITY>
0.0150922

>  <SCORE.RESTR.norm>
0.000656182

>  <SCORE.SYSTEM>
-0.609292

>  <SCORE.SYSTEM.CONST>
0

>  <SCORE.SYSTEM.DIHEDRAL>
0.784325

>  <SCORE.SYSTEM.VDW>
-1.00145

>  <SCORE.SYSTEM.norm>
-0.0264909

>  <SCORE.heavy>
23

>  <SCORE.norm>
-0.92938

>  <TITLE>
    5281672_D                                                             

$$$$
Myricetin.pdb
  RxDock  02242101283D
librxdock.so/0.1.0
 29 31  0  0  0  0  0  0  0  0999 V2000
  -53.5522   -4.7655   15.3124 O   0  0  0  0  0  0
  -50.8731   -5.4077   17.7882 O   0  0  0  0  0  0
  -53.9593   -9.4189   16.5404 O   0  0  0  0  0  0
  -52.1246   -7.7556   17.6165 O   0  0  0  0  0  0
  -56.7792   -7.5176   13.2661 O   0  0  0  0  0  0
  -50.6277   -0.8972   13.5910 O   0  0  0  0  0  0
  -50.5906   -0.6941   18.3418 O   0  0  0  0  0  0
  -50.0154    0.4438   15.9106 O   0  0  0  0  0  0
  -53.6845   -7.0938   15.9722 C   0  0  0  0  0  0
  -52.4492   -4.6123   16.1205 C   0  0  0  0  0  0
  -54.1081   -5.9994   15.2132 C   0  0  0  0  0  0
  -51.8213   -3.2750   16.0810 C   0  0  0  0  0  0
  -51.9482   -5.6028   16.9254 C   0  0  0  0  0  0
  -52.5742   -6.8785   16.8798 C   0  0  0  0  0  0
  -54.3303   -8.3337   15.8146 C   0  0  0  0  0  0
  -55.1463   -6.1601   14.3137 C   0  0  0  0  0  0
  -51.5099   -2.5906   17.2467 C   0  0  0  0  0  0
  -51.5122   -2.6999   14.8569 C   0  0  0  0  0  0
  -55.7657   -7.3788   14.1568 C   0  0  0  0  0  0
  -55.3535   -8.4648   14.9134 C   0  0  0  0  0  0
  -50.9165   -1.4596   14.7978 C   0  0  0  0  0  0
  -50.9032   -1.3556   17.1911 C   0  0  0  0  0  0
  -50.6085   -0.7835   15.9655 C   0  0  0  0  0  0
  -51.1042   -4.7736   18.5332 H   0  0  0  0  0  0
  -53.0067   -9.3590   16.8492 H   0  0  0  0  0  0
  -56.5571   -7.0850   12.3858 H   0  0  0  0  0  0
  -51.4431   -0.8467   13.0039 H   0  0  0  0  0  0
  -50.4831   -1.3291   19.1137 H   0  0  0  0  0  0
  -49.6608    0.6397   14.9905 H   0  0  0  0  0  0
  1 10  1  0  0  0
  1 11  1  0  0  0
  2 13  1  0  0  0
  2 24  1  0  0  0
  3 15  1  0  0  0
  3 25  1  0  0  0
  4 14  2  0  0  0
  5 19  1  0  0  0
  5 26  1  0  0  0
  6 21  1  0  0  0
  6 27  1  0  0  0
  7 22  1  0  0  0
  7 28  1  0  0  0
  8 23  1  0  0  0
  8 29  1  0  0  0
  9 11  2  0  0  0
  9 14  1  0  0  0
  9 15  1  0  0  0
 10 12  1  0  0  0
 10 13  2  0  0  0
 11 16  1  0  0  0
 12 17  2  0  0  0
 12 18  1  0  0  0
 13 14  1  0  0  0
 15 20  2  0  0  0
 16 19  2  0  0  0
 17 22  1  0  0  0
 18 21  2  0  0  0
 19 20  1  0  0  0
 21 23  1  0  0  0
 22 23  2  0  0  0
M  END
>  <CHROM.0>
178.52384591,64.06039803,64.75167509

>  <CHROM.1>
66.84131953,-24.84566543,45.51096771,54.82720145,24.19398773,-13.66850468
131.01280503,-52.62183542,-4.68907945,15.87240061,2.43667705,0.83690138,2.54827964

>  <HEADER>
                                                                          

>  <MASTER>
        0    0    0    0    0    0    0    0   33    0   33    0          

>  <Name>
Myricetin.pdb

>  <RI>
-6.60524e+08

>  <Rbt.Current_Directory>
/root/miniconda3/envs/rdock/share/rxdock-2013.1.1_148c5bd1-0/data/ligands/prepped_ligands/Myricetin

>  <Rbt.Executable>
rbdock/0.1.0

>  <Rbt.Library>
librxdock.so/0.1.0

>  <Rbt.Parameter_File>
/root/miniconda3/envs/rdock/share/rxdock-2013.1.1_148c5bd1-0/data/scripts/dock.prm

>  <Rbt.Receptor>
def.prm

>  <SCORE>
-24.8209

>  <SCORE.INTER>
-20.779

>  <SCORE.INTER.CONST>
1

>  <SCORE.INTER.POLAR>
-2.03667

>  <SCORE.INTER.REPUL>
0

>  <SCORE.INTER.ROT>
1

>  <SCORE.INTER.VDW>
-20.2544

>  <SCORE.INTER.norm>
-0.903436

>  <SCORE.INTRA>
-3.08929

>  <SCORE.INTRA.DIHEDRAL>
-7.33534

>  <SCORE.INTRA.DIHEDRAL.0>
21.7491

>  <SCORE.INTRA.POLAR>
-0.0522913

>  <SCORE.INTRA.POLAR.0>
0

>  <SCORE.INTRA.REPUL>
0

>  <SCORE.INTRA.REPUL.0>
0

>  <SCORE.INTRA.VDW>
0.756168

>  <SCORE.INTRA.VDW.0>
-1.39731

>  <SCORE.INTRA.norm>
-0.134317

>  <SCORE.RESTR>
0

>  <SCORE.RESTR.CAVITY>
0

>  <SCORE.RESTR.norm>
0

>  <SCORE.SYSTEM>
-0.952566

>  <SCORE.SYSTEM.CONST>
0

>  <SCORE.SYSTEM.DIHEDRAL>
0.139302

>  <SCORE.SYSTEM.POLAR>
-0.0105985

>  <SCORE.SYSTEM.VDW>
-0.986182

>  <SCORE.SYSTEM.norm>
-0.0414159

>  <SCORE.heavy>
23

>  <SCORE.norm>
-1.07917

>  <TITLE>
    5281672_D                                                             

$$$$
Myricetin.pdb
  RxDock  02242101283D
librxdock.so/0.1.0
 29 31  0  0  0  0  0  0  0  0999 V2000
  -51.5920   -4.0412   15.3275 O   0  0  0  0  0  0
  -53.3451   -3.4456   18.5355 O   0  0  0  0  0  0
  -49.7863    0.0777   17.0889 O   0  0  0  0  0  0
  -51.6460   -1.3972   18.3761 O   0  0  0  0  0  0
  -48.4004   -1.5804   12.8916 O   0  0  0  0  0  0
  -53.2924   -8.9036   16.8824 O   0  0  0  0  0  0
  -56.8454   -6.0790   15.4645 O   0  0  0  0  0  0
  -55.9098   -8.5779   16.1101 O   0  0  0  0  0  0
  -50.7444   -1.9764   16.2722 C   0  0  0  0  0  0
  -52.4662   -4.1510   16.3842 C   0  0  0  0  0  0
  -50.7967   -2.9433   15.2644 C   0  0  0  0  0  0
  -53.3880   -5.3044   16.3208 C   0  0  0  0  0  0
  -52.5004   -3.2786   17.4415 C   0  0  0  0  0  0
  -51.6161   -2.1656   17.4155 C   0  0  0  0  0  0
  -49.8777   -0.8775   16.1291 C   0  0  0  0  0  0
  -50.0040   -2.7945   14.1410 C   0  0  0  0  0  0
  -54.7108   -5.1490   15.9332 C   0  0  0  0  0  0
  -52.9191   -6.5731   16.6293 C   0  0  0  0  0  0
  -49.1670   -1.7111   14.0029 C   0  0  0  0  0  0
  -49.1065   -0.7538   15.0038 C   0  0  0  0  0  0
  -53.7584   -7.6632   16.5656 C   0  0  0  0  0  0
  -55.5492   -6.2388   15.8568 C   0  0  0  0  0  0
  -55.0767   -7.4998   16.1775 C   0  0  0  0  0  0
  -53.2666   -2.6833   19.1861 H   0  0  0  0  0  0
  -50.4459   -0.0680   17.8307 H   0  0  0  0  0  0
  -48.0997   -0.6295   12.7619 H   0  0  0  0  0  0
  -53.6542   -9.6036   16.2570 H   0  0  0  0  0  0
  -57.1577   -5.1335   15.6023 H   0  0  0  0  0  0
  -55.4466   -9.3758   15.7110 H   0  0  0  0  0  0
  1 10  1  0  0  0
  1 11  1  0  0  0
  2 13  1  0  0  0
  2 24  1  0  0  0
  3 15  1  0  0  0
  3 25  1  0  0  0
  4 14  2  0  0  0
  5 19  1  0  0  0
  5 26  1  0  0  0
  6 21  1  0  0  0
  6 27  1  0  0  0
  7 22  1  0  0  0
  7 28  1  0  0  0
  8 23  1  0  0  0
  8 29  1  0  0  0
  9 11  2  0  0  0
  9 14  1  0  0  0
  9 15  1  0  0  0
 10 12  1  0  0  0
 10 13  2  0  0  0
 11 16  1  0  0  0
 12 17  2  0  0  0
 12 18  1  0  0  0
 13 14  1  0  0  0
 15 20  2  0  0  0
 16 19  2  0  0  0
 17 22  1  0  0  0
 18 21  2  0  0  0
 19 20  1  0  0  0
 21 23  1  0  0  0
 22 23  2  0  0  0
M  END
>  <CHROM.0>
61.77183057,-178.11667952,70.80160926

>  <CHROM.1>
-176.91348788,-4.66200406,159.84464607,-139.82642278,-21.94432229,-41.27267221
-102.04444305,-52.32088240,-4.07192830,16.11414100,-0.49553010,-0.73656545
-2.38278259

>  <HEADER>
                                                                          

>  <MASTER>
        0    0    0    0    0    0    0    0   33    0   33    0          

>  <Name>
Myricetin.pdb

>  <RI>
-6.60524e+08

>  <Rbt.Current_Directory>
/root/miniconda3/envs/rdock/share/rxdock-2013.1.1_148c5bd1-0/data/ligands/prepped_ligands/Myricetin

>  <Rbt.Executable>
rbdock/0.1.0

>  <Rbt.Library>
librxdock.so/0.1.0

>  <Rbt.Parameter_File>
/root/miniconda3/envs/rdock/share/rxdock-2013.1.1_148c5bd1-0/data/scripts/dock.prm

>  <Rbt.Receptor>
def.prm

>  <SCORE>
-17.6635

>  <SCORE.INTER>
-12.0867

>  <SCORE.INTER.CONST>
1

>  <SCORE.INTER.POLAR>
-0.366057

>  <SCORE.INTER.REPUL>
0.0418184

>  <SCORE.INTER.ROT>
1

>  <SCORE.INTER.VDW>
-17.4512

>  <SCORE.INTER.norm>
-0.525509

>  <SCORE.INTRA>
-4.72069

>  <SCORE.INTRA.DIHEDRAL>
-11.7947

>  <SCORE.INTRA.DIHEDRAL.0>
21.7491

>  <SCORE.INTRA.POLAR>
0

>  <SCORE.INTRA.POLAR.0>
0

>  <SCORE.INTRA.REPUL>
0

>  <SCORE.INTRA.REPUL.0>
0

>  <SCORE.INTRA.VDW>
1.17668

>  <SCORE.INTRA.VDW.0>
-1.39731

>  <SCORE.INTRA.norm>
-0.205247

>  <SCORE.RESTR>
0

>  <SCORE.RESTR.CAVITY>
0

>  <SCORE.RESTR.norm>
0

>  <SCORE.SYSTEM>
-0.856151

>  <SCORE.SYSTEM.CONST>
0

>  <SCORE.SYSTEM.DIHEDRAL>
0.296049

>  <SCORE.SYSTEM.POLAR>
-0.0172749

>  <SCORE.SYSTEM.VDW>
-0.94544

>  <SCORE.SYSTEM.norm>
-0.0372239

>  <SCORE.heavy>
23

>  <SCORE.norm>
-0.76798

>  <TITLE>
    5281672_D                                                             

$$$$
Myricetin.pdb
  RxDock  02242101283D
librxdock.so/0.1.0
 29 31  0  0  0  0  0  0  0  0999 V2000
  -52.0749   -3.8312   14.7998 O   0  0  0  0  0  0
  -53.1432   -4.5589   18.2710 O   0  0  0  0  0  0
  -50.3839   -0.2036   17.5034 O   0  0  0  0  0  0
  -51.7499   -2.2995   18.5195 O   0  0  0  0  0  0
  -49.7725   -0.2308   12.8223 O   0  0  0  0  0  0
  -53.7748   -9.0311   16.8689 O   0  0  0  0  0  0
  -55.9869   -6.8472   13.2703 O   0  0  0  0  0  0
  -55.5941   -9.0861   14.8096 O   0  0  0  0  0  0
  -51.2697   -2.0416   16.2221 C   0  0  0  0  0  0
  -52.6818   -4.4086   15.8914 C   0  0  0  0  0  0
  -51.4353   -2.6470   14.9734 C   0  0  0  0  0  0
  -53.4656   -5.6279   15.6035 C   0  0  0  0  0  0
  -52.5792   -3.9217   17.1691 C   0  0  0  0  0  0
  -51.8468   -2.7194   17.3669 C   0  0  0  0  0  0
  -50.5783   -0.8195   16.3096 C   0  0  0  0  0  0
  -50.9262   -2.0268   13.8470 C   0  0  0  0  0  0
  -54.3867   -5.6642   14.5669 C   0  0  0  0  0  0
  -53.2614   -6.7688   16.3659 C   0  0  0  0  0  0
  -50.2608   -0.8258   13.9390 C   0  0  0  0  0  0
  -50.0878   -0.2259   15.1768 C   0  0  0  0  0  0
  -53.9731   -7.9192   16.1071 C   0  0  0  0  0  0
  -55.0911   -6.8166   14.2980 C   0  0  0  0  0  0
  -54.8899   -7.9473   15.0708 C   0  0  0  0  0  0
  -53.0195   -4.0246   19.1135 H   0  0  0  0  0  0
  -49.8146    0.6179   17.4162 H   0  0  0  0  0  0
  -49.0543    0.4370   13.0453 H   0  0  0  0  0  0
  -52.9185   -8.9701   17.3934 H   0  0  0  0  0  0
  -56.4927   -7.7157   13.2488 H   0  0  0  0  0  0
  -55.3072   -9.8410   15.4083 H   0  0  0  0  0  0
  1 10  1  0  0  0
  1 11  1  0  0  0
  2 13  1  0  0  0
  2 24  1  0  0  0
  3 15  1  0  0  0
  3 25  1  0  0  0
  4 14  2  0  0  0
  5 19  1  0  0  0
  5 26  1  0  0  0
  6 21  1  0  0  0
  6 27  1  0  0  0
  7 22  1  0  0  0
  7 28  1  0  0  0
  8 23  1  0  0  0
  8 29  1  0  0  0
  9 11  2  0  0  0
  9 14  1  0  0  0
  9 15  1  0  0  0
 10 12  1  0  0  0
 10 13  2  0  0  0
 11 16  1  0  0  0
 12 17  2  0  0  0
 12 18  1  0  0  0
 13 14  1  0  0  0
 15 20  2  0  0  0
 16 19  2  0  0  0
 17 22  1  0  0  0
 18 21  2  0  0  0
 19 20  1  0  0  0
 21 23  1  0  0  0
 22 23  2  0  0  0
M  END
>  <CHROM.0>
-51.95248014,-59.64567410,55.66477424

>  <CHROM.1>
-176.08334662,175.48695777,-159.91948751,-16.52182947,-174.19226744,-3.51283208
-48.73477824,-52.59661986,-4.23315170,15.66124162,0.10832171,-1.01638030
-1.40991933

>  <HEADER>
                                                                          

>  <MASTER>
        0    0    0    0    0    0    0    0   33    0   33    0          

>  <Name>
Myricetin.pdb

>  <RI>
-6.60524e+08

>  <Rbt.Current_Directory>
/root/miniconda3/envs/rdock/share/rxdock-2013.1.1_148c5bd1-0/data/ligands/prepped_ligands/Myricetin

>  <Rbt.Executable>
rbdock/0.1.0

>  <Rbt.Library>
librxdock.so/0.1.0

>  <Rbt.Parameter_File>
/root/miniconda3/envs/rdock/share/rxdock-2013.1.1_148c5bd1-0/data/scripts/dock.prm

>  <Rbt.Receptor>
def.prm

>  <SCORE>
-27.0216

>  <SCORE.INTER>
-18.0722

>  <SCORE.INTER.CONST>
1

>  <SCORE.INTER.POLAR>
-1.42342

>  <SCORE.INTER.REPUL>
0.142117

>  <SCORE.INTER.ROT>
1

>  <SCORE.INTER.VDW>
-20.3432

>  <SCORE.INTER.norm>
-0.78575

>  <SCORE.INTRA>
-8.01093

>  <SCORE.INTRA.DIHEDRAL>
-17.9283

>  <SCORE.INTRA.DIHEDRAL.0>
21.7491

>  <SCORE.INTRA.POLAR>
-0.214146

>  <SCORE.INTRA.POLAR.0>
0

>  <SCORE.INTRA.REPUL>
0

>  <SCORE.INTRA.REPUL.0>
0

>  <SCORE.INTRA.VDW>
1.68131

>  <SCORE.INTRA.VDW.0>
-1.39731

>  <SCORE.INTRA.norm>
-0.348301

>  <SCORE.RESTR>
0

>  <SCORE.RESTR.CAVITY>
0

>  <SCORE.RESTR.norm>
0

>  <SCORE.SYSTEM>
-0.938395

>  <SCORE.SYSTEM.CONST>
0

>  <SCORE.SYSTEM.DIHEDRAL>
0.20216

>  <SCORE.SYSTEM.VDW>
-1.03948

>  <SCORE.SYSTEM.norm>
-0.0407998

>  <SCORE.heavy>
23

>  <SCORE.norm>
-1.17485

>  <TITLE>
    5281672_D                                                             

$$$$
Myricetin.pdb
  RxDock  02242101283D
librxdock.so/0.1.0
 29 31  0  0  0  0  0  0  0  0999 V2000
  -50.0982   -4.7665   15.7196 O   0  0  0  0  0  0
  -52.7051   -2.7076   14.0811 O   0  0  0  0  0  0
  -54.3026   -6.9579   16.6414 O   0  0  0  0  0  0
  -54.0921   -4.7230   15.1407 O   0  0  0  0  0  0
  -50.2579   -8.6216   18.4192 O   0  0  0  0  0  0
  -50.1370    0.4427   12.6834 O   0  0  0  0  0  0
  -46.3265   -1.7500   14.4957 O   0  0  0  0  0  0
  -47.4244    0.3548   13.1171 O   0  0  0  0  0  0
  -52.2481   -5.8002   16.1479 C   0  0  0  0  0  0
  -50.7356   -3.7485   15.0484 C   0  0  0  0  0  0
  -50.8600   -5.7308   16.2952 C   0  0  0  0  0  0
  -49.8533   -2.6691   14.5583 C   0  0  0  0  0  0
  -52.0875   -3.7112   14.8225 C   0  0  0  0  0  0
  -52.8820   -4.7598   15.3614 C   0  0  0  0  0  0
  -52.9559   -6.8456   16.7687 C   0  0  0  0  0  0
  -50.2112   -6.6847   17.0579 C   0  0  0  0  0  0
  -48.4834   -2.7047   14.7736 C   0  0  0  0  0  0
  -50.3978   -1.6102   13.8463 C   0  0  0  0  0  0
  -50.9116   -7.6979   17.6714 C   0  0  0  0  0  0
  -52.2877   -7.7746   17.5215 C   0  0  0  0  0  0
  -49.5919   -0.5995   13.3708 C   0  0  0  0  0  0
  -47.6734   -1.7019   14.2890 C   0  0  0  0  0  0
  -48.2260   -0.6428   13.5895 C   0  0  0  0  0  0
  -53.6308   -2.9737   13.7931 H   0  0  0  0  0  0
  -54.7202   -6.1160   16.2902 H   0  0  0  0  0  0
  -50.9008   -9.2235   18.9049 H   0  0  0  0  0  0
  -51.1146    0.2919   12.5003 H   0  0  0  0  0  0
  -46.0398   -2.6473   14.8468 H   0  0  0  0  0  0
  -47.8649    0.8545   12.3641 H   0  0  0  0  0  0
  1 10  1  0  0  0
  1 11  1  0  0  0
  2 13  1  0  0  0
  2 24  1  0  0  0
  3 15  1  0  0  0
  3 25  1  0  0  0
  4 14  2  0  0  0
  5 19  1  0  0  0
  5 26  1  0  0  0
  6 21  1  0  0  0
  6 27  1  0  0  0
  7 22  1  0  0  0
  7 28  1  0  0  0
  8 23  1  0  0  0
  8 29  1  0  0  0
  9 11  2  0  0  0
  9 14  1  0  0  0
  9 15  1  0  0  0
 10 12  1  0  0  0
 10 13  2  0  0  0
 11 16  1  0  0  0
 12 17  2  0  0  0
 12 18  1  0  0  0
 13 14  1  0  0  0
 15 20  2  0  0  0
 16 19  2  0  0  0
 17 22  1  0  0  0
 18 21  2  0  0  0
 19 20  1  0  0  0
 21 23  1  0  0  0
 22 23  2  0  0  0
M  END
>  <CHROM.0>
54.81984693,66.28893701,64.47751163

>  <CHROM.1>
163.30204637,-15.20413378,172.31486052,-6.89724482,11.41643926,-21.30374084
-0.00407590,-50.64153327,-3.93228383,15.25207319,-2.04626570,-0.13674983
-0.56898105

>  <HEADER>
                                                                          

>  <MASTER>
        0    0    0    0    0    0    0    0   33    0   33    0          

>  <Name>
Myricetin.pdb

>  <RI>
-6.60524e+08

>  <Rbt.Current_Directory>
/root/miniconda3/envs/rdock/share/rxdock-2013.1.1_148c5bd1-0/data/ligands/prepped_ligands/Myricetin

>  <Rbt.Executable>
rbdock/0.1.0

>  <Rbt.Library>
librxdock.so/0.1.0

>  <Rbt.Parameter_File>
/root/miniconda3/envs/rdock/share/rxdock-2013.1.1_148c5bd1-0/data/scripts/dock.prm

>  <Rbt.Receptor>
def.prm

>  <SCORE>
-29.7702

>  <SCORE.INTER>
-22.3517

>  <SCORE.INTER.CONST>
1

>  <SCORE.INTER.POLAR>
-2.57473

>  <SCORE.INTER.REPUL>
0.0259083

>  <SCORE.INTER.ROT>
1

>  <SCORE.INTER.VDW>
-20.1271

>  <SCORE.INTER.norm>
-0.971812

>  <SCORE.INTRA>
-6.52156

>  <SCORE.INTRA.DIHEDRAL>
-20.0568

>  <SCORE.INTRA.DIHEDRAL.0>
21.7491

>  <SCORE.INTRA.POLAR>
-0.0355777

>  <SCORE.INTRA.POLAR.0>
0

>  <SCORE.INTRA.REPUL>
0

>  <SCORE.INTRA.REPUL.0>
0

>  <SCORE.INTRA.VDW>
3.62781

>  <SCORE.INTRA.VDW.0>
-1.39731

>  <SCORE.INTRA.norm>
-0.283546

>  <SCORE.RESTR>
0.000482002

>  <SCORE.RESTR.CAVITY>
0.000482002

>  <SCORE.RESTR.norm>
2.09566e-05

>  <SCORE.SYSTEM>
-0.897432

>  <SCORE.SYSTEM.CONST>
0

>  <SCORE.SYSTEM.DIHEDRAL>
0.308822

>  <SCORE.SYSTEM.POLAR>
-0.010155

>  <SCORE.SYSTEM.VDW>
-1.01732

>  <SCORE.SYSTEM.norm>
-0.0390188

>  <SCORE.heavy>
23

>  <SCORE.norm>
-1.29436

>  <TITLE>
    5281672_D                                                             

$$$$
Myricetin.pdb
  RxDock  02242101283D
librxdock.so/0.1.0
 29 31  0  0  0  0  0  0  0  0999 V2000
  -52.0021   -3.9305   15.1467 O   0  0  0  0  0  0
  -48.7253   -5.0804   16.4351 O   0  0  0  0  0  0
  -52.8324   -8.1693   17.3082 O   0  0  0  0  0  0
  -50.4020   -6.9954   17.2285 O   0  0  0  0  0  0
  -56.3056   -5.8419   15.1154 O   0  0  0  0  0  0
  -50.3167    0.1962   13.0378 O   0  0  0  0  0  0
  -46.3407   -1.9174   14.5665 O   0  0  0  0  0  0
  -47.5794    0.1692   13.2828 O   0  0  0  0  0  0
  -52.3354   -6.0673   16.2407 C   0  0  0  0  0  0
  -50.6541   -4.0218   15.4070 C   0  0  0  0  0  0
  -52.7980   -4.9659   15.5154 C   0  0  0  0  0  0
  -49.8328   -2.9191   14.8653 C   0  0  0  0  0  0
  -50.0815   -5.0415   16.1228 C   0  0  0  0  0  0
  -50.9247   -6.0929   16.5754 C   0  0  0  0  0  0
  -53.2366   -7.0884   16.5936 C   0  0  0  0  0  0
  -54.1303   -4.9073   15.1489 C   0  0  0  0  0  0
  -48.4508   -2.9240   14.9854 C   0  0  0  0  0  0
  -50.4493   -1.8691   14.2006 C   0  0  0  0  0  0
  -55.0035   -5.9153   15.4879 C   0  0  0  0  0  0
  -54.5501   -7.0058   16.2140 C   0  0  0  0  0  0
  -49.7016   -0.8370   13.6782 C   0  0  0  0  0  0
  -47.6995   -1.8997   14.4536 C   0  0  0  0  0  0
  -48.3233   -0.8497   13.8019 C   0  0  0  0  0  0
  -48.4164   -6.0156   16.6365 H   0  0  0  0  0  0
  -51.8605   -8.1190   17.5517 H   0  0  0  0  0  0
  -56.9006   -6.3355   15.7587 H   0  0  0  0  0  0
  -50.8472    0.7626   13.6780 H   0  0  0  0  0  0
  -45.8956   -1.7881   13.6745 H   0  0  0  0  0  0
  -46.7451   -0.1739   12.8391 H   0  0  0  0  0  0
  1 10  1  0  0  0
  1 11  1  0  0  0
  2 13  1  0  0  0
  2 24  1  0  0  0
  3 15  1  0  0  0
  3 25  1  0  0  0
  4 14  2  0  0  0
  5 19  1  0  0  0
  5 26  1  0  0  0
  6 21  1  0  0  0
  6 27  1  0  0  0
  7 22  1  0  0  0
  7 28  1  0  0  0
  8 23  1  0  0  0
  8 29  1  0  0  0
  9 11  2  0  0  0
  9 14  1  0  0  0
  9 15  1  0  0  0
 10 12  1  0  0  0
 10 13  2  0  0  0
 11 16  1  0  0  0
 12 17  2  0  0  0
 12 18  1  0  0  0
 13 14  1  0  0  0
 15 20  2  0  0  0
 16 19  2  0  0  0
 17 22  1  0  0  0
 18 21  2  0  0  0
 19 20  1  0  0  0
 21 23  1  0  0  0
 22 23  2  0  0  0
M  END
>  <CHROM.0>
-55.96975677,-60.67400613,-69.37612426

>  <CHROM.1>
-158.14511122,1.46974932,-151.72777159,68.94457757,128.05392981,-138.90769956
-176.17908178,-50.93838889,-4.06396344,15.27074551,2.32894531,0.15661735
2.60703044

>  <HEADER>
                                                                          

>  <MASTER>
        0    0    0    0    0    0    0    0   33    0   33    0          

>  <Name>
Myricetin.pdb

>  <RI>
-6.60524e+08

>  <Rbt.Current_Directory>
/root/miniconda3/envs/rdock/share/rxdock-2013.1.1_148c5bd1-0/data/ligands/prepped_ligands/Myricetin

>  <Rbt.Executable>
rbdock/0.1.0

>  <Rbt.Library>
librxdock.so/0.1.0

>  <Rbt.Parameter_File>
/root/miniconda3/envs/rdock/share/rxdock-2013.1.1_148c5bd1-0/data/scripts/dock.prm

>  <Rbt.Receptor>
def.prm

>  <SCORE>
-27.5441

>  <SCORE.INTER>
-23.742

>  <SCORE.INTER.CONST>
1

>  <SCORE.INTER.POLAR>
-3.0848

>  <SCORE.INTER.REPUL>
0.0626941

>  <SCORE.INTER.ROT>
1

>  <SCORE.INTER.VDW>
-19.9672

>  <SCORE.INTER.norm>
-1.03226

>  <SCORE.INTRA>
-2.88491

>  <SCORE.INTRA.DIHEDRAL>
-10.7422

>  <SCORE.INTRA.DIHEDRAL.0>
21.7491

>  <SCORE.INTRA.POLAR>
0

>  <SCORE.INTRA.POLAR.0>
0

>  <SCORE.INTRA.REPUL>
0

>  <SCORE.INTRA.REPUL.0>
0

>  <SCORE.INTRA.VDW>
2.48621

>  <SCORE.INTRA.VDW.0>
-1.39731

>  <SCORE.INTRA.norm>
-0.125431

>  <SCORE.RESTR>
0

>  <SCORE.RESTR.CAVITY>
0

>  <SCORE.RESTR.norm>
0

>  <SCORE.SYSTEM>
-0.917134

>  <SCORE.SYSTEM.CONST>
0

>  <SCORE.SYSTEM.DIHEDRAL>
0.259335

>  <SCORE.SYSTEM.VDW>
-1.0468

>  <SCORE.SYSTEM.norm>
-0.0398754

>  <SCORE.heavy>
23

>  <SCORE.norm>
-1.19757

>  <TITLE>
    5281672_D                                                             

$$$$
Myricetin.pdb
  RxDock  02242101293D
librxdock.so/0.1.0
 29 31  0  0  0  0  0  0  0  0999 V2000
  -51.7873   -4.0346   14.9023 O   0  0  0  0  0  0
  -53.8265   -3.9911   17.9941 O   0  0  0  0  0  0
  -50.6666    0.0740   17.1809 O   0  0  0  0  0  0
  -52.4036   -1.7431   18.1668 O   0  0  0  0  0  0
  -48.7811   -0.9626   12.9787 O   0  0  0  0  0  0
  -53.5881   -9.0168   16.8953 O   0  0  0  0  0  0
  -56.0713   -6.9110   13.4295 O   0  0  0  0  0  0
  -55.5160   -9.1350   14.9401 O   0  0  0  0  0  0
  -51.2868   -1.9884   16.1010 C   0  0  0  0  0  0
  -52.7124   -4.3589   15.8678 C   0  0  0  0  0  0
  -51.1404   -2.8463   15.0074 C   0  0  0  0  0  0
  -53.4682   -5.6048   15.6215 C   0  0  0  0  0  0
  -52.9355   -3.6102   16.9945 C   0  0  0  0  0  0
  -52.2051   -2.3997   17.1452 C   0  0  0  0  0  0
  -50.5637   -0.7821   16.1327 C   0  0  0  0  0  0
  -50.2963   -2.4867   13.9726 C   0  0  0  0  0  0
  -54.4437   -5.6731   14.6375 C   0  0  0  0  0  0
  -53.1824   -6.7379   16.3690 C   0  0  0  0  0  0
  -49.6008   -1.2998   14.0054 C   0  0  0  0  0  0
  -49.7375   -0.4497   15.0919 C   0  0  0  0  0  0
  -53.8669   -7.9124   16.1479 C   0  0  0  0  0  0
  -55.1214   -6.8493   14.4059 C   0  0  0  0  0  0
  -54.8384   -7.9724   15.1640 C   0  0  0  0  0  0
  -54.2168   -3.1950   18.4680 H   0  0  0  0  0  0
  -50.9971   -0.3830   18.0106 H   0  0  0  0  0  0
  -48.9251   -0.0097   12.6908 H   0  0  0  0  0  0
  -52.7897   -8.8676   17.4889 H   0  0  0  0  0  0
  -56.4150   -7.8481   13.3092 H   0  0  0  0  0  0
  -55.2252   -9.8580   15.5753 H   0  0  0  0  0  0
  1 10  1  0  0  0
  1 11  1  0  0  0
  2 13  1  0  0  0
  2 24  1  0  0  0
  3 15  1  0  0  0
  3 25  1  0  0  0
  4 14  2  0  0  0
  5 19  1  0  0  0
  5 26  1  0  0  0
  6 21  1  0  0  0
  6 27  1  0  0  0
  7 22  1  0  0  0
  7 28  1  0  0  0
  8 23  1  0  0  0
  8 29  1  0  0  0
  9 11  2  0  0  0
  9 14  1  0  0  0
  9 15  1  0  0  0
 10 12  1  0  0  0
 10 13  2  0  0  0
 11 16  1  0  0  0
 12 17  2  0  0  0
 12 18  1  0  0  0
 13 14  1  0  0  0
 15 20  2  0  0  0
 16 19  2  0  0  0
 17 22  1  0  0  0
 18 21  2  0  0  0
 19 20  1  0  0  0
 21 23  1  0  0  0
 22 23  2  0  0  0
M  END
>  <CHROM.0>
173.93629044,176.87465034,77.83940141

>  <CHROM.1>
-150.99600515,21.48031781,133.53317187,-7.01053180,174.20140920,1.42694170
-72.35921170,-52.55736775,-4.24115378,15.63322276,-0.41238414,-0.92732247
-2.05643531

>  <HEADER>
                                                                          

>  <MASTER>
        0    0    0    0    0    0    0    0   33    0   33    0          

>  <Name>
Myricetin.pdb

>  <RI>
-6.60524e+08

>  <Rbt.Current_Directory>
/root/miniconda3/envs/rdock/share/rxdock-2013.1.1_148c5bd1-0/data/ligands/prepped_ligands/Myricetin

>  <Rbt.Executable>
rbdock/0.1.0

>  <Rbt.Library>
librxdock.so/0.1.0

>  <Rbt.Parameter_File>
/root/miniconda3/envs/rdock/share/rxdock-2013.1.1_148c5bd1-0/data/scripts/dock.prm

>  <Rbt.Receptor>
def.prm

>  <SCORE>
-24.175

>  <SCORE.INTER>
-17.2788

>  <SCORE.INTER.CONST>
1

>  <SCORE.INTER.POLAR>
-1.84864

>  <SCORE.INTER.REPUL>
0.432819

>  <SCORE.INTER.ROT>
1

>  <SCORE.INTER.VDW>
-19.5575

>  <SCORE.INTER.norm>
-0.751251

>  <SCORE.INTRA>
-6.46344

>  <SCORE.INTRA.DIHEDRAL>
-12.9227

>  <SCORE.INTRA.DIHEDRAL.0>
21.7491

>  <SCORE.INTRA.POLAR>
-0.215461

>  <SCORE.INTRA.POLAR.0>
0

>  <SCORE.INTRA.REPUL>
0

>  <SCORE.INTRA.REPUL.0>
0

>  <SCORE.INTRA.VDW>
0.730452

>  <SCORE.INTRA.VDW.0>
-1.39731

>  <SCORE.INTRA.norm>
-0.281019

>  <SCORE.RESTR>
0.034991

>  <SCORE.RESTR.CAVITY>
0.034991

>  <SCORE.RESTR.norm>
0.00152135

>  <SCORE.SYSTEM>
-0.467748

>  <SCORE.SYSTEM.CONST>
0

>  <SCORE.SYSTEM.DIHEDRAL>
0.859871

>  <SCORE.SYSTEM.POLAR>
-0.0185706

>  <SCORE.SYSTEM.VDW>
-0.834543

>  <SCORE.SYSTEM.norm>
-0.0203369

>  <SCORE.heavy>
23

>  <SCORE.norm>
-1.05109

>  <TITLE>
    5281672_D                                                             

$$$$
Myricetin.pdb
  RxDock  02242101293D
librxdock.so/0.1.0
 29 31  0  0  0  0  0  0  0  0999 V2000
  -46.2083    0.0038   16.7624 O   0  0  0  0  0  0
  -44.9222   -2.7631   14.6625 O   0  0  0  0  0  0
  -41.7565   -0.9399   18.3809 O   0  0  0  0  0  0
  -42.8810   -2.2315   16.2932 O   0  0  0  0  0  0
  -44.4546    2.3259   20.4647 O   0  0  0  0  0  0
  -50.0502    0.7343   13.5893 O   0  0  0  0  0  0
  -49.2709   -3.9566   13.5594 O   0  0  0  0  0  0
  -50.8058   -1.7986   12.8361 O   0  0  0  0  0  0
  -43.9718   -0.5371   17.5237 C   0  0  0  0  0  0
  -46.1275   -1.0150   15.8412 C   0  0  0  0  0  0
  -45.1648    0.1857   17.6107 C   0  0  0  0  0  0
  -47.3485   -1.2355   15.0384 C   0  0  0  0  0  0
  -45.0081   -1.7827   15.6472 C   0  0  0  0  0  0
  -43.8845   -1.5458   16.4856 C   0  0  0  0  0  0
  -42.9358   -0.2704   18.4374 C   0  0  0  0  0  0
  -45.3075    1.1408   18.6007 C   0  0  0  0  0  0
  -47.7368   -2.5102   14.6529 C   0  0  0  0  0  0
  -48.1388   -0.1522   14.6827 C   0  0  0  0  0  0
  -44.2940    1.3883   19.4979 C   0  0  0  0  0  0
  -43.1062    0.6788   19.4101 C   0  0  0  0  0  0
  -49.2868   -0.3367   13.9446 C   0  0  0  0  0  0
  -48.8905   -2.6992   13.9252 C   0  0  0  0  0  0
  -49.6675   -1.6118   13.5644 C   0  0  0  0  0  0
  -45.4164   -2.4972   13.8284 H   0  0  0  0  0  0
  -41.0373   -0.4833   18.9106 H   0  0  0  0  0  0
  -43.6266    2.4191   21.0279 H   0  0  0  0  0  0
  -51.0315    0.5170   13.6311 H   0  0  0  0  0  0
  -48.4763   -4.5328   13.3421 H   0  0  0  0  0  0
  -51.1947   -0.9231   12.5313 H   0  0  0  0  0  0
  1 10  1  0  0  0
  1 11  1  0  0  0
  2 13  1  0  0  0
  2 24  1  0  0  0
  3 15  1  0  0  0
  3 25  1  0  0  0
  4 14  2  0  0  0
  5 19  1  0  0  0
  5 26  1  0  0  0
  6 21  1  0  0  0
  6 27  1  0  0  0
  7 22  1  0  0  0
  7 28  1  0  0  0
  8 23  1  0  0  0
  8 29  1  0  0  0
  9 11  2  0  0  0
  9 14  1  0  0  0
  9 15  1  0  0  0
 10 12  1  0  0  0
 10 13  2  0  0  0
 11 16  1  0  0  0
 12 17  2  0  0  0
 12 18  1  0  0  0
 13 14  1  0  0  0
 15 20  2  0  0  0
 16 19  2  0  0  0
 17 22  1  0  0  0
 18 21  2  0  0  0
 19 20  1  0  0  0
 21 23  1  0  0  0
 22 23  2  0  0  0
M  END
>  <CHROM.0>
57.93018714,70.19399614,-58.94719523

>  <CHROM.1>
35.55457293,164.16673493,-178.27375897,-142.21437680,-35.76601695,8.41102197
-144.42737841,-46.16698804,-0.84260863,16.11251111,0.62395254,-0.43243909
0.67186378

>  <HEADER>
                                                                          

>  <MASTER>
        0    0    0    0    0    0    0    0   33    0   33    0          

>  <Name>
Myricetin.pdb

>  <RI>
-6.60524e+08

>  <Rbt.Current_Directory>
/root/miniconda3/envs/rdock/share/rxdock-2013.1.1_148c5bd1-0/data/ligands/prepped_ligands/Myricetin

>  <Rbt.Executable>
rbdock/0.1.0

>  <Rbt.Library>
librxdock.so/0.1.0

>  <Rbt.Parameter_File>
/root/miniconda3/envs/rdock/share/rxdock-2013.1.1_148c5bd1-0/data/scripts/dock.prm

>  <Rbt.Receptor>
def.prm

>  <SCORE>
-19.9069

>  <SCORE.INTER>
-14.454

>  <SCORE.INTER.CONST>
1

>  <SCORE.INTER.POLAR>
-2.15665

>  <SCORE.INTER.REPUL>
0.496555

>  <SCORE.INTER.ROT>
1

>  <SCORE.INTER.VDW>
-16.0041

>  <SCORE.INTER.norm>
-0.628433

>  <SCORE.INTRA>
-4.59202

>  <SCORE.INTRA.DIHEDRAL>
-14.5958

>  <SCORE.INTRA.DIHEDRAL.0>
21.7491

>  <SCORE.INTRA.POLAR>
0

>  <SCORE.INTRA.POLAR.0>
0

>  <SCORE.INTRA.REPUL>
0

>  <SCORE.INTRA.REPUL.0>
0

>  <SCORE.INTRA.VDW>
2.7059

>  <SCORE.INTRA.VDW.0>
-1.39731

>  <SCORE.INTRA.norm>
-0.199653

>  <SCORE.RESTR>
0.0189878

>  <SCORE.RESTR.CAVITY>
0.0189878

>  <SCORE.RESTR.norm>
0.000825559

>  <SCORE.SYSTEM>
-0.879917

>  <SCORE.SYSTEM.CONST>
0

>  <SCORE.SYSTEM.DIHEDRAL>
0.514916

>  <SCORE.SYSTEM.POLAR>
-0.00341347

>  <SCORE.SYSTEM.VDW>
-1.12577

>  <SCORE.SYSTEM.norm>
-0.0382573

>  <SCORE.heavy>
23

>  <SCORE.norm>
-0.865517

>  <TITLE>
    5281672_D                                                             

$$$$
Myricetin.pdb
  RxDock  02242101293D
librxdock.so/0.1.0
 29 31  0  0  0  0  0  0  0  0999 V2000
  -50.1158   -4.0456   16.0393 O   0  0  0  0  0  0
  -47.4801   -5.7553   18.0013 O   0  0  0  0  0  0
  -52.1623   -8.0394   17.8253 O   0  0  0  0  0  0
  -49.6084   -7.3260   18.3348 O   0  0  0  0  0  0
  -54.5688   -5.1463   14.9746 O   0  0  0  0  0  0
  -44.3536   -2.8652   17.3370 O   0  0  0  0  0  0
  -47.0773   -0.5413   14.2075 O   0  0  0  0  0  0
  -44.6774   -0.8409   15.5064 O   0  0  0  0  0  0
  -51.0669   -6.0743   16.9633 C   0  0  0  0  0  0
  -48.9016   -4.3766   16.5955 C   0  0  0  0  0  0
  -51.1469   -4.9155   16.1861 C   0  0  0  0  0  0
  -47.7946   -3.4470   16.2883 C   0  0  0  0  0  0
  -48.6995   -5.4750   17.3910 C   0  0  0  0  0  0
  -49.7979   -6.3512   17.6082 C   0  0  0  0  0  0
  -52.1925   -6.9113   17.0712 C   0  0  0  0  0  0
  -52.3276   -4.6208   15.5290 C   0  0  0  0  0  0
  -47.9489   -2.4232   15.3650 C   0  0  0  0  0  0
  -46.5839   -3.5811   16.9522 C   0  0  0  0  0  0
  -53.4210   -5.4501   15.6302 C   0  0  0  0  0  0
  -53.3480   -6.5965   16.4063 C   0  0  0  0  0  0
  -45.5430   -2.7184   16.6891 C   0  0  0  0  0  0
  -46.9140   -1.5516   15.1086 C   0  0  0  0  0  0
  -45.7052   -1.6993   15.7669 C   0  0  0  0  0  0
  -47.4240   -6.7142   18.2980 H   0  0  0  0  0  0
  -52.8782   -8.6903   17.5600 H   0  0  0  0  0  0
  -55.3143   -5.7716   15.2291 H   0  0  0  0  0  0
  -43.8287   -3.6416   16.9713 H   0  0  0  0  0  0
  -46.4627   -0.6484   13.4192 H   0  0  0  0  0  0
  -44.9486   -0.1324   14.8468 H   0  0  0  0  0  0
  1 10  1  0  0  0
  1 11  1  0  0  0
  2 13  1  0  0  0
  2 24  1  0  0  0
  3 15  1  0  0  0
  3 25  1  0  0  0
  4 14  2  0  0  0
  5 19  1  0  0  0
  5 26  1  0  0  0
  6 21  1  0  0  0
  6 27  1  0  0  0
  7 22  1  0  0  0
  7 28  1  0  0  0
  8 23  1  0  0  0
  8 29  1  0  0  0
  9 11  2  0  0  0
  9 14  1  0  0  0
  9 15  1  0  0  0
 10 12  1  0  0  0
 10 13  2  0  0  0
 11 16  1  0  0  0
 12 17  2  0  0  0
 12 18  1  0  0  0
 13 14  1  0  0  0
 15 20  2  0  0  0
 16 19  2  0  0  0
 17 22  1  0  0  0
 18 21  2  0  0  0
 19 20  1  0  0  0
 21 23  1  0  0  0
 22 23  2  0  0  0
M  END
>  <CHROM.0>
-71.39101351,-178.67829501,-58.64676708

>  <CHROM.1>
-162.22180175,-159.40138787,-172.83158747,75.38606091,-116.11058594,-177.69280543
-8.01208746,-49.14624551,-4.37133986,16.42379878,2.63264295,0.29651555,2.51002120

>  <HEADER>
                                                                          

>  <MASTER>
        0    0    0    0    0    0    0    0   33    0   33    0          

>  <Name>
Myricetin.pdb

>  <RI>
-6.60524e+08

>  <Rbt.Current_Directory>
/root/miniconda3/envs/rdock/share/rxdock-2013.1.1_148c5bd1-0/data/ligands/prepped_ligands/Myricetin

>  <Rbt.Executable>
rbdock/0.1.0

>  <Rbt.Library>
librxdock.so/0.1.0

>  <Rbt.Parameter_File>
/root/miniconda3/envs/rdock/share/rxdock-2013.1.1_148c5bd1-0/data/scripts/dock.prm

>  <Rbt.Receptor>
def.prm

>  <SCORE>
-23.7116

>  <SCORE.INTER>
-19.7255

>  <SCORE.INTER.CONST>
1

>  <SCORE.INTER.POLAR>
-2.19683

>  <SCORE.INTER.REPUL>
0

>  <SCORE.INTER.ROT>
1

>  <SCORE.INTER.VDW>
-18.6562

>  <SCORE.INTER.norm>
-0.857628

>  <SCORE.INTRA>
-3.117

>  <SCORE.INTRA.DIHEDRAL>
-12.1424

>  <SCORE.INTRA.DIHEDRAL.0>
21.7491

>  <SCORE.INTRA.POLAR>
0

>  <SCORE.INTRA.POLAR.0>
0

>  <SCORE.INTRA.REPUL>
0

>  <SCORE.INTRA.REPUL.0>
0

>  <SCORE.INTRA.VDW>
2.95422

>  <SCORE.INTRA.VDW.0>
-1.39731

>  <SCORE.INTRA.norm>
-0.135522

>  <SCORE.RESTR>
0

>  <SCORE.RESTR.CAVITY>
0

>  <SCORE.RESTR.norm>
0

>  <SCORE.SYSTEM>
-0.869172

>  <SCORE.SYSTEM.CONST>
0

>  <SCORE.SYSTEM.DIHEDRAL>
0.330925

>  <SCORE.SYSTEM.POLAR>
-0.00412497

>  <SCORE.SYSTEM.VDW>
-1.02061

>  <SCORE.SYSTEM.norm>
-0.0377901

>  <SCORE.heavy>
23

>  <SCORE.norm>
-1.03094

>  <TITLE>
    5281672_D                                                             

$$$$
