Myricetin.pdb
  RxDock  02242111153D
librxdock.so/0.1.0
 29 31  0  0  0  0  0  0  0  0999 V2000
  -52.0316   -3.8759   14.9185 O   0  0  0  0  0  0
  -53.2688   -4.2884   18.3852 O   0  0  0  0  0  0
  -50.6059    0.0644   17.3205 O   0  0  0  0  0  0
  -51.9615   -1.9665   18.4733 O   0  0  0  0  0  0
  -49.7340   -0.4122   12.7053 O   0  0  0  0  0  0
  -56.2405   -6.8717   13.8984 O   0  0  0  0  0  0
  -53.4051   -9.0788   17.0132 O   0  0  0  0  0  0
  -55.5191   -9.1457   15.2631 O   0  0  0  0  0  0
  -51.3622   -1.9241   16.1898 C   0  0  0  0  0  0
  -52.6803   -4.3619   16.0302 C   0  0  0  0  0  0
  -51.4392   -2.6579   15.0029 C   0  0  0  0  0  0
  -53.4092   -5.6316   15.8283 C   0  0  0  0  0  0
  -52.6641   -3.7455   17.2548 C   0  0  0  0  0  0
  -51.9811   -2.5036   17.3663 C   0  0  0  0  0  0
  -50.7145   -0.6753   16.1876 C   0  0  0  0  0  0
  -50.8874   -2.1363   13.8470 C   0  0  0  0  0  0
  -53.0512   -6.7843   16.5120 C   0  0  0  0  0  0
  -54.4890   -5.6701   14.9582 C   0  0  0  0  0  0
  -50.2653   -0.9089   13.8501 C   0  0  0  0  0  0
  -50.1800   -0.1815   15.0271 C   0  0  0  0  0  0
  -55.1891   -6.8402   14.7641 C   0  0  0  0  0  0
  -53.7567   -7.9528   16.3292 C   0  0  0  0  0  0
  -54.8258   -7.9858   15.4505 C   0  0  0  0  0  0
  -53.3411   -5.2892   18.3243 H   0  0  0  0  0  0
  -50.6858   -0.4977   18.1476 H   0  0  0  0  0  0
  -49.1334   -1.0830   12.2571 H   0  0  0  0  0  0
  -56.6479   -7.7901   13.8473 H   0  0  0  0  0  0
  -52.5871   -8.9264   17.5774 H   0  0  0  0  0  0
  -55.0460   -9.9282   15.6808 H   0  0  0  0  0  0
  1 10  1  0  0  0
  1 11  1  0  0  0
  2 13  1  0  0  0
  2 24  1  0  0  0
  3 15  1  0  0  0
  3 25  1  0  0  0
  4 14  2  0  0  0
  5 19  1  0  0  0
  5 26  1  0  0  0
  6 21  1  0  0  0
  6 27  1  0  0  0
  7 22  1  0  0  0
  7 28  1  0  0  0
  8 23  1  0  0  0
  8 29  1  0  0  0
  9 11  2  0  0  0
  9 14  1  0  0  0
  9 15  1  0  0  0
 10 12  1  0  0  0
 10 13  2  0  0  0
 11 16  1  0  0  0
 12 17  2  0  0  0
 12 18  1  0  0  0
 13 14  1  0  0  0
 15 20  2  0  0  0
 16 19  2  0  0  0
 17 22  1  0  0  0
 18 21  2  0  0  0
 19 20  1  0  0  0
 21 23  1  0  0  0
 22 23  2  0  0  0
M  END
>  <CHROM.0>
55.58019246,-57.70752261,-178.25292010

>  <CHROM.1>
25.30000039,22.62794203,-50.73435899,179.21528259,-2.95805152,169.07511414
116.83223604,-52.61958122,-4.20445395,15.78289067,0.03520666,-1.04067772
-1.56327957

>  <HEADER>
                                                                          

>  <MASTER>
        0    0    0    0    0    0    0    0   33    0   33    0          

>  <Name>
Myricetin.pdb

>  <RI>
-1.17155e+09

>  <Rbt.Current_Directory>
/root/miniconda3/envs/rdock/share/rxdock-2013.1.1_148c5bd1-0/data/ligands/prepped_ligands/Myricetin

>  <Rbt.Executable>
rbdock/0.1.0

>  <Rbt.Library>
librxdock.so/0.1.0

>  <Rbt.Parameter_File>
/root/miniconda3/envs/rdock/share/rxdock-2013.1.1_148c5bd1-0/data/scripts/dock.prm

>  <Rbt.Receptor>
def.prm

>  <SCORE>
-24.8949

>  <SCORE.INTER>
-17.943

>  <SCORE.INTER.CONST>
1

>  <SCORE.INTER.POLAR>
-1.70069

>  <SCORE.INTER.REPUL>
0.00095033

>  <SCORE.INTER.ROT>
1

>  <SCORE.INTER.VDW>
-18.5654

>  <SCORE.INTER.norm>
-0.78013

>  <SCORE.INTRA>
-5.93934

>  <SCORE.INTRA.DIHEDRAL>
-13.2234

>  <SCORE.INTRA.DIHEDRAL.0>
21.7491

>  <SCORE.INTRA.POLAR>
-0.200716

>  <SCORE.INTRA.POLAR.0>
0

>  <SCORE.INTRA.REPUL>
0

>  <SCORE.INTRA.REPUL.0>
0

>  <SCORE.INTRA.VDW>
1.35478

>  <SCORE.INTRA.VDW.0>
-1.39731

>  <SCORE.INTRA.norm>
-0.258232

>  <SCORE.RESTR>
0

>  <SCORE.RESTR.CAVITY>
0

>  <SCORE.RESTR.norm>
0

>  <SCORE.SYSTEM>
-1.01255

>  <SCORE.SYSTEM.CONST>
0

>  <SCORE.SYSTEM.DIHEDRAL>
0.0834278

>  <SCORE.SYSTEM.POLAR>
-0.00608759

>  <SCORE.SYSTEM.VDW>
-1.03356

>  <SCORE.SYSTEM.norm>
-0.0440238

>  <SCORE.heavy>
23

>  <SCORE.norm>
-1.08239

>  <TITLE>
    5281672_D                                                             

$$$$
Myricetin.pdb
  RxDock  02242111153D
librxdock.so/0.1.0
 29 31  0  0  0  0  0  0  0  0999 V2000
  -48.2842   -5.7228   16.5000 O   0  0  0  0  0  0
  -50.9047   -3.2358   15.6832 O   0  0  0  0  0  0
  -52.4880   -7.7679   17.7141 O   0  0  0  0  0  0
  -52.2982   -5.3159   16.5992 O   0  0  0  0  0  0
  -48.3947   -9.9858   18.4974 O   0  0  0  0  0  0
  -44.8013   -2.0455   16.6215 O   0  0  0  0  0  0
  -47.8822   -0.7832   13.2263 O   0  0  0  0  0  0
  -45.5007   -0.3973   14.5363 O   0  0  0  0  0  0
  -50.4322   -6.6755   17.0937 C   0  0  0  0  0  0
  -48.9177   -4.5606   16.1243 C   0  0  0  0  0  0
  -49.0373   -6.7242   17.0210 C   0  0  0  0  0  0
  -48.0225   -3.4696   15.6861 C   0  0  0  0  0  0
  -50.2788   -4.3953   16.1328 C   0  0  0  0  0  0
  -51.0775   -5.4707   16.6092 C   0  0  0  0  0  0
  -51.1330   -7.7682   17.6361 C   0  0  0  0  0  0
  -48.3730   -7.8409   17.4946 C   0  0  0  0  0  0
  -48.3669   -2.6337   14.6340 C   0  0  0  0  0  0
  -46.8248   -3.2572   16.3533 C   0  0  0  0  0  0
  -49.0645   -8.9012   18.0341 C   0  0  0  0  0  0
  -50.4486   -8.8599   18.1009 C   0  0  0  0  0  0
  -45.9811   -2.2388   15.9684 C   0  0  0  0  0  0
  -47.5312   -1.6071   14.2546 C   0  0  0  0  0  0
  -46.3324   -1.4090   14.9180 C   0  0  0  0  0  0
  -51.9018   -3.3497   15.6249 H   0  0  0  0  0  0
  -52.8690   -6.8412   17.6625 H   0  0  0  0  0  0
  -49.0248  -10.7313   18.7399 H   0  0  0  0  0  0
  -44.3009   -1.2551   16.2514 H   0  0  0  0  0  0
  -48.3021   -1.2962   12.4705 H   0  0  0  0  0  0
  -45.6551   -0.1366   13.5777 H   0  0  0  0  0  0
  1 10  1  0  0  0
  1 11  1  0  0  0
  2 13  1  0  0  0
  2 24  1  0  0  0
  3 15  1  0  0  0
  3 25  1  0  0  0
  4 14  2  0  0  0
  5 19  1  0  0  0
  5 26  1  0  0  0
  6 21  1  0  0  0
  6 27  1  0  0  0
  7 22  1  0  0  0
  7 28  1  0  0  0
  8 23  1  0  0  0
  8 29  1  0  0  0
  9 11  2  0  0  0
  9 14  1  0  0  0
  9 15  1  0  0  0
 10 12  1  0  0  0
 10 13  2  0  0  0
 11 16  1  0  0  0
 12 17  2  0  0  0
 12 18  1  0  0  0
 13 14  1  0  0  0
 15 20  2  0  0  0
 16 19  2  0  0  0
 17 22  1  0  0  0
 18 21  2  0  0  0
 19 20  1  0  0  0
 21 23  1  0  0  0
 22 23  2  0  0  0
M  END
>  <CHROM.0>
57.25389500,-61.22705161,-59.25561618

>  <CHROM.1>
170.75850191,-20.11130588,-171.88096863,-178.48766922,-40.65679451,155.87427306
141.99461152,-48.79489593,-4.78001247,16.30091216,-2.05895362,-0.12055846
-0.47280663

>  <HEADER>
                                                                          

>  <MASTER>
        0    0    0    0    0    0    0    0   33    0   33    0          

>  <Name>
Myricetin.pdb

>  <RI>
-1.17155e+09

>  <Rbt.Current_Directory>
/root/miniconda3/envs/rdock/share/rxdock-2013.1.1_148c5bd1-0/data/ligands/prepped_ligands/Myricetin

>  <Rbt.Executable>
rbdock/0.1.0

>  <Rbt.Library>
librxdock.so/0.1.0

>  <Rbt.Parameter_File>
/root/miniconda3/envs/rdock/share/rxdock-2013.1.1_148c5bd1-0/data/scripts/dock.prm

>  <Rbt.Receptor>
def.prm

>  <SCORE>
-23.1152

>  <SCORE.INTER>
-15.0212

>  <SCORE.INTER.CONST>
1

>  <SCORE.INTER.POLAR>
-1.32843

>  <SCORE.INTER.REPUL>
0

>  <SCORE.INTER.ROT>
1

>  <SCORE.INTER.VDW>
-16.9046

>  <SCORE.INTER.norm>
-0.653097

>  <SCORE.INTRA>
-7.04033

>  <SCORE.INTRA.DIHEDRAL>
-16.2791

>  <SCORE.INTRA.DIHEDRAL.0>
21.7491

>  <SCORE.INTRA.POLAR>
-0.125968

>  <SCORE.INTRA.POLAR.0>
0

>  <SCORE.INTRA.REPUL>
0

>  <SCORE.INTRA.REPUL.0>
0

>  <SCORE.INTRA.VDW>
1.52752

>  <SCORE.INTRA.VDW.0>
-1.39731

>  <SCORE.INTRA.norm>
-0.306101

>  <SCORE.RESTR>
0.00173431

>  <SCORE.RESTR.CAVITY>
0.00173431

>  <SCORE.RESTR.norm>
7.54047e-05

>  <SCORE.SYSTEM>
-1.05535

>  <SCORE.SYSTEM.CONST>
0

>  <SCORE.SYSTEM.DIHEDRAL>
0.0289853

>  <SCORE.SYSTEM.POLAR>
-0.00266567

>  <SCORE.SYSTEM.VDW>
-1.06078

>  <SCORE.SYSTEM.norm>
-0.0458847

>  <SCORE.heavy>
23

>  <SCORE.norm>
-1.00501

>  <TITLE>
    5281672_D                                                             

$$$$
Myricetin.pdb
  RxDock  02242111153D
librxdock.so/0.1.0
 29 31  0  0  0  0  0  0  0  0999 V2000
  -48.4227   -3.2057   15.8878 O   0  0  0  0  0  0
  -51.6210   -2.1591   14.3403 O   0  0  0  0  0  0
  -47.4043    0.6978   13.2319 O   0  0  0  0  0  0
  -49.8923   -0.3224   13.4765 O   0  0  0  0  0  0
  -44.0011   -1.6240   15.5374 O   0  0  0  0  0  0
  -54.0089   -4.8276   17.0870 O   0  0  0  0  0  0
  -50.3077   -7.8074   16.8995 O   0  0  0  0  0  0
  -52.9487   -7.3328   17.4792 O   0  0  0  0  0  0
  -47.9901   -1.2494   14.5241 C   0  0  0  0  0  0
  -49.7383   -3.1794   15.4858 C   0  0  0  0  0  0
  -47.5736   -2.2857   15.3642 C   0  0  0  0  0  0
  -50.5743   -4.2859   15.9966 C   0  0  0  0  0  0
  -50.2717   -2.2070   14.6797 C   0  0  0  0  0  0
  -49.3998   -1.1975   14.1877 C   0  0  0  0  0  0
  -47.0412   -0.3306   14.0398 C   0  0  0  0  0  0
  -46.2347   -2.3942   15.6934 C   0  0  0  0  0  0
  -50.0478   -5.5536   16.1965 C   0  0  0  0  0  0
  -51.9056   -4.0506   16.3078 C   0  0  0  0  0  0
  -45.3105   -1.4984   15.2068 C   0  0  0  0  0  0
  -45.7209   -0.4645   14.3794 C   0  0  0  0  0  0
  -52.6993   -5.0649   16.7958 C   0  0  0  0  0  0
  -50.8357   -6.5668   16.6957 C   0  0  0  0  0  0
  -52.1663   -6.3267   16.9928 C   0  0  0  0  0  0
  -51.7883   -1.5407   13.5657 H   0  0  0  0  0  0
  -48.3885    0.6959   13.0375 H   0  0  0  0  0  0
  -43.8054   -2.5304   15.9268 H   0  0  0  0  0  0
  -54.1478   -3.8883   17.4193 H   0  0  0  0  0  0
  -50.9609   -8.4134   17.3651 H   0  0  0  0  0  0
  -52.8941   -8.1532   16.9008 H   0  0  0  0  0  0
  1 10  1  0  0  0
  1 11  1  0  0  0
  2 13  1  0  0  0
  2 24  1  0  0  0
  3 15  1  0  0  0
  3 25  1  0  0  0
  4 14  2  0  0  0
  5 19  1  0  0  0
  5 26  1  0  0  0
  6 21  1  0  0  0
  6 27  1  0  0  0
  7 22  1  0  0  0
  7 28  1  0  0  0
  8 23  1  0  0  0
  8 29  1  0  0  0
  9 11  2  0  0  0
  9 14  1  0  0  0
  9 15  1  0  0  0
 10 12  1  0  0  0
 10 13  2  0  0  0
 11 16  1  0  0  0
 12 17  2  0  0  0
 12 18  1  0  0  0
 13 14  1  0  0  0
 15 20  2  0  0  0
 16 19  2  0  0  0
 17 22  1  0  0  0
 18 21  2  0  0  0
 19 20  1  0  0  0
 21 23  1  0  0  0
 22 23  2  0  0  0
M  END
>  <CHROM.0>
-179.13111592,57.14372701,172.92801751

>  <CHROM.1>
-164.99118197,-0.59815471,15.29381195,-33.10112385,173.29478486,128.36303561
-33.68444674,-49.44555428,-3.21218040,15.50437884,-0.79631801,0.06755744
2.64964978

>  <HEADER>
                                                                          

>  <MASTER>
        0    0    0    0    0    0    0    0   33    0   33    0          

>  <Name>
Myricetin.pdb

>  <RI>
-1.17155e+09

>  <Rbt.Current_Directory>
/root/miniconda3/envs/rdock/share/rxdock-2013.1.1_148c5bd1-0/data/ligands/prepped_ligands/Myricetin

>  <Rbt.Executable>
rbdock/0.1.0

>  <Rbt.Library>
librxdock.so/0.1.0

>  <Rbt.Parameter_File>
/root/miniconda3/envs/rdock/share/rxdock-2013.1.1_148c5bd1-0/data/scripts/dock.prm

>  <Rbt.Receptor>
def.prm

>  <SCORE>
-21.0289

>  <SCORE.INTER>
-14.5545

>  <SCORE.INTER.CONST>
1

>  <SCORE.INTER.POLAR>
-1.7302

>  <SCORE.INTER.REPUL>
0.186434

>  <SCORE.INTER.ROT>
1

>  <SCORE.INTER.VDW>
-16.004

>  <SCORE.INTER.norm>
-0.632805

>  <SCORE.INTRA>
-5.62964

>  <SCORE.INTRA.DIHEDRAL>
-15.1203

>  <SCORE.INTRA.DIHEDRAL.0>
21.7491

>  <SCORE.INTRA.POLAR>
0

>  <SCORE.INTRA.POLAR.0>
0

>  <SCORE.INTRA.REPUL>
0

>  <SCORE.INTRA.REPUL.0>
0

>  <SCORE.INTRA.VDW>
1.93051

>  <SCORE.INTRA.VDW.0>
-1.39731

>  <SCORE.INTRA.norm>
-0.244767

>  <SCORE.RESTR>
0

>  <SCORE.RESTR.CAVITY>
0

>  <SCORE.RESTR.norm>
0

>  <SCORE.SYSTEM>
-0.844786

>  <SCORE.SYSTEM.CONST>
0

>  <SCORE.SYSTEM.DIHEDRAL>
0.169234

>  <SCORE.SYSTEM.VDW>
-0.929403

>  <SCORE.SYSTEM.norm>
-0.0367298

>  <SCORE.heavy>
23

>  <SCORE.norm>
-0.914302

>  <TITLE>
    5281672_D                                                             

$$$$
Myricetin.pdb
  RxDock  02242111153D
librxdock.so/0.1.0
 29 31  0  0  0  0  0  0  0  0999 V2000
  -45.6370    0.7056   17.4404 O   0  0  0  0  0  0
  -45.1396   -2.4370   15.5441 O   0  0  0  0  0  0
  -41.6654   -1.3429   19.2730 O   0  0  0  0  0  0
  -43.0652   -2.3967   17.2184 O   0  0  0  0  0  0
  -43.3764    2.6720   21.0733 O   0  0  0  0  0  0
  -50.6609   -0.3636   16.1839 O   0  0  0  0  0  0
  -48.0232    0.0290   12.2468 O   0  0  0  0  0  0
  -50.4854   -0.1047   13.4533 O   0  0  0  0  0  0
  -43.6596   -0.3908   18.3130 C   0  0  0  0  0  0
  -45.8276   -0.3509   16.5798 C   0  0  0  0  0  0
  -44.6022    0.6411   18.3158 C   0  0  0  0  0  0
  -47.0446   -0.2708   15.7453 C   0  0  0  0  0  0
  -44.9660   -1.4119   16.4700 C   0  0  0  0  0  0
  -43.8387   -1.4468   17.3355 C   0  0  0  0  0  0
  -42.6093   -0.3678   19.2488 C   0  0  0  0  0  0
  -44.4903    1.6582   19.2462 C   0  0  0  0  0  0
  -46.9654   -0.1389   14.3666 C   0  0  0  0  0  0
  -48.2926   -0.3543   16.3452 C   0  0  0  0  0  0
  -43.4667    1.6680   20.1658 C   0  0  0  0  0  0
  -42.5253    0.6503   20.1613 C   0  0  0  0  0  0
  -49.4394   -0.2932   15.5848 C   0  0  0  0  0  0
  -48.1099   -0.0898   13.6024 C   0  0  0  0  0  0
  -49.3517   -0.1621   14.2099 C   0  0  0  0  0  0
  -44.2622   -2.8450   15.2717 H   0  0  0  0  0  0
  -41.7764   -1.9946   18.5184 H   0  0  0  0  0  0
  -44.2336    3.1951   21.1296 H   0  0  0  0  0  0
  -50.5769   -0.5236   17.1735 H   0  0  0  0  0  0
  -47.1043   -0.2075   11.9146 H   0  0  0  0  0  0
  -51.3049   -0.2927   14.0045 H   0  0  0  0  0  0
  1 10  1  0  0  0
  1 11  1  0  0  0
  2 13  1  0  0  0
  2 24  1  0  0  0
  3 15  1  0  0  0
  3 25  1  0  0  0
  4 14  2  0  0  0
  5 19  1  0  0  0
  5 26  1  0  0  0
  6 21  1  0  0  0
  6 27  1  0  0  0
  7 22  1  0  0  0
  7 28  1  0  0  0
  8 23  1  0  0  0
  8 29  1  0  0  0
  9 11  2  0  0  0
  9 14  1  0  0  0
  9 15  1  0  0  0
 10 12  1  0  0  0
 10 13  2  0  0  0
 11 16  1  0  0  0
 12 17  2  0  0  0
 12 18  1  0  0  0
 13 14  1  0  0  0
 15 20  2  0  0  0
 16 19  2  0  0  0
 17 22  1  0  0  0
 18 21  2  0  0  0
 19 20  1  0  0  0
 21 23  1  0  0  0
 22 23  2  0  0  0
M  END
>  <CHROM.0>
61.30917660,-55.88966400,64.88680369

>  <CHROM.1>
151.17759782,4.86968450,15.30830042,-4.01133715,17.29192268,-7.68070037,114.41954530
-45.82596023,-0.19039922,16.84082636,0.57672478,-0.44026875,0.88135986

>  <HEADER>
                                                                          

>  <MASTER>
        0    0    0    0    0    0    0    0   33    0   33    0          

>  <Name>
Myricetin.pdb

>  <RI>
-1.17155e+09

>  <Rbt.Current_Directory>
/root/miniconda3/envs/rdock/share/rxdock-2013.1.1_148c5bd1-0/data/ligands/prepped_ligands/Myricetin

>  <Rbt.Executable>
rbdock/0.1.0

>  <Rbt.Library>
librxdock.so/0.1.0

>  <Rbt.Parameter_File>
/root/miniconda3/envs/rdock/share/rxdock-2013.1.1_148c5bd1-0/data/scripts/dock.prm

>  <Rbt.Receptor>
def.prm

>  <SCORE>
-22.3127

>  <SCORE.INTER>
-14.5082

>  <SCORE.INTER.CONST>
1

>  <SCORE.INTER.POLAR>
-2.16009

>  <SCORE.INTER.REPUL>
0.318567

>  <SCORE.INTER.ROT>
1

>  <SCORE.INTER.VDW>
-15.1567

>  <SCORE.INTER.norm>
-0.630793

>  <SCORE.INTRA>
-6.89861

>  <SCORE.INTRA.DIHEDRAL>
-15.7588

>  <SCORE.INTRA.DIHEDRAL.0>
21.7491

>  <SCORE.INTRA.POLAR>
-0.0968639

>  <SCORE.INTRA.POLAR.0>
0

>  <SCORE.INTRA.REPUL>
0

>  <SCORE.INTRA.REPUL.0>
0

>  <SCORE.INTRA.VDW>
1.31013

>  <SCORE.INTRA.VDW.0>
-1.39731

>  <SCORE.INTRA.norm>
-0.29994

>  <SCORE.RESTR>
0.0121451

>  <SCORE.RESTR.CAVITY>
0.0121451

>  <SCORE.RESTR.norm>
0.000528049

>  <SCORE.SYSTEM>
-0.917954

>  <SCORE.SYSTEM.CONST>
0

>  <SCORE.SYSTEM.DIHEDRAL>
0.14117

>  <SCORE.SYSTEM.POLAR>
-0.0108124

>  <SCORE.SYSTEM.VDW>
-0.951777

>  <SCORE.SYSTEM.norm>
-0.039911

>  <SCORE.heavy>
23

>  <SCORE.norm>
-0.970115

>  <TITLE>
    5281672_D                                                             

$$$$
Myricetin.pdb
  RxDock  02242111163D
librxdock.so/0.1.0
 29 31  0  0  0  0  0  0  0  0999 V2000
  -49.1438   -3.0860   16.4416 O   0  0  0  0  0  0
  -51.0729   -1.1664   13.9291 O   0  0  0  0  0  0
  -45.9517   -0.2342   14.2042 O   0  0  0  0  0  0
  -48.5935   -0.2285   13.6454 O   0  0  0  0  0  0
  -44.5643   -3.2975   17.5177 O   0  0  0  0  0  0
  -54.0705   -4.9418   13.9208 O   0  0  0  0  0  0
  -53.8274   -3.9530   18.5657 O   0  0  0  0  0  0
  -55.1755   -5.0394   16.4353 O   0  0  0  0  0  0
  -47.6024   -1.6328   15.2642 C   0  0  0  0  0  0
  -50.1640   -2.6360   15.6356 C   0  0  0  0  0  0
  -47.8899   -2.6227   16.2081 C   0  0  0  0  0  0
  -51.4756   -3.2775   15.8638 C   0  0  0  0  0  0
  -50.0134   -1.6574   14.6871 C   0  0  0  0  0  0
  -48.7138   -1.1156   14.4896 C   0  0  0  0  0  0
  -46.2733   -1.2017   15.1002 C   0  0  0  0  0  0
  -46.8602   -3.1670   16.9538 C   0  0  0  0  0  0
  -52.0403   -3.3322   17.1297 C   0  0  0  0  0  0
  -52.1712   -3.8142   14.7902 C   0  0  0  0  0  0
  -45.5611   -2.7483   16.7798 C   0  0  0  0  0  0
  -45.2729   -1.7612   15.8501 C   0  0  0  0  0  0
  -53.4002   -4.4064   14.9791 C   0  0  0  0  0  0
  -53.2744   -3.9128   17.3199 C   0  0  0  0  0  0
  -53.9569   -4.4565   16.2452 C   0  0  0  0  0  0
  -51.1004   -0.1615   13.9347 H   0  0  0  0  0  0
  -46.1240   -0.5227   13.2589 H   0  0  0  0  0  0
  -43.8867   -3.7588   16.9350 H   0  0  0  0  0  0
  -54.4507   -5.8458   14.1450 H   0  0  0  0  0  0
  -53.2301   -3.5184   19.2477 H   0  0  0  0  0  0
  -55.7011   -5.0797   15.5793 H   0  0  0  0  0  0
  1 10  1  0  0  0
  1 11  1  0  0  0
  2 13  1  0  0  0
  2 24  1  0  0  0
  3 15  1  0  0  0
  3 25  1  0  0  0
  4 14  2  0  0  0
  5 19  1  0  0  0
  5 26  1  0  0  0
  6 21  1  0  0  0
  6 27  1  0  0  0
  7 22  1  0  0  0
  7 28  1  0  0  0
  8 23  1  0  0  0
  8 29  1  0  0  0
  9 11  2  0  0  0
  9 14  1  0  0  0
  9 15  1  0  0  0
 10 12  1  0  0  0
 10 13  2  0  0  0
 11 16  1  0  0  0
 12 17  2  0  0  0
 12 18  1  0  0  0
 13 14  1  0  0  0
 15 20  2  0  0  0
 16 19  2  0  0  0
 17 22  1  0  0  0
 18 21  2  0  0  0
 19 20  1  0  0  0
 21 23  1  0  0  0
 22 23  2  0  0  0
M  END
>  <CHROM.0>
57.84689779,-63.75832347,-83.03334456

>  <CHROM.1>
130.39853475,-64.89941204,118.66836337,135.13697686,0.36938234,-21.11715815
52.87673116,-49.92212680,-2.77686658,15.72313911,-0.22449782,0.23631245,2.17745353

>  <HEADER>
                                                                          

>  <MASTER>
        0    0    0    0    0    0    0    0   33    0   33    0          

>  <Name>
Myricetin.pdb

>  <RI>
-1.17155e+09

>  <Rbt.Current_Directory>
/root/miniconda3/envs/rdock/share/rxdock-2013.1.1_148c5bd1-0/data/ligands/prepped_ligands/Myricetin

>  <Rbt.Executable>
rbdock/0.1.0

>  <Rbt.Library>
librxdock.so/0.1.0

>  <Rbt.Parameter_File>
/root/miniconda3/envs/rdock/share/rxdock-2013.1.1_148c5bd1-0/data/scripts/dock.prm

>  <Rbt.Receptor>
def.prm

>  <SCORE>
-23.3347

>  <SCORE.INTER>
-20.8608

>  <SCORE.INTER.CONST>
1

>  <SCORE.INTER.POLAR>
-3.3686

>  <SCORE.INTER.REPUL>
0

>  <SCORE.INTER.ROT>
1

>  <SCORE.INTER.VDW>
-15.8075

>  <SCORE.INTER.norm>
-0.90699

>  <SCORE.INTRA>
-2.15346

>  <SCORE.INTRA.DIHEDRAL>
-5.32074

>  <SCORE.INTRA.DIHEDRAL.0>
21.7491

>  <SCORE.INTRA.POLAR>
0

>  <SCORE.INTRA.POLAR.0>
0

>  <SCORE.INTRA.REPUL>
0

>  <SCORE.INTRA.REPUL.0>
0

>  <SCORE.INTRA.VDW>
0.506909

>  <SCORE.INTRA.VDW.0>
-1.39731

>  <SCORE.INTRA.norm>
-0.0936288

>  <SCORE.RESTR>
0.0677186

>  <SCORE.RESTR.CAVITY>
0.0677186

>  <SCORE.RESTR.norm>
0.00294429

>  <SCORE.SYSTEM>
-0.388132

>  <SCORE.SYSTEM.CONST>
0

>  <SCORE.SYSTEM.DIHEDRAL>
1.25505

>  <SCORE.SYSTEM.VDW>
-1.01566

>  <SCORE.SYSTEM.norm>
-0.0168753

>  <SCORE.heavy>
23

>  <SCORE.norm>
-1.01455

>  <TITLE>
    5281672_D                                                             

$$$$
Myricetin.pdb
  RxDock  02242111163D
librxdock.so/0.1.0
 29 31  0  0  0  0  0  0  0  0999 V2000
  -51.8775   -3.4344   15.3373 O   0  0  0  0  0  0
  -53.1942   -3.4504   18.7994 O   0  0  0  0  0  0
  -49.8668    0.3613   17.5460 O   0  0  0  0  0  0
  -51.5366   -1.3623   18.7838 O   0  0  0  0  0  0
  -49.0417   -0.5064   12.9794 O   0  0  0  0  0  0
  -57.0261   -5.4999   15.5132 O   0  0  0  0  0  0
  -53.5372   -8.5275   16.6416 O   0  0  0  0  0  0
  -56.1535   -8.0696   15.9478 O   0  0  0  0  0  0
  -50.9185   -1.5439   16.5122 C   0  0  0  0  0  0
  -52.6046   -3.7486   16.4624 C   0  0  0  0  0  0
  -51.1006   -2.3221   15.3657 C   0  0  0  0  0  0
  -53.5234   -4.8969   16.3171 C   0  0  0  0  0  0
  -52.5015   -3.0743   17.6518 C   0  0  0  0  0  0
  -51.6314   -1.9512   17.7075 C   0  0  0  0  0  0
  -50.0813   -0.4148   16.4534 C   0  0  0  0  0  0
  -50.4632   -1.9600   14.1930 C   0  0  0  0  0  0
  -53.0913   -6.1972   16.5334 C   0  0  0  0  0  0
  -54.8512   -4.6731   15.9830 C   0  0  0  0  0  0
  -49.6547   -0.8478   14.1401 C   0  0  0  0  0  0
  -49.4655   -0.0777   15.2772 C   0  0  0  0  0  0
  -55.7269   -5.7282   15.8537 C   0  0  0  0  0  0
  -53.9674   -7.2533   16.4168 C   0  0  0  0  0  0
  -55.2880   -7.0225   16.0717 C   0  0  0  0  0  0
  -54.0736   -2.9697   18.8777 H   0  0  0  0  0  0
  -49.0640    0.9530   17.4372 H   0  0  0  0  0  0
  -49.1829   -1.2047   12.2696 H   0  0  0  0  0  0
  -57.3401   -4.6020   15.8405 H   0  0  0  0  0  0
  -52.6545   -8.7024   16.1934 H   0  0  0  0  0  0
  -55.8397   -8.8695   16.4697 H   0  0  0  0  0  0
  1 10  1  0  0  0
  1 11  1  0  0  0
  2 13  1  0  0  0
  2 24  1  0  0  0
  3 15  1  0  0  0
  3 25  1  0  0  0
  4 14  2  0  0  0
  5 19  1  0  0  0
  5 26  1  0  0  0
  6 21  1  0  0  0
  6 27  1  0  0  0
  7 22  1  0  0  0
  7 28  1  0  0  0
  8 23  1  0  0  0
  8 29  1  0  0  0
  9 11  2  0  0  0
  9 14  1  0  0  0
  9 15  1  0  0  0
 10 12  1  0  0  0
 10 13  2  0  0  0
 11 16  1  0  0  0
 12 17  2  0  0  0
 12 18  1  0  0  0
 13 14  1  0  0  0
 15 20  2  0  0  0
 16 19  2  0  0  0
 17 22  1  0  0  0
 18 21  2  0  0  0
 19 20  1  0  0  0
 21 23  1  0  0  0
 22 23  2  0  0  0
M  END
>  <CHROM.0>
-64.87852901,-173.88038094,84.09558721

>  <CHROM.1>
-92.59556983,163.37548592,-6.26556032,-29.70479574,-44.79150047,-157.07072607
86.73038932,-52.51626926,-3.60585320,16.21091531,-0.25247014,-0.85222199
-1.98526785

>  <HEADER>
                                                                          

>  <MASTER>
        0    0    0    0    0    0    0    0   33    0   33    0          

>  <Name>
Myricetin.pdb

>  <RI>
-1.17155e+09

>  <Rbt.Current_Directory>
/root/miniconda3/envs/rdock/share/rxdock-2013.1.1_148c5bd1-0/data/ligands/prepped_ligands/Myricetin

>  <Rbt.Executable>
rbdock/0.1.0

>  <Rbt.Library>
librxdock.so/0.1.0

>  <Rbt.Parameter_File>
/root/miniconda3/envs/rdock/share/rxdock-2013.1.1_148c5bd1-0/data/scripts/dock.prm

>  <Rbt.Receptor>
def.prm

>  <SCORE>
-23.9399

>  <SCORE.INTER>
-20.8712

>  <SCORE.INTER.CONST>
1

>  <SCORE.INTER.POLAR>
-2.25066

>  <SCORE.INTER.REPUL>
0

>  <SCORE.INTER.ROT>
1

>  <SCORE.INTER.VDW>
-19.619

>  <SCORE.INTER.norm>
-0.907443

>  <SCORE.INTRA>
-2.99757

>  <SCORE.INTRA.DIHEDRAL>
-7.43214

>  <SCORE.INTRA.DIHEDRAL.0>
21.7491

>  <SCORE.INTRA.POLAR>
-0.0264662

>  <SCORE.INTRA.POLAR.0>
0

>  <SCORE.INTRA.REPUL>
0

>  <SCORE.INTRA.REPUL.0>
0

>  <SCORE.INTRA.VDW>
0.808479

>  <SCORE.INTRA.VDW.0>
-1.39731

>  <SCORE.INTRA.norm>
-0.130329

>  <SCORE.RESTR>
0

>  <SCORE.RESTR.CAVITY>
0

>  <SCORE.RESTR.norm>
0

>  <SCORE.SYSTEM>
-0.0711583

>  <SCORE.SYSTEM.CONST>
0

>  <SCORE.SYSTEM.DIHEDRAL>
1.48283

>  <SCORE.SYSTEM.POLAR>
-0.0156107

>  <SCORE.SYSTEM.VDW>
-0.759497

>  <SCORE.SYSTEM.norm>
-0.00309384

>  <SCORE.heavy>
23

>  <SCORE.norm>
-1.04087

>  <TITLE>
    5281672_D                                                             

$$$$
Myricetin.pdb
  RxDock  02242111163D
librxdock.so/0.1.0
 29 31  0  0  0  0  0  0  0  0999 V2000
  -52.0802   -3.7448   15.3411 O   0  0  0  0  0  0
  -48.7395   -5.2359   15.9204 O   0  0  0  0  0  0
  -52.8826   -8.1753   17.0891 O   0  0  0  0  0  0
  -50.4123   -7.1402   16.7472 O   0  0  0  0  0  0
  -56.4689   -5.3897   15.7978 O   0  0  0  0  0  0
  -50.4276    0.2661   12.9738 O   0  0  0  0  0  0
  -46.4351   -1.7612   14.5748 O   0  0  0  0  0  0
  -47.6943    0.2940   13.2607 O   0  0  0  0  0  0
  -52.4001   -5.9836   16.2124 C   0  0  0  0  0  0
  -50.7191   -3.9452   15.3609 C   0  0  0  0  0  0
  -52.8853   -4.7728   15.7107 C   0  0  0  0  0  0
  -49.9112   -2.8295   14.8257 C   0  0  0  0  0  0
  -50.1209   -5.0801   15.8447 C   0  0  0  0  0  0
  -50.9604   -6.1322   16.3025 C   0  0  0  0  0  0
  -53.3102   -6.9895   16.5858 C   0  0  0  0  0  0
  -54.2502   -4.5918   15.5804 C   0  0  0  0  0  0
  -48.5314   -2.8067   14.9669 C   0  0  0  0  0  0
  -50.5378   -1.7952   14.1458 C   0  0  0  0  0  0
  -55.1339   -5.5845   15.9372 C   0  0  0  0  0  0
  -54.6568   -6.7841   16.4424 C   0  0  0  0  0  0
  -49.8024   -0.7515   13.6292 C   0  0  0  0  0  0
  -47.7921   -1.7707   14.4410 C   0  0  0  0  0  0
  -48.4261   -0.7365   13.7740 C   0  0  0  0  0  0
  -48.4849   -6.0376   16.4709 H   0  0  0  0  0  0
  -51.8939   -8.2999   16.9738 H   0  0  0  0  0  0
  -56.6674   -4.5158   15.3413 H   0  0  0  0  0  0
  -49.7687    0.9503   12.6425 H   0  0  0  0  0  0
  -45.9797   -1.5916   13.6947 H   0  0  0  0  0  0
  -46.8417   -0.0341   12.8411 H   0  0  0  0  0  0
  1 10  1  0  0  0
  1 11  1  0  0  0
  2 13  1  0  0  0
  2 24  1  0  0  0
  3 15  1  0  0  0
  3 25  1  0  0  0
  4 14  2  0  0  0
  5 19  1  0  0  0
  5 26  1  0  0  0
  6 21  1  0  0  0
  6 27  1  0  0  0
  7 22  1  0  0  0
  7 28  1  0  0  0
  8 23  1  0  0  0
  8 29  1  0  0  0
  9 11  2  0  0  0
  9 14  1  0  0  0
  9 15  1  0  0  0
 10 12  1  0  0  0
 10 13  2  0  0  0
 11 16  1  0  0  0
 12 17  2  0  0  0
 12 18  1  0  0  0
 13 14  1  0  0  0
 15 20  2  0  0  0
 16 19  2  0  0  0
 17 22  1  0  0  0
 18 21  2  0  0  0
 19 20  1  0  0  0
 21 23  1  0  0  0
 22 23  2  0  0  0
M  END
>  <CHROM.0>
-56.75375483,-65.69114777,-48.99465296

>  <CHROM.1>
168.04744019,-11.93273687,5.54406731,-179.33126268,130.31117178,-139.56320143
170.18515772,-51.01615945,-3.95071253,15.26248626,2.31670010,0.03634111,2.68570276

>  <HEADER>
                                                                          

>  <MASTER>
        0    0    0    0    0    0    0    0   33    0   33    0          

>  <Name>
Myricetin.pdb

>  <RI>
-1.17155e+09

>  <Rbt.Current_Directory>
/root/miniconda3/envs/rdock/share/rxdock-2013.1.1_148c5bd1-0/data/ligands/prepped_ligands/Myricetin

>  <Rbt.Executable>
rbdock/0.1.0

>  <Rbt.Library>
librxdock.so/0.1.0

>  <Rbt.Parameter_File>
/root/miniconda3/envs/rdock/share/rxdock-2013.1.1_148c5bd1-0/data/scripts/dock.prm

>  <Rbt.Receptor>
def.prm

>  <SCORE>
-33.8244

>  <SCORE.INTER>
-27.2955

>  <SCORE.INTER.CONST>
1

>  <SCORE.INTER.POLAR>
-3.94067

>  <SCORE.INTER.REPUL>
0.0162651

>  <SCORE.INTER.ROT>
1

>  <SCORE.INTER.VDW>
-20.3785

>  <SCORE.INTER.norm>
-1.18676

>  <SCORE.INTRA>
-5.6852

>  <SCORE.INTRA.DIHEDRAL>
-16.3472

>  <SCORE.INTRA.DIHEDRAL.0>
21.7491

>  <SCORE.INTRA.POLAR>
-0.0922737

>  <SCORE.INTRA.POLAR.0>
0

>  <SCORE.INTRA.REPUL>
0

>  <SCORE.INTRA.REPUL.0>
0

>  <SCORE.INTRA.VDW>
2.80212

>  <SCORE.INTRA.VDW.0>
-1.39731

>  <SCORE.INTRA.norm>
-0.247182

>  <SCORE.RESTR>
0

>  <SCORE.RESTR.CAVITY>
0

>  <SCORE.RESTR.norm>
0

>  <SCORE.SYSTEM>
-0.843781

>  <SCORE.SYSTEM.CONST>
0

>  <SCORE.SYSTEM.DIHEDRAL>
0.464568

>  <SCORE.SYSTEM.POLAR>
-0.0184565

>  <SCORE.SYSTEM.VDW>
-1.01331

>  <SCORE.SYSTEM.norm>
-0.0366861

>  <SCORE.heavy>
23

>  <SCORE.norm>
-1.47063

>  <TITLE>
    5281672_D                                                             

$$$$
Myricetin.pdb
  RxDock  02242111163D
librxdock.so/0.1.0
 29 31  0  0  0  0  0  0  0  0999 V2000
  -52.7805   -5.0156   15.8921 O   0  0  0  0  0  0
  -50.6793   -6.2765   18.6696 O   0  0  0  0  0  0
  -54.2428   -9.5437   16.7206 O   0  0  0  0  0  0
  -52.3116   -8.3217   18.1587 O   0  0  0  0  0  0
  -56.1210   -6.9887   13.2232 O   0  0  0  0  0  0
  -47.4292   -3.1799   17.6462 O   0  0  0  0  0  0
  -51.1479   -0.2907   16.9853 O   0  0  0  0  0  0
  -48.4672   -0.6417   17.4622 O   0  0  0  0  0  0
  -53.4498   -7.2972   16.3615 C   0  0  0  0  0  0
  -51.8044   -5.1170   16.8564 C   0  0  0  0  0  0
  -53.5384   -6.1102   15.6291 C   0  0  0  0  0  0
  -50.9361   -3.9297   16.9998 C   0  0  0  0  0  0
  -51.6280   -6.2195   17.6523 C   0  0  0  0  0  0
  -52.4699   -7.3433   17.4294 C   0  0  0  0  0  0
  -54.2870   -8.3774   16.0277 C   0  0  0  0  0  0
  -54.4392   -6.0252   14.5832 C   0  0  0  0  0  0
  -51.4514   -2.6450   16.9072 C   0  0  0  0  0  0
  -49.5834   -4.0980   17.2573 C   0  0  0  0  0  0
  -55.2469   -7.0899   14.2554 C   0  0  0  0  0  0
  -55.1675   -8.2664   14.9844 C   0  0  0  0  0  0
  -48.7587   -3.0049   17.4057 C   0  0  0  0  0  0
  -50.6316   -1.5501   17.0671 C   0  0  0  0  0  0
  -49.2807   -1.7266   17.3124 C   0  0  0  0  0  0
  -50.5505   -7.2150   19.0062 H   0  0  0  0  0  0
  -54.7718  -10.2692   16.2730 H   0  0  0  0  0  0
  -56.7478   -7.7747   13.1936 H   0  0  0  0  0  0
  -47.1661   -4.1481   17.5727 H   0  0  0  0  0  0
  -50.4692    0.4030   17.2478 H   0  0  0  0  0  0
  -47.5239   -0.9163   17.6749 H   0  0  0  0  0  0
  1 10  1  0  0  0
  1 11  1  0  0  0
  2 13  1  0  0  0
  2 24  1  0  0  0
  3 15  1  0  0  0
  3 25  1  0  0  0
  4 14  2  0  0  0
  5 19  1  0  0  0
  5 26  1  0  0  0
  6 21  1  0  0  0
  6 27  1  0  0  0
  7 22  1  0  0  0
  7 28  1  0  0  0
  8 23  1  0  0  0
  8 29  1  0  0  0
  9 11  2  0  0  0
  9 14  1  0  0  0
  9 15  1  0  0  0
 10 12  1  0  0  0
 10 13  2  0  0  0
 11 16  1  0  0  0
 12 17  2  0  0  0
 12 18  1  0  0  0
 13 14  1  0  0  0
 15 20  2  0  0  0
 16 19  2  0  0  0
 17 22  1  0  0  0
 18 21  2  0  0  0
 19 20  1  0  0  0
 21 23  1  0  0  0
 22 23  2  0  0  0
M  END
>  <CHROM.0>
-173.88269980,-60.19743070,-178.61434986

>  <CHROM.1>
-167.24313001,-169.87003890,-170.49767368,7.35344023,172.01489129,-2.48451596
39.16887922,-51.95234493,-5.15945162,16.60861261,2.49732307,0.62761198,2.79531289

>  <HEADER>
                                                                          

>  <MASTER>
        0    0    0    0    0    0    0    0   33    0   33    0          

>  <Name>
Myricetin.pdb

>  <RI>
-1.17155e+09

>  <Rbt.Current_Directory>
/root/miniconda3/envs/rdock/share/rxdock-2013.1.1_148c5bd1-0/data/ligands/prepped_ligands/Myricetin

>  <Rbt.Executable>
rbdock/0.1.0

>  <Rbt.Library>
librxdock.so/0.1.0

>  <Rbt.Parameter_File>
/root/miniconda3/envs/rdock/share/rxdock-2013.1.1_148c5bd1-0/data/scripts/dock.prm

>  <Rbt.Receptor>
def.prm

>  <SCORE>
-25.9364

>  <SCORE.INTER>
-16.6899

>  <SCORE.INTER.CONST>
1

>  <SCORE.INTER.POLAR>
-1.92447

>  <SCORE.INTER.REPUL>
0.128797

>  <SCORE.INTER.ROT>
1

>  <SCORE.INTER.VDW>
-17.1907

>  <SCORE.INTER.norm>
-0.725647

>  <SCORE.INTRA>
-8.21287

>  <SCORE.INTRA.DIHEDRAL>
-19.1604

>  <SCORE.INTRA.DIHEDRAL.0>
21.7491

>  <SCORE.INTRA.POLAR>
-0.208303

>  <SCORE.INTRA.POLAR.0>
0

>  <SCORE.INTRA.REPUL>
0

>  <SCORE.INTRA.REPUL.0>
0

>  <SCORE.INTRA.VDW>
2.07557

>  <SCORE.INTRA.VDW.0>
-1.39731

>  <SCORE.INTRA.norm>
-0.357082

>  <SCORE.RESTR>
0

>  <SCORE.RESTR.CAVITY>
0

>  <SCORE.RESTR.norm>
0

>  <SCORE.SYSTEM>
-1.03361

>  <SCORE.SYSTEM.CONST>
0

>  <SCORE.SYSTEM.DIHEDRAL>
0.091097

>  <SCORE.SYSTEM.POLAR>
-0.0052883

>  <SCORE.SYSTEM.VDW>
-1.06118

>  <SCORE.SYSTEM.norm>
-0.0449396

>  <SCORE.heavy>
23

>  <SCORE.norm>
-1.12767

>  <TITLE>
    5281672_D                                                             

$$$$
Myricetin.pdb
  RxDock  02242111163D
librxdock.so/0.1.0
 29 31  0  0  0  0  0  0  0  0999 V2000
  -53.7549   -4.8220   15.7182 O   0  0  0  0  0  0
  -51.0462   -5.6700   18.0981 O   0  0  0  0  0  0
  -53.9818   -9.6054   16.3471 O   0  0  0  0  0  0
  -52.2083   -8.0231   17.6284 O   0  0  0  0  0  0
  -56.8812   -7.4137   13.3342 O   0  0  0  0  0  0
  -52.3723   -0.4911   18.8792 O   0  0  0  0  0  0
  -49.7402   -1.1550   14.9749 O   0  0  0  0  0  0
  -50.5378    0.4441   17.0589 O   0  0  0  0  0  0
  -53.7969   -7.2184   16.0780 C   0  0  0  0  0  0
  -52.6561   -4.7304   16.5414 C   0  0  0  0  0  0
  -54.2640   -6.0537   15.4627 C   0  0  0  0  0  0
  -52.0795   -3.3761   16.6724 C   0  0  0  0  0  0
  -52.1156   -5.7951   17.2154 C   0  0  0  0  0  0
  -52.6930   -7.0776   17.0077 C   0  0  0  0  0  0
  -54.3958   -8.4520   15.7636 C   0  0  0  0  0  0
  -55.2979   -6.1386   14.5481 C   0  0  0  0  0  0
  -51.1522   -2.8964   15.7590 C   0  0  0  0  0  0
  -52.4894   -2.5554   17.7131 C   0  0  0  0  0  0
  -55.8712   -7.3503   14.2372 C   0  0  0  0  0  0
  -55.4159   -8.5068   14.8511 C   0  0  0  0  0  0
  -51.9731   -1.2855   17.8470 C   0  0  0  0  0  0
  -50.6432   -1.6229   15.8832 C   0  0  0  0  0  0
  -51.0488   -0.8143   16.9312 C   0  0  0  0  0  0
  -50.7999   -4.7073   18.2503 H   0  0  0  0  0  0
  -54.5751  -10.3803   16.1146 H   0  0  0  0  0  0
  -57.2374   -8.3501   13.2459 H   0  0  0  0  0  0
  -53.2382   -0.8128   19.2778 H   0  0  0  0  0  0
  -49.8203   -0.1600   14.8553 H   0  0  0  0  0  0
  -49.5952    0.4948   16.7132 H   0  0  0  0  0  0
  1 10  1  0  0  0
  1 11  1  0  0  0
  2 13  1  0  0  0
  2 24  1  0  0  0
  3 15  1  0  0  0
  3 25  1  0  0  0
  4 14  2  0  0  0
  5 19  1  0  0  0
  5 26  1  0  0  0
  6 21  1  0  0  0
  6 27  1  0  0  0
  7 22  1  0  0  0
  7 28  1  0  0  0
  8 23  1  0  0  0
  8 29  1  0  0  0
  9 11  2  0  0  0
  9 14  1  0  0  0
  9 15  1  0  0  0
 10 12  1  0  0  0
 10 13  2  0  0  0
 11 16  1  0  0  0
 12 17  2  0  0  0
 12 18  1  0  0  0
 13 14  1  0  0  0
 15 20  2  0  0  0
 16 19  2  0  0  0
 17 22  1  0  0  0
 18 21  2  0  0  0
 19 20  1  0  0  0
 21 23  1  0  0  0
 22 23  2  0  0  0
M  END
>  <CHROM.0>
-177.53408826,-179.52614651,-179.03454619

>  <CHROM.1>
6.37809242,172.68729110,-176.69405130,-18.75220418,149.19938912,148.65576207
-85.68366715,-52.85766455,-4.77442543,16.30205033,2.28063076,0.77141231,2.84221066

>  <HEADER>
                                                                          

>  <MASTER>
        0    0    0    0    0    0    0    0   33    0   33    0          

>  <Name>
Myricetin.pdb

>  <RI>
-1.17155e+09

>  <Rbt.Current_Directory>
/root/miniconda3/envs/rdock/share/rxdock-2013.1.1_148c5bd1-0/data/ligands/prepped_ligands/Myricetin

>  <Rbt.Executable>
rbdock/0.1.0

>  <Rbt.Library>
librxdock.so/0.1.0

>  <Rbt.Parameter_File>
/root/miniconda3/envs/rdock/share/rxdock-2013.1.1_148c5bd1-0/data/scripts/dock.prm

>  <Rbt.Receptor>
def.prm

>  <SCORE>
-27.1908

>  <SCORE.INTER>
-20.5333

>  <SCORE.INTER.CONST>
1

>  <SCORE.INTER.POLAR>
-1.84082

>  <SCORE.INTER.REPUL>
0.00182295

>  <SCORE.INTER.ROT>
1

>  <SCORE.INTER.VDW>
-20.6836

>  <SCORE.INTER.norm>
-0.892752

>  <SCORE.INTRA>
-5.56669

>  <SCORE.INTRA.DIHEDRAL>
-13.7558

>  <SCORE.INTRA.DIHEDRAL.0>
21.7491

>  <SCORE.INTRA.POLAR>
0

>  <SCORE.INTRA.POLAR.0>
0

>  <SCORE.INTRA.REPUL>
0

>  <SCORE.INTRA.REPUL.0>
0

>  <SCORE.INTRA.VDW>
1.31119

>  <SCORE.INTRA.VDW.0>
-1.39731

>  <SCORE.INTRA.norm>
-0.24203

>  <SCORE.RESTR>
0

>  <SCORE.RESTR.CAVITY>
0

>  <SCORE.RESTR.norm>
0

>  <SCORE.SYSTEM>
-1.09085

>  <SCORE.SYSTEM.CONST>
0

>  <SCORE.SYSTEM.DIHEDRAL>
0.0159856

>  <SCORE.SYSTEM.POLAR>
-0.00432848

>  <SCORE.SYSTEM.VDW>
-1.08413

>  <SCORE.SYSTEM.norm>
-0.0474283

>  <SCORE.heavy>
23

>  <SCORE.norm>
-1.18221

>  <TITLE>
    5281672_D                                                             

$$$$
Myricetin.pdb
  RxDock  02242111163D
librxdock.so/0.1.0
 29 31  0  0  0  0  0  0  0  0999 V2000
  -47.4325   -4.7073   17.1857 O   0  0  0  0  0  0
  -49.3153   -1.6315   16.3407 O   0  0  0  0  0  0
  -51.9919   -6.1038   16.4179 O   0  0  0  0  0  0
  -51.1589   -3.5487   16.1564 O   0  0  0  0  0  0
  -48.6972   -9.2066   17.7616 O   0  0  0  0  0  0
  -43.0169   -2.4442   17.2767 O   0  0  0  0  0  0
  -46.1180    1.1197   17.8197 O   0  0  0  0  0  0
  -43.5265    0.2184   17.7290 O   0  0  0  0  0  0
  -49.7428   -5.3268   16.7952 C   0  0  0  0  0  0
  -47.7643   -3.3882   16.9781 C   0  0  0  0  0  0
  -48.4245   -5.6323   17.1444 C   0  0  0  0  0  0
  -46.6591   -2.4249   17.1636 C   0  0  0  0  0  0
  -49.0161   -2.9635   16.6139 C   0  0  0  0  0  0
  -50.0430   -3.9398   16.4972 C   0  0  0  0  0  0
  -50.7035   -6.3541   16.7637 C   0  0  0  0  0  0
  -48.0931   -6.9366   17.4634 C   0  0  0  0  0  0
  -46.9071   -1.0791   17.3913 C   0  0  0  0  0  0
  -45.3471   -2.8747   17.1358 C   0  0  0  0  0  0
  -49.0407   -7.9342   17.4412 C   0  0  0  0  0  0
  -50.3478   -7.6365   17.0879 C   0  0  0  0  0  0
  -44.3026   -1.9955   17.3179 C   0  0  0  0  0  0
  -45.8653   -0.1997   17.5858 C   0  0  0  0  0  0
  -44.5585   -0.6545   17.5450 C   0  0  0  0  0  0
  -50.2653   -1.5193   16.0317 H   0  0  0  0  0  0
  -52.4070   -6.8730   15.9254 H   0  0  0  0  0  0
  -47.8472   -9.4850   17.3016 H   0  0  0  0  0  0
  -42.3840   -1.7209   16.9795 H   0  0  0  0  0  0
  -47.1054    1.3066   17.8444 H   0  0  0  0  0  0
  -42.7440   -0.2268   18.1764 H   0  0  0  0  0  0
  1 10  1  0  0  0
  1 11  1  0  0  0
  2 13  1  0  0  0
  2 24  1  0  0  0
  3 15  1  0  0  0
  3 25  1  0  0  0
  4 14  2  0  0  0
  5 19  1  0  0  0
  5 26  1  0  0  0
  6 21  1  0  0  0
  6 27  1  0  0  0
  7 22  1  0  0  0
  7 28  1  0  0  0
  8 23  1  0  0  0
  8 29  1  0  0  0
  9 11  2  0  0  0
  9 14  1  0  0  0
  9 15  1  0  0  0
 10 12  1  0  0  0
 10 13  2  0  0  0
 11 16  1  0  0  0
 12 17  2  0  0  0
 12 18  1  0  0  0
 13 14  1  0  0  0
 15 20  2  0  0  0
 16 19  2  0  0  0
 17 22  1  0  0  0
 18 21  2  0  0  0
 19 20  1  0  0  0
 21 23  1  0  0  0
 22 23  2  0  0  0
M  END
>  <CHROM.0>
178.61115380,65.06331630,-54.67404086

>  <CHROM.1>
176.19296681,146.20027094,-46.17081603,152.38991782,1.31700124,-31.86111563
-160.14344977,-47.72115185,-3.67937359,17.11143790,-2.28878837,-0.18380755
-0.07335176

>  <HEADER>
                                                                          

>  <MASTER>
        0    0    0    0    0    0    0    0   33    0   33    0          

>  <Name>
Myricetin.pdb

>  <RI>
-1.17155e+09

>  <Rbt.Current_Directory>
/root/miniconda3/envs/rdock/share/rxdock-2013.1.1_148c5bd1-0/data/ligands/prepped_ligands/Myricetin

>  <Rbt.Executable>
rbdock/0.1.0

>  <Rbt.Library>
librxdock.so/0.1.0

>  <Rbt.Parameter_File>
/root/miniconda3/envs/rdock/share/rxdock-2013.1.1_148c5bd1-0/data/scripts/dock.prm

>  <Rbt.Receptor>
def.prm

>  <SCORE>
-20.0457

>  <SCORE.INTER>
-14.1249

>  <SCORE.INTER.CONST>
1

>  <SCORE.INTER.POLAR>
-1.3149

>  <SCORE.INTER.REPUL>
0

>  <SCORE.INTER.ROT>
1

>  <SCORE.INTER.VDW>
-16.0543

>  <SCORE.INTER.norm>
-0.614128

>  <SCORE.INTRA>
-4.96458

>  <SCORE.INTRA.DIHEDRAL>
-14.8282

>  <SCORE.INTRA.DIHEDRAL.0>
21.7491

>  <SCORE.INTRA.POLAR>
0

>  <SCORE.INTRA.POLAR.0>
0

>  <SCORE.INTRA.REPUL>
0

>  <SCORE.INTRA.REPUL.0>
0

>  <SCORE.INTRA.VDW>
2.44951

>  <SCORE.INTRA.VDW.0>
-1.39731

>  <SCORE.INTRA.norm>
-0.215851

>  <SCORE.RESTR>
0

>  <SCORE.RESTR.CAVITY>
0

>  <SCORE.RESTR.norm>
0

>  <SCORE.SYSTEM>
-0.956198

>  <SCORE.SYSTEM.CONST>
0

>  <SCORE.SYSTEM.DIHEDRAL>
0.197004

>  <SCORE.SYSTEM.POLAR>
-0.0119813

>  <SCORE.SYSTEM.VDW>
-1.01396

>  <SCORE.SYSTEM.norm>
-0.0415738

>  <SCORE.heavy>
23

>  <SCORE.norm>
-0.871553

>  <TITLE>
    5281672_D                                                             

$$$$
