Myricetin.pdb
 OpenBabel02182114013D

 33 35  0  0  0  0  0  0  0  0999 V2000
    9.1470   -1.5560   21.7340 O   0  0  0  0  0  0  0  0  0  0  0  0
   10.0520    1.7650   20.3660 O   0  0  0  0  0  0  0  0  0  0  0  0
    8.6400    1.5710   25.3800 O   0  0  0  0  0  0  0  0  0  0  0  0
    9.3730    2.3050   22.8870 O   0  0  0  0  0  0  0  0  0  0  0  0
    7.9240   -3.0500   26.0290 O   0  0  0  0  0  0  0  0  0  0  0  0
    8.5020   -1.2770   16.2240 O   0  0  0  0  0  0  0  0  0  0  0  0
   12.8320   -2.4610   17.7930 O   0  0  0  0  0  0  0  0  0  0  0  0
   11.0120   -2.2890   15.7450 O   0  0  0  0  0  0  0  0  0  0  0  0
    8.9270    0.0730   23.5150 C   0  0  0  0  0  0  0  0  0  0  0  0
    9.5910   -0.5600   20.8950 C   0  0  0  0  0  0  0  0  0  0  0  0
    8.8790   -1.2350   23.0250 C   0  0  0  0  0  0  0  0  0  0  0  0
    9.9840   -1.0060   19.5420 C   0  0  0  0  0  0  0  0  0  0  0  0
    9.6660    0.7620   21.2510 C   0  0  0  0  0  0  0  0  0  0  0  0
    9.3150    1.1140   22.5830 C   0  0  0  0  0  0  0  0  0  0  0  0
    8.6180    0.3150   24.8660 C   0  0  0  0  0  0  0  0  0  0  0  0
    8.5400   -2.2670   23.8810 C   0  0  0  0  0  0  0  0  0  0  0  0
   11.2490   -1.5170   19.2910 C   0  0  0  0  0  0  0  0  0  0  0  0
    9.0650   -0.9380   18.5050 C   0  0  0  0  0  0  0  0  0  0  0  0
    8.2500   -2.0240   25.2040 C   0  0  0  0  0  0  0  0  0  0  0  0
    8.2890   -0.7270   25.6920 C   0  0  0  0  0  0  0  0  0  0  0  0
    9.4070   -1.3590   17.2390 C   0  0  0  0  0  0  0  0  0  0  0  0
   11.5900   -1.9500   18.0290 C   0  0  0  0  0  0  0  0  0  0  0  0
   10.6710   -1.8680   16.9970 C   0  0  0  0  0  0  0  0  0  0  0  0
    9.2960    2.3970   20.1670 H   0  0  0  0  0  0  0  0  0  0  0  0
    7.9310    2.1560   24.9780 H   0  0  0  0  0  0  0  0  0  0  0  0
    7.5270   -2.7170   26.8910 H   0  0  0  0  0  0  0  0  0  0  0  0
    8.8020   -1.8020   15.4200 H   0  0  0  0  0  0  0  0  0  0  0  0
   13.5170   -1.7320   17.6930 H   0  0  0  0  0  0  0  0  0  0  0  0
   10.4530   -3.0730   15.4560 H   0  0  0  0  0  0  0  0  0  0  0  0
    8.5050   -3.2040   23.5340 H   0  0  0  0  0  0  0  0  0  0  0  0
   11.9180   -1.5720   20.0320 H   0  0  0  0  0  0  0  0  0  0  0  0
    8.1470   -0.5800   18.6780 H   0  0  0  0  0  0  0  0  0  0  0  0
    8.0760   -0.5510   26.6530 H   0  0  0  0  0  0  0  0  0  0  0  0
  1 10  1  0  0  0  0
  1 11  1  0  0  0  0
  2 13  1  0  0  0  0
  2 24  1  0  0  0  0
  3 15  1  0  0  0  0
  3 25  1  0  0  0  0
  4 14  2  0  0  0  0
  5 19  1  0  0  0  0
  5 26  1  0  0  0  0
  6 21  1  0  0  0  0
  6 27  1  0  0  0  0
  7 22  1  0  0  0  0
  7 28  1  0  0  0  0
  8 23  1  0  0  0  0
  8 29  1  0  0  0  0
  9 11  2  0  0  0  0
  9 14  1  0  0  0  0
  9 15  1  0  0  0  0
 10 12  1  0  0  0  0
 10 13  2  0  0  0  0
 11 16  1  0  0  0  0
 12 17  2  0  0  0  0
 12 18  1  0  0  0  0
 13 14  1  0  0  0  0
 15 20  2  0  0  0  0
 16 19  2  0  0  0  0
 16 30  1  0  0  0  0
 17 22  1  0  0  0  0
 17 31  1  0  0  0  0
 18 21  2  0  0  0  0
 18 32  1  0  0  0  0
 19 20  1  0  0  0  0
 20 33  1  0  0  0  0
 21 23  1  0  0  0  0
 22 23  2  0  0  0  0
M  END
>  <HEADER>
                                                                          

>  <TITLE>
    5281672_D                                                             

>  <MASTER>
        0    0    0    0    0    0    0    0   33    0   33    0          

$$$$
