Quercitin.pdb
 OpenBabel02182114013D

 32 34  0  0  0  0  0  0  0  0999 V2000
   12.0950    2.9700   18.6790 O   0  0  0  0  0  0  0  0  0  0  0  0
    9.7350    1.3990   21.0660 O   0  0  0  0  0  0  0  0  0  0  0  0
   11.7940    5.9890   22.4450 O   0  0  0  0  0  0  0  0  0  0  0  0
   10.4280    3.6410   22.2910 O   0  0  0  0  0  0  0  0  0  0  0  0
   14.5630    6.9810   18.7550 O   0  0  0  0  0  0  0  0  0  0  0  0
    8.5470   -0.1800   15.8300 O   0  0  0  0  0  0  0  0  0  0  0  0
    9.9940   -2.4850   16.2370 O   0  0  0  0  0  0  0  0  0  0  0  0
   11.8850    4.4310   20.6040 C   0  0  0  0  0  0  0  0  0  0  0  0
   12.4120    4.1070   19.3500 C   0  0  0  0  0  0  0  0  0  0  0  0
   11.1820    2.1070   19.2450 C   0  0  0  0  0  0  0  0  0  0  0  0
   10.8520    0.9130   18.4360 C   0  0  0  0  0  0  0  0  0  0  0  0
   10.6100    2.3060   20.4750 C   0  0  0  0  0  0  0  0  0  0  0  0
   10.9520    3.4870   21.1890 C   0  0  0  0  0  0  0  0  0  0  0  0
   12.2760    5.6310   21.2270 C   0  0  0  0  0  0  0  0  0  0  0  0
   13.3050    4.9740   18.7480 C   0  0  0  0  0  0  0  0  0  0  0  0
   13.6830    6.1450   19.3630 C   0  0  0  0  0  0  0  0  0  0  0  0
    9.8350    0.9220   17.4890 C   0  0  0  0  0  0  0  0  0  0  0  0
   13.1640    6.4690   20.6060 C   0  0  0  0  0  0  0  0  0  0  0  0
   11.5860   -0.2500   18.6130 C   0  0  0  0  0  0  0  0  0  0  0  0
    9.5490   -0.2040   16.7540 C   0  0  0  0  0  0  0  0  0  0  0  0
   11.3020   -1.3790   17.8820 C   0  0  0  0  0  0  0  0  0  0  0  0
   10.2810   -1.3650   16.9550 C   0  0  0  0  0  0  0  0  0  0  0  0
    8.7760    1.6610   20.9240 H   0  0  0  0  0  0  0  0  0  0  0  0
   12.5060    6.3720   23.0370 H   0  0  0  0  0  0  0  0  0  0  0  0
   14.1180    7.8340   18.4610 H   0  0  0  0  0  0  0  0  0  0  0  0
    8.7130    0.5200   15.1270 H   0  0  0  0  0  0  0  0  0  0  0  0
   10.0480   -2.3110   15.2470 H   0  0  0  0  0  0  0  0  0  0  0  0
   13.6830    4.7450   17.8510 H   0  0  0  0  0  0  0  0  0  0  0  0
    9.3050    1.7570   17.3400 H   0  0  0  0  0  0  0  0  0  0  0  0
   13.4380    7.3210   21.0530 H   0  0  0  0  0  0  0  0  0  0  0  0
   12.3310   -0.2680   19.2790 H   0  0  0  0  0  0  0  0  0  0  0  0
   11.8360   -2.2130   18.0240 H   0  0  0  0  0  0  0  0  0  0  0  0
  1  9  1  0  0  0  0
  1 10  1  0  0  0  0
  2 12  1  0  0  0  0
  2 23  1  0  0  0  0
  3 14  1  0  0  0  0
  3 24  1  0  0  0  0
  4 13  2  0  0  0  0
  5 16  1  0  0  0  0
  5 25  1  0  0  0  0
  6 20  1  0  0  0  0
  6 26  1  0  0  0  0
  7 22  1  0  0  0  0
  7 27  1  0  0  0  0
  8  9  2  0  0  0  0
  8 13  1  0  0  0  0
  8 14  1  0  0  0  0
  9 15  1  0  0  0  0
 10 11  1  0  0  0  0
 10 12  2  0  0  0  0
 11 17  2  0  0  0  0
 11 19  1  0  0  0  0
 12 13  1  0  0  0  0
 14 18  2  0  0  0  0
 15 16  2  0  0  0  0
 15 28  1  0  0  0  0
 16 18  1  0  0  0  0
 17 20  1  0  0  0  0
 17 29  1  0  0  0  0
 18 30  1  0  0  0  0
 19 21  2  0  0  0  0
 19 31  1  0  0  0  0
 20 22  2  0  0  0  0
 21 22  1  0  0  0  0
 21 32  1  0  0  0  0
M  END
>  <HEADER>
                                                                          

>  <TITLE>
    5280343_D                                                             

>  <MASTER>
        0    0    0    0    0    0    0    0   32    0   32    0          

$$$$
