MODEL 1
REMARK VINA RESULT:      -7.8      0.000      0.000
REMARK  10 active torsions:
REMARK  status: ('A' for Active; 'I' for Inactive)
REMARK    1  A    between atoms: O_2  and  C_15 
REMARK    2  A    between atoms: O_2  and  C_18 
REMARK    3  A    between atoms: O_3  and  C_12 
REMARK    4  A    between atoms: O_4  and  C_13 
REMARK    5  A    between atoms: O_5  and  C_14 
REMARK    6  A    between atoms: O_6  and  C_17 
REMARK    7  A    between atoms: O_9  and  C_19 
REMARK    8  A    between atoms: O_10  and  C_23 
REMARK    9  A    between atoms: C_16  and  C_17 
REMARK   10  A    between atoms: C_25  and  C_27 
ROOT
HETATM    1  O   UNK     0      10.598   0.101  21.268  0.00  0.00    -0.340 OA
HETATM    2  C   UNK     0      12.331   2.034  20.035  0.00  0.00     0.183 C 
HETATM    3  C   UNK     0      12.612   1.447  21.419  0.00  0.00     0.205 C 
HETATM    4  C   UNK     0      11.413   1.124  19.219  0.00  0.00     0.189 C 
HETATM    5  C   UNK     0      11.319   1.003  22.105  0.00  0.00     0.299 C 
HETATM    6  C   UNK     0      10.201   0.702  20.041  0.00  0.00     0.253 C 
ENDROOT
BRANCH   5   7
HETATM    7  O   UNK     0      11.670   0.352  23.325  0.00  0.00    -0.315 OA
BRANCH   7   8
HETATM    8  C   UNK     0      10.761  -0.533  23.829  0.00  0.00     0.111 A 
HETATM    9  C   UNK     0      11.064  -1.893  23.906  0.00  0.00     0.137 A 
HETATM   10  C   UNK     0      10.124  -2.784  24.425  0.00  0.00     0.129 A 
HETATM   11  O   UNK     0      10.478  -4.108  24.476  0.00  0.00    -0.306 OA
HETATM   12  C   UNK     0       8.887  -2.315  24.863  0.00  0.00     0.084 A 
HETATM   13  C   UNK     0       9.567  -5.016  24.992  0.00  0.00     0.090 A 
HETATM   14  C   UNK     0       8.343  -4.690  25.438  0.00  0.00     0.094 A 
HETATM   15  C   UNK     0       7.914  -3.277  25.403  0.00  0.00     0.190 A 
HETATM   16  O   UNK     0       6.809  -2.935  25.803  0.00  0.00    -0.287 OA
HETATM   17  C   UNK     0       8.580  -0.955  24.786  0.00  0.00     0.085 A 
HETATM   18  C   UNK     0       9.521  -0.066  24.268  0.00  0.00     0.077 A 
BRANCH   9  19
HETATM   19  O   UNK     0      12.277  -2.345  23.476  0.00  0.00    -0.351 OA
HETATM   20  C   UNK     0      13.391  -2.131  24.340  0.00  0.00     0.210 C 
ENDBRANCH   9  19
BRANCH  13  21
HETATM   21  C   UNK     0      10.047  -6.413  24.994  0.00  0.00    -0.002 A 
HETATM   22  C   UNK     0       9.813  -7.237  23.890  0.00  0.00     0.014 A 
HETATM   23  C   UNK     0      10.268  -8.556  23.892  0.00  0.00     0.001 A 
HETATM   24  C   UNK     0      10.956  -9.056  24.996  0.00  0.00     0.000 A 
HETATM   25  C   UNK     0      11.191  -8.236  26.101  0.00  0.00     0.001 A 
HETATM   26  C   UNK     0      10.737  -6.917  26.100  0.00  0.00     0.014 A 
ENDBRANCH  13  21
BRANCH  17  27
HETATM   27  O   UNK     0       7.385  -0.447  25.200  0.00  0.00    -0.360 OA
HETATM   28  H   UNK     0       6.654  -0.996  24.880  0.00  0.00     0.217 HD
ENDBRANCH  17  27
ENDBRANCH   7   8
ENDBRANCH   5   7
BRANCH   6  29
HETATM   29  C   UNK     0       9.442  -0.387  19.354  0.00  0.00     0.172 C 
HETATM   30  O   UNK     0       9.560  -1.581  19.591  0.00  0.00    -0.648 OA
BRANCH  29  31
HETATM   31  O   UNK     0       8.601   0.127  18.425  0.00  0.00    -0.774 OA
HETATM   32  H   UNK     0       8.233   0.993  18.701  0.00  0.00     0.167 HD
ENDBRANCH  29  31
ENDBRANCH   6  29
BRANCH   3  33
HETATM   33  O   UNK     0      13.234   2.437  22.236  0.00  0.00    -0.388 OA
HETATM   34  H   UNK     0      13.516   2.005  23.060  0.00  0.00     0.210 HD
ENDBRANCH   3  33
BRANCH   4  35
HETATM   35  O   UNK     0      10.960   1.831  18.066  0.00  0.00    -0.390 OA
HETATM   36  H   UNK     0      11.575   1.644  17.336  0.00  0.00     0.210 HD
ENDBRANCH   4  35
BRANCH   2  37
HETATM   37  O   UNK     0      13.559   2.179  19.321  0.00  0.00    -0.390 OA
HETATM   38  H   UNK     0      13.532   3.032  18.856  0.00  0.00     0.210 HD
ENDBRANCH   2  37
TORSDOF 10
ENDMDL
MODEL 2
REMARK VINA RESULT:      -7.8      3.022      6.206
REMARK  10 active torsions:
REMARK  status: ('A' for Active; 'I' for Inactive)
REMARK    1  A    between atoms: O_2  and  C_15 
REMARK    2  A    between atoms: O_2  and  C_18 
REMARK    3  A    between atoms: O_3  and  C_12 
REMARK    4  A    between atoms: O_4  and  C_13 
REMARK    5  A    between atoms: O_5  and  C_14 
REMARK    6  A    between atoms: O_6  and  C_17 
REMARK    7  A    between atoms: O_9  and  C_19 
REMARK    8  A    between atoms: O_10  and  C_23 
REMARK    9  A    between atoms: C_16  and  C_17 
REMARK   10  A    between atoms: C_25  and  C_27 
ROOT
HETATM    1  O   UNK     0      15.234   3.692  19.344  0.00  0.00    -0.340 OA
HETATM    2  C   UNK     0      14.847   6.212  18.019  0.00  0.00     0.183 C 
HETATM    3  C   UNK     0      13.877   5.685  19.077  0.00  0.00     0.205 C 
HETATM    4  C   UNK     0      16.226   5.566  18.156  0.00  0.00     0.189 C 
HETATM    5  C   UNK     0      13.902   4.158  19.140  0.00  0.00     0.299 C 
HETATM    6  C   UNK     0      16.104   4.052  18.277  0.00  0.00     0.253 C 
ENDROOT
BRANCH   5   7
HETATM    7  O   UNK     0      13.076   3.748  20.228  0.00  0.00    -0.315 OA
BRANCH   7   8
HETATM    8  C   UNK     0      12.326   2.624  20.038  0.00  0.00     0.111 A 
HETATM    9  C   UNK     0      12.118   1.726  21.085  0.00  0.00     0.137 A 
HETATM   10  C   UNK     0      11.347   0.581  20.873  0.00  0.00     0.129 A 
HETATM   11  O   UNK     0      11.177  -0.264  21.939  0.00  0.00    -0.306 OA
HETATM   12  C   UNK     0      10.790   0.339  19.619  0.00  0.00     0.084 A 
HETATM   13  C   UNK     0      10.411  -1.406  21.761  0.00  0.00     0.090 A 
HETATM   14  C   UNK     0       9.829  -1.753  20.602  0.00  0.00     0.094 A 
HETATM   15  C   UNK     0       9.985  -0.876  19.424  0.00  0.00     0.190 A 
HETATM   16  O   UNK     0       9.468  -1.153  18.350  0.00  0.00    -0.287 OA
HETATM   17  C   UNK     0      10.997   1.236  18.569  0.00  0.00     0.085 A 
HETATM   18  C   UNK     0      11.768   2.379  18.783  0.00  0.00     0.077 A 
BRANCH   9  19
HETATM   19  O   UNK     0      12.666   1.970  22.310  0.00  0.00    -0.351 OA
HETATM   20  C   UNK     0      14.014   1.553  22.510  0.00  0.00     0.210 C 
ENDBRANCH   9  19
BRANCH  13  21
HETATM   21  C   UNK     0      10.299  -2.248  22.969  0.00  0.00    -0.002 A 
HETATM   22  C   UNK     0      10.642  -3.602  22.916  0.00  0.00     0.014 A 
HETATM   23  C   UNK     0      10.536  -4.397  24.057  0.00  0.00     0.001 A 
HETATM   24  C   UNK     0      10.088  -3.842  25.255  0.00  0.00     0.000 A 
HETATM   25  C   UNK     0       9.744  -2.491  25.312  0.00  0.00     0.001 A 
HETATM   26  C   UNK     0       9.850  -1.695  24.171  0.00  0.00     0.014 A 
ENDBRANCH  13  21
BRANCH  17  27
HETATM   27  O   UNK     0      10.475   1.043  17.325  0.00  0.00    -0.360 OA
HETATM   28  H   UNK     0      11.130   0.630  16.742  0.00  0.00     0.217 HD
ENDBRANCH  17  27
ENDBRANCH   7   8
ENDBRANCH   5   7
BRANCH   6  29
HETATM   29  C   UNK     0      17.407   3.439  18.673  0.00  0.00     0.172 C 
HETATM   30  O   UNK     0      17.772   3.248  19.825  0.00  0.00    -0.648 OA
BRANCH  29  31
HETATM   31  O   UNK     0      18.141   3.123  17.579  0.00  0.00    -0.774 OA
HETATM   32  H   UNK     0      18.220   2.153  17.457  0.00  0.00     0.167 HD
ENDBRANCH  29  31
ENDBRANCH   6  29
BRANCH   3  33
HETATM   33  O   UNK     0      12.551   6.097  18.749  0.00  0.00    -0.388 OA
HETATM   34  H   UNK     0      11.964   5.333  18.878  0.00  0.00     0.210 HD
ENDBRANCH   3  33
BRANCH   4  35
HETATM   35  O   UNK     0      17.002   5.871  16.998  0.00  0.00    -0.390 OA
HETATM   36  H   UNK     0      17.421   6.738  17.136  0.00  0.00     0.210 HD
ENDBRANCH   4  35
BRANCH   2  37
HETATM   37  O   UNK     0      15.003   7.623  18.176  0.00  0.00    -0.390 OA
HETATM   38  H   UNK     0      14.130   7.995  18.387  0.00  0.00     0.210 HD
ENDBRANCH   2  37
TORSDOF 10
ENDMDL
MODEL 3
REMARK VINA RESULT:      -7.4      4.131      7.708
REMARK  10 active torsions:
REMARK  status: ('A' for Active; 'I' for Inactive)
REMARK    1  A    between atoms: O_2  and  C_15 
REMARK    2  A    between atoms: O_2  and  C_18 
REMARK    3  A    between atoms: O_3  and  C_12 
REMARK    4  A    between atoms: O_4  and  C_13 
REMARK    5  A    between atoms: O_5  and  C_14 
REMARK    6  A    between atoms: O_6  and  C_17 
REMARK    7  A    between atoms: O_9  and  C_19 
REMARK    8  A    between atoms: O_10  and  C_23 
REMARK    9  A    between atoms: C_16  and  C_17 
REMARK   10  A    between atoms: C_25  and  C_27 
ROOT
HETATM    1  O   UNK     0      15.488   3.722  24.599  0.00  0.00    -0.340 OA
HETATM    2  C   UNK     0      17.973   4.454  25.842  0.00  0.00     0.183 C 
HETATM    3  C   UNK     0      17.788   3.131  25.100  0.00  0.00     0.205 C 
HETATM    4  C   UNK     0      16.949   5.496  25.390  0.00  0.00     0.189 C 
HETATM    5  C   UNK     0      16.324   2.688  25.114  0.00  0.00     0.299 C 
HETATM    6  C   UNK     0      15.545   4.906  25.385  0.00  0.00     0.253 C 
ENDROOT
BRANCH   5   7
HETATM    7  O   UNK     0      16.209   1.524  24.298  0.00  0.00    -0.315 OA
BRANCH   7   8
HETATM    8  C   UNK     0      14.953   1.014  24.134  0.00  0.00     0.111 A 
HETATM    9  C   UNK     0      14.323   1.069  22.890  0.00  0.00     0.137 A 
HETATM   10  C   UNK     0      13.039   0.543  22.739  0.00  0.00     0.129 A 
HETATM   11  O   UNK     0      12.472   0.626  21.494  0.00  0.00    -0.306 OA
HETATM   12  C   UNK     0      12.391  -0.035  23.829  0.00  0.00     0.084 A 
HETATM   13  C   UNK     0      11.200   0.105  21.312  0.00  0.00     0.090 A 
HETATM   14  C   UNK     0      10.471  -0.469  22.283  0.00  0.00     0.094 A 
HETATM   15  C   UNK     0      11.038  -0.581  23.642  0.00  0.00     0.190 A 
HETATM   16  O   UNK     0      10.410  -1.100  24.555  0.00  0.00    -0.287 OA
HETATM   17  C   UNK     0      13.019  -0.092  25.075  0.00  0.00     0.085 A 
HETATM   18  C   UNK     0      14.302   0.435  25.224  0.00  0.00     0.077 A 
BRANCH   9  19
HETATM   19  O   UNK     0      14.964   1.636  21.827  0.00  0.00    -0.351 OA
HETATM   20  C   UNK     0      15.738   0.769  21.001  0.00  0.00     0.210 C 
ENDBRANCH   9  19
BRANCH  13  21
HETATM   21  C   UNK     0      10.681   0.253  19.937  0.00  0.00    -0.002 A 
HETATM   22  C   UNK     0      11.191   1.247  19.097  0.00  0.00     0.014 A 
HETATM   23  C   UNK     0      10.703   1.385  17.798  0.00  0.00     0.001 A 
HETATM   24  C   UNK     0       9.702   0.533  17.334  0.00  0.00     0.000 A 
HETATM   25  C   UNK     0       9.189  -0.460  18.170  0.00  0.00     0.001 A 
HETATM   26  C   UNK     0       9.678  -0.600  19.469  0.00  0.00     0.014 A 
ENDBRANCH  13  21
BRANCH  17  27
HETATM   27  O   UNK     0      12.427  -0.645  26.171  0.00  0.00    -0.360 OA
HETATM   28  H   UNK     0      11.493  -0.394  26.215  0.00  0.00     0.217 HD
ENDBRANCH  17  27
ENDBRANCH   7   8
ENDBRANCH   5   7
BRANCH   6  29
HETATM   29  C   UNK     0      14.582   5.821  24.700  0.00  0.00     0.172 C 
HETATM   30  O   UNK     0      14.524   6.001  23.492  0.00  0.00    -0.648 OA
BRANCH  29  31
HETATM   31  O   UNK     0      13.777   6.433  25.602  0.00  0.00    -0.774 OA
HETATM   32  H   UNK     0      14.051   6.245  26.525  0.00  0.00     0.167 HD
ENDBRANCH  29  31
ENDBRANCH   6  29
BRANCH   3  33
HETATM   33  O   UNK     0      18.567   2.118  25.735  0.00  0.00    -0.388 OA
HETATM   34  H   UNK     0      18.328   1.266  25.333  0.00  0.00     0.210 HD
ENDBRANCH   3  33
BRANCH   4  35
HETATM   35  O   UNK     0      16.979   6.601  26.291  0.00  0.00    -0.390 OA
HETATM   36  H   UNK     0      17.350   7.366  25.819  0.00  0.00     0.210 HD
ENDBRANCH   4  35
BRANCH   2  37
HETATM   37  O   UNK     0      19.278   4.971  25.576  0.00  0.00    -0.390 OA
HETATM   38  H   UNK     0      19.340   5.138  24.620  0.00  0.00     0.210 HD
ENDBRANCH   2  37
TORSDOF 10
ENDMDL
MODEL 4
REMARK VINA RESULT:      -7.3      2.517      5.298
REMARK  10 active torsions:
REMARK  status: ('A' for Active; 'I' for Inactive)
REMARK    1  A    between atoms: O_2  and  C_15 
REMARK    2  A    between atoms: O_2  and  C_18 
REMARK    3  A    between atoms: O_3  and  C_12 
REMARK    4  A    between atoms: O_4  and  C_13 
REMARK    5  A    between atoms: O_5  and  C_14 
REMARK    6  A    between atoms: O_6  and  C_17 
REMARK    7  A    between atoms: O_9  and  C_19 
REMARK    8  A    between atoms: O_10  and  C_23 
REMARK    9  A    between atoms: C_16  and  C_17 
REMARK   10  A    between atoms: C_25  and  C_27 
ROOT
HETATM    1  O   UNK     0      10.092  -0.571  23.813  0.00  0.00    -0.340 OA
HETATM    2  C   UNK     0       7.583  -0.390  25.201  0.00  0.00     0.183 C 
HETATM    3  C   UNK     0       8.593  -1.504  25.478  0.00  0.00     0.205 C 
HETATM    4  C   UNK     0       8.256   0.830  24.570  0.00  0.00     0.189 C 
HETATM    5  C   UNK     0       9.467  -1.775  24.253  0.00  0.00     0.299 C 
HETATM    6  C   UNK     0       9.148   0.413  23.407  0.00  0.00     0.253 C 
ENDROOT
BRANCH   5   7
HETATM    7  O   UNK     0      10.463  -2.727  24.624  0.00  0.00    -0.315 OA
BRANCH   7   8
HETATM    8  C   UNK     0      10.626  -3.796  23.793  0.00  0.00     0.111 A 
HETATM    9  C   UNK     0      10.661  -5.094  24.306  0.00  0.00     0.137 A 
HETATM   10  C   UNK     0      10.828  -6.177  23.442  0.00  0.00     0.129 A 
HETATM   11  O   UNK     0      10.855  -7.427  24.005  0.00  0.00    -0.306 OA
HETATM   12  C   UNK     0      10.961  -5.961  22.072  0.00  0.00     0.084 A 
HETATM   13  C   UNK     0      11.013  -8.523  23.171  0.00  0.00     0.090 A 
HETATM   14  C   UNK     0      11.158  -8.445  21.838  0.00  0.00     0.094 A 
HETATM   15  C   UNK     0      11.138  -7.120  21.185  0.00  0.00     0.190 A 
HETATM   16  O   UNK     0      11.262  -7.004  19.973  0.00  0.00    -0.287 OA
HETATM   17  C   UNK     0      10.927  -4.664  21.555  0.00  0.00     0.085 A 
HETATM   18  C   UNK     0      10.760  -3.583  22.421  0.00  0.00     0.077 A 
BRANCH   9  19
HETATM   19  O   UNK     0      10.530  -5.298  25.649  0.00  0.00    -0.351 OA
HETATM   20  C   UNK     0       9.216  -5.550  26.140  0.00  0.00     0.210 C 
ENDBRANCH   9  19
BRANCH  13  21
HETATM   21  C   UNK     0      11.034  -9.819  23.879  0.00  0.00    -0.002 A 
HETATM   22  C   UNK     0      11.773 -10.888  23.365  0.00  0.00     0.014 A 
HETATM   23  C   UNK     0      11.794 -12.111  24.035  0.00  0.00     0.001 A 
HETATM   24  C   UNK     0      11.076 -12.271  25.220  0.00  0.00     0.000 A 
HETATM   25  C   UNK     0      10.337 -11.206  25.736  0.00  0.00     0.001 A 
HETATM   26  C   UNK     0      10.316  -9.982  25.066  0.00  0.00     0.014 A 
ENDBRANCH  13  21
BRANCH  17  27
HETATM   27  O   UNK     0      11.053  -4.401  20.224  0.00  0.00    -0.360 OA
HETATM   28  H   UNK     0      11.075  -5.225  19.716  0.00  0.00     0.217 HD
ENDBRANCH  17  27
ENDBRANCH   7   8
ENDBRANCH   5   7
BRANCH   6  29
HETATM   29  C   UNK     0      10.007   1.549  22.957  0.00  0.00     0.172 C 
HETATM   30  O   UNK     0      11.161   1.742  23.315  0.00  0.00    -0.648 OA
BRANCH  29  31
HETATM   31  O   UNK     0       9.333   2.348  22.096  0.00  0.00    -0.774 OA
HETATM   32  H   UNK     0       8.859   1.832  21.409  0.00  0.00     0.167 HD
ENDBRANCH  29  31
ENDBRANCH   6  29
BRANCH   3  33
HETATM   33  O   UNK     0       7.895  -2.705  25.803  0.00  0.00    -0.388 OA
HETATM   34  H   UNK     0       8.138  -3.375  25.143  0.00  0.00     0.210 HD
ENDBRANCH   3  33
BRANCH   4  35
HETATM   35  O   UNK     0       7.251   1.717  24.080  0.00  0.00    -0.390 OA
HETATM   36  H   UNK     0       7.277   2.527  24.617  0.00  0.00     0.210 HD
ENDBRANCH   4  35
BRANCH   2  37
HETATM   37  O   UNK     0       6.981   0.024  26.429  0.00  0.00    -0.390 OA
HETATM   38  H   UNK     0       7.660  -0.028  27.122  0.00  0.00     0.210 HD
ENDBRANCH   2  37
TORSDOF 10
ENDMDL
MODEL 5
REMARK VINA RESULT:      -7.3      2.839      8.834
REMARK  10 active torsions:
REMARK  status: ('A' for Active; 'I' for Inactive)
REMARK    1  A    between atoms: O_2  and  C_15 
REMARK    2  A    between atoms: O_2  and  C_18 
REMARK    3  A    between atoms: O_3  and  C_12 
REMARK    4  A    between atoms: O_4  and  C_13 
REMARK    5  A    between atoms: O_5  and  C_14 
REMARK    6  A    between atoms: O_6  and  C_17 
REMARK    7  A    between atoms: O_9  and  C_19 
REMARK    8  A    between atoms: O_10  and  C_23 
REMARK    9  A    between atoms: C_16  and  C_17 
REMARK   10  A    between atoms: C_25  and  C_27 
ROOT
HETATM    1  O   UNK     0      11.571  -6.907  26.367  0.00  0.00    -0.340 OA
HETATM    2  C   UNK     0      10.308  -9.234  25.250  0.00  0.00     0.183 C 
HETATM    3  C   UNK     0      10.882  -8.116  24.378  0.00  0.00     0.205 C 
HETATM    4  C   UNK     0      10.943  -9.239  26.641  0.00  0.00     0.189 C 
HETATM    5  C   UNK     0      10.885  -6.780  25.123  0.00  0.00     0.299 C 
HETATM    6  C   UNK     0      10.942  -7.838  27.240  0.00  0.00     0.253 C 
ENDROOT
BRANCH   5   7
HETATM    7  O   UNK     0      11.548  -5.820  24.303  0.00  0.00    -0.315 OA
BRANCH   7   8
HETATM    8  C   UNK     0      10.938  -4.607  24.166  0.00  0.00     0.111 A 
HETATM    9  C   UNK     0      11.051  -3.888  22.976  0.00  0.00     0.137 A 
HETATM   10  C   UNK     0      10.421  -2.648  22.852  0.00  0.00     0.129 A 
HETATM   11  O   UNK     0      10.568  -1.988  21.659  0.00  0.00    -0.306 OA
HETATM   12  C   UNK     0       9.682  -2.134  23.916  0.00  0.00     0.084 A 
HETATM   13  C   UNK     0       9.947  -0.758  21.505  0.00  0.00     0.090 A 
HETATM   14  C   UNK     0       9.216  -0.155  22.456  0.00  0.00     0.094 A 
HETATM   15  C   UNK     0       9.029  -0.825  23.759  0.00  0.00     0.190 A 
HETATM   16  O   UNK     0       8.367  -0.313  24.651  0.00  0.00    -0.287 OA
HETATM   17  C   UNK     0       9.567  -2.852  25.108  0.00  0.00     0.085 A 
HETATM   18  C   UNK     0      10.198  -4.090  25.230  0.00  0.00     0.077 A 
BRANCH   9  19
HETATM   19  O   UNK     0      11.776  -4.398  21.939  0.00  0.00    -0.351 OA
HETATM   20  C   UNK     0      11.097  -5.278  21.046  0.00  0.00     0.210 C 
ENDBRANCH   9  19
BRANCH  13  21
HETATM   21  C   UNK     0      10.176  -0.132  20.187  0.00  0.00    -0.002 A 
HETATM   22  C   UNK     0       9.468  -0.575  19.066  0.00  0.00     0.014 A 
HETATM   23  C   UNK     0       9.683   0.017  17.822  0.00  0.00     0.001 A 
HETATM   24  C   UNK     0      10.606   1.055  17.693  0.00  0.00     0.000 A 
HETATM   25  C   UNK     0      11.315   1.500  18.810  0.00  0.00     0.001 A 
HETATM   26  C   UNK     0      11.100   0.908  20.055  0.00  0.00     0.014 A 
ENDBRANCH  13  21
BRANCH  17  27
HETATM   27  O   UNK     0       8.856  -2.391  26.176  0.00  0.00    -0.360 OA
HETATM   28  H   UNK     0       8.668  -3.112  26.795  0.00  0.00     0.217 HD
ENDBRANCH  17  27
ENDBRANCH   7   8
ENDBRANCH   5   7
BRANCH   6  29
HETATM   29  C   UNK     0      11.788  -7.781  28.470  0.00  0.00     0.172 C 
HETATM   30  O   UNK     0      12.946  -7.390  28.508  0.00  0.00    -0.648 OA
BRANCH  29  31
HETATM   31  O   UNK     0      11.099  -8.229  29.547  0.00  0.00    -0.774 OA
HETATM   32  H   UNK     0      10.961  -7.523  30.214  0.00  0.00     0.167 HD
ENDBRANCH  29  31
ENDBRANCH   6  29
BRANCH   3  33
HETATM   33  O   UNK     0      10.082  -7.972  23.206  0.00  0.00    -0.388 OA
HETATM   34  H   UNK     0      10.498  -7.294  22.647  0.00  0.00     0.210 HD
ENDBRANCH   3  33
BRANCH   4  35
HETATM   35  O   UNK     0      10.192 -10.102  27.493  0.00  0.00    -0.390 OA
HETATM   36  H   UNK     0      10.528  -9.997  28.400  0.00  0.00     0.210 HD
ENDBRANCH   4  35
BRANCH   2  37
HETATM   37  O   UNK     0      10.573 -10.497  24.638  0.00  0.00    -0.390 OA
HETATM   38  H   UNK     0       9.759 -11.026  24.687  0.00  0.00     0.210 HD
ENDBRANCH   2  37
TORSDOF 10
ENDMDL
MODEL 6
REMARK VINA RESULT:      -7.2      2.783      4.812
REMARK  10 active torsions:
REMARK  status: ('A' for Active; 'I' for Inactive)
REMARK    1  A    between atoms: O_2  and  C_15 
REMARK    2  A    between atoms: O_2  and  C_18 
REMARK    3  A    between atoms: O_3  and  C_12 
REMARK    4  A    between atoms: O_4  and  C_13 
REMARK    5  A    between atoms: O_5  and  C_14 
REMARK    6  A    between atoms: O_6  and  C_17 
REMARK    7  A    between atoms: O_9  and  C_19 
REMARK    8  A    between atoms: O_10  and  C_23 
REMARK    9  A    between atoms: C_16  and  C_17 
REMARK   10  A    between atoms: C_25  and  C_27 
ROOT
HETATM    1  O   UNK     0       8.432  -0.746  24.232  0.00  0.00    -0.340 OA
HETATM    2  C   UNK     0      10.207   0.795  22.578  0.00  0.00     0.183 C 
HETATM    3  C   UNK     0       9.839  -0.654  22.257  0.00  0.00     0.205 C 
HETATM    4  C   UNK     0       9.161   1.448  23.482  0.00  0.00     0.189 C 
HETATM    5  C   UNK     0       9.466  -1.425  23.524  0.00  0.00     0.299 C 
HETATM    6  C   UNK     0       8.833   0.548  24.667  0.00  0.00     0.253 C 
ENDROOT
BRANCH   5   7
HETATM    7  O   UNK     0       9.013  -2.720  23.134  0.00  0.00    -0.315 OA
BRANCH   7   8
HETATM    8  C   UNK     0       9.496  -3.778  23.848  0.00  0.00     0.111 A 
HETATM    9  C   UNK     0      10.623  -4.474  23.408  0.00  0.00     0.137 A 
HETATM   10  C   UNK     0      11.105  -5.554  24.150  0.00  0.00     0.129 A 
HETATM   11  O   UNK     0      12.214  -6.199  23.667  0.00  0.00    -0.306 OA
HETATM   12  C   UNK     0      10.461  -5.932  25.327  0.00  0.00     0.084 A 
HETATM   13  C   UNK     0      12.720  -7.270  24.387  0.00  0.00     0.090 A 
HETATM   14  C   UNK     0      12.186  -7.734  25.528  0.00  0.00     0.094 A 
HETATM   15  C   UNK     0      10.990  -7.074  26.088  0.00  0.00     0.190 A 
HETATM   16  O   UNK     0      10.474  -7.462  27.128  0.00  0.00    -0.287 OA
HETATM   17  C   UNK     0       9.334  -5.237  25.770  0.00  0.00     0.085 A 
HETATM   18  C   UNK     0       8.854  -4.159  25.027  0.00  0.00     0.077 A 
BRANCH   9  19
HETATM   19  O   UNK     0      11.248  -4.097  22.255  0.00  0.00    -0.351 OA
HETATM   20  C   UNK     0      10.909  -4.816  21.071  0.00  0.00     0.210 C 
ENDBRANCH   9  19
BRANCH  13  21
HETATM   21  C   UNK     0      13.910  -7.896  23.776  0.00  0.00    -0.002 A 
HETATM   22  C   UNK     0      14.782  -8.658  24.557  0.00  0.00     0.014 A 
HETATM   23  C   UNK     0      15.905  -9.250  23.979  0.00  0.00     0.001 A 
HETATM   24  C   UNK     0      16.161  -9.082  22.619  0.00  0.00     0.000 A 
HETATM   25  C   UNK     0      15.293  -8.321  21.835  0.00  0.00     0.001 A 
HETATM   26  C   UNK     0      14.169  -7.729  22.413  0.00  0.00     0.014 A 
ENDBRANCH  13  21
BRANCH  17  27
HETATM   27  O   UNK     0       8.670  -5.569  26.913  0.00  0.00    -0.360 OA
HETATM   28  H   UNK     0       8.010  -4.895  27.130  0.00  0.00     0.217 HD
ENDBRANCH  17  27
ENDBRANCH   7   8
ENDBRANCH   5   7
BRANCH   6  29
HETATM   29  C   UNK     0       7.635   1.050  25.405  0.00  0.00     0.172 C 
HETATM   30  O   UNK     0       7.231   2.204  25.386  0.00  0.00    -0.648 OA
BRANCH  29  31
HETATM   31  O   UNK     0       7.052   0.051  26.109  0.00  0.00    -0.774 OA
HETATM   32  H   UNK     0       7.687  -0.665  26.326  0.00  0.00     0.167 HD
ENDBRANCH  29  31
ENDBRANCH   6  29
BRANCH   3  33
HETATM   33  O   UNK     0      10.955  -1.303  21.651  0.00  0.00    -0.388 OA
HETATM   34  H   UNK     0      10.612  -2.024  21.095  0.00  0.00     0.210 HD
ENDBRANCH   3  33
BRANCH   4  35
HETATM   35  O   UNK     0       9.677   2.684  23.975  0.00  0.00    -0.390 OA
HETATM   36  H   UNK     0      10.640   2.685  23.837  0.00  0.00     0.210 HD
ENDBRANCH   4  35
BRANCH   2  37
HETATM   37  O   UNK     0      10.277   1.548  21.367  0.00  0.00    -0.390 OA
HETATM   38  H   UNK     0       9.367   1.765  21.101  0.00  0.00     0.210 HD
ENDBRANCH   2  37
TORSDOF 10
ENDMDL
MODEL 7
REMARK VINA RESULT:      -7.1      5.032     11.427
REMARK  10 active torsions:
REMARK  status: ('A' for Active; 'I' for Inactive)
REMARK    1  A    between atoms: O_2  and  C_15 
REMARK    2  A    between atoms: O_2  and  C_18 
REMARK    3  A    between atoms: O_3  and  C_12 
REMARK    4  A    between atoms: O_4  and  C_13 
REMARK    5  A    between atoms: O_5  and  C_14 
REMARK    6  A    between atoms: O_6  and  C_17 
REMARK    7  A    between atoms: O_9  and  C_19 
REMARK    8  A    between atoms: O_10  and  C_23 
REMARK    9  A    between atoms: C_16  and  C_17 
REMARK   10  A    between atoms: C_25  and  C_27 
ROOT
HETATM    1  O   UNK     0      11.167   1.857  18.747  0.00  0.00    -0.340 OA
HETATM    2  C   UNK     0      10.325  -0.058  20.717  0.00  0.00     0.183 C 
HETATM    3  C   UNK     0      11.141   1.184  21.079  0.00  0.00     0.205 C 
HETATM    4  C   UNK     0       9.587   0.126  19.391  0.00  0.00     0.189 C 
HETATM    5  C   UNK     0      11.988   1.653  19.895  0.00  0.00     0.299 C 
HETATM    6  C   UNK     0      10.529   0.660  18.319  0.00  0.00     0.253 C 
ENDROOT
BRANCH   5   7
HETATM    7  O   UNK     0      12.616   2.880  20.262  0.00  0.00    -0.315 OA
BRANCH   7   8
HETATM    8  C   UNK     0      13.889   3.074  19.812  0.00  0.00     0.111 A 
HETATM    9  C   UNK     0      14.186   4.143  18.966  0.00  0.00     0.137 A 
HETATM   10  C   UNK     0      15.494   4.328  18.515  0.00  0.00     0.129 A 
HETATM   11  O   UNK     0      15.725   5.395  17.685  0.00  0.00    -0.306 OA
HETATM   12  C   UNK     0      16.498   3.446  18.910  0.00  0.00     0.084 A 
HETATM   13  C   UNK     0      17.016   5.608  17.227  0.00  0.00     0.090 A 
HETATM   14  C   UNK     0      18.065   4.826  17.529  0.00  0.00     0.094 A 
HETATM   15  C   UNK     0      17.867   3.663  18.418  0.00  0.00     0.190 A 
HETATM   16  O   UNK     0      18.796   2.928  18.723  0.00  0.00    -0.287 OA
HETATM   17  C   UNK     0      16.204   2.375  19.756  0.00  0.00     0.085 A 
HETATM   18  C   UNK     0      14.897   2.192  20.206  0.00  0.00     0.077 A 
BRANCH   9  19
HETATM   19  O   UNK     0      13.198   5.003  18.584  0.00  0.00    -0.351 OA
HETATM   20  C   UNK     0      13.003   6.163  19.389  0.00  0.00     0.210 C 
ENDBRANCH   9  19
BRANCH  13  21
HETATM   21  C   UNK     0      17.152   6.779  16.337  0.00  0.00    -0.002 A 
HETATM   22  C   UNK     0      17.297   8.059  16.877  0.00  0.00     0.014 A 
HETATM   23  C   UNK     0      17.427   9.164  16.036  0.00  0.00     0.001 A 
HETATM   24  C   UNK     0      17.410   8.994  14.652  0.00  0.00     0.000 A 
HETATM   25  C   UNK     0      17.265   7.717  14.108  0.00  0.00     0.001 A 
HETATM   26  C   UNK     0      17.136   6.611  14.949  0.00  0.00     0.014 A 
ENDBRANCH  13  21
BRANCH  17  27
HETATM   27  O   UNK     0      17.150   1.485  20.170  0.00  0.00    -0.360 OA
HETATM   28  H   UNK     0      17.241   0.764  19.530  0.00  0.00     0.217 HD
ENDBRANCH  17  27
ENDBRANCH   7   8
ENDBRANCH   5   7
BRANCH   6  29
HETATM   29  C   UNK     0       9.770   1.090  17.105  0.00  0.00     0.172 C 
HETATM   30  O   UNK     0       8.998   0.383  16.474  0.00  0.00    -0.648 OA
BRANCH  29  31
HETATM   31  O   UNK     0      10.056   2.377  16.792  0.00  0.00    -0.774 OA
HETATM   32  H   UNK     0       9.312   2.815  16.325  0.00  0.00     0.167 HD
ENDBRANCH  29  31
ENDBRANCH   6  29
BRANCH   3  33
HETATM   33  O   UNK     0      12.017   0.876  22.161  0.00  0.00    -0.388 OA
HETATM   34  H   UNK     0      12.753   0.350  21.805  0.00  0.00     0.210 HD
ENDBRANCH   3  33
BRANCH   4  35
HETATM   35  O   UNK     0       9.075  -1.135  18.963  0.00  0.00    -0.390 OA
HETATM   36  H   UNK     0       9.808  -1.642  18.574  0.00  0.00     0.210 HD
ENDBRANCH   4  35
BRANCH   2  37
HETATM   37  O   UNK     0       9.352  -0.301  21.734  0.00  0.00    -0.390 OA
HETATM   38  H   UNK     0       9.399  -1.243  21.969  0.00  0.00     0.210 HD
ENDBRANCH   2  37
TORSDOF 10
ENDMDL
MODEL 8
REMARK VINA RESULT:      -7.1      2.089      8.622
REMARK  10 active torsions:
REMARK  status: ('A' for Active; 'I' for Inactive)
REMARK    1  A    between atoms: O_2  and  C_15 
REMARK    2  A    between atoms: O_2  and  C_18 
REMARK    3  A    between atoms: O_3  and  C_12 
REMARK    4  A    between atoms: O_4  and  C_13 
REMARK    5  A    between atoms: O_5  and  C_14 
REMARK    6  A    between atoms: O_6  and  C_17 
REMARK    7  A    between atoms: O_9  and  C_19 
REMARK    8  A    between atoms: O_10  and  C_23 
REMARK    9  A    between atoms: C_16  and  C_17 
REMARK   10  A    between atoms: C_25  and  C_27 
ROOT
HETATM    1  O   UNK     0      10.284  -3.039  24.371  0.00  0.00    -0.340 OA
HETATM    2  C   UNK     0       8.093  -4.368  25.670  0.00  0.00     0.183 C 
HETATM    3  C   UNK     0       7.990  -2.932  25.155  0.00  0.00     0.205 C 
HETATM    4  C   UNK     0       9.208  -5.136  24.961  0.00  0.00     0.189 C 
HETATM    5  C   UNK     0       9.361  -2.255  25.124  0.00  0.00     0.299 C 
HETATM    6  C   UNK     0      10.497  -4.324  24.942  0.00  0.00     0.253 C 
ENDROOT
BRANCH   5   7
HETATM    7  O   UNK     0       9.207  -0.975  24.515  0.00  0.00    -0.315 OA
BRANCH   7   8
HETATM    8  C   UNK     0       9.643  -0.853  23.228  0.00  0.00     0.111 A 
HETATM    9  C   UNK     0      10.213   0.341  22.783  0.00  0.00     0.137 A 
HETATM   10  C   UNK     0      10.655   0.449  21.463  0.00  0.00     0.129 A 
HETATM   11  O   UNK     0      11.205   1.646  21.084  0.00  0.00    -0.306 OA
HETATM   12  C   UNK     0      10.526  -0.634  20.595  0.00  0.00     0.084 A 
HETATM   13  C   UNK     0      11.660   1.780  19.781  0.00  0.00     0.090 A 
HETATM   14  C   UNK     0      11.585   0.815  18.850  0.00  0.00     0.094 A 
HETATM   15  C   UNK     0      10.999  -0.492  19.210  0.00  0.00     0.190 A 
HETATM   16  O   UNK     0      10.916  -1.401  18.394  0.00  0.00    -0.287 OA
HETATM   17  C   UNK     0       9.957  -1.830  21.038  0.00  0.00     0.085 A 
HETATM   18  C   UNK     0       9.516  -1.935  22.357  0.00  0.00     0.077 A 
BRANCH   9  19
HETATM   19  O   UNK     0      10.336   1.397  23.638  0.00  0.00    -0.351 OA
HETATM   20  C   UNK     0       9.147   2.122  23.945  0.00  0.00     0.210 C 
ENDBRANCH   9  19
BRANCH  13  21
HETATM   21  C   UNK     0      12.226   3.109  19.477  0.00  0.00    -0.002 A 
HETATM   22  C   UNK     0      13.610   3.275  19.367  0.00  0.00     0.014 A 
HETATM   23  C   UNK     0      14.145   4.530  19.078  0.00  0.00     0.001 A 
HETATM   24  C   UNK     0      13.300   5.625  18.899  0.00  0.00     0.000 A 
HETATM   25  C   UNK     0      11.918   5.464  19.008  0.00  0.00     0.001 A 
HETATM   26  C   UNK     0      11.382   4.208  19.297  0.00  0.00     0.014 A 
ENDBRANCH  13  21
BRANCH  17  27
HETATM   27  O   UNK     0       9.809  -2.916  20.228  0.00  0.00    -0.360 OA
HETATM   28  H   UNK     0       8.945  -3.331  20.370  0.00  0.00     0.217 HD
ENDBRANCH  17  27
ENDBRANCH   7   8
ENDBRANCH   5   7
BRANCH   6  29
HETATM   29  C   UNK     0      11.507  -4.943  24.032  0.00  0.00     0.172 C 
HETATM   30  O   UNK     0      11.833  -6.121  24.043  0.00  0.00    -0.648 OA
BRANCH  29  31
HETATM   31  O   UNK     0      12.023  -4.017  23.188  0.00  0.00    -0.774 OA
HETATM   32  H   UNK     0      11.461  -3.215  23.134  0.00  0.00     0.167 HD
ENDBRANCH  29  31
ENDBRANCH   6  29
BRANCH   3  33
HETATM   33  O   UNK     0       7.140  -2.179  26.018  0.00  0.00    -0.388 OA
HETATM   34  H   UNK     0       7.639  -1.401  26.319  0.00  0.00     0.210 HD
ENDBRANCH   3  33
BRANCH   4  35
HETATM   35  O   UNK     0       9.448  -6.359  25.657  0.00  0.00    -0.390 OA
HETATM   36  H   UNK     0       9.013  -7.076  25.165  0.00  0.00     0.210 HD
ENDBRANCH   4  35
BRANCH   2  37
HETATM   37  O   UNK     0       6.862  -5.050  25.427  0.00  0.00    -0.390 OA
HETATM   38  H   UNK     0       6.523  -4.751  24.567  0.00  0.00     0.210 HD
ENDBRANCH   2  37
TORSDOF 10
ENDMDL
MODEL 9
REMARK VINA RESULT:      -7.0      3.693      6.455
REMARK  10 active torsions:
REMARK  status: ('A' for Active; 'I' for Inactive)
REMARK    1  A    between atoms: O_2  and  C_15 
REMARK    2  A    between atoms: O_2  and  C_18 
REMARK    3  A    between atoms: O_3  and  C_12 
REMARK    4  A    between atoms: O_4  and  C_13 
REMARK    5  A    between atoms: O_5  and  C_14 
REMARK    6  A    between atoms: O_6  and  C_17 
REMARK    7  A    between atoms: O_9  and  C_19 
REMARK    8  A    between atoms: O_10  and  C_23 
REMARK    9  A    between atoms: C_16  and  C_17 
REMARK   10  A    between atoms: C_25  and  C_27 
ROOT
HETATM    1  O   UNK     0      15.557   3.418  24.239  0.00  0.00    -0.340 OA
HETATM    2  C   UNK     0      17.647   2.477  25.972  0.00  0.00     0.183 C 
HETATM    3  C   UNK     0      17.233   1.726  24.705  0.00  0.00     0.205 C 
HETATM    4  C   UNK     0      17.246   3.950  25.903  0.00  0.00     0.189 C 
HETATM    5  C   UNK     0      15.775   2.012  24.343  0.00  0.00     0.299 C 
HETATM    6  C   UNK     0      15.794   4.095  25.467  0.00  0.00     0.253 C 
ENDROOT
BRANCH   5   7
HETATM    7  O   UNK     0      15.502   1.388  23.091  0.00  0.00    -0.315 OA
BRANCH   7   8
HETATM    8  C   UNK     0      14.191   1.142  22.803  0.00  0.00     0.111 A 
HETATM    9  C   UNK     0      13.491   0.144  23.484  0.00  0.00     0.137 A 
HETATM   10  C   UNK     0      12.150  -0.094  23.178  0.00  0.00     0.129 A 
HETATM   11  O   UNK     0      11.516  -1.087  23.880  0.00  0.00    -0.306 OA
HETATM   12  C   UNK     0      11.515   0.663  22.196  0.00  0.00     0.084 A 
HETATM   13  C   UNK     0      10.182  -1.342  23.603  0.00  0.00     0.090 A 
HETATM   14  C   UNK     0       9.463  -0.688  22.677  0.00  0.00     0.094 A 
HETATM   15  C   UNK     0      10.102   0.389  21.893  0.00  0.00     0.190 A 
HETATM   16  O   UNK     0       9.482   1.013  21.043  0.00  0.00    -0.287 OA
HETATM   17  C   UNK     0      12.212   1.662  21.513  0.00  0.00     0.085 A 
HETATM   18  C   UNK     0      13.552   1.898  21.820  0.00  0.00     0.077 A 
BRANCH   9  19
HETATM   19  O   UNK     0      14.120  -0.593  24.445  0.00  0.00    -0.351 OA
HETATM   20  C   UNK     0      13.925  -0.191  25.799  0.00  0.00     0.210 C 
ENDBRANCH   9  19
BRANCH  13  21
HETATM   21  C   UNK     0       9.599  -2.434  24.409  0.00  0.00    -0.002 A 
HETATM   22  C   UNK     0      10.414  -3.461  24.895  0.00  0.00     0.014 A 
HETATM   23  C   UNK     0       9.864  -4.491  25.657  0.00  0.00     0.001 A 
HETATM   24  C   UNK     0       8.498  -4.499  25.937  0.00  0.00     0.000 A 
HETATM   25  C   UNK     0       7.681  -3.476  25.454  0.00  0.00     0.001 A 
HETATM   26  C   UNK     0       8.231  -2.445  24.692  0.00  0.00     0.014 A 
ENDBRANCH  13  21
BRANCH  17  27
HETATM   27  O   UNK     0      11.635   2.428  20.545  0.00  0.00    -0.360 OA
HETATM   28  H   UNK     0      12.306   2.755  19.927  0.00  0.00     0.217 HD
ENDBRANCH  17  27
ENDBRANCH   7   8
ENDBRANCH   5   7
BRANCH   6  29
HETATM   29  C   UNK     0      15.471   5.518  25.143  0.00  0.00     0.172 C 
HETATM   30  O   UNK     0      16.010   6.492  25.649  0.00  0.00    -0.648 OA
BRANCH  29  31
HETATM   31  O   UNK     0      14.491   5.587  24.210  0.00  0.00    -0.774 OA
HETATM   32  H   UNK     0      14.810   5.321  23.322  0.00  0.00     0.167 HD
ENDBRANCH  29  31
ENDBRANCH   6  29
BRANCH   3  33
HETATM   33  O   UNK     0      17.373   0.323  24.920  0.00  0.00    -0.388 OA
HETATM   34  H   UNK     0      18.310   0.145  25.111  0.00  0.00     0.210 HD
ENDBRANCH   3  33
BRANCH   4  35
HETATM   35  O   UNK     0      17.397   4.536  27.195  0.00  0.00    -0.390 OA
HETATM   36  H   UNK     0      18.244   5.013  27.213  0.00  0.00     0.210 HD
ENDBRANCH   4  35
BRANCH   2  37
HETATM   37  O   UNK     0      19.066   2.411  26.122  0.00  0.00    -0.390 OA
HETATM   38  H   UNK     0      19.433   2.044  25.301  0.00  0.00     0.210 HD
ENDBRANCH   2  37
TORSDOF 10
ENDMDL
MODEL 10
REMARK VINA RESULT:      -6.9      2.403      5.209
REMARK  10 active torsions:
REMARK  status: ('A' for Active; 'I' for Inactive)
REMARK    1  A    between atoms: O_2  and  C_15 
REMARK    2  A    between atoms: O_2  and  C_18 
REMARK    3  A    between atoms: O_3  and  C_12 
REMARK    4  A    between atoms: O_4  and  C_13 
REMARK    5  A    between atoms: O_5  and  C_14 
REMARK    6  A    between atoms: O_6  and  C_17 
REMARK    7  A    between atoms: O_9  and  C_19 
REMARK    8  A    between atoms: O_10  and  C_23 
REMARK    9  A    between atoms: C_16  and  C_17 
REMARK   10  A    between atoms: C_25  and  C_27 
ROOT
HETATM    1  O   UNK     0       8.464  -1.282  24.462  0.00  0.00    -0.340 OA
HETATM    2  C   UNK     0       9.643   0.375  22.432  0.00  0.00     0.183 C 
HETATM    3  C   UNK     0       9.418  -1.125  22.236  0.00  0.00     0.205 C 
HETATM    4  C   UNK     0       8.722   0.941  23.513  0.00  0.00     0.189 C 
HETATM    5  C   UNK     0       9.417  -1.864  23.575  0.00  0.00     0.299 C 
HETATM    6  C   UNK     0       8.765   0.075  24.766  0.00  0.00     0.253 C 
ENDROOT
BRANCH   5   7
HETATM    7  O   UNK     0       9.074  -3.226  23.326  0.00  0.00    -0.315 OA
BRANCH   7   8
HETATM    8  C   UNK     0      10.021  -4.160  23.630  0.00  0.00     0.111 A 
HETATM    9  C   UNK     0       9.671  -5.329  24.307  0.00  0.00     0.137 A 
HETATM   10  C   UNK     0      10.652  -6.275  24.610  0.00  0.00     0.129 A 
HETATM   11  O   UNK     0      10.249  -7.403  25.276  0.00  0.00    -0.306 OA
HETATM   12  C   UNK     0      11.976  -6.049  24.237  0.00  0.00     0.084 A 
HETATM   13  C   UNK     0      11.200  -8.364  25.584  0.00  0.00     0.090 A 
HETATM   14  C   UNK     0      12.505  -8.259  25.286  0.00  0.00     0.094 A 
HETATM   15  C   UNK     0      12.990  -7.062  24.570  0.00  0.00     0.190 A 
HETATM   16  O   UNK     0      14.169  -6.928  24.275  0.00  0.00    -0.287 OA
HETATM   17  C   UNK     0      12.329  -4.880  23.560  0.00  0.00     0.085 A 
HETATM   18  C   UNK     0      11.347  -3.936  23.258  0.00  0.00     0.077 A 
BRANCH   9  19
HETATM   19  O   UNK     0       8.373  -5.543  24.668  0.00  0.00    -0.351 OA
HETATM   20  C   UNK     0       7.938  -4.956  25.892  0.00  0.00     0.210 C 
ENDBRANCH   9  19
BRANCH  13  21
HETATM   21  C   UNK     0      10.660  -9.533  26.306  0.00  0.00    -0.002 A 
HETATM   22  C   UNK     0      10.655  -9.555  27.704  0.00  0.00     0.014 A 
HETATM   23  C   UNK     0      10.143 -10.659  28.386  0.00  0.00     0.001 A 
HETATM   24  C   UNK     0       9.636 -11.745  27.674  0.00  0.00     0.000 A 
HETATM   25  C   UNK     0       9.640 -11.728  26.279  0.00  0.00     0.001 A 
HETATM   26  C   UNK     0      10.151 -10.624  25.596  0.00  0.00     0.014 A 
ENDBRANCH  13  21
BRANCH  17  27
HETATM   27  O   UNK     0      13.609  -4.613  23.175  0.00  0.00    -0.360 OA
HETATM   28  H   UNK     0      13.756  -3.657  23.122  0.00  0.00     0.217 HD
ENDBRANCH  17  27
ENDBRANCH   7   8
ENDBRANCH   5   7
BRANCH   6  29
HETATM   29  C   UNK     0       7.683   0.462  25.721  0.00  0.00     0.172 C 
HETATM   30  O   UNK     0       7.408   1.609  26.043  0.00  0.00    -0.648 OA
BRANCH  29  31
HETATM   31  O   UNK     0       7.043  -0.635  26.191  0.00  0.00    -0.774 OA
HETATM   32  H   UNK     0       6.084  -0.473  26.324  0.00  0.00     0.167 HD
ENDBRANCH  29  31
ENDBRANCH   6  29
BRANCH   3  33
HETATM   33  O   UNK     0      10.467  -1.660  21.432  0.00  0.00    -0.388 OA
HETATM   34  H   UNK     0      11.031  -0.919  21.151  0.00  0.00     0.210 HD
ENDBRANCH   3  33
BRANCH   4  35
HETATM   35  O   UNK     0       9.154   2.258  23.852  0.00  0.00    -0.390 OA
HETATM   36  H   UNK     0      10.050   2.195  24.226  0.00  0.00     0.210 HD
ENDBRANCH   4  35
BRANCH   2  37
HETATM   37  O   UNK     0       9.365   1.061  21.211  0.00  0.00    -0.390 OA
HETATM   38  H   UNK     0       9.222   1.999  21.424  0.00  0.00     0.210 HD
ENDBRANCH   2  37
TORSDOF 10
ENDMDL
