DAR.pdb
 OpenBabel02182114013D

 82 86  0  0  1  0  0  0  0  0999 V2000
    8.9610  -10.6800   26.0850 O   0  0  0  0  0  0  0  0  0  0  0  0
    8.9690   -9.4640   26.1670 C   0  0  0  0  0  0  0  0  0  0  0  0
   10.1520   -8.7150   26.7370 C   0  0  0  0  0  0  0  0  0  0  0  0
   10.3180   -7.3320   26.1010 C   0  0  0  0  0  0  0  0  0  0  0  0
    8.9980   -6.5980   26.3550 C   0  0  1  0  0  0  0  0  0  0  0  0
    9.0630   -5.2170   25.8530 N   0  0  0  0  0  0  0  0  0  0  0  0
   10.0240   -4.7990   24.8180 C   0  0  0  0  0  0  0  0  0  0  0  0
   10.0490   -3.3400   25.3100 C   0  0  1  0  0  0  0  0  0  0  0  0
   10.7740   -2.2160   24.6010 C   0  0  0  0  0  0  0  0  0  0  0  0
   11.7680   -2.6410   23.7680 N   0  0  0  0  0  0  0  0  0  0  0  0
   11.6390   -2.4640   22.3150 C   0  0  0  0  0  0  0  0  0  0  0  0
   12.4660   -1.2990   21.7480 C   0  0  0  0  0  0  0  0  0  0  0  0
   11.5060   -0.3360   21.0340 C   0  0  0  0  0  0  0  0  0  0  0  0
   12.1510    0.2110   19.7520 C   0  0  0  0  0  0  0  0  0  0  0  0
   11.0400    0.4740   18.7250 C   0  0  0  0  0  0  0  0  0  0  0  0
   10.4210    1.8590   18.9600 C   0  0  0  0  0  0  0  0  0  0  0  0
   11.5010    2.8560   18.9830 N   0  0  0  0  0  0  0  0  0  0  0  0
   11.4170    3.9220   19.8100 C   0  0  0  0  0  0  0  0  0  0  0  0
   10.4630    4.1070   20.5620 O   0  0  0  0  0  0  0  0  0  0  0  0
   12.5010    4.9440   19.8290 C   0  0  0  0  0  0  0  0  0  0  0  0
   12.9400    5.5310   18.6580 C   0  0  0  0  0  0  0  0  0  0  0  0
   13.9200    6.4900   18.6810 C   0  0  0  0  0  0  0  0  0  0  0  0
   14.5160    6.9250   19.8070 N   0  0  0  0  0  0  0  0  0  0  0  0
   14.0870    6.3520   20.9430 C   0  0  0  0  0  0  0  0  0  0  0  0
   13.1070    5.3760   21.0060 C   0  0  0  0  0  0  0  0  0  0  0  0
   12.7440    4.8270   22.2420 N   0  0  0  0  0  0  0  0  0  0  0  0
   11.9780    5.4220   23.1790 C   0  0  0  0  0  0  0  0  0  0  0  0
   11.4660    6.5260   23.0620 O   0  0  0  0  0  0  0  0  0  0  0  0
   11.7740    4.5670   24.4130 C   0  0  0  0  0  0  0  0  0  0  0  0
   12.9400    4.7330   25.3700 C   0  0  0  0  0  0  0  0  0  0  0  0
   13.4540    5.9850   25.6240 C   0  0  0  0  0  0  0  0  0  0  0  0
   14.5110    6.1350   26.4930 C   0  0  0  0  0  0  0  0  0  0  0  0
   15.0570    5.0330   27.1110 C   0  0  0  0  0  0  0  0  0  0  0  0
   14.5440    3.7800   26.8600 C   0  0  0  0  0  0  0  0  0  0  0  0
   15.2320    2.3860   27.6400 Cl  0  0  0  0  0  0  0  0  0  0  0  0
   13.4860    3.6310   25.9900 C   0  0  0  0  0  0  0  0  0  0  0  0
   10.4200   -0.9470   24.8590 C   0  0  0  0  0  0  0  0  0  0  0  0
    9.3430   -0.6640   25.8090 C   0  0  0  0  0  0  0  0  0  0  0  0
    8.4760   -1.6210   26.1360 C   0  0  0  0  0  0  0  0  0  0  0  0
    8.5740   -3.0050   25.5480 C   0  0  2  0  0  0  0  0  0  0  0  0
    8.2590   -4.2510   26.3250 C   0  0  0  0  0  0  0  0  0  0  0  0
    7.4300   -4.3570   27.2180 O   0  0  0  0  0  0  0  0  0  0  0  0
    7.8230   -7.3460   25.7640 C   0  0  0  0  0  0  0  0  0  0  0  0
    6.8460   -6.7600   25.3290 O   0  0  0  0  0  0  0  0  0  0  0  0
    7.9370   -8.6930   25.7530 N   0  0  0  0  0  0  0  0  0  0  0  0
    8.8560   -6.5590   27.3440 H   0  0  0  0  0  0  0  0  0  0  0  0
   10.6690   -3.3580   26.0940 H   0  0  0  0  0  0  0  0  0  0  0  0
    7.9050   -2.8780   24.8160 H   0  0  0  0  0  0  0  0  0  0  0  0
   10.9820   -9.2490   26.5760 H   0  0  0  0  0  0  0  0  0  0  0  0
    9.9920   -8.5850   27.7160 H   0  0  0  0  0  0  0  0  0  0  0  0
   10.4910   -7.4170   25.1190 H   0  0  0  0  0  0  0  0  0  0  0  0
   11.0960   -6.8380   26.4900 H   0  0  0  0  0  0  0  0  0  0  0  0
    9.6760   -4.9000   23.8860 H   0  0  0  0  0  0  0  0  0  0  0  0
   10.8900   -5.2930   24.7380 H   0  0  0  0  0  0  0  0  0  0  0  0
   12.3200   -3.2630   24.0590 H   0  0  0  0  0  0  0  0  0  0  0  0
   10.6760   -2.3010   22.1020 H   0  0  0  0  0  0  0  0  0  0  0  0
   11.9910   -3.2990   21.8910 H   0  0  0  0  0  0  0  0  0  0  0  0
   13.1440   -1.6470   21.1010 H   0  0  0  0  0  0  0  0  0  0  0  0
   12.9470   -0.8250   22.4850 H   0  0  0  0  0  0  0  0  0  0  0  0
   11.2860    0.4250   21.6450 H   0  0  0  0  0  0  0  0  0  0  0  0
   10.6720   -0.8300   20.7890 H   0  0  0  0  0  0  0  0  0  0  0  0
   12.8010   -0.4560   19.3880 H   0  0  0  0  0  0  0  0  0  0  0  0
   12.6420    1.0600   19.9500 H   0  0  0  0  0  0  0  0  0  0  0  0
   10.3330   -0.2270   18.8140 H   0  0  0  0  0  0  0  0  0  0  0  0
   11.4320    0.4440   17.8050 H   0  0  0  0  0  0  0  0  0  0  0  0
    9.9310    1.8680   19.8310 H   0  0  0  0  0  0  0  0  0  0  0  0
    9.7740    2.0740   18.2270 H   0  0  0  0  0  0  0  0  0  0  0  0
   12.2060    2.7400   18.4710 H   0  0  0  0  0  0  0  0  0  0  0  0
   12.5380    5.2550   17.7850 H   0  0  0  0  0  0  0  0  0  0  0  0
   14.2100    6.8880   17.8100 H   0  0  0  0  0  0  0  0  0  0  0  0
   14.5040    6.6490   21.8020 H   0  0  0  0  0  0  0  0  0  0  0  0
   13.0430    4.0200   22.4170 H   0  0  0  0  0  0  0  0  0  0  0  0
   11.7000    3.6070   24.1430 H   0  0  0  0  0  0  0  0  0  0  0  0
   10.9340    4.8570   24.8740 H   0  0  0  0  0  0  0  0  0  0  0  0
   13.0580    6.7870   25.1770 H   0  0  0  0  0  0  0  0  0  0  0  0
   14.8820    7.0460   26.6750 H   0  0  0  0  0  0  0  0  0  0  0  0
   15.8250    5.1430   27.7410 H   0  0  0  0  0  0  0  0  0  0  0  0
   13.1130    2.7210   25.8100 H   0  0  0  0  0  0  0  0  0  0  0  0
   10.8930   -0.1930   24.4010 H   0  0  0  0  0  0  0  0  0  0  0  0
    9.2580    0.2470   26.2130 H   0  0  0  0  0  0  0  0  0  0  0  0
    7.7440   -1.4170   26.7850 H   0  0  0  0  0  0  0  0  0  0  0  0
    7.2480   -9.1290   25.4200 H   0  0  0  0  0  0  0  0  0  0  0  0
  1  2  2  0  0  0  0
  2  3  1  0  0  0  0
  2 45  1  0  0  0  0
  3  4  1  0  0  0  0
  3 49  1  0  0  0  0
  3 50  1  0  0  0  0
  4  5  1  0  0  0  0
  4 51  1  0  0  0  0
  4 52  1  0  0  0  0
  5  6  1  0  0  0  0
  5 43  1  0  0  0  0
  5 46  1  1  0  0  0
  6  7  1  0  0  0  0
  6 41  1  0  0  0  0
  7  8  1  0  0  0  0
  7 53  1  0  0  0  0
  7 54  1  0  0  0  0
  8  9  1  0  0  0  0
  8 40  1  1  0  0  0
  8 47  1  0  0  0  0
  9 10  1  0  0  0  0
  9 37  2  0  0  0  0
 10 11  1  0  0  0  0
 10 55  1  0  0  0  0
 11 12  1  0  0  0  0
 11 56  1  0  0  0  0
 11 57  1  0  0  0  0
 12 13  1  0  0  0  0
 12 58  1  0  0  0  0
 12 59  1  0  0  0  0
 13 14  1  0  0  0  0
 13 60  1  0  0  0  0
 13 61  1  0  0  0  0
 14 15  1  0  0  0  0
 14 62  1  0  0  0  0
 14 63  1  0  0  0  0
 15 16  1  0  0  0  0
 15 64  1  0  0  0  0
 15 65  1  0  0  0  0
 16 17  1  0  0  0  0
 16 66  1  0  0  0  0
 16 67  1  0  0  0  0
 17 18  1  0  0  0  0
 17 68  1  0  0  0  0
 18 19  2  0  0  0  0
 18 20  1  0  0  0  0
 20 21  2  0  0  0  0
 20 25  1  0  0  0  0
 21 22  1  0  0  0  0
 21 69  1  0  0  0  0
 22 23  2  0  0  0  0
 22 70  1  0  0  0  0
 23 24  1  0  0  0  0
 24 25  2  0  0  0  0
 24 71  1  0  0  0  0
 25 26  1  0  0  0  0
 26 27  1  0  0  0  0
 26 72  1  0  0  0  0
 27 28  2  0  0  0  0
 27 29  1  0  0  0  0
 29 30  1  0  0  0  0
 29 73  1  0  0  0  0
 29 74  1  0  0  0  0
 30 31  2  0  0  0  0
 30 36  1  0  0  0  0
 31 32  1  0  0  0  0
 31 75  1  0  0  0  0
 32 33  2  0  0  0  0
 32 76  1  0  0  0  0
 33 34  1  0  0  0  0
 33 77  1  0  0  0  0
 34 35  1  0  0  0  0
 34 36  2  0  0  0  0
 36 78  1  0  0  0  0
 37 38  1  0  0  0  0
 37 79  1  0  0  0  0
 38 39  2  0  0  0  0
 38 80  1  0  0  0  0
 39 40  1  0  0  0  0
 39 81  1  0  0  0  0
 40 41  1  0  0  0  0
 40 48  1  6  0  0  0
 41 42  2  0  0  0  0
 43 44  2  0  0  0  0
 43 45  1  0  0  0  0
 45 82  1  0  0  0  0
M  END
>  <HEADER>
                                                                          

>  <TITLE>
    DAR-DIA-9e4459de-1_D                                                  

>  <MASTER>
        0    0    0    0    0    0    0    0   82    0   82    0          

$$$$
