DAR.pdb
  RxDock  02242112523D
librxdock.so/0.1.0
 49 53  0  0  0  0  0  0  0  0999 V2000
  -52.7027    2.2141   18.3952 O   0  0  0  0  0  0
  -51.5827    1.7617   18.5576 C   0  0  0  0  0  0
  -51.3557    0.3025   18.8807 C   0  0  0  0  0  0
  -50.0256   -0.2104   18.3216 C   0  0  0  0  0  0
  -48.9456    0.6872   18.9329 C   0  0  0  0  0  0
  -47.6040    0.2407   18.5275 N   0  0  0  0  0  0
  -47.2458   -0.0007   17.1193 C   0  0  0  0  0  0
  -46.1588   -1.0290   17.4837 C   0  0  0  0  0  0
  -45.2129   -1.6571   16.4825 C   0  0  0  0  0  0
  -45.6650   -1.6134   15.1955 N   0  0  0  0  0  0
  -46.1970   -2.8262   14.5589 C   0  0  0  0  0  0
  -47.6626   -2.7092   14.1105 C   0  0  0  0  0  0
  -48.4251   -1.9094   15.1771 C   0  0  0  0  0  0
  -49.4293   -2.8126   15.9081 C   0  0  0  0  0  0
  -50.8346   -2.2207   15.7266 C   0  0  0  0  0  0
  -51.3430   -2.4944   14.3042 C   0  0  0  0  0  0
  -52.4856   -3.4158   14.3853 N   0  0  0  0  0  0
  -52.3656   -4.5809   15.0602 C   0  0  0  0  0  0
  -51.3273   -4.9195   15.6234 O   0  0  0  0  0  0
  -53.5147   -5.5262   15.1351 C   0  0  0  0  0  0
  -54.4554   -5.5773   14.1247 C   0  0  0  0  0  0
  -55.4979   -6.4662   14.1839 C   0  0  0  0  0  0
  -55.6860   -7.3337   15.1960 N   0  0  0  0  0  0
  -54.7700   -7.2809   16.1763 C   0  0  0  0  0  0
  -53.6921   -6.4122   16.1947 C   0  0  0  0  0  0
  -52.8022   -6.4233   17.2759 N   0  0  0  0  0  0
  -52.3465   -7.5194   17.9158 C   0  0  0  0  0  0
  -52.6308   -8.6699   17.6156 O   0  0  0  0  0  0
  -51.3990   -7.1951   19.0527 C   0  0  0  0  0  0
  -49.9635   -7.1930   18.5604 C   0  0  0  0  0  0
  -49.2669   -8.3760   18.4532 C   0  0  0  0  0  0
  -47.9652   -8.3736   18.0056 C   0  0  0  0  0  0
  -47.3562   -7.1876   17.6634 C   0  0  0  0  0  0
  -48.0509   -6.0033   17.7681 C   0  0  0  0  0  0
  -47.2836   -4.5035   17.3359 Cl  0  0  0  0  0  0
  -49.3538   -6.0069   18.2163 C   0  0  0  0  0  0
  -44.0714   -2.2101   16.9222 C   0  0  0  0  0  0
  -43.7514   -2.1956   18.3505 C   0  0  0  0  0  0
  -44.3709   -1.3403   19.1623 C   0  0  0  0  0  0
  -45.4057   -0.3747   18.6452 C   0  0  0  0  0  0
  -46.6314    0.0093   19.4235 C   0  0  0  0  0  0
  -46.7202    0.0900   20.6407 O   0  0  0  0  0  0
  -49.1712    2.1429   18.5876 C   0  0  0  0  0  0
  -48.2399    2.9162   18.4394 O   0  0  0  0  0  0
  -50.4639    2.5159   18.4558 N   0  0  0  0  0  0
  -45.3727   -0.9684   14.6713 H   0  0  0  0  0  0
  -53.2479   -3.1916   14.0096 H   0  0  0  0  0  0
  -52.5156   -5.6423   17.5575 H   0  0  0  0  0  0
  -50.5958    3.3659   18.2666 H   0  0  0  0  0  0
  1  2  2  0  0  0
  2  3  1  0  0  0
  2 45  1  0  0  0
  3  4  1  0  0  0
  4  5  1  0  0  0
  5  6  1  0  0  0
  5 43  1  0  0  0
  6  7  1  0  0  0
  6 41  1  0  0  0
  7  8  1  0  0  0
  8  9  1  0  0  0
  8 40  1  0  0  0
  9 10  1  0  0  0
  9 37  2  0  0  0
 10 11  1  0  0  0
 10 46  1  0  0  0
 11 12  1  0  0  0
 12 13  1  0  0  0
 13 14  1  0  0  0
 14 15  1  0  0  0
 15 16  1  0  0  0
 16 17  1  0  0  0
 17 18  1  0  0  0
 17 47  1  0  0  0
 18 19  2  0  0  0
 18 20  1  0  0  0
 20 21  2  0  0  0
 20 25  1  0  0  0
 21 22  1  0  0  0
 22 23  2  0  0  0
 23 24  1  0  0  0
 24 25  2  0  0  0
 25 26  1  0  0  0
 26 27  1  0  0  0
 26 48  1  0  0  0
 27 28  2  0  0  0
 27 29  1  0  0  0
 29 30  1  0  0  0
 30 31  2  0  0  0
 30 36  1  0  0  0
 31 32  1  0  0  0
 32 33  2  0  0  0
 33 34  1  0  0  0
 34 35  1  0  0  0
 34 36  2  0  0  0
 37 38  1  0  0  0
 38 39  2  0  0  0
 39 40  1  0  0  0
 40 41  1  0  0  0
 41 42  2  0  0  0
 43 44  2  0  0  0
 43 45  1  0  0  0
 45 49  1  0  0  0
M  END
>  <CHROM.0>
-70.64021855,-67.28472801,74.23019654

>  <CHROM.1>
51.07007564,-104.65197855,119.45089771,-38.61402142,-111.84957185,-121.36948324
75.16975298,113.41465651,-52.78706302,28.62535495,-140.24828470,-91.83151645
-82.83683750,-49.52592400,-3.12709258,17.11983629,0.87616468,-0.19281781
0.10780633

>  <HEADER>
                                                                          

>  <MASTER>
        0    0    0    0    0    0    0    0   82    0   82    0          

>  <Name>
DAR.pdb

>  <RI>
-8.44819e+08

>  <Rbt.Current_Directory>
/root/miniconda3/envs/rdock/share/rxdock-2013.1.1_148c5bd1-0/data/ligands/prepped_ligands/DAR

>  <Rbt.Executable>
rbdock/0.1.0

>  <Rbt.Library>
librxdock.so/0.1.0

>  <Rbt.Parameter_File>
/root/miniconda3/envs/rdock/share/rxdock-2013.1.1_148c5bd1-0/data/scripts/dock.prm

>  <Rbt.Receptor>
def.prm

>  <SCORE>
-26.7241

>  <SCORE.INTER>
-22.6263

>  <SCORE.INTER.CONST>
1

>  <SCORE.INTER.POLAR>
-1.86263

>  <SCORE.INTER.REPUL>
0

>  <SCORE.INTER.ROT>
13

>  <SCORE.INTER.VDW>
-34.6933

>  <SCORE.INTER.norm>
-0.502806

>  <SCORE.INTRA>
-4.84155

>  <SCORE.INTRA.DIHEDRAL>
-7.72338

>  <SCORE.INTRA.DIHEDRAL.0>
43.3429

>  <SCORE.INTRA.POLAR>
0

>  <SCORE.INTRA.POLAR.0>
0

>  <SCORE.INTRA.REPUL>
0

>  <SCORE.INTRA.REPUL.0>
0

>  <SCORE.INTRA.VDW>
-0.97986

>  <SCORE.INTRA.VDW.0>
-3.00727

>  <SCORE.INTRA.norm>
-0.10759

>  <SCORE.RESTR>
1.22856

>  <SCORE.RESTR.CAVITY>
1.22856

>  <SCORE.RESTR.norm>
0.0273014

>  <SCORE.SYSTEM>
-0.484905

>  <SCORE.SYSTEM.CONST>
0

>  <SCORE.SYSTEM.DIHEDRAL>
1.00492

>  <SCORE.SYSTEM.POLAR>
-0.018661

>  <SCORE.SYSTEM.VDW>
-0.92392

>  <SCORE.SYSTEM.norm>
-0.0107757

>  <SCORE.heavy>
45

>  <SCORE.norm>
-0.59387

>  <TITLE>
    DAR-DIA-9e4459de-1_D                                                  

$$$$
DAR.pdb
  RxDock  02242112523D
librxdock.so/0.1.0
 49 53  0  0  0  0  0  0  0  0999 V2000
  -47.5379    0.1386   13.3426 O   0  0  0  0  0  0
  -47.9876   -0.8063   13.9675 C   0  0  0  0  0  0
  -47.9454   -0.8507   15.4780 C   0  0  0  0  0  0
  -49.1286   -1.6262   16.0640 C   0  0  0  0  0  0
  -49.0532   -3.0258   15.4468 C   0  0  0  0  0  0
  -50.1032   -3.8967   15.9967 N   0  0  0  0  0  0
  -49.8043   -5.0065   16.9179 C   0  0  0  0  0  0
  -51.0483   -5.8078   16.4915 C   0  0  0  0  0  0
  -51.4983   -7.0940   17.1510 C   0  0  0  0  0  0
  -50.5069   -7.7404   17.8307 N   0  0  0  0  0  0
  -50.4136   -7.6183   19.2920 C   0  0  0  0  0  0
  -50.1897   -6.1812   19.7895 C   0  0  0  0  0  0
  -51.3330   -5.8262   20.7515 C   0  0  0  0  0  0
  -52.6438   -5.6278   19.9760 C   0  0  0  0  0  0
  -52.5361   -4.3265   19.1678 C   0  0  0  0  0  0
  -52.8245   -3.1190   20.0708 C   0  0  0  0  0  0
  -52.5537   -1.8908   19.3097 N   0  0  0  0  0  0
  -51.8074   -0.9073   19.8602 C   0  0  0  0  0  0
  -51.3315   -0.9866   20.9903 O   0  0  0  0  0  0
  -51.5401    0.3462   19.1005 C   0  0  0  0  0  0
  -52.5511    1.2565   18.8600 C   0  0  0  0  0  0
  -52.2967    2.4215   18.1827 C   0  0  0  0  0  0
  -51.0831    2.7643   17.7116 N   0  0  0  0  0  0
  -50.1032    1.8771   17.9470 C   0  0  0  0  0  0
  -50.2767    0.6786   18.6181 C   0  0  0  0  0  0
  -49.1914   -0.1884   18.7950 N   0  0  0  0  0  0
  -47.9166    0.0525   18.4267 C   0  0  0  0  0  0
  -47.5255    1.0875   17.9066 O   0  0  0  0  0  0
  -46.9765   -1.0906   18.7507 C   0  0  0  0  0  0
  -45.5369   -0.6105   18.7396 C   0  0  0  0  0  0
  -44.9718   -0.1444   17.5736 C   0  0  0  0  0  0
  -43.6662    0.2919   17.5645 C   0  0  0  0  0  0
  -42.9219    0.2635   18.7219 C   0  0  0  0  0  0
  -43.4849   -0.2007   19.8896 C   0  0  0  0  0  0
  -42.5465   -0.2372   21.3535 Cl  0  0  0  0  0  0
  -44.7918   -0.6372   19.8976 C   0  0  0  0  0  0
  -52.7699   -7.4955   16.9965 C   0  0  0  0  0  0
  -53.7026   -6.6915   16.2052 C   0  0  0  0  0  0
  -53.4279   -5.4133   15.9497 C   0  0  0  0  0  0
  -52.1674   -4.7632   16.4588 C   0  0  0  0  0  0
  -51.3970   -3.7402   15.6743 C   0  0  0  0  0  0
  -51.8650   -2.9261   14.8907 O   0  0  0  0  0  0
  -49.1156   -2.9715   13.9359 C   0  0  0  0  0  0
  -49.6356   -3.8624   13.2855 O   0  0  0  0  0  0
  -48.5613   -1.8761   13.3699 N   0  0  0  0  0  0
  -49.7797   -7.9711   17.3901 H   0  0  0  0  0  0
  -52.8637   -1.8137   18.4908 H   0  0  0  0  0  0
  -49.3614   -0.9570   19.1844 H   0  0  0  0  0  0
  -48.5869   -1.8501   12.4899 H   0  0  0  0  0  0
  1  2  2  0  0  0
  2  3  1  0  0  0
  2 45  1  0  0  0
  3  4  1  0  0  0
  4  5  1  0  0  0
  5  6  1  0  0  0
  5 43  1  0  0  0
  6  7  1  0  0  0
  6 41  1  0  0  0
  7  8  1  0  0  0
  8  9  1  0  0  0
  8 40  1  0  0  0
  9 10  1  0  0  0
  9 37  2  0  0  0
 10 11  1  0  0  0
 10 46  1  0  0  0
 11 12  1  0  0  0
 12 13  1  0  0  0
 13 14  1  0  0  0
 14 15  1  0  0  0
 15 16  1  0  0  0
 16 17  1  0  0  0
 17 18  1  0  0  0
 17 47  1  0  0  0
 18 19  2  0  0  0
 18 20  1  0  0  0
 20 21  2  0  0  0
 20 25  1  0  0  0
 21 22  1  0  0  0
 22 23  2  0  0  0
 23 24  1  0  0  0
 24 25  2  0  0  0
 25 26  1  0  0  0
 26 27  1  0  0  0
 26 48  1  0  0  0
 27 28  2  0  0  0
 27 29  1  0  0  0
 29 30  1  0  0  0
 30 31  2  0  0  0
 30 36  1  0  0  0
 31 32  1  0  0  0
 32 33  2  0  0  0
 33 34  1  0  0  0
 34 35  1  0  0  0
 34 36  2  0  0  0
 37 38  1  0  0  0
 38 39  2  0  0  0
 39 40  1  0  0  0
 40 41  1  0  0  0
 41 42  2  0  0  0
 43 44  2  0  0  0
 43 45  1  0  0  0
 45 49  1  0  0  0
M  END
>  <CHROM.0>
64.18532146,-47.81901639,-125.56367539

>  <CHROM.1>
-108.94089090,100.27493879,-61.12669229,122.64479748,-72.00555219,-70.55777623
-80.73386120,173.20752302,-131.96324599,70.04977893,-176.80932432,-161.68711546
-63.86574274,-49.34544255,-2.25936666,17.72046443,0.52218209,-0.50200452
-0.43474268

>  <HEADER>
                                                                          

>  <MASTER>
        0    0    0    0    0    0    0    0   82    0   82    0          

>  <Name>
DAR.pdb

>  <RI>
-8.44819e+08

>  <Rbt.Current_Directory>
/root/miniconda3/envs/rdock/share/rxdock-2013.1.1_148c5bd1-0/data/ligands/prepped_ligands/DAR

>  <Rbt.Executable>
rbdock/0.1.0

>  <Rbt.Library>
librxdock.so/0.1.0

>  <Rbt.Parameter_File>
/root/miniconda3/envs/rdock/share/rxdock-2013.1.1_148c5bd1-0/data/scripts/dock.prm

>  <Rbt.Receptor>
def.prm

>  <SCORE>
-14.0025

>  <SCORE.INTER>
-9.50645

>  <SCORE.INTER.CONST>
1

>  <SCORE.INTER.POLAR>
-1.46815

>  <SCORE.INTER.REPUL>
0.0686301

>  <SCORE.INTER.ROT>
13

>  <SCORE.INTER.VDW>
-23.2579

>  <SCORE.INTER.norm>
-0.211254

>  <SCORE.INTRA>
-8.64098

>  <SCORE.INTRA.DIHEDRAL>
-16.7311

>  <SCORE.INTRA.DIHEDRAL.0>
43.3429

>  <SCORE.INTRA.POLAR>
0

>  <SCORE.INTRA.POLAR.0>
0

>  <SCORE.INTRA.REPUL>
0

>  <SCORE.INTRA.REPUL.0>
0

>  <SCORE.INTRA.VDW>
-0.27541

>  <SCORE.INTRA.VDW.0>
-3.00727

>  <SCORE.INTRA.norm>
-0.192022

>  <SCORE.RESTR>
2.22612

>  <SCORE.RESTR.CAVITY>
2.22612

>  <SCORE.RESTR.norm>
0.0494694

>  <SCORE.SYSTEM>
1.91882

>  <SCORE.SYSTEM.CONST>
0

>  <SCORE.SYSTEM.DIHEDRAL>
4.26737

>  <SCORE.SYSTEM.VDW>
-0.214867

>  <SCORE.SYSTEM.norm>
0.0426404

>  <SCORE.heavy>
45

>  <SCORE.norm>
-0.311166

>  <TITLE>
    DAR-DIA-9e4459de-1_D                                                  

$$$$
DAR.pdb
  RxDock  02242112523D
librxdock.so/0.1.0
 49 53  0  0  0  0  0  0  0  0999 V2000
  -47.6200  -10.6703   18.5537 O   0  0  0  0  0  0
  -48.5751   -9.9146   18.6004 C   0  0  0  0  0  0
  -49.5093   -9.8892   19.7887 C   0  0  0  0  0  0
  -50.1046   -8.4980   20.0228 C   0  0  0  0  0  0
  -50.8225   -8.1301   18.7209 C   0  0  0  0  0  0
  -51.5068   -6.8345   18.8496 N   0  0  0  0  0  0
  -52.0126   -6.0910   17.6830 C   0  0  0  0  0  0
  -51.8862   -4.7286   18.3897 C   0  0  0  0  0  0
  -52.3754   -3.4199   17.8068 C   0  0  0  0  0  0
  -52.5174   -3.4405   16.4496 N   0  0  0  0  0  0
  -51.4530   -3.9996   15.6048 C   0  0  0  0  0  0
  -50.3477   -2.9956   15.2400 C   0  0  0  0  0  0
  -50.7813   -2.2502   13.9691 C   0  0  0  0  0  0
  -49.7159   -1.2219   13.5613 C   0  0  0  0  0  0
  -49.8926    0.0302   14.4327 C   0  0  0  0  0  0
  -49.0733   -0.1054   15.7238 C   0  0  0  0  0  0
  -47.6993   -0.4879   15.3677 N   0  0  0  0  0  0
  -46.9410   -1.1764   16.2499 C   0  0  0  0  0  0
  -47.3483   -1.5078   17.3607 O   0  0  0  0  0  0
  -45.5428   -1.5555   15.9016 C   0  0  0  0  0  0
  -45.2313   -2.0281   14.6414 C   0  0  0  0  0  0
  -43.9393   -2.3521   14.3155 C   0  0  0  0  0  0
  -42.9019   -2.2410   15.1662 N   0  0  0  0  0  0
  -43.2085   -1.7817   16.3902 C   0  0  0  0  0  0
  -44.4852   -1.4366   16.7997 C   0  0  0  0  0  0
  -44.7030   -0.9851   18.1072 N   0  0  0  0  0  0
  -44.1866   -1.5270   19.2290 C   0  0  0  0  0  0
  -43.4244   -2.4825   19.2539 O   0  0  0  0  0  0
  -44.6195   -0.8098   20.4913 C   0  0  0  0  0  0
  -45.8824   -0.0076   20.2371 C   0  0  0  0  0  0
  -45.8017    1.3345   19.9397 C   0  0  0  0  0  0
  -46.9475    2.0614   19.7081 C   0  0  0  0  0  0
  -48.1779    1.4478   19.7731 C   0  0  0  0  0  0
  -48.2615    0.1055   20.0688 C   0  0  0  0  0  0
  -49.8150   -0.6721   20.1510 Cl  0  0  0  0  0  0
  -47.1139   -0.6210   20.3004 C   0  0  0  0  0  0
  -52.5910   -2.3805   18.6286 C   0  0  0  0  0  0
  -52.3597   -2.5216   20.0670 C   0  0  0  0  0  0
  -52.2989   -3.7343   20.6151 C   0  0  0  0  0  0
  -52.4635   -4.9812   19.7852 C   0  0  0  0  0  0
  -51.6936   -6.2450   20.0412 C   0  0  0  0  0  0
  -51.3102   -6.6512   21.1293 O   0  0  0  0  0  0
  -49.8749   -8.1397   17.5413 C   0  0  0  0  0  0
  -50.0189   -7.3781   16.5999 O   0  0  0  0  0  0
  -48.8703   -9.0417   17.6096 N   0  0  0  0  0  0
  -53.0807   -2.8731   16.0795 H   0  0  0  0  0  0
  -47.3869   -0.2826   14.5721 H   0  0  0  0  0  0
  -45.2221   -0.2827   18.1995 H   0  0  0  0  0  0
  -48.3257   -9.0556   16.9176 H   0  0  0  0  0  0
  1  2  2  0  0  0
  2  3  1  0  0  0
  2 45  1  0  0  0
  3  4  1  0  0  0
  4  5  1  0  0  0
  5  6  1  0  0  0
  5 43  1  0  0  0
  6  7  1  0  0  0
  6 41  1  0  0  0
  7  8  1  0  0  0
  8  9  1  0  0  0
  8 40  1  0  0  0
  9 10  1  0  0  0
  9 37  2  0  0  0
 10 11  1  0  0  0
 10 46  1  0  0  0
 11 12  1  0  0  0
 12 13  1  0  0  0
 13 14  1  0  0  0
 14 15  1  0  0  0
 15 16  1  0  0  0
 16 17  1  0  0  0
 17 18  1  0  0  0
 17 47  1  0  0  0
 18 19  2  0  0  0
 18 20  1  0  0  0
 20 21  2  0  0  0
 20 25  1  0  0  0
 21 22  1  0  0  0
 22 23  2  0  0  0
 23 24  1  0  0  0
 24 25  2  0  0  0
 25 26  1  0  0  0
 26 27  1  0  0  0
 26 48  1  0  0  0
 27 28  2  0  0  0
 27 29  1  0  0  0
 29 30  1  0  0  0
 30 31  2  0  0  0
 30 36  1  0  0  0
 31 32  1  0  0  0
 32 33  2  0  0  0
 33 34  1  0  0  0
 34 35  1  0  0  0
 34 36  2  0  0  0
 37 38  1  0  0  0
 38 39  2  0  0  0
 39 40  1  0  0  0
 40 41  1  0  0  0
 41 42  2  0  0  0
 43 44  2  0  0  0
 43 45  1  0  0  0
 45 49  1  0  0  0
M  END
>  <CHROM.0>
-47.03735209,-179.42645876,123.34581090

>  <CHROM.1>
165.74138897,-46.54814528,-86.08314855,-87.33513308,179.57708960,-80.20008283
88.66790013,50.48252982,-153.37851506,-41.90938595,135.08129147,20.43749333
-96.34508535,-48.63054107,-3.30212473,17.93891219,-2.19994734,0.18953089
-0.02656717

>  <HEADER>
                                                                          

>  <MASTER>
        0    0    0    0    0    0    0    0   82    0   82    0          

>  <Name>
DAR.pdb

>  <RI>
-8.44819e+08

>  <Rbt.Current_Directory>
/root/miniconda3/envs/rdock/share/rxdock-2013.1.1_148c5bd1-0/data/ligands/prepped_ligands/DAR

>  <Rbt.Executable>
rbdock/0.1.0

>  <Rbt.Library>
librxdock.so/0.1.0

>  <Rbt.Parameter_File>
/root/miniconda3/envs/rdock/share/rxdock-2013.1.1_148c5bd1-0/data/scripts/dock.prm

>  <Rbt.Receptor>
def.prm

>  <SCORE>
-7.7343

>  <SCORE.INTER>
-10.3054

>  <SCORE.INTER.CONST>
1

>  <SCORE.INTER.POLAR>
-0.76549

>  <SCORE.INTER.REPUL>
0.464269

>  <SCORE.INTER.ROT>
13

>  <SCORE.INTER.VDW>
-28.4241

>  <SCORE.INTER.norm>
-0.229008

>  <SCORE.INTRA>
-0.0362641

>  <SCORE.INTRA.DIHEDRAL>
-17.3956

>  <SCORE.INTRA.DIHEDRAL.0>
43.3429

>  <SCORE.INTRA.POLAR>
0

>  <SCORE.INTRA.POLAR.0>
0

>  <SCORE.INTRA.REPUL>
0

>  <SCORE.INTRA.REPUL.0>
0

>  <SCORE.INTRA.VDW>
8.66155

>  <SCORE.INTRA.VDW.0>
-3.00727

>  <SCORE.INTRA.norm>
-0.000805868

>  <SCORE.RESTR>
0.885394

>  <SCORE.RESTR.CAVITY>
0.885394

>  <SCORE.RESTR.norm>
0.0196754

>  <SCORE.SYSTEM>
1.72195

>  <SCORE.SYSTEM.CONST>
0

>  <SCORE.SYSTEM.DIHEDRAL>
3.96681

>  <SCORE.SYSTEM.VDW>
-0.26145

>  <SCORE.SYSTEM.norm>
0.0382656

>  <SCORE.heavy>
45

>  <SCORE.norm>
-0.171873

>  <TITLE>
    DAR-DIA-9e4459de-1_D                                                  

$$$$
DAR.pdb
  RxDock  02242112533D
librxdock.so/0.1.0
 49 53  0  0  0  0  0  0  0  0999 V2000
  -41.7290    1.5836   21.8562 O   0  0  0  0  0  0
  -42.2558    0.8995   20.9960 C   0  0  0  0  0  0
  -42.6714   -0.5294   21.2628 C   0  0  0  0  0  0
  -43.8977   -0.9349   20.4404 C   0  0  0  0  0  0
  -43.5058   -0.7154   18.9762 C   0  0  0  0  0  0
  -44.5859   -1.1469   18.0758 N   0  0  0  0  0  0
  -45.7045   -0.2627   17.7064 C   0  0  0  0  0  0
  -46.6647   -1.4406   17.4573 C   0  0  0  0  0  0
  -48.0605   -1.2942   16.8900 C   0  0  0  0  0  0
  -48.5863   -0.0434   17.0370 N   0  0  0  0  0  0
  -50.0192    0.1266   17.3149 C   0  0  0  0  0  0
  -50.3242    1.0783   18.4827 C   0  0  0  0  0  0
  -50.9945    0.2638   19.5990 C   0  0  0  0  0  0
  -50.1226   -0.9418   19.9800 C   0  0  0  0  0  0
  -50.6879   -1.5609   21.2666 C   0  0  0  0  0  0
  -52.0915   -2.1263   21.0080 C   0  0  0  0  0  0
  -51.9735   -3.5675   20.7434 N   0  0  0  0  0  0
  -52.0122   -4.0250   19.4720 C   0  0  0  0  0  0
  -52.1440   -3.2827   18.5017 O   0  0  0  0  0  0
  -51.9073   -5.4855   19.1967 C   0  0  0  0  0  0
  -51.6825   -6.3839   20.2217 C   0  0  0  0  0  0
  -51.6119   -7.7299   19.9691 C   0  0  0  0  0  0
  -51.7508   -8.2704   18.7440 N   0  0  0  0  0  0
  -51.9687   -7.3941   17.7502 C   0  0  0  0  0  0
  -52.0498   -6.0224   17.9197 C   0  0  0  0  0  0
  -52.2612   -5.1914   16.8126 N   0  0  0  0  0  0
  -51.4964   -5.1399   15.7030 C   0  0  0  0  0  0
  -50.5171   -5.8426   15.4987 O   0  0  0  0  0  0
  -51.9874   -4.1288   14.6872 C   0  0  0  0  0  0
  -50.8278   -3.3058   14.1571 C   0  0  0  0  0  0
  -49.7187   -3.9307   13.6319 C   0  0  0  0  0  0
  -48.6676   -3.1836   13.1503 C   0  0  0  0  0  0
  -48.7227   -1.8090   13.1922 C   0  0  0  0  0  0
  -49.8312   -1.1815   13.7155 C   0  0  0  0  0  0
  -49.9033    0.5555   13.7691 Cl  0  0  0  0  0  0
  -50.8827   -1.9302   14.1973 C   0  0  0  0  0  0
  -48.6564   -2.3645   16.3406 C   0  0  0  0  0  0
  -47.9563   -3.6489   16.2896 C   0  0  0  0  0  0
  -46.6328   -3.6913   16.4351 C   0  0  0  0  0  0
  -45.8254   -2.4379   16.6538 C   0  0  0  0  0  0
  -44.6230   -2.3824   17.5520 C   0  0  0  0  0  0
  -43.8351   -3.2936   17.7638 O   0  0  0  0  0  0
  -43.1102    0.7216   18.7157 C   0  0  0  0  0  0
  -43.3207    1.2574   17.6406 O   0  0  0  0  0  0
  -42.5164    1.3581   19.7500 N   0  0  0  0  0  0
  -48.1527    0.6367   16.6826 H   0  0  0  0  0  0
  -51.8578   -4.1214   21.4160 H   0  0  0  0  0  0
  -52.9586   -4.6587   16.8481 H   0  0  0  0  0  0
  -42.2753    2.1908   19.5945 H   0  0  0  0  0  0
  1  2  2  0  0  0
  2  3  1  0  0  0
  2 45  1  0  0  0
  3  4  1  0  0  0
  4  5  1  0  0  0
  5  6  1  0  0  0
  5 43  1  0  0  0
  6  7  1  0  0  0
  6 41  1  0  0  0
  7  8  1  0  0  0
  8  9  1  0  0  0
  8 40  1  0  0  0
  9 10  1  0  0  0
  9 37  2  0  0  0
 10 11  1  0  0  0
 10 46  1  0  0  0
 11 12  1  0  0  0
 12 13  1  0  0  0
 13 14  1  0  0  0
 14 15  1  0  0  0
 15 16  1  0  0  0
 16 17  1  0  0  0
 17 18  1  0  0  0
 17 47  1  0  0  0
 18 19  2  0  0  0
 18 20  1  0  0  0
 20 21  2  0  0  0
 20 25  1  0  0  0
 21 22  1  0  0  0
 22 23  2  0  0  0
 23 24  1  0  0  0
 24 25  2  0  0  0
 25 26  1  0  0  0
 26 27  1  0  0  0
 26 48  1  0  0  0
 27 28  2  0  0  0
 27 29  1  0  0  0
 29 30  1  0  0  0
 30 31  2  0  0  0
 30 36  1  0  0  0
 31 32  1  0  0  0
 32 33  2  0  0  0
 33 34  1  0  0  0
 34 35  1  0  0  0
 34 36  2  0  0  0
 37 38  1  0  0  0
 38 39  2  0  0  0
 39 40  1  0  0  0
 40 41  1  0  0  0
 41 42  2  0  0  0
 43 44  2  0  0  0
 43 45  1  0  0  0
 45 49  1  0  0  0
M  END
>  <CHROM.0>
-161.47871585,-175.42812255,56.29941256

>  <CHROM.1>
85.73572996,-143.59498679,131.26284037,-115.59283819,54.40795951,169.12860800
64.74569664,96.81069029,-100.56416711,-4.23276401,123.24175626,134.53243078
53.39169933,-48.45953016,-2.26888368,17.61566795,0.03897647,0.58997655,1.89587183

>  <HEADER>
                                                                          

>  <MASTER>
        0    0    0    0    0    0    0    0   82    0   82    0          

>  <Name>
DAR.pdb

>  <RI>
-8.44819e+08

>  <Rbt.Current_Directory>
/root/miniconda3/envs/rdock/share/rxdock-2013.1.1_148c5bd1-0/data/ligands/prepped_ligands/DAR

>  <Rbt.Executable>
rbdock/0.1.0

>  <Rbt.Library>
librxdock.so/0.1.0

>  <Rbt.Parameter_File>
/root/miniconda3/envs/rdock/share/rxdock-2013.1.1_148c5bd1-0/data/scripts/dock.prm

>  <Rbt.Receptor>
def.prm

>  <SCORE>
-14.4652

>  <SCORE.INTER>
-5.39168

>  <SCORE.INTER.CONST>
1

>  <SCORE.INTER.POLAR>
0

>  <SCORE.INTER.REPUL>
0.0554701

>  <SCORE.INTER.ROT>
13

>  <SCORE.INTER.VDW>
-24.069

>  <SCORE.INTER.norm>
-0.119815

>  <SCORE.INTRA>
-9.46273

>  <SCORE.INTRA.DIHEDRAL>
-17.1499

>  <SCORE.INTRA.DIHEDRAL.0>
43.3429

>  <SCORE.INTRA.POLAR>
0

>  <SCORE.INTRA.POLAR.0>
0

>  <SCORE.INTRA.REPUL>
0

>  <SCORE.INTRA.REPUL.0>
0

>  <SCORE.INTRA.VDW>
-0.887799

>  <SCORE.INTRA.VDW.0>
-3.00727

>  <SCORE.INTRA.norm>
-0.210283

>  <SCORE.RESTR>
0.89945

>  <SCORE.RESTR.CAVITY>
0.89945

>  <SCORE.RESTR.norm>
0.0199878

>  <SCORE.SYSTEM>
-0.510225

>  <SCORE.SYSTEM.CONST>
0

>  <SCORE.SYSTEM.DIHEDRAL>
0.909979

>  <SCORE.SYSTEM.VDW>
-0.965215

>  <SCORE.SYSTEM.norm>
-0.0113383

>  <SCORE.heavy>
45

>  <SCORE.norm>
-0.321449

>  <TITLE>
    DAR-DIA-9e4459de-1_D                                                  

$$$$
DAR.pdb
  RxDock  02242112533D
librxdock.so/0.1.0
 49 53  0  0  0  0  0  0  0  0999 V2000
  -49.4654    2.8227   10.7464 O   0  0  0  0  0  0
  -49.1536    1.9131   11.4954 C   0  0  0  0  0  0
  -47.9722    1.0157   11.2048 C   0  0  0  0  0  0
  -47.3078    0.5061   12.4869 C   0  0  0  0  0  0
  -48.4080   -0.2265   13.2606 C   0  0  0  0  0  0
  -47.8688   -0.8333   14.4872 N   0  0  0  0  0  0
  -47.2255   -0.0347   15.5446 C   0  0  0  0  0  0
  -46.3555   -1.2121   16.0224 C   0  0  0  0  0  0
  -45.4654   -1.1697   17.2461 C   0  0  0  0  0  0
  -45.1261    0.0932   17.6368 N   0  0  0  0  0  0
  -46.1736    1.0796   17.9351 C   0  0  0  0  0  0
  -46.0273    1.7558   19.3077 C   0  0  0  0  0  0
  -45.6947    0.6695   20.3413 C   0  0  0  0  0  0
  -46.4211    0.9493   21.6653 C   0  0  0  0  0  0
  -47.8792    0.4887   21.5245 C   0  0  0  0  0  0
  -47.9445   -1.0436   21.4568 C   0  0  0  0  0  0
  -49.3448   -1.4434   21.2562 N   0  0  0  0  0  0
  -49.6764   -2.2385   20.2145 C   0  0  0  0  0  0
  -48.8500   -2.6551   19.4062 O   0  0  0  0  0  0
  -51.0955   -2.6367   19.9966 C   0  0  0  0  0  0
  -52.1112   -2.0712   20.7430 C   0  0  0  0  0  0
  -53.4189   -2.4207   20.5228 C   0  0  0  0  0  0
  -53.8094   -3.3129   19.5934 N   0  0  0  0  0  0
  -52.8195   -3.8605   18.8702 C   0  0  0  0  0  0
  -51.4764   -3.5658   19.0318 C   0  0  0  0  0  0
  -50.5182   -4.2081   18.2379 N   0  0  0  0  0  0
  -50.7200   -5.3116   17.4894 C   0  0  0  0  0  0
  -51.7902   -5.8922   17.3790 O   0  0  0  0  0  0
  -49.4780   -5.7656   16.7501 C   0  0  0  0  0  0
  -48.9507   -7.0579   17.3459 C   0  0  0  0  0  0
  -49.6117   -8.2445   17.1199 C   0  0  0  0  0  0
  -49.1323   -9.4165   17.6598 C   0  0  0  0  0  0
  -47.9898   -9.4052   18.4273 C   0  0  0  0  0  0
  -47.3260   -8.2202   18.6537 C   0  0  0  0  0  0
  -45.8819   -8.2035   19.6229 Cl  0  0  0  0  0  0
  -47.8067   -7.0477   18.1128 C   0  0  0  0  0  0
  -45.0721   -2.3245   17.8064 C   0  0  0  0  0  0
  -45.5077   -3.6016   17.2390 C   0  0  0  0  0  0
  -46.5609   -3.6427   16.4244 C   0  0  0  0  0  0
  -47.3264   -2.3953   16.0655 C   0  0  0  0  0  0
  -47.9162   -2.1572   14.7050 C   0  0  0  0  0  0
  -48.3510   -3.0111   13.9450 O   0  0  0  0  0  0
  -49.5769    0.6854   13.5630 C   0  0  0  0  0  0
  -50.2410    0.5577   14.5778 O   0  0  0  0  0  0
  -49.8248    1.6394   12.6379 N   0  0  0  0  0  0
  -44.3251    0.3946   17.4274 H   0  0  0  0  0  0
  -49.9556   -1.1777   21.8298 H   0  0  0  0  0  0
  -49.7145   -3.8543   18.2280 H   0  0  0  0  0  0
  -50.5126    2.1627   12.8079 H   0  0  0  0  0  0
  1  2  2  0  0  0
  2  3  1  0  0  0
  2 45  1  0  0  0
  3  4  1  0  0  0
  4  5  1  0  0  0
  5  6  1  0  0  0
  5 43  1  0  0  0
  6  7  1  0  0  0
  6 41  1  0  0  0
  7  8  1  0  0  0
  8  9  1  0  0  0
  8 40  1  0  0  0
  9 10  1  0  0  0
  9 37  2  0  0  0
 10 11  1  0  0  0
 10 46  1  0  0  0
 11 12  1  0  0  0
 12 13  1  0  0  0
 13 14  1  0  0  0
 14 15  1  0  0  0
 15 16  1  0  0  0
 16 17  1  0  0  0
 17 18  1  0  0  0
 17 47  1  0  0  0
 18 19  2  0  0  0
 18 20  1  0  0  0
 20 21  2  0  0  0
 20 25  1  0  0  0
 21 22  1  0  0  0
 22 23  2  0  0  0
 23 24  1  0  0  0
 24 25  2  0  0  0
 25 26  1  0  0  0
 26 27  1  0  0  0
 26 48  1  0  0  0
 27 28  2  0  0  0
 27 29  1  0  0  0
 29 30  1  0  0  0
 30 31  2  0  0  0
 30 36  1  0  0  0
 31 32  1  0  0  0
 32 33  2  0  0  0
 33 34  1  0  0  0
 34 35  1  0  0  0
 34 36  2  0  0  0
 37 38  1  0  0  0
 38 39  2  0  0  0
 39 40  1  0  0  0
 40 41  1  0  0  0
 41 42  2  0  0  0
 43 44  2  0  0  0
 43 45  1  0  0  0
 45 49  1  0  0  0
M  END
>  <CHROM.0>
-136.30766698,75.88985133,-81.89018855

>  <CHROM.1>
59.52299458,56.32431869,127.55397982,-44.43928427,-141.44364636,79.29524959
69.76523454,-177.25214477,125.13002635,8.26601005,164.76565369,109.64813883
73.49238744,-48.50099728,-2.57009212,17.29208314,1.07852352,-1.39526482,-1.08006820

>  <HEADER>
                                                                          

>  <MASTER>
        0    0    0    0    0    0    0    0   82    0   82    0          

>  <Name>
DAR.pdb

>  <RI>
-8.44819e+08

>  <Rbt.Current_Directory>
/root/miniconda3/envs/rdock/share/rxdock-2013.1.1_148c5bd1-0/data/ligands/prepped_ligands/DAR

>  <Rbt.Executable>
rbdock/0.1.0

>  <Rbt.Library>
librxdock.so/0.1.0

>  <Rbt.Parameter_File>
/root/miniconda3/envs/rdock/share/rxdock-2013.1.1_148c5bd1-0/data/scripts/dock.prm

>  <Rbt.Receptor>
def.prm

>  <SCORE>
-5.1592

>  <SCORE.INTER>
3.43157

>  <SCORE.INTER.CONST>
1

>  <SCORE.INTER.POLAR>
0

>  <SCORE.INTER.REPUL>
0

>  <SCORE.INTER.ROT>
13

>  <SCORE.INTER.VDW>
-14.9684

>  <SCORE.INTER.norm>
0.0762571

>  <SCORE.INTRA>
-12.0711

>  <SCORE.INTRA.DIHEDRAL>
-27.6553

>  <SCORE.INTRA.DIHEDRAL.0>
43.3429

>  <SCORE.INTRA.POLAR>
-0.152325

>  <SCORE.INTRA.POLAR.0>
0

>  <SCORE.INTRA.REPUL>
0

>  <SCORE.INTRA.REPUL.0>
0

>  <SCORE.INTRA.VDW>
2.27448

>  <SCORE.INTRA.VDW.0>
-3.00727

>  <SCORE.INTRA.norm>
-0.268246

>  <SCORE.RESTR>
1.47002

>  <SCORE.RESTR.CAVITY>
1.47002

>  <SCORE.RESTR.norm>
0.0326671

>  <SCORE.SYSTEM>
2.0103

>  <SCORE.SYSTEM.CONST>
0

>  <SCORE.SYSTEM.DIHEDRAL>
5.22044

>  <SCORE.SYSTEM.VDW>
-0.59992

>  <SCORE.SYSTEM.norm>
0.0446734

>  <SCORE.heavy>
45

>  <SCORE.norm>
-0.114649

>  <TITLE>
    DAR-DIA-9e4459de-1_D                                                  

$$$$
DAR.pdb
  RxDock  02242112533D
librxdock.so/0.1.0
 49 53  0  0  0  0  0  0  0  0999 V2000
  -55.5267   -6.5000   13.0719 O   0  0  0  0  0  0
  -55.0157   -6.4914   14.1783 C   0  0  0  0  0  0
  -55.4715   -7.4323   15.2702 C   0  0  0  0  0  0
  -54.3305   -7.8071   16.2201 C   0  0  0  0  0  0
  -53.8097   -6.4823   16.7851 C   0  0  0  0  0  0
  -52.7517   -6.7181   17.7793 N   0  0  0  0  0  0
  -52.2595   -5.6562   18.6735 C   0  0  0  0  0  0
  -50.8719   -6.3072   18.8222 C   0  0  0  0  0  0
  -49.7945   -5.8074   19.7610 C   0  0  0  0  0  0
  -49.9452   -4.5012   20.1264 N   0  0  0  0  0  0
  -51.0562   -4.1034   21.0020 C   0  0  0  0  0  0
  -51.0050   -2.6353   21.4546 C   0  0  0  0  0  0
  -51.0547   -1.7483   20.2018 C   0  0  0  0  0  0
  -52.2570   -2.1271   19.3244 C   0  0  0  0  0  0
  -52.3740   -1.0965   18.1920 C   0  0  0  0  0  0
  -51.0339   -0.9683   17.4543 C   0  0  0  0  0  0
  -50.2253    0.0576   18.1285 N   0  0  0  0  0  0
  -48.8787    0.0398   18.0108 C   0  0  0  0  0  0
  -48.2795   -0.8088   17.3544 O   0  0  0  0  0  0
  -48.0515    1.0680   18.7024 C   0  0  0  0  0  0
  -48.5749    2.3101   19.0052 C   0  0  0  0  0  0
  -47.8196    3.2455   19.6647 C   0  0  0  0  0  0
  -46.5489    3.0396   20.0589 N   0  0  0  0  0  0
  -46.0435    1.8315   19.7626 C   0  0  0  0  0  0
  -46.7366    0.8345   19.0973 C   0  0  0  0  0  0
  -46.1110   -0.3868   18.8185 N   0  0  0  0  0  0
  -44.8321   -0.7054   19.1042 C   0  0  0  0  0  0
  -44.0428    0.0302   19.6792 O   0  0  0  0  0  0
  -44.4547   -2.1059   18.6667 C   0  0  0  0  0  0
  -44.7932   -2.3116   17.2017 C   0  0  0  0  0  0
  -46.0721   -2.6605   16.8293 C   0  0  0  0  0  0
  -46.3788   -2.8459   15.5002 C   0  0  0  0  0  0
  -45.4070   -2.6824   14.5393 C   0  0  0  0  0  0
  -44.1276   -2.3320   14.9088 C   0  0  0  0  0  0
  -42.8980   -2.1244   13.6964 Cl  0  0  0  0  0  0
  -43.8217   -2.1467   16.2394 C   0  0  0  0  0  0
  -48.8041   -6.6401   20.1189 C   0  0  0  0  0  0
  -48.7780   -8.0118   19.6086 C   0  0  0  0  0  0
  -49.8855   -8.5561   19.1070 C   0  0  0  0  0  0
  -51.1815   -7.7895   19.0489 C   0  0  0  0  0  0
  -52.1593   -7.9151   17.9159 C   0  0  0  0  0  0
  -52.3680   -8.9180   17.2477 O   0  0  0  0  0  0
  -53.3382   -5.5557   15.6857 C   0  0  0  0  0  0
  -52.4155   -4.7773   15.8582 O   0  0  0  0  0  0
  -54.0060   -5.6557   14.5146 N   0  0  0  0  0  0
  -49.5780   -3.8804   19.6203 H   0  0  0  0  0  0
  -50.6269    0.6898   18.5886 H   0  0  0  0  0  0
  -46.6017   -0.9990   18.4238 H   0  0  0  0  0  0
  -53.7396   -5.1080   13.8784 H   0  0  0  0  0  0
  1  2  2  0  0  0
  2  3  1  0  0  0
  2 45  1  0  0  0
  3  4  1  0  0  0
  4  5  1  0  0  0
  5  6  1  0  0  0
  5 43  1  0  0  0
  6  7  1  0  0  0
  6 41  1  0  0  0
  7  8  1  0  0  0
  8  9  1  0  0  0
  8 40  1  0  0  0
  9 10  1  0  0  0
  9 37  2  0  0  0
 10 11  1  0  0  0
 10 46  1  0  0  0
 11 12  1  0  0  0
 12 13  1  0  0  0
 13 14  1  0  0  0
 14 15  1  0  0  0
 15 16  1  0  0  0
 16 17  1  0  0  0
 17 18  1  0  0  0
 17 47  1  0  0  0
 18 19  2  0  0  0
 18 20  1  0  0  0
 20 21  2  0  0  0
 20 25  1  0  0  0
 21 22  1  0  0  0
 22 23  2  0  0  0
 23 24  1  0  0  0
 24 25  2  0  0  0
 25 26  1  0  0  0
 26 27  1  0  0  0
 26 48  1  0  0  0
 27 28  2  0  0  0
 27 29  1  0  0  0
 29 30  1  0  0  0
 30 31  2  0  0  0
 30 36  1  0  0  0
 31 32  1  0  0  0
 32 33  2  0  0  0
 33 34  1  0  0  0
 34 35  1  0  0  0
 34 36  2  0  0  0
 37 38  1  0  0  0
 38 39  2  0  0  0
 39 40  1  0  0  0
 40 41  1  0  0  0
 41 42  2  0  0  0
 43 44  2  0  0  0
 43 45  1  0  0  0
 45 49  1  0  0  0
M  END
>  <CHROM.0>
88.44552336,-35.85616233,-170.36281796

>  <CHROM.1>
-167.56194770,69.14109514,173.42950279,60.12448836,52.83995340,172.42109115
52.87064458,-88.64210339,156.17402904,-26.17604298,177.25579163,52.79602917
-83.32991644,-49.30297542,-3.28205197,17.67788981,-2.52003934,0.37535778
0.61702220

>  <HEADER>
                                                                          

>  <MASTER>
        0    0    0    0    0    0    0    0   82    0   82    0          

>  <Name>
DAR.pdb

>  <RI>
-8.44819e+08

>  <Rbt.Current_Directory>
/root/miniconda3/envs/rdock/share/rxdock-2013.1.1_148c5bd1-0/data/ligands/prepped_ligands/DAR

>  <Rbt.Executable>
rbdock/0.1.0

>  <Rbt.Library>
librxdock.so/0.1.0

>  <Rbt.Parameter_File>
/root/miniconda3/envs/rdock/share/rxdock-2013.1.1_148c5bd1-0/data/scripts/dock.prm

>  <Rbt.Receptor>
def.prm

>  <SCORE>
-11.8315

>  <SCORE.INTER>
-8.46462

>  <SCORE.INTER.CONST>
1

>  <SCORE.INTER.POLAR>
0

>  <SCORE.INTER.REPUL>
0.0852208

>  <SCORE.INTER.ROT>
13

>  <SCORE.INTER.VDW>
-27.2907

>  <SCORE.INTER.norm>
-0.188103

>  <SCORE.INTRA>
-5.54826

>  <SCORE.INTRA.DIHEDRAL>
-30.7518

>  <SCORE.INTRA.DIHEDRAL.0>
43.3429

>  <SCORE.INTRA.POLAR>
0

>  <SCORE.INTRA.POLAR.0>
0

>  <SCORE.INTRA.REPUL>
0

>  <SCORE.INTRA.REPUL.0>
0

>  <SCORE.INTRA.VDW>
9.82763

>  <SCORE.INTRA.VDW.0>
-3.00727

>  <SCORE.INTRA.norm>
-0.123295

>  <SCORE.RESTR>
0.330544

>  <SCORE.RESTR.CAVITY>
0.330544

>  <SCORE.RESTR.norm>
0.00734542

>  <SCORE.SYSTEM>
1.85079

>  <SCORE.SYSTEM.CONST>
0

>  <SCORE.SYSTEM.DIHEDRAL>
4.36986

>  <SCORE.SYSTEM.POLAR>
-0.01771

>  <SCORE.SYSTEM.VDW>
-0.273921

>  <SCORE.SYSTEM.norm>
0.0411287

>  <SCORE.heavy>
45

>  <SCORE.norm>
-0.262923

>  <TITLE>
    DAR-DIA-9e4459de-1_D                                                  

$$$$
DAR.pdb
  RxDock  02242112533D
librxdock.so/0.1.0
 49 53  0  0  0  0  0  0  0  0999 V2000
  -51.8754   -9.7101   21.7827 O   0  0  0  0  0  0
  -51.5622   -8.8363   20.9930 C   0  0  0  0  0  0
  -50.3501   -8.9715   20.0997 C   0  0  0  0  0  0
  -50.5357   -8.2455   18.7643 C   0  0  0  0  0  0
  -50.8233   -6.7847   19.1234 C   0  0  0  0  0  0
  -50.9452   -5.9625   17.9100 N   0  0  0  0  0  0
  -50.1064   -4.7747   17.6752 C   0  0  0  0  0  0
  -51.1625   -4.1011   16.7794 C   0  0  0  0  0  0
  -50.9347   -2.8124   16.0183 C   0  0  0  0  0  0
  -49.9212   -2.0484   16.5201 N   0  0  0  0  0  0
  -49.9408   -1.6293   17.9283 C   0  0  0  0  0  0
  -50.7926   -0.3790   18.2000 C   0  0  0  0  0  0
  -49.9014    0.8566   18.0052 C   0  0  0  0  0  0
  -48.8920    0.9761   19.1565 C   0  0  0  0  0  0
  -48.3738    2.4211   19.1983 C   0  0  0  0  0  0
  -47.3896    2.5954   20.3635 C   0  0  0  0  0  0
  -46.0762    2.0835   19.9466 N   0  0  0  0  0  0
  -45.1186    1.8507   20.8720 C   0  0  0  0  0  0
  -45.2913    2.0489   22.0723 O   0  0  0  0  0  0
  -43.7803    1.3451   20.4559 C   0  0  0  0  0  0
  -42.6286    1.8155   21.0565 C   0  0  0  0  0  0
  -41.3999    1.3296   20.6895 C   0  0  0  0  0  0
  -41.2186    0.3865   19.7461 N   0  0  0  0  0  0
  -42.3401   -0.0680   19.1644 C   0  0  0  0  0  0
  -43.6161    0.3717   19.4737 C   0  0  0  0  0  0
  -44.7217   -0.1535   18.7935 N   0  0  0  0  0  0
  -45.5881   -1.0673   19.2762 C   0  0  0  0  0  0
  -45.5409   -1.5465   20.3999 O   0  0  0  0  0  0
  -46.6760   -1.4371   18.2887 C   0  0  0  0  0  0
  -46.2211   -1.1516   16.8693 C   0  0  0  0  0  0
  -46.9486   -0.3008   16.0674 C   0  0  0  0  0  0
  -46.5348   -0.0414   14.7804 C   0  0  0  0  0  0
  -45.3917   -0.6320   14.2916 C   0  0  0  0  0  0
  -44.6614   -1.4819   15.0919 C   0  0  0  0  0  0
  -43.2163   -2.2291   14.4766 Cl  0  0  0  0  0  0
  -45.0765   -1.7409   16.3799 C   0  0  0  0  0  0
  -51.7307   -2.5207   14.9774 C   0  0  0  0  0  0
  -52.7970   -3.4444   14.5873 C   0  0  0  0  0  0
  -52.7616   -4.7118   14.9958 C   0  0  0  0  0  0
  -51.6403   -5.2283   15.8598 C   0  0  0  0  0  0
  -51.8443   -6.2387   16.9520 C   0  0  0  0  0  0
  -52.6751   -7.1363   16.9617 O   0  0  0  0  0  0
  -52.0491   -6.6588   20.0015 C   0  0  0  0  0  0
  -52.7823   -5.6863   19.9395 O   0  0  0  0  0  0
  -52.2681   -7.6913   20.8462 N   0  0  0  0  0  0
  -49.4361   -1.5753   15.9570 H   0  0  0  0  0  0
  -45.9297    1.9127   19.0969 H   0  0  0  0  0  0
  -44.8607    0.1449   17.9793 H   0  0  0  0  0  0
  -52.9748   -7.6126   21.3658 H   0  0  0  0  0  0
  1  2  2  0  0  0
  2  3  1  0  0  0
  2 45  1  0  0  0
  3  4  1  0  0  0
  4  5  1  0  0  0
  5  6  1  0  0  0
  5 43  1  0  0  0
  6  7  1  0  0  0
  6 41  1  0  0  0
  7  8  1  0  0  0
  8  9  1  0  0  0
  8 40  1  0  0  0
  9 10  1  0  0  0
  9 37  2  0  0  0
 10 11  1  0  0  0
 10 46  1  0  0  0
 11 12  1  0  0  0
 12 13  1  0  0  0
 13 14  1  0  0  0
 14 15  1  0  0  0
 15 16  1  0  0  0
 16 17  1  0  0  0
 17 18  1  0  0  0
 17 47  1  0  0  0
 18 19  2  0  0  0
 18 20  1  0  0  0
 20 21  2  0  0  0
 20 25  1  0  0  0
 21 22  1  0  0  0
 22 23  2  0  0  0
 23 24  1  0  0  0
 24 25  2  0  0  0
 25 26  1  0  0  0
 26 27  1  0  0  0
 26 48  1  0  0  0
 27 28  2  0  0  0
 27 29  1  0  0  0
 29 30  1  0  0  0
 30 31  2  0  0  0
 30 36  1  0  0  0
 31 32  1  0  0  0
 32 33  2  0  0  0
 33 34  1  0  0  0
 34 35  1  0  0  0
 34 36  2  0  0  0
 37 38  1  0  0  0
 38 39  2  0  0  0
 39 40  1  0  0  0
 40 41  1  0  0  0
 41 42  2  0  0  0
 43 44  2  0  0  0
 43 45  1  0  0  0
 45 49  1  0  0  0
M  END
>  <CHROM.0>
-148.16427000,68.75674584,-174.73089328

>  <CHROM.1>
-123.40282102,-55.90531414,-82.98238783,-88.23289935,-71.90596156,-160.68849120
178.37425055,80.73983843,-165.48416813,140.38897870,-77.10278624,23.22410647
-122.30184006,-48.01987590,-2.41241638,18.18644691,-2.99193453,-0.75541010
-1.29693013

>  <HEADER>
                                                                          

>  <MASTER>
        0    0    0    0    0    0    0    0   82    0   82    0          

>  <Name>
DAR.pdb

>  <RI>
-8.44819e+08

>  <Rbt.Current_Directory>
/root/miniconda3/envs/rdock/share/rxdock-2013.1.1_148c5bd1-0/data/ligands/prepped_ligands/DAR

>  <Rbt.Executable>
rbdock/0.1.0

>  <Rbt.Library>
librxdock.so/0.1.0

>  <Rbt.Parameter_File>
/root/miniconda3/envs/rdock/share/rxdock-2013.1.1_148c5bd1-0/data/scripts/dock.prm

>  <Rbt.Receptor>
def.prm

>  <SCORE>
-15.088

>  <SCORE.INTER>
-8.40787

>  <SCORE.INTER.CONST>
1

>  <SCORE.INTER.POLAR>
-0.0959518

>  <SCORE.INTER.REPUL>
0.0346708

>  <SCORE.INTER.ROT>
13

>  <SCORE.INTER.VDW>
-26.655

>  <SCORE.INTER.norm>
-0.186841

>  <SCORE.INTRA>
-8.20233

>  <SCORE.INTRA.DIHEDRAL>
-13.2176

>  <SCORE.INTRA.DIHEDRAL.0>
43.3429

>  <SCORE.INTRA.POLAR>
0

>  <SCORE.INTRA.POLAR.0>
0

>  <SCORE.INTRA.REPUL>
0

>  <SCORE.INTRA.REPUL.0>
0

>  <SCORE.INTRA.VDW>
-1.5935

>  <SCORE.INTRA.VDW.0>
-3.00727

>  <SCORE.INTRA.norm>
-0.182274

>  <SCORE.RESTR>
1.15192

>  <SCORE.RESTR.CAVITY>
1.15192

>  <SCORE.RESTR.norm>
0.0255982

>  <SCORE.SYSTEM>
0.370324

>  <SCORE.SYSTEM.CONST>
0

>  <SCORE.SYSTEM.DIHEDRAL>
2.39444

>  <SCORE.SYSTEM.POLAR>
-0.0126219

>  <SCORE.SYSTEM.VDW>
-0.783982

>  <SCORE.SYSTEM.norm>
0.00822943

>  <SCORE.heavy>
45

>  <SCORE.norm>
-0.335288

>  <TITLE>
    DAR-DIA-9e4459de-1_D                                                  

$$$$
DAR.pdb
  RxDock  02242112533D
librxdock.so/0.1.0
 49 53  0  0  0  0  0  0  0  0999 V2000
  -42.0320   -0.0855   23.0976 O   0  0  0  0  0  0
  -42.4575   -0.4293   22.0085 C   0  0  0  0  0  0
  -43.3595   -1.6324   21.8528 C   0  0  0  0  0  0
  -44.3387   -1.4703   20.6868 C   0  0  0  0  0  0
  -43.4709   -1.2397   19.4460 C   0  0  0  0  0  0
  -44.3027   -1.1453   18.2367 N   0  0  0  0  0  0
  -45.6183   -0.4829   18.2347 C   0  0  0  0  0  0
  -46.1411   -1.3365   17.0645 C   0  0  0  0  0  0
  -47.4745   -1.1179   16.3819 C   0  0  0  0  0  0
  -48.3757   -0.4300   17.1416 N   0  0  0  0  0  0
  -47.9919    0.8408   17.7716 C   0  0  0  0  0  0
  -49.1588    1.5926   18.4318 C   0  0  0  0  0  0
  -50.1417    0.5524   18.9891 C   0  0  0  0  0  0
  -49.4432   -0.3464   20.0201 C   0  0  0  0  0  0
  -50.4466   -1.4063   20.4975 C   0  0  0  0  0  0
  -50.1517   -2.7537   19.8235 C   0  0  0  0  0  0
  -50.0620   -2.5407   18.3718 N   0  0  0  0  0  0
  -51.1751   -2.2458   17.6637 C   0  0  0  0  0  0
  -52.2850   -2.1437   18.1808 O   0  0  0  0  0  0
  -51.0946   -2.0421   16.1899 C   0  0  0  0  0  0
  -50.6755   -0.8350   15.6647 C   0  0  0  0  0  0
  -50.5777   -0.6586   14.3083 C   0  0  0  0  0  0
  -50.8717   -1.6133   13.4058 N   0  0  0  0  0  0
  -51.2790   -2.7849   13.9199 C   0  0  0  0  0  0
  -51.4082   -3.0430   15.2740 C   0  0  0  0  0  0
  -51.8608   -4.2951   15.7080 N   0  0  0  0  0  0
  -53.1327   -4.7400   15.6546 C   0  0  0  0  0  0
  -54.0714   -4.1117   15.1869 O   0  0  0  0  0  0
  -53.2987   -6.1392   16.2116 C   0  0  0  0  0  0
  -52.4441   -6.3190   17.4528 C   0  0  0  0  0  0
  -52.5531   -5.4340   18.5021 C   0  0  0  0  0  0
  -51.7784   -5.5983   19.6281 C   0  0  0  0  0  0
  -50.8925   -6.6487   19.7081 C   0  0  0  0  0  0
  -50.7826   -7.5360   18.6608 C   0  0  0  0  0  0
  -49.6642   -8.8643   18.7596 Cl  0  0  0  0  0  0
  -51.5585   -7.3706   17.5342 C   0  0  0  0  0  0
  -47.6679   -1.6216   15.1526 C   0  0  0  0  0  0
  -46.5969   -2.3647   14.4870 C   0  0  0  0  0  0
  -45.3390   -2.2380   14.9068 C   0  0  0  0  0  0
  -44.9829   -1.3396   16.0630 C   0  0  0  0  0  0
  -43.9165   -1.6761   17.0656 C   0  0  0  0  0  0
  -42.8960   -2.3149   16.8501 O   0  0  0  0  0  0
  -42.5862   -0.0225   19.6044 C   0  0  0  0  0  0
  -42.2800    0.6733   18.6509 O   0  0  0  0  0  0
  -42.1684    0.2329   20.8645 N   0  0  0  0  0  0
  -49.0543   -0.8723   17.4884 H   0  0  0  0  0  0
  -49.2782   -2.5869   17.9767 H   0  0  0  0  0  0
  -51.2564   -4.8375   16.0424 H   0  0  0  0  0  0
  -41.6437    0.9345   20.9550 H   0  0  0  0  0  0
  1  2  2  0  0  0
  2  3  1  0  0  0
  2 45  1  0  0  0
  3  4  1  0  0  0
  4  5  1  0  0  0
  5  6  1  0  0  0
  5 43  1  0  0  0
  6  7  1  0  0  0
  6 41  1  0  0  0
  7  8  1  0  0  0
  8  9  1  0  0  0
  8 40  1  0  0  0
  9 10  1  0  0  0
  9 37  2  0  0  0
 10 11  1  0  0  0
 10 46  1  0  0  0
 11 12  1  0  0  0
 12 13  1  0  0  0
 13 14  1  0  0  0
 14 15  1  0  0  0
 15 16  1  0  0  0
 16 17  1  0  0  0
 17 18  1  0  0  0
 17 47  1  0  0  0
 18 19  2  0  0  0
 18 20  1  0  0  0
 20 21  2  0  0  0
 20 25  1  0  0  0
 21 22  1  0  0  0
 22 23  2  0  0  0
 23 24  1  0  0  0
 24 25  2  0  0  0
 25 26  1  0  0  0
 26 27  1  0  0  0
 26 48  1  0  0  0
 27 28  2  0  0  0
 27 29  1  0  0  0
 29 30  1  0  0  0
 30 31  2  0  0  0
 30 36  1  0  0  0
 31 32  1  0  0  0
 32 33  2  0  0  0
 33 34  1  0  0  0
 34 35  1  0  0  0
 34 36  2  0  0  0
 37 38  1  0  0  0
 38 39  2  0  0  0
 39 40  1  0  0  0
 40 41  1  0  0  0
 41 42  2  0  0  0
 43 44  2  0  0  0
 43 45  1  0  0  0
 45 49  1  0  0  0
M  END
>  <CHROM.0>
-59.82509296,-63.87552587,158.22565576

>  <CHROM.1>
37.39562176,50.71363803,172.04848812,33.39563383,59.55172636,-177.42602673
102.82555726,-51.33344017,-70.20439908,-80.87027489,104.57638354,39.86402215
53.69692086,-48.32727454,-2.54051834,17.83691422,-0.21372373,0.52003862,2.51594597

>  <HEADER>
                                                                          

>  <MASTER>
        0    0    0    0    0    0    0    0   82    0   82    0          

>  <Name>
DAR.pdb

>  <RI>
-8.44819e+08

>  <Rbt.Current_Directory>
/root/miniconda3/envs/rdock/share/rxdock-2013.1.1_148c5bd1-0/data/ligands/prepped_ligands/DAR

>  <Rbt.Executable>
rbdock/0.1.0

>  <Rbt.Library>
librxdock.so/0.1.0

>  <Rbt.Parameter_File>
/root/miniconda3/envs/rdock/share/rxdock-2013.1.1_148c5bd1-0/data/scripts/dock.prm

>  <Rbt.Receptor>
def.prm

>  <SCORE>
-7.7083

>  <SCORE.INTER>
-10.6276

>  <SCORE.INTER.CONST>
1

>  <SCORE.INTER.POLAR>
-0.70023

>  <SCORE.INTER.REPUL>
0

>  <SCORE.INTER.ROT>
13

>  <SCORE.INTER.VDW>
-26.6468

>  <SCORE.INTER.norm>
-0.236168

>  <SCORE.INTRA>
2.26258

>  <SCORE.INTRA.DIHEDRAL>
-4.64055

>  <SCORE.INTRA.DIHEDRAL.0>
43.3429

>  <SCORE.INTRA.POLAR>
-0.0506255

>  <SCORE.INTRA.POLAR.0>
0

>  <SCORE.INTRA.REPUL>
0

>  <SCORE.INTRA.REPUL.0>
0

>  <SCORE.INTRA.VDW>
4.75498

>  <SCORE.INTRA.VDW.0>
-3.00727

>  <SCORE.INTRA.norm>
0.0502795

>  <SCORE.RESTR>
1.10449

>  <SCORE.RESTR.CAVITY>
1.10449

>  <SCORE.RESTR.norm>
0.0245443

>  <SCORE.SYSTEM>
-0.447809

>  <SCORE.SYSTEM.CONST>
0

>  <SCORE.SYSTEM.DIHEDRAL>
1.1366

>  <SCORE.SYSTEM.VDW>
-1.01611

>  <SCORE.SYSTEM.norm>
-0.00995131

>  <SCORE.heavy>
45

>  <SCORE.norm>
-0.171296

>  <TITLE>
    DAR-DIA-9e4459de-1_D                                                  

$$$$
DAR.pdb
  RxDock  02242112533D
librxdock.so/0.1.0
 49 53  0  0  0  0  0  0  0  0999 V2000
  -50.0289   -9.8789   21.0359 O   0  0  0  0  0  0
  -50.4251   -9.1910   20.1111 C   0  0  0  0  0  0
  -51.5368   -8.1827   20.2918 C   0  0  0  0  0  0
  -51.3814   -6.9811   19.3555 C   0  0  0  0  0  0
  -51.3575   -7.5606   17.9380 C   0  0  0  0  0  0
  -51.2886   -6.4866   16.9354 N   0  0  0  0  0  0
  -50.0701   -5.6880   16.7184 C   0  0  0  0  0  0
  -50.8584   -4.4686   16.2055 C   0  0  0  0  0  0
  -50.2181   -3.2205   15.6363 C   0  0  0  0  0  0
  -48.9195   -3.0449   16.0176 N   0  0  0  0  0  0
  -47.8381   -3.1631   15.0299 C   0  0  0  0  0  0
  -46.6348   -2.2465   15.3028 C   0  0  0  0  0  0
  -45.4377   -2.7801   14.5021 C   0  0  0  0  0  0
  -44.2564   -1.8025   14.5890 C   0  0  0  0  0  0
  -43.7134   -1.8254   16.0252 C   0  0  0  0  0  0
  -43.9821   -0.4794   16.7127 C   0  0  0  0  0  0
  -45.4221   -0.1939   16.6348 N   0  0  0  0  0  0
  -46.1964   -0.3276   17.7348 C   0  0  0  0  0  0
  -45.7504   -0.6837   18.8230 O   0  0  0  0  0  0
  -47.6590   -0.0535   17.6604 C   0  0  0  0  0  0
  -48.3118   -0.0236   16.4433 C   0  0  0  0  0  0
  -49.6628    0.2035   16.3796 C   0  0  0  0  0  0
  -50.4394    0.4092   17.4598 N   0  0  0  0  0  0
  -49.8014    0.3797   18.6409 C   0  0  0  0  0  0
  -48.4425    0.1611   18.7915 C   0  0  0  0  0  0
  -47.8694    0.1691   20.0691 N   0  0  0  0  0  0
  -47.9616   -0.8164   20.9850 C   0  0  0  0  0  0
  -48.5429   -1.8777   20.8103 O   0  0  0  0  0  0
  -47.2351   -0.4999   22.2763 C   0  0  0  0  0  0
  -45.7343   -0.4958   22.0513 C   0  0  0  0  0  0
  -44.9909   -1.6228   22.3218 C   0  0  0  0  0  0
  -43.6297   -1.6188   22.1166 C   0  0  0  0  0  0
  -43.0079   -0.4872   21.6396 C   0  0  0  0  0  0
  -43.7491    0.6408   21.3668 C   0  0  0  0  0  0
  -42.9658    2.0717   20.7637 Cl  0  0  0  0  0  0
  -45.1115    0.6356   21.5727 C   0  0  0  0  0  0
  -50.9529   -2.4057   14.8627 C   0  0  0  0  0  0
  -52.3506   -2.7308   14.5740 C   0  0  0  0  0  0
  -52.7940   -3.9747   14.7492 C   0  0  0  0  0  0
  -51.8856   -5.0709   15.2430 C   0  0  0  0  0  0
  -52.3426   -6.1598   16.1708 C   0  0  0  0  0  0
  -53.4631   -6.6479   16.2178 O   0  0  0  0  0  0
  -50.2298   -8.5539   17.7621 C   0  0  0  0  0  0
  -49.6603   -8.6912   16.6926 O   0  0  0  0  0  0
  -49.9046   -9.2659   18.8644 N   0  0  0  0  0  0
  -48.7145   -3.1567   16.8672 H   0  0  0  0  0  0
  -45.7665    0.0824   15.8748 H   0  0  0  0  0  0
  -47.4063    0.8825   20.2880 H   0  0  0  0  0  0
  -49.2562   -9.8526   18.7590 H   0  0  0  0  0  0
  1  2  2  0  0  0
  2  3  1  0  0  0
  2 45  1  0  0  0
  3  4  1  0  0  0
  4  5  1  0  0  0
  5  6  1  0  0  0
  5 43  1  0  0  0
  6  7  1  0  0  0
  6 41  1  0  0  0
  7  8  1  0  0  0
  8  9  1  0  0  0
  8 40  1  0  0  0
  9 10  1  0  0  0
  9 37  2  0  0  0
 10 11  1  0  0  0
 10 46  1  0  0  0
 11 12  1  0  0  0
 12 13  1  0  0  0
 13 14  1  0  0  0
 14 15  1  0  0  0
 15 16  1  0  0  0
 16 17  1  0  0  0
 17 18  1  0  0  0
 17 47  1  0  0  0
 18 19  2  0  0  0
 18 20  1  0  0  0
 20 21  2  0  0  0
 20 25  1  0  0  0
 21 22  1  0  0  0
 22 23  2  0  0  0
 23 24  1  0  0  0
 24 25  2  0  0  0
 25 26  1  0  0  0
 26 27  1  0  0  0
 26 48  1  0  0  0
 27 28  2  0  0  0
 27 29  1  0  0  0
 29 30  1  0  0  0
 30 31  2  0  0  0
 30 36  1  0  0  0
 31 32  1  0  0  0
 32 33  2  0  0  0
 33 34  1  0  0  0
 34 35  1  0  0  0
 34 36  2  0  0  0
 37 38  1  0  0  0
 38 39  2  0  0  0
 39 40  1  0  0  0
 40 41  1  0  0  0
 41 42  2  0  0  0
 43 44  2  0  0  0
 43 45  1  0  0  0
 45 49  1  0  0  0
M  END
>  <CHROM.0>
-69.24555078,-64.87763842,65.65461893

>  <CHROM.1>
71.84583889,111.89631640,147.54495398,162.01204069,172.61437926,69.13051439
-112.45152165,55.19127702,105.48263111,17.95787165,-104.73850027,-69.10222146
-95.68057096,-48.13529062,-2.88050204,18.12636392,-2.86574655,-0.83656466
-0.87013216

>  <HEADER>
                                                                          

>  <MASTER>
        0    0    0    0    0    0    0    0   82    0   82    0          

>  <Name>
DAR.pdb

>  <RI>
-8.44819e+08

>  <Rbt.Current_Directory>
/root/miniconda3/envs/rdock/share/rxdock-2013.1.1_148c5bd1-0/data/ligands/prepped_ligands/DAR

>  <Rbt.Executable>
rbdock/0.1.0

>  <Rbt.Library>
librxdock.so/0.1.0

>  <Rbt.Parameter_File>
/root/miniconda3/envs/rdock/share/rxdock-2013.1.1_148c5bd1-0/data/scripts/dock.prm

>  <Rbt.Receptor>
def.prm

>  <SCORE>
-20.3937

>  <SCORE.INTER>
-10.1082

>  <SCORE.INTER.CONST>
1

>  <SCORE.INTER.POLAR>
-0.680103

>  <SCORE.INTER.REPUL>
0

>  <SCORE.INTER.ROT>
13

>  <SCORE.INTER.VDW>
-26.1958

>  <SCORE.INTER.norm>
-0.224627

>  <SCORE.INTRA>
-9.90175

>  <SCORE.INTRA.DIHEDRAL>
-15.6095

>  <SCORE.INTRA.DIHEDRAL.0>
43.3429

>  <SCORE.INTRA.POLAR>
0

>  <SCORE.INTRA.POLAR.0>
0

>  <SCORE.INTRA.REPUL>
0

>  <SCORE.INTRA.REPUL.0>
0

>  <SCORE.INTRA.VDW>
-2.09699

>  <SCORE.INTRA.VDW.0>
-3.00727

>  <SCORE.INTRA.norm>
-0.220039

>  <SCORE.RESTR>
0.463369

>  <SCORE.RESTR.CAVITY>
0.463369

>  <SCORE.RESTR.norm>
0.0102971

>  <SCORE.SYSTEM>
-0.847143

>  <SCORE.SYSTEM.CONST>
0

>  <SCORE.SYSTEM.DIHEDRAL>
0.404127

>  <SCORE.SYSTEM.POLAR>
-0.0119693

>  <SCORE.SYSTEM.VDW>
-1.00851

>  <SCORE.SYSTEM.norm>
-0.0188254

>  <SCORE.heavy>
45

>  <SCORE.norm>
-0.453194

>  <TITLE>
    DAR-DIA-9e4459de-1_D                                                  

$$$$
DAR.pdb
  RxDock  02242112543D
librxdock.so/0.1.0
 49 53  0  0  0  0  0  0  0  0999 V2000
  -56.6883   -7.8660   13.6325 O   0  0  0  0  0  0
  -55.8610   -7.4329   14.4159 C   0  0  0  0  0  0
  -55.4531   -8.2081   15.6480 C   0  0  0  0  0  0
  -53.9993   -7.9355   16.0440 C   0  0  0  0  0  0
  -53.9057   -6.4223   16.2613 C   0  0  0  0  0  0
  -52.5623   -6.0430   16.7248 N   0  0  0  0  0  0
  -51.7146   -5.0897   15.9887 C   0  0  0  0  0  0
  -50.4091   -5.7048   16.5262 C   0  0  0  0  0  0
  -49.0322   -5.1259   16.2801 C   0  0  0  0  0  0
  -48.9669   -4.3032   15.1931 N   0  0  0  0  0  0
  -49.5928   -2.9744   15.2349 C   0  0  0  0  0  0
  -48.6102   -1.8255   15.5130 C   0  0  0  0  0  0
  -47.8358   -1.5367   14.2185 C   0  0  0  0  0  0
  -46.8383   -0.3893   14.4356 C   0  0  0  0  0  0
  -45.4879   -0.9929   14.8484 C   0  0  0  0  0  0
  -45.5524   -1.4872   16.3003 C   0  0  0  0  0  0
  -44.5857   -0.7198   17.0988 N   0  0  0  0  0  0
  -44.6409   -0.7634   18.4487 C   0  0  0  0  0  0
  -45.4762   -1.4262   19.0593 O   0  0  0  0  0  0
  -43.6733    0.0226   19.2649 C   0  0  0  0  0  0
  -42.3117   -0.1482   19.1059 C   0  0  0  0  0  0
  -41.4232    0.5949   19.8401 C   0  0  0  0  0  0
  -41.7900    1.5208   20.7459 N   0  0  0  0  0  0
  -43.1141    1.6838   20.8978 C   0  0  0  0  0  0
  -44.0756    0.9727   20.2001 C   0  0  0  0  0  0
  -45.4343    1.2046   20.4468 N   0  0  0  0  0  0
  -46.0884    0.9351   21.5950 C   0  0  0  0  0  0
  -45.5694    0.4714   22.6001 O   0  0  0  0  0  0
  -47.5589    1.2960   21.5420 C   0  0  0  0  0  0
  -48.1920    0.7507   20.2752 C   0  0  0  0  0  0
  -48.6268    1.6120   19.2927 C   0  0  0  0  0  0
  -49.2000    1.1167   18.1434 C   0  0  0  0  0  0
  -49.3398   -0.2419   17.9730 C   0  0  0  0  0  0
  -48.9044   -1.1056   18.9532 C   0  0  0  0  0  0
  -49.0796   -2.8228   18.7401 Cl  0  0  0  0  0  0
  -48.3308   -0.6087   20.1032 C   0  0  0  0  0  0
  -48.0231   -5.4756   17.0937 C   0  0  0  0  0  0
  -48.2617   -6.3990   18.2040 C   0  0  0  0  0  0
  -49.5025   -6.6057   18.6423 C   0  0  0  0  0  0
  -50.6831   -5.9068   18.0191 C   0  0  0  0  0  0
  -52.0233   -6.5606   17.8401 C   0  0  0  0  0  0
  -52.5203   -7.4048   18.5723 O   0  0  0  0  0  0
  -54.2974   -5.6564   15.0166 C   0  0  0  0  0  0
  -53.7865   -4.5846   14.7386 O   0  0  0  0  0  0
  -55.2413   -6.2421   14.2461 N   0  0  0  0  0  0
  -48.8229   -4.6652   14.4029 H   0  0  0  0  0  0
  -43.9635   -0.2523   16.6902 H   0  0  0  0  0  0
  -45.8979    1.5607   19.7914 H   0  0  0  0  0  0
  -55.4781   -5.7907   13.5279 H   0  0  0  0  0  0
  1  2  2  0  0  0
  2  3  1  0  0  0
  2 45  1  0  0  0
  3  4  1  0  0  0
  4  5  1  0  0  0
  5  6  1  0  0  0
  5 43  1  0  0  0
  6  7  1  0  0  0
  6 41  1  0  0  0
  7  8  1  0  0  0
  8  9  1  0  0  0
  8 40  1  0  0  0
  9 10  1  0  0  0
  9 37  2  0  0  0
 10 11  1  0  0  0
 10 46  1  0  0  0
 11 12  1  0  0  0
 12 13  1  0  0  0
 13 14  1  0  0  0
 14 15  1  0  0  0
 15 16  1  0  0  0
 16 17  1  0  0  0
 17 18  1  0  0  0
 17 47  1  0  0  0
 18 19  2  0  0  0
 18 20  1  0  0  0
 20 21  2  0  0  0
 20 25  1  0  0  0
 21 22  1  0  0  0
 22 23  2  0  0  0
 23 24  1  0  0  0
 24 25  2  0  0  0
 25 26  1  0  0  0
 26 27  1  0  0  0
 26 48  1  0  0  0
 27 28  2  0  0  0
 27 29  1  0  0  0
 29 30  1  0  0  0
 30 31  2  0  0  0
 30 36  1  0  0  0
 31 32  1  0  0  0
 32 33  2  0  0  0
 33 34  1  0  0  0
 34 35  1  0  0  0
 34 36  2  0  0  0
 37 38  1  0  0  0
 38 39  2  0  0  0
 39 40  1  0  0  0
 40 41  1  0  0  0
 41 42  2  0  0  0
 43 44  2  0  0  0
 43 45  1  0  0  0
 45 49  1  0  0  0
M  END
>  <CHROM.0>
42.01704883,-168.36650639,-67.41240990

>  <CHROM.1>
121.58709707,71.67311798,99.61060294,76.97078589,179.79844048,92.12238396
-74.20274146,-117.39958364,166.19537031,-56.57338441,113.29461467,48.26450359
-112.13226057,-48.82257108,-2.78973311,17.63646165,-2.66640190,0.58928699
1.34142730

>  <HEADER>
                                                                          

>  <MASTER>
        0    0    0    0    0    0    0    0   82    0   82    0          

>  <Name>
DAR.pdb

>  <RI>
-8.44819e+08

>  <Rbt.Current_Directory>
/root/miniconda3/envs/rdock/share/rxdock-2013.1.1_148c5bd1-0/data/ligands/prepped_ligands/DAR

>  <Rbt.Executable>
rbdock/0.1.0

>  <Rbt.Library>
librxdock.so/0.1.0

>  <Rbt.Parameter_File>
/root/miniconda3/envs/rdock/share/rxdock-2013.1.1_148c5bd1-0/data/scripts/dock.prm

>  <Rbt.Receptor>
def.prm

>  <SCORE>
-12.7602

>  <SCORE.INTER>
-11.3939

>  <SCORE.INTER.CONST>
1

>  <SCORE.INTER.POLAR>
-0.427715

>  <SCORE.INTER.REPUL>
0

>  <SCORE.INTER.ROT>
13

>  <SCORE.INTER.VDW>
-28.3397

>  <SCORE.INTER.norm>
-0.253198

>  <SCORE.INTRA>
-1.11919

>  <SCORE.INTRA.DIHEDRAL>
-4.94317

>  <SCORE.INTRA.DIHEDRAL.0>
43.3429

>  <SCORE.INTRA.POLAR>
0

>  <SCORE.INTRA.POLAR.0>
0

>  <SCORE.INTRA.REPUL>
0

>  <SCORE.INTRA.REPUL.0>
0

>  <SCORE.INTRA.VDW>
1.3524

>  <SCORE.INTRA.VDW.0>
-3.00727

>  <SCORE.INTRA.norm>
-0.0248708

>  <SCORE.RESTR>
5.89219e-05

>  <SCORE.RESTR.CAVITY>
5.89219e-05

>  <SCORE.RESTR.norm>
1.30938e-06

>  <SCORE.SYSTEM>
-0.247131

>  <SCORE.SYSTEM.CONST>
0

>  <SCORE.SYSTEM.DIHEDRAL>
1.5395

>  <SCORE.SYSTEM.VDW>
-1.01688

>  <SCORE.SYSTEM.norm>
-0.00549181

>  <SCORE.heavy>
45

>  <SCORE.norm>
-0.28356

>  <TITLE>
    DAR-DIA-9e4459de-1_D                                                  

$$$$
