DAR.pdb
  RxDock  02242110313D
librxdock.so/0.1.0
 49 53  0  0  0  0  0  0  0  0999 V2000
  -42.4949    0.5705   22.0440 O   0  0  0  0  0  0
  -42.9263    0.2214   20.9588 C   0  0  0  0  0  0
  -43.1154   -1.2379   20.6124 C   0  0  0  0  0  0
  -44.2798   -1.4523   19.6413 C   0  0  0  0  0  0
  -43.9507   -0.6077   18.4068 C   0  0  0  0  0  0
  -44.9679   -0.7929   17.3606 N   0  0  0  0  0  0
  -46.3414   -0.2787   17.4969 C   0  0  0  0  0  0
  -46.9280   -1.3566   16.5666 C   0  0  0  0  0  0
  -48.3692   -1.3879   16.1045 C   0  0  0  0  0  0
  -49.2203   -0.6850   16.9071 N   0  0  0  0  0  0
  -50.6724   -0.7764   16.7019 C   0  0  0  0  0  0
  -51.4967   -0.6894   17.9963 C   0  0  0  0  0  0
  -51.2943   -1.9952   18.7791 C   0  0  0  0  0  0
  -52.0356   -3.1518   18.0925 C   0  0  0  0  0  0
  -53.1729   -3.6138   19.0152 C   0  0  0  0  0  0
  -52.5995   -4.3704   20.2216 C   0  0  0  0  0  0
  -51.5494   -5.2823   19.7456 N   0  0  0  0  0  0
  -50.2671   -5.0926   20.1289 C   0  0  0  0  0  0
  -49.9235   -4.1764   20.8721 O   0  0  0  0  0  0
  -49.1951   -6.0043   19.6396 C   0  0  0  0  0  0
  -48.3477   -6.6397   20.5266 C   0  0  0  0  0  0
  -47.3784   -7.4983   20.0750 C   0  0  0  0  0  0
  -47.1779   -7.7844   18.7749 N   0  0  0  0  0  0
  -48.0030   -7.1648   17.9158 C   0  0  0  0  0  0
  -49.0027   -6.2824   18.2887 C   0  0  0  0  0  0
  -49.7987   -5.6725   17.3113 N   0  0  0  0  0  0
  -50.9724   -6.1404   16.8400 C   0  0  0  0  0  0
  -51.5221   -7.1609   17.2288 O   0  0  0  0  0  0
  -51.5857   -5.2505   15.7782 C   0  0  0  0  0  0
  -53.0674   -5.5443   15.6332 C   0  0  0  0  0  0
  -53.9845   -4.5182   15.6825 C   0  0  0  0  0  0
  -55.3283   -4.7853   15.5498 C   0  0  0  0  0  0
  -55.7591   -6.0797   15.3671 C   0  0  0  0  0  0
  -54.8442   -7.1075   15.3159 C   0  0  0  0  0  0
  -55.3861   -8.7439   15.0847 Cl  0  0  0  0  0  0
  -53.4993   -6.8391   15.4488 C   0  0  0  0  0  0
  -48.6876   -2.0975   15.0102 C   0  0  0  0  0  0
  -47.6483   -2.8222   14.2772 C   0  0  0  0  0  0
  -46.3669   -2.5012   14.4485 C   0  0  0  0  0  0
  -45.9514   -1.3988   15.3881 C   0  0  0  0  0  0
  -44.7061   -1.4600   16.2254 C   0  0  0  0  0  0
  -43.6588   -2.0160   15.9254 O   0  0  0  0  0  0
  -43.7824    0.8535   18.7613 C   0  0  0  0  0  0
  -44.0900    1.7396   17.9820 O   0  0  0  0  0  0
  -43.2746    1.0993   19.9898 N   0  0  0  0  0  0
  -48.9084    0.0229   17.3288 H   0  0  0  0  0  0
  -51.7677   -5.9593   19.2292 H   0  0  0  0  0  0
  -49.5033   -4.9147   16.9800 H   0  0  0  0  0  0
  -43.1654    1.9496   20.1917 H   0  0  0  0  0  0
  1  2  2  0  0  0
  2  3  1  0  0  0
  2 45  1  0  0  0
  3  4  1  0  0  0
  4  5  1  0  0  0
  5  6  1  0  0  0
  5 43  1  0  0  0
  6  7  1  0  0  0
  6 41  1  0  0  0
  7  8  1  0  0  0
  8  9  1  0  0  0
  8 40  1  0  0  0
  9 10  1  0  0  0
  9 37  2  0  0  0
 10 11  1  0  0  0
 10 46  1  0  0  0
 11 12  1  0  0  0
 12 13  1  0  0  0
 13 14  1  0  0  0
 14 15  1  0  0  0
 15 16  1  0  0  0
 16 17  1  0  0  0
 17 18  1  0  0  0
 17 47  1  0  0  0
 18 19  2  0  0  0
 18 20  1  0  0  0
 20 21  2  0  0  0
 20 25  1  0  0  0
 21 22  1  0  0  0
 22 23  2  0  0  0
 23 24  1  0  0  0
 24 25  2  0  0  0
 25 26  1  0  0  0
 26 27  1  0  0  0
 26 48  1  0  0  0
 27 28  2  0  0  0
 27 29  1  0  0  0
 29 30  1  0  0  0
 30 31  2  0  0  0
 30 36  1  0  0  0
 31 32  1  0  0  0
 32 33  2  0  0  0
 33 34  1  0  0  0
 34 35  1  0  0  0
 34 36  2  0  0  0
 37 38  1  0  0  0
 38 39  2  0  0  0
 39 40  1  0  0  0
 40 41  1  0  0  0
 41 42  2  0  0  0
 43 44  2  0  0  0
 43 45  1  0  0  0
 45 49  1  0  0  0
M  END
>  <CHROM.0>
-84.92767044,-175.71659514,163.42836213

>  <CHROM.1>
69.80893080,-171.29904859,145.90401965,-71.48661139,-72.45262414,-113.48287628
-72.43838735,-43.44651355,115.15963104,-126.51539046,-88.97088091,-160.69495957
128.73185233,-49.03083360,-3.54778058,17.64667150,-0.28392122,0.54736378
2.44408970

>  <HEADER>
                                                                          

>  <MASTER>
        0    0    0    0    0    0    0    0   82    0   82    0          

>  <Name>
DAR.pdb

>  <RI>
-4.54606e+08

>  <Rbt.Current_Directory>
/root/miniconda3/envs/rdock/share/rxdock-2013.1.1_148c5bd1-0/data/ligands/prepped_ligands/DAR

>  <Rbt.Executable>
rbdock/0.1.0

>  <Rbt.Library>
librxdock.so/0.1.0

>  <Rbt.Parameter_File>
/root/miniconda3/envs/rdock/share/rxdock-2013.1.1_148c5bd1-0/data/scripts/dock.prm

>  <Rbt.Receptor>
def.prm

>  <SCORE>
-11.6235

>  <SCORE.INTER>
-7.96613

>  <SCORE.INTER.CONST>
1

>  <SCORE.INTER.POLAR>
0

>  <SCORE.INTER.REPUL>
0.316842

>  <SCORE.INTER.ROT>
13

>  <SCORE.INTER.VDW>
-27.9503

>  <SCORE.INTER.norm>
-0.177025

>  <SCORE.INTRA>
-3.95133

>  <SCORE.INTRA.DIHEDRAL>
-6.73286

>  <SCORE.INTRA.DIHEDRAL.0>
43.3429

>  <SCORE.INTRA.POLAR>
0

>  <SCORE.INTRA.POLAR.0>
0

>  <SCORE.INTRA.REPUL>
0

>  <SCORE.INTRA.REPUL.0>
0

>  <SCORE.INTRA.VDW>
-0.5849

>  <SCORE.INTRA.VDW.0>
-3.00727

>  <SCORE.INTRA.norm>
-0.0878074

>  <SCORE.RESTR>
0.101589

>  <SCORE.RESTR.CAVITY>
0.101589

>  <SCORE.RESTR.norm>
0.00225752

>  <SCORE.SYSTEM>
0.192378

>  <SCORE.SYSTEM.CONST>
0

>  <SCORE.SYSTEM.DIHEDRAL>
2.07944

>  <SCORE.SYSTEM.VDW>
-0.847343

>  <SCORE.SYSTEM.norm>
0.00427507

>  <SCORE.heavy>
45

>  <SCORE.norm>
-0.2583

>  <TITLE>
    DAR-DIA-9e4459de-1_D                                                  

$$$$
DAR.pdb
  RxDock  02242110313D
librxdock.so/0.1.0
 49 53  0  0  0  0  0  0  0  0999 V2000
  -51.7614   -1.5687   13.7136 O   0  0  0  0  0  0
  -51.5826   -2.5489   14.4156 C   0  0  0  0  0  0
  -50.2526   -2.8144   15.0835 C   0  0  0  0  0  0
  -50.4146   -3.5551   16.4138 C   0  0  0  0  0  0
  -51.1569   -4.8520   16.0782 C   0  0  0  0  0  0
  -51.3057   -5.6937   17.2752 N   0  0  0  0  0  0
  -51.8986   -5.1885   18.5253 C   0  0  0  0  0  0
  -51.1162   -6.1862   19.3993 C   0  0  0  0  0  0
  -51.3210   -6.3532   20.8899 C   0  0  0  0  0  0
  -51.8992   -5.2728   21.4908 N   0  0  0  0  0  0
  -53.3516   -5.0684   21.4013 C   0  0  0  0  0  0
  -53.8149   -3.6624   21.8149 C   0  0  0  0  0  0
  -53.7290   -2.7503   20.5822 C   0  0  0  0  0  0
  -52.2843   -2.6827   20.0653 C   0  0  0  0  0  0
  -51.4526   -1.8581   21.0586 C   0  0  0  0  0  0
  -49.9553   -2.0462   20.7771 C   0  0  0  0  0  0
  -49.6847   -1.6350   19.3920 N   0  0  0  0  0  0
  -48.4180   -1.3663   19.0037 C   0  0  0  0  0  0
  -47.4571   -1.4492   19.7651 O   0  0  0  0  0  0
  -48.1374   -0.9355   17.6053 C   0  0  0  0  0  0
  -49.1543   -0.4816   16.7877 C   0  0  0  0  0  0
  -48.8892   -0.0615   15.5095 C   0  0  0  0  0  0
  -47.6591   -0.0564   14.9627 N   0  0  0  0  0  0
  -46.6734   -0.4985   15.7601 C   0  0  0  0  0  0
  -46.8567   -0.9429   17.0586 C   0  0  0  0  0  0
  -45.7630   -1.4034   17.8020 N   0  0  0  0  0  0
  -44.6176   -1.9061   17.2979 C   0  0  0  0  0  0
  -44.3644   -2.0026   16.1058 O   0  0  0  0  0  0
  -43.6290   -2.3245   18.3670 C   0  0  0  0  0  0
  -43.3013   -1.1515   19.2724 C   0  0  0  0  0  0
  -43.4445   -1.2692   20.6368 C   0  0  0  0  0  0
  -43.1460   -0.2051   21.4576 C   0  0  0  0  0  0
  -42.7030    0.9801   20.9159 C   0  0  0  0  0  0
  -42.5574    1.1001   19.5519 C   0  0  0  0  0  0
  -41.9973    2.5967   18.8651 Cl  0  0  0  0  0  0
  -42.8564    0.0344   18.7313 C   0  0  0  0  0  0
  -50.9084   -7.4854   21.4817 C   0  0  0  0  0  0
  -50.2763   -8.5404   20.6880 C   0  0  0  0  0  0
  -50.4325   -8.5617   19.3653 C   0  0  0  0  0  0
  -51.2522   -7.5165   18.6535 C   0  0  0  0  0  0
  -50.8909   -6.9703   17.3020 C   0  0  0  0  0  0
  -50.3239   -7.5770   16.4040 O   0  0  0  0  0  0
  -52.4947   -4.5749   15.4279 C   0  0  0  0  0  0
  -53.4519   -5.3115   15.5965 O   0  0  0  0  0  0
  -52.5487   -3.4645   14.6588 N   0  0  0  0  0  0
  -51.3952   -4.5713   21.6640 H   0  0  0  0  0  0
  -50.3493   -1.5865   18.8188 H   0  0  0  0  0  0
  -45.8335   -1.3558   18.6760 H   0  0  0  0  0  0
  -53.3239   -3.3096   14.2706 H   0  0  0  0  0  0
  1  2  2  0  0  0
  2  3  1  0  0  0
  2 45  1  0  0  0
  3  4  1  0  0  0
  4  5  1  0  0  0
  5  6  1  0  0  0
  5 43  1  0  0  0
  6  7  1  0  0  0
  6 41  1  0  0  0
  7  8  1  0  0  0
  8  9  1  0  0  0
  8 40  1  0  0  0
  9 10  1  0  0  0
  9 37  2  0  0  0
 10 11  1  0  0  0
 10 46  1  0  0  0
 11 12  1  0  0  0
 12 13  1  0  0  0
 13 14  1  0  0  0
 14 15  1  0  0  0
 15 16  1  0  0  0
 16 17  1  0  0  0
 17 18  1  0  0  0
 17 47  1  0  0  0
 18 19  2  0  0  0
 18 20  1  0  0  0
 20 21  2  0  0  0
 20 25  1  0  0  0
 21 22  1  0  0  0
 22 23  2  0  0  0
 23 24  1  0  0  0
 24 25  2  0  0  0
 25 26  1  0  0  0
 26 27  1  0  0  0
 26 48  1  0  0  0
 27 28  2  0  0  0
 27 29  1  0  0  0
 29 30  1  0  0  0
 30 31  2  0  0  0
 30 36  1  0  0  0
 31 32  1  0  0  0
 32 33  2  0  0  0
 33 34  1  0  0  0
 34 35  1  0  0  0
 34 36  2  0  0  0
 37 38  1  0  0  0
 38 39  2  0  0  0
 39 40  1  0  0  0
 40 41  1  0  0  0
 41 42  2  0  0  0
 43 44  2  0  0  0
 43 45  1  0  0  0
 45 49  1  0  0  0
M  END
>  <CHROM.0>
179.45902810,-71.19195418,53.22876965

>  <CHROM.1>
53.34435748,79.50472085,-165.77164287,86.64854638,-60.24621416,-71.65177508
166.19006690,58.21926854,162.47615550,16.37921850,154.82305962,-57.36341704
126.31138445,-48.74867778,-2.82449136,18.29117981,2.93891051,0.57520317,1.97790171

>  <HEADER>
                                                                          

>  <MASTER>
        0    0    0    0    0    0    0    0   82    0   82    0          

>  <Name>
DAR.pdb

>  <RI>
-4.54606e+08

>  <Rbt.Current_Directory>
/root/miniconda3/envs/rdock/share/rxdock-2013.1.1_148c5bd1-0/data/ligands/prepped_ligands/DAR

>  <Rbt.Executable>
rbdock/0.1.0

>  <Rbt.Library>
librxdock.so/0.1.0

>  <Rbt.Parameter_File>
/root/miniconda3/envs/rdock/share/rxdock-2013.1.1_148c5bd1-0/data/scripts/dock.prm

>  <Rbt.Receptor>
def.prm

>  <SCORE>
-20.9178

>  <SCORE.INTER>
-7.69339

>  <SCORE.INTER.CONST>
1

>  <SCORE.INTER.POLAR>
-1.35823

>  <SCORE.INTER.REPUL>
0.34503

>  <SCORE.INTER.ROT>
13

>  <SCORE.INTER.VDW>
-23.2005

>  <SCORE.INTER.norm>
-0.170964

>  <SCORE.INTRA>
-13.0665

>  <SCORE.INTRA.DIHEDRAL>
-29.0696

>  <SCORE.INTRA.DIHEDRAL.0>
43.3429

>  <SCORE.INTRA.POLAR>
-0.108163

>  <SCORE.INTRA.POLAR.0>
0

>  <SCORE.INTRA.REPUL>
0

>  <SCORE.INTRA.REPUL.0>
0

>  <SCORE.INTRA.VDW>
1.836

>  <SCORE.INTRA.VDW.0>
-3.00727

>  <SCORE.INTRA.norm>
-0.290368

>  <SCORE.RESTR>
0.647328

>  <SCORE.RESTR.CAVITY>
0.647328

>  <SCORE.RESTR.norm>
0.0143851

>  <SCORE.SYSTEM>
-0.805208

>  <SCORE.SYSTEM.CONST>
0

>  <SCORE.SYSTEM.DIHEDRAL>
0.719317

>  <SCORE.SYSTEM.VDW>
-1.16487

>  <SCORE.SYSTEM.norm>
-0.0178935

>  <SCORE.heavy>
45

>  <SCORE.norm>
-0.46484

>  <TITLE>
    DAR-DIA-9e4459de-1_D                                                  

$$$$
DAR.pdb
  RxDock  02242110313D
librxdock.so/0.1.0
 49 53  0  0  0  0  0  0  0  0999 V2000
  -41.4178    1.5216   20.9495 O   0  0  0  0  0  0
  -42.1442    1.1239   20.0553 C   0  0  0  0  0  0
  -41.8167   -0.1200   19.2610 C   0  0  0  0  0  0
  -43.0774   -0.8469   18.7846 C   0  0  0  0  0  0
  -43.8561    0.1763   17.9525 C   0  0  0  0  0  0
  -45.0617   -0.4327   17.3702 N   0  0  0  0  0  0
  -46.1983   -0.8756   18.1957 C   0  0  0  0  0  0
  -46.6338   -1.9428   17.1745 C   0  0  0  0  0  0
  -47.8961   -2.7697   17.2948 C   0  0  0  0  0  0
  -48.3860   -2.8448   18.5664 N   0  0  0  0  0  0
  -49.7033   -3.4465   18.8152 C   0  0  0  0  0  0
  -50.1572   -3.3807   20.2823 C   0  0  0  0  0  0
  -49.6632   -2.0528   20.8751 C   0  0  0  0  0  0
  -50.2191   -0.8677   20.0718 C   0  0  0  0  0  0
  -49.1198    0.1985   19.9579 C   0  0  0  0  0  0
  -49.4444    1.1715   18.8157 C   0  0  0  0  0  0
  -49.4085    0.4309   17.5464 N   0  0  0  0  0  0
  -50.5223   -0.1883   17.0954 C   0  0  0  0  0  0
  -51.5893   -0.1649   17.7043 O   0  0  0  0  0  0
  -50.4902   -0.9524   15.8167 C   0  0  0  0  0  0
  -49.8056   -0.4665   14.7196 C   0  0  0  0  0  0
  -49.7562   -1.1840   13.5519 C   0  0  0  0  0  0
  -50.3499   -2.3803   13.3822 N   0  0  0  0  0  0
  -51.0146   -2.8492   14.4505 C   0  0  0  0  0  0
  -51.1158   -2.1869   15.6622 C   0  0  0  0  0  0
  -51.8505   -2.7540   16.7108 N   0  0  0  0  0  0
  -52.6821   -3.8113   16.6145 C   0  0  0  0  0  0
  -52.8879   -4.4446   15.5892 O   0  0  0  0  0  0
  -53.3350   -4.1780   17.9316 C   0  0  0  0  0  0
  -52.5823   -5.3158   18.5962 C   0  0  0  0  0  0
  -52.5794   -5.4356   19.9680 C   0  0  0  0  0  0
  -51.8973   -6.4686   20.5702 C   0  0  0  0  0  0
  -51.2163   -7.3854   19.8019 C   0  0  0  0  0  0
  -51.2189   -7.2689   18.4298 C   0  0  0  0  0  0
  -50.3594   -8.4263   17.4568 Cl  0  0  0  0  0  0
  -51.9019   -6.2345   17.8281 C   0  0  0  0  0  0
  -48.3940   -3.3627   16.1981 C   0  0  0  0  0  0
  -47.7226   -3.2013   14.9075 C   0  0  0  0  0  0
  -46.8608   -2.2017   14.7264 C   0  0  0  0  0  0
  -46.5534   -1.2197   15.8272 C   0  0  0  0  0  0
  -45.1871   -0.6369   16.0492 C   0  0  0  0  0  0
  -44.3525   -0.4000   15.1872 O   0  0  0  0  0  0
  -44.1956    1.4087   18.7620 C   0  0  0  0  0  0
  -45.2191    2.0413   18.5639 O   0  0  0  0  0  0
  -43.2928    1.7496   19.7088 N   0  0  0  0  0  0
  -48.0674   -2.2885   19.1708 H   0  0  0  0  0  0
  -48.6648    0.4134   17.0781 H   0  0  0  0  0  0
  -51.7554   -2.3852   17.5022 H   0  0  0  0  0  0
  -43.4844    2.4738   20.1719 H   0  0  0  0  0  0
  1  2  2  0  0  0
  2  3  1  0  0  0
  2 45  1  0  0  0
  3  4  1  0  0  0
  4  5  1  0  0  0
  5  6  1  0  0  0
  5 43  1  0  0  0
  6  7  1  0  0  0
  6 41  1  0  0  0
  7  8  1  0  0  0
  8  9  1  0  0  0
  8 40  1  0  0  0
  9 10  1  0  0  0
  9 37  2  0  0  0
 10 11  1  0  0  0
 10 46  1  0  0  0
 11 12  1  0  0  0
 12 13  1  0  0  0
 13 14  1  0  0  0
 14 15  1  0  0  0
 15 16  1  0  0  0
 16 17  1  0  0  0
 17 18  1  0  0  0
 17 47  1  0  0  0
 18 19  2  0  0  0
 18 20  1  0  0  0
 20 21  2  0  0  0
 20 25  1  0  0  0
 21 22  1  0  0  0
 22 23  2  0  0  0
 23 24  1  0  0  0
 24 25  2  0  0  0
 25 26  1  0  0  0
 26 27  1  0  0  0
 26 48  1  0  0  0
 27 28  2  0  0  0
 27 29  1  0  0  0
 29 30  1  0  0  0
 30 31  2  0  0  0
 30 36  1  0  0  0
 31 32  1  0  0  0
 32 33  2  0  0  0
 33 34  1  0  0  0
 34 35  1  0  0  0
 34 36  2  0  0  0
 37 38  1  0  0  0
 38 39  2  0  0  0
 39 40  1  0  0  0
 40 41  1  0  0  0
 41 42  2  0  0  0
 43 44  2  0  0  0
 43 45  1  0  0  0
 45 49  1  0  0  0
M  END
>  <CHROM.0>
-58.23887418,-179.79837715,-43.29443991

>  <CHROM.1>
67.42920847,171.25119593,-176.37719404,35.75849583,58.34473862,-141.07963199
161.75334914,-64.89885233,88.15007838,-40.76235696,167.71911367,-97.58121286
151.33322722,-48.53005391,-2.21780077,17.66311597,-0.31525918,0.58716245
2.25877662

>  <HEADER>
                                                                          

>  <MASTER>
        0    0    0    0    0    0    0    0   82    0   82    0          

>  <Name>
DAR.pdb

>  <RI>
-4.54606e+08

>  <Rbt.Current_Directory>
/root/miniconda3/envs/rdock/share/rxdock-2013.1.1_148c5bd1-0/data/ligands/prepped_ligands/DAR

>  <Rbt.Executable>
rbdock/0.1.0

>  <Rbt.Library>
librxdock.so/0.1.0

>  <Rbt.Parameter_File>
/root/miniconda3/envs/rdock/share/rxdock-2013.1.1_148c5bd1-0/data/scripts/dock.prm

>  <Rbt.Receptor>
def.prm

>  <SCORE>
-22.4043

>  <SCORE.INTER>
-8.23856

>  <SCORE.INTER.CONST>
1

>  <SCORE.INTER.POLAR>
-0.139022

>  <SCORE.INTER.REPUL>
0.0970518

>  <SCORE.INTER.ROT>
13

>  <SCORE.INTER.VDW>
-26.6512

>  <SCORE.INTER.norm>
-0.183079

>  <SCORE.INTRA>
-13.5154

>  <SCORE.INTRA.DIHEDRAL>
-22.3428

>  <SCORE.INTRA.DIHEDRAL.0>
43.3429

>  <SCORE.INTRA.POLAR>
0

>  <SCORE.INTRA.POLAR.0>
0

>  <SCORE.INTRA.REPUL>
0

>  <SCORE.INTRA.REPUL.0>
0

>  <SCORE.INTRA.VDW>
-2.34397

>  <SCORE.INTRA.VDW.0>
-3.00727

>  <SCORE.INTRA.norm>
-0.300341

>  <SCORE.RESTR>
0

>  <SCORE.RESTR.CAVITY>
0

>  <SCORE.RESTR.norm>
0

>  <SCORE.SYSTEM>
-0.650416

>  <SCORE.SYSTEM.CONST>
0

>  <SCORE.SYSTEM.DIHEDRAL>
0.640548

>  <SCORE.SYSTEM.POLAR>
-0.0201003

>  <SCORE.SYSTEM.VDW>
-0.902349

>  <SCORE.SYSTEM.norm>
-0.0144537

>  <SCORE.heavy>
45

>  <SCORE.norm>
-0.497874

>  <TITLE>
    DAR-DIA-9e4459de-1_D                                                  

$$$$
DAR.pdb
  RxDock  02242110323D
librxdock.so/0.1.0
 49 53  0  0  0  0  0  0  0  0999 V2000
  -54.6296   -9.7662   16.3654 O   0  0  0  0  0  0
  -54.0724   -8.6824   16.3824 C   0  0  0  0  0  0
  -54.6616   -7.4764   15.6869 C   0  0  0  0  0  0
  -54.2996   -6.1689   16.3969 C   0  0  0  0  0  0
  -52.7690   -6.1232   16.4261 C   0  0  0  0  0  0
  -52.2950   -4.8643   17.0211 N   0  0  0  0  0  0
  -51.5665   -4.8224   18.3005 C   0  0  0  0  0  0
  -52.0352   -3.3903   18.6179 C   0  0  0  0  0  0
  -51.5486   -2.5788   19.7996 C   0  0  0  0  0  0
  -51.0295   -3.3347   20.8103 N   0  0  0  0  0  0
  -49.5738   -3.4351   20.9838 C   0  0  0  0  0  0
  -49.0054   -2.5101   22.0719 C   0  0  0  0  0  0
  -49.5267   -1.0894   21.8101 C   0  0  0  0  0  0
  -48.6310   -0.3694   20.7912 C   0  0  0  0  0  0
  -48.9164    1.1372   20.8749 C   0  0  0  0  0  0
  -48.0439    1.8966   19.8657 C   0  0  0  0  0  0
  -46.6329    1.5978   20.1494 N   0  0  0  0  0  0
  -45.9005    0.8931   19.2581 C   0  0  0  0  0  0
  -46.3621    0.4788   18.1974 O   0  0  0  0  0  0
  -44.4736    0.5743   19.5449 C   0  0  0  0  0  0
  -43.9445    0.7716   20.8057 C   0  0  0  0  0  0
  -42.6378    0.4532   21.0735 C   0  0  0  0  0  0
  -41.7901   -0.0603   20.1625 N   0  0  0  0  0  0
  -42.3078   -0.2504   18.9382 C   0  0  0  0  0  0
  -43.6129    0.0476   18.5851 C   0  0  0  0  0  0
  -44.0505   -0.1704   17.2729 N   0  0  0  0  0  0
  -43.8386   -1.2835   16.5417 C   0  0  0  0  0  0
  -43.2518   -2.2786   16.9417 O   0  0  0  0  0  0
  -44.4351   -1.2057   15.1511 C   0  0  0  0  0  0
  -45.9140   -1.5439   15.1904 C   0  0  0  0  0  0
  -46.3810   -2.6797   14.5675 C   0  0  0  0  0  0
  -47.7224   -2.9864   14.6044 C   0  0  0  0  0  0
  -48.6010   -2.1580   15.2650 C   0  0  0  0  0  0
  -48.1365   -1.0224   15.8901 C   0  0  0  0  0  0
  -49.2447    0.0257   16.7257 Cl  0  0  0  0  0  0
  -46.7936   -0.7163   15.8525 C   0  0  0  0  0  0
  -51.6882   -1.2438   19.7753 C   0  0  0  0  0  0
  -52.2975   -0.5904   18.6158 C   0  0  0  0  0  0
  -52.3764   -1.2364   17.4535 C   0  0  0  0  0  0
  -51.8493   -2.6393   17.2965 C   0  0  0  0  0  0
  -52.5166   -3.6754   16.4382 C   0  0  0  0  0  0
  -53.1433   -3.4680   15.4085 O   0  0  0  0  0  0
  -52.1902   -7.3246   17.1410 C   0  0  0  0  0  0
  -51.1532   -7.2504   17.7784 O   0  0  0  0  0  0
  -52.8999   -8.4691   17.0233 N   0  0  0  0  0  0
  -51.5295   -3.9736   21.1539 H   0  0  0  0  0  0
  -46.2690    1.8985   20.8909 H   0  0  0  0  0  0
  -44.5064    0.4794   16.8972 H   0  0  0  0  0  0
  -52.5569   -9.1713   17.4294 H   0  0  0  0  0  0
  1  2  2  0  0  0
  2  3  1  0  0  0
  2 45  1  0  0  0
  3  4  1  0  0  0
  4  5  1  0  0  0
  5  6  1  0  0  0
  5 43  1  0  0  0
  6  7  1  0  0  0
  6 41  1  0  0  0
  7  8  1  0  0  0
  8  9  1  0  0  0
  8 40  1  0  0  0
  9 10  1  0  0  0
  9 37  2  0  0  0
 10 11  1  0  0  0
 10 46  1  0  0  0
 11 12  1  0  0  0
 12 13  1  0  0  0
 13 14  1  0  0  0
 14 15  1  0  0  0
 15 16  1  0  0  0
 16 17  1  0  0  0
 17 18  1  0  0  0
 17 47  1  0  0  0
 18 19  2  0  0  0
 18 20  1  0  0  0
 20 21  2  0  0  0
 20 25  1  0  0  0
 21 22  1  0  0  0
 22 23  2  0  0  0
 23 24  1  0  0  0
 24 25  2  0  0  0
 25 26  1  0  0  0
 26 27  1  0  0  0
 26 48  1  0  0  0
 27 28  2  0  0  0
 27 29  1  0  0  0
 29 30  1  0  0  0
 30 31  2  0  0  0
 30 36  1  0  0  0
 31 32  1  0  0  0
 32 33  2  0  0  0
 33 34  1  0  0  0
 34 35  1  0  0  0
 34 36  2  0  0  0
 37 38  1  0  0  0
 38 39  2  0  0  0
 39 40  1  0  0  0
 40 41  1  0  0  0
 41 42  2  0  0  0
 43 44  2  0  0  0
 43 45  1  0  0  0
 45 49  1  0  0  0
M  END
>  <CHROM.0>
-142.37886256,-57.82724867,177.88659282

>  <CHROM.1>
114.02883274,102.50552496,99.21645303,-50.95497969,-84.84089449,-163.18050718
-179.75779298,-57.62354574,113.29082256,11.83847625,-133.92971588,-81.97828112
-114.12428052,-48.91293496,-2.38518573,17.96804294,-2.60783456,0.42223183
0.88748549

>  <HEADER>
                                                                          

>  <MASTER>
        0    0    0    0    0    0    0    0   82    0   82    0          

>  <Name>
DAR.pdb

>  <RI>
-4.54606e+08

>  <Rbt.Current_Directory>
/root/miniconda3/envs/rdock/share/rxdock-2013.1.1_148c5bd1-0/data/ligands/prepped_ligands/DAR

>  <Rbt.Executable>
rbdock/0.1.0

>  <Rbt.Library>
librxdock.so/0.1.0

>  <Rbt.Parameter_File>
/root/miniconda3/envs/rdock/share/rxdock-2013.1.1_148c5bd1-0/data/scripts/dock.prm

>  <Rbt.Receptor>
def.prm

>  <SCORE>
-15.6528

>  <SCORE.INTER>
-6.69966

>  <SCORE.INTER.CONST>
1

>  <SCORE.INTER.POLAR>
0

>  <SCORE.INTER.REPUL>
0.000128879

>  <SCORE.INTER.ROT>
13

>  <SCORE.INTER.VDW>
-25.1003

>  <SCORE.INTER.norm>
-0.148881

>  <SCORE.INTRA>
-10.8799

>  <SCORE.INTRA.DIHEDRAL>
-24.4821

>  <SCORE.INTRA.DIHEDRAL.0>
43.3429

>  <SCORE.INTRA.POLAR>
0

>  <SCORE.INTRA.POLAR.0>
0

>  <SCORE.INTRA.REPUL>
0

>  <SCORE.INTRA.REPUL.0>
0

>  <SCORE.INTRA.VDW>
1.36121

>  <SCORE.INTRA.VDW.0>
-3.00727

>  <SCORE.INTRA.norm>
-0.241774

>  <SCORE.RESTR>
1.30898

>  <SCORE.RESTR.CAVITY>
1.30898

>  <SCORE.RESTR.norm>
0.0290884

>  <SCORE.SYSTEM>
0.617766

>  <SCORE.SYSTEM.CONST>
0

>  <SCORE.SYSTEM.DIHEDRAL>
2.52243

>  <SCORE.SYSTEM.VDW>
-0.643451

>  <SCORE.SYSTEM.norm>
0.0137281

>  <SCORE.heavy>
45

>  <SCORE.norm>
-0.347839

>  <TITLE>
    DAR-DIA-9e4459de-1_D                                                  

$$$$
DAR.pdb
  RxDock  02242110323D
librxdock.so/0.1.0
 49 53  0  0  0  0  0  0  0  0999 V2000
  -52.4797   -3.9114   17.3764 O   0  0  0  0  0  0
  -51.6535   -3.0471   17.6125 C   0  0  0  0  0  0
  -52.0149   -1.5792   17.5994 C   0  0  0  0  0  0
  -51.1699   -0.7698   18.5871 C   0  0  0  0  0  0
  -49.7133   -1.0056   18.1766 C   0  0  0  0  0  0
  -48.7999   -0.2110   19.0119 N   0  0  0  0  0  0
  -47.8173    0.7233   18.4365 C   0  0  0  0  0  0
  -46.8610    0.5898   19.6361 C   0  0  0  0  0  0
  -45.6053    1.4155   19.8184 C   0  0  0  0  0  0
  -45.1267    1.9531   18.6589 N   0  0  0  0  0  0
  -43.6788    2.0132   18.4160 C   0  0  0  0  0  0
  -42.9266    0.7229   18.7794 C   0  0  0  0  0  0
  -43.7722   -0.4702   18.3099 C   0  0  0  0  0  0
  -44.0213   -0.3879   16.7966 C   0  0  0  0  0  0
  -43.7876   -1.7795   16.1909 C   0  0  0  0  0  0
  -44.0694   -1.7526   14.6821 C   0  0  0  0  0  0
  -45.4867   -1.4206   14.4770 N   0  0  0  0  0  0
  -46.4460   -2.2880   14.8703 C   0  0  0  0  0  0
  -46.1908   -3.3654   15.4030 O   0  0  0  0  0  0
  -47.8842   -1.9648   14.6533 C   0  0  0  0  0  0
  -48.2575   -0.8155   13.9838 C   0  0  0  0  0  0
  -49.5812   -0.5334   13.7629 C   0  0  0  0  0  0
  -50.5930   -1.3248   14.1658 N   0  0  0  0  0  0
  -50.2264   -2.4406   14.8164 C   0  0  0  0  0  0
  -48.9152   -2.7964   15.0830 C   0  0  0  0  0  0
  -48.6388   -3.9747   15.7874 N   0  0  0  0  0  0
  -49.3260   -5.1316   15.6969 C   0  0  0  0  0  0
  -50.2798   -5.3192   14.9555 O   0  0  0  0  0  0
  -48.7793   -6.2214   16.5963 C   0  0  0  0  0  0
  -49.8902   -6.8156   17.4424 C   0  0  0  0  0  0
  -51.2068   -6.5354   17.1518 C   0  0  0  0  0  0
  -52.2140   -7.0756   17.9190 C   0  0  0  0  0  0
  -51.9075   -7.8981   18.9791 C   0  0  0  0  0  0
  -50.5919   -8.1812   19.2710 C   0  0  0  0  0  0
  -50.2020   -9.2206   20.6099 Cl  0  0  0  0  0  0
  -49.5845   -7.6400   18.5025 C   0  0  0  0  0  0
  -45.0682    1.5232   21.0440 C   0  0  0  0  0  0
  -45.6981    0.8536   22.1830 C   0  0  0  0  0  0
  -46.9670    0.4562   22.1024 C   0  0  0  0  0  0
  -47.7830    0.6793   20.8553 C   0  0  0  0  0  0
  -48.7974   -0.3066   20.3510 C   0  0  0  0  0  0
  -49.4837   -1.0530   21.0350 O   0  0  0  0  0  0
  -49.3565   -2.4755   18.2117 C   0  0  0  0  0  0
  -48.2326   -2.8536   18.4964 O   0  0  0  0  0  0
  -50.3632   -3.3258   17.9098 N   0  0  0  0  0  0
  -45.6419    2.5119   18.2132 H   0  0  0  0  0  0
  -45.7009   -0.6479   14.1169 H   0  0  0  0  0  0
  -47.9525   -3.9539   16.3349 H   0  0  0  0  0  0
  -50.1525   -4.1810   17.9185 H   0  0  0  0  0  0
  1  2  2  0  0  0
  2  3  1  0  0  0
  2 45  1  0  0  0
  3  4  1  0  0  0
  4  5  1  0  0  0
  5  6  1  0  0  0
  5 43  1  0  0  0
  6  7  1  0  0  0
  6 41  1  0  0  0
  7  8  1  0  0  0
  8  9  1  0  0  0
  8 40  1  0  0  0
  9 10  1  0  0  0
  9 37  2  0  0  0
 10 11  1  0  0  0
 10 46  1  0  0  0
 11 12  1  0  0  0
 12 13  1  0  0  0
 13 14  1  0  0  0
 14 15  1  0  0  0
 15 16  1  0  0  0
 16 17  1  0  0  0
 17 18  1  0  0  0
 17 47  1  0  0  0
 18 19  2  0  0  0
 18 20  1  0  0  0
 20 21  2  0  0  0
 20 25  1  0  0  0
 21 22  1  0  0  0
 22 23  2  0  0  0
 23 24  1  0  0  0
 24 25  2  0  0  0
 25 26  1  0  0  0
 26 27  1  0  0  0
 26 48  1  0  0  0
 27 28  2  0  0  0
 27 29  1  0  0  0
 29 30  1  0  0  0
 30 31  2  0  0  0
 30 36  1  0  0  0
 31 32  1  0  0  0
 32 33  2  0  0  0
 33 34  1  0  0  0
 34 35  1  0  0  0
 34 36  2  0  0  0
 37 38  1  0  0  0
 38 39  2  0  0  0
 39 40  1  0  0  0
 40 41  1  0  0  0
 41 42  2  0  0  0
 43 44  2  0  0  0
 43 45  1  0  0  0
 45 49  1  0  0  0
M  END
>  <CHROM.0>
-65.79379380,-173.54881326,-80.32431476

>  <CHROM.1>
-124.86428683,-141.25577467,44.26584790,41.41020199,58.49360347,135.17143646
178.22641541,-62.88921220,-66.66087215,3.62526125,-144.81676301,128.32908010
12.30890030,-48.30025878,-2.55041463,17.74003523,2.96455521,-0.92199718,-1.72715252

>  <HEADER>
                                                                          

>  <MASTER>
        0    0    0    0    0    0    0    0   82    0   82    0          

>  <Name>
DAR.pdb

>  <RI>
-4.54606e+08

>  <Rbt.Current_Directory>
/root/miniconda3/envs/rdock/share/rxdock-2013.1.1_148c5bd1-0/data/ligands/prepped_ligands/DAR

>  <Rbt.Executable>
rbdock/0.1.0

>  <Rbt.Library>
librxdock.so/0.1.0

>  <Rbt.Parameter_File>
/root/miniconda3/envs/rdock/share/rxdock-2013.1.1_148c5bd1-0/data/scripts/dock.prm

>  <Rbt.Receptor>
def.prm

>  <SCORE>
-24.8006

>  <SCORE.INTER>
-9.63816

>  <SCORE.INTER.CONST>
1

>  <SCORE.INTER.POLAR>
-0.32003

>  <SCORE.INTER.REPUL>
0.0300786

>  <SCORE.INTER.ROT>
13

>  <SCORE.INTER.VDW>
-27.1004

>  <SCORE.INTER.norm>
-0.214181

>  <SCORE.INTRA>
-14.7762

>  <SCORE.INTRA.DIHEDRAL>
-25.88

>  <SCORE.INTRA.DIHEDRAL.0>
43.3429

>  <SCORE.INTRA.POLAR>
-0.0215147

>  <SCORE.INTRA.POLAR.0>
0

>  <SCORE.INTRA.REPUL>
0

>  <SCORE.INTRA.REPUL.0>
0

>  <SCORE.INTRA.VDW>
-1.76301

>  <SCORE.INTRA.VDW.0>
-3.00727

>  <SCORE.INTRA.norm>
-0.32836

>  <SCORE.RESTR>
0.031211

>  <SCORE.RESTR.CAVITY>
0.031211

>  <SCORE.RESTR.norm>
0.000693578

>  <SCORE.SYSTEM>
-0.417454

>  <SCORE.SYSTEM.CONST>
0

>  <SCORE.SYSTEM.DIHEDRAL>
1.2302

>  <SCORE.SYSTEM.VDW>
-1.03255

>  <SCORE.SYSTEM.norm>
-0.00927676

>  <SCORE.heavy>
45

>  <SCORE.norm>
-0.551124

>  <TITLE>
    DAR-DIA-9e4459de-1_D                                                  

$$$$
DAR.pdb
  RxDock  02242110323D
librxdock.so/0.1.0
 49 53  0  0  0  0  0  0  0  0999 V2000
  -44.8192    1.0284   23.7517 O   0  0  0  0  0  0
  -45.0362    0.9563   22.5546 C   0  0  0  0  0  0
  -44.7548    2.1156   21.6260 C   0  0  0  0  0  0
  -44.3654    1.6463   20.2214 C   0  0  0  0  0  0
  -45.5368    0.7901   19.7311 C   0  0  0  0  0  0
  -45.3127    0.3403   18.3488 N   0  0  0  0  0  0
  -46.3848    0.3323   17.3389 C   0  0  0  0  0  0
  -45.7361   -0.8104   16.5358 C   0  0  0  0  0  0
  -46.2468   -1.3074   15.2003 C   0  0  0  0  0  0
  -47.5571   -1.0065   14.9652 N   0  0  0  0  0  0
  -48.4033   -1.9377   14.2062 C   0  0  0  0  0  0
  -49.8916   -1.5548   14.1792 C   0  0  0  0  0  0
  -50.3544   -1.3378   15.6275 C   0  0  0  0  0  0
  -50.1264   -2.6089   16.4589 C   0  0  0  0  0  0
  -51.2817   -3.5821   16.1826 C   0  0  0  0  0  0
  -50.9532   -4.4598   14.9667 C   0  0  0  0  0  0
  -51.8735   -5.6060   14.9551 N   0  0  0  0  0  0
  -53.2022   -5.4024   14.8120 C   0  0  0  0  0  0
  -53.6941   -4.2832   14.6881 O   0  0  0  0  0  0
  -54.1426   -6.5580   14.8132 C   0  0  0  0  0  0
  -55.2144   -6.5983   13.9425 C   0  0  0  0  0  0
  -56.0637   -7.6750   13.9280 C   0  0  0  0  0  0
  -55.9293   -8.7458   14.7328 N   0  0  0  0  0  0
  -54.8868   -8.7029   15.5778 C   0  0  0  0  0  0
  -53.9868   -7.6538   15.6583 C   0  0  0  0  0  0
  -52.9420   -7.6974   16.5896 N   0  0  0  0  0  0
  -52.5245   -6.6727   17.3605 C   0  0  0  0  0  0
  -53.0279   -5.5586   17.3710 O   0  0  0  0  0  0
  -51.3638   -7.0398   18.2624 C   0  0  0  0  0  0
  -51.7739   -6.9380   19.7200 C   0  0  0  0  0  0
  -51.9852   -5.7048   20.2950 C   0  0  0  0  0  0
  -52.3582   -5.6133   21.6169 C   0  0  0  0  0  0
  -52.5214   -6.7552   22.3677 C   0  0  0  0  0  0
  -52.3122   -7.9898   21.7948 C   0  0  0  0  0  0
  -52.5181   -9.4343   22.7415 Cl  0  0  0  0  0  0
  -51.9388   -8.0803   20.4716 C   0  0  0  0  0  0
  -45.4187   -2.0003   14.4026 C   0  0  0  0  0  0
  -44.0413   -2.2612   14.8237 C   0  0  0  0  0  0
  -43.4909   -1.5276   15.7899 C   0  0  0  0  0  0
  -44.2563   -0.4224   16.4706 C   0  0  0  0  0  0
  -44.1175   -0.1077   17.9325 C   0  0  0  0  0  0
  -43.1070   -0.2403   18.6087 O   0  0  0  0  0  0
  -45.7977   -0.3780   20.6569 C   0  0  0  0  0  0
  -46.2172   -1.4437   20.2382 O   0  0  0  0  0  0
  -45.5328   -0.1550   21.9636 N   0  0  0  0  0  0
  -47.8051   -0.1619   15.0014 H   0  0  0  0  0  0
  -51.5491   -6.4202   15.0213 H   0  0  0  0  0  0
  -52.5255   -8.4655   16.6777 H   0  0  0  0  0  0
  -45.6959   -0.8309   22.5042 H   0  0  0  0  0  0
  1  2  2  0  0  0
  2  3  1  0  0  0
  2 45  1  0  0  0
  3  4  1  0  0  0
  4  5  1  0  0  0
  5  6  1  0  0  0
  5 43  1  0  0  0
  6  7  1  0  0  0
  6 41  1  0  0  0
  7  8  1  0  0  0
  8  9  1  0  0  0
  8 40  1  0  0  0
  9 10  1  0  0  0
  9 37  2  0  0  0
 10 11  1  0  0  0
 10 46  1  0  0  0
 11 12  1  0  0  0
 12 13  1  0  0  0
 13 14  1  0  0  0
 14 15  1  0  0  0
 15 16  1  0  0  0
 16 17  1  0  0  0
 17 18  1  0  0  0
 17 47  1  0  0  0
 18 19  2  0  0  0
 18 20  1  0  0  0
 20 21  2  0  0  0
 20 25  1  0  0  0
 21 22  1  0  0  0
 22 23  2  0  0  0
 23 24  1  0  0  0
 24 25  2  0  0  0
 25 26  1  0  0  0
 26 27  1  0  0  0
 26 48  1  0  0  0
 27 28  2  0  0  0
 27 29  1  0  0  0
 29 30  1  0  0  0
 30 31  2  0  0  0
 30 36  1  0  0  0
 31 32  1  0  0  0
 32 33  2  0  0  0
 33 34  1  0  0  0
 34 35  1  0  0  0
 34 36  2  0  0  0
 37 38  1  0  0  0
 38 39  2  0  0  0
 39 40  1  0  0  0
 40 41  1  0  0  0
 41 42  2  0  0  0
 43 44  2  0  0  0
 43 45  1  0  0  0
 45 49  1  0  0  0
M  END
>  <CHROM.0>
-73.23684510,-69.20720208,172.71739486

>  <CHROM.1>
-138.25036812,-145.93533385,172.41010266,-52.34136341,-58.33419198,-80.77515872
87.92107555,164.33950483,63.14017623,-139.82903701,41.97125725,-116.10944167
-71.20337914,-49.46790534,-3.66906985,17.83811154,-0.00331097,0.72306210
1.79478627

>  <HEADER>
                                                                          

>  <MASTER>
        0    0    0    0    0    0    0    0   82    0   82    0          

>  <Name>
DAR.pdb

>  <RI>
-4.54606e+08

>  <Rbt.Current_Directory>
/root/miniconda3/envs/rdock/share/rxdock-2013.1.1_148c5bd1-0/data/ligands/prepped_ligands/DAR

>  <Rbt.Executable>
rbdock/0.1.0

>  <Rbt.Library>
librxdock.so/0.1.0

>  <Rbt.Parameter_File>
/root/miniconda3/envs/rdock/share/rxdock-2013.1.1_148c5bd1-0/data/scripts/dock.prm

>  <Rbt.Receptor>
def.prm

>  <SCORE>
-18.4767

>  <SCORE.INTER>
-13.8056

>  <SCORE.INTER.CONST>
1

>  <SCORE.INTER.POLAR>
-1.09584

>  <SCORE.INTER.REPUL>
0.0287401

>  <SCORE.INTER.ROT>
13

>  <SCORE.INTER.VDW>
-28.6234

>  <SCORE.INTER.norm>
-0.30679

>  <SCORE.INTRA>
-7.04696

>  <SCORE.INTRA.DIHEDRAL>
-20.004

>  <SCORE.INTRA.DIHEDRAL.0>
43.3429

>  <SCORE.INTRA.POLAR>
0

>  <SCORE.INTRA.POLAR.0>
0

>  <SCORE.INTRA.REPUL>
0

>  <SCORE.INTRA.REPUL.0>
0

>  <SCORE.INTRA.VDW>
2.95505

>  <SCORE.INTRA.VDW.0>
-3.00727

>  <SCORE.INTRA.norm>
-0.156599

>  <SCORE.RESTR>
3.0006

>  <SCORE.RESTR.CAVITY>
3.0006

>  <SCORE.RESTR.norm>
0.0666799

>  <SCORE.SYSTEM>
-0.624782

>  <SCORE.SYSTEM.CONST>
0

>  <SCORE.SYSTEM.DIHEDRAL>
0.969861

>  <SCORE.SYSTEM.VDW>
-1.10971

>  <SCORE.SYSTEM.norm>
-0.013884

>  <SCORE.heavy>
45

>  <SCORE.norm>
-0.410594

>  <TITLE>
    DAR-DIA-9e4459de-1_D                                                  

$$$$
DAR.pdb
  RxDock  02242110323D
librxdock.so/0.1.0
 49 53  0  0  0  0  0  0  0  0999 V2000
  -46.1115   -3.2220   13.6546 O   0  0  0  0  0  0
  -45.5246   -2.8858   14.6685 C   0  0  0  0  0  0
  -44.1292   -2.3059   14.6223 C   0  0  0  0  0  0
  -43.8830   -1.3082   15.7575 C   0  0  0  0  0  0
  -44.1393   -2.0834   17.0533 C   0  0  0  0  0  0
  -43.8575   -1.2448   18.2284 N   0  0  0  0  0  0
  -43.9574   -1.7582   19.6053 C   0  0  0  0  0  0
  -44.2631   -0.3677   20.1921 C   0  0  0  0  0  0
  -44.3718   -0.0753   21.6735 C   0  0  0  0  0  0
  -44.6354   -1.1771   22.4344 N   0  0  0  0  0  0
  -45.9049   -1.2814   23.1670 C   0  0  0  0  0  0
  -47.1429   -1.4045   22.2644 C   0  0  0  0  0  0
  -47.2907   -0.0946   21.4764 C   0  0  0  0  0  0
  -48.0760   -0.3355   20.1787 C   0  0  0  0  0  0
  -47.3036    0.3090   19.0184 C   0  0  0  0  0  0
  -48.1808    1.3557   18.3173 C   0  0  0  0  0  0
  -49.1157    0.6584   17.4225 N   0  0  0  0  0  0
  -48.6466   -0.0083   16.3442 C   0  0  0  0  0  0
  -47.4513   -0.0642   16.0648 O   0  0  0  0  0  0
  -49.5891   -0.7058   15.4249 C   0  0  0  0  0  0
  -49.8626   -0.1941   14.1711 C   0  0  0  0  0  0
  -50.7106   -0.8516   13.3171 C   0  0  0  0  0  0
  -51.3265   -2.0103   13.6180 N   0  0  0  0  0  0
  -51.0585   -2.5043   14.8374 C   0  0  0  0  0  0
  -50.2189   -1.9019   15.7590 C   0  0  0  0  0  0
  -50.0204   -2.4898   17.0143 N   0  0  0  0  0  0
  -49.1059   -3.4357   17.3106 C   0  0  0  0  0  0
  -48.2957   -3.8938   16.5180 O   0  0  0  0  0  0
  -49.1487   -3.8726   18.7607 C   0  0  0  0  0  0
  -50.3595   -4.7521   19.0125 C   0  0  0  0  0  0
  -50.5489   -5.8974   18.2719 C   0  0  0  0  0  0
  -51.6469   -6.6954   18.5016 C   0  0  0  0  0  0
  -52.5587   -6.3502   19.4731 C   0  0  0  0  0  0
  -52.3710   -5.2062   20.2162 C   0  0  0  0  0  0
  -53.5216   -4.7681   21.4446 Cl  0  0  0  0  0  0
  -51.2716   -4.4082   19.9855 C   0  0  0  0  0  0
  -44.2380    1.1908   22.0995 C   0  0  0  0  0  0
  -43.9846    2.2657   21.1388 C   0  0  0  0  0  0
  -43.5243    1.9760   19.9227 C   0  0  0  0  0  0
  -43.2538    0.5544   19.5025 C   0  0  0  0  0  0
  -43.5097    0.0466   18.1125 C   0  0  0  0  0  0
  -43.4201    0.6928   17.0779 O   0  0  0  0  0  0
  -45.5443   -2.6431   17.0980 C   0  0  0  0  0  0
  -46.1517   -2.7617   18.1488 O   0  0  0  0  0  0
  -46.0687   -2.9947   15.9026 N   0  0  0  0  0  0
  -43.9563   -1.6620   22.7174 H   0  0  0  0  0  0
  -49.9750    0.6635   17.6078 H   0  0  0  0  0  0
  -50.5399   -2.2116   17.6655 H   0  0  0  0  0  0
  -46.8820   -3.3317   15.9298 H   0  0  0  0  0  0
  1  2  2  0  0  0
  2  3  1  0  0  0
  2 45  1  0  0  0
  3  4  1  0  0  0
  4  5  1  0  0  0
  5  6  1  0  0  0
  5 43  1  0  0  0
  6  7  1  0  0  0
  6 41  1  0  0  0
  7  8  1  0  0  0
  8  9  1  0  0  0
  8 40  1  0  0  0
  9 10  1  0  0  0
  9 37  2  0  0  0
 10 11  1  0  0  0
 10 46  1  0  0  0
 11 12  1  0  0  0
 12 13  1  0  0  0
 13 14  1  0  0  0
 14 15  1  0  0  0
 15 16  1  0  0  0
 16 17  1  0  0  0
 17 18  1  0  0  0
 17 47  1  0  0  0
 18 19  2  0  0  0
 18 20  1  0  0  0
 20 21  2  0  0  0
 20 25  1  0  0  0
 21 22  1  0  0  0
 22 23  2  0  0  0
 23 24  1  0  0  0
 24 25  2  0  0  0
 25 26  1  0  0  0
 26 27  1  0  0  0
 26 48  1  0  0  0
 27 28  2  0  0  0
 27 29  1  0  0  0
 29 30  1  0  0  0
 30 31  2  0  0  0
 30 36  1  0  0  0
 31 32  1  0  0  0
 32 33  2  0  0  0
 33 34  1  0  0  0
 34 35  1  0  0  0
 34 36  2  0  0  0
 37 38  1  0  0  0
 38 39  2  0  0  0
 39 40  1  0  0  0
 40 41  1  0  0  0
 41 42  2  0  0  0
 43 44  2  0  0  0
 43 45  1  0  0  0
 45 49  1  0  0  0
M  END
>  <CHROM.0>
-63.82591676,-148.74243758,-64.66418782

>  <CHROM.1>
-176.98601428,-114.93463145,66.68056881,-65.47487714,155.75114480,-131.32165574
-121.27854330,-79.09722489,-66.40629572,106.82425142,-93.95088500,74.16378633
56.59634982,-47.61899861,-1.84249351,18.20593842,-0.10213532,-0.52412057
-1.55518751

>  <HEADER>
                                                                          

>  <MASTER>
        0    0    0    0    0    0    0    0   82    0   82    0          

>  <Name>
DAR.pdb

>  <RI>
-4.54606e+08

>  <Rbt.Current_Directory>
/root/miniconda3/envs/rdock/share/rxdock-2013.1.1_148c5bd1-0/data/ligands/prepped_ligands/DAR

>  <Rbt.Executable>
rbdock/0.1.0

>  <Rbt.Library>
librxdock.so/0.1.0

>  <Rbt.Parameter_File>
/root/miniconda3/envs/rdock/share/rxdock-2013.1.1_148c5bd1-0/data/scripts/dock.prm

>  <Rbt.Receptor>
def.prm

>  <SCORE>
1.02785

>  <SCORE.INTER>
-1.02779

>  <SCORE.INTER.CONST>
1

>  <SCORE.INTER.POLAR>
-0.50084

>  <SCORE.INTER.REPUL>
0.363171

>  <SCORE.INTER.ROT>
13

>  <SCORE.INTER.VDW>
-19.5408

>  <SCORE.INTER.norm>
-0.0228398

>  <SCORE.INTRA>
0.46479

>  <SCORE.INTRA.DIHEDRAL>
3.59775

>  <SCORE.INTRA.DIHEDRAL.0>
43.3429

>  <SCORE.INTRA.POLAR>
-0.33104

>  <SCORE.INTRA.POLAR.0>
0

>  <SCORE.INTRA.REPUL>
0

>  <SCORE.INTRA.REPUL.0>
0

>  <SCORE.INTRA.VDW>
-0.208547

>  <SCORE.INTRA.VDW.0>
-3.00727

>  <SCORE.INTRA.norm>
0.0103287

>  <SCORE.RESTR>
0.782359

>  <SCORE.RESTR.CAVITY>
0.782359

>  <SCORE.RESTR.norm>
0.0173858

>  <SCORE.SYSTEM>
0.808496

>  <SCORE.SYSTEM.CONST>
0

>  <SCORE.SYSTEM.DIHEDRAL>
3.93305

>  <SCORE.SYSTEM.VDW>
-1.15803

>  <SCORE.SYSTEM.norm>
0.0179666

>  <SCORE.heavy>
45

>  <SCORE.norm>
0.0228412

>  <TITLE>
    DAR-DIA-9e4459de-1_D                                                  

$$$$
DAR.pdb
  RxDock  02242110323D
librxdock.so/0.1.0
 49 53  0  0  0  0  0  0  0  0999 V2000
  -41.1195   -0.0061   19.3743 O   0  0  0  0  0  0
  -42.3357    0.0361   19.3076 C   0  0  0  0  0  0
  -43.1121    1.2582   19.7424 C   0  0  0  0  0  0
  -44.4028    1.4361   18.9378 C   0  0  0  0  0  0
  -45.2013    0.1457   19.1448 C   0  0  0  0  0  0
  -46.5091    0.2276   18.4768 N   0  0  0  0  0  0
  -47.7778    0.2279   19.2252 C   0  0  0  0  0  0
  -48.5689   -0.3775   18.0509 C   0  0  0  0  0  0
  -50.0715   -0.5614   18.0431 C   0  0  0  0  0  0
  -50.6295   -0.5874   19.2883 N   0  0  0  0  0  0
  -51.9815   -1.1302   19.4797 C   0  0  0  0  0  0
  -52.1004   -2.1238   20.6464 C   0  0  0  0  0  0
  -52.7981   -3.3890   20.1259 C   0  0  0  0  0  0
  -53.5344   -4.1036   21.2688 C   0  0  0  0  0  0
  -52.7867   -5.4067   21.5866 C   0  0  0  0  0  0
  -51.2748   -5.1470   21.6451 C   0  0  0  0  0  0
  -50.6279   -5.9062   20.5652 N   0  0  0  0  0  0
  -50.7677   -7.2495   20.5081 C   0  0  0  0  0  0
  -51.4224   -7.8858   21.3305 O   0  0  0  0  0  0
  -50.1037   -8.0275   19.4247 C   0  0  0  0  0  0
  -49.7494   -9.3487   19.6181 C   0  0  0  0  0  0
  -49.1617  -10.0699   18.6106 C   0  0  0  0  0  0
  -48.8899   -9.5689   17.3910 N   0  0  0  0  0  0
  -49.2353   -8.2845   17.2069 C   0  0  0  0  0  0
  -49.8278   -7.4871   18.1713 C   0  0  0  0  0  0
  -50.1319   -6.1506   17.8846 N   0  0  0  0  0  0
  -51.3371   -5.6750   17.5102 C   0  0  0  0  0  0
  -52.3485   -6.3522   17.3965 O   0  0  0  0  0  0
  -51.3380   -4.1798   17.2657 C   0  0  0  0  0  0
  -50.1016   -3.7706   16.4866 C   0  0  0  0  0  0
  -48.9450   -3.4312   17.1523 C   0  0  0  0  0  0
  -47.8235   -3.0612   16.4449 C   0  0  0  0  0  0
  -47.8555   -3.0298   15.0692 C   0  0  0  0  0  0
  -49.0104   -3.3702   14.4010 C   0  0  0  0  0  0
  -49.0531   -3.3316   12.6627 Cl  0  0  0  0  0  0
  -50.1323   -3.7404   15.1100 C   0  0  0  0  0  0
  -50.7040   -0.7092   16.8682 C   0  0  0  0  0  0
  -49.9443   -0.6853   15.6173 C   0  0  0  0  0  0
  -48.7198   -0.1614   15.5928 C   0  0  0  0  0  0
  -48.0862    0.4147   16.8327 C   0  0  0  0  0  0
  -46.6216    0.2885   17.1404 C   0  0  0  0  0  0
  -45.7116    0.2461   16.3243 O   0  0  0  0  0  0
  -44.4231   -1.0691   18.6888 C   0  0  0  0  0  0
  -44.9814   -2.0461   18.2188 O   0  0  0  0  0  0
  -43.0817   -0.9903   18.8377 N   0  0  0  0  0  0
  -50.3201   -0.0304   19.8968 H   0  0  0  0  0  0
  -50.1698   -5.4764   19.9504 H   0  0  0  0  0  0
  -49.4748   -5.5728   17.9596 H   0  0  0  0  0  0
  -42.6296   -1.7021   18.5835 H   0  0  0  0  0  0
  1  2  2  0  0  0
  2  3  1  0  0  0
  2 45  1  0  0  0
  3  4  1  0  0  0
  4  5  1  0  0  0
  5  6  1  0  0  0
  5 43  1  0  0  0
  6  7  1  0  0  0
  6 41  1  0  0  0
  7  8  1  0  0  0
  8  9  1  0  0  0
  8 40  1  0  0  0
  9 10  1  0  0  0
  9 37  2  0  0  0
 10 11  1  0  0  0
 10 46  1  0  0  0
 11 12  1  0  0  0
 12 13  1  0  0  0
 13 14  1  0  0  0
 14 15  1  0  0  0
 15 16  1  0  0  0
 16 17  1  0  0  0
 17 18  1  0  0  0
 17 47  1  0  0  0
 18 19  2  0  0  0
 18 20  1  0  0  0
 20 21  2  0  0  0
 20 25  1  0  0  0
 21 22  1  0  0  0
 22 23  2  0  0  0
 23 24  1  0  0  0
 24 25  2  0  0  0
 25 26  1  0  0  0
 26 27  1  0  0  0
 26 48  1  0  0  0
 27 28  2  0  0  0
 27 29  1  0  0  0
 29 30  1  0  0  0
 30 31  2  0  0  0
 30 36  1  0  0  0
 31 32  1  0  0  0
 32 33  2  0  0  0
 33 34  1  0  0  0
 34 35  1  0  0  0
 34 36  2  0  0  0
 37 38  1  0  0  0
 38 39  2  0  0  0
 39 40  1  0  0  0
 40 41  1  0  0  0
 41 42  2  0  0  0
 43 44  2  0  0  0
 43 45  1  0  0  0
 45 49  1  0  0  0
M  END
>  <CHROM.0>
46.47195103,-171.21290417,-95.55053321

>  <CHROM.1>
-114.49746303,-162.55538152,132.30580819,-129.45248619,-153.08242766,-109.55816222
44.92264919,-116.05922280,-58.43563004,152.81436524,-82.48918918,43.27045230
-89.26507014,-48.75277446,-3.19066942,18.04785760,-0.38438093,0.77805348
1.94292009

>  <HEADER>
                                                                          

>  <MASTER>
        0    0    0    0    0    0    0    0   82    0   82    0          

>  <Name>
DAR.pdb

>  <RI>
-4.54606e+08

>  <Rbt.Current_Directory>
/root/miniconda3/envs/rdock/share/rxdock-2013.1.1_148c5bd1-0/data/ligands/prepped_ligands/DAR

>  <Rbt.Executable>
rbdock/0.1.0

>  <Rbt.Library>
librxdock.so/0.1.0

>  <Rbt.Parameter_File>
/root/miniconda3/envs/rdock/share/rxdock-2013.1.1_148c5bd1-0/data/scripts/dock.prm

>  <Rbt.Receptor>
def.prm

>  <SCORE>
-3.616

>  <SCORE.INTER>
-3.1309

>  <SCORE.INTER.CONST>
1

>  <SCORE.INTER.POLAR>
-0.00507379

>  <SCORE.INTER.REPUL>
0.0140562

>  <SCORE.INTER.ROT>
13

>  <SCORE.INTER.VDW>
-21.5839

>  <SCORE.INTER.norm>
-0.0695757

>  <SCORE.INTRA>
-1.3308

>  <SCORE.INTRA.DIHEDRAL>
-0.995201

>  <SCORE.INTRA.DIHEDRAL.0>
43.3429

>  <SCORE.INTRA.POLAR>
0

>  <SCORE.INTRA.POLAR.0>
0

>  <SCORE.INTRA.REPUL>
0

>  <SCORE.INTRA.REPUL.0>
0

>  <SCORE.INTRA.VDW>
-0.833203

>  <SCORE.INTRA.VDW.0>
-3.00727

>  <SCORE.INTRA.norm>
-0.0295734

>  <SCORE.RESTR>
0.0389596

>  <SCORE.RESTR.CAVITY>
0.0389596

>  <SCORE.RESTR.norm>
0.00086577

>  <SCORE.SYSTEM>
0.806745

>  <SCORE.SYSTEM.CONST>
0

>  <SCORE.SYSTEM.DIHEDRAL>
3.14728

>  <SCORE.SYSTEM.VDW>
-0.766895

>  <SCORE.SYSTEM.norm>
0.0179277

>  <SCORE.heavy>
45

>  <SCORE.norm>
-0.0803557

>  <TITLE>
    DAR-DIA-9e4459de-1_D                                                  

$$$$
DAR.pdb
  RxDock  02242110323D
librxdock.so/0.1.0
 49 53  0  0  0  0  0  0  0  0999 V2000
  -47.4640    0.5519   13.0830 O   0  0  0  0  0  0
  -47.9652   -0.3600   13.7175 C   0  0  0  0  0  0
  -47.9801   -0.3605   15.2292 C   0  0  0  0  0  0
  -49.2074   -1.0825   15.7922 C   0  0  0  0  0  0
  -49.1526   -2.5016   15.2188 C   0  0  0  0  0  0
  -50.2484   -3.3241   15.7536 N   0  0  0  0  0  0
  -50.0098   -4.4707   16.6469 C   0  0  0  0  0  0
  -51.2992   -5.1894   16.2083 C   0  0  0  0  0  0
  -51.8193   -6.4632   16.8396 C   0  0  0  0  0  0
  -50.8639   -7.1811   17.4986 N   0  0  0  0  0  0
  -51.2351   -8.3884   18.2495 C   0  0  0  0  0  0
  -51.3553   -8.1727   19.7666 C   0  0  0  0  0  0
  -49.9904   -7.7030   20.2911 C   0  0  0  0  0  0
  -50.1667   -6.5357   21.2735 C   0  0  0  0  0  0
  -50.7427   -5.3380   20.5043 C   0  0  0  0  0  0
  -49.6616   -4.2654   20.3109 C   0  0  0  0  0  0
  -50.2926   -3.0608   19.7526 N   0  0  0  0  0  0
  -49.5397   -1.9738   19.4718 C   0  0  0  0  0  0
  -48.3264   -1.9376   19.6628 O   0  0  0  0  0  0
  -50.1740   -0.7444   18.9187 C   0  0  0  0  0  0
  -51.5257   -0.7125   18.6351 C   0  0  0  0  0  0
  -52.1119    0.4285   18.1502 C   0  0  0  0  0  0
  -51.4432    1.5735   17.9179 N   0  0  0  0  0  0
  -50.1297    1.5386   18.1943 C   0  0  0  0  0  0
  -49.4614    0.4283   18.6817 C   0  0  0  0  0  0
  -48.0828    0.4894   18.9196 N   0  0  0  0  0  0
  -47.3094    1.5896   18.8192 C   0  0  0  0  0  0
  -47.7187    2.7048   18.5303 O   0  0  0  0  0  0
  -45.8516    1.3242   19.1352 C   0  0  0  0  0  0
  -45.3623    0.0995   18.3845 C   0  0  0  0  0  0
  -44.9590   -1.0209   19.0761 C   0  0  0  0  0  0
  -44.5162   -2.1318   18.3945 C   0  0  0  0  0  0
  -44.4758   -2.1257   17.0187 C   0  0  0  0  0  0
  -44.8799   -1.0073   16.3245 C   0  0  0  0  0  0
  -44.8300   -0.9972   14.5860 Cl  0  0  0  0  0  0
  -45.3229    0.1042   17.0078 C   0  0  0  0  0  0
  -53.1125   -6.7878   16.6824 C   0  0  0  0  0  0
  -54.0008   -5.9132   15.9152 C   0  0  0  0  0  0
  -53.6545   -4.6471   15.6885 C   0  0  0  0  0  0
  -52.3569   -4.0822   16.2061 C   0  0  0  0  0  0
  -51.5324   -3.0864   15.4418 C   0  0  0  0  0  0
  -51.9562   -2.2285   14.6801 O   0  0  0  0  0  0
  -49.1575   -2.4907   13.7058 C   0  0  0  0  0  0
  -49.6804   -3.3849   13.0621 O   0  0  0  0  0  0
  -48.5493   -1.4297   13.1297 N   0  0  0  0  0  0
  -50.1128   -6.7756   17.7173 H   0  0  0  0  0  0
  -51.1556   -3.0639   19.5859 H   0  0  0  0  0  0
  -47.6913   -0.2596   19.1584 H   0  0  0  0  0  0
  -48.5416   -1.4293   12.2490 H   0  0  0  0  0  0
  1  2  2  0  0  0
  2  3  1  0  0  0
  2 45  1  0  0  0
  3  4  1  0  0  0
  4  5  1  0  0  0
  5  6  1  0  0  0
  5 43  1  0  0  0
  6  7  1  0  0  0
  6 41  1  0  0  0
  7  8  1  0  0  0
  8  9  1  0  0  0
  8 40  1  0  0  0
  9 10  1  0  0  0
  9 37  2  0  0  0
 10 11  1  0  0  0
 10 46  1  0  0  0
 11 12  1  0  0  0
 12 13  1  0  0  0
 13 14  1  0  0  0
 14 15  1  0  0  0
 15 16  1  0  0  0
 16 17  1  0  0  0
 17 18  1  0  0  0
 17 47  1  0  0  0
 18 19  2  0  0  0
 18 20  1  0  0  0
 20 21  2  0  0  0
 20 25  1  0  0  0
 21 22  1  0  0  0
 22 23  2  0  0  0
 23 24  1  0  0  0
 24 25  2  0  0  0
 25 26  1  0  0  0
 26 27  1  0  0  0
 26 48  1  0  0  0
 27 28  2  0  0  0
 27 29  1  0  0  0
 29 30  1  0  0  0
 30 31  2  0  0  0
 30 36  1  0  0  0
 31 32  1  0  0  0
 32 33  2  0  0  0
 33 34  1  0  0  0
 34 35  1  0  0  0
 34 36  2  0  0  0
 37 38  1  0  0  0
 38 39  2  0  0  0
 39 40  1  0  0  0
 40 41  1  0  0  0
 41 42  2  0  0  0
 43 44  2  0  0  0
 43 45  1  0  0  0
 45 49  1  0  0  0
M  END
>  <CHROM.0>
-66.11389430,-61.72883677,-42.06632881

>  <CHROM.1>
-113.11013157,175.33359229,-100.42303377,-60.42284438,135.80304154,-64.99514627
-107.04062703,-171.75391810,-179.02603558,-2.58675040,-174.94864311,48.26097739
-115.89661103,-49.17585399,-2.41072323,17.15184068,0.36461723,-0.84308005
-1.28228427

>  <HEADER>
                                                                          

>  <MASTER>
        0    0    0    0    0    0    0    0   82    0   82    0          

>  <Name>
DAR.pdb

>  <RI>
-4.54606e+08

>  <Rbt.Current_Directory>
/root/miniconda3/envs/rdock/share/rxdock-2013.1.1_148c5bd1-0/data/ligands/prepped_ligands/DAR

>  <Rbt.Executable>
rbdock/0.1.0

>  <Rbt.Library>
librxdock.so/0.1.0

>  <Rbt.Parameter_File>
/root/miniconda3/envs/rdock/share/rxdock-2013.1.1_148c5bd1-0/data/scripts/dock.prm

>  <Rbt.Receptor>
def.prm

>  <SCORE>
-39.1071

>  <SCORE.INTER>
-21.9609

>  <SCORE.INTER.CONST>
1

>  <SCORE.INTER.POLAR>
-3.07209

>  <SCORE.INTER.REPUL>
0.0829848

>  <SCORE.INTER.ROT>
13

>  <SCORE.INTER.VDW>
-30.3308

>  <SCORE.INTER.norm>
-0.488021

>  <SCORE.INTRA>
-16.6231

>  <SCORE.INTRA.DIHEDRAL>
-25.2471

>  <SCORE.INTRA.DIHEDRAL.0>
43.3429

>  <SCORE.INTRA.POLAR>
-0.16666

>  <SCORE.INTRA.POLAR.0>
0

>  <SCORE.INTRA.REPUL>
0

>  <SCORE.INTRA.REPUL.0>
0

>  <SCORE.INTRA.VDW>
-3.43293

>  <SCORE.INTRA.VDW.0>
-3.00727

>  <SCORE.INTRA.norm>
-0.369403

>  <SCORE.RESTR>
0.00422642

>  <SCORE.RESTR.CAVITY>
0.00422642

>  <SCORE.RESTR.norm>
9.39205e-05

>  <SCORE.SYSTEM>
-0.527251

>  <SCORE.SYSTEM.CONST>
0

>  <SCORE.SYSTEM.DIHEDRAL>
0.835144

>  <SCORE.SYSTEM.POLAR>
-0.019929

>  <SCORE.SYSTEM.VDW>
-0.877064

>  <SCORE.SYSTEM.norm>
-0.0117167

>  <SCORE.heavy>
45

>  <SCORE.norm>
-0.869046

>  <TITLE>
    DAR-DIA-9e4459de-1_D                                                  

$$$$
DAR.pdb
  RxDock  02242110323D
librxdock.so/0.1.0
 49 53  0  0  0  0  0  0  0  0999 V2000
  -51.4885   -8.8697   18.4637 O   0  0  0  0  0  0
  -51.2554   -7.7825   18.9627 C   0  0  0  0  0  0
  -50.4139   -7.6466   20.2112 C   0  0  0  0  0  0
  -49.6382   -6.3266   20.2413 C   0  0  0  0  0  0
  -50.6949   -5.2227   20.1389 C   0  0  0  0  0  0
  -50.0729   -3.8934   20.2358 N   0  0  0  0  0  0
  -50.0081   -2.9682   19.0916 C   0  0  0  0  0  0
  -48.7430   -2.2675   19.6208 C   0  0  0  0  0  0
  -48.1224   -1.0409   18.9870 C   0  0  0  0  0  0
  -48.4689   -0.8617   17.6792 N   0  0  0  0  0  0
  -48.7429    0.4880   17.1668 C   0  0  0  0  0  0
  -50.1041    0.6301   16.4670 C   0  0  0  0  0  0
  -50.2868   -0.5736   15.5307 C   0  0  0  0  0  0
  -50.4663   -0.1018   14.0802 C   0  0  0  0  0  0
  -49.1407    0.5081   13.6017 C   0  0  0  0  0  0
  -48.2722   -0.5704   12.9390 C   0  0  0  0  0  0
  -48.1083   -1.6845   13.8839 N   0  0  0  0  0  0
  -47.3366   -1.5285   14.9827 C   0  0  0  0  0  0
  -46.7503   -0.4799   15.2405 O   0  0  0  0  0  0
  -47.1544   -2.6574   15.9379 C   0  0  0  0  0  0
  -45.9647   -2.8208   16.6208 C   0  0  0  0  0  0
  -45.8086   -3.8457   17.5185 C   0  0  0  0  0  0
  -46.7678   -4.7474   17.8001 N   0  0  0  0  0  0
  -47.9225   -4.5856   17.1342 C   0  0  0  0  0  0
  -48.1596   -3.5818   16.2105 C   0  0  0  0  0  0
  -49.3947   -3.5114   15.5544 N   0  0  0  0  0  0
  -50.0751   -4.5524   15.0327 C   0  0  0  0  0  0
  -49.7137   -5.7190   15.0882 O   0  0  0  0  0  0
  -51.3801   -4.1444   14.3801 C   0  0  0  0  0  0
  -52.5564   -4.7364   15.1344 C   0  0  0  0  0  0
  -53.2468   -3.9731   16.0492 C   0  0  0  0  0  0
  -54.3143   -4.5104   16.7323 C   0  0  0  0  0  0
  -54.6947   -5.8130   16.5023 C   0  0  0  0  0  0
  -54.0070   -6.5782   15.5870 C   0  0  0  0  0  0
  -54.4860   -8.2243   15.2943 Cl  0  0  0  0  0  0
  -52.9386   -6.0393   14.9038 C   0  0  0  0  0  0
  -47.2934   -0.2784   19.7175 C   0  0  0  0  0  0
  -47.0045   -0.6324   21.1082 C   0  0  0  0  0  0
  -47.8138   -1.4617   21.7652 C   0  0  0  0  0  0
  -49.0341   -2.0538   21.1088 C   0  0  0  0  0  0
  -49.5104   -3.4535   21.3726 C   0  0  0  0  0  0
  -49.4001   -4.0695   22.4235 O   0  0  0  0  0  0
  -51.5187   -5.3566   18.8768 C   0  0  0  0  0  0
  -51.9655   -4.3801   18.2989 O   0  0  0  0  0  0
  -51.7175   -6.6216   18.4435 N   0  0  0  0  0  0
  -48.8086   -1.5453   17.2392 H   0  0  0  0  0  0
  -48.5318   -2.4405   13.7369 H   0  0  0  0  0  0
  -49.7562   -2.7145   15.4809 H   0  0  0  0  0  0
  -52.2071   -6.7003   17.7156 H   0  0  0  0  0  0
  1  2  2  0  0  0
  2  3  1  0  0  0
  2 45  1  0  0  0
  3  4  1  0  0  0
  4  5  1  0  0  0
  5  6  1  0  0  0
  5 43  1  0  0  0
  6  7  1  0  0  0
  6 41  1  0  0  0
  7  8  1  0  0  0
  8  9  1  0  0  0
  8 40  1  0  0  0
  9 10  1  0  0  0
  9 37  2  0  0  0
 10 11  1  0  0  0
 10 46  1  0  0  0
 11 12  1  0  0  0
 12 13  1  0  0  0
 13 14  1  0  0  0
 14 15  1  0  0  0
 15 16  1  0  0  0
 16 17  1  0  0  0
 17 18  1  0  0  0
 17 47  1  0  0  0
 18 19  2  0  0  0
 18 20  1  0  0  0
 20 21  2  0  0  0
 20 25  1  0  0  0
 21 22  1  0  0  0
 22 23  2  0  0  0
 23 24  1  0  0  0
 24 25  2  0  0  0
 25 26  1  0  0  0
 26 27  1  0  0  0
 26 48  1  0  0  0
 27 28  2  0  0  0
 27 29  1  0  0  0
 29 30  1  0  0  0
 30 31  2  0  0  0
 30 36  1  0  0  0
 31 32  1  0  0  0
 32 33  2  0  0  0
 33 34  1  0  0  0
 34 35  1  0  0  0
 34 36  2  0  0  0
 37 38  1  0  0  0
 38 39  2  0  0  0
 39 40  1  0  0  0
 40 41  1  0  0  0
 41 42  2  0  0  0
 43 44  2  0  0  0
 43 45  1  0  0  0
 45 49  1  0  0  0
M  END
>  <CHROM.0>
159.93313980,159.60100554,-167.19244528

>  <CHROM.1>
111.09102106,140.57452205,-126.37226992,-45.13473711,-120.60949176,67.93845483
91.11161451,-54.70309106,-70.99472247,146.94909502,136.01223198,-114.90129016
98.51122122,-49.97875052,-3.68392302,17.29751128,-2.84895033,-0.82267321
-1.12628738

>  <HEADER>
                                                                          

>  <MASTER>
        0    0    0    0    0    0    0    0   82    0   82    0          

>  <Name>
DAR.pdb

>  <RI>
-4.54606e+08

>  <Rbt.Current_Directory>
/root/miniconda3/envs/rdock/share/rxdock-2013.1.1_148c5bd1-0/data/ligands/prepped_ligands/DAR

>  <Rbt.Executable>
rbdock/0.1.0

>  <Rbt.Library>
librxdock.so/0.1.0

>  <Rbt.Parameter_File>
/root/miniconda3/envs/rdock/share/rxdock-2013.1.1_148c5bd1-0/data/scripts/dock.prm

>  <Rbt.Receptor>
def.prm

>  <SCORE>
17.1046

>  <SCORE.INTER>
21.4075

>  <SCORE.INTER.CONST>
1

>  <SCORE.INTER.POLAR>
-0.200667

>  <SCORE.INTER.REPUL>
0.142163

>  <SCORE.INTER.ROT>
13

>  <SCORE.INTER.VDW>
2.97895

>  <SCORE.INTER.norm>
0.475722

>  <SCORE.INTRA>
-6.36742

>  <SCORE.INTRA.DIHEDRAL>
-14.9853

>  <SCORE.INTRA.DIHEDRAL.0>
43.3429

>  <SCORE.INTRA.POLAR>
0

>  <SCORE.INTRA.POLAR.0>
0

>  <SCORE.INTRA.REPUL>
0

>  <SCORE.INTRA.REPUL.0>
0

>  <SCORE.INTRA.VDW>
1.12523

>  <SCORE.INTRA.VDW.0>
-3.00727

>  <SCORE.INTRA.norm>
-0.141498

>  <SCORE.RESTR>
1.33354

>  <SCORE.RESTR.CAVITY>
1.33354

>  <SCORE.RESTR.norm>
0.0296343

>  <SCORE.SYSTEM>
0.731007

>  <SCORE.SYSTEM.CONST>
0

>  <SCORE.SYSTEM.DIHEDRAL>
3.16348

>  <SCORE.SYSTEM.POLAR>
-0.0195091

>  <SCORE.SYSTEM.VDW>
-0.784402

>  <SCORE.SYSTEM.norm>
0.0162446

>  <SCORE.heavy>
45

>  <SCORE.norm>
0.380103

>  <TITLE>
    DAR-DIA-9e4459de-1_D                                                  

$$$$
