DAR.pdb
  RxDock  02242101573D
librxdock.so/0.1.0
 49 53  0  0  0  0  0  0  0  0999 V2000
  -40.8676    0.5045   19.4190 O   0  0  0  0  0  0
  -42.0771    0.3573   19.3903 C   0  0  0  0  0  0
  -43.0201    1.5388   19.3771 C   0  0  0  0  0  0
  -44.3134    1.2342   18.6159 C   0  0  0  0  0  0
  -44.9282    0.0175   19.3139 C   0  0  0  0  0  0
  -46.2269   -0.3273   18.7155 N   0  0  0  0  0  0
  -46.3733   -0.6615   17.2885 C   0  0  0  0  0  0
  -47.8390   -0.1916   17.2415 C   0  0  0  0  0  0
  -48.7476   -0.3593   16.0423 C   0  0  0  0  0  0
  -48.0793   -0.5311   14.8649 N   0  0  0  0  0  0
  -47.4986   -1.8387   14.5301 C   0  0  0  0  0  0
  -48.5381   -2.9464   14.2958 C   0  0  0  0  0  0
  -49.0694   -3.3989   15.6639 C   0  0  0  0  0  0
  -50.5797   -3.1386   15.7650 C   0  0  0  0  0  0
  -51.0072   -3.3294   17.2275 C   0  0  0  0  0  0
  -52.5308   -3.1912   17.3544 C   0  0  0  0  0  0
  -53.1417   -4.5051   17.1067 N   0  0  0  0  0  0
  -53.6141   -4.8079   15.8769 C   0  0  0  0  0  0
  -53.5590   -4.0248   14.9317 O   0  0  0  0  0  0
  -54.2471   -6.1323   15.6216 C   0  0  0  0  0  0
  -55.3473   -6.2423   14.7934 C   0  0  0  0  0  0
  -55.9123   -7.4658   14.5397 C   0  0  0  0  0  0
  -55.4584   -8.6224   15.0581 N   0  0  0  0  0  0
  -54.3892   -8.5115   15.8627 C   0  0  0  0  0  0
  -53.7631   -7.3161   16.1725 C   0  0  0  0  0  0
  -52.6637   -7.3057   17.0398 N   0  0  0  0  0  0
  -51.4761   -6.7108   16.8066 C   0  0  0  0  0  0
  -51.2048   -6.0665   15.8037 O   0  0  0  0  0  0
  -50.4879   -6.8878   17.9413 C   0  0  0  0  0  0
  -51.1836   -6.7198   19.2794 C   0  0  0  0  0  0
  -51.5205   -5.4634   19.7314 C   0  0  0  0  0  0
  -52.1525   -5.3118   20.9448 C   0  0  0  0  0  0
  -52.4498   -6.4166   21.7100 C   0  0  0  0  0  0
  -52.1153   -7.6743   21.2598 C   0  0  0  0  0  0
  -52.4902   -9.0719   22.2247 Cl  0  0  0  0  0  0
  -51.4827   -7.8249   20.0451 C   0  0  0  0  0  0
  -50.0771   -0.2972   16.2181 C   0  0  0  0  0  0
  -50.6314   -0.0766   17.5547 C   0  0  0  0  0  0
  -49.8804   -0.3016   18.6317 C   0  0  0  0  0  0
  -48.4575   -0.7830   18.5113 C   0  0  0  0  0  0
  -47.3600   -0.3392   19.4354 C   0  0  0  0  0  0
  -47.4830   -0.0432   20.6157 O   0  0  0  0  0  0
  -43.9842   -1.1650   19.3046 C   0  0  0  0  0  0
  -44.3965   -2.3113   19.2488 O   0  0  0  0  0  0
  -42.6685   -0.8594   19.3603 N   0  0  0  0  0  0
  -47.7483    0.1805   14.4643 H   0  0  0  0  0  0
  -53.1769   -5.0940   17.7583 H   0  0  0  0  0  0
  -52.7628   -7.7242   17.8055 H   0  0  0  0  0  0
  -42.1194   -1.5479   19.3671 H   0  0  0  0  0  0
  1  2  2  0  0  0
  2  3  1  0  0  0
  2 45  1  0  0  0
  3  4  1  0  0  0
  4  5  1  0  0  0
  5  6  1  0  0  0
  5 43  1  0  0  0
  6  7  1  0  0  0
  6 41  1  0  0  0
  7  8  1  0  0  0
  8  9  1  0  0  0
  8 40  1  0  0  0
  9 10  1  0  0  0
  9 37  2  0  0  0
 10 11  1  0  0  0
 10 46  1  0  0  0
 11 12  1  0  0  0
 12 13  1  0  0  0
 13 14  1  0  0  0
 14 15  1  0  0  0
 15 16  1  0  0  0
 16 17  1  0  0  0
 17 18  1  0  0  0
 17 47  1  0  0  0
 18 19  2  0  0  0
 18 20  1  0  0  0
 20 21  2  0  0  0
 20 25  1  0  0  0
 21 22  1  0  0  0
 22 23  2  0  0  0
 23 24  1  0  0  0
 24 25  2  0  0  0
 25 26  1  0  0  0
 26 27  1  0  0  0
 26 48  1  0  0  0
 27 28  2  0  0  0
 27 29  1  0  0  0
 29 30  1  0  0  0
 30 31  2  0  0  0
 30 36  1  0  0  0
 31 32  1  0  0  0
 32 33  2  0  0  0
 33 34  1  0  0  0
 34 35  1  0  0  0
 34 36  2  0  0  0
 37 38  1  0  0  0
 38 39  2  0  0  0
 39 40  1  0  0  0
 40 41  1  0  0  0
 41 42  2  0  0  0
 43 44  2  0  0  0
 43 45  1  0  0  0
 45 49  1  0  0  0
M  END
>  <CHROM.0>
172.30476858,177.47330063,72.93909330

>  <CHROM.1>
58.59126913,78.28377400,66.53937609,-76.37144225,118.46503601,-168.43335186
-175.39101558,87.22223416,-96.48630697,141.86402058,-50.96111980,-41.59824787
-76.03810918,-49.69350959,-3.60357366,17.84604342,-0.28305065,0.63276769
2.18401654

>  <HEADER>
                                                                          

>  <MASTER>
        0    0    0    0    0    0    0    0   82    0   82    0          

>  <Name>
DAR.pdb

>  <RI>
-3.08595e+08

>  <Rbt.Current_Directory>
/root/miniconda3/envs/rdock/share/rxdock-2013.1.1_148c5bd1-0/data/ligands/prepped_ligands/DAR

>  <Rbt.Executable>
rbdock/0.1.0

>  <Rbt.Library>
librxdock.so/0.1.0

>  <Rbt.Parameter_File>
/root/miniconda3/envs/rdock/share/rxdock-2013.1.1_148c5bd1-0/data/scripts/dock.prm

>  <Rbt.Receptor>
def.prm

>  <SCORE>
-23.9474

>  <SCORE.INTER>
-13.4692

>  <SCORE.INTER.CONST>
1

>  <SCORE.INTER.POLAR>
-0.0830215

>  <SCORE.INTER.REPUL>
0

>  <SCORE.INTER.ROT>
13

>  <SCORE.INTER.VDW>
-31.5869

>  <SCORE.INTER.norm>
-0.299315

>  <SCORE.INTRA>
-10.4906

>  <SCORE.INTRA.DIHEDRAL>
-13.5001

>  <SCORE.INTRA.DIHEDRAL.0>
43.3429

>  <SCORE.INTRA.POLAR>
0

>  <SCORE.INTRA.POLAR.0>
0

>  <SCORE.INTRA.REPUL>
0

>  <SCORE.INTRA.REPUL.0>
0

>  <SCORE.INTRA.VDW>
-3.74055

>  <SCORE.INTRA.VDW.0>
-3.00727

>  <SCORE.INTRA.norm>
-0.233125

>  <SCORE.RESTR>
0.684967

>  <SCORE.RESTR.CAVITY>
0.684967

>  <SCORE.RESTR.norm>
0.0152215

>  <SCORE.SYSTEM>
-0.672597

>  <SCORE.SYSTEM.CONST>
0

>  <SCORE.SYSTEM.DIHEDRAL>
0.569076

>  <SCORE.SYSTEM.POLAR>
-0.018322

>  <SCORE.SYSTEM.VDW>
-0.894841

>  <SCORE.SYSTEM.norm>
-0.0149466

>  <SCORE.heavy>
45

>  <SCORE.norm>
-0.532165

>  <TITLE>
    DAR-DIA-9e4459de-1_D                                                  

$$$$
DAR.pdb
  RxDock  02242101573D
librxdock.so/0.1.0
 49 53  0  0  0  0  0  0  0  0999 V2000
  -48.0669  -10.5592   18.3373 O   0  0  0  0  0  0
  -48.4183   -9.4265   18.0565 C   0  0  0  0  0  0
  -49.7285   -9.1535   17.3534 C   0  0  0  0  0  0
  -50.3236   -7.7998   17.7510 C   0  0  0  0  0  0
  -49.2565   -6.7588   17.3998 C   0  0  0  0  0  0
  -49.7462   -5.3979   17.6671 N   0  0  0  0  0  0
  -50.1127   -4.9435   19.0194 C   0  0  0  0  0  0
  -51.1126   -3.8990   18.4897 C   0  0  0  0  0  0
  -51.8327   -2.8927   19.3616 C   0  0  0  0  0  0
  -51.8989   -3.2513   20.6768 N   0  0  0  0  0  0
  -50.6733   -3.5983   21.4094 C   0  0  0  0  0  0
  -49.4336   -2.8010   20.9736 C   0  0  0  0  0  0
  -49.8718   -1.3572   20.6869 C   0  0  0  0  0  0
  -49.0286   -0.7567   19.5524 C   0  0  0  0  0  0
  -49.8356    0.3720   18.8944 C   0  0  0  0  0  0
  -49.0910    0.9041   17.6619 C   0  0  0  0  0  0
  -48.8023   -0.2253   16.7664 N   0  0  0  0  0  0
  -49.3349   -0.2540   15.5243 C   0  0  0  0  0  0
  -50.0653    0.6349   15.0929 O   0  0  0  0  0  0
  -49.0582   -1.4021   14.6157 C   0  0  0  0  0  0
  -50.0891   -2.0588   13.9720 C   0  0  0  0  0  0
  -49.8296   -3.0987   13.1164 C   0  0  0  0  0  0
  -48.5920   -3.5513   12.8413 N   0  0  0  0  0  0
  -47.5927   -2.9108   13.4690 C   0  0  0  0  0  0
  -47.7692   -1.8566   14.3491 C   0  0  0  0  0  0
  -46.6596   -1.2680   14.9681 N   0  0  0  0  0  0
  -45.6694   -1.9226   15.6081 C   0  0  0  0  0  0
  -45.5909   -3.1383   15.7110 O   0  0  0  0  0  0
  -44.6143   -0.9970   16.1785 C   0  0  0  0  0  0
  -45.0715   -0.4312   17.5104 C   0  0  0  0  0  0
  -45.8116    0.7293   17.5518 C   0  0  0  0  0  0
  -46.2269    1.2414   18.7602 C   0  0  0  0  0  0
  -45.9034    0.5941   19.9310 C   0  0  0  0  0  0
  -45.1647   -0.5674   19.8923 C   0  0  0  0  0  0
  -44.7550   -1.3874   21.3704 Cl  0  0  0  0  0  0
  -44.7495   -1.0791   18.6823 C   0  0  0  0  0  0
  -52.3530   -1.7928   18.7943 C   0  0  0  0  0  0
  -52.2157   -1.5751   17.3534 C   0  0  0  0  0  0
  -51.2882   -2.2395   16.6657 C   0  0  0  0  0  0
  -50.3643   -3.2219   17.3381 C   0  0  0  0  0  0
  -49.9050   -4.4947   16.6866 C   0  0  0  0  0  0
  -49.7173   -4.6689   15.4906 O   0  0  0  0  0  0
  -47.9556   -7.0300   18.1234 C   0  0  0  0  0  0
  -47.2170   -6.1240   18.4709 O   0  0  0  0  0  0
  -47.6788   -8.3330   18.3538 N   0  0  0  0  0  0
  -52.6647   -3.5548   20.9894 H   0  0  0  0  0  0
  -48.2665   -0.8663   17.0396 H   0  0  0  0  0  0
  -46.6071   -0.3921   14.9310 H   0  0  0  0  0  0
  -46.9159   -8.4916   18.7643 H   0  0  0  0  0  0
  1  2  2  0  0  0
  2  3  1  0  0  0
  2 45  1  0  0  0
  3  4  1  0  0  0
  4  5  1  0  0  0
  5  6  1  0  0  0
  5 43  1  0  0  0
  6  7  1  0  0  0
  6 41  1  0  0  0
  7  8  1  0  0  0
  8  9  1  0  0  0
  8 40  1  0  0  0
  9 10  1  0  0  0
  9 37  2  0  0  0
 10 11  1  0  0  0
 10 46  1  0  0  0
 11 12  1  0  0  0
 12 13  1  0  0  0
 13 14  1  0  0  0
 14 15  1  0  0  0
 15 16  1  0  0  0
 16 17  1  0  0  0
 17 18  1  0  0  0
 17 47  1  0  0  0
 18 19  2  0  0  0
 18 20  1  0  0  0
 20 21  2  0  0  0
 20 25  1  0  0  0
 21 22  1  0  0  0
 22 23  2  0  0  0
 23 24  1  0  0  0
 24 25  2  0  0  0
 25 26  1  0  0  0
 26 27  1  0  0  0
 26 48  1  0  0  0
 27 28  2  0  0  0
 27 29  1  0  0  0
 29 30  1  0  0  0
 30 31  2  0  0  0
 30 36  1  0  0  0
 31 32  1  0  0  0
 32 33  2  0  0  0
 33 34  1  0  0  0
 34 35  1  0  0  0
 34 36  2  0  0  0
 37 38  1  0  0  0
 38 39  2  0  0  0
 39 40  1  0  0  0
 40 41  1  0  0  0
 41 42  2  0  0  0
 43 44  2  0  0  0
 43 45  1  0  0  0
 45 49  1  0  0  0
M  END
>  <CHROM.0>
-93.06662650,-78.17349753,66.13452981

>  <CHROM.1>
62.52976568,53.64142274,34.05379295,38.38676376,-146.95952086,155.74834865
-174.15302936,54.55986300,117.59040028,129.74467746,129.97000432,81.80721996
-88.36220661,-48.50589411,-2.96694316,17.62382703,-2.32731872,-1.09087318
-0.69654911

>  <HEADER>
                                                                          

>  <MASTER>
        0    0    0    0    0    0    0    0   82    0   82    0          

>  <Name>
DAR.pdb

>  <RI>
-3.08595e+08

>  <Rbt.Current_Directory>
/root/miniconda3/envs/rdock/share/rxdock-2013.1.1_148c5bd1-0/data/ligands/prepped_ligands/DAR

>  <Rbt.Executable>
rbdock/0.1.0

>  <Rbt.Library>
librxdock.so/0.1.0

>  <Rbt.Parameter_File>
/root/miniconda3/envs/rdock/share/rxdock-2013.1.1_148c5bd1-0/data/scripts/dock.prm

>  <Rbt.Receptor>
def.prm

>  <SCORE>
-10.779

>  <SCORE.INTER>
-4.61259

>  <SCORE.INTER.CONST>
1

>  <SCORE.INTER.POLAR>
-0.372466

>  <SCORE.INTER.REPUL>
0.0113887

>  <SCORE.INTER.ROT>
13

>  <SCORE.INTER.VDW>
-21.8031

>  <SCORE.INTER.norm>
-0.102502

>  <SCORE.INTRA>
-8.11515

>  <SCORE.INTRA.DIHEDRAL>
-13.9176

>  <SCORE.INTRA.DIHEDRAL.0>
43.3429

>  <SCORE.INTRA.POLAR>
0

>  <SCORE.INTRA.POLAR.0>
0

>  <SCORE.INTRA.REPUL>
0.00143806

>  <SCORE.INTRA.REPUL.0>
0

>  <SCORE.INTRA.VDW>
-1.16352

>  <SCORE.INTRA.VDW.0>
-3.00727

>  <SCORE.INTRA.norm>
-0.180337

>  <SCORE.RESTR>
0.907749

>  <SCORE.RESTR.CAVITY>
0.907749

>  <SCORE.RESTR.norm>
0.0201722

>  <SCORE.SYSTEM>
1.04102

>  <SCORE.SYSTEM.CONST>
0

>  <SCORE.SYSTEM.DIHEDRAL>
3.69947

>  <SCORE.SYSTEM.POLAR>
-0.0126425

>  <SCORE.SYSTEM.VDW>
-0.765731

>  <SCORE.SYSTEM.norm>
0.0231338

>  <SCORE.heavy>
45

>  <SCORE.norm>
-0.239533

>  <TITLE>
    DAR-DIA-9e4459de-1_D                                                  

$$$$
DAR.pdb
  RxDock  02242101583D
librxdock.so/0.1.0
 49 53  0  0  0  0  0  0  0  0999 V2000
  -43.2191    0.5560   23.1679 O   0  0  0  0  0  0
  -43.5437    0.3728   22.0075 C   0  0  0  0  0  0
  -42.8283   -0.6314   21.1326 C   0  0  0  0  0  0
  -43.7593   -1.2480   20.0849 C   0  0  0  0  0  0
  -44.3091   -0.0703   19.2747 C   0  0  0  0  0  0
  -45.1650   -0.5455   18.1770 N   0  0  0  0  0  0
  -46.5132   -1.0916   18.4086 C   0  0  0  0  0  0
  -46.4700   -1.9644   17.1406 C   0  0  0  0  0  0
  -47.6425   -2.7693   16.6221 C   0  0  0  0  0  0
  -48.5855   -3.0420   17.5703 N   0  0  0  0  0  0
  -49.4243   -1.9623   18.1086 C   0  0  0  0  0  0
  -49.3082   -1.7754   19.6299 C   0  0  0  0  0  0
  -50.4762   -0.8916   20.0921 C   0  0  0  0  0  0
  -51.6276   -1.7591   20.6216 C   0  0  0  0  0  0
  -52.4432   -2.2657   19.4230 C   0  0  0  0  0  0
  -53.5764   -3.1822   19.9051 C   0  0  0  0  0  0
  -52.9896   -4.4499   20.3630 N   0  0  0  0  0  0
  -52.6296   -5.3907   19.4616 C   0  0  0  0  0  0
  -52.7699   -5.2396   18.2503 O   0  0  0  0  0  0
  -52.0471   -6.6836   19.9187 C   0  0  0  0  0  0
  -52.3675   -7.2049   21.1573 C   0  0  0  0  0  0
  -51.8500   -8.4077   21.5651 C   0  0  0  0  0  0
  -51.0155   -9.1556   20.8190 N   0  0  0  0  0  0
  -50.7062   -8.6456   19.6161 C   0  0  0  0  0  0
  -51.1816   -7.4388   19.1315 C   0  0  0  0  0  0
  -50.7822   -6.9854   17.8683 N   0  0  0  0  0  0
  -49.8581   -6.0342   17.6236 C   0  0  0  0  0  0
  -49.2142   -5.4508   18.4837 O   0  0  0  0  0  0
  -49.6573   -5.7643   16.1463 C   0  0  0  0  0  0
  -50.8127   -4.9487   15.5959 C   0  0  0  0  0  0
  -50.6205   -3.6349   15.2311 C   0  0  0  0  0  0
  -51.6687   -2.8960   14.7310 C   0  0  0  0  0  0
  -52.9125   -3.4691   14.5938 C   0  0  0  0  0  0
  -53.1072   -4.7832   14.9564 C   0  0  0  0  0  0
  -54.6779   -5.5098   14.7837 Cl  0  0  0  0  0  0
  -52.0573   -5.5219   15.4569 C   0  0  0  0  0  0
  -47.6477   -3.1605   15.3379 C   0  0  0  0  0  0
  -46.5341   -2.8039   14.4574 C   0  0  0  0  0  0
  -45.7138   -1.8091   14.7920 C   0  0  0  0  0  0
  -45.9022   -1.0304   16.0683 C   0  0  0  0  0  0
  -44.7569   -0.5253   16.8982 C   0  0  0  0  0  0
  -43.6634   -0.1690   16.4821 O   0  0  0  0  0  0
  -45.0396    0.9187   20.1565 C   0  0  0  0  0  0
  -45.9940    1.5572   19.7461 O   0  0  0  0  0  0
  -44.5626    1.0380   21.4158 N   0  0  0  0  0  0
  -48.4908   -3.7705   18.0568 H   0  0  0  0  0  0
  -52.8580   -4.5786   21.2225 H   0  0  0  0  0  0
  -51.1703   -7.3599   17.1751 H   0  0  0  0  0  0
  -44.9802    1.6225   21.9255 H   0  0  0  0  0  0
  1  2  2  0  0  0
  2  3  1  0  0  0
  2 45  1  0  0  0
  3  4  1  0  0  0
  4  5  1  0  0  0
  5  6  1  0  0  0
  5 43  1  0  0  0
  6  7  1  0  0  0
  6 41  1  0  0  0
  7  8  1  0  0  0
  8  9  1  0  0  0
  8 40  1  0  0  0
  9 10  1  0  0  0
  9 37  2  0  0  0
 10 11  1  0  0  0
 10 46  1  0  0  0
 11 12  1  0  0  0
 12 13  1  0  0  0
 13 14  1  0  0  0
 14 15  1  0  0  0
 15 16  1  0  0  0
 16 17  1  0  0  0
 17 18  1  0  0  0
 17 47  1  0  0  0
 18 19  2  0  0  0
 18 20  1  0  0  0
 20 21  2  0  0  0
 20 25  1  0  0  0
 21 22  1  0  0  0
 22 23  2  0  0  0
 23 24  1  0  0  0
 24 25  2  0  0  0
 25 26  1  0  0  0
 26 27  1  0  0  0
 26 48  1  0  0  0
 27 28  2  0  0  0
 27 29  1  0  0  0
 29 30  1  0  0  0
 30 31  2  0  0  0
 30 36  1  0  0  0
 31 32  1  0  0  0
 32 33  2  0  0  0
 33 34  1  0  0  0
 34 35  1  0  0  0
 34 36  2  0  0  0
 37 38  1  0  0  0
 38 39  2  0  0  0
 39 40  1  0  0  0
 40 41  1  0  0  0
 41 42  2  0  0  0
 43 44  2  0  0  0
 43 45  1  0  0  0
 45 49  1  0  0  0
M  END
>  <CHROM.0>
42.56214690,-62.22866505,178.32397617

>  <CHROM.1>
73.07888743,69.54112721,-120.94855355,-165.60019486,96.93637420,-81.53805537
177.89347440,-71.66517624,-79.54813960,28.10862465,77.14994811,75.62734217
109.58637505,-49.08356157,-3.26770954,18.21217037,0.07448821,0.64785488,1.75915428

>  <HEADER>
                                                                          

>  <MASTER>
        0    0    0    0    0    0    0    0   82    0   82    0          

>  <Name>
DAR.pdb

>  <RI>
-3.08595e+08

>  <Rbt.Current_Directory>
/root/miniconda3/envs/rdock/share/rxdock-2013.1.1_148c5bd1-0/data/ligands/prepped_ligands/DAR

>  <Rbt.Executable>
rbdock/0.1.0

>  <Rbt.Library>
librxdock.so/0.1.0

>  <Rbt.Parameter_File>
/root/miniconda3/envs/rdock/share/rxdock-2013.1.1_148c5bd1-0/data/scripts/dock.prm

>  <Rbt.Receptor>
def.prm

>  <SCORE>
-20.3907

>  <SCORE.INTER>
-7.05401

>  <SCORE.INTER.CONST>
1

>  <SCORE.INTER.POLAR>
0

>  <SCORE.INTER.REPUL>
0.012408

>  <SCORE.INTER.ROT>
13

>  <SCORE.INTER.VDW>
-25.5161

>  <SCORE.INTER.norm>
-0.156756

>  <SCORE.INTRA>
-13.5484

>  <SCORE.INTRA.DIHEDRAL>
-13.4657

>  <SCORE.INTRA.DIHEDRAL.0>
43.3429

>  <SCORE.INTRA.POLAR>
-0.907249

>  <SCORE.INTRA.POLAR.0>
0

>  <SCORE.INTRA.REPUL>
0

>  <SCORE.INTRA.REPUL.0>
0

>  <SCORE.INTRA.VDW>
-3.73084

>  <SCORE.INTRA.VDW.0>
-3.00727

>  <SCORE.INTRA.norm>
-0.301075

>  <SCORE.RESTR>
0.850349

>  <SCORE.RESTR.CAVITY>
0.850349

>  <SCORE.RESTR.norm>
0.0188966

>  <SCORE.SYSTEM>
-0.638724

>  <SCORE.SYSTEM.CONST>
0

>  <SCORE.SYSTEM.DIHEDRAL>
0.743701

>  <SCORE.SYSTEM.VDW>
-1.01057

>  <SCORE.SYSTEM.norm>
-0.0141939

>  <SCORE.heavy>
45

>  <SCORE.norm>
-0.453128

>  <TITLE>
    DAR-DIA-9e4459de-1_D                                                  

$$$$
DAR.pdb
  RxDock  02242101583D
librxdock.so/0.1.0
 49 53  0  0  0  0  0  0  0  0999 V2000
  -56.3977   -7.3961   12.9302 O   0  0  0  0  0  0
  -55.8553   -6.9488   13.9257 C   0  0  0  0  0  0
  -56.1138   -7.5278   15.2981 C   0  0  0  0  0  0
  -54.8939   -7.4016   16.2149 C   0  0  0  0  0  0
  -54.5736   -5.9051   16.2748 C   0  0  0  0  0  0
  -53.4564   -5.6462   17.1957 N   0  0  0  0  0  0
  -53.2119   -4.3185   17.7848 C   0  0  0  0  0  0
  -51.7020   -4.5743   17.9464 C   0  0  0  0  0  0
  -50.7502   -3.6301   18.6494 C   0  0  0  0  0  0
  -51.2070   -2.3466   18.7297 N   0  0  0  0  0  0
  -51.6267   -1.6355   17.5143 C   0  0  0  0  0  0
  -50.6896   -1.8374   16.3128 C   0  0  0  0  0  0
  -51.3038   -2.9128   15.4045 C   0  0  0  0  0  0
  -51.2209   -2.4822   13.9326 C   0  0  0  0  0  0
  -49.7915   -2.7376   13.4330 C   0  0  0  0  0  0
  -48.9253   -1.4890   13.6503 C   0  0  0  0  0  0
  -47.6646   -1.8993   14.2852 N   0  0  0  0  0  0
  -46.6826   -0.9916   14.4830 C   0  0  0  0  0  0
  -46.7898    0.1870   14.1526 O   0  0  0  0  0  0
  -45.3967   -1.4028   15.1132 C   0  0  0  0  0  0
  -44.3243   -1.7996   14.3379 C   0  0  0  0  0  0
  -43.1337   -2.1530   14.9194 C   0  0  0  0  0  0
  -42.9170   -2.1434   16.2480 N   0  0  0  0  0  0
  -43.9616   -1.7576   16.9983 C   0  0  0  0  0  0
  -45.1962   -1.3895   16.4912 C   0  0  0  0  0  0
  -46.2290   -1.0208   17.3619 N   0  0  0  0  0  0
  -47.1161   -1.8573   17.9382 C   0  0  0  0  0  0
  -47.1206   -3.0718   17.7986 O   0  0  0  0  0  0
  -48.1173   -1.1455   18.8250 C   0  0  0  0  0  0
  -47.4989    0.1045   19.4233 C   0  0  0  0  0  0
  -47.9150    1.3496   19.0074 C   0  0  0  0  0  0
  -47.3544    2.4831   19.5513 C   0  0  0  0  0  0
  -46.3759    2.3747   20.5133 C   0  0  0  0  0  0
  -45.9590    1.1309   20.9321 C   0  0  0  0  0  0
  -44.7231    0.9914   22.1478 Cl  0  0  0  0  0  0
  -46.5209   -0.0030   20.3870 C   0  0  0  0  0  0
  -49.5726   -4.1004   19.0903 C   0  0  0  0  0  0
  -49.2252   -5.5088   18.8952 C   0  0  0  0  0  0
  -50.1800   -6.3988   18.6292 C   0  0  0  0  0  0
  -51.6268   -5.9912   18.5219 C   0  0  0  0  0  0
  -52.5816   -6.6051   17.5386 C   0  0  0  0  0  0
  -52.5583   -7.7578   17.1301 O   0  0  0  0  0  0
  -54.2977   -5.3398   14.8987 C   0  0  0  0  0  0
  -53.5070   -4.4269   14.7297 O   0  0  0  0  0  0
  -54.9822   -5.9158   13.8852 N   0  0  0  0  0  0
  -50.9764   -1.8637   19.4297 H   0  0  0  0  0  0
  -47.5663   -2.7314   14.5510 H   0  0  0  0  0  0
  -46.2996   -0.1655   17.5486 H   0  0  0  0  0  0
  -54.8307   -5.5789   13.0857 H   0  0  0  0  0  0
  1  2  2  0  0  0
  2  3  1  0  0  0
  2 45  1  0  0  0
  3  4  1  0  0  0
  4  5  1  0  0  0
  5  6  1  0  0  0
  5 43  1  0  0  0
  6  7  1  0  0  0
  6 41  1  0  0  0
  7  8  1  0  0  0
  8  9  1  0  0  0
  8 40  1  0  0  0
  9 10  1  0  0  0
  9 37  2  0  0  0
 10 11  1  0  0  0
 10 46  1  0  0  0
 11 12  1  0  0  0
 12 13  1  0  0  0
 13 14  1  0  0  0
 14 15  1  0  0  0
 15 16  1  0  0  0
 16 17  1  0  0  0
 17 18  1  0  0  0
 17 47  1  0  0  0
 18 19  2  0  0  0
 18 20  1  0  0  0
 20 21  2  0  0  0
 20 25  1  0  0  0
 21 22  1  0  0  0
 22 23  2  0  0  0
 23 24  1  0  0  0
 24 25  2  0  0  0
 25 26  1  0  0  0
 26 27  1  0  0  0
 26 48  1  0  0  0
 27 28  2  0  0  0
 27 29  1  0  0  0
 29 30  1  0  0  0
 30 31  2  0  0  0
 30 36  1  0  0  0
 31 32  1  0  0  0
 32 33  2  0  0  0
 33 34  1  0  0  0
 34 35  1  0  0  0
 34 36  2  0  0  0
 37 38  1  0  0  0
 38 39  2  0  0  0
 39 40  1  0  0  0
 40 41  1  0  0  0
 41 42  2  0  0  0
 43 44  2  0  0  0
 43 45  1  0  0  0
 45 49  1  0  0  0
M  END
>  <CHROM.0>
-113.55249845,174.78594517,68.85896542

>  <CHROM.1>
-159.77828362,-54.05810132,-42.82066597,99.12730010,135.63393661,78.75774370
-90.92225214,131.92692962,174.64902011,92.40378723,91.78331521,-29.83012593
109.65385588,-49.49049487,-2.85879462,16.99935881,-2.74280657,0.55340678
1.36244669

>  <HEADER>
                                                                          

>  <MASTER>
        0    0    0    0    0    0    0    0   82    0   82    0          

>  <Name>
DAR.pdb

>  <RI>
-3.08595e+08

>  <Rbt.Current_Directory>
/root/miniconda3/envs/rdock/share/rxdock-2013.1.1_148c5bd1-0/data/ligands/prepped_ligands/DAR

>  <Rbt.Executable>
rbdock/0.1.0

>  <Rbt.Library>
librxdock.so/0.1.0

>  <Rbt.Parameter_File>
/root/miniconda3/envs/rdock/share/rxdock-2013.1.1_148c5bd1-0/data/scripts/dock.prm

>  <Rbt.Receptor>
def.prm

>  <SCORE>
-4.32181

>  <SCORE.INTER>
-12.9081

>  <SCORE.INTER.CONST>
1

>  <SCORE.INTER.POLAR>
-0.189676

>  <SCORE.INTER.REPUL>
0.174818

>  <SCORE.INTER.ROT>
13

>  <SCORE.INTER.VDW>
-31.5373

>  <SCORE.INTER.norm>
-0.286848

>  <SCORE.INTRA>
6.95603

>  <SCORE.INTRA.DIHEDRAL>
8.58473

>  <SCORE.INTRA.DIHEDRAL.0>
43.3429

>  <SCORE.INTRA.POLAR>
0

>  <SCORE.INTRA.POLAR.0>
0

>  <SCORE.INTRA.REPUL>
0

>  <SCORE.INTRA.REPUL.0>
0

>  <SCORE.INTRA.VDW>
2.66367

>  <SCORE.INTRA.VDW.0>
-3.00727

>  <SCORE.INTRA.norm>
0.154579

>  <SCORE.RESTR>
0.121831

>  <SCORE.RESTR.CAVITY>
0.121831

>  <SCORE.RESTR.norm>
0.00270735

>  <SCORE.SYSTEM>
1.50847

>  <SCORE.SYSTEM.CONST>
0

>  <SCORE.SYSTEM.DIHEDRAL>
3.81965

>  <SCORE.SYSTEM.POLAR>
-0.015756

>  <SCORE.SYSTEM.VDW>
-0.347788

>  <SCORE.SYSTEM.norm>
0.0335215

>  <SCORE.heavy>
45

>  <SCORE.norm>
-0.0960402

>  <TITLE>
    DAR-DIA-9e4459de-1_D                                                  

$$$$
DAR.pdb
  RxDock  02242101583D
librxdock.so/0.1.0
 49 53  0  0  0  0  0  0  0  0999 V2000
  -56.3885   -6.7847   14.6804 O   0  0  0  0  0  0
  -55.3643   -6.2683   15.0924 C   0  0  0  0  0  0
  -54.7266   -6.6987   16.3937 C   0  0  0  0  0  0
  -53.2038   -6.5404   16.3681 C   0  0  0  0  0  0
  -52.9459   -5.0616   16.0646 C   0  0  0  0  0  0
  -51.5052   -4.7663   16.0904 N   0  0  0  0  0  0
  -50.4957   -5.7930   16.4003 C   0  0  0  0  0  0
  -49.4886   -4.7610   16.9408 C   0  0  0  0  0  0
  -48.0708   -5.0928   17.3548 C   0  0  0  0  0  0
  -47.8783   -6.4107   17.6529 N   0  0  0  0  0  0
  -48.4006   -6.9669   18.9087 C   0  0  0  0  0  0
  -49.7306   -7.7223   18.7562 C   0  0  0  0  0  0
  -50.1686   -8.2022   20.1478 C   0  0  0  0  0  0
  -50.3183   -7.0092   21.1033 C   0  0  0  0  0  0
  -51.4298   -6.0953   20.5668 C   0  0  0  0  0  0
  -51.4544   -4.7768   21.3527 C   0  0  0  0  0  0
  -51.4665   -3.6618   20.3948 N   0  0  0  0  0  0
  -50.3453   -2.9342   20.1929 C   0  0  0  0  0  0
  -49.2906   -3.1602   20.7815 O   0  0  0  0  0  0
  -50.3535   -1.7939   19.2340 C   0  0  0  0  0  0
  -51.4612   -1.5380   18.4491 C   0  0  0  0  0  0
  -51.4757   -0.4725   17.5859 C   0  0  0  0  0  0
  -50.4479    0.3840   17.4360 N   0  0  0  0  0  0
  -49.3731    0.1320   18.2002 C   0  0  0  0  0  0
  -49.2765   -0.9226   19.0921 C   0  0  0  0  0  0
  -48.1012   -1.1102   19.8300 N   0  0  0  0  0  0
  -46.9603   -0.4038   19.6960 C   0  0  0  0  0  0
  -46.8051    0.5283   18.9202 O   0  0  0  0  0  0
  -45.8645   -0.8569   20.6391 C   0  0  0  0  0  0
  -44.5351   -0.9264   19.9106 C   0  0  0  0  0  0
  -44.3324   -1.8705   18.9288 C   0  0  0  0  0  0
  -43.1266   -1.9323   18.2676 C   0  0  0  0  0  0
  -42.1198   -1.0495   18.5862 C   0  0  0  0  0  0
  -42.3202   -0.1035   19.5665 C   0  0  0  0  0  0
  -41.0496    1.0133   19.9705 Cl  0  0  0  0  0  0
  -43.5275   -0.0425   20.2277 C   0  0  0  0  0  0
  -47.1638   -4.1055   17.4236 C   0  0  0  0  0  0
  -47.5478   -2.7318   17.0950 C   0  0  0  0  0  0
  -48.6528   -2.5011   16.3878 C   0  0  0  0  0  0
  -49.5305   -3.6292   15.9104 C   0  0  0  0  0  0
  -51.0281   -3.5347   15.8498 C   0  0  0  0  0  0
  -51.6812   -2.5249   15.6270 O   0  0  0  0  0  0
  -53.5717   -4.6460   14.7512 C   0  0  0  0  0  0
  -53.0650   -3.7913   14.0442 O   0  0  0  0  0  0
  -54.7170   -5.2855   14.4245 N   0  0  0  0  0  0
  -47.2140   -6.8356   17.2599 H   0  0  0  0  0  0
  -52.2008   -3.4889   19.9435 H   0  0  0  0  0  0
  -48.1146   -1.7455   20.4362 H   0  0  0  0  0  0
  -55.0878   -5.0352   13.6658 H   0  0  0  0  0  0
  1  2  2  0  0  0
  2  3  1  0  0  0
  2 45  1  0  0  0
  3  4  1  0  0  0
  4  5  1  0  0  0
  5  6  1  0  0  0
  5 43  1  0  0  0
  6  7  1  0  0  0
  6 41  1  0  0  0
  7  8  1  0  0  0
  8  9  1  0  0  0
  8 40  1  0  0  0
  9 10  1  0  0  0
  9 37  2  0  0  0
 10 11  1  0  0  0
 10 46  1  0  0  0
 11 12  1  0  0  0
 12 13  1  0  0  0
 13 14  1  0  0  0
 14 15  1  0  0  0
 15 16  1  0  0  0
 16 17  1  0  0  0
 17 18  1  0  0  0
 17 47  1  0  0  0
 18 19  2  0  0  0
 18 20  1  0  0  0
 20 21  2  0  0  0
 20 25  1  0  0  0
 21 22  1  0  0  0
 22 23  2  0  0  0
 23 24  1  0  0  0
 24 25  2  0  0  0
 25 26  1  0  0  0
 26 27  1  0  0  0
 26 48  1  0  0  0
 27 28  2  0  0  0
 27 29  1  0  0  0
 29 30  1  0  0  0
 30 31  2  0  0  0
 30 36  1  0  0  0
 31 32  1  0  0  0
 32 33  2  0  0  0
 33 34  1  0  0  0
 34 35  1  0  0  0
 34 36  2  0  0  0
 37 38  1  0  0  0
 38 39  2  0  0  0
 39 40  1  0  0  0
 40 41  1  0  0  0
 41 42  2  0  0  0
 43 44  2  0  0  0
 43 45  1  0  0  0
 45 49  1  0  0  0
M  END
>  <CHROM.0>
57.86180894,-47.19864233,62.60368603

>  <CHROM.1>
-1.14089255,-73.94885129,99.15567647,-178.21859467,58.35239961,62.83004113
-170.46476855,130.28391428,-105.08989991,-5.97523408,174.09283602,136.76328487
-67.70381031,-49.14850971,-3.28622999,18.07975145,2.83615500,0.49642883,2.70608498

>  <HEADER>
                                                                          

>  <MASTER>
        0    0    0    0    0    0    0    0   82    0   82    0          

>  <Name>
DAR.pdb

>  <RI>
-3.08595e+08

>  <Rbt.Current_Directory>
/root/miniconda3/envs/rdock/share/rxdock-2013.1.1_148c5bd1-0/data/ligands/prepped_ligands/DAR

>  <Rbt.Executable>
rbdock/0.1.0

>  <Rbt.Library>
librxdock.so/0.1.0

>  <Rbt.Parameter_File>
/root/miniconda3/envs/rdock/share/rxdock-2013.1.1_148c5bd1-0/data/scripts/dock.prm

>  <Rbt.Receptor>
def.prm

>  <SCORE>
-23.9927

>  <SCORE.INTER>
-8.96872

>  <SCORE.INTER.CONST>
1

>  <SCORE.INTER.POLAR>
-0.769872

>  <SCORE.INTER.REPUL>
0.107197

>  <SCORE.INTER.ROT>
13

>  <SCORE.INTER.VDW>
-25.2871

>  <SCORE.INTER.norm>
-0.199305

>  <SCORE.INTRA>
-14.5751

>  <SCORE.INTRA.DIHEDRAL>
-29.5542

>  <SCORE.INTRA.DIHEDRAL.0>
43.3429

>  <SCORE.INTRA.POLAR>
-0.151765

>  <SCORE.INTRA.POLAR.0>
0

>  <SCORE.INTRA.REPUL>
0

>  <SCORE.INTRA.REPUL.0>
0

>  <SCORE.INTRA.VDW>
0.718011

>  <SCORE.INTRA.VDW.0>
-3.00727

>  <SCORE.INTRA.norm>
-0.323891

>  <SCORE.RESTR>
0.00626889

>  <SCORE.RESTR.CAVITY>
0.00626889

>  <SCORE.RESTR.norm>
0.000139309

>  <SCORE.SYSTEM>
-0.455122

>  <SCORE.SYSTEM.CONST>
0

>  <SCORE.SYSTEM.DIHEDRAL>
0.806492

>  <SCORE.SYSTEM.POLAR>
-0.00677847

>  <SCORE.SYSTEM.VDW>
-0.835321

>  <SCORE.SYSTEM.norm>
-0.0101138

>  <SCORE.heavy>
45

>  <SCORE.norm>
-0.53317

>  <TITLE>
    DAR-DIA-9e4459de-1_D                                                  

$$$$
DAR.pdb
  RxDock  02242101583D
librxdock.so/0.1.0
 49 53  0  0  0  0  0  0  0  0999 V2000
  -44.4645    2.6510   22.9350 O   0  0  0  0  0  0
  -44.8495    1.9317   22.0295 C   0  0  0  0  0  0
  -46.2438    2.0533   21.4579 C   0  0  0  0  0  0
  -46.2916    1.6799   19.9736 C   0  0  0  0  0  0
  -45.7604    0.2459   19.8897 C   0  0  0  0  0  0
  -45.8302   -0.2573   18.5094 N   0  0  0  0  0  0
  -46.5678   -1.4814   18.1531 C   0  0  0  0  0  0
  -45.6771   -1.7636   16.9290 C   0  0  0  0  0  0
  -45.9323   -2.8713   15.9291 C   0  0  0  0  0  0
  -46.7171   -3.8783   16.4114 N   0  0  0  0  0  0
  -48.1177   -3.9923   15.9821 C   0  0  0  0  0  0
  -48.9640   -4.9422   16.8446 C   0  0  0  0  0  0
  -48.3862   -6.3581   16.7018 C   0  0  0  0  0  0
  -48.9487   -7.2790   17.7946 C   0  0  0  0  0  0
  -47.9246   -7.3575   18.9363 C   0  0  0  0  0  0
  -48.5376   -8.0753   20.1469 C   0  0  0  0  0  0
  -49.5977   -7.2248   20.7072 N   0  0  0  0  0  0
  -50.8801   -7.4016   20.3182 C   0  0  0  0  0  0
  -51.2157   -8.2559   19.5013 O   0  0  0  0  0  0
  -51.9582   -6.5345   20.8712 C   0  0  0  0  0  0
  -53.0355   -7.0844   21.5385 C   0  0  0  0  0  0
  -54.0133   -6.2824   22.0689 C   0  0  0  0  0  0
  -54.0061   -4.9387   21.9868 N   0  0  0  0  0  0
  -52.9577   -4.4078   21.3373 C   0  0  0  0  0  0
  -51.9324   -5.1458   20.7706 C   0  0  0  0  0  0
  -50.8917   -4.4956   20.0960 N   0  0  0  0  0  0
  -50.8662   -3.1935   19.7456 C   0  0  0  0  0  0
  -51.7491   -2.3866   19.9987 O   0  0  0  0  0  0
  -49.5981   -2.7970   19.0176 C   0  0  0  0  0  0
  -49.9339   -2.0786   17.7237 C   0  0  0  0  0  0
  -49.3806   -0.8472   17.4521 C   0  0  0  0  0  0
  -49.6848   -0.1966   16.2778 C   0  0  0  0  0  0
  -50.5432   -0.7759   15.3711 C   0  0  0  0  0  0
  -51.0966   -2.0079   15.6394 C   0  0  0  0  0  0
  -52.1812   -2.7422   14.4951 Cl  0  0  0  0  0  0
  -50.7915   -2.6583   16.8152 C   0  0  0  0  0  0
  -45.3673   -2.7952   14.7137 C   0  0  0  0  0  0
  -44.5232   -1.6508   14.3669 C   0  0  0  0  0  0
  -44.6006   -0.5273   15.0785 C   0  0  0  0  0  0
  -45.5449   -0.3996   16.2459 C   0  0  0  0  0  0
  -45.2075    0.3633   17.4947 C   0  0  0  0  0  0
  -44.4976    1.3567   17.5665 O   0  0  0  0  0  0
  -44.3575    0.1390   20.4465 C   0  0  0  0  0  0
  -43.5511   -0.6582   19.9979 O   0  0  0  0  0  0
  -44.0692    0.9827   21.4627 N   0  0  0  0  0  0
  -46.4879   -4.2592   17.1721 H   0  0  0  0  0  0
  -49.3911   -6.6184   21.3091 H   0  0  0  0  0  0
  -50.1928   -4.9844   19.8866 H   0  0  0  0  0  0
  -43.2565    0.9123   21.7948 H   0  0  0  0  0  0
  1  2  2  0  0  0
  2  3  1  0  0  0
  2 45  1  0  0  0
  3  4  1  0  0  0
  4  5  1  0  0  0
  5  6  1  0  0  0
  5 43  1  0  0  0
  6  7  1  0  0  0
  6 41  1  0  0  0
  7  8  1  0  0  0
  8  9  1  0  0  0
  8 40  1  0  0  0
  9 10  1  0  0  0
  9 37  2  0  0  0
 10 11  1  0  0  0
 10 46  1  0  0  0
 11 12  1  0  0  0
 12 13  1  0  0  0
 13 14  1  0  0  0
 14 15  1  0  0  0
 15 16  1  0  0  0
 16 17  1  0  0  0
 17 18  1  0  0  0
 17 47  1  0  0  0
 18 19  2  0  0  0
 18 20  1  0  0  0
 20 21  2  0  0  0
 20 25  1  0  0  0
 21 22  1  0  0  0
 22 23  2  0  0  0
 23 24  1  0  0  0
 24 25  2  0  0  0
 25 26  1  0  0  0
 26 27  1  0  0  0
 26 48  1  0  0  0
 27 28  2  0  0  0
 27 29  1  0  0  0
 29 30  1  0  0  0
 30 31  2  0  0  0
 30 36  1  0  0  0
 31 32  1  0  0  0
 32 33  2  0  0  0
 33 34  1  0  0  0
 34 35  1  0  0  0
 34 36  2  0  0  0
 37 38  1  0  0  0
 38 39  2  0  0  0
 39 40  1  0  0  0
 40 41  1  0  0  0
 41 42  2  0  0  0
 43 44  2  0  0  0
 43 45  1  0  0  0
 45 49  1  0  0  0
M  END
>  <CHROM.0>
62.86573038,152.13876919,-149.58333925

>  <CHROM.1>
-122.78261074,105.22669206,-165.96068703,-63.51710501,165.68851452,-97.67687090
170.67083218,-67.79887145,93.79725261,-122.16983749,168.49707469,128.57127467
127.20367477,-48.47023361,-2.76160100,18.51402159,-0.02086153,0.78135032
1.47284498

>  <HEADER>
                                                                          

>  <MASTER>
        0    0    0    0    0    0    0    0   82    0   82    0          

>  <Name>
DAR.pdb

>  <RI>
-3.08595e+08

>  <Rbt.Current_Directory>
/root/miniconda3/envs/rdock/share/rxdock-2013.1.1_148c5bd1-0/data/ligands/prepped_ligands/DAR

>  <Rbt.Executable>
rbdock/0.1.0

>  <Rbt.Library>
librxdock.so/0.1.0

>  <Rbt.Parameter_File>
/root/miniconda3/envs/rdock/share/rxdock-2013.1.1_148c5bd1-0/data/scripts/dock.prm

>  <Rbt.Receptor>
def.prm

>  <SCORE>
-11

>  <SCORE.INTER>
-2.57608

>  <SCORE.INTER.CONST>
1

>  <SCORE.INTER.POLAR>
0

>  <SCORE.INTER.REPUL>
0.0238398

>  <SCORE.INTER.ROT>
13

>  <SCORE.INTER.VDW>
-21.0953

>  <SCORE.INTER.norm>
-0.0572463

>  <SCORE.INTRA>
-12.6445

>  <SCORE.INTRA.DIHEDRAL>
-20.5521

>  <SCORE.INTRA.DIHEDRAL.0>
43.3429

>  <SCORE.INTRA.POLAR>
0

>  <SCORE.INTRA.POLAR.0>
0

>  <SCORE.INTRA.REPUL>
0

>  <SCORE.INTRA.REPUL.0>
0

>  <SCORE.INTRA.VDW>
-2.36843

>  <SCORE.INTRA.VDW.0>
-3.00727

>  <SCORE.INTRA.norm>
-0.280989

>  <SCORE.RESTR>
2.35695

>  <SCORE.RESTR.CAVITY>
2.35695

>  <SCORE.RESTR.norm>
0.0523766

>  <SCORE.SYSTEM>
1.86367

>  <SCORE.SYSTEM.CONST>
0

>  <SCORE.SYSTEM.DIHEDRAL>
5.03959

>  <SCORE.SYSTEM.POLAR>
-0.0109572

>  <SCORE.SYSTEM.VDW>
-0.618871

>  <SCORE.SYSTEM.norm>
0.0414149

>  <SCORE.heavy>
45

>  <SCORE.norm>
-0.244444

>  <TITLE>
    DAR-DIA-9e4459de-1_D                                                  

$$$$
DAR.pdb
  RxDock  02242101583D
librxdock.so/0.1.0
 49 53  0  0  0  0  0  0  0  0999 V2000
  -43.8395    1.8059   20.9909 O   0  0  0  0  0  0
  -44.4036    1.4547   19.9692 C   0  0  0  0  0  0
  -43.8928    0.3002   19.1376 C   0  0  0  0  0  0
  -45.0266   -0.4389   18.4213 C   0  0  0  0  0  0
  -45.7332    0.6162   17.5651 C   0  0  0  0  0  0
  -46.8039    0.0062   16.7622 N   0  0  0  0  0  0
  -48.0100   -0.5796   17.3717 C   0  0  0  0  0  0
  -48.2286   -1.5584   16.2032 C   0  0  0  0  0  0
  -49.4367   -2.4600   16.0641 C   0  0  0  0  0  0
  -50.0896   -2.6912   17.2400 N   0  0  0  0  0  0
  -50.8722   -1.6203   17.8723 C   0  0  0  0  0  0
  -50.5044   -1.3566   19.3413 C   0  0  0  0  0  0
  -50.4199   -2.7101   20.0620 C   0  0  0  0  0  0
  -51.0029   -2.6002   21.4786 C   0  0  0  0  0  0
  -52.5182   -2.3795   21.3630 C   0  0  0  0  0  0
  -53.1882   -3.6221   20.7600 C   0  0  0  0  0  0
  -53.1233   -3.5237   19.2947 N   0  0  0  0  0  0
  -52.4972   -4.4862   18.5813 C   0  0  0  0  0  0
  -51.9664   -5.4630   19.1047 O   0  0  0  0  0  0
  -52.4152   -4.3864   17.0970 C   0  0  0  0  0  0
  -52.9045   -3.2771   16.4348 C   0  0  0  0  0  0
  -52.8046   -3.1763   15.0708 C   0  0  0  0  0  0
  -52.2412   -4.1168   14.2895 N   0  0  0  0  0  0
  -51.7672   -5.1936   14.9366 C   0  0  0  0  0  0
  -51.8318   -5.3743   16.3077 C   0  0  0  0  0  0
  -51.3243   -6.5451   16.8843 N   0  0  0  0  0  0
  -52.0542   -7.5621   17.3859 C   0  0  0  0  0  0
  -53.2757   -7.6126   17.3790 O   0  0  0  0  0  0
  -51.2056   -8.6848   17.9472 C   0  0  0  0  0  0
  -49.9196   -8.1328   18.5341 C   0  0  0  0  0  0
  -48.7171   -8.3610   17.9031 C   0  0  0  0  0  0
  -47.5510   -7.8592   18.4354 C   0  0  0  0  0  0
  -47.5842   -7.1272   19.6005 C   0  0  0  0  0  0
  -48.7855   -6.8962   20.2328 C   0  0  0  0  0  0
  -48.8300   -5.9712   21.7050 Cl  0  0  0  0  0  0
  -49.9520   -7.3990   19.6991 C   0  0  0  0  0  0
  -49.7388   -2.9634   14.8568 C   0  0  0  0  0  0
  -48.9098   -2.6347   13.6960 C   0  0  0  0  0  0
  -48.1010   -1.5769   13.7344 C   0  0  0  0  0  0
  -48.0140   -0.6977   14.9552 C   0  0  0  0  0  0
  -46.7335   -0.0681   15.4235 C   0  0  0  0  0  0
  -45.8068    0.3005   14.7155 O   0  0  0  0  0  0
  -46.2573    1.7574   18.4091 C   0  0  0  0  0  0
  -47.2757    2.3580   18.1101 O   0  0  0  0  0  0
  -45.5235    2.0555   19.5046 N   0  0  0  0  0  0
  -49.8095   -3.3523   17.7508 H   0  0  0  0  0  0
  -53.5116   -2.8467   18.8903 H   0  0  0  0  0  0
  -50.4499   -6.6202   16.9175 H   0  0  0  0  0  0
  -45.8219    2.7276   19.9894 H   0  0  0  0  0  0
  1  2  2  0  0  0
  2  3  1  0  0  0
  2 45  1  0  0  0
  3  4  1  0  0  0
  4  5  1  0  0  0
  5  6  1  0  0  0
  5 43  1  0  0  0
  6  7  1  0  0  0
  6 41  1  0  0  0
  7  8  1  0  0  0
  8  9  1  0  0  0
  8 40  1  0  0  0
  9 10  1  0  0  0
  9 37  2  0  0  0
 10 11  1  0  0  0
 10 46  1  0  0  0
 11 12  1  0  0  0
 12 13  1  0  0  0
 13 14  1  0  0  0
 14 15  1  0  0  0
 15 16  1  0  0  0
 16 17  1  0  0  0
 17 18  1  0  0  0
 17 47  1  0  0  0
 18 19  2  0  0  0
 18 20  1  0  0  0
 20 21  2  0  0  0
 20 25  1  0  0  0
 21 22  1  0  0  0
 22 23  2  0  0  0
 23 24  1  0  0  0
 24 25  2  0  0  0
 25 26  1  0  0  0
 26 27  1  0  0  0
 26 48  1  0  0  0
 27 28  2  0  0  0
 27 29  1  0  0  0
 29 30  1  0  0  0
 30 31  2  0  0  0
 30 36  1  0  0  0
 31 32  1  0  0  0
 32 33  2  0  0  0
 33 34  1  0  0  0
 34 35  1  0  0  0
 34 36  2  0  0  0
 37 38  1  0  0  0
 38 39  2  0  0  0
 39 40  1  0  0  0
 40 41  1  0  0  0
 41 42  2  0  0  0
 43 44  2  0  0  0
 43 45  1  0  0  0
 45 49  1  0  0  0
M  END
>  <CHROM.0>
-170.01767092,-62.21418384,177.88980344

>  <CHROM.1>
66.27986935,71.49653515,-126.96816906,-46.55547596,-141.23344415,68.47469953
65.95575416,-85.60489138,120.97764203,3.84706422,73.00819865,32.57397582
-109.23913324,-49.32865497,-3.15944766,17.96541713,-0.48920091,0.80741504
2.17058627

>  <HEADER>
                                                                          

>  <MASTER>
        0    0    0    0    0    0    0    0   82    0   82    0          

>  <Name>
DAR.pdb

>  <RI>
-3.08595e+08

>  <Rbt.Current_Directory>
/root/miniconda3/envs/rdock/share/rxdock-2013.1.1_148c5bd1-0/data/ligands/prepped_ligands/DAR

>  <Rbt.Executable>
rbdock/0.1.0

>  <Rbt.Library>
librxdock.so/0.1.0

>  <Rbt.Parameter_File>
/root/miniconda3/envs/rdock/share/rxdock-2013.1.1_148c5bd1-0/data/scripts/dock.prm

>  <Rbt.Receptor>
def.prm

>  <SCORE>
-13.7017

>  <SCORE.INTER>
-4.95448

>  <SCORE.INTER.CONST>
1

>  <SCORE.INTER.POLAR>
-1.19101

>  <SCORE.INTER.REPUL>
0

>  <SCORE.INTER.ROT>
13

>  <SCORE.INTER.VDW>
-19.305

>  <SCORE.INTER.norm>
-0.110099

>  <SCORE.INTRA>
-8.53366

>  <SCORE.INTRA.DIHEDRAL>
-16.0548

>  <SCORE.INTRA.DIHEDRAL.0>
43.3429

>  <SCORE.INTRA.POLAR>
0

>  <SCORE.INTRA.POLAR.0>
0

>  <SCORE.INTRA.REPUL>
0

>  <SCORE.INTRA.REPUL.0>
0

>  <SCORE.INTRA.VDW>
-0.50628

>  <SCORE.INTRA.VDW.0>
-3.00727

>  <SCORE.INTRA.norm>
-0.189637

>  <SCORE.RESTR>
0.724288

>  <SCORE.RESTR.CAVITY>
0.724288

>  <SCORE.RESTR.norm>
0.0160953

>  <SCORE.SYSTEM>
-0.937826

>  <SCORE.SYSTEM.CONST>
0

>  <SCORE.SYSTEM.DIHEDRAL>
0.270324

>  <SCORE.SYSTEM.VDW>
-1.07299

>  <SCORE.SYSTEM.norm>
-0.0208406

>  <SCORE.heavy>
45

>  <SCORE.norm>
-0.304482

>  <TITLE>
    DAR-DIA-9e4459de-1_D                                                  

$$$$
DAR.pdb
  RxDock  02242101583D
librxdock.so/0.1.0
 49 53  0  0  0  0  0  0  0  0999 V2000
  -54.6240   -4.2328   15.4312 O   0  0  0  0  0  0
  -54.0779   -4.8221   16.3477 C   0  0  0  0  0  0
  -53.8594   -6.3175   16.3111 C   0  0  0  0  0  0
  -52.5966   -6.7332   17.0708 C   0  0  0  0  0  0
  -52.7837   -6.2157   18.5001 C   0  0  0  0  0  0
  -51.6588   -6.6240   19.3552 N   0  0  0  0  0  0
  -50.2770   -6.1791   19.1056 C   0  0  0  0  0  0
  -49.6651   -7.4231   19.7760 C   0  0  0  0  0  0
  -48.1838   -7.6139   20.0227 C   0  0  0  0  0  0
  -47.3888   -6.8468   19.2214 N   0  0  0  0  0  0
  -47.6473   -6.7756   17.7766 C   0  0  0  0  0  0
  -47.9866   -5.3654   17.2677 C   0  0  0  0  0  0
  -48.9407   -5.5067   16.0725 C   0  0  0  0  0  0
  -49.3110   -4.1239   15.5162 C   0  0  0  0  0  0
  -50.6617   -3.7064   16.1159 C   0  0  0  0  0  0
  -50.7320   -2.1784   16.2457 C   0  0  0  0  0  0
  -50.2334   -1.5799   14.9990 N   0  0  0  0  0  0
  -49.9825   -0.2528   14.9415 C   0  0  0  0  0  0
  -50.1530    0.4985   15.8987 O   0  0  0  0  0  0
  -49.4902    0.3635   13.6775 C   0  0  0  0  0  0
  -50.2800    1.2466   12.9670 C   0  0  0  0  0  0
  -49.8146    1.8322   11.8176 C   0  0  0  0  0  0
  -48.5918    1.6038   11.3027 N   0  0  0  0  0  0
  -47.8273    0.7448   11.9958 C   0  0  0  0  0  0
  -48.2224    0.1091   13.1606 C   0  0  0  0  0  0
  -47.3551   -0.7863   13.7984 N   0  0  0  0  0  0
  -47.0806   -0.8194   15.1184 C   0  0  0  0  0  0
  -47.5813   -0.0792   15.9528 O   0  0  0  0  0  0
  -46.0931   -1.9050   15.4948 C   0  0  0  0  0  0
  -45.2750   -1.4808   16.7005 C   0  0  0  0  0  0
  -44.7547   -2.4294   17.5523 C   0  0  0  0  0  0
  -44.0118   -2.0440   18.6452 C   0  0  0  0  0  0
  -43.7868   -0.7083   18.8894 C   0  0  0  0  0  0
  -44.3046    0.2424   18.0384 C   0  0  0  0  0  0
  -44.0213    1.9309   18.3446 Cl  0  0  0  0  0  0
  -45.0481   -0.1445   16.9448 C   0  0  0  0  0  0
  -47.7860   -8.5043   20.9453 C   0  0  0  0  0  0
  -48.7777   -9.2706   21.7015 C   0  0  0  0  0  0
  -50.0402   -8.8496   21.7600 C   0  0  0  0  0  0
  -50.4821   -7.5903   21.0602 C   0  0  0  0  0  0
  -51.8257   -7.4437   20.4053 C   0  0  0  0  0  0
  -52.8673   -7.9753   20.7634 O   0  0  0  0  0  0
  -52.9823   -4.7159   18.5271 C   0  0  0  0  0  0
  -52.5864   -4.0357   19.4586 O   0  0  0  0  0  0
  -53.6207   -4.1943   17.4557 N   0  0  0  0  0  0
  -46.5789   -6.6465   19.5045 H   0  0  0  0  0  0
  -50.0823   -2.0955   14.3034 H   0  0  0  0  0  0
  -46.9580   -1.3805   13.2879 H   0  0  0  0  0  0
  -53.7470   -3.3230   17.4769 H   0  0  0  0  0  0
  1  2  2  0  0  0
  2  3  1  0  0  0
  2 45  1  0  0  0
  3  4  1  0  0  0
  4  5  1  0  0  0
  5  6  1  0  0  0
  5 43  1  0  0  0
  6  7  1  0  0  0
  6 41  1  0  0  0
  7  8  1  0  0  0
  8  9  1  0  0  0
  8 40  1  0  0  0
  9 10  1  0  0  0
  9 37  2  0  0  0
 10 11  1  0  0  0
 10 46  1  0  0  0
 11 12  1  0  0  0
 12 13  1  0  0  0
 13 14  1  0  0  0
 14 15  1  0  0  0
 15 16  1  0  0  0
 16 17  1  0  0  0
 17 18  1  0  0  0
 17 47  1  0  0  0
 18 19  2  0  0  0
 18 20  1  0  0  0
 20 21  2  0  0  0
 20 25  1  0  0  0
 21 22  1  0  0  0
 22 23  2  0  0  0
 23 24  1  0  0  0
 24 25  2  0  0  0
 25 26  1  0  0  0
 26 27  1  0  0  0
 26 48  1  0  0  0
 27 28  2  0  0  0
 27 29  1  0  0  0
 29 30  1  0  0  0
 30 31  2  0  0  0
 30 36  1  0  0  0
 31 32  1  0  0  0
 32 33  2  0  0  0
 33 34  1  0  0  0
 34 35  1  0  0  0
 34 36  2  0  0  0
 37 38  1  0  0  0
 38 39  2  0  0  0
 39 40  1  0  0  0
 40 41  1  0  0  0
 41 42  2  0  0  0
 43 44  2  0  0  0
 43 45  1  0  0  0
 45 49  1  0  0  0
M  END
>  <CHROM.0>
177.64950770,-168.76128938,45.17068035

>  <CHROM.1>
62.81096695,-46.86809306,118.46997671,-148.92549888,-179.75803246,-96.94326991
149.54638613,45.12229585,-168.92307310,112.63104591,-47.00622617,149.61890480
152.45572096,-49.11547066,-3.31808871,17.11589688,2.06114237,0.38454400,2.42770690

>  <HEADER>
                                                                          

>  <MASTER>
        0    0    0    0    0    0    0    0   82    0   82    0          

>  <Name>
DAR.pdb

>  <RI>
-3.08595e+08

>  <Rbt.Current_Directory>
/root/miniconda3/envs/rdock/share/rxdock-2013.1.1_148c5bd1-0/data/ligands/prepped_ligands/DAR

>  <Rbt.Executable>
rbdock/0.1.0

>  <Rbt.Library>
librxdock.so/0.1.0

>  <Rbt.Parameter_File>
/root/miniconda3/envs/rdock/share/rxdock-2013.1.1_148c5bd1-0/data/scripts/dock.prm

>  <Rbt.Receptor>
def.prm

>  <SCORE>
-18.636

>  <SCORE.INTER>
-18.4998

>  <SCORE.INTER.CONST>
1

>  <SCORE.INTER.POLAR>
-1.83386

>  <SCORE.INTER.REPUL>
0.0111227

>  <SCORE.INTER.ROT>
13

>  <SCORE.INTER.VDW>
-30.7203

>  <SCORE.INTER.norm>
-0.411107

>  <SCORE.INTRA>
-2.70827

>  <SCORE.INTRA.DIHEDRAL>
-6.8466

>  <SCORE.INTRA.DIHEDRAL.0>
43.3429

>  <SCORE.INTRA.POLAR>
0

>  <SCORE.INTRA.POLAR.0>
0

>  <SCORE.INTRA.REPUL>
0

>  <SCORE.INTRA.REPUL.0>
0

>  <SCORE.INTRA.VDW>
0.715029

>  <SCORE.INTRA.VDW.0>
-3.00727

>  <SCORE.INTRA.norm>
-0.0601838

>  <SCORE.RESTR>
3.07014

>  <SCORE.RESTR.CAVITY>
3.07014

>  <SCORE.RESTR.norm>
0.0682254

>  <SCORE.SYSTEM>
-0.498072

>  <SCORE.SYSTEM.CONST>
0

>  <SCORE.SYSTEM.DIHEDRAL>
1.14784

>  <SCORE.SYSTEM.VDW>
-1.07199

>  <SCORE.SYSTEM.norm>
-0.0110683

>  <SCORE.heavy>
45

>  <SCORE.norm>
-0.414133

>  <TITLE>
    DAR-DIA-9e4459de-1_D                                                  

$$$$
DAR.pdb
  RxDock  02242101583D
librxdock.so/0.1.0
 49 53  0  0  0  0  0  0  0  0999 V2000
  -42.5219   -0.9016   20.5159 O   0  0  0  0  0  0
  -43.2430   -0.7759   19.5413 C   0  0  0  0  0  0
  -43.4567   -1.9070   18.5613 C   0  0  0  0  0  0
  -44.8479   -1.8601   17.9232 C   0  0  0  0  0  0
  -44.9478   -0.4893   17.2476 C   0  0  0  0  0  0
  -46.2229   -0.3536   16.5271 N   0  0  0  0  0  0
  -47.4993   -0.1137   17.2220 C   0  0  0  0  0  0
  -48.3285   -0.7793   16.1081 C   0  0  0  0  0  0
  -49.8417   -0.7959   16.0692 C   0  0  0  0  0  0
  -50.4261   -0.5940   17.2859 N   0  0  0  0  0  0
  -51.7838   -1.0930   17.5442 C   0  0  0  0  0  0
  -52.1213   -1.2533   19.0352 C   0  0  0  0  0  0
  -51.3763   -2.4886   19.5625 C   0  0  0  0  0  0
  -51.8389   -2.8253   20.9878 C   0  0  0  0  0  0
  -51.0676   -4.0636   21.4674 C   0  0  0  0  0  0
  -51.9949   -5.2868   21.4906 C   0  0  0  0  0  0
  -51.2535   -6.4454   20.9721 N   0  0  0  0  0  0
  -51.1458   -6.6349   19.6380 C   0  0  0  0  0  0
  -51.6467   -5.8721   18.8152 O   0  0  0  0  0  0
  -50.4078   -7.8144   19.1050 C   0  0  0  0  0  0
  -49.9723   -8.8169   19.9499 C   0  0  0  0  0  0
  -49.3158   -9.9138   19.4535 C   0  0  0  0  0  0
  -49.0496  -10.0997   18.1470 N   0  0  0  0  0  0
  -49.4741   -9.1232   17.3290 C   0  0  0  0  0  0
  -50.1393   -7.9839   17.7492 C   0  0  0  0  0  0
  -50.5237   -7.0133   16.8159 N   0  0  0  0  0  0
  -50.0572   -5.7497   16.7492 C   0  0  0  0  0  0
  -49.2021   -5.2829   17.4878 O   0  0  0  0  0  0
  -50.6789   -4.9433   15.6273 C   0  0  0  0  0  0
  -52.1931   -4.9956   15.7147 C   0  0  0  0  0  0
  -52.8599   -4.2251   16.6409 C   0  0  0  0  0  0
  -54.2334   -4.2723   16.7190 C   0  0  0  0  0  0
  -54.9443   -5.0902   15.8704 C   0  0  0  0  0  0
  -54.2802   -5.8606   14.9422 C   0  0  0  0  0  0
  -55.1764   -6.8946   13.8686 Cl  0  0  0  0  0  0
  -52.9054   -5.8126   14.8649 C   0  0  0  0  0  0
  -50.4612   -1.0285   14.9011 C   0  0  0  0  0  0
  -49.6766   -1.2555   13.6865 C   0  0  0  0  0  0
  -48.4001   -0.8777   13.6390 C   0  0  0  0  0  0
  -47.7321   -0.2147   14.8158 C   0  0  0  0  0  0
  -46.2986   -0.4594   15.1909 C   0  0  0  0  0  0
  -45.3817   -0.7103   14.4212 O   0  0  0  0  0  0
  -44.7517    0.6357   18.2402 C   0  0  0  0  0  0
  -45.3227    1.7058   18.1142 O   0  0  0  0  0  0
  -43.9095    0.3683   19.2634 N   0  0  0  0  0  0
  -50.1276    0.0649   17.7889 H   0  0  0  0  0  0
  -50.8668   -6.9975   21.5363 H   0  0  0  0  0  0
  -51.1216   -7.2555   16.2200 H   0  0  0  0  0  0
  -43.7860    1.0272   19.8347 H   0  0  0  0  0  0
  1  2  2  0  0  0
  2  3  1  0  0  0
  2 45  1  0  0  0
  3  4  1  0  0  0
  4  5  1  0  0  0
  5  6  1  0  0  0
  5 43  1  0  0  0
  6  7  1  0  0  0
  6 41  1  0  0  0
  7  8  1  0  0  0
  8  9  1  0  0  0
  8 40  1  0  0  0
  9 10  1  0  0  0
  9 37  2  0  0  0
 10 11  1  0  0  0
 10 46  1  0  0  0
 11 12  1  0  0  0
 12 13  1  0  0  0
 13 14  1  0  0  0
 14 15  1  0  0  0
 15 16  1  0  0  0
 16 17  1  0  0  0
 17 18  1  0  0  0
 17 47  1  0  0  0
 18 19  2  0  0  0
 18 20  1  0  0  0
 20 21  2  0  0  0
 20 25  1  0  0  0
 21 22  1  0  0  0
 22 23  2  0  0  0
 23 24  1  0  0  0
 24 25  2  0  0  0
 25 26  1  0  0  0
 26 27  1  0  0  0
 26 48  1  0  0  0
 27 28  2  0  0  0
 27 29  1  0  0  0
 29 30  1  0  0  0
 30 31  2  0  0  0
 30 36  1  0  0  0
 31 32  1  0  0  0
 32 33  2  0  0  0
 33 34  1  0  0  0
 34 35  1  0  0  0
 34 36  2  0  0  0
 37 38  1  0  0  0
 38 39  2  0  0  0
 39 40  1  0  0  0
 40 41  1  0  0  0
 41 42  2  0  0  0
 43 44  2  0  0  0
 43 45  1  0  0  0
 45 49  1  0  0  0
M  END
>  <CHROM.0>
178.06719670,176.06415358,-49.61082482

>  <CHROM.1>
75.63651259,-155.53691364,159.25537387,-73.82943688,-171.41307693,179.97276981
-107.10966249,138.74991818,-82.31439480,8.33051155,64.45969967,53.10323467
77.40789500,-49.53833686,-3.62706220,17.38660647,-0.51690772,0.53753173,2.50418273

>  <HEADER>
                                                                          

>  <MASTER>
        0    0    0    0    0    0    0    0   82    0   82    0          

>  <Name>
DAR.pdb

>  <RI>
-3.08595e+08

>  <Rbt.Current_Directory>
/root/miniconda3/envs/rdock/share/rxdock-2013.1.1_148c5bd1-0/data/ligands/prepped_ligands/DAR

>  <Rbt.Executable>
rbdock/0.1.0

>  <Rbt.Library>
librxdock.so/0.1.0

>  <Rbt.Parameter_File>
/root/miniconda3/envs/rdock/share/rxdock-2013.1.1_148c5bd1-0/data/scripts/dock.prm

>  <Rbt.Receptor>
def.prm

>  <SCORE>
-26.3

>  <SCORE.INTER>
-15.4146

>  <SCORE.INTER.CONST>
1

>  <SCORE.INTER.POLAR>
-0.476735

>  <SCORE.INTER.REPUL>
0

>  <SCORE.INTER.ROT>
13

>  <SCORE.INTER.VDW>
-32.1937

>  <SCORE.INTER.norm>
-0.342547

>  <SCORE.INTRA>
-10.1074

>  <SCORE.INTRA.DIHEDRAL>
-15.2351

>  <SCORE.INTRA.DIHEDRAL.0>
43.3429

>  <SCORE.INTRA.POLAR>
0

>  <SCORE.INTRA.POLAR.0>
0

>  <SCORE.INTRA.REPUL>
0

>  <SCORE.INTRA.REPUL.0>
0

>  <SCORE.INTRA.VDW>
-2.48984

>  <SCORE.INTRA.VDW.0>
-3.00727

>  <SCORE.INTRA.norm>
-0.224609

>  <SCORE.RESTR>
0.084228

>  <SCORE.RESTR.CAVITY>
0.084228

>  <SCORE.RESTR.norm>
0.00187173

>  <SCORE.SYSTEM>
-0.862187

>  <SCORE.SYSTEM.CONST>
0

>  <SCORE.SYSTEM.DIHEDRAL>
0.338749

>  <SCORE.SYSTEM.POLAR>
-0.0180059

>  <SCORE.SYSTEM.VDW>
-0.970341

>  <SCORE.SYSTEM.norm>
-0.0191597

>  <SCORE.heavy>
45

>  <SCORE.norm>
-0.584444

>  <TITLE>
    DAR-DIA-9e4459de-1_D                                                  

$$$$
DAR.pdb
  RxDock  02242101593D
librxdock.so/0.1.0
 49 53  0  0  0  0  0  0  0  0999 V2000
  -50.2266    1.3000   21.8152 O   0  0  0  0  0  0
  -49.2673    0.8265   21.2312 C   0  0  0  0  0  0
  -49.2932   -0.5773   20.6710 C   0  0  0  0  0  0
  -48.4225   -0.7132   19.4187 C   0  0  0  0  0  0
  -47.0134   -0.2922   19.8462 C   0  0  0  0  0  0
  -46.0604   -0.4552   18.7378 N   0  0  0  0  0  0
  -46.4680   -0.3510   17.3262 C   0  0  0  0  0  0
  -45.3318   -1.2706   16.8419 C   0  0  0  0  0  0
  -45.0204   -1.5427   15.3856 C   0  0  0  0  0  0
  -46.0671   -1.2998   14.5441 N   0  0  0  0  0  0
  -47.0656   -2.3468   14.2874 C   0  0  0  0  0  0
  -48.2969   -1.8626   13.5051 C   0  0  0  0  0  0
  -49.1998   -1.0825   14.4721 C   0  0  0  0  0  0
  -50.6690   -1.1894   14.0376 C   0  0  0  0  0  0
  -50.9311   -2.6270   13.5655 C   0  0  0  0  0  0
  -50.4625   -3.6266   14.6322 C   0  0  0  0  0  0
  -50.6848   -3.0334   15.9587 N   0  0  0  0  0  0
  -51.9434   -2.7789   16.3811 C   0  0  0  0  0  0
  -52.9361   -3.0229   15.6992 O   0  0  0  0  0  0
  -52.1762   -2.1650   17.7186 C   0  0  0  0  0  0
  -52.2181   -0.7924   17.8689 C   0  0  0  0  0  0
  -52.4580   -0.2302   19.0965 C   0  0  0  0  0  0
  -52.6656   -0.9435   20.2192 N   0  0  0  0  0  0
  -52.6238   -2.2771   20.0693 C   0  0  0  0  0  0
  -52.3842   -2.9228   18.8682 C   0  0  0  0  0  0
  -52.3416   -4.3217   18.8216 N   0  0  0  0  0  0
  -52.2435   -5.1473   19.8834 C   0  0  0  0  0  0
  -52.2066   -4.7812   21.0493 O   0  0  0  0  0  0
  -52.2137   -6.6123   19.4986 C   0  0  0  0  0  0
  -50.9002   -6.9541   18.8197 C   0  0  0  0  0  0
  -50.2366   -6.0027   18.0777 C   0  0  0  0  0  0
  -49.0446   -6.3130   17.4630 C   0  0  0  0  0  0
  -48.5126   -7.5762   17.5888 C   0  0  0  0  0  0
  -49.1734   -8.5291   18.3314 C   0  0  0  0  0  0
  -48.5029  -10.1259   18.4921 Cl  0  0  0  0  0  0
  -50.3664   -8.2174   18.9463 C   0  0  0  0  0  0
  -43.8060   -2.0097   15.0549 C   0  0  0  0  0  0
  -42.8016   -2.2436   16.0936 C   0  0  0  0  0  0
  -42.9326   -1.6673   17.2874 C   0  0  0  0  0  0
  -44.1012   -0.7697   17.6030 C   0  0  0  0  0  0
  -44.7632   -0.7275   18.9504 C   0  0  0  0  0  0
  -44.2189   -0.9108   20.0303 O   0  0  0  0  0  0
  -46.9951    1.1207   20.3874 C   0  0  0  0  0  0
  -46.0265    1.8475   20.2434 O   0  0  0  0  0  0
  -48.1176    1.5114   21.0314 N   0  0  0  0  0  0
  -45.9839   -0.6560   13.9484 H   0  0  0  0  0  0
  -49.9952   -2.8666   16.4776 H   0  0  0  0  0  0
  -52.3859   -4.6903   18.0257 H   0  0  0  0  0  0
  -48.1025    2.3297   21.3568 H   0  0  0  0  0  0
  1  2  2  0  0  0
  2  3  1  0  0  0
  2 45  1  0  0  0
  3  4  1  0  0  0
  4  5  1  0  0  0
  5  6  1  0  0  0
  5 43  1  0  0  0
  6  7  1  0  0  0
  6 41  1  0  0  0
  7  8  1  0  0  0
  8  9  1  0  0  0
  8 40  1  0  0  0
  9 10  1  0  0  0
  9 37  2  0  0  0
 10 11  1  0  0  0
 10 46  1  0  0  0
 11 12  1  0  0  0
 12 13  1  0  0  0
 13 14  1  0  0  0
 14 15  1  0  0  0
 15 16  1  0  0  0
 16 17  1  0  0  0
 17 18  1  0  0  0
 17 47  1  0  0  0
 18 19  2  0  0  0
 18 20  1  0  0  0
 20 21  2  0  0  0
 20 25  1  0  0  0
 21 22  1  0  0  0
 22 23  2  0  0  0
 23 24  1  0  0  0
 24 25  2  0  0  0
 25 26  1  0  0  0
 26 27  1  0  0  0
 26 48  1  0  0  0
 27 28  2  0  0  0
 27 29  1  0  0  0
 29 30  1  0  0  0
 30 31  2  0  0  0
 30 36  1  0  0  0
 31 32  1  0  0  0
 32 33  2  0  0  0
 33 34  1  0  0  0
 34 35  1  0  0  0
 34 36  2  0  0  0
 37 38  1  0  0  0
 38 39  2  0  0  0
 39 40  1  0  0  0
 40 41  1  0  0  0
 41 42  2  0  0  0
 43 44  2  0  0  0
 43 45  1  0  0  0
 45 49  1  0  0  0
M  END
>  <CHROM.0>
-157.73598138,63.45112208,-49.61833152

>  <CHROM.1>
28.67851817,-86.65033247,170.74293420,-76.71921129,-151.12042580,40.25613281
51.74280004,33.92247468,64.92269891,89.34555902,165.03783162,70.44098258
-30.67773339,-48.87077393,-2.73327489,17.93322404,0.81145957,0.40105773,0.31589857

>  <HEADER>
                                                                          

>  <MASTER>
        0    0    0    0    0    0    0    0   82    0   82    0          

>  <Name>
DAR.pdb

>  <RI>
-3.08595e+08

>  <Rbt.Current_Directory>
/root/miniconda3/envs/rdock/share/rxdock-2013.1.1_148c5bd1-0/data/ligands/prepped_ligands/DAR

>  <Rbt.Executable>
rbdock/0.1.0

>  <Rbt.Library>
librxdock.so/0.1.0

>  <Rbt.Parameter_File>
/root/miniconda3/envs/rdock/share/rxdock-2013.1.1_148c5bd1-0/data/scripts/dock.prm

>  <Rbt.Receptor>
def.prm

>  <SCORE>
-3.98543

>  <SCORE.INTER>
-6.19247

>  <SCORE.INTER.CONST>
1

>  <SCORE.INTER.POLAR>
-0.128587

>  <SCORE.INTER.REPUL>
0

>  <SCORE.INTER.ROT>
13

>  <SCORE.INTER.VDW>
-24.1553

>  <SCORE.INTER.norm>
-0.13761

>  <SCORE.INTRA>
-0.115943

>  <SCORE.INTRA.DIHEDRAL>
-15.1323

>  <SCORE.INTRA.DIHEDRAL.0>
43.3429

>  <SCORE.INTRA.POLAR>
0

>  <SCORE.INTRA.POLAR.0>
0

>  <SCORE.INTRA.REPUL>
0

>  <SCORE.INTRA.REPUL.0>
0

>  <SCORE.INTRA.VDW>
7.45021

>  <SCORE.INTRA.VDW.0>
-3.00727

>  <SCORE.INTRA.norm>
-0.0025765

>  <SCORE.RESTR>
2.46329

>  <SCORE.RESTR.CAVITY>
2.46329

>  <SCORE.RESTR.norm>
0.0547399

>  <SCORE.SYSTEM>
-0.140311

>  <SCORE.SYSTEM.CONST>
0

>  <SCORE.SYSTEM.DIHEDRAL>
1.38784

>  <SCORE.SYSTEM.POLAR>
-0.0180001

>  <SCORE.SYSTEM.VDW>
-0.773031

>  <SCORE.SYSTEM.norm>
-0.00311803

>  <SCORE.heavy>
45

>  <SCORE.norm>
-0.0885651

>  <TITLE>
    DAR-DIA-9e4459de-1_D                                                  

$$$$
