DAR.pdb
  RxDock  02242101133D
librxdock.so/0.1.0
 49 53  0  0  0  0  0  0  0  0999 V2000
  -46.7713    1.2721   23.1739 O   0  0  0  0  0  0
  -46.3783    1.0559   22.0406 C   0  0  0  0  0  0
  -45.2318    0.1098   21.7655 C   0  0  0  0  0  0
  -45.3744   -0.5882   20.4100 C   0  0  0  0  0  0
  -45.4528    0.5351   19.3718 C   0  0  0  0  0  0
  -45.5148   -0.0158   18.0095 N   0  0  0  0  0  0
  -46.7354   -0.6339   17.4640 C   0  0  0  0  0  0
  -45.9482   -1.5333   16.4931 C   0  0  0  0  0  0
  -46.5888   -2.4177   15.4446 C   0  0  0  0  0  0
  -47.8938   -2.7218   15.7034 N   0  0  0  0  0  0
  -48.3025   -3.1289   17.0548 C   0  0  0  0  0  0
  -49.8019   -3.4385   17.1914 C   0  0  0  0  0  0
  -50.5880   -2.2617   16.5946 C   0  0  0  0  0  0
  -52.0739   -2.6249   16.4569 C   0  0  0  0  0  0
  -52.2147   -3.6763   15.3465 C   0  0  0  0  0  0
  -52.7066   -5.0051   15.9372 C   0  0  0  0  0  0
  -51.5479   -5.7391   16.4660 N   0  0  0  0  0  0
  -51.7272   -6.9300   17.0801 C   0  0  0  0  0  0
  -52.8337   -7.4445   17.2236 O   0  0  0  0  0  0
  -50.5593   -7.6733   17.6310 C   0  0  0  0  0  0
  -50.2757   -8.9578   17.2089 C   0  0  0  0  0  0
  -49.1854   -9.6301   17.6985 C   0  0  0  0  0  0
  -48.3295   -9.1134   18.6000 N   0  0  0  0  0  0
  -48.6085   -7.8650   19.0081 C   0  0  0  0  0  0
  -49.6891   -7.1203   18.5670 C   0  0  0  0  0  0
  -49.9033   -5.8312   19.0703 N   0  0  0  0  0  0
  -49.3445   -5.3119   20.1824 C   0  0  0  0  0  0
  -48.5415   -5.8953   20.8962 O   0  0  0  0  0  0
  -49.7859   -3.8899   20.4629 C   0  0  0  0  0  0
  -51.3003   -3.8067   20.5144 C   0  0  0  0  0  0
  -51.9604   -2.7929   19.8567 C   0  0  0  0  0  0
  -53.3342   -2.7185   19.9029 C   0  0  0  0  0  0
  -54.0520   -3.6584   20.6069 C   0  0  0  0  0  0
  -53.3946   -4.6742   21.2643 C   0  0  0  0  0  0
  -54.2995   -5.8632   22.1544 Cl  0  0  0  0  0  0
  -52.0195   -4.7476   21.2174 C   0  0  0  0  0  0
  -45.8486   -2.8398   14.4072 C   0  0  0  0  0  0
  -44.4447   -2.4404   14.2964 C   0  0  0  0  0  0
  -43.9954   -1.3915   14.9838 C   0  0  0  0  0  0
  -44.9033   -0.5942   15.8842 C   0  0  0  0  0  0
  -44.4522   -0.0030   17.1890 C   0  0  0  0  0  0
  -43.3292    0.4062   17.4485 O   0  0  0  0  0  0
  -46.6148    1.4650   19.6451 C   0  0  0  0  0  0
  -47.2157    2.0196   18.7405 O   0  0  0  0  0  0
  -46.9330    1.6308   20.9485 N   0  0  0  0  0  0
  -48.4098   -2.9577   15.0293 H   0  0  0  0  0  0
  -50.7414   -5.4059   16.3602 H   0  0  0  0  0  0
  -50.4505   -5.3170   18.6149 H   0  0  0  0  0  0
  -47.6016    2.1813   21.1084 H   0  0  0  0  0  0
  1  2  2  0  0  0
  2  3  1  0  0  0
  2 45  1  0  0  0
  3  4  1  0  0  0
  4  5  1  0  0  0
  5  6  1  0  0  0
  5 43  1  0  0  0
  6  7  1  0  0  0
  6 41  1  0  0  0
  7  8  1  0  0  0
  8  9  1  0  0  0
  8 40  1  0  0  0
  9 10  1  0  0  0
  9 37  2  0  0  0
 10 11  1  0  0  0
 10 46  1  0  0  0
 11 12  1  0  0  0
 12 13  1  0  0  0
 13 14  1  0  0  0
 14 15  1  0  0  0
 15 16  1  0  0  0
 16 17  1  0  0  0
 17 18  1  0  0  0
 17 47  1  0  0  0
 18 19  2  0  0  0
 18 20  1  0  0  0
 20 21  2  0  0  0
 20 25  1  0  0  0
 21 22  1  0  0  0
 22 23  2  0  0  0
 23 24  1  0  0  0
 24 25  2  0  0  0
 25 26  1  0  0  0
 26 27  1  0  0  0
 26 48  1  0  0  0
 27 28  2  0  0  0
 27 29  1  0  0  0
 29 30  1  0  0  0
 30 31  2  0  0  0
 30 36  1  0  0  0
 31 32  1  0  0  0
 32 33  2  0  0  0
 33 34  1  0  0  0
 34 35  1  0  0  0
 34 36  2  0  0  0
 37 38  1  0  0  0
 38 39  2  0  0  0
 39 40  1  0  0  0
 40 41  1  0  0  0
 41 42  2  0  0  0
 43 44  2  0  0  0
 43 45  1  0  0  0
 45 49  1  0  0  0
M  END
>  <CHROM.0>
-60.02745696,-63.10097605,171.29493760

>  <CHROM.1>
74.99858921,-44.95157421,179.99010463,-50.30157799,169.21238206,-69.81955153
114.65575485,-83.55981998,177.92251554,-122.18471193,163.18651895,54.41335137
-134.41151648,-48.97340779,-3.30110780,18.52711688,0.43055493,0.66614170
0.80371464

>  <HEADER>
                                                                          

>  <MASTER>
        0    0    0    0    0    0    0    0   82    0   82    0          

>  <Name>
DAR.pdb

>  <RI>
-1.97336e+08

>  <Rbt.Current_Directory>
/root/miniconda3/envs/rdock/share/rxdock-2013.1.1_148c5bd1-0/data/ligands/prepped_ligands/DAR

>  <Rbt.Executable>
rbdock/0.1.0

>  <Rbt.Library>
librxdock.so/0.1.0

>  <Rbt.Parameter_File>
/root/miniconda3/envs/rdock/share/rxdock-2013.1.1_148c5bd1-0/data/scripts/dock.prm

>  <Rbt.Receptor>
def.prm

>  <SCORE>
-9.62475

>  <SCORE.INTER>
-3.92925

>  <SCORE.INTER.CONST>
1

>  <SCORE.INTER.POLAR>
0

>  <SCORE.INTER.REPUL>
0

>  <SCORE.INTER.ROT>
13

>  <SCORE.INTER.VDW>
-22.3293

>  <SCORE.INTER.norm>
-0.0873167

>  <SCORE.INTRA>
-6.84312

>  <SCORE.INTRA.DIHEDRAL>
-17.1086

>  <SCORE.INTRA.DIHEDRAL.0>
43.3429

>  <SCORE.INTRA.POLAR>
0

>  <SCORE.INTRA.POLAR.0>
0

>  <SCORE.INTRA.REPUL>
0

>  <SCORE.INTRA.REPUL.0>
0

>  <SCORE.INTRA.VDW>
1.71117

>  <SCORE.INTRA.VDW.0>
-3.00727

>  <SCORE.INTRA.norm>
-0.152069

>  <SCORE.RESTR>
2.13146

>  <SCORE.RESTR.CAVITY>
2.13146

>  <SCORE.RESTR.norm>
0.0473657

>  <SCORE.SYSTEM>
-0.983826

>  <SCORE.SYSTEM.CONST>
0

>  <SCORE.SYSTEM.DIHEDRAL>
0.238178

>  <SCORE.SYSTEM.VDW>
-1.10291

>  <SCORE.SYSTEM.norm>
-0.0218628

>  <SCORE.heavy>
45

>  <SCORE.norm>
-0.213883

>  <TITLE>
    DAR-DIA-9e4459de-1_D                                                  

$$$$
DAR.pdb
  RxDock  02242101143D
librxdock.so/0.1.0
 49 53  0  0  0  0  0  0  0  0999 V2000
  -45.2715    2.4921   22.5775 O   0  0  0  0  0  0
  -45.5985    1.9173   21.5537 C   0  0  0  0  0  0
  -46.4989    2.5704   20.5300 C   0  0  0  0  0  0
  -46.1936    2.0933   19.1074 C   0  0  0  0  0  0
  -46.3656    0.5717   19.1349 C   0  0  0  0  0  0
  -46.1721   -0.0004   17.7937 N   0  0  0  0  0  0
  -47.2481   -0.7026   17.0736 C   0  0  0  0  0  0
  -46.2605   -1.5628   16.2636 C   0  0  0  0  0  0
  -46.6674   -2.5004   15.1469 C   0  0  0  0  0  0
  -47.9761   -2.8840   15.1994 N   0  0  0  0  0  0
  -48.3436   -4.1728   15.8019 C   0  0  0  0  0  0
  -47.7176   -4.4219   17.1834 C   0  0  0  0  0  0
  -47.8886   -5.9099   17.5231 C   0  0  0  0  0  0
  -49.3639   -6.3204   17.4050 C   0  0  0  0  0  0
  -49.4743   -7.8223   17.7052 C   0  0  0  0  0  0
  -50.9461   -8.2581   17.6838 C   0  0  0  0  0  0
  -51.7280   -7.3036   18.4829 N   0  0  0  0  0  0
  -51.8066   -7.4524   19.8241 C   0  0  0  0  0  0
  -51.2459   -8.3651   20.4262 O   0  0  0  0  0  0
  -52.6084   -6.4971   20.6392 C   0  0  0  0  0  0
  -53.4668   -6.9526   21.6212 C   0  0  0  0  0  0
  -54.1844   -6.0701   22.3873 C   0  0  0  0  0  0
  -54.1154   -4.7325   22.2518 N   0  0  0  0  0  0
  -53.2804   -4.2936   21.2962 C   0  0  0  0  0  0
  -52.5245   -5.1164   20.4787 C   0  0  0  0  0  0
  -51.6967   -4.5584   19.4967 N   0  0  0  0  0  0
  -51.6087   -3.2493   19.1848 C   0  0  0  0  0  0
  -52.2282   -2.3566   19.7451 O   0  0  0  0  0  0
  -50.6239   -2.9674   18.0686 C   0  0  0  0  0  0
  -51.3244   -3.0066   16.7229 C   0  0  0  0  0  0
  -50.9611   -2.1269   15.7277 C   0  0  0  0  0  0
  -51.5962   -2.1637   14.5070 C   0  0  0  0  0  0
  -52.5966   -3.0808   14.2778 C   0  0  0  0  0  0
  -52.9609   -3.9627   15.2707 C   0  0  0  0  0  0
  -54.2244   -5.1228   14.9833 Cl  0  0  0  0  0  0
  -52.3245   -3.9250   16.4922 C   0  0  0  0  0  0
  -45.7445   -2.8881   14.2524 C   0  0  0  0  0  0
  -44.3683   -2.4011   14.3596 C   0  0  0  0  0  0
  -44.1012   -1.3165   15.0853 C   0  0  0  0  0  0
  -45.1901   -0.5669   15.8088 C   0  0  0  0  0  0
  -44.9934    0.0694   17.1549 C   0  0  0  0  0  0
  -43.9544    0.5532   17.5820 O   0  0  0  0  0  0
  -45.4464   -0.0738   20.1487 C   0  0  0  0  0  0
  -44.9814   -1.1872   19.9718 O   0  0  0  0  0  0
  -45.1819    0.6666   21.2484 N   0  0  0  0  0  0
  -48.5416   -2.5201   14.6301 H   0  0  0  0  0  0
  -52.1236   -6.6284   18.0826 H   0  0  0  0  0  0
  -51.1883   -5.1161   19.0475 H   0  0  0  0  0  0
  -44.6566    0.2862   21.8442 H   0  0  0  0  0  0
  1  2  2  0  0  0
  2  3  1  0  0  0
  2 45  1  0  0  0
  3  4  1  0  0  0
  4  5  1  0  0  0
  5  6  1  0  0  0
  5 43  1  0  0  0
  6  7  1  0  0  0
  6 41  1  0  0  0
  7  8  1  0  0  0
  8  9  1  0  0  0
  8 40  1  0  0  0
  9 10  1  0  0  0
  9 37  2  0  0  0
 10 11  1  0  0  0
 10 46  1  0  0  0
 11 12  1  0  0  0
 12 13  1  0  0  0
 13 14  1  0  0  0
 14 15  1  0  0  0
 15 16  1  0  0  0
 16 17  1  0  0  0
 17 18  1  0  0  0
 17 47  1  0  0  0
 18 19  2  0  0  0
 18 20  1  0  0  0
 20 21  2  0  0  0
 20 25  1  0  0  0
 21 22  1  0  0  0
 22 23  2  0  0  0
 23 24  1  0  0  0
 24 25  2  0  0  0
 25 26  1  0  0  0
 26 27  1  0  0  0
 26 48  1  0  0  0
 27 28  2  0  0  0
 27 29  1  0  0  0
 29 30  1  0  0  0
 30 31  2  0  0  0
 30 36  1  0  0  0
 31 32  1  0  0  0
 32 33  2  0  0  0
 33 34  1  0  0  0
 34 35  1  0  0  0
 34 36  2  0  0  0
 37 38  1  0  0  0
 38 39  2  0  0  0
 39 40  1  0  0  0
 40 41  1  0  0  0
 41 42  2  0  0  0
 43 44  2  0  0  0
 43 45  1  0  0  0
 45 49  1  0  0  0
M  END
>  <CHROM.0>
-169.88615284,160.70610970,-176.02838658

>  <CHROM.1>
-116.86659303,-97.65918216,49.19843121,-165.90606393,-53.86933555,178.04006069
176.49641071,-47.62847885,-84.03232686,134.47266285,174.83790200,90.85316073
143.06430623,-49.22141311,-3.06773574,18.04796352,0.15731695,0.68628957,1.29069551

>  <HEADER>
                                                                          

>  <MASTER>
        0    0    0    0    0    0    0    0   82    0   82    0          

>  <Name>
DAR.pdb

>  <RI>
-1.97336e+08

>  <Rbt.Current_Directory>
/root/miniconda3/envs/rdock/share/rxdock-2013.1.1_148c5bd1-0/data/ligands/prepped_ligands/DAR

>  <Rbt.Executable>
rbdock/0.1.0

>  <Rbt.Library>
librxdock.so/0.1.0

>  <Rbt.Parameter_File>
/root/miniconda3/envs/rdock/share/rxdock-2013.1.1_148c5bd1-0/data/scripts/dock.prm

>  <Rbt.Receptor>
def.prm

>  <SCORE>
-23.8185

>  <SCORE.INTER>
-10.6536

>  <SCORE.INTER.CONST>
1

>  <SCORE.INTER.POLAR>
0

>  <SCORE.INTER.REPUL>
0

>  <SCORE.INTER.ROT>
13

>  <SCORE.INTER.VDW>
-29.0536

>  <SCORE.INTER.norm>
-0.236746

>  <SCORE.INTRA>
-15.7479

>  <SCORE.INTRA.DIHEDRAL>
-28.4513

>  <SCORE.INTRA.DIHEDRAL.0>
43.3429

>  <SCORE.INTRA.POLAR>
0

>  <SCORE.INTRA.POLAR.0>
0

>  <SCORE.INTRA.REPUL>
0

>  <SCORE.INTRA.REPUL.0>
0

>  <SCORE.INTRA.VDW>
-1.52223

>  <SCORE.INTRA.VDW.0>
-3.00727

>  <SCORE.INTRA.norm>
-0.349953

>  <SCORE.RESTR>
2.62857

>  <SCORE.RESTR.CAVITY>
2.62857

>  <SCORE.RESTR.norm>
0.0584127

>  <SCORE.SYSTEM>
-0.0456647

>  <SCORE.SYSTEM.CONST>
0

>  <SCORE.SYSTEM.DIHEDRAL>
1.96116

>  <SCORE.SYSTEM.POLAR>
-0.0104766

>  <SCORE.SYSTEM.VDW>
-0.990622

>  <SCORE.SYSTEM.norm>
-0.00101477

>  <SCORE.heavy>
45

>  <SCORE.norm>
-0.529301

>  <TITLE>
    DAR-DIA-9e4459de-1_D                                                  

$$$$
DAR.pdb
  RxDock  02242101143D
librxdock.so/0.1.0
 49 53  0  0  0  0  0  0  0  0999 V2000
  -56.1937   -8.6098   14.1240 O   0  0  0  0  0  0
  -55.3424   -7.8284   14.5115 C   0  0  0  0  0  0
  -55.0806   -6.5220   13.7972 C   0  0  0  0  0  0
  -54.6071   -5.4265   14.7566 C   0  0  0  0  0  0
  -53.3440   -5.9782   15.4243 C   0  0  0  0  0  0
  -52.7465   -4.9764   16.3203 N   0  0  0  0  0  0
  -52.2194   -5.3238   17.6511 C   0  0  0  0  0  0
  -52.4671   -3.9110   18.2116 C   0  0  0  0  0  0
  -52.0238   -3.4511   19.5841 C   0  0  0  0  0  0
  -51.8029   -4.4722   20.4622 N   0  0  0  0  0  0
  -50.4388   -4.7683   20.9214 C   0  0  0  0  0  0
  -50.2224   -6.2293   21.3471 C   0  0  0  0  0  0
  -50.6095   -7.1323   20.1665 C   0  0  0  0  0  0
  -49.7771   -6.7779   18.9255 C   0  0  0  0  0  0
  -48.2922   -6.7962   19.3168 C   0  0  0  0  0  0
  -47.4231   -6.4225   18.1078 C   0  0  0  0  0  0
  -48.2340   -5.6230   17.1782 N   0  0  0  0  0  0
  -47.9505   -4.3148   16.9899 C   0  0  0  0  0  0
  -47.0287   -3.7439   17.5681 O   0  0  0  0  0  0
  -48.7764   -3.4945   16.0600 C   0  0  0  0  0  0
  -49.4364   -4.0799   14.9968 C   0  0  0  0  0  0
  -50.2167   -3.3266   14.1576 C   0  0  0  0  0  0
  -50.3988   -1.9997   14.2940 N   0  0  0  0  0  0
  -49.7556   -1.4342   15.3281 C   0  0  0  0  0  0
  -48.9473   -2.1215   16.2177 C   0  0  0  0  0  0
  -48.3039   -1.4338   17.2540 N   0  0  0  0  0  0
  -48.3151   -1.7758   18.5585 C   0  0  0  0  0  0
  -48.8732   -2.7630   19.0151 O   0  0  0  0  0  0
  -47.5270   -0.8209   19.4318 C   0  0  0  0  0  0
  -46.0492   -1.1631   19.3898 C   0  0  0  0  0  0
  -45.3192   -1.2227   20.5559 C   0  0  0  0  0  0
  -43.9789   -1.5342   20.5171 C   0  0  0  0  0  0
  -43.3646   -1.7875   19.3118 C   0  0  0  0  0  0
  -44.0925   -1.7302   18.1443 C   0  0  0  0  0  0
  -43.3186   -2.0502   16.6199 Cl  0  0  0  0  0  0
  -45.4340   -1.4182   18.1842 C   0  0  0  0  0  0
  -51.9181   -2.1352   19.8280 C   0  0  0  0  0  0
  -52.2231   -1.1664   18.7740 C   0  0  0  0  0  0
  -52.2431   -1.5542   17.4997 C   0  0  0  0  0  0
  -51.9572   -2.9808   17.1075 C   0  0  0  0  0  0
  -52.6640   -3.6799   15.9818 C   0  0  0  0  0  0
  -53.0846   -3.1603   14.9575 O   0  0  0  0  0  0
  -53.6210   -7.2753   16.1524 C   0  0  0  0  0  0
  -53.0164   -7.5806   17.1665 O   0  0  0  0  0  0
  -54.5766   -8.0581   15.6031 N   0  0  0  0  0  0
  -52.4034   -5.1147   20.5160 H   0  0  0  0  0  0
  -48.8875   -6.0087   16.7346 H   0  0  0  0  0  0
  -47.8508   -0.7163   17.0281 H   0  0  0  0  0  0
  -54.7295   -8.8187   16.0200 H   0  0  0  0  0  0
  1  2  2  0  0  0
  2  3  1  0  0  0
  2 45  1  0  0  0
  3  4  1  0  0  0
  4  5  1  0  0  0
  5  6  1  0  0  0
  5 43  1  0  0  0
  6  7  1  0  0  0
  6 41  1  0  0  0
  7  8  1  0  0  0
  8  9  1  0  0  0
  8 40  1  0  0  0
  9 10  1  0  0  0
  9 37  2  0  0  0
 10 11  1  0  0  0
 10 46  1  0  0  0
 11 12  1  0  0  0
 12 13  1  0  0  0
 13 14  1  0  0  0
 14 15  1  0  0  0
 15 16  1  0  0  0
 16 17  1  0  0  0
 17 18  1  0  0  0
 17 47  1  0  0  0
 18 19  2  0  0  0
 18 20  1  0  0  0
 20 21  2  0  0  0
 20 25  1  0  0  0
 21 22  1  0  0  0
 22 23  2  0  0  0
 23 24  1  0  0  0
 24 25  2  0  0  0
 25 26  1  0  0  0
 26 27  1  0  0  0
 26 48  1  0  0  0
 27 28  2  0  0  0
 27 29  1  0  0  0
 29 30  1  0  0  0
 30 31  2  0  0  0
 30 36  1  0  0  0
 31 32  1  0  0  0
 32 33  2  0  0  0
 33 34  1  0  0  0
 34 35  1  0  0  0
 34 36  2  0  0  0
 37 38  1  0  0  0
 38 39  2  0  0  0
 39 40  1  0  0  0
 40 41  1  0  0  0
 41 42  2  0  0  0
 43 44  2  0  0  0
 43 45  1  0  0  0
 45 49  1  0  0  0
M  END
>  <CHROM.0>
82.57364535,-177.79890354,-59.27570057

>  <CHROM.1>
137.67964696,111.60220752,-153.59376804,56.20029197,57.77152137,52.40223572
-179.02496645,24.45669836,111.81753580,-27.08930375,-50.73798507,-82.34964967
-133.85671486,-49.89699508,-4.00189471,17.44051355,-3.11446630,0.53501230
2.07094440

>  <HEADER>
                                                                          

>  <MASTER>
        0    0    0    0    0    0    0    0   82    0   82    0          

>  <Name>
DAR.pdb

>  <RI>
-1.97336e+08

>  <Rbt.Current_Directory>
/root/miniconda3/envs/rdock/share/rxdock-2013.1.1_148c5bd1-0/data/ligands/prepped_ligands/DAR

>  <Rbt.Executable>
rbdock/0.1.0

>  <Rbt.Library>
librxdock.so/0.1.0

>  <Rbt.Parameter_File>
/root/miniconda3/envs/rdock/share/rxdock-2013.1.1_148c5bd1-0/data/scripts/dock.prm

>  <Rbt.Receptor>
def.prm

>  <SCORE>
-17.151

>  <SCORE.INTER>
-13.0965

>  <SCORE.INTER.CONST>
1

>  <SCORE.INTER.POLAR>
-0.256733

>  <SCORE.INTER.REPUL>
0

>  <SCORE.INTER.ROT>
13

>  <SCORE.INTER.VDW>
-30.6236

>  <SCORE.INTER.norm>
-0.291034

>  <SCORE.INTRA>
-3.74118

>  <SCORE.INTRA.DIHEDRAL>
-21.3921

>  <SCORE.INTRA.DIHEDRAL.0>
43.3429

>  <SCORE.INTRA.POLAR>
0

>  <SCORE.INTRA.POLAR.0>
0

>  <SCORE.INTRA.REPUL>
0

>  <SCORE.INTRA.REPUL.0>
0

>  <SCORE.INTRA.VDW>
6.95486

>  <SCORE.INTRA.VDW.0>
-3.00727

>  <SCORE.INTRA.norm>
-0.0831374

>  <SCORE.RESTR>
0

>  <SCORE.RESTR.CAVITY>
0

>  <SCORE.RESTR.norm>
0

>  <SCORE.SYSTEM>
-0.313266

>  <SCORE.SYSTEM.CONST>
0

>  <SCORE.SYSTEM.DIHEDRAL>
1.12926

>  <SCORE.SYSTEM.POLAR>
-0.00261636

>  <SCORE.SYSTEM.VDW>
-0.868998

>  <SCORE.SYSTEM.norm>
-0.00696147

>  <SCORE.heavy>
45

>  <SCORE.norm>
-0.381133

>  <TITLE>
    DAR-DIA-9e4459de-1_D                                                  

$$$$
DAR.pdb
  RxDock  02242101143D
librxdock.so/0.1.0
 49 53  0  0  0  0  0  0  0  0999 V2000
  -54.8983   -6.6949   13.3362 O   0  0  0  0  0  0
  -54.4650   -6.6520   14.4745 C   0  0  0  0  0  0
  -54.8940   -7.6509   15.5250 C   0  0  0  0  0  0
  -53.7860   -7.9235   16.5462 C   0  0  0  0  0  0
  -53.4409   -6.5618   17.1566 C   0  0  0  0  0  0
  -52.4324   -6.7052   18.2176 N   0  0  0  0  0  0
  -52.3873   -5.8122   19.3880 C   0  0  0  0  0  0
  -50.8741   -6.0140   19.5902 C   0  0  0  0  0  0
  -50.0925   -5.4644   20.7644 C   0  0  0  0  0  0
  -50.6992   -4.4113   21.3852 N   0  0  0  0  0  0
  -50.3912   -3.0349   20.9732 C   0  0  0  0  0  0
  -50.3537   -2.8282   19.4505 C   0  0  0  0  0  0
  -51.0008   -1.4710   19.1375 C   0  0  0  0  0  0
  -51.0507   -1.2385   17.6202 C   0  0  0  0  0  0
  -49.6182   -1.0043   17.1187 C   0  0  0  0  0  0
  -49.1046    0.3580   17.6056 C   0  0  0  0  0  0
  -47.6781    0.2289   17.9361 N   0  0  0  0  0  0
  -46.9561    1.3283   18.2480 C   0  0  0  0  0  0
  -47.4399    2.4576   18.2706 O   0  0  0  0  0  0
  -45.5065    1.2073   18.5706 C   0  0  0  0  0  0
  -44.9510    1.9276   19.6103 C   0  0  0  0  0  0
  -43.6220    1.7949   19.9214 C   0  0  0  0  0  0
  -42.7763    0.9802   19.2631 N   0  0  0  0  0  0
  -43.3198    0.2820   18.2532 C   0  0  0  0  0  0
  -44.6487    0.3609   17.8728 C   0  0  0  0  0  0
  -45.1134   -0.3964   16.7904 N   0  0  0  0  0  0
  -44.4709   -1.4330   16.2148 C   0  0  0  0  0  0
  -43.3930   -1.8762   16.5840 O   0  0  0  0  0  0
  -45.2364   -2.0397   15.0567 C   0  0  0  0  0  0
  -46.4580   -2.7845   15.5626 C   0  0  0  0  0  0
  -46.4315   -3.4024   16.7930 C   0  0  0  0  0  0
  -47.5403   -4.0769   17.2518 C   0  0  0  0  0  0
  -48.6794   -4.1352   16.4814 C   0  0  0  0  0  0
  -48.7092   -3.5170   15.2513 C   0  0  0  0  0  0
  -50.1475   -3.5890   14.2761 Cl  0  0  0  0  0  0
  -47.5988   -2.8421   14.7930 C   0  0  0  0  0  0
  -48.9044   -6.0101   21.0693 C   0  0  0  0  0  0
  -48.3831   -7.1243   20.2760 C   0  0  0  0  0  0
  -49.2063   -7.8370   19.5088 C   0  0  0  0  0  0
  -50.6786   -7.5245   19.4332 C   0  0  0  0  0  0
  -51.4805   -7.6507   18.1698 C   0  0  0  0  0  0
  -51.2941   -8.4600   17.2719 O   0  0  0  0  0  0
  -52.9945   -5.5755   16.0995 C   0  0  0  0  0  0
  -52.1690   -4.7108   16.3404 O   0  0  0  0  0  0
  -53.5699   -5.7241   14.8853 N   0  0  0  0  0  0
  -51.0269   -4.5349   22.1936 H   0  0  0  0  0  0
  -47.3087   -0.5686   17.9482 H   0  0  0  0  0  0
  -45.8966   -0.1734   16.4618 H   0  0  0  0  0  0
  -53.3190   -5.1426   14.2733 H   0  0  0  0  0  0
  1  2  2  0  0  0
  2  3  1  0  0  0
  2 45  1  0  0  0
  3  4  1  0  0  0
  4  5  1  0  0  0
  5  6  1  0  0  0
  5 43  1  0  0  0
  6  7  1  0  0  0
  6 41  1  0  0  0
  7  8  1  0  0  0
  8  9  1  0  0  0
  8 40  1  0  0  0
  9 10  1  0  0  0
  9 37  2  0  0  0
 10 11  1  0  0  0
 10 46  1  0  0  0
 11 12  1  0  0  0
 12 13  1  0  0  0
 13 14  1  0  0  0
 14 15  1  0  0  0
 15 16  1  0  0  0
 16 17  1  0  0  0
 17 18  1  0  0  0
 17 47  1  0  0  0
 18 19  2  0  0  0
 18 20  1  0  0  0
 20 21  2  0  0  0
 20 25  1  0  0  0
 21 22  1  0  0  0
 22 23  2  0  0  0
 23 24  1  0  0  0
 24 25  2  0  0  0
 25 26  1  0  0  0
 26 27  1  0  0  0
 26 48  1  0  0  0
 27 28  2  0  0  0
 27 29  1  0  0  0
 29 30  1  0  0  0
 30 31  2  0  0  0
 30 36  1  0  0  0
 31 32  1  0  0  0
 32 33  2  0  0  0
 33 34  1  0  0  0
 34 35  1  0  0  0
 34 36  2  0  0  0
 37 38  1  0  0  0
 38 39  2  0  0  0
 39 40  1  0  0  0
 40 41  1  0  0  0
 41 42  2  0  0  0
 43 44  2  0  0  0
 43 45  1  0  0  0
 45 49  1  0  0  0
M  END
>  <CHROM.0>
167.18680023,-177.72904137,178.59792972

>  <CHROM.1>
-148.38832833,-92.04300965,44.48674240,140.53297658,-177.36928492,-70.16540539
-70.44523513,142.78896236,172.65161519,-138.37413354,-165.77699440,-70.64266983
-31.87506869,-49.17434384,-3.41465020,17.51797363,3.00624536,0.74137463,1.93514397

>  <HEADER>
                                                                          

>  <MASTER>
        0    0    0    0    0    0    0    0   82    0   82    0          

>  <Name>
DAR.pdb

>  <RI>
-1.97336e+08

>  <Rbt.Current_Directory>
/root/miniconda3/envs/rdock/share/rxdock-2013.1.1_148c5bd1-0/data/ligands/prepped_ligands/DAR

>  <Rbt.Executable>
rbdock/0.1.0

>  <Rbt.Library>
librxdock.so/0.1.0

>  <Rbt.Parameter_File>
/root/miniconda3/envs/rdock/share/rxdock-2013.1.1_148c5bd1-0/data/scripts/dock.prm

>  <Rbt.Receptor>
def.prm

>  <SCORE>
-25.6387

>  <SCORE.INTER>
-13.0469

>  <SCORE.INTER.CONST>
1

>  <SCORE.INTER.POLAR>
-0.84336

>  <SCORE.INTER.REPUL>
0

>  <SCORE.INTER.ROT>
13

>  <SCORE.INTER.VDW>
-28.5795

>  <SCORE.INTER.norm>
-0.289932

>  <SCORE.INTRA>
-11.79

>  <SCORE.INTRA.DIHEDRAL>
-21.4997

>  <SCORE.INTRA.DIHEDRAL.0>
43.3429

>  <SCORE.INTRA.POLAR>
0

>  <SCORE.INTRA.POLAR.0>
0

>  <SCORE.INTRA.REPUL>
0

>  <SCORE.INTRA.REPUL.0>
0

>  <SCORE.INTRA.VDW>
-1.04009

>  <SCORE.INTRA.VDW.0>
-3.00727

>  <SCORE.INTRA.norm>
-0.261999

>  <SCORE.RESTR>
0

>  <SCORE.RESTR.CAVITY>
0

>  <SCORE.RESTR.norm>
0

>  <SCORE.SYSTEM>
-0.801794

>  <SCORE.SYSTEM.CONST>
0

>  <SCORE.SYSTEM.DIHEDRAL>
0.430493

>  <SCORE.SYSTEM.VDW>
-1.01704

>  <SCORE.SYSTEM.norm>
-0.0178176

>  <SCORE.heavy>
45

>  <SCORE.norm>
-0.569749

>  <TITLE>
    DAR-DIA-9e4459de-1_D                                                  

$$$$
DAR.pdb
  RxDock  02242101143D
librxdock.so/0.1.0
 49 53  0  0  0  0  0  0  0  0999 V2000
  -52.7747   -1.9775   17.3397 O   0  0  0  0  0  0
  -51.7953   -1.4128   17.7949 C   0  0  0  0  0  0
  -51.4950   -1.4157   19.2765 C   0  0  0  0  0  0
  -49.9908   -1.3640   19.5587 C   0  0  0  0  0  0
  -49.4842   -0.0915   18.8733 C   0  0  0  0  0  0
  -48.0520    0.1110   19.1403 N   0  0  0  0  0  0
  -47.0019   -0.4342   18.2631 C   0  0  0  0  0  0
  -45.9686   -0.5061   19.4026 C   0  0  0  0  0  0
  -44.5144   -0.8799   19.2094 C   0  0  0  0  0  0
  -44.2743   -1.5839   18.0652 N   0  0  0  0  0  0
  -44.3029   -0.9058   16.7619 C   0  0  0  0  0  0
  -44.3293   -1.8603   15.5574 C   0  0  0  0  0  0
  -45.7938   -2.2197   15.2659 C   0  0  0  0  0  0
  -46.4111   -2.9624   16.4600 C   0  0  0  0  0  0
  -47.6719   -3.6936   15.9763 C   0  0  0  0  0  0
  -48.7425   -2.6774   15.5547 C   0  0  0  0  0  0
  -50.0534   -3.1640   16.0083 N   0  0  0  0  0  0
  -50.8897   -3.7645   15.1322 C   0  0  0  0  0  0
  -50.6061   -3.9295   13.9481 O   0  0  0  0  0  0
  -52.2256   -4.2479   15.5812 C   0  0  0  0  0  0
  -53.3030   -4.2528   14.7166 C   0  0  0  0  0  0
  -54.5252   -4.7222   15.1247 C   0  0  0  0  0  0
  -54.7696   -5.2010   16.3590 N   0  0  0  0  0  0
  -53.7202   -5.1943   17.1966 C   0  0  0  0  0  0
  -52.4568   -4.7350   16.8651 C   0  0  0  0  0  0
  -51.4325   -4.7530   17.8198 N   0  0  0  0  0  0
  -51.5927   -4.6619   19.1557 C   0  0  0  0  0  0
  -52.6721   -4.5787   19.7238 O   0  0  0  0  0  0
  -50.2837   -4.7044   19.9173 C   0  0  0  0  0  0
  -49.6692   -6.0895   19.8357 C   0  0  0  0  0  0
  -48.9664   -6.5989   20.9047 C   0  0  0  0  0  0
  -48.4101   -7.8559   20.8304 C   0  0  0  0  0  0
  -48.5554   -8.6075   19.6865 C   0  0  0  0  0  0
  -49.2589   -8.1011   18.6165 C   0  0  0  0  0  0
  -49.4442   -9.0491   17.1702 Cl  0  0  0  0  0  0
  -49.8153   -6.8429   18.6920 C   0  0  0  0  0  0
  -43.6217   -0.5331   20.1501 C   0  0  0  0  0  0
  -44.0562    0.2013   21.3394 C   0  0  0  0  0  0
  -45.2231    0.8439   21.3348 C   0  0  0  0  0  0
  -46.1202    0.8360   20.1241 C   0  0  0  0  0  0
  -47.6187    0.7916   20.2134 C   0  0  0  0  0  0
  -48.3059    1.2810   21.0990 O   0  0  0  0  0  0
  -49.7725   -0.1073   17.3881 C   0  0  0  0  0  0
  -49.0256    0.4283   16.5865 O   0  0  0  0  0  0
  -50.9029   -0.7519   17.0218 N   0  0  0  0  0  0
  -44.3970   -2.4563   18.0775 H   0  0  0  0  0  0
  -50.2761   -3.0785   16.8543 H   0  0  0  0  0  0
  -50.6126   -4.8339   17.5155 H   0  0  0  0  0  0
  -51.0771   -0.7508   16.1584 H   0  0  0  0  0  0
  1  2  2  0  0  0
  2  3  1  0  0  0
  2 45  1  0  0  0
  3  4  1  0  0  0
  4  5  1  0  0  0
  5  6  1  0  0  0
  5 43  1  0  0  0
  6  7  1  0  0  0
  6 41  1  0  0  0
  7  8  1  0  0  0
  8  9  1  0  0  0
  8 40  1  0  0  0
  9 10  1  0  0  0
  9 37  2  0  0  0
 10 11  1  0  0  0
 10 46  1  0  0  0
 11 12  1  0  0  0
 12 13  1  0  0  0
 13 14  1  0  0  0
 14 15  1  0  0  0
 15 16  1  0  0  0
 16 17  1  0  0  0
 17 18  1  0  0  0
 17 47  1  0  0  0
 18 19  2  0  0  0
 18 20  1  0  0  0
 20 21  2  0  0  0
 20 25  1  0  0  0
 21 22  1  0  0  0
 22 23  2  0  0  0
 23 24  1  0  0  0
 24 25  2  0  0  0
 25 26  1  0  0  0
 26 27  1  0  0  0
 26 48  1  0  0  0
 27 28  2  0  0  0
 27 29  1  0  0  0
 29 30  1  0  0  0
 30 31  2  0  0  0
 30 36  1  0  0  0
 31 32  1  0  0  0
 32 33  2  0  0  0
 33 34  1  0  0  0
 34 35  1  0  0  0
 34 36  2  0  0  0
 37 38  1  0  0  0
 38 39  2  0  0  0
 39 40  1  0  0  0
 40 41  1  0  0  0
 41 42  2  0  0  0
 43 44  2  0  0  0
 43 45  1  0  0  0
 45 49  1  0  0  0
M  END
>  <CHROM.0>
-64.70051017,179.56530699,-72.43435384

>  <CHROM.1>
90.34116140,73.70819482,-167.01502160,86.82961998,-62.57026103,-161.63042875
-66.04651602,-140.12397565,-100.99566036,148.36452443,151.12713097,-69.61595958
-145.32962270,-49.12724914,-3.09904958,17.96341672,2.42088540,0.37344527
3.06884184

>  <HEADER>
                                                                          

>  <MASTER>
        0    0    0    0    0    0    0    0   82    0   82    0          

>  <Name>
DAR.pdb

>  <RI>
-1.97336e+08

>  <Rbt.Current_Directory>
/root/miniconda3/envs/rdock/share/rxdock-2013.1.1_148c5bd1-0/data/ligands/prepped_ligands/DAR

>  <Rbt.Executable>
rbdock/0.1.0

>  <Rbt.Library>
librxdock.so/0.1.0

>  <Rbt.Parameter_File>
/root/miniconda3/envs/rdock/share/rxdock-2013.1.1_148c5bd1-0/data/scripts/dock.prm

>  <Rbt.Receptor>
def.prm

>  <SCORE>
-19.0884

>  <SCORE.INTER>
-6.50222

>  <SCORE.INTER.CONST>
1

>  <SCORE.INTER.POLAR>
-0.638386

>  <SCORE.INTER.REPUL>
0.176427

>  <SCORE.INTER.ROT>
13

>  <SCORE.INTER.VDW>
-23.6138

>  <SCORE.INTER.norm>
-0.144494

>  <SCORE.INTRA>
-12.0449

>  <SCORE.INTRA.DIHEDRAL>
-21.49

>  <SCORE.INTRA.DIHEDRAL.0>
43.3429

>  <SCORE.INTRA.POLAR>
0

>  <SCORE.INTRA.POLAR.0>
0

>  <SCORE.INTRA.REPUL>
0

>  <SCORE.INTRA.REPUL.0>
0

>  <SCORE.INTRA.VDW>
-1.29988

>  <SCORE.INTRA.VDW.0>
-3.00727

>  <SCORE.INTRA.norm>
-0.267664

>  <SCORE.RESTR>
0.28551

>  <SCORE.RESTR.CAVITY>
0.28551

>  <SCORE.RESTR.norm>
0.00634467

>  <SCORE.SYSTEM>
-0.826841

>  <SCORE.SYSTEM.CONST>
0

>  <SCORE.SYSTEM.DIHEDRAL>
0.436435

>  <SCORE.SYSTEM.VDW>
-1.04506

>  <SCORE.SYSTEM.norm>
-0.0183742

>  <SCORE.heavy>
45

>  <SCORE.norm>
-0.424188

>  <TITLE>
    DAR-DIA-9e4459de-1_D                                                  

$$$$
DAR.pdb
  RxDock  02242101143D
librxdock.so/0.1.0
 49 53  0  0  0  0  0  0  0  0999 V2000
  -51.8501    0.9027   17.5841 O   0  0  0  0  0  0
  -50.8370    0.8027   18.2542 C   0  0  0  0  0  0
  -50.6167   -0.3639   19.1901 C   0  0  0  0  0  0
  -49.1335   -0.7183   19.3285 C   0  0  0  0  0  0
  -48.4480    0.5564   19.8296 C   0  0  0  0  0  0
  -47.0179    0.3178   20.0773 N   0  0  0  0  0  0
  -46.0159    0.3444   18.9981 C   0  0  0  0  0  0
  -45.0671   -0.6153   19.7398 C   0  0  0  0  0  0
  -43.6770   -0.9754   19.2607 C   0  0  0  0  0  0
  -43.4842   -0.7696   17.9254 N   0  0  0  0  0  0
  -43.3979   -1.9137   17.0075 C   0  0  0  0  0  0
  -44.7612   -2.4804   16.5797 C   0  0  0  0  0  0
  -45.7171   -1.3005   16.3501 C   0  0  0  0  0  0
  -47.1201   -1.8101   15.9883 C   0  0  0  0  0  0
  -47.4792   -2.9584   16.9425 C   0  0  0  0  0  0
  -48.7588   -3.6601   16.4660 C   0  0  0  0  0  0
  -49.1170   -4.6955   17.4461 N   0  0  0  0  0  0
  -49.9113   -4.3851   18.4949 C   0  0  0  0  0  0
  -50.3611   -3.2563   18.6776 O   0  0  0  0  0  0
  -50.2674   -5.4257   19.5000 C   0  0  0  0  0  0
  -49.5311   -5.5697   20.6600 C   0  0  0  0  0  0
  -49.8766   -6.5112   21.5954 C   0  0  0  0  0  0
  -50.9254   -7.3453   21.4666 N   0  0  0  0  0  0
  -51.6384   -7.2027   20.3378 C   0  0  0  0  0  0
  -51.3548   -6.2815   19.3438 C   0  0  0  0  0  0
  -52.1507   -6.2259   18.1930 N   0  0  0  0  0  0
  -52.5658   -7.2825   17.4649 C   0  0  0  0  0  0
  -52.3234   -8.4507   17.7317 O   0  0  0  0  0  0
  -53.4099   -6.8883   16.2702 C   0  0  0  0  0  0
  -52.8507   -5.6378   15.6171 C   0  0  0  0  0  0
  -53.5378   -4.4473   15.7000 C   0  0  0  0  0  0
  -53.0294   -3.3132   15.1082 C   0  0  0  0  0  0
  -51.8318   -3.3662   14.4319 C   0  0  0  0  0  0
  -51.1419   -4.5550   14.3487 C   0  0  0  0  0  0
  -49.6282   -4.6245   13.4950 Cl  0  0  0  0  0  0
  -51.6516   -5.6896   14.9414 C   0  0  0  0  0  0
  -42.7937   -1.4753   20.1395 C   0  0  0  0  0  0
  -43.1763   -1.6601   21.5402 C   0  0  0  0  0  0
  -44.2320   -1.0137   22.0323 C   0  0  0  0  0  0
  -45.0546   -0.0855   21.1763 C   0  0  0  0  0  0
  -46.5455    0.0429   21.3035 C   0  0  0  0  0  0
  -47.1979   -0.0836   22.3303 O   0  0  0  0  0  0
  -48.6583    1.7125   18.8765 C   0  0  0  0  0  0
  -47.8137    2.5794   18.7274 O   0  0  0  0  0  0
  -49.8350    1.7111   18.2110 N   0  0  0  0  0  0
  -43.1253   -0.0075   17.6674 H   0  0  0  0  0  0
  -48.8270   -5.5172   17.3308 H   0  0  0  0  0  0
  -52.4020   -5.4276   17.9267 H   0  0  0  0  0  0
  -49.9626    2.3904   17.6652 H   0  0  0  0  0  0
  1  2  2  0  0  0
  2  3  1  0  0  0
  2 45  1  0  0  0
  3  4  1  0  0  0
  4  5  1  0  0  0
  5  6  1  0  0  0
  5 43  1  0  0  0
  6  7  1  0  0  0
  6 41  1  0  0  0
  7  8  1  0  0  0
  8  9  1  0  0  0
  8 40  1  0  0  0
  9 10  1  0  0  0
  9 37  2  0  0  0
 10 11  1  0  0  0
 10 46  1  0  0  0
 11 12  1  0  0  0
 12 13  1  0  0  0
 13 14  1  0  0  0
 14 15  1  0  0  0
 15 16  1  0  0  0
 16 17  1  0  0  0
 17 18  1  0  0  0
 17 47  1  0  0  0
 18 19  2  0  0  0
 18 20  1  0  0  0
 20 21  2  0  0  0
 20 25  1  0  0  0
 21 22  1  0  0  0
 22 23  2  0  0  0
 23 24  1  0  0  0
 24 25  2  0  0  0
 25 26  1  0  0  0
 26 27  1  0  0  0
 26 48  1  0  0  0
 27 28  2  0  0  0
 27 29  1  0  0  0
 29 30  1  0  0  0
 30 31  2  0  0  0
 30 36  1  0  0  0
 31 32  1  0  0  0
 32 33  2  0  0  0
 33 34  1  0  0  0
 34 35  1  0  0  0
 34 36  2  0  0  0
 37 38  1  0  0  0
 38 39  2  0  0  0
 39 40  1  0  0  0
 40 41  1  0  0  0
 41 42  2  0  0  0
 43 44  2  0  0  0
 43 45  1  0  0  0
 45 49  1  0  0  0
M  END
>  <CHROM.0>
49.69012632,177.32595596,-67.96435450

>  <CHROM.1>
81.96677526,-107.22089125,81.70663333,39.61509114,-177.13326886,44.72784953
-170.05632332,-176.51510553,88.98014469,94.38081659,133.86288011,39.62564331
-110.23862318,-48.81530443,-2.77794579,18.15725906,2.91531184,0.75368283
2.36450870

>  <HEADER>
                                                                          

>  <MASTER>
        0    0    0    0    0    0    0    0   82    0   82    0          

>  <Name>
DAR.pdb

>  <RI>
-1.97336e+08

>  <Rbt.Current_Directory>
/root/miniconda3/envs/rdock/share/rxdock-2013.1.1_148c5bd1-0/data/ligands/prepped_ligands/DAR

>  <Rbt.Executable>
rbdock/0.1.0

>  <Rbt.Library>
librxdock.so/0.1.0

>  <Rbt.Parameter_File>
/root/miniconda3/envs/rdock/share/rxdock-2013.1.1_148c5bd1-0/data/scripts/dock.prm

>  <Rbt.Receptor>
def.prm

>  <SCORE>
-17.7527

>  <SCORE.INTER>
-9.74766

>  <SCORE.INTER.CONST>
1

>  <SCORE.INTER.POLAR>
-1.28988

>  <SCORE.INTER.REPUL>
0.0199215

>  <SCORE.INTER.ROT>
13

>  <SCORE.INTER.VDW>
-23.8617

>  <SCORE.INTER.norm>
-0.216615

>  <SCORE.INTRA>
-7.47035

>  <SCORE.INTRA.DIHEDRAL>
-13.3973

>  <SCORE.INTRA.DIHEDRAL.0>
43.3429

>  <SCORE.INTRA.POLAR>
0

>  <SCORE.INTRA.POLAR.0>
0

>  <SCORE.INTRA.REPUL>
0

>  <SCORE.INTRA.REPUL.0>
0

>  <SCORE.INTRA.VDW>
-0.77172

>  <SCORE.INTRA.VDW.0>
-3.00727

>  <SCORE.INTRA.norm>
-0.166008

>  <SCORE.RESTR>
0.294706

>  <SCORE.RESTR.CAVITY>
0.294706

>  <SCORE.RESTR.norm>
0.00654903

>  <SCORE.SYSTEM>
-0.829404

>  <SCORE.SYSTEM.CONST>
0

>  <SCORE.SYSTEM.DIHEDRAL>
0.459188

>  <SCORE.SYSTEM.VDW>
-1.059

>  <SCORE.SYSTEM.norm>
-0.0184312

>  <SCORE.heavy>
45

>  <SCORE.norm>
-0.394505

>  <TITLE>
    DAR-DIA-9e4459de-1_D                                                  

$$$$
DAR.pdb
  RxDock  02242101143D
librxdock.so/0.1.0
 49 53  0  0  0  0  0  0  0  0999 V2000
  -42.4714    0.4702   22.9034 O   0  0  0  0  0  0
  -42.9504   -0.0293   21.9001 C   0  0  0  0  0  0
  -44.2830   -0.7426   21.9276 C   0  0  0  0  0  0
  -45.0297   -0.6182   20.5965 C   0  0  0  0  0  0
  -44.0890   -1.2010   19.5377 C   0  0  0  0  0  0
  -44.7317   -1.2081   18.2147 N   0  0  0  0  0  0
  -45.8708   -0.3336   17.8871 C   0  0  0  0  0  0
  -46.4152   -1.3004   16.8193 C   0  0  0  0  0  0
  -47.5822   -0.9892   15.9065 C   0  0  0  0  0  0
  -48.4053   -0.0089   16.3799 N   0  0  0  0  0  0
  -48.7931    0.0084   17.7971 C   0  0  0  0  0  0
  -48.9903   -1.3866   18.4117 C   0  0  0  0  0  0
  -50.0987   -1.2889   19.4702 C   0  0  0  0  0  0
  -50.1408   -2.5665   20.3215 C   0  0  0  0  0  0
  -50.4370   -3.7557   19.3961 C   0  0  0  0  0  0
  -51.6998   -4.4900   19.8680 C   0  0  0  0  0  0
  -52.3384   -5.1182   18.7025 N   0  0  0  0  0  0
  -52.9323   -4.3489   17.7629 C   0  0  0  0  0  0
  -52.9680   -3.1226   17.8324 O   0  0  0  0  0  0
  -53.5937   -4.9789   16.5858 C   0  0  0  0  0  0
  -54.9244   -4.7337   16.3073 C   0  0  0  0  0  0
  -55.5239   -5.2945   15.2087 C   0  0  0  0  0  0
  -54.8886   -6.1028   14.3396 N   0  0  0  0  0  0
  -53.5956   -6.3391   14.6138 C   0  0  0  0  0  0
  -52.9177   -5.8162   15.7020 C   0  0  0  0  0  0
  -51.5714   -6.1402   15.9099 N   0  0  0  0  0  0
  -50.5783   -5.2674   16.1756 C   0  0  0  0  0  0
  -50.7266   -4.0604   16.3009 O   0  0  0  0  0  0
  -49.2278   -5.9337   16.3418 C   0  0  0  0  0  0
  -49.2435   -6.8700   17.5360 C   0  0  0  0  0  0
  -49.3809   -8.2274   17.3494 C   0  0  0  0  0  0
  -49.3940   -9.0762   18.4330 C   0  0  0  0  0  0
  -49.2693   -8.5699   19.7068 C   0  0  0  0  0  0
  -49.1302   -7.2131   19.8962 C   0  0  0  0  0  0
  -48.9721   -6.5709   21.5048 Cl  0  0  0  0  0  0
  -49.1172   -6.3643   18.8109 C   0  0  0  0  0  0
  -47.7270   -1.6910   14.7713 C   0  0  0  0  0  0
  -46.7618   -2.7358   14.4260 C   0  0  0  0  0  0
  -45.5649   -2.7550   15.0103 C   0  0  0  0  0  0
  -45.1712   -1.7180   16.0303 C   0  0  0  0  0  0
  -44.3264   -2.0286   17.2325 C   0  0  0  0  0  0
  -43.4427   -2.8716   17.2979 O   0  0  0  0  0  0
  -42.7657   -0.4679   19.5053 C   0  0  0  0  0  0
  -42.1360   -0.3317   18.4699 O   0  0  0  0  0  0
  -42.3413    0.0191   20.6928 N   0  0  0  0  0  0
  -48.9229    0.4153   15.8068 H   0  0  0  0  0  0
  -52.3112   -5.9924   18.6148 H   0  0  0  0  0  0
  -51.3602   -6.9915   15.8646 H   0  0  0  0  0  0
  -41.5654    0.4353   20.6762 H   0  0  0  0  0  0
  1  2  2  0  0  0
  2  3  1  0  0  0
  2 45  1  0  0  0
  3  4  1  0  0  0
  4  5  1  0  0  0
  5  6  1  0  0  0
  5 43  1  0  0  0
  6  7  1  0  0  0
  6 41  1  0  0  0
  7  8  1  0  0  0
  8  9  1  0  0  0
  8 40  1  0  0  0
  9 10  1  0  0  0
  9 37  2  0  0  0
 10 11  1  0  0  0
 10 46  1  0  0  0
 11 12  1  0  0  0
 12 13  1  0  0  0
 13 14  1  0  0  0
 14 15  1  0  0  0
 15 16  1  0  0  0
 16 17  1  0  0  0
 17 18  1  0  0  0
 17 47  1  0  0  0
 18 19  2  0  0  0
 18 20  1  0  0  0
 20 21  2  0  0  0
 20 25  1  0  0  0
 21 22  1  0  0  0
 22 23  2  0  0  0
 23 24  1  0  0  0
 24 25  2  0  0  0
 25 26  1  0  0  0
 26 27  1  0  0  0
 26 48  1  0  0  0
 27 28  2  0  0  0
 27 29  1  0  0  0
 29 30  1  0  0  0
 30 31  2  0  0  0
 30 36  1  0  0  0
 31 32  1  0  0  0
 32 33  2  0  0  0
 33 34  1  0  0  0
 34 35  1  0  0  0
 34 36  2  0  0  0
 37 38  1  0  0  0
 38 39  2  0  0  0
 39 40  1  0  0  0
 40 41  1  0  0  0
 41 42  2  0  0  0
 43 44  2  0  0  0
 43 45  1  0  0  0
 45 49  1  0  0  0
M  END
>  <CHROM.0>
54.70166899,173.21318375,-44.22757232

>  <CHROM.1>
20.98376635,-43.05423781,-35.67225715,-147.18090383,-168.12518038,-60.68442323
-122.77383171,151.60488057,-69.84853444,123.22020068,-48.87379775,-63.17151837
100.99800787,-48.46954205,-3.47092963,18.06537585,-0.12643981,0.57910894
2.27339242

>  <HEADER>
                                                                          

>  <MASTER>
        0    0    0    0    0    0    0    0   82    0   82    0          

>  <Name>
DAR.pdb

>  <RI>
-1.97336e+08

>  <Rbt.Current_Directory>
/root/miniconda3/envs/rdock/share/rxdock-2013.1.1_148c5bd1-0/data/ligands/prepped_ligands/DAR

>  <Rbt.Executable>
rbdock/0.1.0

>  <Rbt.Library>
librxdock.so/0.1.0

>  <Rbt.Parameter_File>
/root/miniconda3/envs/rdock/share/rxdock-2013.1.1_148c5bd1-0/data/scripts/dock.prm

>  <Rbt.Receptor>
def.prm

>  <SCORE>
-13.6615

>  <SCORE.INTER>
-11.7598

>  <SCORE.INTER.CONST>
1

>  <SCORE.INTER.POLAR>
-0.696975

>  <SCORE.INTER.REPUL>
0

>  <SCORE.INTER.ROT>
13

>  <SCORE.INTER.VDW>
-27.7901

>  <SCORE.INTER.norm>
-0.26133

>  <SCORE.INTRA>
-2.16852

>  <SCORE.INTRA.DIHEDRAL>
-7.07687

>  <SCORE.INTRA.DIHEDRAL.0>
43.3429

>  <SCORE.INTRA.POLAR>
0

>  <SCORE.INTRA.POLAR.0>
0

>  <SCORE.INTRA.REPUL>
0

>  <SCORE.INTRA.REPUL.0>
0

>  <SCORE.INTRA.VDW>
1.36991

>  <SCORE.INTRA.VDW.0>
-3.00727

>  <SCORE.INTRA.norm>
-0.0481894

>  <SCORE.RESTR>
0.811869

>  <SCORE.RESTR.CAVITY>
0.811869

>  <SCORE.RESTR.norm>
0.0180415

>  <SCORE.SYSTEM>
-0.545031

>  <SCORE.SYSTEM.CONST>
0

>  <SCORE.SYSTEM.DIHEDRAL>
0.866031

>  <SCORE.SYSTEM.POLAR>
-0.0201171

>  <SCORE.SYSTEM.VDW>
-0.909648

>  <SCORE.SYSTEM.norm>
-0.0121118

>  <SCORE.heavy>
45

>  <SCORE.norm>
-0.30359

>  <TITLE>
    DAR-DIA-9e4459de-1_D                                                  

$$$$
DAR.pdb
  RxDock  02242101153D
librxdock.so/0.1.0
 49 53  0  0  0  0  0  0  0  0999 V2000
  -44.2034   -2.4820   13.5000 O   0  0  0  0  0  0
  -44.1506   -1.8539   14.5431 C   0  0  0  0  0  0
  -44.8262   -0.5101   14.6952 C   0  0  0  0  0  0
  -45.2933   -0.2603   16.1319 C   0  0  0  0  0  0
  -44.0375   -0.3725   17.0013 C   0  0  0  0  0  0
  -44.3471   -0.0733   18.4077 N   0  0  0  0  0  0
  -45.2087   -0.9426   19.2273 C   0  0  0  0  0  0
  -45.6510    0.2147   20.1419 C   0  0  0  0  0  0
  -46.5019    0.0409   21.3818 C   0  0  0  0  0  0
  -47.2282   -1.1145   21.3936 N   0  0  0  0  0  0
  -48.6825   -1.0698   21.5993 C   0  0  0  0  0  0
  -49.5045   -1.4705   20.3639 C   0  0  0  0  0  0
  -49.3967   -2.9930   20.1929 C   0  0  0  0  0  0
  -50.0776   -3.4353   18.8892 C   0  0  0  0  0  0
  -49.0264   -4.1163   18.0007 C   0  0  0  0  0  0
  -47.8480   -3.1643   17.7527 C   0  0  0  0  0  0
  -48.0576   -2.4862   16.4653 N   0  0  0  0  0  0
  -49.1915   -1.7821   16.2510 C   0  0  0  0  0  0
  -50.0781   -1.6758   17.0950 O   0  0  0  0  0  0
  -49.4174   -1.1037   14.9438 C   0  0  0  0  0  0
  -48.4986   -0.1986   14.4487 C   0  0  0  0  0  0
  -48.6965    0.4051   13.2334 C   0  0  0  0  0  0
  -49.7653    0.1748   12.4479 N   0  0  0  0  0  0
  -50.6562   -0.7051   12.9325 C   0  0  0  0  0  0
  -50.5334   -1.3540   14.1494 C   0  0  0  0  0  0
  -51.5304   -2.2411   14.5736 N   0  0  0  0  0  0
  -51.3344   -3.4982   15.0209 C   0  0  0  0  0  0
  -50.2410   -4.0309   15.1451 O   0  0  0  0  0  0
  -52.6209   -4.2042   15.3974 C   0  0  0  0  0  0
  -52.5499   -4.7056   16.8280 C   0  0  0  0  0  0
  -52.0208   -5.9473   17.1006 C   0  0  0  0  0  0
  -51.9557   -6.4010   18.3986 C   0  0  0  0  0  0
  -52.4193   -5.6138   19.4281 C   0  0  0  0  0  0
  -52.9475   -4.3710   19.1584 C   0  0  0  0  0  0
  -53.5336   -3.3743   20.4576 Cl  0  0  0  0  0  0
  -53.0122   -3.9179   17.8588 C   0  0  0  0  0  0
  -46.4999    1.0064   22.3144 C   0  0  0  0  0  0
  -45.6786    2.2039   22.1296 C   0  0  0  0  0  0
  -44.6719    2.1917   21.2573 C   0  0  0  0  0  0
  -44.3505    0.9641   20.4446 C   0  0  0  0  0  0
  -43.8749    1.0234   19.0213 C   0  0  0  0  0  0
  -43.1915    1.9068   18.5228 O   0  0  0  0  0  0
  -43.3800   -1.7275   16.8565 C   0  0  0  0  0  0
  -42.7877   -2.2527   17.7842 O   0  0  0  0  0  0
  -43.4984   -2.3045   15.6397 N   0  0  0  0  0  0
  -46.8105   -1.8691   21.5737 H   0  0  0  0  0  0
  -47.4319   -2.5273   15.8494 H   0  0  0  0  0  0
  -52.3571   -1.9460   14.5464 H   0  0  0  0  0  0
  -43.1055   -3.0878   15.5517 H   0  0  0  0  0  0
  1  2  2  0  0  0
  2  3  1  0  0  0
  2 45  1  0  0  0
  3  4  1  0  0  0
  4  5  1  0  0  0
  5  6  1  0  0  0
  5 43  1  0  0  0
  6  7  1  0  0  0
  6 41  1  0  0  0
  7  8  1  0  0  0
  8  9  1  0  0  0
  8 40  1  0  0  0
  9 10  1  0  0  0
  9 37  2  0  0  0
 10 11  1  0  0  0
 10 46  1  0  0  0
 11 12  1  0  0  0
 12 13  1  0  0  0
 13 14  1  0  0  0
 14 15  1  0  0  0
 15 16  1  0  0  0
 16 17  1  0  0  0
 17 18  1  0  0  0
 17 47  1  0  0  0
 18 19  2  0  0  0
 18 20  1  0  0  0
 20 21  2  0  0  0
 20 25  1  0  0  0
 21 22  1  0  0  0
 22 23  2  0  0  0
 23 24  1  0  0  0
 24 25  2  0  0  0
 25 26  1  0  0  0
 26 27  1  0  0  0
 26 48  1  0  0  0
 27 28  2  0  0  0
 27 29  1  0  0  0
 29 30  1  0  0  0
 30 31  2  0  0  0
 30 36  1  0  0  0
 31 32  1  0  0  0
 32 33  2  0  0  0
 33 34  1  0  0  0
 34 35  1  0  0  0
 34 36  2  0  0  0
 37 38  1  0  0  0
 38 39  2  0  0  0
 39 40  1  0  0  0
 40 41  1  0  0  0
 41 42  2  0  0  0
 43 44  2  0  0  0
 43 45  1  0  0  0
 45 49  1  0  0  0
M  END
>  <CHROM.0>
159.67390826,120.46604755,-40.05451414

>  <CHROM.1>
66.83225246,-125.98399446,111.80041588,73.79075901,-174.08272135,119.80900816
-56.62391113,-96.13531586,56.47483253,-55.76960634,-50.87608449,-124.67813970
-87.74198099,-48.20111065,-1.78790170,17.60926081,-0.15971228,-0.46011341
-1.66868470

>  <HEADER>
                                                                          

>  <MASTER>
        0    0    0    0    0    0    0    0   82    0   82    0          

>  <Name>
DAR.pdb

>  <RI>
-1.97336e+08

>  <Rbt.Current_Directory>
/root/miniconda3/envs/rdock/share/rxdock-2013.1.1_148c5bd1-0/data/ligands/prepped_ligands/DAR

>  <Rbt.Executable>
rbdock/0.1.0

>  <Rbt.Library>
librxdock.so/0.1.0

>  <Rbt.Parameter_File>
/root/miniconda3/envs/rdock/share/rxdock-2013.1.1_148c5bd1-0/data/scripts/dock.prm

>  <Rbt.Receptor>
def.prm

>  <SCORE>
-4.39684

>  <SCORE.INTER>
-4.07262

>  <SCORE.INTER.CONST>
1

>  <SCORE.INTER.POLAR>
-0.447485

>  <SCORE.INTER.REPUL>
0.0273292

>  <SCORE.INTER.ROT>
13

>  <SCORE.INTER.VDW>
-21.0878

>  <SCORE.INTER.norm>
-0.0905027

>  <SCORE.INTRA>
-4.88753

>  <SCORE.INTRA.DIHEDRAL>
-8.33825

>  <SCORE.INTRA.DIHEDRAL.0>
43.3429

>  <SCORE.INTRA.POLAR>
0

>  <SCORE.INTRA.POLAR.0>
0

>  <SCORE.INTRA.REPUL>
0

>  <SCORE.INTRA.REPUL.0>
0

>  <SCORE.INTRA.VDW>
-0.718399

>  <SCORE.INTRA.VDW.0>
-3.00727

>  <SCORE.INTRA.norm>
-0.108612

>  <SCORE.RESTR>
0.806341

>  <SCORE.RESTR.CAVITY>
0.806341

>  <SCORE.RESTR.norm>
0.0179187

>  <SCORE.SYSTEM>
3.75697

>  <SCORE.SYSTEM.CONST>
0

>  <SCORE.SYSTEM.DIHEDRAL>
9.0202

>  <SCORE.SYSTEM.POLAR>
-0.0193154

>  <SCORE.SYSTEM.VDW>
-0.687458

>  <SCORE.SYSTEM.norm>
0.0834883

>  <SCORE.heavy>
45

>  <SCORE.norm>
-0.0977075

>  <TITLE>
    DAR-DIA-9e4459de-1_D                                                  

$$$$
DAR.pdb
  RxDock  02242101153D
librxdock.so/0.1.0
 49 53  0  0  0  0  0  0  0  0999 V2000
  -51.4995   -8.8920   21.6896 O   0  0  0  0  0  0
  -51.7220   -8.2726   20.6638 C   0  0  0  0  0  0
  -52.5148   -6.9854   20.6704 C   0  0  0  0  0  0
  -52.0681   -6.0290   19.5611 C   0  0  0  0  0  0
  -52.2425   -6.8033   18.2513 C   0  0  0  0  0  0
  -51.9154   -5.9549   17.0951 N   0  0  0  0  0  0
  -50.5275   -5.6330   16.7214 C   0  0  0  0  0  0
  -50.9259   -4.3039   16.0533 C   0  0  0  0  0  0
  -49.9696   -3.4203   15.2811 C   0  0  0  0  0  0
  -48.6567   -3.6273   15.5908 N   0  0  0  0  0  0
  -47.8468   -2.5316   16.1409 C   0  0  0  0  0  0
  -46.8844   -1.8915   15.1277 C   0  0  0  0  0  0
  -45.6935   -2.8420   14.9351 C   0  0  0  0  0  0
  -44.4896   -2.0824   14.3585 C   0  0  0  0  0  0
  -43.9327   -1.1569   15.4501 C   0  0  0  0  0  0
  -43.1095   -1.9681   16.4605 C   0  0  0  0  0  0
  -43.8053   -1.9462   17.7552 N   0  0  0  0  0  0
  -43.2699   -1.2714   18.7970 C   0  0  0  0  0  0
  -42.2068   -0.6603   18.7180 O   0  0  0  0  0  0
  -43.9621   -1.2561   20.1163 C   0  0  0  0  0  0
  -43.2762   -1.5525   21.2782 C   0  0  0  0  0  0
  -43.9096   -1.5126   22.4939 C   0  0  0  0  0  0
  -45.2076   -1.1926   22.6520 N   0  0  0  0  0  0
  -45.8711   -0.9055   21.5205 C   0  0  0  0  0  0
  -45.3078   -0.9263   20.2559 C   0  0  0  0  0  0
  -46.0926   -0.6291   19.1349 N   0  0  0  0  0  0
  -47.0428    0.3253   19.0633 C   0  0  0  0  0  0
  -47.3317    1.0902   19.9723 O   0  0  0  0  0  0
  -47.7202    0.3916   17.7098 C   0  0  0  0  0  0
  -49.2202    0.2174   17.8601 C   0  0  0  0  0  0
  -49.7867   -1.0325   17.7453 C   0  0  0  0  0  0
  -51.1473   -1.1900   17.8827 C   0  0  0  0  0  0
  -51.9456   -0.0976   18.1359 C   0  0  0  0  0  0
  -51.3816    1.1531   18.2526 C   0  0  0  0  0  0
  -52.3881    2.5349   18.5729 Cl  0  0  0  0  0  0
  -50.0196    1.3096   18.1149 C   0  0  0  0  0  0
  -50.4663   -2.5224   14.4156 C   0  0  0  0  0  0
  -51.9131   -2.4107   14.2232 C   0  0  0  0  0  0
  -52.7130   -3.4071   14.5995 C   0  0  0  0  0  0
  -52.1635   -4.6626   15.2261 C   0  0  0  0  0  0
  -52.8679   -5.4087   16.3227 C   0  0  0  0  0  0
  -54.0780   -5.4946   16.4782 O   0  0  0  0  0  0
  -51.4302   -8.0798   18.2474 C   0  0  0  0  0  0
  -50.9501   -8.5285   17.2201 O   0  0  0  0  0  0
  -51.2774   -8.6757   19.4511 N   0  0  0  0  0  0
  -48.2345   -4.2937   15.1983 H   0  0  0  0  0  0
  -44.5780   -2.3573   17.8366 H   0  0  0  0  0  0
  -45.9469   -1.1093   18.4142 H   0  0  0  0  0  0
  -50.8147   -9.4251   19.4471 H   0  0  0  0  0  0
  1  2  2  0  0  0
  2  3  1  0  0  0
  2 45  1  0  0  0
  3  4  1  0  0  0
  4  5  1  0  0  0
  5  6  1  0  0  0
  5 43  1  0  0  0
  6  7  1  0  0  0
  6 41  1  0  0  0
  7  8  1  0  0  0
  8  9  1  0  0  0
  8 40  1  0  0  0
  9 10  1  0  0  0
  9 37  2  0  0  0
 10 11  1  0  0  0
 10 46  1  0  0  0
 11 12  1  0  0  0
 12 13  1  0  0  0
 13 14  1  0  0  0
 14 15  1  0  0  0
 15 16  1  0  0  0
 16 17  1  0  0  0
 17 18  1  0  0  0
 17 47  1  0  0  0
 18 19  2  0  0  0
 18 20  1  0  0  0
 20 21  2  0  0  0
 20 25  1  0  0  0
 21 22  1  0  0  0
 22 23  2  0  0  0
 23 24  1  0  0  0
 24 25  2  0  0  0
 25 26  1  0  0  0
 26 27  1  0  0  0
 26 48  1  0  0  0
 27 28  2  0  0  0
 27 29  1  0  0  0
 29 30  1  0  0  0
 30 31  2  0  0  0
 30 36  1  0  0  0
 31 32  1  0  0  0
 32 33  2  0  0  0
 33 34  1  0  0  0
 34 35  1  0  0  0
 34 36  2  0  0  0
 37 38  1  0  0  0
 38 39  2  0  0  0
 39 40  1  0  0  0
 40 41  1  0  0  0
 41 42  2  0  0  0
 43 44  2  0  0  0
 43 45  1  0  0  0
 45 49  1  0  0  0
M  END
>  <CHROM.0>
-151.74965834,-68.89465045,171.84043119

>  <CHROM.1>
76.00872620,-119.51771948,-103.50385408,-76.13094955,-159.77493704,70.90221702
77.25906359,-113.43530152,-111.20397839,130.29585857,-141.29208203,123.27733562
-93.08215297,-48.83384647,-2.73087012,17.93848765,-2.54398469,-0.30538938
-0.22472173

>  <HEADER>
                                                                          

>  <MASTER>
        0    0    0    0    0    0    0    0   82    0   82    0          

>  <Name>
DAR.pdb

>  <RI>
-1.97336e+08

>  <Rbt.Current_Directory>
/root/miniconda3/envs/rdock/share/rxdock-2013.1.1_148c5bd1-0/data/ligands/prepped_ligands/DAR

>  <Rbt.Executable>
rbdock/0.1.0

>  <Rbt.Library>
librxdock.so/0.1.0

>  <Rbt.Parameter_File>
/root/miniconda3/envs/rdock/share/rxdock-2013.1.1_148c5bd1-0/data/scripts/dock.prm

>  <Rbt.Receptor>
def.prm

>  <SCORE>
-23.3029

>  <SCORE.INTER>
-14.8786

>  <SCORE.INTER.CONST>
1

>  <SCORE.INTER.POLAR>
-0.0641802

>  <SCORE.INTER.REPUL>
0.00806929

>  <SCORE.INTER.ROT>
13

>  <SCORE.INTER.VDW>
-33.1007

>  <SCORE.INTER.norm>
-0.330635

>  <SCORE.INTRA>
-9.53766

>  <SCORE.INTRA.DIHEDRAL>
-14.131

>  <SCORE.INTRA.DIHEDRAL.0>
43.3429

>  <SCORE.INTRA.POLAR>
0

>  <SCORE.INTRA.POLAR.0>
0

>  <SCORE.INTRA.REPUL>
0

>  <SCORE.INTRA.REPUL.0>
0

>  <SCORE.INTRA.VDW>
-2.47218

>  <SCORE.INTRA.VDW.0>
-3.00727

>  <SCORE.INTRA.norm>
-0.211948

>  <SCORE.RESTR>
0.943219

>  <SCORE.RESTR.CAVITY>
0.943219

>  <SCORE.RESTR.norm>
0.0209604

>  <SCORE.SYSTEM>
0.170091

>  <SCORE.SYSTEM.CONST>
0

>  <SCORE.SYSTEM.DIHEDRAL>
2.17304

>  <SCORE.SYSTEM.VDW>
-0.916428

>  <SCORE.SYSTEM.norm>
0.00377981

>  <SCORE.heavy>
45

>  <SCORE.norm>
-0.517842

>  <TITLE>
    DAR-DIA-9e4459de-1_D                                                  

$$$$
DAR.pdb
  RxDock  02242101153D
librxdock.so/0.1.0
 49 53  0  0  0  0  0  0  0  0999 V2000
  -48.6718   -3.0302   12.4825 O   0  0  0  0  0  0
  -48.1746   -2.4210   13.4137 C   0  0  0  0  0  0
  -48.3054   -0.9202   13.5400 C   0  0  0  0  0  0
  -48.3210   -0.4651   15.0020 C   0  0  0  0  0  0
  -47.0130   -0.9800   15.6102 C   0  0  0  0  0  0
  -46.8750   -0.5356   17.0055 N   0  0  0  0  0  0
  -47.8929   -0.8263   18.0296 C   0  0  0  0  0  0
  -47.5269    0.4133   18.8668 C   0  0  0  0  0  0
  -48.1137    0.7237   20.2274 C   0  0  0  0  0  0
  -49.3040    0.1013   20.4687 N   0  0  0  0  0  0
  -49.3754   -1.0063   21.4317 C   0  0  0  0  0  0
  -49.2806   -2.4013   20.7931 C   0  0  0  0  0  0
  -50.1378   -3.3660   21.6257 C   0  0  0  0  0  0
  -51.4779   -2.7116   21.9928 C   0  0  0  0  0  0
  -52.5873   -3.3876   21.1739 C   0  0  0  0  0  0
  -53.0185   -2.4765   20.0161 C   0  0  0  0  0  0
  -53.5961   -3.3123   18.9537 N   0  0  0  0  0  0
  -52.8561   -4.2933   18.3903 C   0  0  0  0  0  0
  -51.6982   -4.5298   18.7267 O   0  0  0  0  0  0
  -53.4298   -5.1355   17.3033 C   0  0  0  0  0  0
  -54.1294   -4.5623   16.2591 C   0  0  0  0  0  0
  -54.6342   -5.3372   15.2466 C   0  0  0  0  0  0
  -54.4957   -6.6750   15.1869 N   0  0  0  0  0  0
  -53.8156   -7.2286   16.2037 C   0  0  0  0  0  0
  -53.2780   -6.5192   17.2643 C   0  0  0  0  0  0
  -52.6012   -7.1949   18.2872 N   0  0  0  0  0  0
  -51.5041   -7.9648   18.1375 C   0  0  0  0  0  0
  -50.9271   -8.1565   17.0769 O   0  0  0  0  0  0
  -51.0146   -8.5644   19.4399 C   0  0  0  0  0  0
  -49.5798   -8.1484   19.7072 C   0  0  0  0  0  0
  -49.2324   -7.6032   20.9231 C   0  0  0  0  0  0
  -47.9306   -7.2271   21.1653 C   0  0  0  0  0  0
  -46.9720   -7.3954   20.1920 C   0  0  0  0  0  0
  -47.3163   -7.9416   18.9757 C   0  0  0  0  0  0
  -46.1068   -8.1556   17.7444 Cl  0  0  0  0  0  0
  -48.6197   -8.3178   18.7344 C   0  0  0  0  0  0
  -47.4634    1.5722   21.0395 C   0  0  0  0  0  0
  -46.2024    2.1787   20.6097 C   0  0  0  0  0  0
  -45.5107    1.6364   19.6087 C   0  0  0  0  0  0
  -45.9961    0.4002   18.8967 C   0  0  0  0  0  0
  -45.8175    0.1789   17.4221 C   0  0  0  0  0  0
  -44.8863    0.5793   16.7376 O   0  0  0  0  0  0
  -46.9009   -2.4846   15.4958 C   0  0  0  0  0  0
  -46.3249   -3.1484   16.3412 O   0  0  0  0  0  0
  -47.4804   -3.0297   14.4028 N   0  0  0  0  0  0
  -49.9359    0.1558   19.8572 H   0  0  0  0  0  0
  -54.4290   -3.1802   18.7059 H   0  0  0  0  0  0
  -52.9232   -7.1034   19.0991 H   0  0  0  0  0  0
  -47.4048   -3.9041   14.3300 H   0  0  0  0  0  0
  1  2  2  0  0  0
  2  3  1  0  0  0
  2 45  1  0  0  0
  3  4  1  0  0  0
  4  5  1  0  0  0
  5  6  1  0  0  0
  5 43  1  0  0  0
  6  7  1  0  0  0
  6 41  1  0  0  0
  7  8  1  0  0  0
  8  9  1  0  0  0
  8 40  1  0  0  0
  9 10  1  0  0  0
  9 37  2  0  0  0
 10 11  1  0  0  0
 10 46  1  0  0  0
 11 12  1  0  0  0
 12 13  1  0  0  0
 13 14  1  0  0  0
 14 15  1  0  0  0
 15 16  1  0  0  0
 16 17  1  0  0  0
 17 18  1  0  0  0
 17 47  1  0  0  0
 18 19  2  0  0  0
 18 20  1  0  0  0
 20 21  2  0  0  0
 20 25  1  0  0  0
 21 22  1  0  0  0
 22 23  2  0  0  0
 23 24  1  0  0  0
 24 25  2  0  0  0
 25 26  1  0  0  0
 26 27  1  0  0  0
 26 48  1  0  0  0
 27 28  2  0  0  0
 27 29  1  0  0  0
 29 30  1  0  0  0
 30 31  2  0  0  0
 30 36  1  0  0  0
 31 32  1  0  0  0
 32 33  2  0  0  0
 33 34  1  0  0  0
 34 35  1  0  0  0
 34 36  2  0  0  0
 37 38  1  0  0  0
 38 39  2  0  0  0
 39 40  1  0  0  0
 40 41  1  0  0  0
 41 42  2  0  0  0
 43 44  2  0  0  0
 43 45  1  0  0  0
 45 49  1  0  0  0
M  END
>  <CHROM.0>
150.97811528,120.32723295,146.64350930

>  <CHROM.1>
56.32609870,108.46354885,-95.92070470,-147.17429866,43.32886212,108.39104810
-103.58345448,155.50390610,-58.54912226,45.41690996,-121.03604836,-121.94604570
128.89035305,-49.36276999,-3.68429950,18.09760200,-0.67647901,-0.77804898
-2.41239595

>  <HEADER>
                                                                          

>  <MASTER>
        0    0    0    0    0    0    0    0   82    0   82    0          

>  <Name>
DAR.pdb

>  <RI>
-1.97336e+08

>  <Rbt.Current_Directory>
/root/miniconda3/envs/rdock/share/rxdock-2013.1.1_148c5bd1-0/data/ligands/prepped_ligands/DAR

>  <Rbt.Executable>
rbdock/0.1.0

>  <Rbt.Library>
librxdock.so/0.1.0

>  <Rbt.Parameter_File>
/root/miniconda3/envs/rdock/share/rxdock-2013.1.1_148c5bd1-0/data/scripts/dock.prm

>  <Rbt.Receptor>
def.prm

>  <SCORE>
-0.295624

>  <SCORE.INTER>
-8.41284

>  <SCORE.INTER.CONST>
1

>  <SCORE.INTER.POLAR>
-1.36953

>  <SCORE.INTER.REPUL>
0

>  <SCORE.INTER.ROT>
13

>  <SCORE.INTER.VDW>
-22.1565

>  <SCORE.INTER.norm>
-0.186952

>  <SCORE.INTRA>
-0.0512867

>  <SCORE.INTRA.DIHEDRAL>
-3.70493

>  <SCORE.INTRA.DIHEDRAL.0>
43.3429

>  <SCORE.INTRA.POLAR>
0

>  <SCORE.INTRA.POLAR.0>
0

>  <SCORE.INTRA.REPUL>
0

>  <SCORE.INTRA.REPUL.0>
0

>  <SCORE.INTRA.VDW>
1.80118

>  <SCORE.INTRA.VDW.0>
-3.00727

>  <SCORE.INTRA.norm>
-0.0011397

>  <SCORE.RESTR>
3.12162

>  <SCORE.RESTR.CAVITY>
3.12162

>  <SCORE.RESTR.norm>
0.0693693

>  <SCORE.SYSTEM>
5.04689

>  <SCORE.SYSTEM.CONST>
0

>  <SCORE.SYSTEM.DIHEDRAL>
11.0515

>  <SCORE.SYSTEM.VDW>
-0.478844

>  <SCORE.SYSTEM.norm>
0.112153

>  <SCORE.heavy>
45

>  <SCORE.norm>
-0.00656942

>  <TITLE>
    DAR-DIA-9e4459de-1_D                                                  

$$$$
