10168
  RxDock  02242101343D
librxdock.so/0.1.0
 24 26  0  0  0  0  0  0  0  0999 V2000
  -49.0531   -7.3496   17.9686 O   0  0  0  0  0  0
  -51.4338   -8.0479   17.3311 O   0  0  0  0  0  0
  -52.5733   -3.1568   15.5041 O   0  0  0  0  0  0
  -53.7771   -8.9051   16.7491 O   0  0  0  0  0  0
  -46.5630   -3.2290   17.6482 O   0  0  0  0  0  0
  -47.8905   -1.6334   16.7219 O   0  0  0  0  0  0
  -50.6798   -5.8552   16.9585 C   0  0  0  0  0  0
  -50.9774   -4.5771   16.4813 C   0  0  0  0  0  0
  -53.0283   -6.6287   16.3516 C   0  0  0  0  0  0
  -53.3259   -5.3505   15.8743 C   0  0  0  0  0  0
  -51.6943   -6.9278   16.9113 C   0  0  0  0  0  0
  -52.3113   -4.2780   15.9218 C   0  0  0  0  0  0
  -49.4114   -6.1256   17.4864 C   0  0  0  0  0  0
  -50.0068   -3.5692   16.5318 C   0  0  0  0  0  0
  -53.9989   -7.6365   16.3010 C   0  0  0  0  0  0
  -48.7442   -3.8430   17.0586 C   0  0  0  0  0  0
  -54.5941   -5.0800   15.3465 C   0  0  0  0  0  0
  -48.4471   -5.1184   17.5348 C   0  0  0  0  0  0
  -55.2613   -7.3627   15.7738 C   0  0  0  0  0  0
  -55.5583   -6.0872   15.2977 C   0  0  0  0  0  0
  -47.7361   -2.7958   17.1107 C   0  0  0  0  0  0
  -49.7860   -7.9776   17.8514 H   0  0  0  0  0  0
  -52.8580   -9.1693   16.5942 H   0  0  0  0  0  0
  -45.8824   -2.5225   17.6568 H   0  0  0  0  0  0
  1 13  1  0  0  0
  1 22  1  0  0  0
  2 11  2  0  0  0
  3 12  2  0  0  0
  4 15  1  0  0  0
  4 23  1  0  0  0
  5 21  1  0  0  0
  5 24  1  0  0  0
  6 21  2  0  0  0
  7  8  2  0  0  0
  7 11  1  0  0  0
  7 13  1  0  0  0
  8 12  1  0  0  0
  8 14  1  0  0  0
  9 10  2  0  0  0
  9 11  1  0  0  0
  9 15  1  0  0  0
 10 12  1  0  0  0
 10 17  1  0  0  0
 13 18  2  0  0  0
 14 16  2  0  0  0
 15 19  2  0  0  0
 16 18  1  0  0  0
 16 21  1  0  0  0
 17 20  2  0  0  0
 19 20  1  0  0  0
M  END
>  <CHROM.0>
-53.12601023,-65.15568854,-178.80310854

>  <CHROM.1>
2.27272701,-34.03668174,-1.58754006,-179.83563644,-51.20582784,-5.41863820
16.64295830,-0.44980677,0.32744976,2.86063173

>  <Name>
10168

>  <PUBCHEM_ATOM_DEF_STEREO_COUNT>
0

>  <PUBCHEM_ATOM_UDEF_STEREO_COUNT>
0

>  <PUBCHEM_BOND_DEF_STEREO_COUNT>
0

>  <PUBCHEM_BOND_UDEF_STEREO_COUNT>
0

>  <PUBCHEM_CACTVS_TAUTO_COUNT>
24

>  <PUBCHEM_COMPONENT_COUNT>
1

>  <PUBCHEM_COMPOUND_CID>
10168

>  <PUBCHEM_CONFORMER_DIVERSEORDER>
1

>  <PUBCHEM_CONFORMER_ID>
000027B800000001

>  <PUBCHEM_CONFORMER_RMSD>
0.6

>  <PUBCHEM_COORDINATE_TYPE>
2
5
10

>  <PUBCHEM_EFFECTIVE_ROTOR_COUNT>
1

>  <PUBCHEM_FEATURE_SELFOVERLAP>
50.846

>  <PUBCHEM_HEAVY_ATOM_COUNT>
21

>  <PUBCHEM_ISOTOPIC_ATOM_COUNT>
0

>  <PUBCHEM_MMFF94_ENERGY>
68.6965

>  <PUBCHEM_MMFF94_PARTIAL_CHARGES>
29
1 -0.53
10 0.09
11 0.4
12 0.4
13 0.08
14 -0.15
15 0.08
16 0.09
17 -0.15
18 -0.15
19 -0.15
2 -0.57
20 -0.15
21 0.63
22 0.15
23 0.15
24 0.15
25 0.15
26 0.15
27 0.45
28 0.45
29 0.5
3 -0.57
4 -0.53
5 -0.65
6 -0.57
7 0.09
8 0.09
9 0.09

>  <PUBCHEM_PHARMACOPHORE_FEATURES>
10
1 1 donor
1 2 acceptor
1 3 acceptor
1 4 donor
1 5 acceptor
1 6 acceptor
3 5 6 21 anion
6 7 8 13 14 16 18 rings
6 7 8 9 10 11 12 rings
6 9 10 15 17 19 20 rings

>  <PUBCHEM_SHAPE_FINGERPRINT>
10411042 1 17474108078014113454
10493431 412 18269565953339895465
10498660 4 18410294674922913756
10616163 171 18410857672284589919
10967382 1 18338516322768651303
11112241 14 16053761070513734896
11132069 177 18409728443646081177
11578080 2 16880465970251001054
12011746 2 18411414016725795421
12236239 1 17822008735941251148
12390115 104 18200049372811105841
12403814 3 17603301544648884029
12788726 201 17130428969891162825
12839892 36 18337935806573543930
12954195 1 17914635873199923916
13132413 78 18412263956188401997
13140716 1 17978237380748065187
13214271 11 18413105065582804717
138480 1 17689997830145918786
13862211 1 18410849988456228526
14787075 74 18271241724201582520
14790565 3 18410863182654238816
15196674 1 18410573989646956454
15442244 35 17978509737119017459
15536298 74 18270120106524723222
16945 1 18338797943927191847
19591789 44 18339360880600163352
200 152 18060414720851970709
20510252 161 18343586217802211793
21029758 11 18343016726961894417
21267235 1 18410019848582002819
21421861 104 17898004620951251034
2334 1 18410855434849033379
23366157 5 17970072141091609650
23402539 116 18342168981657591294
23463225 33 18336828581004649021
23557571 272 18272379688914152982
23559900 14 18198340655049243982
2748010 2 18338801104986231055
335352 9 18266458707240121534
34934 24 18410288074001057415
350125 39 18338802342116335721
3545911 37 18410294679449859541
4214541 1 18410575071905095872
474 4 17748835132931610636
474229 33 18410572911836947014
5104073 3 18410011018223987362
58051976 378 18340767031444580180
59755656 215 18340493253766844862
7364860 26 18197216936859193670
9709674 26 18340492162006407318

>  <PUBCHEM_SHAPE_MULTIPOLES>
396.95
8.82
2.71
0.59
3.87
0.56
0
-1.97
0
-0.5
0
-0.03
-0.02
0

>  <PUBCHEM_SHAPE_SELFOVERLAP>
903.159

>  <PUBCHEM_SHAPE_VOLUME>
204.5

>  <RI>
-2.42855e+08

>  <Rbt.Current_Directory>
/root/miniconda3/envs/rdock/share/rxdock-2013.1.1_148c5bd1-0/data/ligands/prepped_ligands/Rhein

>  <Rbt.Executable>
rbdock/0.1.0

>  <Rbt.Library>
librxdock.so/0.1.0

>  <Rbt.Parameter_File>
/root/miniconda3/envs/rdock/share/rxdock-2013.1.1_148c5bd1-0/data/scripts/dock.prm

>  <Rbt.Receptor>
def.prm

>  <SCORE>
-15.7358

>  <SCORE.INTER>
-14.9748

>  <SCORE.INTER.CONST>
1

>  <SCORE.INTER.POLAR>
-1.39432

>  <SCORE.INTER.REPUL>
0.00682429

>  <SCORE.INTER.ROT>
1

>  <SCORE.INTER.VDW>
-16.6683

>  <SCORE.INTER.norm>
-0.713087

>  <SCORE.INTRA>
0.248095

>  <SCORE.INTRA.DIHEDRAL>
1.52851

>  <SCORE.INTRA.DIHEDRAL.0>
1.91521e-05

>  <SCORE.INTRA.POLAR>
0.0188684

>  <SCORE.INTRA.POLAR.0>
-0.0515654

>  <SCORE.INTRA.REPUL>
0

>  <SCORE.INTRA.REPUL.0>
0

>  <SCORE.INTRA.VDW>
-0.580311

>  <SCORE.INTRA.VDW.0>
1.17338

>  <SCORE.INTRA.norm>
0.011814

>  <SCORE.RESTR>
0

>  <SCORE.RESTR.CAVITY>
0

>  <SCORE.RESTR.norm>
0

>  <SCORE.SYSTEM>
-1.00906

>  <SCORE.SYSTEM.CONST>
0

>  <SCORE.SYSTEM.DIHEDRAL>
0.243495

>  <SCORE.SYSTEM.POLAR>
-0.0048612

>  <SCORE.SYSTEM.VDW>
-1.11428

>  <SCORE.SYSTEM.norm>
-0.0480503

>  <SCORE.heavy>
21

>  <SCORE.norm>
-0.749323

$$$$
10168
  RxDock  02242101343D
librxdock.so/0.1.0
 24 26  0  0  0  0  0  0  0  0999 V2000
  -49.3645   -7.3774   18.1639 O   0  0  0  0  0  0
  -51.6795   -8.1263   17.3628 O   0  0  0  0  0  0
  -52.9397   -3.1742   15.7980 O   0  0  0  0  0  0
  -53.9530   -9.0359   16.6087 O   0  0  0  0  0  0
  -46.9222   -3.1765   17.7393 O   0  0  0  0  0  0
  -48.4863   -1.5273   17.7446 O   0  0  0  0  0  0
  -51.0037   -5.8854   17.1705 C   0  0  0  0  0  0
  -51.3328   -4.5914   16.7618 C   0  0  0  0  0  0
  -53.2847   -6.7101   16.3967 C   0  0  0  0  0  0
  -53.6139   -5.4159   15.9880 C   0  0  0  0  0  0
  -51.9675   -6.9921   17.0030 C   0  0  0  0  0  0
  -52.6500   -4.3093   16.1556 C   0  0  0  0  0  0
  -49.7517   -6.1394   17.7436 C   0  0  0  0  0  0
  -50.4102   -3.5512   16.9261 C   0  0  0  0  0  0
  -54.2074   -7.7501   16.2323 C   0  0  0  0  0  0
  -49.1637   -3.8087   17.4977 C   0  0  0  0  0  0
  -54.8658   -5.1619   15.4149 C   0  0  0  0  0  0
  -48.8351   -5.0999   17.9055 C   0  0  0  0  0  0
  -55.4537   -7.4927   15.6604 C   0  0  0  0  0  0
  -55.7822   -6.2013   15.2526 C   0  0  0  0  0  0
  -48.2053   -2.7278   17.6680 C   0  0  0  0  0  0
  -50.0308   -8.0366   17.9054 H   0  0  0  0  0  0
  -53.0121   -9.2439   16.5096 H   0  0  0  0  0  0
  -46.8472   -4.1139   17.4599 H   0  0  0  0  0  0
  1 13  1  0  0  0
  1 22  1  0  0  0
  2 11  2  0  0  0
  3 12  2  0  0  0
  4 15  1  0  0  0
  4 23  1  0  0  0
  5 21  1  0  0  0
  5 24  1  0  0  0
  6 21  2  0  0  0
  7  8  2  0  0  0
  7 11  1  0  0  0
  7 13  1  0  0  0
  8 12  1  0  0  0
  8 14  1  0  0  0
  9 10  2  0  0  0
  9 11  1  0  0  0
  9 15  1  0  0  0
 10 12  1  0  0  0
 10 17  1  0  0  0
 13 18  2  0  0  0
 14 16  2  0  0  0
 15 19  2  0  0  0
 16 18  1  0  0  0
 16 21  1  0  0  0
 17 20  2  0  0  0
 19 20  1  0  0  0
M  END
>  <CHROM.0>
-51.75851915,-62.26550872,174.54889810

>  <CHROM.1>
6.83301083,-32.30710042,-166.93830608,-156.38693943,-51.53239691,-5.45657761
16.84853269,-0.48548199,0.37051555,2.95288839

>  <Name>
10168

>  <PUBCHEM_ATOM_DEF_STEREO_COUNT>
0

>  <PUBCHEM_ATOM_UDEF_STEREO_COUNT>
0

>  <PUBCHEM_BOND_DEF_STEREO_COUNT>
0

>  <PUBCHEM_BOND_UDEF_STEREO_COUNT>
0

>  <PUBCHEM_CACTVS_TAUTO_COUNT>
24

>  <PUBCHEM_COMPONENT_COUNT>
1

>  <PUBCHEM_COMPOUND_CID>
10168

>  <PUBCHEM_CONFORMER_DIVERSEORDER>
1

>  <PUBCHEM_CONFORMER_ID>
000027B800000001

>  <PUBCHEM_CONFORMER_RMSD>
0.6

>  <PUBCHEM_COORDINATE_TYPE>
2
5
10

>  <PUBCHEM_EFFECTIVE_ROTOR_COUNT>
1

>  <PUBCHEM_FEATURE_SELFOVERLAP>
50.846

>  <PUBCHEM_HEAVY_ATOM_COUNT>
21

>  <PUBCHEM_ISOTOPIC_ATOM_COUNT>
0

>  <PUBCHEM_MMFF94_ENERGY>
68.6965

>  <PUBCHEM_MMFF94_PARTIAL_CHARGES>
29
1 -0.53
10 0.09
11 0.4
12 0.4
13 0.08
14 -0.15
15 0.08
16 0.09
17 -0.15
18 -0.15
19 -0.15
2 -0.57
20 -0.15
21 0.63
22 0.15
23 0.15
24 0.15
25 0.15
26 0.15
27 0.45
28 0.45
29 0.5
3 -0.57
4 -0.53
5 -0.65
6 -0.57
7 0.09
8 0.09
9 0.09

>  <PUBCHEM_PHARMACOPHORE_FEATURES>
10
1 1 donor
1 2 acceptor
1 3 acceptor
1 4 donor
1 5 acceptor
1 6 acceptor
3 5 6 21 anion
6 7 8 13 14 16 18 rings
6 7 8 9 10 11 12 rings
6 9 10 15 17 19 20 rings

>  <PUBCHEM_SHAPE_FINGERPRINT>
10411042 1 17474108078014113454
10493431 412 18269565953339895465
10498660 4 18410294674922913756
10616163 171 18410857672284589919
10967382 1 18338516322768651303
11112241 14 16053761070513734896
11132069 177 18409728443646081177
11578080 2 16880465970251001054
12011746 2 18411414016725795421
12236239 1 17822008735941251148
12390115 104 18200049372811105841
12403814 3 17603301544648884029
12788726 201 17130428969891162825
12839892 36 18337935806573543930
12954195 1 17914635873199923916
13132413 78 18412263956188401997
13140716 1 17978237380748065187
13214271 11 18413105065582804717
138480 1 17689997830145918786
13862211 1 18410849988456228526
14787075 74 18271241724201582520
14790565 3 18410863182654238816
15196674 1 18410573989646956454
15442244 35 17978509737119017459
15536298 74 18270120106524723222
16945 1 18338797943927191847
19591789 44 18339360880600163352
200 152 18060414720851970709
20510252 161 18343586217802211793
21029758 11 18343016726961894417
21267235 1 18410019848582002819
21421861 104 17898004620951251034
2334 1 18410855434849033379
23366157 5 17970072141091609650
23402539 116 18342168981657591294
23463225 33 18336828581004649021
23557571 272 18272379688914152982
23559900 14 18198340655049243982
2748010 2 18338801104986231055
335352 9 18266458707240121534
34934 24 18410288074001057415
350125 39 18338802342116335721
3545911 37 18410294679449859541
4214541 1 18410575071905095872
474 4 17748835132931610636
474229 33 18410572911836947014
5104073 3 18410011018223987362
58051976 378 18340767031444580180
59755656 215 18340493253766844862
7364860 26 18197216936859193670
9709674 26 18340492162006407318

>  <PUBCHEM_SHAPE_MULTIPOLES>
396.95
8.82
2.71
0.59
3.87
0.56
0
-1.97
0
-0.5
0
-0.03
-0.02
0

>  <PUBCHEM_SHAPE_SELFOVERLAP>
903.159

>  <PUBCHEM_SHAPE_VOLUME>
204.5

>  <RI>
-2.42855e+08

>  <Rbt.Current_Directory>
/root/miniconda3/envs/rdock/share/rxdock-2013.1.1_148c5bd1-0/data/ligands/prepped_ligands/Rhein

>  <Rbt.Executable>
rbdock/0.1.0

>  <Rbt.Library>
librxdock.so/0.1.0

>  <Rbt.Parameter_File>
/root/miniconda3/envs/rdock/share/rxdock-2013.1.1_148c5bd1-0/data/scripts/dock.prm

>  <Rbt.Receptor>
def.prm

>  <SCORE>
-12.8985

>  <SCORE.INTER>
-15.2024

>  <SCORE.INTER.CONST>
1

>  <SCORE.INTER.POLAR>
-1.39044

>  <SCORE.INTER.REPUL>
0

>  <SCORE.INTER.ROT>
1

>  <SCORE.INTER.VDW>
-16.8749

>  <SCORE.INTER.norm>
-0.723923

>  <SCORE.INTRA>
3.26457

>  <SCORE.INTRA.DIHEDRAL>
4.68717

>  <SCORE.INTRA.DIHEDRAL.0>
1.91521e-05

>  <SCORE.INTRA.POLAR>
0.0232548

>  <SCORE.INTRA.POLAR.0>
-0.0515654

>  <SCORE.INTRA.REPUL>
0

>  <SCORE.INTRA.REPUL.0>
0

>  <SCORE.INTRA.VDW>
0.841924

>  <SCORE.INTRA.VDW.0>
1.17338

>  <SCORE.INTRA.norm>
0.155456

>  <SCORE.RESTR>
0

>  <SCORE.RESTR.CAVITY>
0

>  <SCORE.RESTR.norm>
0

>  <SCORE.SYSTEM>
-0.960682

>  <SCORE.SYSTEM.CONST>
0

>  <SCORE.SYSTEM.DIHEDRAL>
0.261796

>  <SCORE.SYSTEM.VDW>
-1.09158

>  <SCORE.SYSTEM.norm>
-0.0457468

>  <SCORE.heavy>
21

>  <SCORE.norm>
-0.614214

$$$$
10168
  RxDock  02242101343D
librxdock.so/0.1.0
 24 26  0  0  0  0  0  0  0  0999 V2000
  -50.5543   -7.8466   19.4381 O   0  0  0  0  0  0
  -52.3174   -8.6691   17.7717 O   0  0  0  0  0  0
  -53.7364   -3.6692   16.5280 O   0  0  0  0  0  0
  -54.0325   -9.6530   16.1424 O   0  0  0  0  0  0
  -49.2829   -3.4726   21.0726 O   0  0  0  0  0  0
  -50.1283   -1.9100   19.6549 O   0  0  0  0  0  0
  -51.9759   -6.3735   18.1310 C   0  0  0  0  0  0
  -52.3466   -5.0670   17.8062 C   0  0  0  0  0  0
  -53.7047   -7.2716   16.4918 C   0  0  0  0  0  0
  -54.0755   -5.9650   16.1671 C   0  0  0  0  0  0
  -52.6414   -7.5236   17.4858 C   0  0  0  0  0  0
  -53.4100   -4.8150   16.8124 C   0  0  0  0  0  0
  -50.9663   -6.5987   19.0746 C   0  0  0  0  0  0
  -51.7079   -3.9856   18.4249 C   0  0  0  0  0  0
  -54.3435   -8.3529   15.8730 C   0  0  0  0  0  0
  -50.7024   -4.2145   19.3647 C   0  0  0  0  0  0
  -55.0850   -5.7397   15.2235 C   0  0  0  0  0  0
  -50.3323   -5.5182   19.6888 C   0  0  0  0  0  0
  -55.3487   -8.1239   14.9331 C   0  0  0  0  0  0
  -55.7187   -6.8201   14.6090 C   0  0  0  0  0  0
  -50.0389   -3.0907   20.0071 C   0  0  0  0  0  0
  -51.0897   -8.5169   18.9806 H   0  0  0  0  0  0
  -54.7113  -10.2491   15.7926 H   0  0  0  0  0  0
  -48.9003   -2.7019   21.5438 H   0  0  0  0  0  0
  1 13  1  0  0  0
  1 22  1  0  0  0
  2 11  2  0  0  0
  3 12  2  0  0  0
  4 15  1  0  0  0
  4 23  1  0  0  0
  5 21  1  0  0  0
  5 24  1  0  0  0
  6 21  2  0  0  0
  7  8  2  0  0  0
  7 11  1  0  0  0
  7 13  1  0  0  0
  8 12  1  0  0  0
  8 14  1  0  0  0
  9 10  2  0  0  0
  9 11  1  0  0  0
  9 15  1  0  0  0
 10 12  1  0  0  0
 10 17  1  0  0  0
 13 18  2  0  0  0
 14 16  2  0  0  0
 15 19  2  0  0  0
 16 18  1  0  0  0
 16 21  1  0  0  0
 17 20  2  0  0  0
 19 20  1  0  0  0
M  END
>  <CHROM.0>
-63.85748818,-61.27683124,-179.48756218

>  <CHROM.1>
-2.62590446,166.11002994,4.69814207,167.85911034,-52.43868611,-5.94626611
17.71110580,-0.58880968,0.76230994,-3.13460745

>  <Name>
10168

>  <PUBCHEM_ATOM_DEF_STEREO_COUNT>
0

>  <PUBCHEM_ATOM_UDEF_STEREO_COUNT>
0

>  <PUBCHEM_BOND_DEF_STEREO_COUNT>
0

>  <PUBCHEM_BOND_UDEF_STEREO_COUNT>
0

>  <PUBCHEM_CACTVS_TAUTO_COUNT>
24

>  <PUBCHEM_COMPONENT_COUNT>
1

>  <PUBCHEM_COMPOUND_CID>
10168

>  <PUBCHEM_CONFORMER_DIVERSEORDER>
1

>  <PUBCHEM_CONFORMER_ID>
000027B800000001

>  <PUBCHEM_CONFORMER_RMSD>
0.6

>  <PUBCHEM_COORDINATE_TYPE>
2
5
10

>  <PUBCHEM_EFFECTIVE_ROTOR_COUNT>
1

>  <PUBCHEM_FEATURE_SELFOVERLAP>
50.846

>  <PUBCHEM_HEAVY_ATOM_COUNT>
21

>  <PUBCHEM_ISOTOPIC_ATOM_COUNT>
0

>  <PUBCHEM_MMFF94_ENERGY>
68.6965

>  <PUBCHEM_MMFF94_PARTIAL_CHARGES>
29
1 -0.53
10 0.09
11 0.4
12 0.4
13 0.08
14 -0.15
15 0.08
16 0.09
17 -0.15
18 -0.15
19 -0.15
2 -0.57
20 -0.15
21 0.63
22 0.15
23 0.15
24 0.15
25 0.15
26 0.15
27 0.45
28 0.45
29 0.5
3 -0.57
4 -0.53
5 -0.65
6 -0.57
7 0.09
8 0.09
9 0.09

>  <PUBCHEM_PHARMACOPHORE_FEATURES>
10
1 1 donor
1 2 acceptor
1 3 acceptor
1 4 donor
1 5 acceptor
1 6 acceptor
3 5 6 21 anion
6 7 8 13 14 16 18 rings
6 7 8 9 10 11 12 rings
6 9 10 15 17 19 20 rings

>  <PUBCHEM_SHAPE_FINGERPRINT>
10411042 1 17474108078014113454
10493431 412 18269565953339895465
10498660 4 18410294674922913756
10616163 171 18410857672284589919
10967382 1 18338516322768651303
11112241 14 16053761070513734896
11132069 177 18409728443646081177
11578080 2 16880465970251001054
12011746 2 18411414016725795421
12236239 1 17822008735941251148
12390115 104 18200049372811105841
12403814 3 17603301544648884029
12788726 201 17130428969891162825
12839892 36 18337935806573543930
12954195 1 17914635873199923916
13132413 78 18412263956188401997
13140716 1 17978237380748065187
13214271 11 18413105065582804717
138480 1 17689997830145918786
13862211 1 18410849988456228526
14787075 74 18271241724201582520
14790565 3 18410863182654238816
15196674 1 18410573989646956454
15442244 35 17978509737119017459
15536298 74 18270120106524723222
16945 1 18338797943927191847
19591789 44 18339360880600163352
200 152 18060414720851970709
20510252 161 18343586217802211793
21029758 11 18343016726961894417
21267235 1 18410019848582002819
21421861 104 17898004620951251034
2334 1 18410855434849033379
23366157 5 17970072141091609650
23402539 116 18342168981657591294
23463225 33 18336828581004649021
23557571 272 18272379688914152982
23559900 14 18198340655049243982
2748010 2 18338801104986231055
335352 9 18266458707240121534
34934 24 18410288074001057415
350125 39 18338802342116335721
3545911 37 18410294679449859541
4214541 1 18410575071905095872
474 4 17748835132931610636
474229 33 18410572911836947014
5104073 3 18410011018223987362
58051976 378 18340767031444580180
59755656 215 18340493253766844862
7364860 26 18197216936859193670
9709674 26 18340492162006407318

>  <PUBCHEM_SHAPE_MULTIPOLES>
396.95
8.82
2.71
0.59
3.87
0.56
0
-1.97
0
-0.5
0
-0.03
-0.02
0

>  <PUBCHEM_SHAPE_SELFOVERLAP>
903.159

>  <PUBCHEM_SHAPE_VOLUME>
204.5

>  <RI>
-2.42855e+08

>  <Rbt.Current_Directory>
/root/miniconda3/envs/rdock/share/rxdock-2013.1.1_148c5bd1-0/data/ligands/prepped_ligands/Rhein

>  <Rbt.Executable>
rbdock/0.1.0

>  <Rbt.Library>
librxdock.so/0.1.0

>  <Rbt.Parameter_File>
/root/miniconda3/envs/rdock/share/rxdock-2013.1.1_148c5bd1-0/data/scripts/dock.prm

>  <Rbt.Receptor>
def.prm

>  <SCORE>
-17.019

>  <SCORE.INTER>
-16.3598

>  <SCORE.INTER.CONST>
1

>  <SCORE.INTER.POLAR>
-1.39152

>  <SCORE.INTER.REPUL>
0

>  <SCORE.INTER.ROT>
1

>  <SCORE.INTER.VDW>
-18.0287

>  <SCORE.INTER.norm>
-0.77904

>  <SCORE.INTRA>
0.418535

>  <SCORE.INTRA.DIHEDRAL>
1.00802

>  <SCORE.INTRA.DIHEDRAL.0>
1.91521e-05

>  <SCORE.INTRA.POLAR>
0.0188123

>  <SCORE.INTRA.POLAR.0>
-0.0515654

>  <SCORE.INTRA.REPUL>
0

>  <SCORE.INTRA.REPUL.0>
0

>  <SCORE.INTRA.VDW>
-0.149436

>  <SCORE.INTRA.VDW.0>
1.17338

>  <SCORE.INTRA.norm>
0.0199302

>  <SCORE.RESTR>
0

>  <SCORE.RESTR.CAVITY>
0

>  <SCORE.RESTR.norm>
0

>  <SCORE.SYSTEM>
-1.07767

>  <SCORE.SYSTEM.CONST>
0

>  <SCORE.SYSTEM.DIHEDRAL>
0.0478941

>  <SCORE.SYSTEM.POLAR>
-0.00325679

>  <SCORE.SYSTEM.VDW>
-1.09054

>  <SCORE.SYSTEM.norm>
-0.0513175

>  <SCORE.heavy>
21

>  <SCORE.norm>
-0.810427

$$$$
10168
  RxDock  02242101343D
librxdock.so/0.1.0
 24 26  0  0  0  0  0  0  0  0999 V2000
  -50.6617   -7.8396   19.5251 O   0  0  0  0  0  0
  -52.3756   -8.6876   17.8206 O   0  0  0  0  0  0
  -53.7115   -3.7077   16.4152 O   0  0  0  0  0  0
  -54.0443   -9.6965   16.1586 O   0  0  0  0  0  0
  -49.2499   -3.4568   20.9701 O   0  0  0  0  0  0
  -50.3210   -1.8881   19.7217 O   0  0  0  0  0  0
  -52.0272   -6.3868   18.1378 C   0  0  0  0  0  0
  -52.3762   -5.0856   17.7707 C   0  0  0  0  0  0
  -53.7085   -7.3100   16.4635 C   0  0  0  0  0  0
  -54.0576   -6.0086   16.0965 C   0  0  0  0  0  0
  -52.6806   -7.5467   17.4977 C   0  0  0  0  0  0
  -53.4042   -4.8489   16.7367 C   0  0  0  0  0  0
  -51.0512   -6.5975   19.1192 C   0  0  0  0  0  0
  -51.7493   -3.9948   18.3851 C   0  0  0  0  0  0
  -54.3354   -8.4008   15.8490 C   0  0  0  0  0  0
  -50.7772   -4.2092   19.3626 C   0  0  0  0  0  0
  -55.0335   -5.7980   15.1150 C   0  0  0  0  0  0
  -50.4288   -5.5076   19.7290 C   0  0  0  0  0  0
  -55.3072   -8.1863   14.8712 C   0  0  0  0  0  0
  -55.6555   -6.8877   14.5050 C   0  0  0  0  0  0
  -50.1260   -3.0757   20.0005 C   0  0  0  0  0  0
  -51.1120   -8.5168   18.9922 H   0  0  0  0  0  0
  -54.7568  -10.2873   15.8729 H   0  0  0  0  0  0
  -48.8609   -2.6852   21.4344 H   0  0  0  0  0  0
  1 13  1  0  0  0
  1 22  1  0  0  0
  2 11  2  0  0  0
  3 12  2  0  0  0
  4 15  1  0  0  0
  4 23  1  0  0  0
  5 21  1  0  0  0
  5 24  1  0  0  0
  6 21  2  0  0  0
  7  8  2  0  0  0
  7 11  1  0  0  0
  7 13  1  0  0  0
  8 12  1  0  0  0
  8 14  1  0  0  0
  9 10  2  0  0  0
  9 11  1  0  0  0
  9 15  1  0  0  0
 10 12  1  0  0  0
 10 17  1  0  0  0
 13 18  2  0  0  0
 14 16  2  0  0  0
 15 19  2  0  0  0
 16 18  1  0  0  0
 16 21  1  0  0  0
 17 20  2  0  0  0
 19 20  1  0  0  0
M  END
>  <CHROM.0>
50.96457671,-57.89426229,-61.19238719

>  <CHROM.1>
3.96725958,160.82079374,3.73555249,177.22889946,-52.46984475,-5.96636678
17.69110434,-0.58242857,0.78863176,3.12518798

>  <Name>
10168

>  <PUBCHEM_ATOM_DEF_STEREO_COUNT>
0

>  <PUBCHEM_ATOM_UDEF_STEREO_COUNT>
0

>  <PUBCHEM_BOND_DEF_STEREO_COUNT>
0

>  <PUBCHEM_BOND_UDEF_STEREO_COUNT>
0

>  <PUBCHEM_CACTVS_TAUTO_COUNT>
24

>  <PUBCHEM_COMPONENT_COUNT>
1

>  <PUBCHEM_COMPOUND_CID>
10168

>  <PUBCHEM_CONFORMER_DIVERSEORDER>
1

>  <PUBCHEM_CONFORMER_ID>
000027B800000001

>  <PUBCHEM_CONFORMER_RMSD>
0.6

>  <PUBCHEM_COORDINATE_TYPE>
2
5
10

>  <PUBCHEM_EFFECTIVE_ROTOR_COUNT>
1

>  <PUBCHEM_FEATURE_SELFOVERLAP>
50.846

>  <PUBCHEM_HEAVY_ATOM_COUNT>
21

>  <PUBCHEM_ISOTOPIC_ATOM_COUNT>
0

>  <PUBCHEM_MMFF94_ENERGY>
68.6965

>  <PUBCHEM_MMFF94_PARTIAL_CHARGES>
29
1 -0.53
10 0.09
11 0.4
12 0.4
13 0.08
14 -0.15
15 0.08
16 0.09
17 -0.15
18 -0.15
19 -0.15
2 -0.57
20 -0.15
21 0.63
22 0.15
23 0.15
24 0.15
25 0.15
26 0.15
27 0.45
28 0.45
29 0.5
3 -0.57
4 -0.53
5 -0.65
6 -0.57
7 0.09
8 0.09
9 0.09

>  <PUBCHEM_PHARMACOPHORE_FEATURES>
10
1 1 donor
1 2 acceptor
1 3 acceptor
1 4 donor
1 5 acceptor
1 6 acceptor
3 5 6 21 anion
6 7 8 13 14 16 18 rings
6 7 8 9 10 11 12 rings
6 9 10 15 17 19 20 rings

>  <PUBCHEM_SHAPE_FINGERPRINT>
10411042 1 17474108078014113454
10493431 412 18269565953339895465
10498660 4 18410294674922913756
10616163 171 18410857672284589919
10967382 1 18338516322768651303
11112241 14 16053761070513734896
11132069 177 18409728443646081177
11578080 2 16880465970251001054
12011746 2 18411414016725795421
12236239 1 17822008735941251148
12390115 104 18200049372811105841
12403814 3 17603301544648884029
12788726 201 17130428969891162825
12839892 36 18337935806573543930
12954195 1 17914635873199923916
13132413 78 18412263956188401997
13140716 1 17978237380748065187
13214271 11 18413105065582804717
138480 1 17689997830145918786
13862211 1 18410849988456228526
14787075 74 18271241724201582520
14790565 3 18410863182654238816
15196674 1 18410573989646956454
15442244 35 17978509737119017459
15536298 74 18270120106524723222
16945 1 18338797943927191847
19591789 44 18339360880600163352
200 152 18060414720851970709
20510252 161 18343586217802211793
21029758 11 18343016726961894417
21267235 1 18410019848582002819
21421861 104 17898004620951251034
2334 1 18410855434849033379
23366157 5 17970072141091609650
23402539 116 18342168981657591294
23463225 33 18336828581004649021
23557571 272 18272379688914152982
23559900 14 18198340655049243982
2748010 2 18338801104986231055
335352 9 18266458707240121534
34934 24 18410288074001057415
350125 39 18338802342116335721
3545911 37 18410294679449859541
4214541 1 18410575071905095872
474 4 17748835132931610636
474229 33 18410572911836947014
5104073 3 18410011018223987362
58051976 378 18340767031444580180
59755656 215 18340493253766844862
7364860 26 18197216936859193670
9709674 26 18340492162006407318

>  <PUBCHEM_SHAPE_MULTIPOLES>
396.95
8.82
2.71
0.59
3.87
0.56
0
-1.97
0
-0.5
0
-0.03
-0.02
0

>  <PUBCHEM_SHAPE_SELFOVERLAP>
903.159

>  <PUBCHEM_SHAPE_VOLUME>
204.5

>  <RI>
-2.42855e+08

>  <Rbt.Current_Directory>
/root/miniconda3/envs/rdock/share/rxdock-2013.1.1_148c5bd1-0/data/ligands/prepped_ligands/Rhein

>  <Rbt.Executable>
rbdock/0.1.0

>  <Rbt.Library>
librxdock.so/0.1.0

>  <Rbt.Parameter_File>
/root/miniconda3/envs/rdock/share/rxdock-2013.1.1_148c5bd1-0/data/scripts/dock.prm

>  <Rbt.Receptor>
def.prm

>  <SCORE>
-17.0712

>  <SCORE.INTER>
-16.4528

>  <SCORE.INTER.CONST>
1

>  <SCORE.INTER.POLAR>
-1.45466

>  <SCORE.INTER.REPUL>
0

>  <SCORE.INTER.ROT>
1

>  <SCORE.INTER.VDW>
-17.907

>  <SCORE.INTER.norm>
-0.783468

>  <SCORE.INTRA>
0.271386

>  <SCORE.INTRA.DIHEDRAL>
0.670527

>  <SCORE.INTRA.DIHEDRAL.0>
1.91521e-05

>  <SCORE.INTRA.POLAR>
0.0200357

>  <SCORE.INTRA.POLAR.0>
-0.0515654

>  <SCORE.INTRA.REPUL>
0

>  <SCORE.INTRA.REPUL.0>
0

>  <SCORE.INTRA.VDW>
-0.131999

>  <SCORE.INTRA.VDW.0>
1.17338

>  <SCORE.INTRA.norm>
0.0129232

>  <SCORE.RESTR>
0

>  <SCORE.RESTR.CAVITY>
0

>  <SCORE.RESTR.norm>
0

>  <SCORE.SYSTEM>
-0.889734

>  <SCORE.SYSTEM.CONST>
0

>  <SCORE.SYSTEM.DIHEDRAL>
0.230668

>  <SCORE.SYSTEM.VDW>
-1.00507

>  <SCORE.SYSTEM.norm>
-0.0423683

>  <SCORE.heavy>
21

>  <SCORE.norm>
-0.812913

$$$$
10168
  RxDock  02242101343D
librxdock.so/0.1.0
 24 26  0  0  0  0  0  0  0  0999 V2000
  -44.2949   -1.0844   16.1445 O   0  0  0  0  0  0
  -46.1054   -2.0491   14.6105 O   0  0  0  0  0  0
  -49.9368    0.7461   17.0736 O   0  0  0  0  0  0
  -47.7922   -3.1015   12.9944 O   0  0  0  0  0  0
  -44.3132    2.1385   19.7402 O   0  0  0  0  0  0
  -46.4675    2.6507   20.2532 O   0  0  0  0  0  0
  -46.6507   -0.5144   16.3026 C   0  0  0  0  0  0
  -47.6517    0.2159   16.9463 C   0  0  0  0  0  0
  -48.3895   -1.5168   14.7360 C   0  0  0  0  0  0
  -49.3905   -0.7864   15.3798 C   0  0  0  0  0  0
  -46.9828   -1.4076   15.1739 C   0  0  0  0  0  0
  -49.0582    0.1066   16.5085 C   0  0  0  0  0  0
  -45.3213   -0.4017   16.7273 C   0  0  0  0  0  0
  -47.3235    1.0590   18.0148 C   0  0  0  0  0  0
  -48.7177   -2.3598   13.6674 C   0  0  0  0  0  0
  -45.9975    1.1683   18.4348 C   0  0  0  0  0  0
  -50.7198   -0.8990   14.9551 C   0  0  0  0  0  0
  -44.9985    0.4397   17.7925 C   0  0  0  0  0  0
  -50.0436   -2.4688   13.2473 C   0  0  0  0  0  0
  -51.0426   -1.7400   13.8898 C   0  0  0  0  0  0
  -45.6569    2.0446   19.5448 C   0  0  0  0  0  0
  -43.5786   -1.2159   16.7886 H   0  0  0  0  0  0
  -47.9872   -4.0473   13.0709 H   0  0  0  0  0  0
  -44.0969    2.6447   20.5522 H   0  0  0  0  0  0
  1 13  1  0  0  0
  1 22  1  0  0  0
  2 11  2  0  0  0
  3 12  2  0  0  0
  4 15  1  0  0  0
  4 23  1  0  0  0
  5 21  1  0  0  0
  5 24  1  0  0  0
  6 21  2  0  0  0
  7  8  2  0  0  0
  7 11  1  0  0  0
  7 13  1  0  0  0
  8 12  1  0  0  0
  8 14  1  0  0  0
  9 10  2  0  0  0
  9 11  1  0  0  0
  9 15  1  0  0  0
 10 12  1  0  0  0
 10 17  1  0  0  0
 13 18  2  0  0  0
 14 16  2  0  0  0
 15 19  2  0  0  0
 16 18  1  0  0  0
 16 21  1  0  0  0
 17 20  2  0  0  0
 19 20  1  0  0  0
M  END
>  <CHROM.0>
60.64674201,61.65573618,-62.71124389

>  <CHROM.1>
-153.30914034,119.09782037,6.64109921,-173.85987834,-47.38652761,-0.35984113
16.32804856,-1.02894400,0.13842328,-2.27436039

>  <Name>
10168

>  <PUBCHEM_ATOM_DEF_STEREO_COUNT>
0

>  <PUBCHEM_ATOM_UDEF_STEREO_COUNT>
0

>  <PUBCHEM_BOND_DEF_STEREO_COUNT>
0

>  <PUBCHEM_BOND_UDEF_STEREO_COUNT>
0

>  <PUBCHEM_CACTVS_TAUTO_COUNT>
24

>  <PUBCHEM_COMPONENT_COUNT>
1

>  <PUBCHEM_COMPOUND_CID>
10168

>  <PUBCHEM_CONFORMER_DIVERSEORDER>
1

>  <PUBCHEM_CONFORMER_ID>
000027B800000001

>  <PUBCHEM_CONFORMER_RMSD>
0.6

>  <PUBCHEM_COORDINATE_TYPE>
2
5
10

>  <PUBCHEM_EFFECTIVE_ROTOR_COUNT>
1

>  <PUBCHEM_FEATURE_SELFOVERLAP>
50.846

>  <PUBCHEM_HEAVY_ATOM_COUNT>
21

>  <PUBCHEM_ISOTOPIC_ATOM_COUNT>
0

>  <PUBCHEM_MMFF94_ENERGY>
68.6965

>  <PUBCHEM_MMFF94_PARTIAL_CHARGES>
29
1 -0.53
10 0.09
11 0.4
12 0.4
13 0.08
14 -0.15
15 0.08
16 0.09
17 -0.15
18 -0.15
19 -0.15
2 -0.57
20 -0.15
21 0.63
22 0.15
23 0.15
24 0.15
25 0.15
26 0.15
27 0.45
28 0.45
29 0.5
3 -0.57
4 -0.53
5 -0.65
6 -0.57
7 0.09
8 0.09
9 0.09

>  <PUBCHEM_PHARMACOPHORE_FEATURES>
10
1 1 donor
1 2 acceptor
1 3 acceptor
1 4 donor
1 5 acceptor
1 6 acceptor
3 5 6 21 anion
6 7 8 13 14 16 18 rings
6 7 8 9 10 11 12 rings
6 9 10 15 17 19 20 rings

>  <PUBCHEM_SHAPE_FINGERPRINT>
10411042 1 17474108078014113454
10493431 412 18269565953339895465
10498660 4 18410294674922913756
10616163 171 18410857672284589919
10967382 1 18338516322768651303
11112241 14 16053761070513734896
11132069 177 18409728443646081177
11578080 2 16880465970251001054
12011746 2 18411414016725795421
12236239 1 17822008735941251148
12390115 104 18200049372811105841
12403814 3 17603301544648884029
12788726 201 17130428969891162825
12839892 36 18337935806573543930
12954195 1 17914635873199923916
13132413 78 18412263956188401997
13140716 1 17978237380748065187
13214271 11 18413105065582804717
138480 1 17689997830145918786
13862211 1 18410849988456228526
14787075 74 18271241724201582520
14790565 3 18410863182654238816
15196674 1 18410573989646956454
15442244 35 17978509737119017459
15536298 74 18270120106524723222
16945 1 18338797943927191847
19591789 44 18339360880600163352
200 152 18060414720851970709
20510252 161 18343586217802211793
21029758 11 18343016726961894417
21267235 1 18410019848582002819
21421861 104 17898004620951251034
2334 1 18410855434849033379
23366157 5 17970072141091609650
23402539 116 18342168981657591294
23463225 33 18336828581004649021
23557571 272 18272379688914152982
23559900 14 18198340655049243982
2748010 2 18338801104986231055
335352 9 18266458707240121534
34934 24 18410288074001057415
350125 39 18338802342116335721
3545911 37 18410294679449859541
4214541 1 18410575071905095872
474 4 17748835132931610636
474229 33 18410572911836947014
5104073 3 18410011018223987362
58051976 378 18340767031444580180
59755656 215 18340493253766844862
7364860 26 18197216936859193670
9709674 26 18340492162006407318

>  <PUBCHEM_SHAPE_MULTIPOLES>
396.95
8.82
2.71
0.59
3.87
0.56
0
-1.97
0
-0.5
0
-0.03
-0.02
0

>  <PUBCHEM_SHAPE_SELFOVERLAP>
903.159

>  <PUBCHEM_SHAPE_VOLUME>
204.5

>  <RI>
-2.42855e+08

>  <Rbt.Current_Directory>
/root/miniconda3/envs/rdock/share/rxdock-2013.1.1_148c5bd1-0/data/ligands/prepped_ligands/Rhein

>  <Rbt.Executable>
rbdock/0.1.0

>  <Rbt.Library>
librxdock.so/0.1.0

>  <Rbt.Parameter_File>
/root/miniconda3/envs/rdock/share/rxdock-2013.1.1_148c5bd1-0/data/scripts/dock.prm

>  <Rbt.Receptor>
def.prm

>  <SCORE>
-10.134

>  <SCORE.INTER>
-11.4859

>  <SCORE.INTER.CONST>
1

>  <SCORE.INTER.POLAR>
-1.12821

>  <SCORE.INTER.REPUL>
0.0233059

>  <SCORE.INTER.ROT>
1

>  <SCORE.INTER.VDW>
-14.1665

>  <SCORE.INTER.norm>
-0.546949

>  <SCORE.INTRA>
2.18114

>  <SCORE.INTRA.DIHEDRAL>
5.09491

>  <SCORE.INTRA.DIHEDRAL.0>
1.91521e-05

>  <SCORE.INTRA.POLAR>
0.0515654

>  <SCORE.INTRA.POLAR.0>
-0.0515654

>  <SCORE.INTRA.REPUL>
0

>  <SCORE.INTRA.REPUL.0>
0

>  <SCORE.INTRA.VDW>
-0.541639

>  <SCORE.INTRA.VDW.0>
1.17338

>  <SCORE.INTRA.norm>
0.103864

>  <SCORE.RESTR>
0.170785

>  <SCORE.RESTR.CAVITY>
0.170785

>  <SCORE.RESTR.norm>
0.0081326

>  <SCORE.SYSTEM>
-1.00004

>  <SCORE.SYSTEM.CONST>
0

>  <SCORE.SYSTEM.DIHEDRAL>
0.0345849

>  <SCORE.SYSTEM.VDW>
-1.01733

>  <SCORE.SYSTEM.norm>
-0.047621

>  <SCORE.heavy>
21

>  <SCORE.norm>
-0.482573

$$$$
10168
  RxDock  02242101343D
librxdock.so/0.1.0
 24 26  0  0  0  0  0  0  0  0999 V2000
  -50.4477   -7.9461   19.3385 O   0  0  0  0  0  0
  -52.2777   -8.7221   17.7227 O   0  0  0  0  0  0
  -53.5783   -3.6871   16.4915 O   0  0  0  0  0  0
  -54.0637   -9.6609   16.1437 O   0  0  0  0  0  0
  -49.6302   -2.1443   19.0298 O   0  0  0  0  0  0
  -49.3348   -3.1942   21.0240 O   0  0  0  0  0  0
  -51.8582   -6.4363   18.0615 C   0  0  0  0  0  0
  -52.1980   -5.1207   17.7399 C   0  0  0  0  0  0
  -53.6556   -7.2889   16.4725 C   0  0  0  0  0  0
  -53.9955   -5.9731   16.1510 C   0  0  0  0  0  0
  -52.5746   -7.5687   17.4397 C   0  0  0  0  0  0
  -53.2791   -4.8410   16.7730 C   0  0  0  0  0  0
  -50.8314   -6.6878   18.9795 C   0  0  0  0  0  0
  -51.5112   -4.0564   18.3364 C   0  0  0  0  0  0
  -54.3425   -8.3531   15.8760 C   0  0  0  0  0  0
  -50.4887   -4.3115   19.2507 C   0  0  0  0  0  0
  -55.0221   -5.7215   15.2330 C   0  0  0  0  0  0
  -50.1494   -5.6243   19.5716 C   0  0  0  0  0  0
  -55.3647   -8.0980   14.9614 C   0  0  0  0  0  0
  -55.7038   -6.7850   14.6406 C   0  0  0  0  0  0
  -49.7751   -3.2055   19.8699 C   0  0  0  0  0  0
  -49.6928   -7.8988   19.9494 H   0  0  0  0  0  0
  -54.7706  -10.2374   15.8177 H   0  0  0  0  0  0
  -50.0241   -2.3198   18.1487 H   0  0  0  0  0  0
  1 13  1  0  0  0
  1 22  1  0  0  0
  2 11  2  0  0  0
  3 12  2  0  0  0
  4 15  1  0  0  0
  4 23  1  0  0  0
  5 21  1  0  0  0
  5 24  1  0  0  0
  6 21  2  0  0  0
  7  8  2  0  0  0
  7 11  1  0  0  0
  7 13  1  0  0  0
  8 12  1  0  0  0
  8 14  1  0  0  0
  9 10  2  0  0  0
  9 11  1  0  0  0
  9 15  1  0  0  0
 10 12  1  0  0  0
 10 17  1  0  0  0
 13 18  2  0  0  0
 14 16  2  0  0  0
 15 19  2  0  0  0
 16 18  1  0  0  0
 16 21  1  0  0  0
 17 20  2  0  0  0
 19 20  1  0  0  0
M  END
>  <CHROM.0>
-177.91046941,-179.60143007,-59.92904001

>  <CHROM.1>
177.15283021,165.89876007,179.18415698,-34.48678377,-52.32623211,-5.97642184
17.62271447,-0.54949059,0.74034829,3.09023424

>  <Name>
10168

>  <PUBCHEM_ATOM_DEF_STEREO_COUNT>
0

>  <PUBCHEM_ATOM_UDEF_STEREO_COUNT>
0

>  <PUBCHEM_BOND_DEF_STEREO_COUNT>
0

>  <PUBCHEM_BOND_UDEF_STEREO_COUNT>
0

>  <PUBCHEM_CACTVS_TAUTO_COUNT>
24

>  <PUBCHEM_COMPONENT_COUNT>
1

>  <PUBCHEM_COMPOUND_CID>
10168

>  <PUBCHEM_CONFORMER_DIVERSEORDER>
1

>  <PUBCHEM_CONFORMER_ID>
000027B800000001

>  <PUBCHEM_CONFORMER_RMSD>
0.6

>  <PUBCHEM_COORDINATE_TYPE>
2
5
10

>  <PUBCHEM_EFFECTIVE_ROTOR_COUNT>
1

>  <PUBCHEM_FEATURE_SELFOVERLAP>
50.846

>  <PUBCHEM_HEAVY_ATOM_COUNT>
21

>  <PUBCHEM_ISOTOPIC_ATOM_COUNT>
0

>  <PUBCHEM_MMFF94_ENERGY>
68.6965

>  <PUBCHEM_MMFF94_PARTIAL_CHARGES>
29
1 -0.53
10 0.09
11 0.4
12 0.4
13 0.08
14 -0.15
15 0.08
16 0.09
17 -0.15
18 -0.15
19 -0.15
2 -0.57
20 -0.15
21 0.63
22 0.15
23 0.15
24 0.15
25 0.15
26 0.15
27 0.45
28 0.45
29 0.5
3 -0.57
4 -0.53
5 -0.65
6 -0.57
7 0.09
8 0.09
9 0.09

>  <PUBCHEM_PHARMACOPHORE_FEATURES>
10
1 1 donor
1 2 acceptor
1 3 acceptor
1 4 donor
1 5 acceptor
1 6 acceptor
3 5 6 21 anion
6 7 8 13 14 16 18 rings
6 7 8 9 10 11 12 rings
6 9 10 15 17 19 20 rings

>  <PUBCHEM_SHAPE_FINGERPRINT>
10411042 1 17474108078014113454
10493431 412 18269565953339895465
10498660 4 18410294674922913756
10616163 171 18410857672284589919
10967382 1 18338516322768651303
11112241 14 16053761070513734896
11132069 177 18409728443646081177
11578080 2 16880465970251001054
12011746 2 18411414016725795421
12236239 1 17822008735941251148
12390115 104 18200049372811105841
12403814 3 17603301544648884029
12788726 201 17130428969891162825
12839892 36 18337935806573543930
12954195 1 17914635873199923916
13132413 78 18412263956188401997
13140716 1 17978237380748065187
13214271 11 18413105065582804717
138480 1 17689997830145918786
13862211 1 18410849988456228526
14787075 74 18271241724201582520
14790565 3 18410863182654238816
15196674 1 18410573989646956454
15442244 35 17978509737119017459
15536298 74 18270120106524723222
16945 1 18338797943927191847
19591789 44 18339360880600163352
200 152 18060414720851970709
20510252 161 18343586217802211793
21029758 11 18343016726961894417
21267235 1 18410019848582002819
21421861 104 17898004620951251034
2334 1 18410855434849033379
23366157 5 17970072141091609650
23402539 116 18342168981657591294
23463225 33 18336828581004649021
23557571 272 18272379688914152982
23559900 14 18198340655049243982
2748010 2 18338801104986231055
335352 9 18266458707240121534
34934 24 18410288074001057415
350125 39 18338802342116335721
3545911 37 18410294679449859541
4214541 1 18410575071905095872
474 4 17748835132931610636
474229 33 18410572911836947014
5104073 3 18410011018223987362
58051976 378 18340767031444580180
59755656 215 18340493253766844862
7364860 26 18197216936859193670
9709674 26 18340492162006407318

>  <PUBCHEM_SHAPE_MULTIPOLES>
396.95
8.82
2.71
0.59
3.87
0.56
0
-1.97
0
-0.5
0
-0.03
-0.02
0

>  <PUBCHEM_SHAPE_SELFOVERLAP>
903.159

>  <PUBCHEM_SHAPE_VOLUME>
204.5

>  <RI>
-2.42855e+08

>  <Rbt.Current_Directory>
/root/miniconda3/envs/rdock/share/rxdock-2013.1.1_148c5bd1-0/data/ligands/prepped_ligands/Rhein

>  <Rbt.Executable>
rbdock/0.1.0

>  <Rbt.Library>
librxdock.so/0.1.0

>  <Rbt.Parameter_File>
/root/miniconda3/envs/rdock/share/rxdock-2013.1.1_148c5bd1-0/data/scripts/dock.prm

>  <Rbt.Receptor>
def.prm

>  <SCORE>
-13.2624

>  <SCORE.INTER>
-15.7737

>  <SCORE.INTER.CONST>
1

>  <SCORE.INTER.POLAR>
-1.28111

>  <SCORE.INTER.REPUL>
0

>  <SCORE.INTER.ROT>
1

>  <SCORE.INTER.VDW>
-17.8179

>  <SCORE.INTER.norm>
-0.751128

>  <SCORE.INTRA>
3.57594

>  <SCORE.INTRA.DIHEDRAL>
4.39948

>  <SCORE.INTRA.DIHEDRAL.0>
1.91521e-05

>  <SCORE.INTRA.POLAR>
0.0515654

>  <SCORE.INTRA.POLAR.0>
-0.0515654

>  <SCORE.INTRA.REPUL>
0

>  <SCORE.INTRA.REPUL.0>
0

>  <SCORE.INTRA.VDW>
1.20087

>  <SCORE.INTRA.VDW.0>
1.17338

>  <SCORE.INTRA.norm>
0.170283

>  <SCORE.RESTR>
0

>  <SCORE.RESTR.CAVITY>
0

>  <SCORE.RESTR.norm>
0

>  <SCORE.SYSTEM>
-1.06469

>  <SCORE.SYSTEM.CONST>
0

>  <SCORE.SYSTEM.DIHEDRAL>
0.0101598

>  <SCORE.SYSTEM.POLAR>
-0.000957851

>  <SCORE.SYSTEM.VDW>
-1.06651

>  <SCORE.SYSTEM.norm>
-0.0506995

>  <SCORE.heavy>
21

>  <SCORE.norm>
-0.631544

$$$$
10168
  RxDock  02242101343D
librxdock.so/0.1.0
 24 26  0  0  0  0  0  0  0  0999 V2000
  -50.5972   -7.8987   19.4113 O   0  0  0  0  0  0
  -52.3664   -8.7185   17.7501 O   0  0  0  0  0  0
  -53.7066   -3.7163   16.4305 O   0  0  0  0  0  0
  -54.0903   -9.7000   16.1285 O   0  0  0  0  0  0
  -50.3760   -1.9477   19.3747 O   0  0  0  0  0  0
  -49.1941   -3.2262   20.8359 O   0  0  0  0  0  0
  -51.9921   -6.4233   18.0781 C   0  0  0  0  0  0
  -52.3423   -5.1163   17.7335 C   0  0  0  0  0  0
  -53.7284   -7.3189   16.4455 C   0  0  0  0  0  0
  -54.0786   -6.0117   16.1009 C   0  0  0  0  0  0
  -52.6724   -7.5726   17.4469 C   0  0  0  0  0  0
  -53.3983   -4.8627   16.7323 C   0  0  0  0  0  0
  -50.9893   -6.6501   19.0286 C   0  0  0  0  0  0
  -51.6897   -4.0357   18.3392 C   0  0  0  0  0  0
  -54.3809   -8.3994   15.8397 C   0  0  0  0  0  0
  -50.6910   -4.2662   19.2858 C   0  0  0  0  0  0
  -55.0812   -5.7850   15.1504 C   0  0  0  0  0  0
  -50.3415   -5.5704   19.6298 C   0  0  0  0  0  0
  -55.3793   -8.1689   14.8928 C   0  0  0  0  0  0
  -55.7288   -6.8645   14.5490 C   0  0  0  0  0  0
  -50.0131   -3.1433   19.9147 C   0  0  0  0  0  0
  -51.0811   -8.5679   18.8982 H   0  0  0  0  0  0
  -54.8210  -10.2815   15.8712 H   0  0  0  0  0  0
  -49.9386   -1.1950   19.8270 H   0  0  0  0  0  0
  1 13  1  0  0  0
  1 22  1  0  0  0
  2 11  2  0  0  0
  3 12  2  0  0  0
  4 15  1  0  0  0
  4 23  1  0  0  0
  5 21  1  0  0  0
  5 24  1  0  0  0
  6 21  2  0  0  0
  7  8  2  0  0  0
  7 11  1  0  0  0
  7 13  1  0  0  0
  8 12  1  0  0  0
  8 14  1  0  0  0
  9 10  2  0  0  0
  9 11  1  0  0  0
  9 15  1  0  0  0
 10 12  1  0  0  0
 10 17  1  0  0  0
 13 18  2  0  0  0
 14 16  2  0  0  0
 15 19  2  0  0  0
 16 18  1  0  0  0
 16 21  1  0  0  0
 17 20  2  0  0  0
 19 20  1  0  0  0
M  END
>  <CHROM.0>
-59.14136847,62.82428219,-60.19624954

>  <CHROM.1>
2.82450401,159.93105807,-2.14368701,-6.11300025,-52.46313565,-5.97211913
17.62665592,-0.59427327,0.76019631,3.12272493

>  <Name>
10168

>  <PUBCHEM_ATOM_DEF_STEREO_COUNT>
0

>  <PUBCHEM_ATOM_UDEF_STEREO_COUNT>
0

>  <PUBCHEM_BOND_DEF_STEREO_COUNT>
0

>  <PUBCHEM_BOND_UDEF_STEREO_COUNT>
0

>  <PUBCHEM_CACTVS_TAUTO_COUNT>
24

>  <PUBCHEM_COMPONENT_COUNT>
1

>  <PUBCHEM_COMPOUND_CID>
10168

>  <PUBCHEM_CONFORMER_DIVERSEORDER>
1

>  <PUBCHEM_CONFORMER_ID>
000027B800000001

>  <PUBCHEM_CONFORMER_RMSD>
0.6

>  <PUBCHEM_COORDINATE_TYPE>
2
5
10

>  <PUBCHEM_EFFECTIVE_ROTOR_COUNT>
1

>  <PUBCHEM_FEATURE_SELFOVERLAP>
50.846

>  <PUBCHEM_HEAVY_ATOM_COUNT>
21

>  <PUBCHEM_ISOTOPIC_ATOM_COUNT>
0

>  <PUBCHEM_MMFF94_ENERGY>
68.6965

>  <PUBCHEM_MMFF94_PARTIAL_CHARGES>
29
1 -0.53
10 0.09
11 0.4
12 0.4
13 0.08
14 -0.15
15 0.08
16 0.09
17 -0.15
18 -0.15
19 -0.15
2 -0.57
20 -0.15
21 0.63
22 0.15
23 0.15
24 0.15
25 0.15
26 0.15
27 0.45
28 0.45
29 0.5
3 -0.57
4 -0.53
5 -0.65
6 -0.57
7 0.09
8 0.09
9 0.09

>  <PUBCHEM_PHARMACOPHORE_FEATURES>
10
1 1 donor
1 2 acceptor
1 3 acceptor
1 4 donor
1 5 acceptor
1 6 acceptor
3 5 6 21 anion
6 7 8 13 14 16 18 rings
6 7 8 9 10 11 12 rings
6 9 10 15 17 19 20 rings

>  <PUBCHEM_SHAPE_FINGERPRINT>
10411042 1 17474108078014113454
10493431 412 18269565953339895465
10498660 4 18410294674922913756
10616163 171 18410857672284589919
10967382 1 18338516322768651303
11112241 14 16053761070513734896
11132069 177 18409728443646081177
11578080 2 16880465970251001054
12011746 2 18411414016725795421
12236239 1 17822008735941251148
12390115 104 18200049372811105841
12403814 3 17603301544648884029
12788726 201 17130428969891162825
12839892 36 18337935806573543930
12954195 1 17914635873199923916
13132413 78 18412263956188401997
13140716 1 17978237380748065187
13214271 11 18413105065582804717
138480 1 17689997830145918786
13862211 1 18410849988456228526
14787075 74 18271241724201582520
14790565 3 18410863182654238816
15196674 1 18410573989646956454
15442244 35 17978509737119017459
15536298 74 18270120106524723222
16945 1 18338797943927191847
19591789 44 18339360880600163352
200 152 18060414720851970709
20510252 161 18343586217802211793
21029758 11 18343016726961894417
21267235 1 18410019848582002819
21421861 104 17898004620951251034
2334 1 18410855434849033379
23366157 5 17970072141091609650
23402539 116 18342168981657591294
23463225 33 18336828581004649021
23557571 272 18272379688914152982
23559900 14 18198340655049243982
2748010 2 18338801104986231055
335352 9 18266458707240121534
34934 24 18410288074001057415
350125 39 18338802342116335721
3545911 37 18410294679449859541
4214541 1 18410575071905095872
474 4 17748835132931610636
474229 33 18410572911836947014
5104073 3 18410011018223987362
58051976 378 18340767031444580180
59755656 215 18340493253766844862
7364860 26 18197216936859193670
9709674 26 18340492162006407318

>  <PUBCHEM_SHAPE_MULTIPOLES>
396.95
8.82
2.71
0.59
3.87
0.56
0
-1.97
0
-0.5
0
-0.03
-0.02
0

>  <PUBCHEM_SHAPE_SELFOVERLAP>
903.159

>  <PUBCHEM_SHAPE_VOLUME>
204.5

>  <RI>
-2.42855e+08

>  <Rbt.Current_Directory>
/root/miniconda3/envs/rdock/share/rxdock-2013.1.1_148c5bd1-0/data/ligands/prepped_ligands/Rhein

>  <Rbt.Executable>
rbdock/0.1.0

>  <Rbt.Library>
librxdock.so/0.1.0

>  <Rbt.Parameter_File>
/root/miniconda3/envs/rdock/share/rxdock-2013.1.1_148c5bd1-0/data/scripts/dock.prm

>  <Rbt.Receptor>
def.prm

>  <SCORE>
-16.9054

>  <SCORE.INTER>
-16.167

>  <SCORE.INTER.CONST>
1

>  <SCORE.INTER.POLAR>
-1.3414

>  <SCORE.INTER.REPUL>
0

>  <SCORE.INTER.ROT>
1

>  <SCORE.INTER.VDW>
-18.0063

>  <SCORE.INTER.norm>
-0.769858

>  <SCORE.INTRA>
0.283135

>  <SCORE.INTRA.DIHEDRAL>
0.75241

>  <SCORE.INTRA.DIHEDRAL.0>
1.91521e-05

>  <SCORE.INTRA.POLAR>
0.0191855

>  <SCORE.INTRA.POLAR.0>
-0.0515654

>  <SCORE.INTRA.REPUL>
0

>  <SCORE.INTRA.REPUL.0>
0

>  <SCORE.INTRA.VDW>
-0.158301

>  <SCORE.INTRA.VDW.0>
1.17338

>  <SCORE.INTRA.norm>
0.0134826

>  <SCORE.RESTR>
0

>  <SCORE.RESTR.CAVITY>
0

>  <SCORE.RESTR.norm>
0

>  <SCORE.SYSTEM>
-1.02156

>  <SCORE.SYSTEM.CONST>
0

>  <SCORE.SYSTEM.DIHEDRAL>
0.0409315

>  <SCORE.SYSTEM.POLAR>
-0.000270457

>  <SCORE.SYSTEM.VDW>
-1.04111

>  <SCORE.SYSTEM.norm>
-0.0486457

>  <SCORE.heavy>
21

>  <SCORE.norm>
-0.805021

$$$$
10168
  RxDock  02242101343D
librxdock.so/0.1.0
 24 26  0  0  0  0  0  0  0  0999 V2000
  -52.9909   -9.0276   16.9925 O   0  0  0  0  0  0
  -50.6635   -8.0274   17.3732 O   0  0  0  0  0  0
  -52.3354   -3.1457   15.9832 O   0  0  0  0  0  0
  -48.2826   -7.1840   17.8024 O   0  0  0  0  0  0
  -57.0020   -4.8983   16.0005 O   0  0  0  0  0  0
  -57.1775   -6.8470   14.8438 O   0  0  0  0  0  0
  -52.4518   -6.6827   16.6596 C   0  0  0  0  0  0
  -52.8888   -5.4072   16.2963 C   0  0  0  0  0  0
  -50.1111   -5.7660   17.0630 C   0  0  0  0  0  0
  -50.5481   -4.4904   16.6995 C   0  0  0  0  0  0
  -51.0470   -6.9089   17.0562 C   0  0  0  0  0  0
  -51.9529   -4.2644   16.3030 C   0  0  0  0  0  0
  -53.3491   -7.7575   16.6492 C   0  0  0  0  0  0
  -54.2230   -5.2063   15.9225 C   0  0  0  0  0  0
  -48.7768   -5.9668   17.4368 C   0  0  0  0  0  0
  -55.1138   -6.2801   15.9135 C   0  0  0  0  0  0
  -49.6509   -3.4156   16.7100 C   0  0  0  0  0  0
  -54.6779   -7.5529   16.2761 C   0  0  0  0  0  0
  -47.8862   -4.8929   17.4461 C   0  0  0  0  0  0
  -48.3223   -3.6200   17.0835 C   0  0  0  0  0  0
  -56.4999   -6.0709   15.5254 C   0  0  0  0  0  0
  -52.0255   -9.1259   16.9308 H   0  0  0  0  0  0
  -47.7743   -7.5806   17.0794 H   0  0  0  0  0  0
  -57.9288   -4.7547   15.7126 H   0  0  0  0  0  0
  1 13  1  0  0  0
  1 22  1  0  0  0
  2 11  2  0  0  0
  3 12  2  0  0  0
  4 15  1  0  0  0
  4 23  1  0  0  0
  5 21  1  0  0  0
  5 24  1  0  0  0
  6 21  2  0  0  0
  7  8  2  0  0  0
  7 11  1  0  0  0
  7 13  1  0  0  0
  8 12  1  0  0  0
  8 14  1  0  0  0
  9 10  2  0  0  0
  9 11  1  0  0  0
  9 15  1  0  0  0
 10 12  1  0  0  0
 10 17  1  0  0  0
 13 18  2  0  0  0
 14 16  2  0  0  0
 15 19  2  0  0  0
 16 18  1  0  0  0
 16 21  1  0  0  0
 17 20  2  0  0  0
 19 20  1  0  0  0
M  END
>  <CHROM.0>
62.59356619,-63.74283890,-54.35322686

>  <CHROM.1>
-19.66541914,102.20460332,-1.65576155,-39.17110989,-52.24507908,-5.92802794
16.56897997,-3.05276130,-0.23247154,-0.16188266

>  <Name>
10168

>  <PUBCHEM_ATOM_DEF_STEREO_COUNT>
0

>  <PUBCHEM_ATOM_UDEF_STEREO_COUNT>
0

>  <PUBCHEM_BOND_DEF_STEREO_COUNT>
0

>  <PUBCHEM_BOND_UDEF_STEREO_COUNT>
0

>  <PUBCHEM_CACTVS_TAUTO_COUNT>
24

>  <PUBCHEM_COMPONENT_COUNT>
1

>  <PUBCHEM_COMPOUND_CID>
10168

>  <PUBCHEM_CONFORMER_DIVERSEORDER>
1

>  <PUBCHEM_CONFORMER_ID>
000027B800000001

>  <PUBCHEM_CONFORMER_RMSD>
0.6

>  <PUBCHEM_COORDINATE_TYPE>
2
5
10

>  <PUBCHEM_EFFECTIVE_ROTOR_COUNT>
1

>  <PUBCHEM_FEATURE_SELFOVERLAP>
50.846

>  <PUBCHEM_HEAVY_ATOM_COUNT>
21

>  <PUBCHEM_ISOTOPIC_ATOM_COUNT>
0

>  <PUBCHEM_MMFF94_ENERGY>
68.6965

>  <PUBCHEM_MMFF94_PARTIAL_CHARGES>
29
1 -0.53
10 0.09
11 0.4
12 0.4
13 0.08
14 -0.15
15 0.08
16 0.09
17 -0.15
18 -0.15
19 -0.15
2 -0.57
20 -0.15
21 0.63
22 0.15
23 0.15
24 0.15
25 0.15
26 0.15
27 0.45
28 0.45
29 0.5
3 -0.57
4 -0.53
5 -0.65
6 -0.57
7 0.09
8 0.09
9 0.09

>  <PUBCHEM_PHARMACOPHORE_FEATURES>
10
1 1 donor
1 2 acceptor
1 3 acceptor
1 4 donor
1 5 acceptor
1 6 acceptor
3 5 6 21 anion
6 7 8 13 14 16 18 rings
6 7 8 9 10 11 12 rings
6 9 10 15 17 19 20 rings

>  <PUBCHEM_SHAPE_FINGERPRINT>
10411042 1 17474108078014113454
10493431 412 18269565953339895465
10498660 4 18410294674922913756
10616163 171 18410857672284589919
10967382 1 18338516322768651303
11112241 14 16053761070513734896
11132069 177 18409728443646081177
11578080 2 16880465970251001054
12011746 2 18411414016725795421
12236239 1 17822008735941251148
12390115 104 18200049372811105841
12403814 3 17603301544648884029
12788726 201 17130428969891162825
12839892 36 18337935806573543930
12954195 1 17914635873199923916
13132413 78 18412263956188401997
13140716 1 17978237380748065187
13214271 11 18413105065582804717
138480 1 17689997830145918786
13862211 1 18410849988456228526
14787075 74 18271241724201582520
14790565 3 18410863182654238816
15196674 1 18410573989646956454
15442244 35 17978509737119017459
15536298 74 18270120106524723222
16945 1 18338797943927191847
19591789 44 18339360880600163352
200 152 18060414720851970709
20510252 161 18343586217802211793
21029758 11 18343016726961894417
21267235 1 18410019848582002819
21421861 104 17898004620951251034
2334 1 18410855434849033379
23366157 5 17970072141091609650
23402539 116 18342168981657591294
23463225 33 18336828581004649021
23557571 272 18272379688914152982
23559900 14 18198340655049243982
2748010 2 18338801104986231055
335352 9 18266458707240121534
34934 24 18410288074001057415
350125 39 18338802342116335721
3545911 37 18410294679449859541
4214541 1 18410575071905095872
474 4 17748835132931610636
474229 33 18410572911836947014
5104073 3 18410011018223987362
58051976 378 18340767031444580180
59755656 215 18340493253766844862
7364860 26 18197216936859193670
9709674 26 18340492162006407318

>  <PUBCHEM_SHAPE_MULTIPOLES>
396.95
8.82
2.71
0.59
3.87
0.56
0
-1.97
0
-0.5
0
-0.03
-0.02
0

>  <PUBCHEM_SHAPE_SELFOVERLAP>
903.159

>  <PUBCHEM_SHAPE_VOLUME>
204.5

>  <RI>
-2.42855e+08

>  <Rbt.Current_Directory>
/root/miniconda3/envs/rdock/share/rxdock-2013.1.1_148c5bd1-0/data/ligands/prepped_ligands/Rhein

>  <Rbt.Executable>
rbdock/0.1.0

>  <Rbt.Library>
librxdock.so/0.1.0

>  <Rbt.Parameter_File>
/root/miniconda3/envs/rdock/share/rxdock-2013.1.1_148c5bd1-0/data/scripts/dock.prm

>  <Rbt.Receptor>
def.prm

>  <SCORE>
-14.9486

>  <SCORE.INTER>
-17.8631

>  <SCORE.INTER.CONST>
1

>  <SCORE.INTER.POLAR>
-2.16397

>  <SCORE.INTER.REPUL>
0

>  <SCORE.INTER.ROT>
1

>  <SCORE.INTER.VDW>
-16.9056

>  <SCORE.INTER.norm>
-0.850625

>  <SCORE.INTRA>
3.90726

>  <SCORE.INTRA.DIHEDRAL>
10.2482

>  <SCORE.INTRA.DIHEDRAL.0>
1.91521e-05

>  <SCORE.INTRA.POLAR>
0.0486641

>  <SCORE.INTRA.POLAR.0>
-0.0515654

>  <SCORE.INTRA.REPUL>
0

>  <SCORE.INTRA.REPUL.0>
0

>  <SCORE.INTRA.VDW>
-1.3823

>  <SCORE.INTRA.VDW.0>
1.17338

>  <SCORE.INTRA.norm>
0.18606

>  <SCORE.RESTR>
0.00392427

>  <SCORE.RESTR.CAVITY>
0.00392427

>  <SCORE.RESTR.norm>
0.00018687

>  <SCORE.SYSTEM>
-0.996653

>  <SCORE.SYSTEM.CONST>
0

>  <SCORE.SYSTEM.DIHEDRAL>
0.157331

>  <SCORE.SYSTEM.POLAR>
-0.012492

>  <SCORE.SYSTEM.VDW>
-1.03285

>  <SCORE.SYSTEM.norm>
-0.0474597

>  <SCORE.heavy>
21

>  <SCORE.norm>
-0.711837

$$$$
10168
  RxDock  02242101343D
librxdock.so/0.1.0
 24 26  0  0  0  0  0  0  0  0999 V2000
  -53.0074   -9.0040   17.0607 O   0  0  0  0  0  0
  -50.6781   -7.9953   17.4051 O   0  0  0  0  0  0
  -52.3457   -3.1587   15.8607 O   0  0  0  0  0  0
  -48.2953   -7.1418   17.8028 O   0  0  0  0  0  0
  -57.0348   -4.9340   15.9977 O   0  0  0  0  0  0
  -57.1786   -6.8636   14.8050 O   0  0  0  0  0  0
  -52.4658   -6.6719   16.6513 C   0  0  0  0  0  0
  -52.9016   -5.4081   16.2477 C   0  0  0  0  0  0
  -50.1231   -5.7458   17.0210 C   0  0  0  0  0  0
  -50.5590   -4.4820   16.6172 C   0  0  0  0  0  0
  -51.0606   -6.8871   17.0526 C   0  0  0  0  0  0
  -51.9642   -4.2671   16.2158 C   0  0  0  0  0  0
  -53.3645   -7.7451   16.6771 C   0  0  0  0  0  0
  -54.2362   -5.2175   15.8697 C   0  0  0  0  0  0
  -48.7885   -5.9363   17.3989 C   0  0  0  0  0  0
  -55.1285   -6.2898   15.8969 C   0  0  0  0  0  0
  -49.6604   -3.4088   16.5915 C   0  0  0  0  0  0
  -54.6937   -7.5509   16.2998 C   0  0  0  0  0  0
  -47.8965   -4.8640   17.3721 C   0  0  0  0  0  0
  -48.3314   -3.6029   16.9691 C   0  0  0  0  0  0
  -56.5150   -6.0913   15.5045 C   0  0  0  0  0  0
  -52.1408   -8.9811   17.5009 H   0  0  0  0  0  0
  -47.3334   -7.1017   17.9103 H   0  0  0  0  0  0
  -57.9631   -4.7993   15.7108 H   0  0  0  0  0  0
  1 13  1  0  0  0
  1 22  1  0  0  0
  2 11  2  0  0  0
  3 12  2  0  0  0
  4 15  1  0  0  0
  4 23  1  0  0  0
  5 21  1  0  0  0
  5 24  1  0  0  0
  6 21  2  0  0  0
  7  8  2  0  0  0
  7 11  1  0  0  0
  7 13  1  0  0  0
  8 12  1  0  0  0
  8 14  1  0  0  0
  9 10  2  0  0  0
  9 11  1  0  0  0
  9 15  1  0  0  0
 10 12  1  0  0  0
 10 17  1  0  0  0
 13 18  2  0  0  0
 14 16  2  0  0  0
 15 19  2  0  0  0
 16 18  1  0  0  0
 16 21  1  0  0  0
 17 20  2  0  0  0
 19 20  1  0  0  0
M  END
>  <CHROM.0>
-179.03625171,61.75226359,-58.59139870

>  <CHROM.1>
13.68064729,172.57774874,-1.36359565,-42.20161563,-52.25720530,-5.91915934
16.54146850,-3.05483013,-0.23184149,-0.19828326

>  <Name>
10168

>  <PUBCHEM_ATOM_DEF_STEREO_COUNT>
0

>  <PUBCHEM_ATOM_UDEF_STEREO_COUNT>
0

>  <PUBCHEM_BOND_DEF_STEREO_COUNT>
0

>  <PUBCHEM_BOND_UDEF_STEREO_COUNT>
0

>  <PUBCHEM_CACTVS_TAUTO_COUNT>
24

>  <PUBCHEM_COMPONENT_COUNT>
1

>  <PUBCHEM_COMPOUND_CID>
10168

>  <PUBCHEM_CONFORMER_DIVERSEORDER>
1

>  <PUBCHEM_CONFORMER_ID>
000027B800000001

>  <PUBCHEM_CONFORMER_RMSD>
0.6

>  <PUBCHEM_COORDINATE_TYPE>
2
5
10

>  <PUBCHEM_EFFECTIVE_ROTOR_COUNT>
1

>  <PUBCHEM_FEATURE_SELFOVERLAP>
50.846

>  <PUBCHEM_HEAVY_ATOM_COUNT>
21

>  <PUBCHEM_ISOTOPIC_ATOM_COUNT>
0

>  <PUBCHEM_MMFF94_ENERGY>
68.6965

>  <PUBCHEM_MMFF94_PARTIAL_CHARGES>
29
1 -0.53
10 0.09
11 0.4
12 0.4
13 0.08
14 -0.15
15 0.08
16 0.09
17 -0.15
18 -0.15
19 -0.15
2 -0.57
20 -0.15
21 0.63
22 0.15
23 0.15
24 0.15
25 0.15
26 0.15
27 0.45
28 0.45
29 0.5
3 -0.57
4 -0.53
5 -0.65
6 -0.57
7 0.09
8 0.09
9 0.09

>  <PUBCHEM_PHARMACOPHORE_FEATURES>
10
1 1 donor
1 2 acceptor
1 3 acceptor
1 4 donor
1 5 acceptor
1 6 acceptor
3 5 6 21 anion
6 7 8 13 14 16 18 rings
6 7 8 9 10 11 12 rings
6 9 10 15 17 19 20 rings

>  <PUBCHEM_SHAPE_FINGERPRINT>
10411042 1 17474108078014113454
10493431 412 18269565953339895465
10498660 4 18410294674922913756
10616163 171 18410857672284589919
10967382 1 18338516322768651303
11112241 14 16053761070513734896
11132069 177 18409728443646081177
11578080 2 16880465970251001054
12011746 2 18411414016725795421
12236239 1 17822008735941251148
12390115 104 18200049372811105841
12403814 3 17603301544648884029
12788726 201 17130428969891162825
12839892 36 18337935806573543930
12954195 1 17914635873199923916
13132413 78 18412263956188401997
13140716 1 17978237380748065187
13214271 11 18413105065582804717
138480 1 17689997830145918786
13862211 1 18410849988456228526
14787075 74 18271241724201582520
14790565 3 18410863182654238816
15196674 1 18410573989646956454
15442244 35 17978509737119017459
15536298 74 18270120106524723222
16945 1 18338797943927191847
19591789 44 18339360880600163352
200 152 18060414720851970709
20510252 161 18343586217802211793
21029758 11 18343016726961894417
21267235 1 18410019848582002819
21421861 104 17898004620951251034
2334 1 18410855434849033379
23366157 5 17970072141091609650
23402539 116 18342168981657591294
23463225 33 18336828581004649021
23557571 272 18272379688914152982
23559900 14 18198340655049243982
2748010 2 18338801104986231055
335352 9 18266458707240121534
34934 24 18410288074001057415
350125 39 18338802342116335721
3545911 37 18410294679449859541
4214541 1 18410575071905095872
474 4 17748835132931610636
474229 33 18410572911836947014
5104073 3 18410011018223987362
58051976 378 18340767031444580180
59755656 215 18340493253766844862
7364860 26 18197216936859193670
9709674 26 18340492162006407318

>  <PUBCHEM_SHAPE_MULTIPOLES>
396.95
8.82
2.71
0.59
3.87
0.56
0
-1.97
0
-0.5
0
-0.03
-0.02
0

>  <PUBCHEM_SHAPE_SELFOVERLAP>
903.159

>  <PUBCHEM_SHAPE_VOLUME>
204.5

>  <RI>
-2.42855e+08

>  <Rbt.Current_Directory>
/root/miniconda3/envs/rdock/share/rxdock-2013.1.1_148c5bd1-0/data/ligands/prepped_ligands/Rhein

>  <Rbt.Executable>
rbdock/0.1.0

>  <Rbt.Library>
librxdock.so/0.1.0

>  <Rbt.Parameter_File>
/root/miniconda3/envs/rdock/share/rxdock-2013.1.1_148c5bd1-0/data/scripts/dock.prm

>  <Rbt.Receptor>
def.prm

>  <SCORE>
-16.4519

>  <SCORE.INTER>
-17.9186

>  <SCORE.INTER.CONST>
1

>  <SCORE.INTER.POLAR>
-2.18887

>  <SCORE.INTER.REPUL>
0.000772539

>  <SCORE.INTER.ROT>
1

>  <SCORE.INTER.VDW>
-16.8804

>  <SCORE.INTER.norm>
-0.853268

>  <SCORE.INTRA>
2.47264

>  <SCORE.INTRA.DIHEDRAL>
6.13217

>  <SCORE.INTRA.DIHEDRAL.0>
1.91521e-05

>  <SCORE.INTRA.POLAR>
0.0359524

>  <SCORE.INTRA.POLAR.0>
-0.0515654

>  <SCORE.INTRA.REPUL>
0

>  <SCORE.INTRA.REPUL.0>
0

>  <SCORE.INTRA.VDW>
-0.715681

>  <SCORE.INTRA.VDW.0>
1.17338

>  <SCORE.INTRA.norm>
0.117745

>  <SCORE.RESTR>
7.38703e-06

>  <SCORE.RESTR.CAVITY>
7.38703e-06

>  <SCORE.RESTR.norm>
3.51763e-07

>  <SCORE.SYSTEM>
-1.0059

>  <SCORE.SYSTEM.CONST>
0

>  <SCORE.SYSTEM.DIHEDRAL>
0.0206668

>  <SCORE.SYSTEM.POLAR>
-0.00425428

>  <SCORE.SYSTEM.VDW>
-1.00177

>  <SCORE.SYSTEM.norm>
-0.0479

>  <SCORE.heavy>
21

>  <SCORE.norm>
-0.783423

$$$$
10168
  RxDock  02242101343D
librxdock.so/0.1.0
 24 26  0  0  0  0  0  0  0  0999 V2000
  -46.8915   -3.1931   15.2493 O   0  0  0  0  0  0
  -48.0938   -5.1859   16.3195 O   0  0  0  0  0  0
  -52.8933   -3.1801   15.0942 O   0  0  0  0  0  0
  -49.1414   -7.2455   17.4263 O   0  0  0  0  0  0
  -50.8840    0.6564   13.0727 O   0  0  0  0  0  0
  -48.6379    0.9511   12.8872 O   0  0  0  0  0  0
  -49.3069   -3.4382   15.3248 C   0  0  0  0  0  0
  -50.5609   -2.9139   15.0046 C   0  0  0  0  0  0
  -50.4255   -5.4533   16.4065 C   0  0  0  0  0  0
  -51.6796   -4.9289   16.0864 C   0  0  0  0  0  0
  -49.1932   -4.7270   16.0375 C   0  0  0  0  0  0
  -51.7931   -3.6401   15.3737 C   0  0  0  0  0  0
  -48.1466   -2.7399   14.9691 C   0  0  0  0  0  0
  -50.6548   -1.6913   14.3288 C   0  0  0  0  0  0
  -50.3317   -6.6759   17.0823 C   0  0  0  0  0  0
  -49.4960   -0.9988   13.9762 C   0  0  0  0  0  0
  -52.8398   -5.6271   16.4419 C   0  0  0  0  0  0
  -48.2446   -1.5218   14.2956 C   0  0  0  0  0  0
  -51.4904   -7.3685   17.4345 C   0  0  0  0  0  0
  -52.7418   -6.8452   17.1150 C   0  0  0  0  0  0
  -49.5940    0.2713   13.2739 C   0  0  0  0  0  0
  -46.8120   -4.1263   14.9883 H   0  0  0  0  0  0
  -48.4065   -6.8104   16.9691 H   0  0  0  0  0  0
  -50.9419    1.4611   12.5145 H   0  0  0  0  0  0
  1 13  1  0  0  0
  1 22  1  0  0  0
  2 11  2  0  0  0
  3 12  2  0  0  0
  4 15  1  0  0  0
  4 23  1  0  0  0
  5 21  1  0  0  0
  5 24  1  0  0  0
  6 21  2  0  0  0
  7  8  2  0  0  0
  7 11  1  0  0  0
  7 13  1  0  0  0
  8 12  1  0  0  0
  8 14  1  0  0  0
  9 10  2  0  0  0
  9 11  1  0  0  0
  9 15  1  0  0  0
 10 12  1  0  0  0
 10 17  1  0  0  0
 13 18  2  0  0  0
 14 16  2  0  0  0
 15 19  2  0  0  0
 16 18  1  0  0  0
 16 21  1  0  0  0
 17 20  2  0  0  0
 19 20  1  0  0  0
M  END
>  <CHROM.0>
-63.09894162,63.99210209,-56.64066405

>  <CHROM.1>
48.04126240,-13.20593879,6.18140351,1.73386758,-50.08752780,-3.54701995,15.36170295
-1.36217685,0.01690528,2.63919567

>  <Name>
10168

>  <PUBCHEM_ATOM_DEF_STEREO_COUNT>
0

>  <PUBCHEM_ATOM_UDEF_STEREO_COUNT>
0

>  <PUBCHEM_BOND_DEF_STEREO_COUNT>
0

>  <PUBCHEM_BOND_UDEF_STEREO_COUNT>
0

>  <PUBCHEM_CACTVS_TAUTO_COUNT>
24

>  <PUBCHEM_COMPONENT_COUNT>
1

>  <PUBCHEM_COMPOUND_CID>
10168

>  <PUBCHEM_CONFORMER_DIVERSEORDER>
1

>  <PUBCHEM_CONFORMER_ID>
000027B800000001

>  <PUBCHEM_CONFORMER_RMSD>
0.6

>  <PUBCHEM_COORDINATE_TYPE>
2
5
10

>  <PUBCHEM_EFFECTIVE_ROTOR_COUNT>
1

>  <PUBCHEM_FEATURE_SELFOVERLAP>
50.846

>  <PUBCHEM_HEAVY_ATOM_COUNT>
21

>  <PUBCHEM_ISOTOPIC_ATOM_COUNT>
0

>  <PUBCHEM_MMFF94_ENERGY>
68.6965

>  <PUBCHEM_MMFF94_PARTIAL_CHARGES>
29
1 -0.53
10 0.09
11 0.4
12 0.4
13 0.08
14 -0.15
15 0.08
16 0.09
17 -0.15
18 -0.15
19 -0.15
2 -0.57
20 -0.15
21 0.63
22 0.15
23 0.15
24 0.15
25 0.15
26 0.15
27 0.45
28 0.45
29 0.5
3 -0.57
4 -0.53
5 -0.65
6 -0.57
7 0.09
8 0.09
9 0.09

>  <PUBCHEM_PHARMACOPHORE_FEATURES>
10
1 1 donor
1 2 acceptor
1 3 acceptor
1 4 donor
1 5 acceptor
1 6 acceptor
3 5 6 21 anion
6 7 8 13 14 16 18 rings
6 7 8 9 10 11 12 rings
6 9 10 15 17 19 20 rings

>  <PUBCHEM_SHAPE_FINGERPRINT>
10411042 1 17474108078014113454
10493431 412 18269565953339895465
10498660 4 18410294674922913756
10616163 171 18410857672284589919
10967382 1 18338516322768651303
11112241 14 16053761070513734896
11132069 177 18409728443646081177
11578080 2 16880465970251001054
12011746 2 18411414016725795421
12236239 1 17822008735941251148
12390115 104 18200049372811105841
12403814 3 17603301544648884029
12788726 201 17130428969891162825
12839892 36 18337935806573543930
12954195 1 17914635873199923916
13132413 78 18412263956188401997
13140716 1 17978237380748065187
13214271 11 18413105065582804717
138480 1 17689997830145918786
13862211 1 18410849988456228526
14787075 74 18271241724201582520
14790565 3 18410863182654238816
15196674 1 18410573989646956454
15442244 35 17978509737119017459
15536298 74 18270120106524723222
16945 1 18338797943927191847
19591789 44 18339360880600163352
200 152 18060414720851970709
20510252 161 18343586217802211793
21029758 11 18343016726961894417
21267235 1 18410019848582002819
21421861 104 17898004620951251034
2334 1 18410855434849033379
23366157 5 17970072141091609650
23402539 116 18342168981657591294
23463225 33 18336828581004649021
23557571 272 18272379688914152982
23559900 14 18198340655049243982
2748010 2 18338801104986231055
335352 9 18266458707240121534
34934 24 18410288074001057415
350125 39 18338802342116335721
3545911 37 18410294679449859541
4214541 1 18410575071905095872
474 4 17748835132931610636
474229 33 18410572911836947014
5104073 3 18410011018223987362
58051976 378 18340767031444580180
59755656 215 18340493253766844862
7364860 26 18197216936859193670
9709674 26 18340492162006407318

>  <PUBCHEM_SHAPE_MULTIPOLES>
396.95
8.82
2.71
0.59
3.87
0.56
0
-1.97
0
-0.5
0
-0.03
-0.02
0

>  <PUBCHEM_SHAPE_SELFOVERLAP>
903.159

>  <PUBCHEM_SHAPE_VOLUME>
204.5

>  <RI>
-2.42855e+08

>  <Rbt.Current_Directory>
/root/miniconda3/envs/rdock/share/rxdock-2013.1.1_148c5bd1-0/data/ligands/prepped_ligands/Rhein

>  <Rbt.Executable>
rbdock/0.1.0

>  <Rbt.Library>
librxdock.so/0.1.0

>  <Rbt.Parameter_File>
/root/miniconda3/envs/rdock/share/rxdock-2013.1.1_148c5bd1-0/data/scripts/dock.prm

>  <Rbt.Receptor>
def.prm

>  <SCORE>
-12.7034

>  <SCORE.INTER>
-12.569

>  <SCORE.INTER.CONST>
1

>  <SCORE.INTER.POLAR>
-1.11744

>  <SCORE.INTER.REPUL>
0.055498

>  <SCORE.INTER.ROT>
1

>  <SCORE.INTER.VDW>
-15.4472

>  <SCORE.INTER.norm>
-0.598522

>  <SCORE.INTRA>
0.848847

>  <SCORE.INTRA.DIHEDRAL>
3.18975

>  <SCORE.INTRA.DIHEDRAL.0>
1.91521e-05

>  <SCORE.INTRA.POLAR>
0.0180134

>  <SCORE.INTRA.POLAR.0>
-0.0515654

>  <SCORE.INTRA.REPUL>
0

>  <SCORE.INTRA.REPUL.0>
0

>  <SCORE.INTRA.VDW>
-0.807275

>  <SCORE.INTRA.VDW.0>
1.17338

>  <SCORE.INTRA.norm>
0.0404213

>  <SCORE.RESTR>
0

>  <SCORE.RESTR.CAVITY>
0

>  <SCORE.RESTR.norm>
0

>  <SCORE.SYSTEM>
-0.983256

>  <SCORE.SYSTEM.CONST>
0

>  <SCORE.SYSTEM.DIHEDRAL>
0.129529

>  <SCORE.SYSTEM.POLAR>
-0.00845018

>  <SCORE.SYSTEM.VDW>
-1.01929

>  <SCORE.SYSTEM.norm>
-0.0468217

>  <SCORE.heavy>
21

>  <SCORE.norm>
-0.604923

$$$$
