10168
  RxDock  02242113113D
librxdock.so/0.1.0
 24 26  0  0  0  0  0  0  0  0999 V2000
  -46.6664   -1.9920   14.8439 O   0  0  0  0  0  0
  -47.6639   -4.1020   15.8996 O   0  0  0  0  0  0
  -52.6424   -2.5564   14.7226 O   0  0  0  0  0  0
  -48.5007   -6.2642   16.9903 O   0  0  0  0  0  0
  -51.0259    1.5133   12.7990 O   0  0  0  0  0  0
  -48.8197    1.9582   12.4812 O   0  0  0  0  0  0
  -49.0463   -2.4696   14.9303 C   0  0  0  0  0  0
  -50.3471   -2.0656   14.6227 C   0  0  0  0  0  0
  -49.9583   -4.5940   15.9968 C   0  0  0  0  0  0
  -51.2592   -4.1899   15.6893 C   0  0  0  0  0  0
  -48.8043   -3.7486   15.6286 C   0  0  0  0  0  0
  -51.5011   -2.9109   14.9910 C   0  0  0  0  0  0
  -47.9612   -1.6591   14.5755 C   0  0  0  0  0  0
  -50.5629   -0.8510   13.9605 C   0  0  0  0  0  0
  -49.7426   -5.8086   16.6590 C   0  0  0  0  0  0
  -49.4787   -0.0464   13.6088 C   0  0  0  0  0  0
  -52.3444   -5.0003   16.0439 C   0  0  0  0  0  0
  -48.1807   -0.4495   13.9156 C   0  0  0  0  0  0
  -50.8268   -6.6133   17.0103 C   0  0  0  0  0  0
  -52.1249   -6.2100   16.7034 C   0  0  0  0  0  0
  -49.7033    1.2152   12.9206 C   0  0  0  0  0  0
  -46.1104   -1.8051   14.0685 H   0  0  0  0  0  0
  -47.8213   -5.6162   16.7518 H   0  0  0  0  0  0
  -51.1740    2.2818   12.2075 H   0  0  0  0  0  0
  1 13  1  0  0  0
  1 22  1  0  0  0
  2 11  2  0  0  0
  3 12  2  0  0  0
  4 15  1  0  0  0
  4 23  1  0  0  0
  5 21  1  0  0  0
  5 24  1  0  0  0
  6 21  2  0  0  0
  7  8  2  0  0  0
  7 11  1  0  0  0
  7 13  1  0  0  0
  8 12  1  0  0  0
  8 14  1  0  0  0
  9 10  2  0  0  0
  9 11  1  0  0  0
  9 15  1  0  0  0
 10 12  1  0  0  0
 10 17  1  0  0  0
 13 18  2  0  0  0
 14 16  2  0  0  0
 15 19  2  0  0  0
 16 18  1  0  0  0
 16 21  1  0  0  0
 17 20  2  0  0  0
 19 20  1  0  0  0
M  END
>  <CHROM.0>
-60.50331353,-179.06358173,-174.32609921

>  <CHROM.1>
136.45374372,3.24218292,9.48998127,5.27260474,-49.81130143,-2.64880962,14.97028290
-1.44751991,0.05488301,2.65269734

>  <Name>
10168

>  <PUBCHEM_ATOM_DEF_STEREO_COUNT>
0

>  <PUBCHEM_ATOM_UDEF_STEREO_COUNT>
0

>  <PUBCHEM_BOND_DEF_STEREO_COUNT>
0

>  <PUBCHEM_BOND_UDEF_STEREO_COUNT>
0

>  <PUBCHEM_CACTVS_TAUTO_COUNT>
24

>  <PUBCHEM_COMPONENT_COUNT>
1

>  <PUBCHEM_COMPOUND_CID>
10168

>  <PUBCHEM_CONFORMER_DIVERSEORDER>
1

>  <PUBCHEM_CONFORMER_ID>
000027B800000001

>  <PUBCHEM_CONFORMER_RMSD>
0.6

>  <PUBCHEM_COORDINATE_TYPE>
2
5
10

>  <PUBCHEM_EFFECTIVE_ROTOR_COUNT>
1

>  <PUBCHEM_FEATURE_SELFOVERLAP>
50.846

>  <PUBCHEM_HEAVY_ATOM_COUNT>
21

>  <PUBCHEM_ISOTOPIC_ATOM_COUNT>
0

>  <PUBCHEM_MMFF94_ENERGY>
68.6965

>  <PUBCHEM_MMFF94_PARTIAL_CHARGES>
29
1 -0.53
10 0.09
11 0.4
12 0.4
13 0.08
14 -0.15
15 0.08
16 0.09
17 -0.15
18 -0.15
19 -0.15
2 -0.57
20 -0.15
21 0.63
22 0.15
23 0.15
24 0.15
25 0.15
26 0.15
27 0.45
28 0.45
29 0.5
3 -0.57
4 -0.53
5 -0.65
6 -0.57
7 0.09
8 0.09
9 0.09

>  <PUBCHEM_PHARMACOPHORE_FEATURES>
10
1 1 donor
1 2 acceptor
1 3 acceptor
1 4 donor
1 5 acceptor
1 6 acceptor
3 5 6 21 anion
6 7 8 13 14 16 18 rings
6 7 8 9 10 11 12 rings
6 9 10 15 17 19 20 rings

>  <PUBCHEM_SHAPE_FINGERPRINT>
10411042 1 17474108078014113454
10493431 412 18269565953339895465
10498660 4 18410294674922913756
10616163 171 18410857672284589919
10967382 1 18338516322768651303
11112241 14 16053761070513734896
11132069 177 18409728443646081177
11578080 2 16880465970251001054
12011746 2 18411414016725795421
12236239 1 17822008735941251148
12390115 104 18200049372811105841
12403814 3 17603301544648884029
12788726 201 17130428969891162825
12839892 36 18337935806573543930
12954195 1 17914635873199923916
13132413 78 18412263956188401997
13140716 1 17978237380748065187
13214271 11 18413105065582804717
138480 1 17689997830145918786
13862211 1 18410849988456228526
14787075 74 18271241724201582520
14790565 3 18410863182654238816
15196674 1 18410573989646956454
15442244 35 17978509737119017459
15536298 74 18270120106524723222
16945 1 18338797943927191847
19591789 44 18339360880600163352
200 152 18060414720851970709
20510252 161 18343586217802211793
21029758 11 18343016726961894417
21267235 1 18410019848582002819
21421861 104 17898004620951251034
2334 1 18410855434849033379
23366157 5 17970072141091609650
23402539 116 18342168981657591294
23463225 33 18336828581004649021
23557571 272 18272379688914152982
23559900 14 18198340655049243982
2748010 2 18338801104986231055
335352 9 18266458707240121534
34934 24 18410288074001057415
350125 39 18338802342116335721
3545911 37 18410294679449859541
4214541 1 18410575071905095872
474 4 17748835132931610636
474229 33 18410572911836947014
5104073 3 18410011018223987362
58051976 378 18340767031444580180
59755656 215 18340493253766844862
7364860 26 18197216936859193670
9709674 26 18340492162006407318

>  <PUBCHEM_SHAPE_MULTIPOLES>
396.95
8.82
2.71
0.59
3.87
0.56
0
-1.97
0
-0.5
0
-0.03
-0.02
0

>  <PUBCHEM_SHAPE_SELFOVERLAP>
903.159

>  <PUBCHEM_SHAPE_VOLUME>
204.5

>  <RI>
-5.14288e+08

>  <Rbt.Current_Directory>
/root/miniconda3/envs/rdock/share/rxdock-2013.1.1_148c5bd1-0/data/ligands/prepped_ligands/Rhein

>  <Rbt.Executable>
rbdock/0.1.0

>  <Rbt.Library>
librxdock.so/0.1.0

>  <Rbt.Parameter_File>
/root/miniconda3/envs/rdock/share/rxdock-2013.1.1_148c5bd1-0/data/scripts/dock.prm

>  <Rbt.Receptor>
def.prm

>  <SCORE>
-12.8513

>  <SCORE.INTER>
-12.8438

>  <SCORE.INTER.CONST>
1

>  <SCORE.INTER.POLAR>
-1.17986

>  <SCORE.INTER.REPUL>
0.106744

>  <SCORE.INTER.ROT>
1

>  <SCORE.INTER.VDW>
-15.766

>  <SCORE.INTER.norm>
-0.61161

>  <SCORE.INTRA>
1.05032

>  <SCORE.INTRA.DIHEDRAL>
3.03592

>  <SCORE.INTRA.DIHEDRAL.0>
1.91521e-05

>  <SCORE.INTRA.POLAR>
0.00108488

>  <SCORE.INTRA.POLAR.0>
-0.0515654

>  <SCORE.INTRA.REPUL>
0

>  <SCORE.INTRA.REPUL.0>
0

>  <SCORE.INTRA.VDW>
-0.471331

>  <SCORE.INTRA.VDW.0>
1.17338

>  <SCORE.INTRA.norm>
0.0500152

>  <SCORE.RESTR>
0

>  <SCORE.RESTR.CAVITY>
0

>  <SCORE.RESTR.norm>
0

>  <SCORE.SYSTEM>
-1.05786

>  <SCORE.SYSTEM.CONST>
0

>  <SCORE.SYSTEM.DIHEDRAL>
0.0798105

>  <SCORE.SYSTEM.POLAR>
-0.01323

>  <SCORE.SYSTEM.VDW>
-1.05278

>  <SCORE.SYSTEM.norm>
-0.0503742

>  <SCORE.heavy>
21

>  <SCORE.norm>
-0.611969

$$$$
10168
  RxDock  02242113123D
librxdock.so/0.1.0
 24 26  0  0  0  0  0  0  0  0999 V2000
  -46.8395   -1.6417   14.4447 O   0  0  0  0  0  0
  -47.6671   -3.6926   15.7371 O   0  0  0  0  0  0
  -52.7694   -2.5645   14.6179 O   0  0  0  0  0  0
  -48.3299   -5.7825   17.0630 O   0  0  0  0  0  0
  -49.2533    1.3761   11.3273 O   0  0  0  0  0  0
  -51.0924    1.9322   12.5417 O   0  0  0  0  0  0
  -49.1807   -2.2471   14.6719 C   0  0  0  0  0  0
  -50.5139   -1.9522   14.3794 C   0  0  0  0  0  0
  -49.9218   -4.3063   15.9731 C   0  0  0  0  0  0
  -51.2550   -4.0112   15.6806 C   0  0  0  0  0  0
  -48.8358   -3.4349   15.4795 C   0  0  0  0  0  0
  -51.5998   -2.8234   14.8731 C   0  0  0  0  0  0
  -48.1609   -1.4132   14.1978 C   0  0  0  0  0  0
  -50.8274   -0.8233   13.6129 C   0  0  0  0  0  0
  -49.6084   -5.4352   16.7396 C   0  0  0  0  0  0
  -49.8080    0.0050   13.1425 C   0  0  0  0  0  0
  -52.2749   -4.8451   16.1546 C   0  0  0  0  0  0
  -48.4776   -0.2892   13.4341 C   0  0  0  0  0  0
  -50.6277   -6.2637   17.2097 C   0  0  0  0  0  0
  -51.9582   -5.9692   16.9179 C   0  0  0  0  0  0
  -50.1341    1.1776   12.3459 C   0  0  0  0  0  0
  -46.3104   -1.3874   13.6696 H   0  0  0  0  0  0
  -47.7124   -5.0707   16.8383 H   0  0  0  0  0  0
  -49.5971    2.0146   10.6666 H   0  0  0  0  0  0
  1 13  1  0  0  0
  1 22  1  0  0  0
  2 11  2  0  0  0
  3 12  2  0  0  0
  4 15  1  0  0  0
  4 23  1  0  0  0
  5 21  1  0  0  0
  5 24  1  0  0  0
  6 21  2  0  0  0
  7  8  2  0  0  0
  7 11  1  0  0  0
  7 13  1  0  0  0
  8 12  1  0  0  0
  8 14  1  0  0  0
  9 10  2  0  0  0
  9 11  1  0  0  0
  9 15  1  0  0  0
 10 12  1  0  0  0
 10 17  1  0  0  0
 13 18  2  0  0  0
 14 16  2  0  0  0
 15 19  2  0  0  0
 16 18  1  0  0  0
 16 21  1  0  0  0
 17 20  2  0  0  0
 19 20  1  0  0  0
M  END
>  <CHROM.0>
-59.29800869,-175.85836706,-61.41134823

>  <CHROM.1>
143.88883279,10.51683862,-14.70630358,-140.84492281,-49.89880396,-2.46571434
14.74650665,-1.49886322,0.03347963,2.55173280

>  <Name>
10168

>  <PUBCHEM_ATOM_DEF_STEREO_COUNT>
0

>  <PUBCHEM_ATOM_UDEF_STEREO_COUNT>
0

>  <PUBCHEM_BOND_DEF_STEREO_COUNT>
0

>  <PUBCHEM_BOND_UDEF_STEREO_COUNT>
0

>  <PUBCHEM_CACTVS_TAUTO_COUNT>
24

>  <PUBCHEM_COMPONENT_COUNT>
1

>  <PUBCHEM_COMPOUND_CID>
10168

>  <PUBCHEM_CONFORMER_DIVERSEORDER>
1

>  <PUBCHEM_CONFORMER_ID>
000027B800000001

>  <PUBCHEM_CONFORMER_RMSD>
0.6

>  <PUBCHEM_COORDINATE_TYPE>
2
5
10

>  <PUBCHEM_EFFECTIVE_ROTOR_COUNT>
1

>  <PUBCHEM_FEATURE_SELFOVERLAP>
50.846

>  <PUBCHEM_HEAVY_ATOM_COUNT>
21

>  <PUBCHEM_ISOTOPIC_ATOM_COUNT>
0

>  <PUBCHEM_MMFF94_ENERGY>
68.6965

>  <PUBCHEM_MMFF94_PARTIAL_CHARGES>
29
1 -0.53
10 0.09
11 0.4
12 0.4
13 0.08
14 -0.15
15 0.08
16 0.09
17 -0.15
18 -0.15
19 -0.15
2 -0.57
20 -0.15
21 0.63
22 0.15
23 0.15
24 0.15
25 0.15
26 0.15
27 0.45
28 0.45
29 0.5
3 -0.57
4 -0.53
5 -0.65
6 -0.57
7 0.09
8 0.09
9 0.09

>  <PUBCHEM_PHARMACOPHORE_FEATURES>
10
1 1 donor
1 2 acceptor
1 3 acceptor
1 4 donor
1 5 acceptor
1 6 acceptor
3 5 6 21 anion
6 7 8 13 14 16 18 rings
6 7 8 9 10 11 12 rings
6 9 10 15 17 19 20 rings

>  <PUBCHEM_SHAPE_FINGERPRINT>
10411042 1 17474108078014113454
10493431 412 18269565953339895465
10498660 4 18410294674922913756
10616163 171 18410857672284589919
10967382 1 18338516322768651303
11112241 14 16053761070513734896
11132069 177 18409728443646081177
11578080 2 16880465970251001054
12011746 2 18411414016725795421
12236239 1 17822008735941251148
12390115 104 18200049372811105841
12403814 3 17603301544648884029
12788726 201 17130428969891162825
12839892 36 18337935806573543930
12954195 1 17914635873199923916
13132413 78 18412263956188401997
13140716 1 17978237380748065187
13214271 11 18413105065582804717
138480 1 17689997830145918786
13862211 1 18410849988456228526
14787075 74 18271241724201582520
14790565 3 18410863182654238816
15196674 1 18410573989646956454
15442244 35 17978509737119017459
15536298 74 18270120106524723222
16945 1 18338797943927191847
19591789 44 18339360880600163352
200 152 18060414720851970709
20510252 161 18343586217802211793
21029758 11 18343016726961894417
21267235 1 18410019848582002819
21421861 104 17898004620951251034
2334 1 18410855434849033379
23366157 5 17970072141091609650
23402539 116 18342168981657591294
23463225 33 18336828581004649021
23557571 272 18272379688914152982
23559900 14 18198340655049243982
2748010 2 18338801104986231055
335352 9 18266458707240121534
34934 24 18410288074001057415
350125 39 18338802342116335721
3545911 37 18410294679449859541
4214541 1 18410575071905095872
474 4 17748835132931610636
474229 33 18410572911836947014
5104073 3 18410011018223987362
58051976 378 18340767031444580180
59755656 215 18340493253766844862
7364860 26 18197216936859193670
9709674 26 18340492162006407318

>  <PUBCHEM_SHAPE_MULTIPOLES>
396.95
8.82
2.71
0.59
3.87
0.56
0
-1.97
0
-0.5
0
-0.03
-0.02
0

>  <PUBCHEM_SHAPE_SELFOVERLAP>
903.159

>  <PUBCHEM_SHAPE_VOLUME>
204.5

>  <RI>
-5.14288e+08

>  <Rbt.Current_Directory>
/root/miniconda3/envs/rdock/share/rxdock-2013.1.1_148c5bd1-0/data/ligands/prepped_ligands/Rhein

>  <Rbt.Executable>
rbdock/0.1.0

>  <Rbt.Library>
librxdock.so/0.1.0

>  <Rbt.Parameter_File>
/root/miniconda3/envs/rdock/share/rxdock-2013.1.1_148c5bd1-0/data/scripts/dock.prm

>  <Rbt.Receptor>
def.prm

>  <SCORE>
-14.0859

>  <SCORE.INTER>
-16.335

>  <SCORE.INTER.CONST>
1

>  <SCORE.INTER.POLAR>
-1.86017

>  <SCORE.INTER.REPUL>
0.0145139

>  <SCORE.INTER.ROT>
1

>  <SCORE.INTER.VDW>
-16.483

>  <SCORE.INTER.norm>
-0.777859

>  <SCORE.INTRA>
3.29866

>  <SCORE.INTRA.DIHEDRAL>
8.42367

>  <SCORE.INTRA.DIHEDRAL.0>
1.91521e-05

>  <SCORE.INTRA.POLAR>
0.0113802

>  <SCORE.INTRA.POLAR.0>
-0.0515654

>  <SCORE.INTRA.REPUL>
0

>  <SCORE.INTRA.REPUL.0>
0

>  <SCORE.INTRA.VDW>
-0.951874

>  <SCORE.INTRA.VDW.0>
1.17338

>  <SCORE.INTRA.norm>
0.157079

>  <SCORE.RESTR>
0

>  <SCORE.RESTR.CAVITY>
0

>  <SCORE.RESTR.norm>
0

>  <SCORE.SYSTEM>
-1.04952

>  <SCORE.SYSTEM.CONST>
0

>  <SCORE.SYSTEM.DIHEDRAL>
0.0912764

>  <SCORE.SYSTEM.VDW>
-1.09515

>  <SCORE.SYSTEM.norm>
-0.0499769

>  <SCORE.heavy>
21

>  <SCORE.norm>
-0.670757

$$$$
10168
  RxDock  02242113123D
librxdock.so/0.1.0
 24 26  0  0  0  0  0  0  0  0999 V2000
  -52.1493   -3.1991   15.2335 O   0  0  0  0  0  0
  -49.9525   -4.1463   16.1492 O   0  0  0  0  0  0
  -52.3200   -8.7074   17.6155 O   0  0  0  0  0  0
  -47.6780   -4.9479   17.0146 O   0  0  0  0  0  0
  -56.8402   -4.9101   16.0110 O   0  0  0  0  0  0
  -56.6007   -6.9283   14.9932 O   0  0  0  0  0  0
  -51.9382   -5.3964   16.2469 C   0  0  0  0  0  0
  -52.5570   -6.5881   16.6300 C   0  0  0  0  0  0
  -49.7150   -6.2662   17.1318 C   0  0  0  0  0  0
  -50.3339   -7.4579   17.5151 C   0  0  0  0  0  0
  -50.4946   -5.1917   16.4838 C   0  0  0  0  0  0
  -51.7775   -7.6624   17.2782 C   0  0  0  0  0  0
  -52.6885   -4.3859   15.6333 C   0  0  0  0  0  0
  -53.9260   -6.7695   16.3997 C   0  0  0  0  0  0
  -48.3460   -6.0848   17.3622 C   0  0  0  0  0  0
  -54.6699   -5.7600   15.7880 C   0  0  0  0  0  0
  -49.5837   -8.4684   18.1285 C   0  0  0  0  0  0
  -54.0526   -4.5708   15.4055 C   0  0  0  0  0  0
  -47.6021   -7.0945   17.9735 C   0  0  0  0  0  0
  -48.2197   -8.2837   18.3559 C   0  0  0  0  0  0
  -56.0922   -5.9490   15.5487 C   0  0  0  0  0  0
  -51.2501   -3.1079   15.5921 H   0  0  0  0  0  0
  -46.8797   -4.8394   17.5525 H   0  0  0  0  0  0
  -57.7836   -4.9978   15.7566 H   0  0  0  0  0  0
  1 13  1  0  0  0
  1 22  1  0  0  0
  2 11  2  0  0  0
  3 12  2  0  0  0
  4 15  1  0  0  0
  4 23  1  0  0  0
  5 21  1  0  0  0
  5 24  1  0  0  0
  6 21  2  0  0  0
  7  8  2  0  0  0
  7 11  1  0  0  0
  7 13  1  0  0  0
  8 12  1  0  0  0
  8 14  1  0  0  0
  9 10  2  0  0  0
  9 11  1  0  0  0
  9 15  1  0  0  0
 10 12  1  0  0  0
 10 17  1  0  0  0
 13 18  2  0  0  0
 14 16  2  0  0  0
 15 19  2  0  0  0
 16 18  1  0  0  0
 16 21  1  0  0  0
 17 20  2  0  0  0
 19 20  1  0  0  0
M  END
>  <CHROM.0>
-179.68219657,62.63313089,165.19179966

>  <CHROM.1>
-11.04935614,156.36835963,-6.48534472,129.14861230,-51.83734340,-6.07308121
16.58473245,-2.90889124,0.20218178,2.75751761

>  <Name>
10168

>  <PUBCHEM_ATOM_DEF_STEREO_COUNT>
0

>  <PUBCHEM_ATOM_UDEF_STEREO_COUNT>
0

>  <PUBCHEM_BOND_DEF_STEREO_COUNT>
0

>  <PUBCHEM_BOND_UDEF_STEREO_COUNT>
0

>  <PUBCHEM_CACTVS_TAUTO_COUNT>
24

>  <PUBCHEM_COMPONENT_COUNT>
1

>  <PUBCHEM_COMPOUND_CID>
10168

>  <PUBCHEM_CONFORMER_DIVERSEORDER>
1

>  <PUBCHEM_CONFORMER_ID>
000027B800000001

>  <PUBCHEM_CONFORMER_RMSD>
0.6

>  <PUBCHEM_COORDINATE_TYPE>
2
5
10

>  <PUBCHEM_EFFECTIVE_ROTOR_COUNT>
1

>  <PUBCHEM_FEATURE_SELFOVERLAP>
50.846

>  <PUBCHEM_HEAVY_ATOM_COUNT>
21

>  <PUBCHEM_ISOTOPIC_ATOM_COUNT>
0

>  <PUBCHEM_MMFF94_ENERGY>
68.6965

>  <PUBCHEM_MMFF94_PARTIAL_CHARGES>
29
1 -0.53
10 0.09
11 0.4
12 0.4
13 0.08
14 -0.15
15 0.08
16 0.09
17 -0.15
18 -0.15
19 -0.15
2 -0.57
20 -0.15
21 0.63
22 0.15
23 0.15
24 0.15
25 0.15
26 0.15
27 0.45
28 0.45
29 0.5
3 -0.57
4 -0.53
5 -0.65
6 -0.57
7 0.09
8 0.09
9 0.09

>  <PUBCHEM_PHARMACOPHORE_FEATURES>
10
1 1 donor
1 2 acceptor
1 3 acceptor
1 4 donor
1 5 acceptor
1 6 acceptor
3 5 6 21 anion
6 7 8 13 14 16 18 rings
6 7 8 9 10 11 12 rings
6 9 10 15 17 19 20 rings

>  <PUBCHEM_SHAPE_FINGERPRINT>
10411042 1 17474108078014113454
10493431 412 18269565953339895465
10498660 4 18410294674922913756
10616163 171 18410857672284589919
10967382 1 18338516322768651303
11112241 14 16053761070513734896
11132069 177 18409728443646081177
11578080 2 16880465970251001054
12011746 2 18411414016725795421
12236239 1 17822008735941251148
12390115 104 18200049372811105841
12403814 3 17603301544648884029
12788726 201 17130428969891162825
12839892 36 18337935806573543930
12954195 1 17914635873199923916
13132413 78 18412263956188401997
13140716 1 17978237380748065187
13214271 11 18413105065582804717
138480 1 17689997830145918786
13862211 1 18410849988456228526
14787075 74 18271241724201582520
14790565 3 18410863182654238816
15196674 1 18410573989646956454
15442244 35 17978509737119017459
15536298 74 18270120106524723222
16945 1 18338797943927191847
19591789 44 18339360880600163352
200 152 18060414720851970709
20510252 161 18343586217802211793
21029758 11 18343016726961894417
21267235 1 18410019848582002819
21421861 104 17898004620951251034
2334 1 18410855434849033379
23366157 5 17970072141091609650
23402539 116 18342168981657591294
23463225 33 18336828581004649021
23557571 272 18272379688914152982
23559900 14 18198340655049243982
2748010 2 18338801104986231055
335352 9 18266458707240121534
34934 24 18410288074001057415
350125 39 18338802342116335721
3545911 37 18410294679449859541
4214541 1 18410575071905095872
474 4 17748835132931610636
474229 33 18410572911836947014
5104073 3 18410011018223987362
58051976 378 18340767031444580180
59755656 215 18340493253766844862
7364860 26 18197216936859193670
9709674 26 18340492162006407318

>  <PUBCHEM_SHAPE_MULTIPOLES>
396.95
8.82
2.71
0.59
3.87
0.56
0
-1.97
0
-0.5
0
-0.03
-0.02
0

>  <PUBCHEM_SHAPE_SELFOVERLAP>
903.159

>  <PUBCHEM_SHAPE_VOLUME>
204.5

>  <RI>
-5.14288e+08

>  <Rbt.Current_Directory>
/root/miniconda3/envs/rdock/share/rxdock-2013.1.1_148c5bd1-0/data/ligands/prepped_ligands/Rhein

>  <Rbt.Executable>
rbdock/0.1.0

>  <Rbt.Library>
librxdock.so/0.1.0

>  <Rbt.Parameter_File>
/root/miniconda3/envs/rdock/share/rxdock-2013.1.1_148c5bd1-0/data/scripts/dock.prm

>  <Rbt.Receptor>
def.prm

>  <SCORE>
-15.815

>  <SCORE.INTER>
-18.6724

>  <SCORE.INTER.CONST>
1

>  <SCORE.INTER.POLAR>
-1.62442

>  <SCORE.INTER.REPUL>
0.000940313

>  <SCORE.INTER.ROT>
1

>  <SCORE.INTER.VDW>
-19.5541

>  <SCORE.INTER.norm>
-0.889164

>  <SCORE.INTRA>
3.58579

>  <SCORE.INTRA.DIHEDRAL>
8.93296

>  <SCORE.INTRA.DIHEDRAL.0>
1.91521e-05

>  <SCORE.INTRA.POLAR>
0.0294538

>  <SCORE.INTRA.POLAR.0>
-0.0515654

>  <SCORE.INTRA.REPUL>
0

>  <SCORE.INTRA.REPUL.0>
0

>  <SCORE.INTRA.VDW>
-0.980829

>  <SCORE.INTRA.VDW.0>
1.17338

>  <SCORE.INTRA.norm>
0.170752

>  <SCORE.RESTR>
0

>  <SCORE.RESTR.CAVITY>
0

>  <SCORE.RESTR.norm>
0

>  <SCORE.SYSTEM>
-0.72837

>  <SCORE.SYSTEM.CONST>
0

>  <SCORE.SYSTEM.DIHEDRAL>
0.559737

>  <SCORE.SYSTEM.VDW>
-1.00824

>  <SCORE.SYSTEM.norm>
-0.0346843

>  <SCORE.heavy>
21

>  <SCORE.norm>
-0.753096

$$$$
10168
  RxDock  02242113123D
librxdock.so/0.1.0
 24 26  0  0  0  0  0  0  0  0999 V2000
  -50.6222   -7.8390   19.5083 O   0  0  0  0  0  0
  -52.3532   -8.6672   17.8113 O   0  0  0  0  0  0
  -53.7257   -3.6714   16.5009 O   0  0  0  0  0  0
  -54.0377   -9.6567   16.1537 O   0  0  0  0  0  0
  -49.2615   -3.4708   21.0517 O   0  0  0  0  0  0
  -50.2619   -1.8924   19.7578 O   0  0  0  0  0  0
  -52.0101   -6.3703   18.1606 C   0  0  0  0  0  0
  -52.3687   -5.0649   17.8184 C   0  0  0  0  0  0
  -53.7077   -7.2740   16.4922 C   0  0  0  0  0  0
  -54.0664   -5.9684   16.1501 C   0  0  0  0  0  0
  -52.6665   -7.5227   17.5102 C   0  0  0  0  0  0
  -53.4099   -4.8162   16.8006 C   0  0  0  0  0  0
  -51.0214   -6.5923   19.1268 C   0  0  0  0  0  0
  -51.7387   -3.9813   18.4423 C   0  0  0  0  0  0
  -54.3377   -8.3575   15.8682 C   0  0  0  0  0  0
  -50.7541   -4.2070   19.4047 C   0  0  0  0  0  0
  -55.0549   -5.7464   15.1838 C   0  0  0  0  0  0
  -50.3961   -5.5096   19.7462 C   0  0  0  0  0  0
  -55.3220   -8.1317   14.9056 C   0  0  0  0  0  0
  -55.6799   -6.8289   14.5642 C   0  0  0  0  0  0
  -50.0997   -3.0810   20.0525 C   0  0  0  0  0  0
  -49.8279   -7.7749   20.0653 H   0  0  0  0  0  0
  -54.7304  -10.2499   15.8271 H   0  0  0  0  0  0
  -48.8809   -2.7030   21.5292 H   0  0  0  0  0  0
  1 13  1  0  0  0
  1 22  1  0  0  0
  2 11  2  0  0  0
  3 12  2  0  0  0
  4 15  1  0  0  0
  4 23  1  0  0  0
  5 21  1  0  0  0
  5 24  1  0  0  0
  6 21  2  0  0  0
  7  8  2  0  0  0
  7 11  1  0  0  0
  7 13  1  0  0  0
  8 12  1  0  0  0
  8 14  1  0  0  0
  9 10  2  0  0  0
  9 11  1  0  0  0
  9 15  1  0  0  0
 10 12  1  0  0  0
 10 17  1  0  0  0
 13 18  2  0  0  0
 14 16  2  0  0  0
 15 19  2  0  0  0
 16 18  1  0  0  0
 16 21  1  0  0  0
 17 20  2  0  0  0
 19 20  1  0  0  0
M  END
>  <CHROM.0>
51.62783739,65.70964214,177.49338010

>  <CHROM.1>
170.04934258,163.69930993,4.52659698,174.08549632,-52.45602787,-5.94205379
17.73043176,-0.58352097,0.77846930,-3.14002987

>  <Name>
10168

>  <PUBCHEM_ATOM_DEF_STEREO_COUNT>
0

>  <PUBCHEM_ATOM_UDEF_STEREO_COUNT>
0

>  <PUBCHEM_BOND_DEF_STEREO_COUNT>
0

>  <PUBCHEM_BOND_UDEF_STEREO_COUNT>
0

>  <PUBCHEM_CACTVS_TAUTO_COUNT>
24

>  <PUBCHEM_COMPONENT_COUNT>
1

>  <PUBCHEM_COMPOUND_CID>
10168

>  <PUBCHEM_CONFORMER_DIVERSEORDER>
1

>  <PUBCHEM_CONFORMER_ID>
000027B800000001

>  <PUBCHEM_CONFORMER_RMSD>
0.6

>  <PUBCHEM_COORDINATE_TYPE>
2
5
10

>  <PUBCHEM_EFFECTIVE_ROTOR_COUNT>
1

>  <PUBCHEM_FEATURE_SELFOVERLAP>
50.846

>  <PUBCHEM_HEAVY_ATOM_COUNT>
21

>  <PUBCHEM_ISOTOPIC_ATOM_COUNT>
0

>  <PUBCHEM_MMFF94_ENERGY>
68.6965

>  <PUBCHEM_MMFF94_PARTIAL_CHARGES>
29
1 -0.53
10 0.09
11 0.4
12 0.4
13 0.08
14 -0.15
15 0.08
16 0.09
17 -0.15
18 -0.15
19 -0.15
2 -0.57
20 -0.15
21 0.63
22 0.15
23 0.15
24 0.15
25 0.15
26 0.15
27 0.45
28 0.45
29 0.5
3 -0.57
4 -0.53
5 -0.65
6 -0.57
7 0.09
8 0.09
9 0.09

>  <PUBCHEM_PHARMACOPHORE_FEATURES>
10
1 1 donor
1 2 acceptor
1 3 acceptor
1 4 donor
1 5 acceptor
1 6 acceptor
3 5 6 21 anion
6 7 8 13 14 16 18 rings
6 7 8 9 10 11 12 rings
6 9 10 15 17 19 20 rings

>  <PUBCHEM_SHAPE_FINGERPRINT>
10411042 1 17474108078014113454
10493431 412 18269565953339895465
10498660 4 18410294674922913756
10616163 171 18410857672284589919
10967382 1 18338516322768651303
11112241 14 16053761070513734896
11132069 177 18409728443646081177
11578080 2 16880465970251001054
12011746 2 18411414016725795421
12236239 1 17822008735941251148
12390115 104 18200049372811105841
12403814 3 17603301544648884029
12788726 201 17130428969891162825
12839892 36 18337935806573543930
12954195 1 17914635873199923916
13132413 78 18412263956188401997
13140716 1 17978237380748065187
13214271 11 18413105065582804717
138480 1 17689997830145918786
13862211 1 18410849988456228526
14787075 74 18271241724201582520
14790565 3 18410863182654238816
15196674 1 18410573989646956454
15442244 35 17978509737119017459
15536298 74 18270120106524723222
16945 1 18338797943927191847
19591789 44 18339360880600163352
200 152 18060414720851970709
20510252 161 18343586217802211793
21029758 11 18343016726961894417
21267235 1 18410019848582002819
21421861 104 17898004620951251034
2334 1 18410855434849033379
23366157 5 17970072141091609650
23402539 116 18342168981657591294
23463225 33 18336828581004649021
23557571 272 18272379688914152982
23559900 14 18198340655049243982
2748010 2 18338801104986231055
335352 9 18266458707240121534
34934 24 18410288074001057415
350125 39 18338802342116335721
3545911 37 18410294679449859541
4214541 1 18410575071905095872
474 4 17748835132931610636
474229 33 18410572911836947014
5104073 3 18410011018223987362
58051976 378 18340767031444580180
59755656 215 18340493253766844862
7364860 26 18197216936859193670
9709674 26 18340492162006407318

>  <PUBCHEM_SHAPE_MULTIPOLES>
396.95
8.82
2.71
0.59
3.87
0.56
0
-1.97
0
-0.5
0
-0.03
-0.02
0

>  <PUBCHEM_SHAPE_SELFOVERLAP>
903.159

>  <PUBCHEM_SHAPE_VOLUME>
204.5

>  <RI>
-5.14288e+08

>  <Rbt.Current_Directory>
/root/miniconda3/envs/rdock/share/rxdock-2013.1.1_148c5bd1-0/data/ligands/prepped_ligands/Rhein

>  <Rbt.Executable>
rbdock/0.1.0

>  <Rbt.Library>
librxdock.so/0.1.0

>  <Rbt.Parameter_File>
/root/miniconda3/envs/rdock/share/rxdock-2013.1.1_148c5bd1-0/data/scripts/dock.prm

>  <Rbt.Receptor>
def.prm

>  <SCORE>
-16.3572

>  <SCORE.INTER>
-16.1542

>  <SCORE.INTER.CONST>
1

>  <SCORE.INTER.POLAR>
-1.46134

>  <SCORE.INTER.REPUL>
0

>  <SCORE.INTER.ROT>
1

>  <SCORE.INTER.VDW>
-17.5856

>  <SCORE.INTER.norm>
-0.769246

>  <SCORE.INTRA>
0.70225

>  <SCORE.INTRA.DIHEDRAL>
0.802074

>  <SCORE.INTRA.DIHEDRAL.0>
1.91521e-05

>  <SCORE.INTRA.POLAR>
0.0515654

>  <SCORE.INTRA.POLAR.0>
-0.0515654

>  <SCORE.INTRA.REPUL>
0

>  <SCORE.INTRA.REPUL.0>
0

>  <SCORE.INTRA.VDW>
0.12589

>  <SCORE.INTRA.VDW.0>
1.17338

>  <SCORE.INTRA.norm>
0.0334405

>  <SCORE.RESTR>
0

>  <SCORE.RESTR.CAVITY>
0

>  <SCORE.RESTR.norm>
0

>  <SCORE.SYSTEM>
-0.905271

>  <SCORE.SYSTEM.CONST>
0

>  <SCORE.SYSTEM.DIHEDRAL>
0.353579

>  <SCORE.SYSTEM.VDW>
-1.08206

>  <SCORE.SYSTEM.norm>
-0.0431081

>  <SCORE.heavy>
21

>  <SCORE.norm>
-0.778913

$$$$
10168
  RxDock  02242113123D
librxdock.so/0.1.0
 24 26  0  0  0  0  0  0  0  0999 V2000
  -50.6162   -7.8709   19.4434 O   0  0  0  0  0  0
  -52.3736   -8.7009   17.7747 O   0  0  0  0  0  0
  -53.7046   -3.7070   16.4153 O   0  0  0  0  0  0
  -54.0859   -9.6924   16.1470 O   0  0  0  0  0  0
  -50.4801   -1.9144   19.4530 O   0  0  0  0  0  0
  -49.1553   -3.1944   20.7846 O   0  0  0  0  0  0
  -52.0017   -6.4038   18.0914 C   0  0  0  0  0  0
  -52.3495   -5.0989   17.7364 C   0  0  0  0  0  0
  -53.7264   -7.3095   16.4520 C   0  0  0  0  0  0
  -54.0742   -6.0044   16.0970 C   0  0  0  0  0  0
  -52.6775   -7.5569   17.4624 C   0  0  0  0  0  0
  -53.3984   -4.8515   16.7263 C   0  0  0  0  0  0
  -51.0056   -6.6247   19.0503 C   0  0  0  0  0  0
  -51.7013   -4.0146   18.3402 C   0  0  0  0  0  0
  -54.3746   -8.3936   15.8482 C   0  0  0  0  0  0
  -50.7092   -4.2392   19.2952 C   0  0  0  0  0  0
  -55.0701   -5.7835   15.1382 C   0  0  0  0  0  0
  -50.3621   -5.5413   19.6495 C   0  0  0  0  0  0
  -55.3663   -8.1690   14.8929 C   0  0  0  0  0  0
  -55.7134   -6.8667   14.5387 C   0  0  0  0  0  0
  -50.0359   -3.1125   19.9220 C   0  0  0  0  0  0
  -49.8510   -7.8045   20.0395 H   0  0  0  0  0  0
  -54.8080  -10.2774   15.8735 H   0  0  0  0  0  0
  -50.0045   -1.1619   19.8653 H   0  0  0  0  0  0
  1 13  1  0  0  0
  1 22  1  0  0  0
  2 11  2  0  0  0
  3 12  2  0  0  0
  4 15  1  0  0  0
  4 23  1  0  0  0
  5 21  1  0  0  0
  5 24  1  0  0  0
  6 21  2  0  0  0
  7  8  2  0  0  0
  7 11  1  0  0  0
  7 13  1  0  0  0
  8 12  1  0  0  0
  8 14  1  0  0  0
  9 10  2  0  0  0
  9 11  1  0  0  0
  9 15  1  0  0  0
 10 12  1  0  0  0
 10 17  1  0  0  0
 13 18  2  0  0  0
 14 16  2  0  0  0
 15 19  2  0  0  0
 16 18  1  0  0  0
 16 21  1  0  0  0
 17 20  2  0  0  0
 19 20  1  0  0  0
M  END
>  <CHROM.0>
60.61715618,-60.64469628,173.34616291

>  <CHROM.1>
173.80190367,160.95186091,1.36391553,-0.75482742,-52.46622647,-5.95268677
17.63884991,-0.59505887,0.76436474,3.12318147

>  <Name>
10168

>  <PUBCHEM_ATOM_DEF_STEREO_COUNT>
0

>  <PUBCHEM_ATOM_UDEF_STEREO_COUNT>
0

>  <PUBCHEM_BOND_DEF_STEREO_COUNT>
0

>  <PUBCHEM_BOND_UDEF_STEREO_COUNT>
0

>  <PUBCHEM_CACTVS_TAUTO_COUNT>
24

>  <PUBCHEM_COMPONENT_COUNT>
1

>  <PUBCHEM_COMPOUND_CID>
10168

>  <PUBCHEM_CONFORMER_DIVERSEORDER>
1

>  <PUBCHEM_CONFORMER_ID>
000027B800000001

>  <PUBCHEM_CONFORMER_RMSD>
0.6

>  <PUBCHEM_COORDINATE_TYPE>
2
5
10

>  <PUBCHEM_EFFECTIVE_ROTOR_COUNT>
1

>  <PUBCHEM_FEATURE_SELFOVERLAP>
50.846

>  <PUBCHEM_HEAVY_ATOM_COUNT>
21

>  <PUBCHEM_ISOTOPIC_ATOM_COUNT>
0

>  <PUBCHEM_MMFF94_ENERGY>
68.6965

>  <PUBCHEM_MMFF94_PARTIAL_CHARGES>
29
1 -0.53
10 0.09
11 0.4
12 0.4
13 0.08
14 -0.15
15 0.08
16 0.09
17 -0.15
18 -0.15
19 -0.15
2 -0.57
20 -0.15
21 0.63
22 0.15
23 0.15
24 0.15
25 0.15
26 0.15
27 0.45
28 0.45
29 0.5
3 -0.57
4 -0.53
5 -0.65
6 -0.57
7 0.09
8 0.09
9 0.09

>  <PUBCHEM_PHARMACOPHORE_FEATURES>
10
1 1 donor
1 2 acceptor
1 3 acceptor
1 4 donor
1 5 acceptor
1 6 acceptor
3 5 6 21 anion
6 7 8 13 14 16 18 rings
6 7 8 9 10 11 12 rings
6 9 10 15 17 19 20 rings

>  <PUBCHEM_SHAPE_FINGERPRINT>
10411042 1 17474108078014113454
10493431 412 18269565953339895465
10498660 4 18410294674922913756
10616163 171 18410857672284589919
10967382 1 18338516322768651303
11112241 14 16053761070513734896
11132069 177 18409728443646081177
11578080 2 16880465970251001054
12011746 2 18411414016725795421
12236239 1 17822008735941251148
12390115 104 18200049372811105841
12403814 3 17603301544648884029
12788726 201 17130428969891162825
12839892 36 18337935806573543930
12954195 1 17914635873199923916
13132413 78 18412263956188401997
13140716 1 17978237380748065187
13214271 11 18413105065582804717
138480 1 17689997830145918786
13862211 1 18410849988456228526
14787075 74 18271241724201582520
14790565 3 18410863182654238816
15196674 1 18410573989646956454
15442244 35 17978509737119017459
15536298 74 18270120106524723222
16945 1 18338797943927191847
19591789 44 18339360880600163352
200 152 18060414720851970709
20510252 161 18343586217802211793
21029758 11 18343016726961894417
21267235 1 18410019848582002819
21421861 104 17898004620951251034
2334 1 18410855434849033379
23366157 5 17970072141091609650
23402539 116 18342168981657591294
23463225 33 18336828581004649021
23557571 272 18272379688914152982
23559900 14 18198340655049243982
2748010 2 18338801104986231055
335352 9 18266458707240121534
34934 24 18410288074001057415
350125 39 18338802342116335721
3545911 37 18410294679449859541
4214541 1 18410575071905095872
474 4 17748835132931610636
474229 33 18410572911836947014
5104073 3 18410011018223987362
58051976 378 18340767031444580180
59755656 215 18340493253766844862
7364860 26 18197216936859193670
9709674 26 18340492162006407318

>  <PUBCHEM_SHAPE_MULTIPOLES>
396.95
8.82
2.71
0.59
3.87
0.56
0
-1.97
0
-0.5
0
-0.03
-0.02
0

>  <PUBCHEM_SHAPE_SELFOVERLAP>
903.159

>  <PUBCHEM_SHAPE_VOLUME>
204.5

>  <RI>
-5.14288e+08

>  <Rbt.Current_Directory>
/root/miniconda3/envs/rdock/share/rxdock-2013.1.1_148c5bd1-0/data/ligands/prepped_ligands/Rhein

>  <Rbt.Executable>
rbdock/0.1.0

>  <Rbt.Library>
librxdock.so/0.1.0

>  <Rbt.Parameter_File>
/root/miniconda3/envs/rdock/share/rxdock-2013.1.1_148c5bd1-0/data/scripts/dock.prm

>  <Rbt.Receptor>
def.prm

>  <SCORE>
-16.2705

>  <SCORE.INTER>
-15.8401

>  <SCORE.INTER.CONST>
1

>  <SCORE.INTER.POLAR>
-1.36628

>  <SCORE.INTER.REPUL>
0

>  <SCORE.INTER.ROT>
1

>  <SCORE.INTER.VDW>
-17.5948

>  <SCORE.INTER.norm>
-0.754292

>  <SCORE.INTRA>
0.59998

>  <SCORE.INTRA.DIHEDRAL>
0.582562

>  <SCORE.INTRA.DIHEDRAL.0>
1.91521e-05

>  <SCORE.INTRA.POLAR>
0.0515654

>  <SCORE.INTRA.POLAR.0>
-0.0515654

>  <SCORE.INTRA.REPUL>
0

>  <SCORE.INTRA.REPUL.0>
0

>  <SCORE.INTRA.VDW>
0.133376

>  <SCORE.INTRA.VDW.0>
1.17338

>  <SCORE.INTRA.norm>
0.0285705

>  <SCORE.RESTR>
0

>  <SCORE.RESTR.CAVITY>
0

>  <SCORE.RESTR.norm>
0

>  <SCORE.SYSTEM>
-1.03036

>  <SCORE.SYSTEM.CONST>
0

>  <SCORE.SYSTEM.DIHEDRAL>
0.116187

>  <SCORE.SYSTEM.VDW>
-1.08845

>  <SCORE.SYSTEM.norm>
-0.0490648

>  <SCORE.heavy>
21

>  <SCORE.norm>
-0.774786

$$$$
10168
  RxDock  02242113123D
librxdock.so/0.1.0
 24 26  0  0  0  0  0  0  0  0999 V2000
  -50.5532   -7.8361   19.5077 O   0  0  0  0  0  0
  -52.2757   -8.6743   17.8071 O   0  0  0  0  0  0
  -53.7258   -3.6877   16.5463 O   0  0  0  0  0  0
  -53.9492   -9.6736   16.1441 O   0  0  0  0  0  0
  -49.2371   -3.4633   21.0733 O   0  0  0  0  0  0
  -50.2949   -1.8866   19.8238 O   0  0  0  0  0  0
  -51.9661   -6.3759   18.1769 C   0  0  0  0  0  0
  -52.3450   -5.0728   17.8476 C   0  0  0  0  0  0
  -53.6541   -7.2894   16.5040 C   0  0  0  0  0  0
  -54.0330   -5.9863   16.1748 C   0  0  0  0  0  0
  -52.6068   -7.5319   17.5173 C   0  0  0  0  0  0
  -53.3923   -4.8304   16.8346 C   0  0  0  0  0  0
  -50.9719   -6.5920   19.1388 C   0  0  0  0  0  0
  -51.7298   -3.9858   18.4802 C   0  0  0  0  0  0
  -54.2693   -8.3764   15.8714 C   0  0  0  0  0  0
  -50.7395   -4.2057   19.4382 C   0  0  0  0  0  0
  -55.0271   -5.7701   15.2129 C   0  0  0  0  0  0
  -50.3613   -5.5059   19.7667 C   0  0  0  0  0  0
  -55.2592   -8.1564   14.9132 C   0  0  0  0  0  0
  -55.6373   -6.8561   14.5847 C   0  0  0  0  0  0
  -50.1005   -3.0760   20.0949 C   0  0  0  0  0  0
  -51.1143   -8.5106   19.0887 H   0  0  0  0  0  0
  -54.6481  -10.2718   15.8408 H   0  0  0  0  0  0
  -48.8506   -2.6945   21.5445 H   0  0  0  0  0  0
  1 13  1  0  0  0
  1 22  1  0  0  0
  2 11  2  0  0  0
  3 12  2  0  0  0
  4 15  1  0  0  0
  4 23  1  0  0  0
  5 21  1  0  0  0
  5 24  1  0  0  0
  6 21  2  0  0  0
  7  8  2  0  0  0
  7 11  1  0  0  0
  7 13  1  0  0  0
  8 12  1  0  0  0
  8 14  1  0  0  0
  9 10  2  0  0  0
  9 11  1  0  0  0
  9 15  1  0  0  0
 10 12  1  0  0  0
 10 17  1  0  0  0
 13 18  2  0  0  0
 14 16  2  0  0  0
 15 19  2  0  0  0
 16 18  1  0  0  0
 16 21  1  0  0  0
 17 20  2  0  0  0
 19 20  1  0  0  0
M  END
>  <CHROM.0>
-59.52779588,-63.62138102,176.56132200

>  <CHROM.1>
-6.69298569,161.74923923,3.22562924,175.13035524,-52.42397383,-5.95303847
17.74810565,-0.60746773,0.77595754,-3.11670058

>  <Name>
10168

>  <PUBCHEM_ATOM_DEF_STEREO_COUNT>
0

>  <PUBCHEM_ATOM_UDEF_STEREO_COUNT>
0

>  <PUBCHEM_BOND_DEF_STEREO_COUNT>
0

>  <PUBCHEM_BOND_UDEF_STEREO_COUNT>
0

>  <PUBCHEM_CACTVS_TAUTO_COUNT>
24

>  <PUBCHEM_COMPONENT_COUNT>
1

>  <PUBCHEM_COMPOUND_CID>
10168

>  <PUBCHEM_CONFORMER_DIVERSEORDER>
1

>  <PUBCHEM_CONFORMER_ID>
000027B800000001

>  <PUBCHEM_CONFORMER_RMSD>
0.6

>  <PUBCHEM_COORDINATE_TYPE>
2
5
10

>  <PUBCHEM_EFFECTIVE_ROTOR_COUNT>
1

>  <PUBCHEM_FEATURE_SELFOVERLAP>
50.846

>  <PUBCHEM_HEAVY_ATOM_COUNT>
21

>  <PUBCHEM_ISOTOPIC_ATOM_COUNT>
0

>  <PUBCHEM_MMFF94_ENERGY>
68.6965

>  <PUBCHEM_MMFF94_PARTIAL_CHARGES>
29
1 -0.53
10 0.09
11 0.4
12 0.4
13 0.08
14 -0.15
15 0.08
16 0.09
17 -0.15
18 -0.15
19 -0.15
2 -0.57
20 -0.15
21 0.63
22 0.15
23 0.15
24 0.15
25 0.15
26 0.15
27 0.45
28 0.45
29 0.5
3 -0.57
4 -0.53
5 -0.65
6 -0.57
7 0.09
8 0.09
9 0.09

>  <PUBCHEM_PHARMACOPHORE_FEATURES>
10
1 1 donor
1 2 acceptor
1 3 acceptor
1 4 donor
1 5 acceptor
1 6 acceptor
3 5 6 21 anion
6 7 8 13 14 16 18 rings
6 7 8 9 10 11 12 rings
6 9 10 15 17 19 20 rings

>  <PUBCHEM_SHAPE_FINGERPRINT>
10411042 1 17474108078014113454
10493431 412 18269565953339895465
10498660 4 18410294674922913756
10616163 171 18410857672284589919
10967382 1 18338516322768651303
11112241 14 16053761070513734896
11132069 177 18409728443646081177
11578080 2 16880465970251001054
12011746 2 18411414016725795421
12236239 1 17822008735941251148
12390115 104 18200049372811105841
12403814 3 17603301544648884029
12788726 201 17130428969891162825
12839892 36 18337935806573543930
12954195 1 17914635873199923916
13132413 78 18412263956188401997
13140716 1 17978237380748065187
13214271 11 18413105065582804717
138480 1 17689997830145918786
13862211 1 18410849988456228526
14787075 74 18271241724201582520
14790565 3 18410863182654238816
15196674 1 18410573989646956454
15442244 35 17978509737119017459
15536298 74 18270120106524723222
16945 1 18338797943927191847
19591789 44 18339360880600163352
200 152 18060414720851970709
20510252 161 18343586217802211793
21029758 11 18343016726961894417
21267235 1 18410019848582002819
21421861 104 17898004620951251034
2334 1 18410855434849033379
23366157 5 17970072141091609650
23402539 116 18342168981657591294
23463225 33 18336828581004649021
23557571 272 18272379688914152982
23559900 14 18198340655049243982
2748010 2 18338801104986231055
335352 9 18266458707240121534
34934 24 18410288074001057415
350125 39 18338802342116335721
3545911 37 18410294679449859541
4214541 1 18410575071905095872
474 4 17748835132931610636
474229 33 18410572911836947014
5104073 3 18410011018223987362
58051976 378 18340767031444580180
59755656 215 18340493253766844862
7364860 26 18197216936859193670
9709674 26 18340492162006407318

>  <PUBCHEM_SHAPE_MULTIPOLES>
396.95
8.82
2.71
0.59
3.87
0.56
0
-1.97
0
-0.5
0
-0.03
-0.02
0

>  <PUBCHEM_SHAPE_SELFOVERLAP>
903.159

>  <PUBCHEM_SHAPE_VOLUME>
204.5

>  <RI>
-5.14288e+08

>  <Rbt.Current_Directory>
/root/miniconda3/envs/rdock/share/rxdock-2013.1.1_148c5bd1-0/data/ligands/prepped_ligands/Rhein

>  <Rbt.Executable>
rbdock/0.1.0

>  <Rbt.Library>
librxdock.so/0.1.0

>  <Rbt.Parameter_File>
/root/miniconda3/envs/rdock/share/rxdock-2013.1.1_148c5bd1-0/data/scripts/dock.prm

>  <Rbt.Receptor>
def.prm

>  <SCORE>
-16.9694

>  <SCORE.INTER>
-16.1695

>  <SCORE.INTER.CONST>
1

>  <SCORE.INTER.POLAR>
-1.40129

>  <SCORE.INTER.REPUL>
0

>  <SCORE.INTER.ROT>
1

>  <SCORE.INTER.VDW>
-17.8051

>  <SCORE.INTER.norm>
-0.769977

>  <SCORE.INTRA>
0.282862

>  <SCORE.INTRA.DIHEDRAL>
0.70165

>  <SCORE.INTRA.DIHEDRAL.0>
1.91521e-05

>  <SCORE.INTRA.POLAR>
0.0224437

>  <SCORE.INTRA.POLAR.0>
-0.0515654

>  <SCORE.INTRA.REPUL>
0

>  <SCORE.INTRA.REPUL.0>
0

>  <SCORE.INTRA.VDW>
-0.144272

>  <SCORE.INTRA.VDW.0>
1.17338

>  <SCORE.INTRA.norm>
0.0134696

>  <SCORE.RESTR>
0

>  <SCORE.RESTR.CAVITY>
0

>  <SCORE.RESTR.norm>
0

>  <SCORE.SYSTEM>
-1.08271

>  <SCORE.SYSTEM.CONST>
0

>  <SCORE.SYSTEM.DIHEDRAL>
0.0968102

>  <SCORE.SYSTEM.VDW>
-1.13111

>  <SCORE.SYSTEM.norm>
-0.0515575

>  <SCORE.heavy>
21

>  <SCORE.norm>
-0.808065

$$$$
10168
  RxDock  02242113123D
librxdock.so/0.1.0
 24 26  0  0  0  0  0  0  0  0999 V2000
  -47.7369    0.1909   14.0138 O   0  0  0  0  0  0
  -49.9093   -1.1641   13.9346 O   0  0  0  0  0  0
  -47.9618   -4.8245   17.3062 O   0  0  0  0  0  0
  -52.1463   -2.3994   13.7493 O   0  0  0  0  0  0
  -43.6202   -2.6511   17.1698 O   0  0  0  0  0  0
  -43.5259   -0.4005   16.8656 O   0  0  0  0  0  0
  -48.0942   -1.8713   15.2463 C   0  0  0  0  0  0
  -47.5852   -2.8277   16.1273 C   0  0  0  0  0  0
  -50.2868   -3.1588   15.1154 C   0  0  0  0  0  0
  -49.7776   -4.1153   15.9963 C   0  0  0  0  0  0
  -49.4636   -2.0018   14.7080 C   0  0  0  0  0  0
  -48.4083   -3.9847   16.5344 C   0  0  0  0  0  0
  -47.3037   -0.7792   14.8684 C   0  0  0  0  0  0
  -46.2856   -2.6922   16.6303 C   0  0  0  0  0  0
  -51.5864   -3.2944   14.6124 C   0  0  0  0  0  0
  -45.5013   -1.6024   16.2511 C   0  0  0  0  0  0
  -50.5681   -5.2073   16.3744 C   0  0  0  0  0  0
  -46.0092   -0.6479   15.3721 C   0  0  0  0  0  0
  -52.3707   -4.3839   14.9920 C   0  0  0  0  0  0
  -51.8627   -5.3384   15.8711 C   0  0  0  0  0  0
  -44.1513   -1.4619   16.7741 C   0  0  0  0  0  0
  -48.6430   -0.0072   13.7221 H   0  0  0  0  0  0
  -53.0841   -2.5973   13.6085 H   0  0  0  0  0  0
  -44.1146   -3.4131   16.7991 H   0  0  0  0  0  0
  1 13  1  0  0  0
  1 22  1  0  0  0
  2 11  2  0  0  0
  3 12  2  0  0  0
  4 15  1  0  0  0
  4 23  1  0  0  0
  5 21  1  0  0  0
  5 24  1  0  0  0
  6 21  2  0  0  0
  7  8  2  0  0  0
  7 11  1  0  0  0
  7 13  1  0  0  0
  8 12  1  0  0  0
  8 14  1  0  0  0
  9 10  2  0  0  0
  9 11  1  0  0  0
  9 15  1  0  0  0
 10 12  1  0  0  0
 10 17  1  0  0  0
 13 18  2  0  0  0
 14 16  2  0  0  0
 15 19  2  0  0  0
 16 18  1  0  0  0
 16 21  1  0  0  0
 17 20  2  0  0  0
 19 20  1  0  0  0
M  END
>  <CHROM.0>
-177.61723330,-177.79164906,60.92132005

>  <CHROM.1>
-0.56583977,-172.42144862,-163.20932902,23.71034548,-48.24829833,-2.55198302
15.62562935,0.16303569,-0.35576406,-0.57092145

>  <Name>
10168

>  <PUBCHEM_ATOM_DEF_STEREO_COUNT>
0

>  <PUBCHEM_ATOM_UDEF_STEREO_COUNT>
0

>  <PUBCHEM_BOND_DEF_STEREO_COUNT>
0

>  <PUBCHEM_BOND_UDEF_STEREO_COUNT>
0

>  <PUBCHEM_CACTVS_TAUTO_COUNT>
24

>  <PUBCHEM_COMPONENT_COUNT>
1

>  <PUBCHEM_COMPOUND_CID>
10168

>  <PUBCHEM_CONFORMER_DIVERSEORDER>
1

>  <PUBCHEM_CONFORMER_ID>
000027B800000001

>  <PUBCHEM_CONFORMER_RMSD>
0.6

>  <PUBCHEM_COORDINATE_TYPE>
2
5
10

>  <PUBCHEM_EFFECTIVE_ROTOR_COUNT>
1

>  <PUBCHEM_FEATURE_SELFOVERLAP>
50.846

>  <PUBCHEM_HEAVY_ATOM_COUNT>
21

>  <PUBCHEM_ISOTOPIC_ATOM_COUNT>
0

>  <PUBCHEM_MMFF94_ENERGY>
68.6965

>  <PUBCHEM_MMFF94_PARTIAL_CHARGES>
29
1 -0.53
10 0.09
11 0.4
12 0.4
13 0.08
14 -0.15
15 0.08
16 0.09
17 -0.15
18 -0.15
19 -0.15
2 -0.57
20 -0.15
21 0.63
22 0.15
23 0.15
24 0.15
25 0.15
26 0.15
27 0.45
28 0.45
29 0.5
3 -0.57
4 -0.53
5 -0.65
6 -0.57
7 0.09
8 0.09
9 0.09

>  <PUBCHEM_PHARMACOPHORE_FEATURES>
10
1 1 donor
1 2 acceptor
1 3 acceptor
1 4 donor
1 5 acceptor
1 6 acceptor
3 5 6 21 anion
6 7 8 13 14 16 18 rings
6 7 8 9 10 11 12 rings
6 9 10 15 17 19 20 rings

>  <PUBCHEM_SHAPE_FINGERPRINT>
10411042 1 17474108078014113454
10493431 412 18269565953339895465
10498660 4 18410294674922913756
10616163 171 18410857672284589919
10967382 1 18338516322768651303
11112241 14 16053761070513734896
11132069 177 18409728443646081177
11578080 2 16880465970251001054
12011746 2 18411414016725795421
12236239 1 17822008735941251148
12390115 104 18200049372811105841
12403814 3 17603301544648884029
12788726 201 17130428969891162825
12839892 36 18337935806573543930
12954195 1 17914635873199923916
13132413 78 18412263956188401997
13140716 1 17978237380748065187
13214271 11 18413105065582804717
138480 1 17689997830145918786
13862211 1 18410849988456228526
14787075 74 18271241724201582520
14790565 3 18410863182654238816
15196674 1 18410573989646956454
15442244 35 17978509737119017459
15536298 74 18270120106524723222
16945 1 18338797943927191847
19591789 44 18339360880600163352
200 152 18060414720851970709
20510252 161 18343586217802211793
21029758 11 18343016726961894417
21267235 1 18410019848582002819
21421861 104 17898004620951251034
2334 1 18410855434849033379
23366157 5 17970072141091609650
23402539 116 18342168981657591294
23463225 33 18336828581004649021
23557571 272 18272379688914152982
23559900 14 18198340655049243982
2748010 2 18338801104986231055
335352 9 18266458707240121534
34934 24 18410288074001057415
350125 39 18338802342116335721
3545911 37 18410294679449859541
4214541 1 18410575071905095872
474 4 17748835132931610636
474229 33 18410572911836947014
5104073 3 18410011018223987362
58051976 378 18340767031444580180
59755656 215 18340493253766844862
7364860 26 18197216936859193670
9709674 26 18340492162006407318

>  <PUBCHEM_SHAPE_MULTIPOLES>
396.95
8.82
2.71
0.59
3.87
0.56
0
-1.97
0
-0.5
0
-0.03
-0.02
0

>  <PUBCHEM_SHAPE_SELFOVERLAP>
903.159

>  <PUBCHEM_SHAPE_VOLUME>
204.5

>  <RI>
-5.14288e+08

>  <Rbt.Current_Directory>
/root/miniconda3/envs/rdock/share/rxdock-2013.1.1_148c5bd1-0/data/ligands/prepped_ligands/Rhein

>  <Rbt.Executable>
rbdock/0.1.0

>  <Rbt.Library>
librxdock.so/0.1.0

>  <Rbt.Parameter_File>
/root/miniconda3/envs/rdock/share/rxdock-2013.1.1_148c5bd1-0/data/scripts/dock.prm

>  <Rbt.Receptor>
def.prm

>  <SCORE>
-11.8367

>  <SCORE.INTER>
-14.027

>  <SCORE.INTER.CONST>
1

>  <SCORE.INTER.POLAR>
-1.56101

>  <SCORE.INTER.REPUL>
0.0112412

>  <SCORE.INTER.ROT>
1

>  <SCORE.INTER.VDW>
-15.1758

>  <SCORE.INTER.norm>
-0.667954

>  <SCORE.INTRA>
3.23682

>  <SCORE.INTRA.DIHEDRAL>
4.10042

>  <SCORE.INTRA.DIHEDRAL.0>
1.91521e-05

>  <SCORE.INTRA.POLAR>
0.0182279

>  <SCORE.INTRA.POLAR.0>
-0.0515654

>  <SCORE.INTRA.REPUL>
0

>  <SCORE.INTRA.REPUL.0>
0

>  <SCORE.INTRA.VDW>
1.12463

>  <SCORE.INTRA.VDW.0>
1.17338

>  <SCORE.INTRA.norm>
0.154134

>  <SCORE.RESTR>
0

>  <SCORE.RESTR.CAVITY>
0

>  <SCORE.RESTR.norm>
0

>  <SCORE.SYSTEM>
-1.04651

>  <SCORE.SYSTEM.CONST>
0

>  <SCORE.SYSTEM.DIHEDRAL>
0.0378164

>  <SCORE.SYSTEM.POLAR>
-0.00322577

>  <SCORE.SYSTEM.VDW>
-1.05445

>  <SCORE.SYSTEM.norm>
-0.0498337

>  <SCORE.heavy>
21

>  <SCORE.norm>
-0.563653

$$$$
10168
  RxDock  02242113123D
librxdock.so/0.1.0
 24 26  0  0  0  0  0  0  0  0999 V2000
  -44.1807   -2.6008   14.4470 O   0  0  0  0  0  0
  -43.0676   -1.9333   16.6554 O   0  0  0  0  0  0
  -47.7990   -1.1318   19.0071 O   0  0  0  0  0  0
  -41.8016   -1.2951   18.7896 O   0  0  0  0  0  0
  -48.8618   -3.5450   13.3017 O   0  0  0  0  0  0
  -50.0563   -1.9782   14.4352 O   0  0  0  0  0  0
  -45.4064   -1.9631   16.4446 C   0  0  0  0  0  0
  -46.6428   -1.7536   17.0589 C   0  0  0  0  0  0
  -44.2236   -1.3145   18.6039 C   0  0  0  0  0  0
  -45.4601   -1.1050   19.2182 C   0  0  0  0  0  0
  -44.1515   -1.7511   17.1945 C   0  0  0  0  0  0
  -46.7148   -1.3169   18.4681 C   0  0  0  0  0  0
  -45.3520   -2.3771   15.1082 C   0  0  0  0  0  0
  -47.8248   -1.9580   16.3369 C   0  0  0  0  0  0
  -43.0416   -1.1101   19.3259 C   0  0  0  0  0  0
  -47.7660   -2.3707   15.0054 C   0  0  0  0  0  0
  -45.5146   -0.6910   20.5545 C   0  0  0  0  0  0
  -46.5323   -2.5798   14.3923 C   0  0  0  0  0  0
  -43.1005   -0.6979   20.6575 C   0  0  0  0  0  0
  -44.3344   -0.4887   21.2705 C   0  0  0  0  0  0
  -48.9943   -2.5832   14.2558 C   0  0  0  0  0  0
  -43.4302   -2.3463   15.0104 H   0  0  0  0  0  0
  -41.6949   -2.2049   18.4746 H   0  0  0  0  0  0
  -48.0193   -4.0388   13.3957 H   0  0  0  0  0  0
  1 13  1  0  0  0
  1 22  1  0  0  0
  2 11  2  0  0  0
  3 12  2  0  0  0
  4 15  1  0  0  0
  4 23  1  0  0  0
  5 21  1  0  0  0
  5 24  1  0  0  0
  6 21  2  0  0  0
  7  8  2  0  0  0
  7 11  1  0  0  0
  7 13  1  0  0  0
  8 12  1  0  0  0
  8 14  1  0  0  0
  9 10  2  0  0  0
  9 11  1  0  0  0
  9 15  1  0  0  0
 10 12  1  0  0  0
 10 17  1  0  0  0
 13 18  2  0  0  0
 14 16  2  0  0  0
 15 19  2  0  0  0
 16 18  1  0  0  0
 16 21  1  0  0  0
 17 20  2  0  0  0
 19 20  1  0  0  0
M  END
>  <CHROM.0>
-170.89403857,-63.00875310,-64.36007473

>  <CHROM.1>
-5.54788740,-58.82733777,-169.51806215,-149.68006667,-45.75135068,-1.77274290
17.08846801,-2.27741659,-0.03091596,1.24900060

>  <Name>
10168

>  <PUBCHEM_ATOM_DEF_STEREO_COUNT>
0

>  <PUBCHEM_ATOM_UDEF_STEREO_COUNT>
0

>  <PUBCHEM_BOND_DEF_STEREO_COUNT>
0

>  <PUBCHEM_BOND_UDEF_STEREO_COUNT>
0

>  <PUBCHEM_CACTVS_TAUTO_COUNT>
24

>  <PUBCHEM_COMPONENT_COUNT>
1

>  <PUBCHEM_COMPOUND_CID>
10168

>  <PUBCHEM_CONFORMER_DIVERSEORDER>
1

>  <PUBCHEM_CONFORMER_ID>
000027B800000001

>  <PUBCHEM_CONFORMER_RMSD>
0.6

>  <PUBCHEM_COORDINATE_TYPE>
2
5
10

>  <PUBCHEM_EFFECTIVE_ROTOR_COUNT>
1

>  <PUBCHEM_FEATURE_SELFOVERLAP>
50.846

>  <PUBCHEM_HEAVY_ATOM_COUNT>
21

>  <PUBCHEM_ISOTOPIC_ATOM_COUNT>
0

>  <PUBCHEM_MMFF94_ENERGY>
68.6965

>  <PUBCHEM_MMFF94_PARTIAL_CHARGES>
29
1 -0.53
10 0.09
11 0.4
12 0.4
13 0.08
14 -0.15
15 0.08
16 0.09
17 -0.15
18 -0.15
19 -0.15
2 -0.57
20 -0.15
21 0.63
22 0.15
23 0.15
24 0.15
25 0.15
26 0.15
27 0.45
28 0.45
29 0.5
3 -0.57
4 -0.53
5 -0.65
6 -0.57
7 0.09
8 0.09
9 0.09

>  <PUBCHEM_PHARMACOPHORE_FEATURES>
10
1 1 donor
1 2 acceptor
1 3 acceptor
1 4 donor
1 5 acceptor
1 6 acceptor
3 5 6 21 anion
6 7 8 13 14 16 18 rings
6 7 8 9 10 11 12 rings
6 9 10 15 17 19 20 rings

>  <PUBCHEM_SHAPE_FINGERPRINT>
10411042 1 17474108078014113454
10493431 412 18269565953339895465
10498660 4 18410294674922913756
10616163 171 18410857672284589919
10967382 1 18338516322768651303
11112241 14 16053761070513734896
11132069 177 18409728443646081177
11578080 2 16880465970251001054
12011746 2 18411414016725795421
12236239 1 17822008735941251148
12390115 104 18200049372811105841
12403814 3 17603301544648884029
12788726 201 17130428969891162825
12839892 36 18337935806573543930
12954195 1 17914635873199923916
13132413 78 18412263956188401997
13140716 1 17978237380748065187
13214271 11 18413105065582804717
138480 1 17689997830145918786
13862211 1 18410849988456228526
14787075 74 18271241724201582520
14790565 3 18410863182654238816
15196674 1 18410573989646956454
15442244 35 17978509737119017459
15536298 74 18270120106524723222
16945 1 18338797943927191847
19591789 44 18339360880600163352
200 152 18060414720851970709
20510252 161 18343586217802211793
21029758 11 18343016726961894417
21267235 1 18410019848582002819
21421861 104 17898004620951251034
2334 1 18410855434849033379
23366157 5 17970072141091609650
23402539 116 18342168981657591294
23463225 33 18336828581004649021
23557571 272 18272379688914152982
23559900 14 18198340655049243982
2748010 2 18338801104986231055
335352 9 18266458707240121534
34934 24 18410288074001057415
350125 39 18338802342116335721
3545911 37 18410294679449859541
4214541 1 18410575071905095872
474 4 17748835132931610636
474229 33 18410572911836947014
5104073 3 18410011018223987362
58051976 378 18340767031444580180
59755656 215 18340493253766844862
7364860 26 18197216936859193670
9709674 26 18340492162006407318

>  <PUBCHEM_SHAPE_MULTIPOLES>
396.95
8.82
2.71
0.59
3.87
0.56
0
-1.97
0
-0.5
0
-0.03
-0.02
0

>  <PUBCHEM_SHAPE_SELFOVERLAP>
903.159

>  <PUBCHEM_SHAPE_VOLUME>
204.5

>  <RI>
-5.14288e+08

>  <Rbt.Current_Directory>
/root/miniconda3/envs/rdock/share/rxdock-2013.1.1_148c5bd1-0/data/ligands/prepped_ligands/Rhein

>  <Rbt.Executable>
rbdock/0.1.0

>  <Rbt.Library>
librxdock.so/0.1.0

>  <Rbt.Parameter_File>
/root/miniconda3/envs/rdock/share/rxdock-2013.1.1_148c5bd1-0/data/scripts/dock.prm

>  <Rbt.Receptor>
def.prm

>  <SCORE>
-10.9763

>  <SCORE.INTER>
-14.1492

>  <SCORE.INTER.CONST>
1

>  <SCORE.INTER.POLAR>
-1.6328

>  <SCORE.INTER.REPUL>
0

>  <SCORE.INTER.ROT>
1

>  <SCORE.INTER.VDW>
-14.9977

>  <SCORE.INTER.norm>
-0.673773

>  <SCORE.INTRA>
4.10472

>  <SCORE.INTRA.DIHEDRAL>
7.59734

>  <SCORE.INTRA.DIHEDRAL.0>
1.91521e-05

>  <SCORE.INTRA.POLAR>
0.0211061

>  <SCORE.INTRA.POLAR.0>
-0.0515654

>  <SCORE.INTRA.REPUL>
0

>  <SCORE.INTRA.REPUL.0>
0

>  <SCORE.INTRA.VDW>
0.234295

>  <SCORE.INTRA.VDW.0>
1.17338

>  <SCORE.INTRA.norm>
0.195463

>  <SCORE.RESTR>
0

>  <SCORE.RESTR.CAVITY>
0

>  <SCORE.RESTR.norm>
0

>  <SCORE.SYSTEM>
-0.931802

>  <SCORE.SYSTEM.CONST>
0

>  <SCORE.SYSTEM.DIHEDRAL>
0.289265

>  <SCORE.SYSTEM.VDW>
-1.07643

>  <SCORE.SYSTEM.norm>
-0.0443715

>  <SCORE.heavy>
21

>  <SCORE.norm>
-0.522682

$$$$
10168
  RxDock  02242113123D
librxdock.so/0.1.0
 24 26  0  0  0  0  0  0  0  0999 V2000
  -46.8490   -3.2052   15.2868 O   0  0  0  0  0  0
  -48.2389   -5.1024   16.3020 O   0  0  0  0  0  0
  -52.8185   -2.7993   14.7914 O   0  0  0  0  0  0
  -49.4812   -7.0761   17.3631 O   0  0  0  0  0  0
  -50.4280    0.7659   12.6685 O   0  0  0  0  0  0
  -48.1981    1.1044   12.9503 O   0  0  0  0  0  0
  -49.2757   -3.2900   15.2270 C   0  0  0  0  0  0
  -50.4722   -2.6881   14.8322 C   0  0  0  0  0  0
  -50.5844   -5.2149   16.2586 C   0  0  0  0  0  0
  -51.7810   -4.6128   15.8639 C   0  0  0  0  0  0
  -49.2879   -4.5754   15.9547 C   0  0  0  0  0  0
  -51.7686   -3.3275   15.1363 C   0  0  0  0  0  0
  -48.0536   -2.6736   14.9324 C   0  0  0  0  0  0
  -50.4468   -1.4696   14.1430 C   0  0  0  0  0  0
  -50.6099   -6.4334   16.9478 C   0  0  0  0  0  0
  -49.2268   -0.8588   13.8516 C   0  0  0  0  0  0
  -53.0031   -5.2292   16.1584 C   0  0  0  0  0  0
  -48.0327   -1.4594   14.2453 C   0  0  0  0  0  0
  -51.8299   -7.0443   17.2389 C   0  0  0  0  0  0
  -53.0240   -6.4435   16.8451 C   0  0  0  0  0  0
  -49.2008    0.4069   13.1353 C   0  0  0  0  0  0
  -46.8132   -4.1419   15.0286 H   0  0  0  0  0  0
  -48.6890   -6.6405   17.0151 H   0  0  0  0  0  0
  -50.3972    1.6126   12.1740 H   0  0  0  0  0  0
  1 13  1  0  0  0
  1 22  1  0  0  0
  2 11  2  0  0  0
  3 12  2  0  0  0
  4 15  1  0  0  0
  4 23  1  0  0  0
  5 21  1  0  0  0
  5 24  1  0  0  0
  6 21  2  0  0  0
  7  8  2  0  0  0
  7 11  1  0  0  0
  7 13  1  0  0  0
  8 12  1  0  0  0
  8 14  1  0  0  0
  9 10  2  0  0  0
  9 11  1  0  0  0
  9 15  1  0  0  0
 10 12  1  0  0  0
 10 17  1  0  0  0
 13 18  2  0  0  0
 14 16  2  0  0  0
 15 19  2  0  0  0
 16 18  1  0  0  0
 16 21  1  0  0  0
 17 20  2  0  0  0
 19 20  1  0  0  0
M  END
>  <CHROM.0>
-56.78973110,-55.56298987,-55.36932608

>  <CHROM.1>
48.68364264,-7.55992618,0.91639448,-8.27321005,-50.06232434,-3.34813395,15.21803825
-1.27672170,0.04352024,2.62394319

>  <Name>
10168

>  <PUBCHEM_ATOM_DEF_STEREO_COUNT>
0

>  <PUBCHEM_ATOM_UDEF_STEREO_COUNT>
0

>  <PUBCHEM_BOND_DEF_STEREO_COUNT>
0

>  <PUBCHEM_BOND_UDEF_STEREO_COUNT>
0

>  <PUBCHEM_CACTVS_TAUTO_COUNT>
24

>  <PUBCHEM_COMPONENT_COUNT>
1

>  <PUBCHEM_COMPOUND_CID>
10168

>  <PUBCHEM_CONFORMER_DIVERSEORDER>
1

>  <PUBCHEM_CONFORMER_ID>
000027B800000001

>  <PUBCHEM_CONFORMER_RMSD>
0.6

>  <PUBCHEM_COORDINATE_TYPE>
2
5
10

>  <PUBCHEM_EFFECTIVE_ROTOR_COUNT>
1

>  <PUBCHEM_FEATURE_SELFOVERLAP>
50.846

>  <PUBCHEM_HEAVY_ATOM_COUNT>
21

>  <PUBCHEM_ISOTOPIC_ATOM_COUNT>
0

>  <PUBCHEM_MMFF94_ENERGY>
68.6965

>  <PUBCHEM_MMFF94_PARTIAL_CHARGES>
29
1 -0.53
10 0.09
11 0.4
12 0.4
13 0.08
14 -0.15
15 0.08
16 0.09
17 -0.15
18 -0.15
19 -0.15
2 -0.57
20 -0.15
21 0.63
22 0.15
23 0.15
24 0.15
25 0.15
26 0.15
27 0.45
28 0.45
29 0.5
3 -0.57
4 -0.53
5 -0.65
6 -0.57
7 0.09
8 0.09
9 0.09

>  <PUBCHEM_PHARMACOPHORE_FEATURES>
10
1 1 donor
1 2 acceptor
1 3 acceptor
1 4 donor
1 5 acceptor
1 6 acceptor
3 5 6 21 anion
6 7 8 13 14 16 18 rings
6 7 8 9 10 11 12 rings
6 9 10 15 17 19 20 rings

>  <PUBCHEM_SHAPE_FINGERPRINT>
10411042 1 17474108078014113454
10493431 412 18269565953339895465
10498660 4 18410294674922913756
10616163 171 18410857672284589919
10967382 1 18338516322768651303
11112241 14 16053761070513734896
11132069 177 18409728443646081177
11578080 2 16880465970251001054
12011746 2 18411414016725795421
12236239 1 17822008735941251148
12390115 104 18200049372811105841
12403814 3 17603301544648884029
12788726 201 17130428969891162825
12839892 36 18337935806573543930
12954195 1 17914635873199923916
13132413 78 18412263956188401997
13140716 1 17978237380748065187
13214271 11 18413105065582804717
138480 1 17689997830145918786
13862211 1 18410849988456228526
14787075 74 18271241724201582520
14790565 3 18410863182654238816
15196674 1 18410573989646956454
15442244 35 17978509737119017459
15536298 74 18270120106524723222
16945 1 18338797943927191847
19591789 44 18339360880600163352
200 152 18060414720851970709
20510252 161 18343586217802211793
21029758 11 18343016726961894417
21267235 1 18410019848582002819
21421861 104 17898004620951251034
2334 1 18410855434849033379
23366157 5 17970072141091609650
23402539 116 18342168981657591294
23463225 33 18336828581004649021
23557571 272 18272379688914152982
23559900 14 18198340655049243982
2748010 2 18338801104986231055
335352 9 18266458707240121534
34934 24 18410288074001057415
350125 39 18338802342116335721
3545911 37 18410294679449859541
4214541 1 18410575071905095872
474 4 17748835132931610636
474229 33 18410572911836947014
5104073 3 18410011018223987362
58051976 378 18340767031444580180
59755656 215 18340493253766844862
7364860 26 18197216936859193670
9709674 26 18340492162006407318

>  <PUBCHEM_SHAPE_MULTIPOLES>
396.95
8.82
2.71
0.59
3.87
0.56
0
-1.97
0
-0.5
0
-0.03
-0.02
0

>  <PUBCHEM_SHAPE_SELFOVERLAP>
903.159

>  <PUBCHEM_SHAPE_VOLUME>
204.5

>  <RI>
-5.14288e+08

>  <Rbt.Current_Directory>
/root/miniconda3/envs/rdock/share/rxdock-2013.1.1_148c5bd1-0/data/ligands/prepped_ligands/Rhein

>  <Rbt.Executable>
rbdock/0.1.0

>  <Rbt.Library>
librxdock.so/0.1.0

>  <Rbt.Parameter_File>
/root/miniconda3/envs/rdock/share/rxdock-2013.1.1_148c5bd1-0/data/scripts/dock.prm

>  <Rbt.Receptor>
def.prm

>  <SCORE>
-15.5106

>  <SCORE.INTER>
-15.3368

>  <SCORE.INTER.CONST>
1

>  <SCORE.INTER.POLAR>
-1.8234

>  <SCORE.INTER.REPUL>
0.0830977

>  <SCORE.INTER.ROT>
1

>  <SCORE.INTER.VDW>
-15.9527

>  <SCORE.INTER.norm>
-0.730322

>  <SCORE.INTRA>
0.752243

>  <SCORE.INTRA.DIHEDRAL>
3.06198

>  <SCORE.INTRA.DIHEDRAL.0>
1.91521e-05

>  <SCORE.INTRA.POLAR>
0.00645718

>  <SCORE.INTRA.POLAR.0>
-0.0515654

>  <SCORE.INTRA.REPUL>
0

>  <SCORE.INTRA.REPUL.0>
0

>  <SCORE.INTRA.VDW>
-0.800701

>  <SCORE.INTRA.VDW.0>
1.17338

>  <SCORE.INTRA.norm>
0.0358211

>  <SCORE.RESTR>
0

>  <SCORE.RESTR.CAVITY>
0

>  <SCORE.RESTR.norm>
0

>  <SCORE.SYSTEM>
-0.926056

>  <SCORE.SYSTEM.CONST>
0

>  <SCORE.SYSTEM.DIHEDRAL>
0.168829

>  <SCORE.SYSTEM.POLAR>
-0.010812

>  <SCORE.SYSTEM.VDW>
-0.97371

>  <SCORE.SYSTEM.norm>
-0.0440979

>  <SCORE.heavy>
21

>  <SCORE.norm>
-0.738599

$$$$
10168
  RxDock  02242113123D
librxdock.so/0.1.0
 24 26  0  0  0  0  0  0  0  0999 V2000
  -50.5398   -7.8489   19.4509 O   0  0  0  0  0  0
  -52.2817   -8.6980   17.7756 O   0  0  0  0  0  0
  -53.7169   -3.7189   16.4686 O   0  0  0  0  0  0
  -53.9752   -9.7078   16.1395 O   0  0  0  0  0  0
  -49.2708   -3.4572   21.0245 O   0  0  0  0  0  0
  -50.1805   -1.9038   19.6367 O   0  0  0  0  0  0
  -51.9568   -6.3970   18.1154 C   0  0  0  0  0  0
  -52.3318   -5.0960   17.7740 C   0  0  0  0  0  0
  -53.6644   -7.3212   16.4685 C   0  0  0  0  0  0
  -54.0395   -6.0200   16.1272 C   0  0  0  0  0  0
  -52.6094   -7.5573   17.4752 C   0  0  0  0  0  0
  -53.3868   -4.8599   16.7675 C   0  0  0  0  0  0
  -50.9553   -6.6071   19.0709 C   0  0  0  0  0  0
  -51.7054   -4.0048   18.3882 C   0  0  0  0  0  0
  -54.2909   -8.4123   15.8542 C   0  0  0  0  0  0
  -50.7078   -4.2186   19.3399 C   0  0  0  0  0  0
  -55.0409   -5.8099   15.1717 C   0  0  0  0  0  0
  -50.3335   -5.5169   19.6806 C   0  0  0  0  0  0
  -55.2882   -8.1984   14.9023 C   0  0  0  0  0  0
  -55.6624   -6.8999   14.5618 C   0  0  0  0  0  0
  -50.0570   -3.0847   19.9776 C   0  0  0  0  0  0
  -50.9989   -8.5255   18.9247 H   0  0  0  0  0  0
  -54.7118  -10.2979   15.9210 H   0  0  0  0  0  0
  -48.8807   -2.6820   21.4820 H   0  0  0  0  0  0
  1 13  1  0  0  0
  1 22  1  0  0  0
  2 11  2  0  0  0
  3 12  2  0  0  0
  4 15  1  0  0  0
  4 23  1  0  0  0
  5 21  1  0  0  0
  5 24  1  0  0  0
  6 21  2  0  0  0
  7  8  2  0  0  0
  7 11  1  0  0  0
  7 13  1  0  0  0
  8 12  1  0  0  0
  8 14  1  0  0  0
  9 10  2  0  0  0
  9 11  1  0  0  0
  9 15  1  0  0  0
 10 12  1  0  0  0
 10 17  1  0  0  0
 13 18  2  0  0  0
 14 16  2  0  0  0
 15 19  2  0  0  0
 16 18  1  0  0  0
 16 21  1  0  0  0
 17 20  2  0  0  0
 19 20  1  0  0  0
M  END
>  <CHROM.0>
-62.21859555,-60.61967713,-62.03159739

>  <CHROM.1>
3.49584738,156.76816384,3.46435771,170.08892901,-52.41729966,-5.97666461
17.68656606,-0.59769776,0.77026318,-3.13738999

>  <Name>
10168

>  <PUBCHEM_ATOM_DEF_STEREO_COUNT>
0

>  <PUBCHEM_ATOM_UDEF_STEREO_COUNT>
0

>  <PUBCHEM_BOND_DEF_STEREO_COUNT>
0

>  <PUBCHEM_BOND_UDEF_STEREO_COUNT>
0

>  <PUBCHEM_CACTVS_TAUTO_COUNT>
24

>  <PUBCHEM_COMPONENT_COUNT>
1

>  <PUBCHEM_COMPOUND_CID>
10168

>  <PUBCHEM_CONFORMER_DIVERSEORDER>
1

>  <PUBCHEM_CONFORMER_ID>
000027B800000001

>  <PUBCHEM_CONFORMER_RMSD>
0.6

>  <PUBCHEM_COORDINATE_TYPE>
2
5
10

>  <PUBCHEM_EFFECTIVE_ROTOR_COUNT>
1

>  <PUBCHEM_FEATURE_SELFOVERLAP>
50.846

>  <PUBCHEM_HEAVY_ATOM_COUNT>
21

>  <PUBCHEM_ISOTOPIC_ATOM_COUNT>
0

>  <PUBCHEM_MMFF94_ENERGY>
68.6965

>  <PUBCHEM_MMFF94_PARTIAL_CHARGES>
29
1 -0.53
10 0.09
11 0.4
12 0.4
13 0.08
14 -0.15
15 0.08
16 0.09
17 -0.15
18 -0.15
19 -0.15
2 -0.57
20 -0.15
21 0.63
22 0.15
23 0.15
24 0.15
25 0.15
26 0.15
27 0.45
28 0.45
29 0.5
3 -0.57
4 -0.53
5 -0.65
6 -0.57
7 0.09
8 0.09
9 0.09

>  <PUBCHEM_PHARMACOPHORE_FEATURES>
10
1 1 donor
1 2 acceptor
1 3 acceptor
1 4 donor
1 5 acceptor
1 6 acceptor
3 5 6 21 anion
6 7 8 13 14 16 18 rings
6 7 8 9 10 11 12 rings
6 9 10 15 17 19 20 rings

>  <PUBCHEM_SHAPE_FINGERPRINT>
10411042 1 17474108078014113454
10493431 412 18269565953339895465
10498660 4 18410294674922913756
10616163 171 18410857672284589919
10967382 1 18338516322768651303
11112241 14 16053761070513734896
11132069 177 18409728443646081177
11578080 2 16880465970251001054
12011746 2 18411414016725795421
12236239 1 17822008735941251148
12390115 104 18200049372811105841
12403814 3 17603301544648884029
12788726 201 17130428969891162825
12839892 36 18337935806573543930
12954195 1 17914635873199923916
13132413 78 18412263956188401997
13140716 1 17978237380748065187
13214271 11 18413105065582804717
138480 1 17689997830145918786
13862211 1 18410849988456228526
14787075 74 18271241724201582520
14790565 3 18410863182654238816
15196674 1 18410573989646956454
15442244 35 17978509737119017459
15536298 74 18270120106524723222
16945 1 18338797943927191847
19591789 44 18339360880600163352
200 152 18060414720851970709
20510252 161 18343586217802211793
21029758 11 18343016726961894417
21267235 1 18410019848582002819
21421861 104 17898004620951251034
2334 1 18410855434849033379
23366157 5 17970072141091609650
23402539 116 18342168981657591294
23463225 33 18336828581004649021
23557571 272 18272379688914152982
23559900 14 18198340655049243982
2748010 2 18338801104986231055
335352 9 18266458707240121534
34934 24 18410288074001057415
350125 39 18338802342116335721
3545911 37 18410294679449859541
4214541 1 18410575071905095872
474 4 17748835132931610636
474229 33 18410572911836947014
5104073 3 18410011018223987362
58051976 378 18340767031444580180
59755656 215 18340493253766844862
7364860 26 18197216936859193670
9709674 26 18340492162006407318

>  <PUBCHEM_SHAPE_MULTIPOLES>
396.95
8.82
2.71
0.59
3.87
0.56
0
-1.97
0
-0.5
0
-0.03
-0.02
0

>  <PUBCHEM_SHAPE_SELFOVERLAP>
903.159

>  <PUBCHEM_SHAPE_VOLUME>
204.5

>  <RI>
-5.14288e+08

>  <Rbt.Current_Directory>
/root/miniconda3/envs/rdock/share/rxdock-2013.1.1_148c5bd1-0/data/ligands/prepped_ligands/Rhein

>  <Rbt.Executable>
rbdock/0.1.0

>  <Rbt.Library>
librxdock.so/0.1.0

>  <Rbt.Parameter_File>
/root/miniconda3/envs/rdock/share/rxdock-2013.1.1_148c5bd1-0/data/scripts/dock.prm

>  <Rbt.Receptor>
def.prm

>  <SCORE>
-16.9508

>  <SCORE.INTER>
-16.3464

>  <SCORE.INTER.CONST>
1

>  <SCORE.INTER.POLAR>
-1.38386

>  <SCORE.INTER.REPUL>
0

>  <SCORE.INTER.ROT>
1

>  <SCORE.INTER.VDW>
-18.0413

>  <SCORE.INTER.norm>
-0.778402

>  <SCORE.INTRA>
0.459144

>  <SCORE.INTRA.DIHEDRAL>
1.22823

>  <SCORE.INTRA.DIHEDRAL.0>
1.91521e-05

>  <SCORE.INTRA.POLAR>
0.0196537

>  <SCORE.INTRA.POLAR.0>
-0.0515654

>  <SCORE.INTRA.REPUL>
0

>  <SCORE.INTRA.REPUL.0>
0

>  <SCORE.INTRA.VDW>
-0.221793

>  <SCORE.INTRA.VDW.0>
1.17338

>  <SCORE.INTRA.norm>
0.021864

>  <SCORE.RESTR>
0

>  <SCORE.RESTR.CAVITY>
0

>  <SCORE.RESTR.norm>
0

>  <SCORE.SYSTEM>
-1.06348

>  <SCORE.SYSTEM.CONST>
0

>  <SCORE.SYSTEM.DIHEDRAL>
0.0276903

>  <SCORE.SYSTEM.VDW>
-1.07732

>  <SCORE.SYSTEM.norm>
-0.0506418

>  <SCORE.heavy>
21

>  <SCORE.norm>
-0.80718

$$$$
