10168
  RxDock  02242112063D
librxdock.so/0.1.0
 24 26  0  0  0  0  0  0  0  0999 V2000
  -52.5276   -3.3924   14.6210 O   0  0  0  0  0  0
  -50.2645   -4.1344   15.5644 O   0  0  0  0  0  0
  -52.4157   -8.4920   17.7875 O   0  0  0  0  0  0
  -47.9309   -4.7377   16.4331 O   0  0  0  0  0  0
  -57.1261   -5.1475   15.9791 O   0  0  0  0  0  0
  -56.8549   -7.1950   15.0302 O   0  0  0  0  0  0
  -52.2016   -5.4098   15.9339 C   0  0  0  0  0  0
  -52.7638   -6.5483   16.5148 C   0  0  0  0  0  0
  -49.9160   -6.0790   16.8343 C   0  0  0  0  0  0
  -50.4784   -7.2176   17.4153 C   0  0  0  0  0  0
  -50.7572   -5.1333   16.0724 C   0  0  0  0  0  0
  -51.9228   -7.4938   17.2768 C   0  0  0  0  0  0
  -53.0098   -4.5216   15.2141 C   0  0  0  0  0  0
  -54.1343   -6.7988   16.3761 C   0  0  0  0  0  0
  -48.5455   -5.8287   16.9731 C   0  0  0  0  0  0
  -54.9361   -5.9110   15.6579 C   0  0  0  0  0  0
  -49.6702   -8.1059   18.1350 C   0  0  0  0  0  0
  -54.3752   -4.7749   15.0782 C   0  0  0  0  0  0
  -47.7438   -6.7166   17.6908 C   0  0  0  0  0  0
  -48.3050   -7.8528   18.2706 C   0  0  0  0  0  0
  -56.3599   -6.1717   15.5138 C   0  0  0  0  0  0
  -53.2243   -2.9791   14.0834 H   0  0  0  0  0  0
  -47.1341   -4.5083   16.9340 H   0  0  0  0  0  0
  -58.0725   -5.2661   15.7497 H   0  0  0  0  0  0
  1 13  1  0  0  0
  1 22  1  0  0  0
  2 11  2  0  0  0
  3 12  2  0  0  0
  4 15  1  0  0  0
  4 23  1  0  0  0
  5 21  1  0  0  0
  5 24  1  0  0  0
  6 21  2  0  0  0
  7  8  2  0  0  0
  7 11  1  0  0  0
  7 13  1  0  0  0
  8 12  1  0  0  0
  8 14  1  0  0  0
  9 10  2  0  0  0
  9 11  1  0  0  0
  9 15  1  0  0  0
 10 12  1  0  0  0
 10 17  1  0  0  0
 13 18  2  0  0  0
 14 16  2  0  0  0
 15 19  2  0  0  0
 16 18  1  0  0  0
 16 21  1  0  0  0
 17 20  2  0  0  0
 19 20  1  0  0  0
M  END
>  <CHROM.0>
61.94961686,-66.12225846,-179.32977741

>  <CHROM.1>
172.93347304,154.10799279,-9.16625176,122.95172402,-52.07012585,-6.02602820
16.36090829,-2.95363406,0.17561954,2.61579676

>  <Name>
10168

>  <PUBCHEM_ATOM_DEF_STEREO_COUNT>
0

>  <PUBCHEM_ATOM_UDEF_STEREO_COUNT>
0

>  <PUBCHEM_BOND_DEF_STEREO_COUNT>
0

>  <PUBCHEM_BOND_UDEF_STEREO_COUNT>
0

>  <PUBCHEM_CACTVS_TAUTO_COUNT>
24

>  <PUBCHEM_COMPONENT_COUNT>
1

>  <PUBCHEM_COMPOUND_CID>
10168

>  <PUBCHEM_CONFORMER_DIVERSEORDER>
1

>  <PUBCHEM_CONFORMER_ID>
000027B800000001

>  <PUBCHEM_CONFORMER_RMSD>
0.6

>  <PUBCHEM_COORDINATE_TYPE>
2
5
10

>  <PUBCHEM_EFFECTIVE_ROTOR_COUNT>
1

>  <PUBCHEM_FEATURE_SELFOVERLAP>
50.846

>  <PUBCHEM_HEAVY_ATOM_COUNT>
21

>  <PUBCHEM_ISOTOPIC_ATOM_COUNT>
0

>  <PUBCHEM_MMFF94_ENERGY>
68.6965

>  <PUBCHEM_MMFF94_PARTIAL_CHARGES>
29
1 -0.53
10 0.09
11 0.4
12 0.4
13 0.08
14 -0.15
15 0.08
16 0.09
17 -0.15
18 -0.15
19 -0.15
2 -0.57
20 -0.15
21 0.63
22 0.15
23 0.15
24 0.15
25 0.15
26 0.15
27 0.45
28 0.45
29 0.5
3 -0.57
4 -0.53
5 -0.65
6 -0.57
7 0.09
8 0.09
9 0.09

>  <PUBCHEM_PHARMACOPHORE_FEATURES>
10
1 1 donor
1 2 acceptor
1 3 acceptor
1 4 donor
1 5 acceptor
1 6 acceptor
3 5 6 21 anion
6 7 8 13 14 16 18 rings
6 7 8 9 10 11 12 rings
6 9 10 15 17 19 20 rings

>  <PUBCHEM_SHAPE_FINGERPRINT>
10411042 1 17474108078014113454
10493431 412 18269565953339895465
10498660 4 18410294674922913756
10616163 171 18410857672284589919
10967382 1 18338516322768651303
11112241 14 16053761070513734896
11132069 177 18409728443646081177
11578080 2 16880465970251001054
12011746 2 18411414016725795421
12236239 1 17822008735941251148
12390115 104 18200049372811105841
12403814 3 17603301544648884029
12788726 201 17130428969891162825
12839892 36 18337935806573543930
12954195 1 17914635873199923916
13132413 78 18412263956188401997
13140716 1 17978237380748065187
13214271 11 18413105065582804717
138480 1 17689997830145918786
13862211 1 18410849988456228526
14787075 74 18271241724201582520
14790565 3 18410863182654238816
15196674 1 18410573989646956454
15442244 35 17978509737119017459
15536298 74 18270120106524723222
16945 1 18338797943927191847
19591789 44 18339360880600163352
200 152 18060414720851970709
20510252 161 18343586217802211793
21029758 11 18343016726961894417
21267235 1 18410019848582002819
21421861 104 17898004620951251034
2334 1 18410855434849033379
23366157 5 17970072141091609650
23402539 116 18342168981657591294
23463225 33 18336828581004649021
23557571 272 18272379688914152982
23559900 14 18198340655049243982
2748010 2 18338801104986231055
335352 9 18266458707240121534
34934 24 18410288074001057415
350125 39 18338802342116335721
3545911 37 18410294679449859541
4214541 1 18410575071905095872
474 4 17748835132931610636
474229 33 18410572911836947014
5104073 3 18410011018223987362
58051976 378 18340767031444580180
59755656 215 18340493253766844862
7364860 26 18197216936859193670
9709674 26 18340492162006407318

>  <PUBCHEM_SHAPE_MULTIPOLES>
396.95
8.82
2.71
0.59
3.87
0.56
0
-1.97
0
-0.5
0
-0.03
-0.02
0

>  <PUBCHEM_SHAPE_SELFOVERLAP>
903.159

>  <PUBCHEM_SHAPE_VOLUME>
204.5

>  <RI>
-9.19813e+08

>  <Rbt.Current_Directory>
/root/miniconda3/envs/rdock/share/rxdock-2013.1.1_148c5bd1-0/data/ligands/prepped_ligands/Rhein

>  <Rbt.Executable>
rbdock/0.1.0

>  <Rbt.Library>
librxdock.so/0.1.0

>  <Rbt.Parameter_File>
/root/miniconda3/envs/rdock/share/rxdock-2013.1.1_148c5bd1-0/data/scripts/dock.prm

>  <Rbt.Receptor>
def.prm

>  <SCORE>
-17.9056

>  <SCORE.INTER>
-21.5434

>  <SCORE.INTER.CONST>
1

>  <SCORE.INTER.POLAR>
-2.42568

>  <SCORE.INTER.REPUL>
0

>  <SCORE.INTER.ROT>
1

>  <SCORE.INTER.VDW>
-19.6961

>  <SCORE.INTER.norm>
-1.02588

>  <SCORE.INTRA>
4.68393

>  <SCORE.INTRA.DIHEDRAL>
10.5803

>  <SCORE.INTRA.DIHEDRAL.0>
1.91521e-05

>  <SCORE.INTRA.POLAR>
0.0515654

>  <SCORE.INTRA.POLAR.0>
-0.0515654

>  <SCORE.INTRA.REPUL>
0

>  <SCORE.INTRA.REPUL.0>
0

>  <SCORE.INTRA.VDW>
-0.781552

>  <SCORE.INTRA.VDW.0>
1.17338

>  <SCORE.INTRA.norm>
0.223044

>  <SCORE.RESTR>
0

>  <SCORE.RESTR.CAVITY>
0

>  <SCORE.RESTR.norm>
0

>  <SCORE.SYSTEM>
-1.04613

>  <SCORE.SYSTEM.CONST>
0

>  <SCORE.SYSTEM.DIHEDRAL>
0.192082

>  <SCORE.SYSTEM.POLAR>
-0.00363441

>  <SCORE.SYSTEM.VDW>
-1.12981

>  <SCORE.SYSTEM.norm>
-0.0498157

>  <SCORE.heavy>
21

>  <SCORE.norm>
-0.852649

$$$$
10168
  RxDock  02242112063D
librxdock.so/0.1.0
 24 26  0  0  0  0  0  0  0  0999 V2000
  -54.0261   -5.6636   16.3187 O   0  0  0  0  0  0
  -53.0667   -3.7431   14.9212 O   0  0  0  0  0  0
  -48.0579   -5.0115   16.2859 O   0  0  0  0  0  0
  -52.2685   -1.7834   13.4764 O   0  0  0  0  0  0
  -51.8578   -8.5667   19.7070 O   0  0  0  0  0  0
  -49.9934   -9.2686   18.6126 O   0  0  0  0  0  0
  -51.6538   -5.1769   16.1309 C   0  0  0  0  0  0
  -50.3451   -5.5084   16.4876 C   0  0  0  0  0  0
  -50.7799   -3.2482   14.7172 C   0  0  0  0  0  0
  -49.4711   -3.5797   15.0741 C   0  0  0  0  0  0
  -51.9192   -4.0346   15.2327 C   0  0  0  0  0  0
  -49.2059   -4.7219   15.9723 C   0  0  0  0  0  0
  -52.7248   -5.9306   16.6262 C   0  0  0  0  0  0
  -50.1072   -6.5935   17.3398 C   0  0  0  0  0  0
  -51.0177   -2.1630   13.8651 C   0  0  0  0  0  0
  -51.1773   -7.3419   17.8311 C   0  0  0  0  0  0
  -48.4002   -2.8261   14.5788 C   0  0  0  0  0  0
  -52.4833   -7.0113   17.4751 C   0  0  0  0  0  0
  -49.9476   -1.4150   13.3735 C   0  0  0  0  0  0
  -48.6416   -1.7458   13.7297 C   0  0  0  0  0  0
  -50.9297   -8.4694   18.7161 C   0  0  0  0  0  0
  -54.0698   -4.9424   15.6680 H   0  0  0  0  0  0
  -52.9123   -2.4850   13.6547 H   0  0  0  0  0  0
  -52.4441   -7.7807   19.7366 H   0  0  0  0  0  0
  1 13  1  0  0  0
  1 22  1  0  0  0
  2 11  2  0  0  0
  3 12  2  0  0  0
  4 15  1  0  0  0
  4 23  1  0  0  0
  5 21  1  0  0  0
  5 24  1  0  0  0
  6 21  2  0  0  0
  7  8  2  0  0  0
  7 11  1  0  0  0
  7 13  1  0  0  0
  8 12  1  0  0  0
  8 14  1  0  0  0
  9 10  2  0  0  0
  9 11  1  0  0  0
  9 15  1  0  0  0
 10 12  1  0  0  0
 10 17  1  0  0  0
 13 18  2  0  0  0
 14 16  2  0  0  0
 15 19  2  0  0  0
 16 18  1  0  0  0
 16 21  1  0  0  0
 17 20  2  0  0  0
 19 20  1  0  0  0
M  END
>  <CHROM.0>
60.38189253,-72.67432223,54.25665274

>  <CHROM.1>
4.60182640,-15.75904766,170.76759705,141.52601916,-50.92585571,-4.98764772
16.05789967,1.69757843,0.03496403,2.48061210

>  <Name>
10168

>  <PUBCHEM_ATOM_DEF_STEREO_COUNT>
0

>  <PUBCHEM_ATOM_UDEF_STEREO_COUNT>
0

>  <PUBCHEM_BOND_DEF_STEREO_COUNT>
0

>  <PUBCHEM_BOND_UDEF_STEREO_COUNT>
0

>  <PUBCHEM_CACTVS_TAUTO_COUNT>
24

>  <PUBCHEM_COMPONENT_COUNT>
1

>  <PUBCHEM_COMPOUND_CID>
10168

>  <PUBCHEM_CONFORMER_DIVERSEORDER>
1

>  <PUBCHEM_CONFORMER_ID>
000027B800000001

>  <PUBCHEM_CONFORMER_RMSD>
0.6

>  <PUBCHEM_COORDINATE_TYPE>
2
5
10

>  <PUBCHEM_EFFECTIVE_ROTOR_COUNT>
1

>  <PUBCHEM_FEATURE_SELFOVERLAP>
50.846

>  <PUBCHEM_HEAVY_ATOM_COUNT>
21

>  <PUBCHEM_ISOTOPIC_ATOM_COUNT>
0

>  <PUBCHEM_MMFF94_ENERGY>
68.6965

>  <PUBCHEM_MMFF94_PARTIAL_CHARGES>
29
1 -0.53
10 0.09
11 0.4
12 0.4
13 0.08
14 -0.15
15 0.08
16 0.09
17 -0.15
18 -0.15
19 -0.15
2 -0.57
20 -0.15
21 0.63
22 0.15
23 0.15
24 0.15
25 0.15
26 0.15
27 0.45
28 0.45
29 0.5
3 -0.57
4 -0.53
5 -0.65
6 -0.57
7 0.09
8 0.09
9 0.09

>  <PUBCHEM_PHARMACOPHORE_FEATURES>
10
1 1 donor
1 2 acceptor
1 3 acceptor
1 4 donor
1 5 acceptor
1 6 acceptor
3 5 6 21 anion
6 7 8 13 14 16 18 rings
6 7 8 9 10 11 12 rings
6 9 10 15 17 19 20 rings

>  <PUBCHEM_SHAPE_FINGERPRINT>
10411042 1 17474108078014113454
10493431 412 18269565953339895465
10498660 4 18410294674922913756
10616163 171 18410857672284589919
10967382 1 18338516322768651303
11112241 14 16053761070513734896
11132069 177 18409728443646081177
11578080 2 16880465970251001054
12011746 2 18411414016725795421
12236239 1 17822008735941251148
12390115 104 18200049372811105841
12403814 3 17603301544648884029
12788726 201 17130428969891162825
12839892 36 18337935806573543930
12954195 1 17914635873199923916
13132413 78 18412263956188401997
13140716 1 17978237380748065187
13214271 11 18413105065582804717
138480 1 17689997830145918786
13862211 1 18410849988456228526
14787075 74 18271241724201582520
14790565 3 18410863182654238816
15196674 1 18410573989646956454
15442244 35 17978509737119017459
15536298 74 18270120106524723222
16945 1 18338797943927191847
19591789 44 18339360880600163352
200 152 18060414720851970709
20510252 161 18343586217802211793
21029758 11 18343016726961894417
21267235 1 18410019848582002819
21421861 104 17898004620951251034
2334 1 18410855434849033379
23366157 5 17970072141091609650
23402539 116 18342168981657591294
23463225 33 18336828581004649021
23557571 272 18272379688914152982
23559900 14 18198340655049243982
2748010 2 18338801104986231055
335352 9 18266458707240121534
34934 24 18410288074001057415
350125 39 18338802342116335721
3545911 37 18410294679449859541
4214541 1 18410575071905095872
474 4 17748835132931610636
474229 33 18410572911836947014
5104073 3 18410011018223987362
58051976 378 18340767031444580180
59755656 215 18340493253766844862
7364860 26 18197216936859193670
9709674 26 18340492162006407318

>  <PUBCHEM_SHAPE_MULTIPOLES>
396.95
8.82
2.71
0.59
3.87
0.56
0
-1.97
0
-0.5
0
-0.03
-0.02
0

>  <PUBCHEM_SHAPE_SELFOVERLAP>
903.159

>  <PUBCHEM_SHAPE_VOLUME>
204.5

>  <RI>
-9.19813e+08

>  <Rbt.Current_Directory>
/root/miniconda3/envs/rdock/share/rxdock-2013.1.1_148c5bd1-0/data/ligands/prepped_ligands/Rhein

>  <Rbt.Executable>
rbdock/0.1.0

>  <Rbt.Library>
librxdock.so/0.1.0

>  <Rbt.Parameter_File>
/root/miniconda3/envs/rdock/share/rxdock-2013.1.1_148c5bd1-0/data/scripts/dock.prm

>  <Rbt.Receptor>
def.prm

>  <SCORE>
-10.7995

>  <SCORE.INTER>
-13.1922

>  <SCORE.INTER.CONST>
1

>  <SCORE.INTER.POLAR>
-0.751102

>  <SCORE.INTER.REPUL>
0

>  <SCORE.INTER.ROT>
1

>  <SCORE.INTER.VDW>
-17.0385

>  <SCORE.INTER.norm>
-0.6282

>  <SCORE.INTRA>
2.97272

>  <SCORE.INTRA.DIHEDRAL>
5.92776

>  <SCORE.INTRA.DIHEDRAL.0>
1.91521e-05

>  <SCORE.INTRA.POLAR>
-0.0065323

>  <SCORE.INTRA.POLAR.0>
-0.0515654

>  <SCORE.INTRA.REPUL>
0

>  <SCORE.INTRA.REPUL.0>
0

>  <SCORE.INTRA.VDW>
0.0310508

>  <SCORE.INTRA.VDW.0>
1.17338

>  <SCORE.INTRA.norm>
0.141558

>  <SCORE.RESTR>
0.168481

>  <SCORE.RESTR.CAVITY>
0.168481

>  <SCORE.RESTR.norm>
0.00802292

>  <SCORE.SYSTEM>
-0.748502

>  <SCORE.SYSTEM.CONST>
0

>  <SCORE.SYSTEM.DIHEDRAL>
0.849716

>  <SCORE.SYSTEM.VDW>
-1.17336

>  <SCORE.SYSTEM.norm>
-0.035643

>  <SCORE.heavy>
21

>  <SCORE.norm>
-0.514262

$$$$
10168
  RxDock  02242112063D
librxdock.so/0.1.0
 24 26  0  0  0  0  0  0  0  0999 V2000
  -46.8003   -3.2205   15.1993 O   0  0  0  0  0  0
  -48.1320   -5.1039   16.3133 O   0  0  0  0  0  0
  -52.7818   -2.9960   14.7338 O   0  0  0  0  0  0
  -49.3137   -7.0578   17.4755 O   0  0  0  0  0  0
  -48.0188    0.7545   12.7468 O   0  0  0  0  0  0
  -50.2683    0.7571   12.4210 O   0  0  0  0  0  0
  -49.2242   -3.3720   15.1631 C   0  0  0  0  0  0
  -50.4391   -2.8211   14.7504 C   0  0  0  0  0  0
  -50.4739   -5.2803   16.2942 C   0  0  0  0  0  0
  -51.6888   -4.7291   15.8815 C   0  0  0  0  0  0
  -49.1970   -4.6217   15.9502 C   0  0  0  0  0  0
  -51.7158   -3.4795   15.0946 C   0  0  0  0  0  0
  -48.0211   -2.7381   14.8302 C   0  0  0  0  0  0
  -50.4510   -1.6361   14.0048 C   0  0  0  0  0  0
  -50.4620   -6.4652   17.0398 C   0  0  0  0  0  0
  -49.2498   -1.0076   13.6752 C   0  0  0  0  0  0
  -52.8920   -5.3631   16.2143 C   0  0  0  0  0  0
  -48.0374   -1.5574   14.0869 C   0  0  0  0  0  0
  -51.6633   -7.0938   17.3690 C   0  0  0  0  0  0
  -52.8757   -6.5439   16.9572 C   0  0  0  0  0  0
  -49.2626    0.2233   12.9004 C   0  0  0  0  0  0
  -46.0980   -2.7124   14.7589 H   0  0  0  0  0  0
  -48.5419   -6.6883   17.0215 H   0  0  0  0  0  0
  -48.0095    1.4760   12.0822 H   0  0  0  0  0  0
  1 13  1  0  0  0
  1 22  1  0  0  0
  2 11  2  0  0  0
  3 12  2  0  0  0
  4 15  1  0  0  0
  4 23  1  0  0  0
  5 21  1  0  0  0
  5 24  1  0  0  0
  6 21  2  0  0  0
  7  8  2  0  0  0
  7 11  1  0  0  0
  7 13  1  0  0  0
  8 12  1  0  0  0
  8 14  1  0  0  0
  9 10  2  0  0  0
  9 11  1  0  0  0
  9 15  1  0  0  0
 10 12  1  0  0  0
 10 17  1  0  0  0
 13 18  2  0  0  0
 14 16  2  0  0  0
 15 19  2  0  0  0
 16 18  1  0  0  0
 16 21  1  0  0  0
 17 20  2  0  0  0
 19 20  1  0  0  0
M  END
>  <CHROM.0>
-62.99109245,-55.70821977,64.06723414

>  <CHROM.1>
171.52065993,-14.28598469,-11.38951120,175.66375988,-49.97010253,-3.44325746
15.16659791,-1.27553021,0.04871312,2.58047765

>  <Name>
10168

>  <PUBCHEM_ATOM_DEF_STEREO_COUNT>
0

>  <PUBCHEM_ATOM_UDEF_STEREO_COUNT>
0

>  <PUBCHEM_BOND_DEF_STEREO_COUNT>
0

>  <PUBCHEM_BOND_UDEF_STEREO_COUNT>
0

>  <PUBCHEM_CACTVS_TAUTO_COUNT>
24

>  <PUBCHEM_COMPONENT_COUNT>
1

>  <PUBCHEM_COMPOUND_CID>
10168

>  <PUBCHEM_CONFORMER_DIVERSEORDER>
1

>  <PUBCHEM_CONFORMER_ID>
000027B800000001

>  <PUBCHEM_CONFORMER_RMSD>
0.6

>  <PUBCHEM_COORDINATE_TYPE>
2
5
10

>  <PUBCHEM_EFFECTIVE_ROTOR_COUNT>
1

>  <PUBCHEM_FEATURE_SELFOVERLAP>
50.846

>  <PUBCHEM_HEAVY_ATOM_COUNT>
21

>  <PUBCHEM_ISOTOPIC_ATOM_COUNT>
0

>  <PUBCHEM_MMFF94_ENERGY>
68.6965

>  <PUBCHEM_MMFF94_PARTIAL_CHARGES>
29
1 -0.53
10 0.09
11 0.4
12 0.4
13 0.08
14 -0.15
15 0.08
16 0.09
17 -0.15
18 -0.15
19 -0.15
2 -0.57
20 -0.15
21 0.63
22 0.15
23 0.15
24 0.15
25 0.15
26 0.15
27 0.45
28 0.45
29 0.5
3 -0.57
4 -0.53
5 -0.65
6 -0.57
7 0.09
8 0.09
9 0.09

>  <PUBCHEM_PHARMACOPHORE_FEATURES>
10
1 1 donor
1 2 acceptor
1 3 acceptor
1 4 donor
1 5 acceptor
1 6 acceptor
3 5 6 21 anion
6 7 8 13 14 16 18 rings
6 7 8 9 10 11 12 rings
6 9 10 15 17 19 20 rings

>  <PUBCHEM_SHAPE_FINGERPRINT>
10411042 1 17474108078014113454
10493431 412 18269565953339895465
10498660 4 18410294674922913756
10616163 171 18410857672284589919
10967382 1 18338516322768651303
11112241 14 16053761070513734896
11132069 177 18409728443646081177
11578080 2 16880465970251001054
12011746 2 18411414016725795421
12236239 1 17822008735941251148
12390115 104 18200049372811105841
12403814 3 17603301544648884029
12788726 201 17130428969891162825
12839892 36 18337935806573543930
12954195 1 17914635873199923916
13132413 78 18412263956188401997
13140716 1 17978237380748065187
13214271 11 18413105065582804717
138480 1 17689997830145918786
13862211 1 18410849988456228526
14787075 74 18271241724201582520
14790565 3 18410863182654238816
15196674 1 18410573989646956454
15442244 35 17978509737119017459
15536298 74 18270120106524723222
16945 1 18338797943927191847
19591789 44 18339360880600163352
200 152 18060414720851970709
20510252 161 18343586217802211793
21029758 11 18343016726961894417
21267235 1 18410019848582002819
21421861 104 17898004620951251034
2334 1 18410855434849033379
23366157 5 17970072141091609650
23402539 116 18342168981657591294
23463225 33 18336828581004649021
23557571 272 18272379688914152982
23559900 14 18198340655049243982
2748010 2 18338801104986231055
335352 9 18266458707240121534
34934 24 18410288074001057415
350125 39 18338802342116335721
3545911 37 18410294679449859541
4214541 1 18410575071905095872
474 4 17748835132931610636
474229 33 18410572911836947014
5104073 3 18410011018223987362
58051976 378 18340767031444580180
59755656 215 18340493253766844862
7364860 26 18197216936859193670
9709674 26 18340492162006407318

>  <PUBCHEM_SHAPE_MULTIPOLES>
396.95
8.82
2.71
0.59
3.87
0.56
0
-1.97
0
-0.5
0
-0.03
-0.02
0

>  <PUBCHEM_SHAPE_SELFOVERLAP>
903.159

>  <PUBCHEM_SHAPE_VOLUME>
204.5

>  <RI>
-9.19813e+08

>  <Rbt.Current_Directory>
/root/miniconda3/envs/rdock/share/rxdock-2013.1.1_148c5bd1-0/data/ligands/prepped_ligands/Rhein

>  <Rbt.Executable>
rbdock/0.1.0

>  <Rbt.Library>
librxdock.so/0.1.0

>  <Rbt.Parameter_File>
/root/miniconda3/envs/rdock/share/rxdock-2013.1.1_148c5bd1-0/data/scripts/dock.prm

>  <Rbt.Receptor>
def.prm

>  <SCORE>
-14.5511

>  <SCORE.INTER>
-14.27

>  <SCORE.INTER.CONST>
1

>  <SCORE.INTER.POLAR>
-1.29275

>  <SCORE.INTER.REPUL>
0.0939773

>  <SCORE.INTER.ROT>
1

>  <SCORE.INTER.VDW>
-16.7445

>  <SCORE.INTER.norm>
-0.679524

>  <SCORE.INTRA>
0.639858

>  <SCORE.INTRA.DIHEDRAL>
1.36852

>  <SCORE.INTRA.DIHEDRAL.0>
1.91521e-05

>  <SCORE.INTRA.POLAR>
0.02066

>  <SCORE.INTRA.POLAR.0>
-0.0515654

>  <SCORE.INTRA.REPUL>
0

>  <SCORE.INTRA.REPUL.0>
0

>  <SCORE.INTRA.VDW>
-0.114645

>  <SCORE.INTRA.VDW.0>
1.17338

>  <SCORE.INTRA.norm>
0.0304694

>  <SCORE.RESTR>
0

>  <SCORE.RESTR.CAVITY>
0

>  <SCORE.RESTR.norm>
0

>  <SCORE.SYSTEM>
-0.920912

>  <SCORE.SYSTEM.CONST>
0

>  <SCORE.SYSTEM.DIHEDRAL>
0.152314

>  <SCORE.SYSTEM.POLAR>
-0.00946737

>  <SCORE.SYSTEM.VDW>
-0.96488

>  <SCORE.SYSTEM.norm>
-0.043853

>  <SCORE.heavy>
21

>  <SCORE.norm>
-0.692908

$$$$
10168
  RxDock  02242112073D
librxdock.so/0.1.0
 24 26  0  0  0  0  0  0  0  0999 V2000
  -49.2475   -7.4345   18.0366 O   0  0  0  0  0  0
  -51.6233   -8.1042   17.3521 O   0  0  0  0  0  0
  -52.6151   -3.2438   15.3643 O   0  0  0  0  0  0
  -53.9665   -8.9320   16.7284 O   0  0  0  0  0  0
  -46.6545   -3.3844   17.6382 O   0  0  0  0  0  0
  -47.9488   -1.7684   16.7003 O   0  0  0  0  0  0
  -50.8160   -5.9373   16.9422 C   0  0  0  0  0  0
  -51.0750   -4.6672   16.4229 C   0  0  0  0  0  0
  -53.1620   -6.6820   16.2911 C   0  0  0  0  0  0
  -53.4210   -5.4118   15.7719 C   0  0  0  0  0  0
  -51.8499   -6.9912   16.8955 C   0  0  0  0  0  0
  -52.3870   -4.3580   15.8188 C   0  0  0  0  0  0
  -49.5681   -6.2175   17.5121 C   0  0  0  0  0  0
  -50.0863   -3.6772   16.4735 C   0  0  0  0  0  0
  -54.1507   -7.6720   16.2406 C   0  0  0  0  0  0
  -48.8442   -3.9606   17.0422 C   0  0  0  0  0  0
  -54.6688   -5.1315   15.2020 C   0  0  0  0  0  0
  -48.5856   -5.2280   17.5603 C   0  0  0  0  0  0
  -55.3926   -7.3886   15.6715 C   0  0  0  0  0  0
  -55.6511   -6.1210   15.1534 C   0  0  0  0  0  0
  -47.8172   -2.9318   17.0942 C   0  0  0  0  0  0
  -49.9728   -8.0627   17.8795 H   0  0  0  0  0  0
  -54.6133   -9.5458   16.3499 H   0  0  0  0  0  0
  -45.9471   -2.7055   17.6045 H   0  0  0  0  0  0
  1 13  1  0  0  0
  1 22  1  0  0  0
  2 11  2  0  0  0
  3 12  2  0  0  0
  4 15  1  0  0  0
  4 23  1  0  0  0
  5 21  1  0  0  0
  5 24  1  0  0  0
  6 21  2  0  0  0
  7  8  2  0  0  0
  7 11  1  0  0  0
  7 13  1  0  0  0
  8 12  1  0  0  0
  8 14  1  0  0  0
  9 10  2  0  0  0
  9 11  1  0  0  0
  9 15  1  0  0  0
 10 12  1  0  0  0
 10 17  1  0  0  0
 13 18  2  0  0  0
 14 16  2  0  0  0
 15 19  2  0  0  0
 16 18  1  0  0  0
 16 21  1  0  0  0
 17 20  2  0  0  0
 19 20  1  0  0  0
M  END
>  <CHROM.0>
69.40581910,175.16342359,176.12978828

>  <CHROM.1>
4.87584668,-160.77164159,-4.54914397,-177.95189449,-51.32969236,-5.50096219
16.59887735,-0.42258431,0.34693084,2.82494828

>  <Name>
10168

>  <PUBCHEM_ATOM_DEF_STEREO_COUNT>
0

>  <PUBCHEM_ATOM_UDEF_STEREO_COUNT>
0

>  <PUBCHEM_BOND_DEF_STEREO_COUNT>
0

>  <PUBCHEM_BOND_UDEF_STEREO_COUNT>
0

>  <PUBCHEM_CACTVS_TAUTO_COUNT>
24

>  <PUBCHEM_COMPONENT_COUNT>
1

>  <PUBCHEM_COMPOUND_CID>
10168

>  <PUBCHEM_CONFORMER_DIVERSEORDER>
1

>  <PUBCHEM_CONFORMER_ID>
000027B800000001

>  <PUBCHEM_CONFORMER_RMSD>
0.6

>  <PUBCHEM_COORDINATE_TYPE>
2
5
10

>  <PUBCHEM_EFFECTIVE_ROTOR_COUNT>
1

>  <PUBCHEM_FEATURE_SELFOVERLAP>
50.846

>  <PUBCHEM_HEAVY_ATOM_COUNT>
21

>  <PUBCHEM_ISOTOPIC_ATOM_COUNT>
0

>  <PUBCHEM_MMFF94_ENERGY>
68.6965

>  <PUBCHEM_MMFF94_PARTIAL_CHARGES>
29
1 -0.53
10 0.09
11 0.4
12 0.4
13 0.08
14 -0.15
15 0.08
16 0.09
17 -0.15
18 -0.15
19 -0.15
2 -0.57
20 -0.15
21 0.63
22 0.15
23 0.15
24 0.15
25 0.15
26 0.15
27 0.45
28 0.45
29 0.5
3 -0.57
4 -0.53
5 -0.65
6 -0.57
7 0.09
8 0.09
9 0.09

>  <PUBCHEM_PHARMACOPHORE_FEATURES>
10
1 1 donor
1 2 acceptor
1 3 acceptor
1 4 donor
1 5 acceptor
1 6 acceptor
3 5 6 21 anion
6 7 8 13 14 16 18 rings
6 7 8 9 10 11 12 rings
6 9 10 15 17 19 20 rings

>  <PUBCHEM_SHAPE_FINGERPRINT>
10411042 1 17474108078014113454
10493431 412 18269565953339895465
10498660 4 18410294674922913756
10616163 171 18410857672284589919
10967382 1 18338516322768651303
11112241 14 16053761070513734896
11132069 177 18409728443646081177
11578080 2 16880465970251001054
12011746 2 18411414016725795421
12236239 1 17822008735941251148
12390115 104 18200049372811105841
12403814 3 17603301544648884029
12788726 201 17130428969891162825
12839892 36 18337935806573543930
12954195 1 17914635873199923916
13132413 78 18412263956188401997
13140716 1 17978237380748065187
13214271 11 18413105065582804717
138480 1 17689997830145918786
13862211 1 18410849988456228526
14787075 74 18271241724201582520
14790565 3 18410863182654238816
15196674 1 18410573989646956454
15442244 35 17978509737119017459
15536298 74 18270120106524723222
16945 1 18338797943927191847
19591789 44 18339360880600163352
200 152 18060414720851970709
20510252 161 18343586217802211793
21029758 11 18343016726961894417
21267235 1 18410019848582002819
21421861 104 17898004620951251034
2334 1 18410855434849033379
23366157 5 17970072141091609650
23402539 116 18342168981657591294
23463225 33 18336828581004649021
23557571 272 18272379688914152982
23559900 14 18198340655049243982
2748010 2 18338801104986231055
335352 9 18266458707240121534
34934 24 18410288074001057415
350125 39 18338802342116335721
3545911 37 18410294679449859541
4214541 1 18410575071905095872
474 4 17748835132931610636
474229 33 18410572911836947014
5104073 3 18410011018223987362
58051976 378 18340767031444580180
59755656 215 18340493253766844862
7364860 26 18197216936859193670
9709674 26 18340492162006407318

>  <PUBCHEM_SHAPE_MULTIPOLES>
396.95
8.82
2.71
0.59
3.87
0.56
0
-1.97
0
-0.5
0
-0.03
-0.02
0

>  <PUBCHEM_SHAPE_SELFOVERLAP>
903.159

>  <PUBCHEM_SHAPE_VOLUME>
204.5

>  <RI>
-9.19813e+08

>  <Rbt.Current_Directory>
/root/miniconda3/envs/rdock/share/rxdock-2013.1.1_148c5bd1-0/data/ligands/prepped_ligands/Rhein

>  <Rbt.Executable>
rbdock/0.1.0

>  <Rbt.Library>
librxdock.so/0.1.0

>  <Rbt.Parameter_File>
/root/miniconda3/envs/rdock/share/rxdock-2013.1.1_148c5bd1-0/data/scripts/dock.prm

>  <Rbt.Receptor>
def.prm

>  <SCORE>
-14.3242

>  <SCORE.INTER>
-13.7458

>  <SCORE.INTER.CONST>
1

>  <SCORE.INTER.POLAR>
-1.0824

>  <SCORE.INTER.REPUL>
0

>  <SCORE.INTER.ROT>
1

>  <SCORE.INTER.VDW>
-16.4657

>  <SCORE.INTER.norm>
-0.654562

>  <SCORE.INTRA>
0.294649

>  <SCORE.INTRA.DIHEDRAL>
0.716442

>  <SCORE.INTRA.DIHEDRAL.0>
1.91521e-05

>  <SCORE.INTRA.POLAR>
0.0208929

>  <SCORE.INTRA.POLAR.0>
-0.0515654

>  <SCORE.INTRA.REPUL>
0

>  <SCORE.INTRA.REPUL.0>
0

>  <SCORE.INTRA.VDW>
-0.134608

>  <SCORE.INTRA.VDW.0>
1.17338

>  <SCORE.INTRA.norm>
0.0140309

>  <SCORE.RESTR>
0

>  <SCORE.RESTR.CAVITY>
0

>  <SCORE.RESTR.norm>
0

>  <SCORE.SYSTEM>
-0.873005

>  <SCORE.SYSTEM.CONST>
0

>  <SCORE.SYSTEM.DIHEDRAL>
0.362215

>  <SCORE.SYSTEM.VDW>
-1.05411

>  <SCORE.SYSTEM.norm>
-0.0415717

>  <SCORE.heavy>
21

>  <SCORE.norm>
-0.682102

$$$$
10168
  RxDock  02242112073D
librxdock.so/0.1.0
 24 26  0  0  0  0  0  0  0  0999 V2000
  -47.5333   -0.7386   20.2544 O   0  0  0  0  0  0
  -49.2018   -0.4920   18.3265 O   0  0  0  0  0  0
  -45.3000   -0.7148   14.6815 O   0  0  0  0  0  0
  -50.9969   -0.2416   16.5156 O   0  0  0  0  0  0
  -42.0154   -1.3538   18.1056 O   0  0  0  0  0  0
  -42.4623   -1.0964   20.3193 O   0  0  0  0  0  0
  -46.8998   -0.6989   17.9099 C   0  0  0  0  0  0
  -45.8802   -0.7571   16.9576 C   0  0  0  0  0  0
  -48.6220   -0.4525   16.0509 C   0  0  0  0  0  0
  -47.6022   -0.5106   15.0986 C   0  0  0  0  0  0
  -48.3080   -0.5444   17.4915 C   0  0  0  0  0  0
  -46.1941   -0.6650   15.5171 C   0  0  0  0  0  0
  -46.5888   -0.7875   19.2721 C   0  0  0  0  0  0
  -44.5495   -0.9037   17.3674 C   0  0  0  0  0  0
  -49.9527   -0.3059   15.6410 C   0  0  0  0  0  0
  -44.2440   -0.9916   18.7259 C   0  0  0  0  0  0
  -47.9132   -0.4221   13.7364 C   0  0  0  0  0  0
  -45.2613   -0.9337   19.6763 C   0  0  0  0  0  0
  -50.2581   -0.2184   14.2825 C   0  0  0  0  0  0
  -49.2405   -0.2764   13.3322 C   0  0  0  0  0  0
  -42.8614   -1.1442   19.1512 C   0  0  0  0  0  0
  -48.4108   -0.5949   19.8612 H   0  0  0  0  0  0
  -50.7172   -0.5017   17.4058 H   0  0  0  0  0  0
  -41.0934   -1.5020   18.4061 H   0  0  0  0  0  0
  1 13  1  0  0  0
  1 22  1  0  0  0
  2 11  2  0  0  0
  3 12  2  0  0  0
  4 15  1  0  0  0
  4 23  1  0  0  0
  5 21  1  0  0  0
  5 24  1  0  0  0
  6 21  2  0  0  0
  7  8  2  0  0  0
  7 11  1  0  0  0
  7 13  1  0  0  0
  8 12  1  0  0  0
  8 14  1  0  0  0
  9 10  2  0  0  0
  9 11  1  0  0  0
  9 15  1  0  0  0
 10 12  1  0  0  0
 10 17  1  0  0  0
 13 18  2  0  0  0
 14 16  2  0  0  0
 15 19  2  0  0  0
 16 18  1  0  0  0
 16 21  1  0  0  0
 17 20  2  0  0  0
 19 20  1  0  0  0
M  END
>  <CHROM.0>
-172.13584290,178.45499431,-68.44421733

>  <CHROM.1>
-2.63014321,-12.37670934,2.91736353,-7.81985933,-46.72597923,-0.68622137
17.13993757,0.57611063,-0.10122281,1.60755020

>  <Name>
10168

>  <PUBCHEM_ATOM_DEF_STEREO_COUNT>
0

>  <PUBCHEM_ATOM_UDEF_STEREO_COUNT>
0

>  <PUBCHEM_BOND_DEF_STEREO_COUNT>
0

>  <PUBCHEM_BOND_UDEF_STEREO_COUNT>
0

>  <PUBCHEM_CACTVS_TAUTO_COUNT>
24

>  <PUBCHEM_COMPONENT_COUNT>
1

>  <PUBCHEM_COMPOUND_CID>
10168

>  <PUBCHEM_CONFORMER_DIVERSEORDER>
1

>  <PUBCHEM_CONFORMER_ID>
000027B800000001

>  <PUBCHEM_CONFORMER_RMSD>
0.6

>  <PUBCHEM_COORDINATE_TYPE>
2
5
10

>  <PUBCHEM_EFFECTIVE_ROTOR_COUNT>
1

>  <PUBCHEM_FEATURE_SELFOVERLAP>
50.846

>  <PUBCHEM_HEAVY_ATOM_COUNT>
21

>  <PUBCHEM_ISOTOPIC_ATOM_COUNT>
0

>  <PUBCHEM_MMFF94_ENERGY>
68.6965

>  <PUBCHEM_MMFF94_PARTIAL_CHARGES>
29
1 -0.53
10 0.09
11 0.4
12 0.4
13 0.08
14 -0.15
15 0.08
16 0.09
17 -0.15
18 -0.15
19 -0.15
2 -0.57
20 -0.15
21 0.63
22 0.15
23 0.15
24 0.15
25 0.15
26 0.15
27 0.45
28 0.45
29 0.5
3 -0.57
4 -0.53
5 -0.65
6 -0.57
7 0.09
8 0.09
9 0.09

>  <PUBCHEM_PHARMACOPHORE_FEATURES>
10
1 1 donor
1 2 acceptor
1 3 acceptor
1 4 donor
1 5 acceptor
1 6 acceptor
3 5 6 21 anion
6 7 8 13 14 16 18 rings
6 7 8 9 10 11 12 rings
6 9 10 15 17 19 20 rings

>  <PUBCHEM_SHAPE_FINGERPRINT>
10411042 1 17474108078014113454
10493431 412 18269565953339895465
10498660 4 18410294674922913756
10616163 171 18410857672284589919
10967382 1 18338516322768651303
11112241 14 16053761070513734896
11132069 177 18409728443646081177
11578080 2 16880465970251001054
12011746 2 18411414016725795421
12236239 1 17822008735941251148
12390115 104 18200049372811105841
12403814 3 17603301544648884029
12788726 201 17130428969891162825
12839892 36 18337935806573543930
12954195 1 17914635873199923916
13132413 78 18412263956188401997
13140716 1 17978237380748065187
13214271 11 18413105065582804717
138480 1 17689997830145918786
13862211 1 18410849988456228526
14787075 74 18271241724201582520
14790565 3 18410863182654238816
15196674 1 18410573989646956454
15442244 35 17978509737119017459
15536298 74 18270120106524723222
16945 1 18338797943927191847
19591789 44 18339360880600163352
200 152 18060414720851970709
20510252 161 18343586217802211793
21029758 11 18343016726961894417
21267235 1 18410019848582002819
21421861 104 17898004620951251034
2334 1 18410855434849033379
23366157 5 17970072141091609650
23402539 116 18342168981657591294
23463225 33 18336828581004649021
23557571 272 18272379688914152982
23559900 14 18198340655049243982
2748010 2 18338801104986231055
335352 9 18266458707240121534
34934 24 18410288074001057415
350125 39 18338802342116335721
3545911 37 18410294679449859541
4214541 1 18410575071905095872
474 4 17748835132931610636
474229 33 18410572911836947014
5104073 3 18410011018223987362
58051976 378 18340767031444580180
59755656 215 18340493253766844862
7364860 26 18197216936859193670
9709674 26 18340492162006407318

>  <PUBCHEM_SHAPE_MULTIPOLES>
396.95
8.82
2.71
0.59
3.87
0.56
0
-1.97
0
-0.5
0
-0.03
-0.02
0

>  <PUBCHEM_SHAPE_SELFOVERLAP>
903.159

>  <PUBCHEM_SHAPE_VOLUME>
204.5

>  <RI>
-9.19813e+08

>  <Rbt.Current_Directory>
/root/miniconda3/envs/rdock/share/rxdock-2013.1.1_148c5bd1-0/data/ligands/prepped_ligands/Rhein

>  <Rbt.Executable>
rbdock/0.1.0

>  <Rbt.Library>
librxdock.so/0.1.0

>  <Rbt.Parameter_File>
/root/miniconda3/envs/rdock/share/rxdock-2013.1.1_148c5bd1-0/data/scripts/dock.prm

>  <Rbt.Receptor>
def.prm

>  <SCORE>
-10.6865

>  <SCORE.INTER>
-9.59763

>  <SCORE.INTER.CONST>
1

>  <SCORE.INTER.POLAR>
-0.601097

>  <SCORE.INTER.REPUL>
0

>  <SCORE.INTER.ROT>
1

>  <SCORE.INTER.VDW>
-13.9539

>  <SCORE.INTER.norm>
-0.45703

>  <SCORE.INTRA>
-0.174863

>  <SCORE.INTRA.DIHEDRAL>
0.527214

>  <SCORE.INTRA.DIHEDRAL.0>
1.91521e-05

>  <SCORE.INTRA.POLAR>
-0.016694

>  <SCORE.INTRA.POLAR.0>
-0.0515654

>  <SCORE.INTRA.REPUL>
0

>  <SCORE.INTRA.REPUL.0>
0

>  <SCORE.INTRA.VDW>
-0.381711

>  <SCORE.INTRA.VDW.0>
1.17338

>  <SCORE.INTRA.norm>
-0.00832683

>  <SCORE.RESTR>
0

>  <SCORE.RESTR.CAVITY>
0

>  <SCORE.RESTR.norm>
0

>  <SCORE.SYSTEM>
-0.914035

>  <SCORE.SYSTEM.CONST>
0

>  <SCORE.SYSTEM.DIHEDRAL>
0.336513

>  <SCORE.SYSTEM.VDW>
-1.08229

>  <SCORE.SYSTEM.norm>
-0.0435255

>  <SCORE.heavy>
21

>  <SCORE.norm>
-0.508882

$$$$
10168
  RxDock  02242112073D
librxdock.so/0.1.0
 24 26  0  0  0  0  0  0  0  0999 V2000
  -50.6061   -7.8710   19.4901 O   0  0  0  0  0  0
  -52.3506   -8.6841   17.7997 O   0  0  0  0  0  0
  -53.7070   -3.6765   16.5177 O   0  0  0  0  0  0
  -54.0491   -9.6589   16.1477 O   0  0  0  0  0  0
  -50.5359   -1.9150   19.6291 O   0  0  0  0  0  0
  -49.1586   -3.2083   20.8927 O   0  0  0  0  0  0
  -51.9947   -6.3903   18.1564 C   0  0  0  0  0  0
  -52.3491   -5.0818   17.8216 C   0  0  0  0  0  0
  -53.7061   -7.2791   16.4941 C   0  0  0  0  0  0
  -54.0605   -5.9705   16.1593 C   0  0  0  0  0  0
  -52.6602   -7.5369   17.5051 C   0  0  0  0  0  0
  -53.3950   -4.8240   16.8109 C   0  0  0  0  0  0
  -51.0016   -6.6209   19.1161 C   0  0  0  0  0  0
  -51.7106   -4.0037   18.4464 C   0  0  0  0  0  0
  -54.3447   -8.3571   15.8692 C   0  0  0  0  0  0
  -50.7215   -4.2381   19.4022 C   0  0  0  0  0  0
  -55.0535   -5.7398   15.1996 C   0  0  0  0  0  0
  -50.3677   -5.5437   19.7363 C   0  0  0  0  0  0
  -55.3334   -8.1227   14.9132 C   0  0  0  0  0  0
  -55.6871   -6.8169   14.5792 C   0  0  0  0  0  0
  -50.0582   -3.1178   20.0509 C   0  0  0  0  0  0
  -51.0758   -8.5377   18.9606 H   0  0  0  0  0  0
  -54.7848  -10.2392   15.9018 H   0  0  0  0  0  0
  -50.0736   -1.1662   20.0626 H   0  0  0  0  0  0
  1 13  1  0  0  0
  1 22  1  0  0  0
  2 11  2  0  0  0
  3 12  2  0  0  0
  4 15  1  0  0  0
  4 23  1  0  0  0
  5 21  1  0  0  0
  5 24  1  0  0  0
  6 21  2  0  0  0
  7  8  2  0  0  0
  7 11  1  0  0  0
  7 13  1  0  0  0
  8 12  1  0  0  0
  8 14  1  0  0  0
  9 10  2  0  0  0
  9 11  1  0  0  0
  9 15  1  0  0  0
 10 12  1  0  0  0
 10 17  1  0  0  0
 13 18  2  0  0  0
 14 16  2  0  0  0
 15 19  2  0  0  0
 16 18  1  0  0  0
 16 21  1  0  0  0
 17 20  2  0  0  0
 19 20  1  0  0  0
M  END
>  <CHROM.0>
57.93321496,64.81849839,58.59842794

>  <CHROM.1>
3.15941770,158.10130440,0.75811361,1.09241473,-52.46487601,-5.93710253,17.70587022
-0.60875498,0.76828424,-3.13534155

>  <Name>
10168

>  <PUBCHEM_ATOM_DEF_STEREO_COUNT>
0

>  <PUBCHEM_ATOM_UDEF_STEREO_COUNT>
0

>  <PUBCHEM_BOND_DEF_STEREO_COUNT>
0

>  <PUBCHEM_BOND_UDEF_STEREO_COUNT>
0

>  <PUBCHEM_CACTVS_TAUTO_COUNT>
24

>  <PUBCHEM_COMPONENT_COUNT>
1

>  <PUBCHEM_COMPOUND_CID>
10168

>  <PUBCHEM_CONFORMER_DIVERSEORDER>
1

>  <PUBCHEM_CONFORMER_ID>
000027B800000001

>  <PUBCHEM_CONFORMER_RMSD>
0.6

>  <PUBCHEM_COORDINATE_TYPE>
2
5
10

>  <PUBCHEM_EFFECTIVE_ROTOR_COUNT>
1

>  <PUBCHEM_FEATURE_SELFOVERLAP>
50.846

>  <PUBCHEM_HEAVY_ATOM_COUNT>
21

>  <PUBCHEM_ISOTOPIC_ATOM_COUNT>
0

>  <PUBCHEM_MMFF94_ENERGY>
68.6965

>  <PUBCHEM_MMFF94_PARTIAL_CHARGES>
29
1 -0.53
10 0.09
11 0.4
12 0.4
13 0.08
14 -0.15
15 0.08
16 0.09
17 -0.15
18 -0.15
19 -0.15
2 -0.57
20 -0.15
21 0.63
22 0.15
23 0.15
24 0.15
25 0.15
26 0.15
27 0.45
28 0.45
29 0.5
3 -0.57
4 -0.53
5 -0.65
6 -0.57
7 0.09
8 0.09
9 0.09

>  <PUBCHEM_PHARMACOPHORE_FEATURES>
10
1 1 donor
1 2 acceptor
1 3 acceptor
1 4 donor
1 5 acceptor
1 6 acceptor
3 5 6 21 anion
6 7 8 13 14 16 18 rings
6 7 8 9 10 11 12 rings
6 9 10 15 17 19 20 rings

>  <PUBCHEM_SHAPE_FINGERPRINT>
10411042 1 17474108078014113454
10493431 412 18269565953339895465
10498660 4 18410294674922913756
10616163 171 18410857672284589919
10967382 1 18338516322768651303
11112241 14 16053761070513734896
11132069 177 18409728443646081177
11578080 2 16880465970251001054
12011746 2 18411414016725795421
12236239 1 17822008735941251148
12390115 104 18200049372811105841
12403814 3 17603301544648884029
12788726 201 17130428969891162825
12839892 36 18337935806573543930
12954195 1 17914635873199923916
13132413 78 18412263956188401997
13140716 1 17978237380748065187
13214271 11 18413105065582804717
138480 1 17689997830145918786
13862211 1 18410849988456228526
14787075 74 18271241724201582520
14790565 3 18410863182654238816
15196674 1 18410573989646956454
15442244 35 17978509737119017459
15536298 74 18270120106524723222
16945 1 18338797943927191847
19591789 44 18339360880600163352
200 152 18060414720851970709
20510252 161 18343586217802211793
21029758 11 18343016726961894417
21267235 1 18410019848582002819
21421861 104 17898004620951251034
2334 1 18410855434849033379
23366157 5 17970072141091609650
23402539 116 18342168981657591294
23463225 33 18336828581004649021
23557571 272 18272379688914152982
23559900 14 18198340655049243982
2748010 2 18338801104986231055
335352 9 18266458707240121534
34934 24 18410288074001057415
350125 39 18338802342116335721
3545911 37 18410294679449859541
4214541 1 18410575071905095872
474 4 17748835132931610636
474229 33 18410572911836947014
5104073 3 18410011018223987362
58051976 378 18340767031444580180
59755656 215 18340493253766844862
7364860 26 18197216936859193670
9709674 26 18340492162006407318

>  <PUBCHEM_SHAPE_MULTIPOLES>
396.95
8.82
2.71
0.59
3.87
0.56
0
-1.97
0
-0.5
0
-0.03
-0.02
0

>  <PUBCHEM_SHAPE_SELFOVERLAP>
903.159

>  <PUBCHEM_SHAPE_VOLUME>
204.5

>  <RI>
-9.19813e+08

>  <Rbt.Current_Directory>
/root/miniconda3/envs/rdock/share/rxdock-2013.1.1_148c5bd1-0/data/ligands/prepped_ligands/Rhein

>  <Rbt.Executable>
rbdock/0.1.0

>  <Rbt.Library>
librxdock.so/0.1.0

>  <Rbt.Parameter_File>
/root/miniconda3/envs/rdock/share/rxdock-2013.1.1_148c5bd1-0/data/scripts/dock.prm

>  <Rbt.Receptor>
def.prm

>  <SCORE>
-16.9433

>  <SCORE.INTER>
-16.2026

>  <SCORE.INTER.CONST>
1

>  <SCORE.INTER.POLAR>
-1.38762

>  <SCORE.INTER.REPUL>
0

>  <SCORE.INTER.ROT>
1

>  <SCORE.INTER.VDW>
-17.8847

>  <SCORE.INTER.norm>
-0.771551

>  <SCORE.INTRA>
0.251412

>  <SCORE.INTRA.DIHEDRAL>
0.691515

>  <SCORE.INTRA.DIHEDRAL.0>
1.91521e-05

>  <SCORE.INTRA.POLAR>
0.0194078

>  <SCORE.INTRA.POLAR.0>
-0.0515654

>  <SCORE.INTRA.REPUL>
0

>  <SCORE.INTRA.REPUL.0>
0

>  <SCORE.INTRA.VDW>
-0.160332

>  <SCORE.INTRA.VDW.0>
1.17338

>  <SCORE.INTRA.norm>
0.011972

>  <SCORE.RESTR>
0

>  <SCORE.RESTR.CAVITY>
0

>  <SCORE.RESTR.norm>
0

>  <SCORE.SYSTEM>
-0.99215

>  <SCORE.SYSTEM.CONST>
0

>  <SCORE.SYSTEM.DIHEDRAL>
0.132211

>  <SCORE.SYSTEM.VDW>
-1.05826

>  <SCORE.SYSTEM.norm>
-0.0472453

>  <SCORE.heavy>
21

>  <SCORE.norm>
-0.806824

$$$$
10168
  RxDock  02242112073D
librxdock.so/0.1.0
 24 26  0  0  0  0  0  0  0  0999 V2000
  -50.5889   -7.9176   19.3640 O   0  0  0  0  0  0
  -52.3766   -8.7332   17.7206 O   0  0  0  0  0  0
  -53.7192   -3.7278   16.4158 O   0  0  0  0  0  0
  -54.1188   -9.7105   16.1163 O   0  0  0  0  0  0
  -50.3698   -1.9657   19.3401 O   0  0  0  0  0  0
  -49.1498   -3.2497   20.7647 O   0  0  0  0  0  0
  -51.9940   -6.4389   18.0454 C   0  0  0  0  0  0
  -52.3448   -5.1310   17.7046 C   0  0  0  0  0  0
  -53.7486   -7.3304   16.4301 C   0  0  0  0  0  0
  -54.0994   -6.0223   16.0894 C   0  0  0  0  0  0
  -52.6831   -7.5865   17.4207 C   0  0  0  0  0  0
  -53.4104   -4.8749   16.7142 C   0  0  0  0  0  0
  -50.9822   -6.6681   18.9856 C   0  0  0  0  0  0
  -51.6839   -4.0521   18.3040 C   0  0  0  0  0  0
  -54.4096   -8.4092   15.8306 C   0  0  0  0  0  0
  -50.6761   -4.2849   19.2404 C   0  0  0  0  0  0
  -55.1112   -5.7931   15.1492 C   0  0  0  0  0  0
  -50.3260   -5.5900   19.5805 C   0  0  0  0  0  0
  -55.4170   -8.1764   14.8940 C   0  0  0  0  0  0
  -55.7671   -6.8711   14.5540 C   0  0  0  0  0  0
  -49.9895   -3.1637   19.8627 C   0  0  0  0  0  0
  -51.1608   -8.5839   18.9464 H   0  0  0  0  0  0
  -54.8471  -10.2921   15.8520 H   0  0  0  0  0  0
  -49.8783   -1.2188   19.7438 H   0  0  0  0  0  0
  1 13  1  0  0  0
  1 22  1  0  0  0
  2 11  2  0  0  0
  3 12  2  0  0  0
  4 15  1  0  0  0
  4 23  1  0  0  0
  5 21  1  0  0  0
  5 24  1  0  0  0
  6 21  2  0  0  0
  7  8  2  0  0  0
  7 11  1  0  0  0
  7 13  1  0  0  0
  8 12  1  0  0  0
  8 14  1  0  0  0
  9 10  2  0  0  0
  9 11  1  0  0  0
  9 15  1  0  0  0
 10 12  1  0  0  0
 10 17  1  0  0  0
 13 18  2  0  0  0
 14 16  2  0  0  0
 15 19  2  0  0  0
 16 18  1  0  0  0
 16 21  1  0  0  0
 17 20  2  0  0  0
 19 20  1  0  0  0
M  END
>  <CHROM.0>
-59.98538196,-58.99233945,-59.19094394

>  <CHROM.1>
-4.81933243,160.91414736,1.96623406,-5.20584765,-52.46892209,-5.98657446
17.59910828,-0.59174171,0.74989732,3.12139576

>  <Name>
10168

>  <PUBCHEM_ATOM_DEF_STEREO_COUNT>
0

>  <PUBCHEM_ATOM_UDEF_STEREO_COUNT>
0

>  <PUBCHEM_BOND_DEF_STEREO_COUNT>
0

>  <PUBCHEM_BOND_UDEF_STEREO_COUNT>
0

>  <PUBCHEM_CACTVS_TAUTO_COUNT>
24

>  <PUBCHEM_COMPONENT_COUNT>
1

>  <PUBCHEM_COMPOUND_CID>
10168

>  <PUBCHEM_CONFORMER_DIVERSEORDER>
1

>  <PUBCHEM_CONFORMER_ID>
000027B800000001

>  <PUBCHEM_CONFORMER_RMSD>
0.6

>  <PUBCHEM_COORDINATE_TYPE>
2
5
10

>  <PUBCHEM_EFFECTIVE_ROTOR_COUNT>
1

>  <PUBCHEM_FEATURE_SELFOVERLAP>
50.846

>  <PUBCHEM_HEAVY_ATOM_COUNT>
21

>  <PUBCHEM_ISOTOPIC_ATOM_COUNT>
0

>  <PUBCHEM_MMFF94_ENERGY>
68.6965

>  <PUBCHEM_MMFF94_PARTIAL_CHARGES>
29
1 -0.53
10 0.09
11 0.4
12 0.4
13 0.08
14 -0.15
15 0.08
16 0.09
17 -0.15
18 -0.15
19 -0.15
2 -0.57
20 -0.15
21 0.63
22 0.15
23 0.15
24 0.15
25 0.15
26 0.15
27 0.45
28 0.45
29 0.5
3 -0.57
4 -0.53
5 -0.65
6 -0.57
7 0.09
8 0.09
9 0.09

>  <PUBCHEM_PHARMACOPHORE_FEATURES>
10
1 1 donor
1 2 acceptor
1 3 acceptor
1 4 donor
1 5 acceptor
1 6 acceptor
3 5 6 21 anion
6 7 8 13 14 16 18 rings
6 7 8 9 10 11 12 rings
6 9 10 15 17 19 20 rings

>  <PUBCHEM_SHAPE_FINGERPRINT>
10411042 1 17474108078014113454
10493431 412 18269565953339895465
10498660 4 18410294674922913756
10616163 171 18410857672284589919
10967382 1 18338516322768651303
11112241 14 16053761070513734896
11132069 177 18409728443646081177
11578080 2 16880465970251001054
12011746 2 18411414016725795421
12236239 1 17822008735941251148
12390115 104 18200049372811105841
12403814 3 17603301544648884029
12788726 201 17130428969891162825
12839892 36 18337935806573543930
12954195 1 17914635873199923916
13132413 78 18412263956188401997
13140716 1 17978237380748065187
13214271 11 18413105065582804717
138480 1 17689997830145918786
13862211 1 18410849988456228526
14787075 74 18271241724201582520
14790565 3 18410863182654238816
15196674 1 18410573989646956454
15442244 35 17978509737119017459
15536298 74 18270120106524723222
16945 1 18338797943927191847
19591789 44 18339360880600163352
200 152 18060414720851970709
20510252 161 18343586217802211793
21029758 11 18343016726961894417
21267235 1 18410019848582002819
21421861 104 17898004620951251034
2334 1 18410855434849033379
23366157 5 17970072141091609650
23402539 116 18342168981657591294
23463225 33 18336828581004649021
23557571 272 18272379688914152982
23559900 14 18198340655049243982
2748010 2 18338801104986231055
335352 9 18266458707240121534
34934 24 18410288074001057415
350125 39 18338802342116335721
3545911 37 18410294679449859541
4214541 1 18410575071905095872
474 4 17748835132931610636
474229 33 18410572911836947014
5104073 3 18410011018223987362
58051976 378 18340767031444580180
59755656 215 18340493253766844862
7364860 26 18197216936859193670
9709674 26 18340492162006407318

>  <PUBCHEM_SHAPE_MULTIPOLES>
396.95
8.82
2.71
0.59
3.87
0.56
0
-1.97
0
-0.5
0
-0.03
-0.02
0

>  <PUBCHEM_SHAPE_SELFOVERLAP>
903.159

>  <PUBCHEM_SHAPE_VOLUME>
204.5

>  <RI>
-9.19813e+08

>  <Rbt.Current_Directory>
/root/miniconda3/envs/rdock/share/rxdock-2013.1.1_148c5bd1-0/data/ligands/prepped_ligands/Rhein

>  <Rbt.Executable>
rbdock/0.1.0

>  <Rbt.Library>
librxdock.so/0.1.0

>  <Rbt.Parameter_File>
/root/miniconda3/envs/rdock/share/rxdock-2013.1.1_148c5bd1-0/data/scripts/dock.prm

>  <Rbt.Receptor>
def.prm

>  <SCORE>
-16.9901

>  <SCORE.INTER>
-16.1955

>  <SCORE.INTER.CONST>
1

>  <SCORE.INTER.POLAR>
-1.34043

>  <SCORE.INTER.REPUL>
0

>  <SCORE.INTER.ROT>
1

>  <SCORE.INTER.VDW>
-18.0381

>  <SCORE.INTER.norm>
-0.771216

>  <SCORE.INTRA>
0.259305

>  <SCORE.INTRA.DIHEDRAL>
0.679247

>  <SCORE.INTRA.DIHEDRAL.0>
1.91521e-05

>  <SCORE.INTRA.POLAR>
0.0203797

>  <SCORE.INTRA.POLAR.0>
-0.0515654

>  <SCORE.INTRA.REPUL>
0

>  <SCORE.INTRA.REPUL.0>
0

>  <SCORE.INTRA.VDW>
-0.14961

>  <SCORE.INTRA.VDW.0>
1.17338

>  <SCORE.INTRA.norm>
0.0123478

>  <SCORE.RESTR>
0

>  <SCORE.RESTR.CAVITY>
0

>  <SCORE.RESTR.norm>
0

>  <SCORE.SYSTEM>
-1.05383

>  <SCORE.SYSTEM.CONST>
0

>  <SCORE.SYSTEM.DIHEDRAL>
0.00615538

>  <SCORE.SYSTEM.POLAR>
-0.00282394

>  <SCORE.SYSTEM.VDW>
-1.0473

>  <SCORE.SYSTEM.norm>
-0.0501822

>  <SCORE.heavy>
21

>  <SCORE.norm>
-0.80905

$$$$
10168
  RxDock  02242112073D
librxdock.so/0.1.0
 24 26  0  0  0  0  0  0  0  0999 V2000
  -50.5958   -7.9273   19.4705 O   0  0  0  0  0  0
  -52.3581   -8.7265   17.7920 O   0  0  0  0  0  0
  -53.6450   -3.7088   16.4785 O   0  0  0  0  0  0
  -54.0768   -9.6879   16.1530 O   0  0  0  0  0  0
  -50.3991   -1.9728   19.5267 O   0  0  0  0  0  0
  -49.1049   -3.2760   20.8658 O   0  0  0  0  0  0
  -51.9671   -6.4357   18.1309 C   0  0  0  0  0  0
  -52.3034   -5.1246   17.7878 C   0  0  0  0  0  0
  -53.6974   -7.3111   16.4810 C   0  0  0  0  0  0
  -54.0336   -5.9998   16.1380 C   0  0  0  0  0  0
  -52.6519   -7.5770   17.4902 C   0  0  0  0  0  0
  -53.3489   -4.8587   16.7789 C   0  0  0  0  0  0
  -50.9742   -6.6741   19.0888 C   0  0  0  0  0  0
  -51.6467   -4.0517   18.4026 C   0  0  0  0  0  0
  -54.3540   -8.3839   15.8661 C   0  0  0  0  0  0
  -50.6578   -4.2937   19.3566 C   0  0  0  0  0  0
  -55.0265   -5.7614   15.1801 C   0  0  0  0  0  0
  -50.3222   -5.6020   19.6990 C   0  0  0  0  0  0
  -55.3426   -8.1418   14.9119 C   0  0  0  0  0  0
  -55.6782   -6.8333   14.5696 C   0  0  0  0  0  0
  -49.9757   -3.1788   19.9949 C   0  0  0  0  0  0
  -51.1692   -8.5883   19.0465 H   0  0  0  0  0  0
  -54.7723  -10.2706   15.8135 H   0  0  0  0  0  0
  -49.9204   -1.2284   19.9498 H   0  0  0  0  0  0
  1 13  1  0  0  0
  1 22  1  0  0  0
  2 11  2  0  0  0
  3 12  2  0  0  0
  4 15  1  0  0  0
  4 23  1  0  0  0
  5 21  1  0  0  0
  5 24  1  0  0  0
  6 21  2  0  0  0
  7  8  2  0  0  0
  7 11  1  0  0  0
  7 13  1  0  0  0
  8 12  1  0  0  0
  8 14  1  0  0  0
  9 10  2  0  0  0
  9 11  1  0  0  0
  9 15  1  0  0  0
 10 12  1  0  0  0
 10 17  1  0  0  0
 13 18  2  0  0  0
 14 16  2  0  0  0
 15 19  2  0  0  0
 16 18  1  0  0  0
 16 21  1  0  0  0
 17 20  2  0  0  0
 19 20  1  0  0  0
M  END
>  <CHROM.0>
-62.59025216,64.38323566,56.85190301

>  <CHROM.1>
-5.31866331,165.22796232,1.10620519,-1.40337518,-52.43173739,-5.97896325
17.67811165,-0.58594388,0.76627143,3.12308763

>  <Name>
10168

>  <PUBCHEM_ATOM_DEF_STEREO_COUNT>
0

>  <PUBCHEM_ATOM_UDEF_STEREO_COUNT>
0

>  <PUBCHEM_BOND_DEF_STEREO_COUNT>
0

>  <PUBCHEM_BOND_UDEF_STEREO_COUNT>
0

>  <PUBCHEM_CACTVS_TAUTO_COUNT>
24

>  <PUBCHEM_COMPONENT_COUNT>
1

>  <PUBCHEM_COMPOUND_CID>
10168

>  <PUBCHEM_CONFORMER_DIVERSEORDER>
1

>  <PUBCHEM_CONFORMER_ID>
000027B800000001

>  <PUBCHEM_CONFORMER_RMSD>
0.6

>  <PUBCHEM_COORDINATE_TYPE>
2
5
10

>  <PUBCHEM_EFFECTIVE_ROTOR_COUNT>
1

>  <PUBCHEM_FEATURE_SELFOVERLAP>
50.846

>  <PUBCHEM_HEAVY_ATOM_COUNT>
21

>  <PUBCHEM_ISOTOPIC_ATOM_COUNT>
0

>  <PUBCHEM_MMFF94_ENERGY>
68.6965

>  <PUBCHEM_MMFF94_PARTIAL_CHARGES>
29
1 -0.53
10 0.09
11 0.4
12 0.4
13 0.08
14 -0.15
15 0.08
16 0.09
17 -0.15
18 -0.15
19 -0.15
2 -0.57
20 -0.15
21 0.63
22 0.15
23 0.15
24 0.15
25 0.15
26 0.15
27 0.45
28 0.45
29 0.5
3 -0.57
4 -0.53
5 -0.65
6 -0.57
7 0.09
8 0.09
9 0.09

>  <PUBCHEM_PHARMACOPHORE_FEATURES>
10
1 1 donor
1 2 acceptor
1 3 acceptor
1 4 donor
1 5 acceptor
1 6 acceptor
3 5 6 21 anion
6 7 8 13 14 16 18 rings
6 7 8 9 10 11 12 rings
6 9 10 15 17 19 20 rings

>  <PUBCHEM_SHAPE_FINGERPRINT>
10411042 1 17474108078014113454
10493431 412 18269565953339895465
10498660 4 18410294674922913756
10616163 171 18410857672284589919
10967382 1 18338516322768651303
11112241 14 16053761070513734896
11132069 177 18409728443646081177
11578080 2 16880465970251001054
12011746 2 18411414016725795421
12236239 1 17822008735941251148
12390115 104 18200049372811105841
12403814 3 17603301544648884029
12788726 201 17130428969891162825
12839892 36 18337935806573543930
12954195 1 17914635873199923916
13132413 78 18412263956188401997
13140716 1 17978237380748065187
13214271 11 18413105065582804717
138480 1 17689997830145918786
13862211 1 18410849988456228526
14787075 74 18271241724201582520
14790565 3 18410863182654238816
15196674 1 18410573989646956454
15442244 35 17978509737119017459
15536298 74 18270120106524723222
16945 1 18338797943927191847
19591789 44 18339360880600163352
200 152 18060414720851970709
20510252 161 18343586217802211793
21029758 11 18343016726961894417
21267235 1 18410019848582002819
21421861 104 17898004620951251034
2334 1 18410855434849033379
23366157 5 17970072141091609650
23402539 116 18342168981657591294
23463225 33 18336828581004649021
23557571 272 18272379688914152982
23559900 14 18198340655049243982
2748010 2 18338801104986231055
335352 9 18266458707240121534
34934 24 18410288074001057415
350125 39 18338802342116335721
3545911 37 18410294679449859541
4214541 1 18410575071905095872
474 4 17748835132931610636
474229 33 18410572911836947014
5104073 3 18410011018223987362
58051976 378 18340767031444580180
59755656 215 18340493253766844862
7364860 26 18197216936859193670
9709674 26 18340492162006407318

>  <PUBCHEM_SHAPE_MULTIPOLES>
396.95
8.82
2.71
0.59
3.87
0.56
0
-1.97
0
-0.5
0
-0.03
-0.02
0

>  <PUBCHEM_SHAPE_SELFOVERLAP>
903.159

>  <PUBCHEM_SHAPE_VOLUME>
204.5

>  <RI>
-9.19813e+08

>  <Rbt.Current_Directory>
/root/miniconda3/envs/rdock/share/rxdock-2013.1.1_148c5bd1-0/data/ligands/prepped_ligands/Rhein

>  <Rbt.Executable>
rbdock/0.1.0

>  <Rbt.Library>
librxdock.so/0.1.0

>  <Rbt.Parameter_File>
/root/miniconda3/envs/rdock/share/rxdock-2013.1.1_148c5bd1-0/data/scripts/dock.prm

>  <Rbt.Receptor>
def.prm

>  <SCORE>
-16.9563

>  <SCORE.INTER>
-16.1173

>  <SCORE.INTER.CONST>
1

>  <SCORE.INTER.POLAR>
-1.35561

>  <SCORE.INTER.REPUL>
0

>  <SCORE.INTER.ROT>
1

>  <SCORE.INTER.VDW>
-17.9083

>  <SCORE.INTER.norm>
-0.767492

>  <SCORE.INTRA>
0.158126

>  <SCORE.INTRA.DIHEDRAL>
0.369448

>  <SCORE.INTRA.DIHEDRAL.0>
1.91521e-05

>  <SCORE.INTRA.POLAR>
0.0208669

>  <SCORE.INTRA.POLAR.0>
-0.0515654

>  <SCORE.INTRA.REPUL>
0

>  <SCORE.INTRA.REPUL.0>
0

>  <SCORE.INTRA.VDW>
-0.0975457

>  <SCORE.INTRA.VDW.0>
1.17338

>  <SCORE.INTRA.norm>
0.00752979

>  <SCORE.RESTR>
0

>  <SCORE.RESTR.CAVITY>
0

>  <SCORE.RESTR.norm>
0

>  <SCORE.SYSTEM>
-0.997069

>  <SCORE.SYSTEM.CONST>
0

>  <SCORE.SYSTEM.DIHEDRAL>
0.139986

>  <SCORE.SYSTEM.VDW>
-1.06706

>  <SCORE.SYSTEM.norm>
-0.0474795

>  <SCORE.heavy>
21

>  <SCORE.norm>
-0.807442

$$$$
10168
  RxDock  02242112073D
librxdock.so/0.1.0
 24 26  0  0  0  0  0  0  0  0999 V2000
  -46.6887    0.1828   14.3018 O   0  0  0  0  0  0
  -49.0308   -0.7980   13.9636 O   0  0  0  0  0  0
  -48.0028   -4.8653   17.2741 O   0  0  0  0  0  0
  -51.4078   -1.6458   13.5212 O   0  0  0  0  0  0
  -43.4036   -3.4093   17.6777 O   0  0  0  0  0  0
  -42.8844   -1.2116   17.4184 O   0  0  0  0  0  0
  -47.4782   -1.8448   15.3811 C   0  0  0  0  0  0
  -47.2095   -2.9075   16.2461 C   0  0  0  0  0  0
  -49.8248   -2.7536   14.9936 C   0  0  0  0  0  0
  -49.5559   -3.8165   15.8585 C   0  0  0  0  0  0
  -48.7957   -1.7289   14.7231 C   0  0  0  0  0  0
  -48.2385   -3.9323   16.5164 C   0  0  0  0  0  0
  -46.4942   -0.8801   15.1334 C   0  0  0  0  0  0
  -45.9567   -3.0058   16.8634 C   0  0  0  0  0  0
  -51.0776   -2.6554   14.3763 C   0  0  0  0  0  0
  -44.9790   -2.0422   16.6138 C   0  0  0  0  0  0
  -50.5399   -4.7811   16.1063 C   0  0  0  0  0  0
  -45.2471   -0.9817   15.7508 C   0  0  0  0  0  0
  -52.0553   -3.6188   14.6262 C   0  0  0  0  0  0
  -51.7871   -4.6794   15.4893 C   0  0  0  0  0  0
  -43.6777   -2.1445   17.2556 C   0  0  0  0  0  0
  -46.4690   -0.0685   13.3886 H   0  0  0  0  0  0
  -50.6760   -1.0174   13.4314 H   0  0  0  0  0  0
  -42.4704   -3.5041   17.9649 H   0  0  0  0  0  0
  1 13  1  0  0  0
  1 22  1  0  0  0
  2 11  2  0  0  0
  3 12  2  0  0  0
  4 15  1  0  0  0
  4 23  1  0  0  0
  5 21  1  0  0  0
  5 24  1  0  0  0
  6 21  2  0  0  0
  7  8  2  0  0  0
  7 11  1  0  0  0
  7 13  1  0  0  0
  8 12  1  0  0  0
  8 14  1  0  0  0
  9 10  2  0  0  0
  9 11  1  0  0  0
  9 15  1  0  0  0
 10 12  1  0  0  0
 10 17  1  0  0  0
 13 18  2  0  0  0
 14 16  2  0  0  0
 15 19  2  0  0  0
 16 18  1  0  0  0
 16 21  1  0  0  0
 17 20  2  0  0  0
 19 20  1  0  0  0
M  END
>  <CHROM.0>
-177.76278238,63.34355779,176.04149129

>  <CHROM.1>
-87.23942153,-1.57101072,-10.01201327,21.08143010,-47.75701276,-2.50331427
15.70888037,-0.03344073,-0.34188478,-0.59562625

>  <Name>
10168

>  <PUBCHEM_ATOM_DEF_STEREO_COUNT>
0

>  <PUBCHEM_ATOM_UDEF_STEREO_COUNT>
0

>  <PUBCHEM_BOND_DEF_STEREO_COUNT>
0

>  <PUBCHEM_BOND_UDEF_STEREO_COUNT>
0

>  <PUBCHEM_CACTVS_TAUTO_COUNT>
24

>  <PUBCHEM_COMPONENT_COUNT>
1

>  <PUBCHEM_COMPOUND_CID>
10168

>  <PUBCHEM_CONFORMER_DIVERSEORDER>
1

>  <PUBCHEM_CONFORMER_ID>
000027B800000001

>  <PUBCHEM_CONFORMER_RMSD>
0.6

>  <PUBCHEM_COORDINATE_TYPE>
2
5
10

>  <PUBCHEM_EFFECTIVE_ROTOR_COUNT>
1

>  <PUBCHEM_FEATURE_SELFOVERLAP>
50.846

>  <PUBCHEM_HEAVY_ATOM_COUNT>
21

>  <PUBCHEM_ISOTOPIC_ATOM_COUNT>
0

>  <PUBCHEM_MMFF94_ENERGY>
68.6965

>  <PUBCHEM_MMFF94_PARTIAL_CHARGES>
29
1 -0.53
10 0.09
11 0.4
12 0.4
13 0.08
14 -0.15
15 0.08
16 0.09
17 -0.15
18 -0.15
19 -0.15
2 -0.57
20 -0.15
21 0.63
22 0.15
23 0.15
24 0.15
25 0.15
26 0.15
27 0.45
28 0.45
29 0.5
3 -0.57
4 -0.53
5 -0.65
6 -0.57
7 0.09
8 0.09
9 0.09

>  <PUBCHEM_PHARMACOPHORE_FEATURES>
10
1 1 donor
1 2 acceptor
1 3 acceptor
1 4 donor
1 5 acceptor
1 6 acceptor
3 5 6 21 anion
6 7 8 13 14 16 18 rings
6 7 8 9 10 11 12 rings
6 9 10 15 17 19 20 rings

>  <PUBCHEM_SHAPE_FINGERPRINT>
10411042 1 17474108078014113454
10493431 412 18269565953339895465
10498660 4 18410294674922913756
10616163 171 18410857672284589919
10967382 1 18338516322768651303
11112241 14 16053761070513734896
11132069 177 18409728443646081177
11578080 2 16880465970251001054
12011746 2 18411414016725795421
12236239 1 17822008735941251148
12390115 104 18200049372811105841
12403814 3 17603301544648884029
12788726 201 17130428969891162825
12839892 36 18337935806573543930
12954195 1 17914635873199923916
13132413 78 18412263956188401997
13140716 1 17978237380748065187
13214271 11 18413105065582804717
138480 1 17689997830145918786
13862211 1 18410849988456228526
14787075 74 18271241724201582520
14790565 3 18410863182654238816
15196674 1 18410573989646956454
15442244 35 17978509737119017459
15536298 74 18270120106524723222
16945 1 18338797943927191847
19591789 44 18339360880600163352
200 152 18060414720851970709
20510252 161 18343586217802211793
21029758 11 18343016726961894417
21267235 1 18410019848582002819
21421861 104 17898004620951251034
2334 1 18410855434849033379
23366157 5 17970072141091609650
23402539 116 18342168981657591294
23463225 33 18336828581004649021
23557571 272 18272379688914152982
23559900 14 18198340655049243982
2748010 2 18338801104986231055
335352 9 18266458707240121534
34934 24 18410288074001057415
350125 39 18338802342116335721
3545911 37 18410294679449859541
4214541 1 18410575071905095872
474 4 17748835132931610636
474229 33 18410572911836947014
5104073 3 18410011018223987362
58051976 378 18340767031444580180
59755656 215 18340493253766844862
7364860 26 18197216936859193670
9709674 26 18340492162006407318

>  <PUBCHEM_SHAPE_MULTIPOLES>
396.95
8.82
2.71
0.59
3.87
0.56
0
-1.97
0
-0.5
0
-0.03
-0.02
0

>  <PUBCHEM_SHAPE_SELFOVERLAP>
903.159

>  <PUBCHEM_SHAPE_VOLUME>
204.5

>  <RI>
-9.19813e+08

>  <Rbt.Current_Directory>
/root/miniconda3/envs/rdock/share/rxdock-2013.1.1_148c5bd1-0/data/ligands/prepped_ligands/Rhein

>  <Rbt.Executable>
rbdock/0.1.0

>  <Rbt.Library>
librxdock.so/0.1.0

>  <Rbt.Parameter_File>
/root/miniconda3/envs/rdock/share/rxdock-2013.1.1_148c5bd1-0/data/scripts/dock.prm

>  <Rbt.Receptor>
def.prm

>  <SCORE>
-13.6148

>  <SCORE.INTER>
-15.2543

>  <SCORE.INTER.CONST>
1

>  <SCORE.INTER.POLAR>
-1.9843

>  <SCORE.INTER.REPUL>
0.193633

>  <SCORE.INTER.ROT>
1

>  <SCORE.INTER.VDW>
-15.8758

>  <SCORE.INTER.norm>
-0.726395

>  <SCORE.INTRA>
2.58855

>  <SCORE.INTRA.DIHEDRAL>
7.14911

>  <SCORE.INTRA.DIHEDRAL.0>
1.91521e-05

>  <SCORE.INTRA.POLAR>
0.000324679

>  <SCORE.INTRA.POLAR.0>
-0.0515654

>  <SCORE.INTRA.REPUL>
0

>  <SCORE.INTRA.REPUL.0>
0

>  <SCORE.INTRA.VDW>
-0.987105

>  <SCORE.INTRA.VDW.0>
1.17338

>  <SCORE.INTRA.norm>
0.123264

>  <SCORE.RESTR>
0.0663583

>  <SCORE.RESTR.CAVITY>
0.0663583

>  <SCORE.RESTR.norm>
0.00315992

>  <SCORE.SYSTEM>
-1.01546

>  <SCORE.SYSTEM.CONST>
0

>  <SCORE.SYSTEM.DIHEDRAL>
0.107642

>  <SCORE.SYSTEM.VDW>
-1.06929

>  <SCORE.SYSTEM.norm>
-0.0483555

>  <SCORE.heavy>
21

>  <SCORE.norm>
-0.648326

$$$$
10168
  RxDock  02242112073D
librxdock.so/0.1.0
 24 26  0  0  0  0  0  0  0  0999 V2000
  -50.8496   -1.0764   13.4259 O   0  0  0  0  0  0
  -48.4086   -0.5298   13.9777 O   0  0  0  0  0  0
  -48.0451   -4.6827   17.3214 O   0  0  0  0  0  0
  -45.9777    0.1488   14.4188 O   0  0  0  0  0  0
  -53.8972   -4.5646   14.7834 O   0  0  0  0  0  0
  -52.8958   -5.8370   16.3786 O   0  0  0  0  0  0
  -49.4853   -2.3688   14.9648 C   0  0  0  0  0  0
  -49.3904   -3.4539   15.8385 C   0  0  0  0  0  0
  -47.0628   -1.7600   15.4579 C   0  0  0  0  0  0
  -46.9680   -2.8451   16.3318 C   0  0  0  0  0  0
  -48.3250   -1.4820   14.7425 C   0  0  0  0  0  0
  -48.1284   -3.7317   16.5540 C   0  0  0  0  0  0
  -50.6873   -2.1164   14.2927 C   0  0  0  0  0  0
  -50.4976   -4.2867   16.0403 C   0  0  0  0  0  0
  -45.9555   -0.9272   15.2562 C   0  0  0  0  0  0
  -51.6936   -4.0317   15.3685 C   0  0  0  0  0  0
  -45.7660   -3.0976   17.0038 C   0  0  0  0  0  0
  -51.7883   -2.9490   14.4966 C   0  0  0  0  0  0
  -44.7596   -1.1825   15.9277 C   0  0  0  0  0  0
  -44.6650   -2.2654   16.7997 C   0  0  0  0  0  0
  -52.8435   -4.8974   15.5783 C   0  0  0  0  0  0
  -50.0124   -0.5907   13.3332 H   0  0  0  0  0  0
  -46.0935   -0.1327   13.4992 H   0  0  0  0  0  0
  -54.6698   -5.1491   14.9377 H   0  0  0  0  0  0
  1 13  1  0  0  0
  1 22  1  0  0  0
  2 11  2  0  0  0
  3 12  2  0  0  0
  4 15  1  0  0  0
  4 23  1  0  0  0
  5 21  1  0  0  0
  5 24  1  0  0  0
  6 21  2  0  0  0
  7  8  2  0  0  0
  7 11  1  0  0  0
  7 13  1  0  0  0
  8 12  1  0  0  0
  8 14  1  0  0  0
  9 10  2  0  0  0
  9 11  1  0  0  0
  9 15  1  0  0  0
 10 12  1  0  0  0
 10 17  1  0  0  0
 13 18  2  0  0  0
 14 16  2  0  0  0
 15 19  2  0  0  0
 16 18  1  0  0  0
 16 21  1  0  0  0
 17 20  2  0  0  0
 19 20  1  0  0  0
M  END
>  <CHROM.0>
-60.84253963,-59.53212080,177.34461323

>  <CHROM.1>
2.39549981,-65.54222348,0.42891172,-175.87203920,-49.03350705,-2.75015637
15.43237409,2.84994418,0.30660701,2.47857156

>  <Name>
10168

>  <PUBCHEM_ATOM_DEF_STEREO_COUNT>
0

>  <PUBCHEM_ATOM_UDEF_STEREO_COUNT>
0

>  <PUBCHEM_BOND_DEF_STEREO_COUNT>
0

>  <PUBCHEM_BOND_UDEF_STEREO_COUNT>
0

>  <PUBCHEM_CACTVS_TAUTO_COUNT>
24

>  <PUBCHEM_COMPONENT_COUNT>
1

>  <PUBCHEM_COMPOUND_CID>
10168

>  <PUBCHEM_CONFORMER_DIVERSEORDER>
1

>  <PUBCHEM_CONFORMER_ID>
000027B800000001

>  <PUBCHEM_CONFORMER_RMSD>
0.6

>  <PUBCHEM_COORDINATE_TYPE>
2
5
10

>  <PUBCHEM_EFFECTIVE_ROTOR_COUNT>
1

>  <PUBCHEM_FEATURE_SELFOVERLAP>
50.846

>  <PUBCHEM_HEAVY_ATOM_COUNT>
21

>  <PUBCHEM_ISOTOPIC_ATOM_COUNT>
0

>  <PUBCHEM_MMFF94_ENERGY>
68.6965

>  <PUBCHEM_MMFF94_PARTIAL_CHARGES>
29
1 -0.53
10 0.09
11 0.4
12 0.4
13 0.08
14 -0.15
15 0.08
16 0.09
17 -0.15
18 -0.15
19 -0.15
2 -0.57
20 -0.15
21 0.63
22 0.15
23 0.15
24 0.15
25 0.15
26 0.15
27 0.45
28 0.45
29 0.5
3 -0.57
4 -0.53
5 -0.65
6 -0.57
7 0.09
8 0.09
9 0.09

>  <PUBCHEM_PHARMACOPHORE_FEATURES>
10
1 1 donor
1 2 acceptor
1 3 acceptor
1 4 donor
1 5 acceptor
1 6 acceptor
3 5 6 21 anion
6 7 8 13 14 16 18 rings
6 7 8 9 10 11 12 rings
6 9 10 15 17 19 20 rings

>  <PUBCHEM_SHAPE_FINGERPRINT>
10411042 1 17474108078014113454
10493431 412 18269565953339895465
10498660 4 18410294674922913756
10616163 171 18410857672284589919
10967382 1 18338516322768651303
11112241 14 16053761070513734896
11132069 177 18409728443646081177
11578080 2 16880465970251001054
12011746 2 18411414016725795421
12236239 1 17822008735941251148
12390115 104 18200049372811105841
12403814 3 17603301544648884029
12788726 201 17130428969891162825
12839892 36 18337935806573543930
12954195 1 17914635873199923916
13132413 78 18412263956188401997
13140716 1 17978237380748065187
13214271 11 18413105065582804717
138480 1 17689997830145918786
13862211 1 18410849988456228526
14787075 74 18271241724201582520
14790565 3 18410863182654238816
15196674 1 18410573989646956454
15442244 35 17978509737119017459
15536298 74 18270120106524723222
16945 1 18338797943927191847
19591789 44 18339360880600163352
200 152 18060414720851970709
20510252 161 18343586217802211793
21029758 11 18343016726961894417
21267235 1 18410019848582002819
21421861 104 17898004620951251034
2334 1 18410855434849033379
23366157 5 17970072141091609650
23402539 116 18342168981657591294
23463225 33 18336828581004649021
23557571 272 18272379688914152982
23559900 14 18198340655049243982
2748010 2 18338801104986231055
335352 9 18266458707240121534
34934 24 18410288074001057415
350125 39 18338802342116335721
3545911 37 18410294679449859541
4214541 1 18410575071905095872
474 4 17748835132931610636
474229 33 18410572911836947014
5104073 3 18410011018223987362
58051976 378 18340767031444580180
59755656 215 18340493253766844862
7364860 26 18197216936859193670
9709674 26 18340492162006407318

>  <PUBCHEM_SHAPE_MULTIPOLES>
396.95
8.82
2.71
0.59
3.87
0.56
0
-1.97
0
-0.5
0
-0.03
-0.02
0

>  <PUBCHEM_SHAPE_SELFOVERLAP>
903.159

>  <PUBCHEM_SHAPE_VOLUME>
204.5

>  <RI>
-9.19813e+08

>  <Rbt.Current_Directory>
/root/miniconda3/envs/rdock/share/rxdock-2013.1.1_148c5bd1-0/data/ligands/prepped_ligands/Rhein

>  <Rbt.Executable>
rbdock/0.1.0

>  <Rbt.Library>
librxdock.so/0.1.0

>  <Rbt.Parameter_File>
/root/miniconda3/envs/rdock/share/rxdock-2013.1.1_148c5bd1-0/data/scripts/dock.prm

>  <Rbt.Receptor>
def.prm

>  <SCORE>
-16.0125

>  <SCORE.INTER>
-16.2879

>  <SCORE.INTER.CONST>
1

>  <SCORE.INTER.POLAR>
-1.75726

>  <SCORE.INTER.REPUL>
0

>  <SCORE.INTER.ROT>
1

>  <SCORE.INTER.VDW>
-16.7133

>  <SCORE.INTER.norm>
-0.775616

>  <SCORE.INTRA>
1.34919

>  <SCORE.INTRA.DIHEDRAL>
4.05412

>  <SCORE.INTRA.DIHEDRAL.0>
1.91521e-05

>  <SCORE.INTRA.POLAR>
0.0189336

>  <SCORE.INTRA.POLAR.0>
-0.0515654

>  <SCORE.INTRA.REPUL>
0

>  <SCORE.INTRA.REPUL.0>
0

>  <SCORE.INTRA.VDW>
-0.74225

>  <SCORE.INTRA.VDW.0>
1.17338

>  <SCORE.INTRA.norm>
0.064247

>  <SCORE.RESTR>
0.000325857

>  <SCORE.RESTR.CAVITY>
0.000325857

>  <SCORE.RESTR.norm>
1.5517e-05

>  <SCORE.SYSTEM>
-1.07411

>  <SCORE.SYSTEM.CONST>
0

>  <SCORE.SYSTEM.DIHEDRAL>
0.0231825

>  <SCORE.SYSTEM.VDW>
-1.0857

>  <SCORE.SYSTEM.norm>
-0.0511481

>  <SCORE.heavy>
21

>  <SCORE.norm>
-0.762502

$$$$
