10168
  RxDock  02242110023D
librxdock.so/0.1.0
 24 26  0  0  0  0  0  0  0  0999 V2000
  -49.0405   -7.3122   17.8972 O   0  0  0  0  0  0
  -51.4308   -8.0144   17.3013 O   0  0  0  0  0  0
  -52.6333   -3.1053   15.5651 O   0  0  0  0  0  0
  -53.7818   -8.8760   16.7580 O   0  0  0  0  0  0
  -46.5777   -3.1752   17.5777 O   0  0  0  0  0  0
  -47.9335   -1.5736   16.7042 O   0  0  0  0  0  0
  -50.6957   -5.8129   16.9423 C   0  0  0  0  0  0
  -51.0098   -4.5302   16.4888 C   0  0  0  0  0  0
  -53.0529   -6.5906   16.3752 C   0  0  0  0  0  0
  -53.3669   -5.3077   15.9218 C   0  0  0  0  0  0
  -51.7057   -6.8901   16.9023 C   0  0  0  0  0  0
  -52.3569   -4.2306   15.9619 C   0  0  0  0  0  0
  -49.4151   -6.0838   17.4392 C   0  0  0  0  0  0
  -50.0434   -3.5181   16.5321 C   0  0  0  0  0  0
  -54.0193   -7.6026   16.3318 C   0  0  0  0  0  0
  -48.7685   -3.7923   17.0281 C   0  0  0  0  0  0
  -54.6475   -5.0368   15.4248 C   0  0  0  0  0  0
  -48.4549   -5.0723   17.4806 C   0  0  0  0  0  0
  -55.2941   -7.3285   15.8355 C   0  0  0  0  0  0
  -55.6075   -6.0483   15.3830 C   0  0  0  0  0  0
  -47.7646   -2.7405   17.0727 C   0  0  0  0  0  0
  -49.7571   -7.9523   17.7483 H   0  0  0  0  0  0
  -52.8693   -9.1387   16.5663 H   0  0  0  0  0  0
  -45.8952   -2.4706   17.5642 H   0  0  0  0  0  0
  1 13  1  0  0  0
  1 22  1  0  0  0
  2 11  2  0  0  0
  3 12  2  0  0  0
  4 15  1  0  0  0
  4 23  1  0  0  0
  5 21  1  0  0  0
  5 24  1  0  0  0
  6 21  2  0  0  0
  7  8  2  0  0  0
  7 11  1  0  0  0
  7 13  1  0  0  0
  8 12  1  0  0  0
  8 14  1  0  0  0
  9 10  2  0  0  0
  9 11  1  0  0  0
  9 15  1  0  0  0
 10 12  1  0  0  0
 10 17  1  0  0  0
 13 18  2  0  0  0
 14 16  2  0  0  0
 15 19  2  0  0  0
 16 18  1  0  0  0
 16 21  1  0  0  0
 17 20  2  0  0  0
 19 20  1  0  0  0
M  END
>  <CHROM.0>
69.89885713,-62.93797605,57.99241554

>  <CHROM.1>
4.97050414,-35.00706431,-2.76385356,-179.76505515,-51.23052922,-5.37508768
16.64366679,-0.46109137,0.30804287,2.87779402

>  <Name>
10168

>  <PUBCHEM_ATOM_DEF_STEREO_COUNT>
0

>  <PUBCHEM_ATOM_UDEF_STEREO_COUNT>
0

>  <PUBCHEM_BOND_DEF_STEREO_COUNT>
0

>  <PUBCHEM_BOND_UDEF_STEREO_COUNT>
0

>  <PUBCHEM_CACTVS_TAUTO_COUNT>
24

>  <PUBCHEM_COMPONENT_COUNT>
1

>  <PUBCHEM_COMPOUND_CID>
10168

>  <PUBCHEM_CONFORMER_DIVERSEORDER>
1

>  <PUBCHEM_CONFORMER_ID>
000027B800000001

>  <PUBCHEM_CONFORMER_RMSD>
0.6

>  <PUBCHEM_COORDINATE_TYPE>
2
5
10

>  <PUBCHEM_EFFECTIVE_ROTOR_COUNT>
1

>  <PUBCHEM_FEATURE_SELFOVERLAP>
50.846

>  <PUBCHEM_HEAVY_ATOM_COUNT>
21

>  <PUBCHEM_ISOTOPIC_ATOM_COUNT>
0

>  <PUBCHEM_MMFF94_ENERGY>
68.6965

>  <PUBCHEM_MMFF94_PARTIAL_CHARGES>
29
1 -0.53
10 0.09
11 0.4
12 0.4
13 0.08
14 -0.15
15 0.08
16 0.09
17 -0.15
18 -0.15
19 -0.15
2 -0.57
20 -0.15
21 0.63
22 0.15
23 0.15
24 0.15
25 0.15
26 0.15
27 0.45
28 0.45
29 0.5
3 -0.57
4 -0.53
5 -0.65
6 -0.57
7 0.09
8 0.09
9 0.09

>  <PUBCHEM_PHARMACOPHORE_FEATURES>
10
1 1 donor
1 2 acceptor
1 3 acceptor
1 4 donor
1 5 acceptor
1 6 acceptor
3 5 6 21 anion
6 7 8 13 14 16 18 rings
6 7 8 9 10 11 12 rings
6 9 10 15 17 19 20 rings

>  <PUBCHEM_SHAPE_FINGERPRINT>
10411042 1 17474108078014113454
10493431 412 18269565953339895465
10498660 4 18410294674922913756
10616163 171 18410857672284589919
10967382 1 18338516322768651303
11112241 14 16053761070513734896
11132069 177 18409728443646081177
11578080 2 16880465970251001054
12011746 2 18411414016725795421
12236239 1 17822008735941251148
12390115 104 18200049372811105841
12403814 3 17603301544648884029
12788726 201 17130428969891162825
12839892 36 18337935806573543930
12954195 1 17914635873199923916
13132413 78 18412263956188401997
13140716 1 17978237380748065187
13214271 11 18413105065582804717
138480 1 17689997830145918786
13862211 1 18410849988456228526
14787075 74 18271241724201582520
14790565 3 18410863182654238816
15196674 1 18410573989646956454
15442244 35 17978509737119017459
15536298 74 18270120106524723222
16945 1 18338797943927191847
19591789 44 18339360880600163352
200 152 18060414720851970709
20510252 161 18343586217802211793
21029758 11 18343016726961894417
21267235 1 18410019848582002819
21421861 104 17898004620951251034
2334 1 18410855434849033379
23366157 5 17970072141091609650
23402539 116 18342168981657591294
23463225 33 18336828581004649021
23557571 272 18272379688914152982
23559900 14 18198340655049243982
2748010 2 18338801104986231055
335352 9 18266458707240121534
34934 24 18410288074001057415
350125 39 18338802342116335721
3545911 37 18410294679449859541
4214541 1 18410575071905095872
474 4 17748835132931610636
474229 33 18410572911836947014
5104073 3 18410011018223987362
58051976 378 18340767031444580180
59755656 215 18340493253766844862
7364860 26 18197216936859193670
9709674 26 18340492162006407318

>  <PUBCHEM_SHAPE_MULTIPOLES>
396.95
8.82
2.71
0.59
3.87
0.56
0
-1.97
0
-0.5
0
-0.03
-0.02
0

>  <PUBCHEM_SHAPE_SELFOVERLAP>
903.159

>  <PUBCHEM_SHAPE_VOLUME>
204.5

>  <RI>
-6.29316e+08

>  <Rbt.Current_Directory>
/root/miniconda3/envs/rdock/share/rxdock-2013.1.1_148c5bd1-0/data/ligands/prepped_ligands/Rhein

>  <Rbt.Executable>
rbdock/0.1.0

>  <Rbt.Library>
librxdock.so/0.1.0

>  <Rbt.Parameter_File>
/root/miniconda3/envs/rdock/share/rxdock-2013.1.1_148c5bd1-0/data/scripts/dock.prm

>  <Rbt.Receptor>
def.prm

>  <SCORE>
-15.4435

>  <SCORE.INTER>
-14.8583

>  <SCORE.INTER.CONST>
1

>  <SCORE.INTER.POLAR>
-1.38232

>  <SCORE.INTER.REPUL>
0.00866708

>  <SCORE.INTER.ROT>
1

>  <SCORE.INTER.VDW>
-16.6018

>  <SCORE.INTER.norm>
-0.70754

>  <SCORE.INTRA>
0.306647

>  <SCORE.INTRA.DIHEDRAL>
1.6688

>  <SCORE.INTRA.DIHEDRAL.0>
1.91521e-05

>  <SCORE.INTRA.POLAR>
0.0209912

>  <SCORE.INTRA.POLAR.0>
-0.0515654

>  <SCORE.INTRA.REPUL>
0

>  <SCORE.INTRA.REPUL.0>
0

>  <SCORE.INTRA.VDW>
-0.599122

>  <SCORE.INTRA.VDW.0>
1.17338

>  <SCORE.INTRA.norm>
0.0146023

>  <SCORE.RESTR>
0

>  <SCORE.RESTR.CAVITY>
0

>  <SCORE.RESTR.norm>
0

>  <SCORE.SYSTEM>
-0.891809

>  <SCORE.SYSTEM.CONST>
0

>  <SCORE.SYSTEM.DIHEDRAL>
0.283687

>  <SCORE.SYSTEM.VDW>
-1.03365

>  <SCORE.SYSTEM.norm>
-0.0424671

>  <SCORE.heavy>
21

>  <SCORE.norm>
-0.735405

$$$$
10168
  RxDock  02242110023D
librxdock.so/0.1.0
 24 26  0  0  0  0  0  0  0  0999 V2000
  -50.5435   -7.9601   19.4066 O   0  0  0  0  0  0
  -52.3185   -8.7612   17.7424 O   0  0  0  0  0  0
  -53.7711   -3.7468   16.6001 O   0  0  0  0  0  0
  -54.0444   -9.7242   16.1120 O   0  0  0  0  0  0
  -50.4452   -2.0073   19.5654 O   0  0  0  0  0  0
  -49.2042   -3.3090   20.9554 O   0  0  0  0  0  0
  -51.9837   -6.4707   18.1388 C   0  0  0  0  0  0
  -52.3633   -5.1605   17.8405 C   0  0  0  0  0  0
  -53.7239   -7.3478   16.5002 C   0  0  0  0  0  0
  -54.1035   -6.0374   16.2020 C   0  0  0  0  0  0
  -52.6502   -7.6124   17.4797 C   0  0  0  0  0  0
  -53.4370   -4.8959   16.8612 C   0  0  0  0  0  0
  -50.9644   -6.7078   19.0688 C   0  0  0  0  0  0
  -51.7236   -4.0871   18.4722 C   0  0  0  0  0  0
  -54.3636   -8.4210   15.8685 C   0  0  0  0  0  0
  -50.7082   -4.3279   19.3984 C   0  0  0  0  0  0
  -55.1227   -5.8002   15.2719 C   0  0  0  0  0  0
  -50.3294   -5.6354   19.6961 C   0  0  0  0  0  0
  -55.3786   -8.1802   14.9421 C   0  0  0  0  0  0
  -55.7574   -6.8726   14.6444 C   0  0  0  0  0  0
  -50.0437   -3.2126   20.0542 C   0  0  0  0  0  0
  -49.8174   -7.9014   20.0505 H   0  0  0  0  0  0
  -54.7580  -10.3130   15.8247 H   0  0  0  0  0  0
  -50.0119   -1.2613   20.0324 H   0  0  0  0  0  0
  1 13  1  0  0  0
  1 22  1  0  0  0
  2 11  2  0  0  0
  3 12  2  0  0  0
  4 15  1  0  0  0
  4 23  1  0  0  0
  5 21  1  0  0  0
  5 24  1  0  0  0
  6 21  2  0  0  0
  7  8  2  0  0  0
  7 11  1  0  0  0
  7 13  1  0  0  0
  8 12  1  0  0  0
  8 14  1  0  0  0
  9 10  2  0  0  0
  9 11  1  0  0  0
  9 15  1  0  0  0
 10 12  1  0  0  0
 10 17  1  0  0  0
 13 18  2  0  0  0
 14 16  2  0  0  0
 15 19  2  0  0  0
 16 18  1  0  0  0
 16 21  1  0  0  0
 17 20  2  0  0  0
 19 20  1  0  0  0
M  END
>  <CHROM.0>
-61.67984899,-178.98874494,-179.64678900

>  <CHROM.1>
178.72147228,161.37035122,-1.79011791,-5.56562965,-52.46498269,-6.01213077
17.71208564,-0.61735047,0.74698349,-3.11001505

>  <Name>
10168

>  <PUBCHEM_ATOM_DEF_STEREO_COUNT>
0

>  <PUBCHEM_ATOM_UDEF_STEREO_COUNT>
0

>  <PUBCHEM_BOND_DEF_STEREO_COUNT>
0

>  <PUBCHEM_BOND_UDEF_STEREO_COUNT>
0

>  <PUBCHEM_CACTVS_TAUTO_COUNT>
24

>  <PUBCHEM_COMPONENT_COUNT>
1

>  <PUBCHEM_COMPOUND_CID>
10168

>  <PUBCHEM_CONFORMER_DIVERSEORDER>
1

>  <PUBCHEM_CONFORMER_ID>
000027B800000001

>  <PUBCHEM_CONFORMER_RMSD>
0.6

>  <PUBCHEM_COORDINATE_TYPE>
2
5
10

>  <PUBCHEM_EFFECTIVE_ROTOR_COUNT>
1

>  <PUBCHEM_FEATURE_SELFOVERLAP>
50.846

>  <PUBCHEM_HEAVY_ATOM_COUNT>
21

>  <PUBCHEM_ISOTOPIC_ATOM_COUNT>
0

>  <PUBCHEM_MMFF94_ENERGY>
68.6965

>  <PUBCHEM_MMFF94_PARTIAL_CHARGES>
29
1 -0.53
10 0.09
11 0.4
12 0.4
13 0.08
14 -0.15
15 0.08
16 0.09
17 -0.15
18 -0.15
19 -0.15
2 -0.57
20 -0.15
21 0.63
22 0.15
23 0.15
24 0.15
25 0.15
26 0.15
27 0.45
28 0.45
29 0.5
3 -0.57
4 -0.53
5 -0.65
6 -0.57
7 0.09
8 0.09
9 0.09

>  <PUBCHEM_PHARMACOPHORE_FEATURES>
10
1 1 donor
1 2 acceptor
1 3 acceptor
1 4 donor
1 5 acceptor
1 6 acceptor
3 5 6 21 anion
6 7 8 13 14 16 18 rings
6 7 8 9 10 11 12 rings
6 9 10 15 17 19 20 rings

>  <PUBCHEM_SHAPE_FINGERPRINT>
10411042 1 17474108078014113454
10493431 412 18269565953339895465
10498660 4 18410294674922913756
10616163 171 18410857672284589919
10967382 1 18338516322768651303
11112241 14 16053761070513734896
11132069 177 18409728443646081177
11578080 2 16880465970251001054
12011746 2 18411414016725795421
12236239 1 17822008735941251148
12390115 104 18200049372811105841
12403814 3 17603301544648884029
12788726 201 17130428969891162825
12839892 36 18337935806573543930
12954195 1 17914635873199923916
13132413 78 18412263956188401997
13140716 1 17978237380748065187
13214271 11 18413105065582804717
138480 1 17689997830145918786
13862211 1 18410849988456228526
14787075 74 18271241724201582520
14790565 3 18410863182654238816
15196674 1 18410573989646956454
15442244 35 17978509737119017459
15536298 74 18270120106524723222
16945 1 18338797943927191847
19591789 44 18339360880600163352
200 152 18060414720851970709
20510252 161 18343586217802211793
21029758 11 18343016726961894417
21267235 1 18410019848582002819
21421861 104 17898004620951251034
2334 1 18410855434849033379
23366157 5 17970072141091609650
23402539 116 18342168981657591294
23463225 33 18336828581004649021
23557571 272 18272379688914152982
23559900 14 18198340655049243982
2748010 2 18338801104986231055
335352 9 18266458707240121534
34934 24 18410288074001057415
350125 39 18338802342116335721
3545911 37 18410294679449859541
4214541 1 18410575071905095872
474 4 17748835132931610636
474229 33 18410572911836947014
5104073 3 18410011018223987362
58051976 378 18340767031444580180
59755656 215 18340493253766844862
7364860 26 18197216936859193670
9709674 26 18340492162006407318

>  <PUBCHEM_SHAPE_MULTIPOLES>
396.95
8.82
2.71
0.59
3.87
0.56
0
-1.97
0
-0.5
0
-0.03
-0.02
0

>  <PUBCHEM_SHAPE_SELFOVERLAP>
903.159

>  <PUBCHEM_SHAPE_VOLUME>
204.5

>  <RI>
-6.29316e+08

>  <Rbt.Current_Directory>
/root/miniconda3/envs/rdock/share/rxdock-2013.1.1_148c5bd1-0/data/ligands/prepped_ligands/Rhein

>  <Rbt.Executable>
rbdock/0.1.0

>  <Rbt.Library>
librxdock.so/0.1.0

>  <Rbt.Parameter_File>
/root/miniconda3/envs/rdock/share/rxdock-2013.1.1_148c5bd1-0/data/scripts/dock.prm

>  <Rbt.Receptor>
def.prm

>  <SCORE>
-16.2401

>  <SCORE.INTER>
-15.7663

>  <SCORE.INTER.CONST>
1

>  <SCORE.INTER.POLAR>
-1.35796

>  <SCORE.INTER.REPUL>
0

>  <SCORE.INTER.ROT>
1

>  <SCORE.INTER.VDW>
-17.5493

>  <SCORE.INTER.norm>
-0.750777

>  <SCORE.INTRA>
0.626929

>  <SCORE.INTRA.DIHEDRAL>
0.633248

>  <SCORE.INTRA.DIHEDRAL.0>
1.91521e-05

>  <SCORE.INTRA.POLAR>
0.0515654

>  <SCORE.INTRA.POLAR.0>
-0.0515654

>  <SCORE.INTRA.REPUL>
0

>  <SCORE.INTRA.REPUL.0>
0

>  <SCORE.INTRA.VDW>
0.134983

>  <SCORE.INTRA.VDW.0>
1.17338

>  <SCORE.INTRA.norm>
0.0298538

>  <SCORE.RESTR>
0

>  <SCORE.RESTR.CAVITY>
0

>  <SCORE.RESTR.norm>
0

>  <SCORE.SYSTEM>
-1.10072

>  <SCORE.SYSTEM.CONST>
0

>  <SCORE.SYSTEM.DIHEDRAL>
0.0134641

>  <SCORE.SYSTEM.POLAR>
-0.002871

>  <SCORE.SYSTEM.VDW>
-1.0977

>  <SCORE.SYSTEM.norm>
-0.0524155

>  <SCORE.heavy>
21

>  <SCORE.norm>
-0.773339

$$$$
10168
  RxDock  02242110023D
librxdock.so/0.1.0
 24 26  0  0  0  0  0  0  0  0999 V2000
  -45.3715    0.1369   14.0706 O   0  0  0  0  0  0
  -47.8158   -0.4147   13.5389 O   0  0  0  0  0  0
  -48.0428   -4.0322   17.4658 O   0  0  0  0  0  0
  -50.2544   -0.8471   12.8825 O   0  0  0  0  0  0
  -42.9674   -3.5585   17.7914 O   0  0  0  0  0  0
  -42.5931   -1.3673   18.2659 O   0  0  0  0  0  0
  -46.6860   -1.5052   15.2852 C   0  0  0  0  0  0
  -46.7451   -2.4505   16.3113 C   0  0  0  0  0  0
  -49.1139   -1.9940   14.6950 C   0  0  0  0  0  0
  -49.1730   -2.9394   15.7211 C   0  0  0  0  0  0
  -47.8681   -1.2424   14.4394 C   0  0  0  0  0  0
  -47.9908   -3.2021   16.5667 C   0  0  0  0  0  0
  -45.4991   -0.7994   15.0536 C   0  0  0  0  0  0
  -45.6175   -2.6901   17.1058 C   0  0  0  0  0  0
  -50.2416   -1.7544   13.9005 C   0  0  0  0  0  0
  -44.4368   -1.9846   16.8715 C   0  0  0  0  0  0
  -50.3598   -3.6451   15.9528 C   0  0  0  0  0  0
  -44.3777   -1.0412   15.8478 C   0  0  0  0  0  0
  -51.4223   -2.4596   14.1350 C   0  0  0  0  0  0
  -51.4812   -3.4030   15.1590 C   0  0  0  0  0  0
  -43.2656   -2.2337   17.6974 C   0  0  0  0  0  0
  -45.7252   -0.2121   13.2349 H   0  0  0  0  0  0
  -51.1605   -0.5731   12.6768 H   0  0  0  0  0  0
  -43.5047   -4.0984   17.1732 H   0  0  0  0  0  0
  1 13  1  0  0  0
  1 22  1  0  0  0
  2 11  2  0  0  0
  3 12  2  0  0  0
  4 15  1  0  0  0
  4 23  1  0  0  0
  5 21  1  0  0  0
  5 24  1  0  0  0
  6 21  2  0  0  0
  7  8  2  0  0  0
  7 11  1  0  0  0
  7 13  1  0  0  0
  8 12  1  0  0  0
  8 14  1  0  0  0
  9 10  2  0  0  0
  9 11  1  0  0  0
  9 15  1  0  0  0
 10 12  1  0  0  0
 10 17  1  0  0  0
 13 18  2  0  0  0
 14 16  2  0  0  0
 15 19  2  0  0  0
 16 18  1  0  0  0
 16 21  1  0  0  0
 17 20  2  0  0  0
 19 20  1  0  0  0
M  END
>  <CHROM.0>
-62.68991684,66.82991425,173.53010519

>  <CHROM.1>
-47.61304727,-158.38034821,-170.92042442,50.48887012,-47.14029914,-2.04094655
15.64225638,-0.27940410,-0.30539043,-0.80693825

>  <Name>
10168

>  <PUBCHEM_ATOM_DEF_STEREO_COUNT>
0

>  <PUBCHEM_ATOM_UDEF_STEREO_COUNT>
0

>  <PUBCHEM_BOND_DEF_STEREO_COUNT>
0

>  <PUBCHEM_BOND_UDEF_STEREO_COUNT>
0

>  <PUBCHEM_CACTVS_TAUTO_COUNT>
24

>  <PUBCHEM_COMPONENT_COUNT>
1

>  <PUBCHEM_COMPOUND_CID>
10168

>  <PUBCHEM_CONFORMER_DIVERSEORDER>
1

>  <PUBCHEM_CONFORMER_ID>
000027B800000001

>  <PUBCHEM_CONFORMER_RMSD>
0.6

>  <PUBCHEM_COORDINATE_TYPE>
2
5
10

>  <PUBCHEM_EFFECTIVE_ROTOR_COUNT>
1

>  <PUBCHEM_FEATURE_SELFOVERLAP>
50.846

>  <PUBCHEM_HEAVY_ATOM_COUNT>
21

>  <PUBCHEM_ISOTOPIC_ATOM_COUNT>
0

>  <PUBCHEM_MMFF94_ENERGY>
68.6965

>  <PUBCHEM_MMFF94_PARTIAL_CHARGES>
29
1 -0.53
10 0.09
11 0.4
12 0.4
13 0.08
14 -0.15
15 0.08
16 0.09
17 -0.15
18 -0.15
19 -0.15
2 -0.57
20 -0.15
21 0.63
22 0.15
23 0.15
24 0.15
25 0.15
26 0.15
27 0.45
28 0.45
29 0.5
3 -0.57
4 -0.53
5 -0.65
6 -0.57
7 0.09
8 0.09
9 0.09

>  <PUBCHEM_PHARMACOPHORE_FEATURES>
10
1 1 donor
1 2 acceptor
1 3 acceptor
1 4 donor
1 5 acceptor
1 6 acceptor
3 5 6 21 anion
6 7 8 13 14 16 18 rings
6 7 8 9 10 11 12 rings
6 9 10 15 17 19 20 rings

>  <PUBCHEM_SHAPE_FINGERPRINT>
10411042 1 17474108078014113454
10493431 412 18269565953339895465
10498660 4 18410294674922913756
10616163 171 18410857672284589919
10967382 1 18338516322768651303
11112241 14 16053761070513734896
11132069 177 18409728443646081177
11578080 2 16880465970251001054
12011746 2 18411414016725795421
12236239 1 17822008735941251148
12390115 104 18200049372811105841
12403814 3 17603301544648884029
12788726 201 17130428969891162825
12839892 36 18337935806573543930
12954195 1 17914635873199923916
13132413 78 18412263956188401997
13140716 1 17978237380748065187
13214271 11 18413105065582804717
138480 1 17689997830145918786
13862211 1 18410849988456228526
14787075 74 18271241724201582520
14790565 3 18410863182654238816
15196674 1 18410573989646956454
15442244 35 17978509737119017459
15536298 74 18270120106524723222
16945 1 18338797943927191847
19591789 44 18339360880600163352
200 152 18060414720851970709
20510252 161 18343586217802211793
21029758 11 18343016726961894417
21267235 1 18410019848582002819
21421861 104 17898004620951251034
2334 1 18410855434849033379
23366157 5 17970072141091609650
23402539 116 18342168981657591294
23463225 33 18336828581004649021
23557571 272 18272379688914152982
23559900 14 18198340655049243982
2748010 2 18338801104986231055
335352 9 18266458707240121534
34934 24 18410288074001057415
350125 39 18338802342116335721
3545911 37 18410294679449859541
4214541 1 18410575071905095872
474 4 17748835132931610636
474229 33 18410572911836947014
5104073 3 18410011018223987362
58051976 378 18340767031444580180
59755656 215 18340493253766844862
7364860 26 18197216936859193670
9709674 26 18340492162006407318

>  <PUBCHEM_SHAPE_MULTIPOLES>
396.95
8.82
2.71
0.59
3.87
0.56
0
-1.97
0
-0.5
0
-0.03
-0.02
0

>  <PUBCHEM_SHAPE_SELFOVERLAP>
903.159

>  <PUBCHEM_SHAPE_VOLUME>
204.5

>  <RI>
-6.29316e+08

>  <Rbt.Current_Directory>
/root/miniconda3/envs/rdock/share/rxdock-2013.1.1_148c5bd1-0/data/ligands/prepped_ligands/Rhein

>  <Rbt.Executable>
rbdock/0.1.0

>  <Rbt.Library>
librxdock.so/0.1.0

>  <Rbt.Parameter_File>
/root/miniconda3/envs/rdock/share/rxdock-2013.1.1_148c5bd1-0/data/scripts/dock.prm

>  <Rbt.Receptor>
def.prm

>  <SCORE>
-14.5555

>  <SCORE.INTER>
-19.2114

>  <SCORE.INTER.CONST>
1

>  <SCORE.INTER.POLAR>
-2.58072

>  <SCORE.INTER.REPUL>
0

>  <SCORE.INTER.ROT>
1

>  <SCORE.INTER.VDW>
-16.8369

>  <SCORE.INTER.norm>
-0.914828

>  <SCORE.INTRA>
5.13937

>  <SCORE.INTRA.DIHEDRAL>
11.4745

>  <SCORE.INTRA.DIHEDRAL.0>
1.91521e-05

>  <SCORE.INTRA.POLAR>
0.0515654

>  <SCORE.INTRA.POLAR.0>
-0.0515654

>  <SCORE.INTRA.REPUL>
0

>  <SCORE.INTRA.REPUL.0>
0

>  <SCORE.INTRA.VDW>
-0.77323

>  <SCORE.INTRA.VDW.0>
1.17338

>  <SCORE.INTRA.norm>
0.244732

>  <SCORE.RESTR>
0.470051

>  <SCORE.RESTR.CAVITY>
0.470051

>  <SCORE.RESTR.norm>
0.0223834

>  <SCORE.SYSTEM>
-0.953533

>  <SCORE.SYSTEM.CONST>
0

>  <SCORE.SYSTEM.DIHEDRAL>
0.35523

>  <SCORE.SYSTEM.VDW>
-1.13115

>  <SCORE.SYSTEM.norm>
-0.0454063

>  <SCORE.heavy>
21

>  <SCORE.norm>
-0.69312

$$$$
10168
  RxDock  02242110023D
librxdock.so/0.1.0
 24 26  0  0  0  0  0  0  0  0999 V2000
  -49.2507   -7.2714   18.0847 O   0  0  0  0  0  0
  -51.5862   -8.0366   17.3624 O   0  0  0  0  0  0
  -52.8003   -3.1769   15.5001 O   0  0  0  0  0  0
  -53.8817   -8.9597   16.6968 O   0  0  0  0  0  0
  -46.8133   -3.1181   17.6867 O   0  0  0  0  0  0
  -48.2549   -1.4919   17.0207 O   0  0  0  0  0  0
  -50.8828   -5.8224   17.0187 C   0  0  0  0  0  0
  -51.1999   -4.5526   16.5322 C   0  0  0  0  0  0
  -53.1850   -6.6620   16.3280 C   0  0  0  0  0  0
  -53.5022   -5.3919   15.8416 C   0  0  0  0  0  0
  -51.8637   -6.9236   16.9346 C   0  0  0  0  0  0
  -52.5212   -4.2909   15.9259 C   0  0  0  0  0  0
  -49.6267   -6.0573   17.5910 C   0  0  0  0  0  0
  -50.2611   -3.5174   16.6181 C   0  0  0  0  0  0
  -54.1239   -7.6971   16.2422 C   0  0  0  0  0  0
  -49.0107   -3.7558   17.1891 C   0  0  0  0  0  0
  -54.7581   -5.1570   15.2692 C   0  0  0  0  0  0
  -48.6941   -5.0229   17.6745 C   0  0  0  0  0  0
  -55.3741   -7.4587   15.6707 C   0  0  0  0  0  0
  -55.6906   -6.1914   15.1853 C   0  0  0  0  0  0
  -48.0355   -2.6801   17.2778 C   0  0  0  0  0  0
  -49.9805   -7.9067   17.9889 H   0  0  0  0  0  0
  -54.5251   -9.5860   16.3331 H   0  0  0  0  0  0
  -46.1481   -2.3971   17.6860 H   0  0  0  0  0  0
  1 13  1  0  0  0
  1 22  1  0  0  0
  2 11  2  0  0  0
  3 12  2  0  0  0
  4 15  1  0  0  0
  4 23  1  0  0  0
  5 21  1  0  0  0
  5 24  1  0  0  0
  6 21  2  0  0  0
  7  8  2  0  0  0
  7 11  1  0  0  0
  7 13  1  0  0  0
  8 12  1  0  0  0
  8 14  1  0  0  0
  9 10  2  0  0  0
  9 11  1  0  0  0
  9 15  1  0  0  0
 10 12  1  0  0  0
 10 17  1  0  0  0
 13 18  2  0  0  0
 14 16  2  0  0  0
 15 19  2  0  0  0
 16 18  1  0  0  0
 16 21  1  0  0  0
 17 20  2  0  0  0
 19 20  1  0  0  0
M  END
>  <CHROM.0>
-174.42013580,63.56517245,58.11222148

>  <CHROM.1>
-1.07610550,-163.81286719,-3.85370808,-171.49649696,-51.41442871,-5.40252910
16.68168128,-0.47176680,0.36459864,2.87321919

>  <Name>
10168

>  <PUBCHEM_ATOM_DEF_STEREO_COUNT>
0

>  <PUBCHEM_ATOM_UDEF_STEREO_COUNT>
0

>  <PUBCHEM_BOND_DEF_STEREO_COUNT>
0

>  <PUBCHEM_BOND_UDEF_STEREO_COUNT>
0

>  <PUBCHEM_CACTVS_TAUTO_COUNT>
24

>  <PUBCHEM_COMPONENT_COUNT>
1

>  <PUBCHEM_COMPOUND_CID>
10168

>  <PUBCHEM_CONFORMER_DIVERSEORDER>
1

>  <PUBCHEM_CONFORMER_ID>
000027B800000001

>  <PUBCHEM_CONFORMER_RMSD>
0.6

>  <PUBCHEM_COORDINATE_TYPE>
2
5
10

>  <PUBCHEM_EFFECTIVE_ROTOR_COUNT>
1

>  <PUBCHEM_FEATURE_SELFOVERLAP>
50.846

>  <PUBCHEM_HEAVY_ATOM_COUNT>
21

>  <PUBCHEM_ISOTOPIC_ATOM_COUNT>
0

>  <PUBCHEM_MMFF94_ENERGY>
68.6965

>  <PUBCHEM_MMFF94_PARTIAL_CHARGES>
29
1 -0.53
10 0.09
11 0.4
12 0.4
13 0.08
14 -0.15
15 0.08
16 0.09
17 -0.15
18 -0.15
19 -0.15
2 -0.57
20 -0.15
21 0.63
22 0.15
23 0.15
24 0.15
25 0.15
26 0.15
27 0.45
28 0.45
29 0.5
3 -0.57
4 -0.53
5 -0.65
6 -0.57
7 0.09
8 0.09
9 0.09

>  <PUBCHEM_PHARMACOPHORE_FEATURES>
10
1 1 donor
1 2 acceptor
1 3 acceptor
1 4 donor
1 5 acceptor
1 6 acceptor
3 5 6 21 anion
6 7 8 13 14 16 18 rings
6 7 8 9 10 11 12 rings
6 9 10 15 17 19 20 rings

>  <PUBCHEM_SHAPE_FINGERPRINT>
10411042 1 17474108078014113454
10493431 412 18269565953339895465
10498660 4 18410294674922913756
10616163 171 18410857672284589919
10967382 1 18338516322768651303
11112241 14 16053761070513734896
11132069 177 18409728443646081177
11578080 2 16880465970251001054
12011746 2 18411414016725795421
12236239 1 17822008735941251148
12390115 104 18200049372811105841
12403814 3 17603301544648884029
12788726 201 17130428969891162825
12839892 36 18337935806573543930
12954195 1 17914635873199923916
13132413 78 18412263956188401997
13140716 1 17978237380748065187
13214271 11 18413105065582804717
138480 1 17689997830145918786
13862211 1 18410849988456228526
14787075 74 18271241724201582520
14790565 3 18410863182654238816
15196674 1 18410573989646956454
15442244 35 17978509737119017459
15536298 74 18270120106524723222
16945 1 18338797943927191847
19591789 44 18339360880600163352
200 152 18060414720851970709
20510252 161 18343586217802211793
21029758 11 18343016726961894417
21267235 1 18410019848582002819
21421861 104 17898004620951251034
2334 1 18410855434849033379
23366157 5 17970072141091609650
23402539 116 18342168981657591294
23463225 33 18336828581004649021
23557571 272 18272379688914152982
23559900 14 18198340655049243982
2748010 2 18338801104986231055
335352 9 18266458707240121534
34934 24 18410288074001057415
350125 39 18338802342116335721
3545911 37 18410294679449859541
4214541 1 18410575071905095872
474 4 17748835132931610636
474229 33 18410572911836947014
5104073 3 18410011018223987362
58051976 378 18340767031444580180
59755656 215 18340493253766844862
7364860 26 18197216936859193670
9709674 26 18340492162006407318

>  <PUBCHEM_SHAPE_MULTIPOLES>
396.95
8.82
2.71
0.59
3.87
0.56
0
-1.97
0
-0.5
0
-0.03
-0.02
0

>  <PUBCHEM_SHAPE_SELFOVERLAP>
903.159

>  <PUBCHEM_SHAPE_VOLUME>
204.5

>  <RI>
-6.29316e+08

>  <Rbt.Current_Directory>
/root/miniconda3/envs/rdock/share/rxdock-2013.1.1_148c5bd1-0/data/ligands/prepped_ligands/Rhein

>  <Rbt.Executable>
rbdock/0.1.0

>  <Rbt.Library>
librxdock.so/0.1.0

>  <Rbt.Parameter_File>
/root/miniconda3/envs/rdock/share/rxdock-2013.1.1_148c5bd1-0/data/scripts/dock.prm

>  <Rbt.Receptor>
def.prm

>  <SCORE>
-14.51

>  <SCORE.INTER>
-13.8624

>  <SCORE.INTER.CONST>
1

>  <SCORE.INTER.POLAR>
-1.1388

>  <SCORE.INTER.REPUL>
0.000399837

>  <SCORE.INTER.ROT>
1

>  <SCORE.INTER.VDW>
-16.3924

>  <SCORE.INTER.norm>
-0.660112

>  <SCORE.INTRA>
0.312619

>  <SCORE.INTRA.DIHEDRAL>
0.75944

>  <SCORE.INTRA.DIHEDRAL.0>
1.91521e-05

>  <SCORE.INTRA.POLAR>
0.0182907

>  <SCORE.INTRA.POLAR.0>
-0.0515654

>  <SCORE.INTRA.REPUL>
0

>  <SCORE.INTRA.REPUL.0>
0

>  <SCORE.INTRA.VDW>
-0.129289

>  <SCORE.INTRA.VDW.0>
1.17338

>  <SCORE.INTRA.norm>
0.0148866

>  <SCORE.RESTR>
0

>  <SCORE.RESTR.CAVITY>
0

>  <SCORE.RESTR.norm>
0

>  <SCORE.SYSTEM>
-0.960281

>  <SCORE.SYSTEM.CONST>
0

>  <SCORE.SYSTEM.DIHEDRAL>
0.145273

>  <SCORE.SYSTEM.VDW>
-1.03292

>  <SCORE.SYSTEM.norm>
-0.0457277

>  <SCORE.heavy>
21

>  <SCORE.norm>
-0.690953

$$$$
10168
  RxDock  02242110023D
librxdock.so/0.1.0
 24 26  0  0  0  0  0  0  0  0999 V2000
  -52.1416   -2.1403   13.6404 O   0  0  0  0  0  0
  -49.8800   -0.9391   13.5750 O   0  0  0  0  0  0
  -47.6746   -4.5278   16.8639 O   0  0  0  0  0  0
  -47.6881    0.3761   13.4007 O   0  0  0  0  0  0
  -51.8106   -6.9007   17.2065 O   0  0  0  0  0  0
  -53.6699   -6.3640   16.0143 O   0  0  0  0  0  0
  -50.1725   -2.8907   14.8483 C   0  0  0  0  0  0
  -49.5964   -3.8284   15.7077 C   0  0  0  0  0  0
  -47.9580   -1.6400   14.7286 C   0  0  0  0  0  0
  -47.3820   -2.5778   15.5882 C   0  0  0  0  0  0
  -49.3745   -1.7621   14.3273 C   0  0  0  0  0  0
  -48.1801   -3.7062   16.1092 C   0  0  0  0  0  0
  -51.5160   -3.0181   14.4755 C   0  0  0  0  0  0
  -50.3637   -4.8936   16.1945 C   0  0  0  0  0  0
  -47.1906   -0.5749   14.2419 C   0  0  0  0  0  0
  -51.7022   -5.0167   15.8204 C   0  0  0  0  0  0
  -46.0385   -2.4505   15.9610 C   0  0  0  0  0  0
  -52.2771   -4.0811   14.9628 C   0  0  0  0  0  0
  -45.8521   -0.4520   14.6157 C   0  0  0  0  0  0
  -45.2773   -1.3878   15.4735 C   0  0  0  0  0  0
  -52.4990   -6.1236   16.3261 C   0  0  0  0  0  0
  -53.0714   -2.4002   13.5253 H   0  0  0  0  0  0
  -48.6310    0.2294   13.2342 H   0  0  0  0  0  0
  -52.3469   -7.6599   17.5202 H   0  0  0  0  0  0
  1 13  1  0  0  0
  1 22  1  0  0  0
  2 11  2  0  0  0
  3 12  2  0  0  0
  4 15  1  0  0  0
  4 23  1  0  0  0
  5 21  1  0  0  0
  5 24  1  0  0  0
  6 21  2  0  0  0
  7  8  2  0  0  0
  7 11  1  0  0  0
  7 13  1  0  0  0
  8 12  1  0  0  0
  8 14  1  0  0  0
  9 10  2  0  0  0
  9 11  1  0  0  0
  9 15  1  0  0  0
 10 12  1  0  0  0
 10 17  1  0  0  0
 13 18  2  0  0  0
 14 16  2  0  0  0
 15 19  2  0  0  0
 16 18  1  0  0  0
 16 21  1  0  0  0
 17 20  2  0  0  0
 19 20  1  0  0  0
M  END
>  <CHROM.0>
-60.49453051,-177.65844057,-63.82232612

>  <CHROM.1>
-178.92977605,2.70470811,1.72145649,3.43515712,-49.52166428,-3.11207997,15.22985190
2.45616949,0.27621675,2.52488048

>  <Name>
10168

>  <PUBCHEM_ATOM_DEF_STEREO_COUNT>
0

>  <PUBCHEM_ATOM_UDEF_STEREO_COUNT>
0

>  <PUBCHEM_BOND_DEF_STEREO_COUNT>
0

>  <PUBCHEM_BOND_UDEF_STEREO_COUNT>
0

>  <PUBCHEM_CACTVS_TAUTO_COUNT>
24

>  <PUBCHEM_COMPONENT_COUNT>
1

>  <PUBCHEM_COMPOUND_CID>
10168

>  <PUBCHEM_CONFORMER_DIVERSEORDER>
1

>  <PUBCHEM_CONFORMER_ID>
000027B800000001

>  <PUBCHEM_CONFORMER_RMSD>
0.6

>  <PUBCHEM_COORDINATE_TYPE>
2
5
10

>  <PUBCHEM_EFFECTIVE_ROTOR_COUNT>
1

>  <PUBCHEM_FEATURE_SELFOVERLAP>
50.846

>  <PUBCHEM_HEAVY_ATOM_COUNT>
21

>  <PUBCHEM_ISOTOPIC_ATOM_COUNT>
0

>  <PUBCHEM_MMFF94_ENERGY>
68.6965

>  <PUBCHEM_MMFF94_PARTIAL_CHARGES>
29
1 -0.53
10 0.09
11 0.4
12 0.4
13 0.08
14 -0.15
15 0.08
16 0.09
17 -0.15
18 -0.15
19 -0.15
2 -0.57
20 -0.15
21 0.63
22 0.15
23 0.15
24 0.15
25 0.15
26 0.15
27 0.45
28 0.45
29 0.5
3 -0.57
4 -0.53
5 -0.65
6 -0.57
7 0.09
8 0.09
9 0.09

>  <PUBCHEM_PHARMACOPHORE_FEATURES>
10
1 1 donor
1 2 acceptor
1 3 acceptor
1 4 donor
1 5 acceptor
1 6 acceptor
3 5 6 21 anion
6 7 8 13 14 16 18 rings
6 7 8 9 10 11 12 rings
6 9 10 15 17 19 20 rings

>  <PUBCHEM_SHAPE_FINGERPRINT>
10411042 1 17474108078014113454
10493431 412 18269565953339895465
10498660 4 18410294674922913756
10616163 171 18410857672284589919
10967382 1 18338516322768651303
11112241 14 16053761070513734896
11132069 177 18409728443646081177
11578080 2 16880465970251001054
12011746 2 18411414016725795421
12236239 1 17822008735941251148
12390115 104 18200049372811105841
12403814 3 17603301544648884029
12788726 201 17130428969891162825
12839892 36 18337935806573543930
12954195 1 17914635873199923916
13132413 78 18412263956188401997
13140716 1 17978237380748065187
13214271 11 18413105065582804717
138480 1 17689997830145918786
13862211 1 18410849988456228526
14787075 74 18271241724201582520
14790565 3 18410863182654238816
15196674 1 18410573989646956454
15442244 35 17978509737119017459
15536298 74 18270120106524723222
16945 1 18338797943927191847
19591789 44 18339360880600163352
200 152 18060414720851970709
20510252 161 18343586217802211793
21029758 11 18343016726961894417
21267235 1 18410019848582002819
21421861 104 17898004620951251034
2334 1 18410855434849033379
23366157 5 17970072141091609650
23402539 116 18342168981657591294
23463225 33 18336828581004649021
23557571 272 18272379688914152982
23559900 14 18198340655049243982
2748010 2 18338801104986231055
335352 9 18266458707240121534
34934 24 18410288074001057415
350125 39 18338802342116335721
3545911 37 18410294679449859541
4214541 1 18410575071905095872
474 4 17748835132931610636
474229 33 18410572911836947014
5104073 3 18410011018223987362
58051976 378 18340767031444580180
59755656 215 18340493253766844862
7364860 26 18197216936859193670
9709674 26 18340492162006407318

>  <PUBCHEM_SHAPE_MULTIPOLES>
396.95
8.82
2.71
0.59
3.87
0.56
0
-1.97
0
-0.5
0
-0.03
-0.02
0

>  <PUBCHEM_SHAPE_SELFOVERLAP>
903.159

>  <PUBCHEM_SHAPE_VOLUME>
204.5

>  <RI>
-6.29316e+08

>  <Rbt.Current_Directory>
/root/miniconda3/envs/rdock/share/rxdock-2013.1.1_148c5bd1-0/data/ligands/prepped_ligands/Rhein

>  <Rbt.Executable>
rbdock/0.1.0

>  <Rbt.Library>
librxdock.so/0.1.0

>  <Rbt.Parameter_File>
/root/miniconda3/envs/rdock/share/rxdock-2013.1.1_148c5bd1-0/data/scripts/dock.prm

>  <Rbt.Receptor>
def.prm

>  <SCORE>
-16.1289

>  <SCORE.INTER>
-15.1227

>  <SCORE.INTER.CONST>
1

>  <SCORE.INTER.POLAR>
-1.51447

>  <SCORE.INTER.REPUL>
0.00460171

>  <SCORE.INTER.ROT>
1

>  <SCORE.INTER.VDW>
-16.3965

>  <SCORE.INTER.norm>
-0.720127

>  <SCORE.INTRA>
0.0279234

>  <SCORE.INTRA.DIHEDRAL>
0.0807092

>  <SCORE.INTRA.DIHEDRAL.0>
1.91521e-05

>  <SCORE.INTRA.POLAR>
0.000742515

>  <SCORE.INTRA.POLAR.0>
-0.0515654

>  <SCORE.INTRA.REPUL>
0

>  <SCORE.INTRA.REPUL.0>
0

>  <SCORE.INTRA.VDW>
-0.0149558

>  <SCORE.INTRA.VDW.0>
1.17338

>  <SCORE.INTRA.norm>
0.00132968

>  <SCORE.RESTR>
0.0304064

>  <SCORE.RESTR.CAVITY>
0.0304064

>  <SCORE.RESTR.norm>
0.00144793

>  <SCORE.SYSTEM>
-1.0646

>  <SCORE.SYSTEM.CONST>
0

>  <SCORE.SYSTEM.DIHEDRAL>
0.0672165

>  <SCORE.SYSTEM.VDW>
-1.09821

>  <SCORE.SYSTEM.norm>
-0.0506953

>  <SCORE.heavy>
21

>  <SCORE.norm>
-0.768045

$$$$
10168
  RxDock  02242110023D
librxdock.so/0.1.0
 24 26  0  0  0  0  0  0  0  0999 V2000
  -49.2348   -7.2495   18.0794 O   0  0  0  0  0  0
  -51.5567   -8.0454   17.3466 O   0  0  0  0  0  0
  -52.9577   -3.1229   15.8086 O   0  0  0  0  0  0
  -53.8326   -9.0011   16.6598 O   0  0  0  0  0  0
  -48.6129   -1.4435   16.9280 O   0  0  0  0  0  0
  -47.1025   -2.6329   18.1404 O   0  0  0  0  0  0
  -50.9306   -5.7923   17.1305 C   0  0  0  0  0  0
  -51.2965   -4.5060   16.7288 C   0  0  0  0  0  0
  -53.2163   -6.6632   16.4240 C   0  0  0  0  0  0
  -53.5823   -5.3768   16.0224 C   0  0  0  0  0  0
  -51.8770   -6.9180   16.9930 C   0  0  0  0  0  0
  -52.6358   -4.2512   16.1601 C   0  0  0  0  0  0
  -49.6580   -6.0203   17.6679 C   0  0  0  0  0  0
  -50.3901   -3.4476   16.8645 C   0  0  0  0  0  0
  -54.1228   -7.7215   16.2883 C   0  0  0  0  0  0
  -49.1229   -3.6793   17.4006 C   0  0  0  0  0  0
  -54.8547   -5.1487   15.4849 C   0  0  0  0  0  0
  -48.7576   -4.9628   17.8014 C   0  0  0  0  0  0
  -55.3897   -7.4899   15.7519 C   0  0  0  0  0  0
  -55.7549   -6.2062   15.3510 C   0  0  0  0  0  0
  -48.1814   -2.5795   17.5411 C   0  0  0  0  0  0
  -49.9545   -7.8959   17.9813 H   0  0  0  0  0  0
  -52.8846   -9.1792   16.5700 H   0  0  0  0  0  0
  -47.9831   -0.7012   17.0495 H   0  0  0  0  0  0
  1 13  1  0  0  0
  1 22  1  0  0  0
  2 11  2  0  0  0
  3 12  2  0  0  0
  4 15  1  0  0  0
  4 23  1  0  0  0
  5 21  1  0  0  0
  5 24  1  0  0  0
  6 21  2  0  0  0
  7  8  2  0  0  0
  7 11  1  0  0  0
  7 13  1  0  0  0
  8 12  1  0  0  0
  8 14  1  0  0  0
  9 10  2  0  0  0
  9 11  1  0  0  0
  9 15  1  0  0  0
 10 12  1  0  0  0
 10 17  1  0  0  0
 13 18  2  0  0  0
 14 16  2  0  0  0
 15 19  2  0  0  0
 16 18  1  0  0  0
 16 21  1  0  0  0
 17 20  2  0  0  0
 19 20  1  0  0  0
M  END
>  <CHROM.0>
63.42981278,-60.93490889,-61.79040243

>  <CHROM.1>
-2.83459364,-29.88763956,-1.63909916,-9.07128078,-51.50028966,-5.34556998
16.81528237,-0.52845280,0.36554714,2.93454546

>  <Name>
10168

>  <PUBCHEM_ATOM_DEF_STEREO_COUNT>
0

>  <PUBCHEM_ATOM_UDEF_STEREO_COUNT>
0

>  <PUBCHEM_BOND_DEF_STEREO_COUNT>
0

>  <PUBCHEM_BOND_UDEF_STEREO_COUNT>
0

>  <PUBCHEM_CACTVS_TAUTO_COUNT>
24

>  <PUBCHEM_COMPONENT_COUNT>
1

>  <PUBCHEM_COMPOUND_CID>
10168

>  <PUBCHEM_CONFORMER_DIVERSEORDER>
1

>  <PUBCHEM_CONFORMER_ID>
000027B800000001

>  <PUBCHEM_CONFORMER_RMSD>
0.6

>  <PUBCHEM_COORDINATE_TYPE>
2
5
10

>  <PUBCHEM_EFFECTIVE_ROTOR_COUNT>
1

>  <PUBCHEM_FEATURE_SELFOVERLAP>
50.846

>  <PUBCHEM_HEAVY_ATOM_COUNT>
21

>  <PUBCHEM_ISOTOPIC_ATOM_COUNT>
0

>  <PUBCHEM_MMFF94_ENERGY>
68.6965

>  <PUBCHEM_MMFF94_PARTIAL_CHARGES>
29
1 -0.53
10 0.09
11 0.4
12 0.4
13 0.08
14 -0.15
15 0.08
16 0.09
17 -0.15
18 -0.15
19 -0.15
2 -0.57
20 -0.15
21 0.63
22 0.15
23 0.15
24 0.15
25 0.15
26 0.15
27 0.45
28 0.45
29 0.5
3 -0.57
4 -0.53
5 -0.65
6 -0.57
7 0.09
8 0.09
9 0.09

>  <PUBCHEM_PHARMACOPHORE_FEATURES>
10
1 1 donor
1 2 acceptor
1 3 acceptor
1 4 donor
1 5 acceptor
1 6 acceptor
3 5 6 21 anion
6 7 8 13 14 16 18 rings
6 7 8 9 10 11 12 rings
6 9 10 15 17 19 20 rings

>  <PUBCHEM_SHAPE_FINGERPRINT>
10411042 1 17474108078014113454
10493431 412 18269565953339895465
10498660 4 18410294674922913756
10616163 171 18410857672284589919
10967382 1 18338516322768651303
11112241 14 16053761070513734896
11132069 177 18409728443646081177
11578080 2 16880465970251001054
12011746 2 18411414016725795421
12236239 1 17822008735941251148
12390115 104 18200049372811105841
12403814 3 17603301544648884029
12788726 201 17130428969891162825
12839892 36 18337935806573543930
12954195 1 17914635873199923916
13132413 78 18412263956188401997
13140716 1 17978237380748065187
13214271 11 18413105065582804717
138480 1 17689997830145918786
13862211 1 18410849988456228526
14787075 74 18271241724201582520
14790565 3 18410863182654238816
15196674 1 18410573989646956454
15442244 35 17978509737119017459
15536298 74 18270120106524723222
16945 1 18338797943927191847
19591789 44 18339360880600163352
200 152 18060414720851970709
20510252 161 18343586217802211793
21029758 11 18343016726961894417
21267235 1 18410019848582002819
21421861 104 17898004620951251034
2334 1 18410855434849033379
23366157 5 17970072141091609650
23402539 116 18342168981657591294
23463225 33 18336828581004649021
23557571 272 18272379688914152982
23559900 14 18198340655049243982
2748010 2 18338801104986231055
335352 9 18266458707240121534
34934 24 18410288074001057415
350125 39 18338802342116335721
3545911 37 18410294679449859541
4214541 1 18410575071905095872
474 4 17748835132931610636
474229 33 18410572911836947014
5104073 3 18410011018223987362
58051976 378 18340767031444580180
59755656 215 18340493253766844862
7364860 26 18197216936859193670
9709674 26 18340492162006407318

>  <PUBCHEM_SHAPE_MULTIPOLES>
396.95
8.82
2.71
0.59
3.87
0.56
0
-1.97
0
-0.5
0
-0.03
-0.02
0

>  <PUBCHEM_SHAPE_SELFOVERLAP>
903.159

>  <PUBCHEM_SHAPE_VOLUME>
204.5

>  <RI>
-6.29316e+08

>  <Rbt.Current_Directory>
/root/miniconda3/envs/rdock/share/rxdock-2013.1.1_148c5bd1-0/data/ligands/prepped_ligands/Rhein

>  <Rbt.Executable>
rbdock/0.1.0

>  <Rbt.Library>
librxdock.so/0.1.0

>  <Rbt.Parameter_File>
/root/miniconda3/envs/rdock/share/rxdock-2013.1.1_148c5bd1-0/data/scripts/dock.prm

>  <Rbt.Receptor>
def.prm

>  <SCORE>
-14.905

>  <SCORE.INTER>
-14.1092

>  <SCORE.INTER.CONST>
1

>  <SCORE.INTER.POLAR>
-1.36743

>  <SCORE.INTER.REPUL>
0.000650045

>  <SCORE.INTER.ROT>
1

>  <SCORE.INTER.VDW>
-15.8632

>  <SCORE.INTER.norm>
-0.671867

>  <SCORE.INTRA>
0.247549

>  <SCORE.INTRA.DIHEDRAL>
1.53803

>  <SCORE.INTRA.DIHEDRAL.0>
1.91521e-05

>  <SCORE.INTRA.POLAR>
0.0189202

>  <SCORE.INTRA.POLAR.0>
-0.0515654

>  <SCORE.INTRA.REPUL>
0

>  <SCORE.INTRA.REPUL.0>
0

>  <SCORE.INTRA.VDW>
-0.585793

>  <SCORE.INTRA.VDW.0>
1.17338

>  <SCORE.INTRA.norm>
0.011788

>  <SCORE.RESTR>
0

>  <SCORE.RESTR.CAVITY>
0

>  <SCORE.RESTR.norm>
0

>  <SCORE.SYSTEM>
-1.04338

>  <SCORE.SYSTEM.CONST>
0

>  <SCORE.SYSTEM.DIHEDRAL>
0.0402993

>  <SCORE.SYSTEM.VDW>
-1.06353

>  <SCORE.SYSTEM.norm>
-0.0496847

>  <SCORE.heavy>
21

>  <SCORE.norm>
-0.709764

$$$$
10168
  RxDock  02242110023D
librxdock.so/0.1.0
 24 26  0  0  0  0  0  0  0  0999 V2000
  -52.4873   -4.5030   14.7414 O   0  0  0  0  0  0
  -50.6191   -2.8278   14.2263 O   0  0  0  0  0  0
  -47.2624   -5.2576   17.6008 O   0  0  0  0  0  0
  -48.8577   -1.0759   13.5995 O   0  0  0  0  0  0
  -50.6850   -8.3571   18.8986 O   0  0  0  0  0  0
  -52.5984   -8.6385   17.7045 O   0  0  0  0  0  0
  -50.2815   -4.5778   15.7556 C   0  0  0  0  0  0
  -49.4045   -5.2128   16.6374 C   0  0  0  0  0  0
  -48.4767   -2.8743   15.1873 C   0  0  0  0  0  0
  -47.5997   -3.5093   16.0693 C   0  0  0  0  0  0
  -49.8498   -3.3853   14.9983 C   0  0  0  0  0  0
  -48.0316   -4.7017   16.8266 C   0  0  0  0  0  0
  -51.5802   -5.0724   15.5854 C   0  0  0  0  0  0
  -49.8262   -6.3423   17.3492 C   0  0  0  0  0  0
  -48.0549   -1.7448   14.4756 C   0  0  0  0  0  0
  -51.1213   -6.8318   17.1766 C   0  0  0  0  0  0
  -46.3010   -3.0148   16.2395 C   0  0  0  0  0  0
  -51.9964   -6.1984   16.2966 C   0  0  0  0  0  0
  -46.7598   -1.2556   14.6480 C   0  0  0  0  0  0
  -45.8847   -1.8892   15.5281 C   0  0  0  0  0  0
  -51.5588   -8.0055   17.9160 C   0  0  0  0  0  0
  -52.1082   -3.7017   14.3420 H   0  0  0  0  0  0
  -48.8044   -1.4680   12.7153 H   0  0  0  0  0  0
  -51.0075   -9.1255   19.4162 H   0  0  0  0  0  0
  1 13  1  0  0  0
  1 22  1  0  0  0
  2 11  2  0  0  0
  3 12  2  0  0  0
  4 15  1  0  0  0
  4 23  1  0  0  0
  5 21  1  0  0  0
  5 24  1  0  0  0
  6 21  2  0  0  0
  7  8  2  0  0  0
  7 11  1  0  0  0
  7 13  1  0  0  0
  8 12  1  0  0  0
  8 14  1  0  0  0
  9 10  2  0  0  0
  9 11  1  0  0  0
  9 15  1  0  0  0
 10 12  1  0  0  0
 10 17  1  0  0  0
 13 18  2  0  0  0
 14 16  2  0  0  0
 15 19  2  0  0  0
 16 18  1  0  0  0
 16 21  1  0  0  0
 17 20  2  0  0  0
 19 20  1  0  0  0
M  END
>  <CHROM.0>
60.73821136,-64.89621860,57.93368440

>  <CHROM.1>
-3.32303742,-87.09344105,-2.52825141,11.11792716,-49.55446597,-4.57349735
16.06735762,2.17243174,0.33673660,2.46178724

>  <Name>
10168

>  <PUBCHEM_ATOM_DEF_STEREO_COUNT>
0

>  <PUBCHEM_ATOM_UDEF_STEREO_COUNT>
0

>  <PUBCHEM_BOND_DEF_STEREO_COUNT>
0

>  <PUBCHEM_BOND_UDEF_STEREO_COUNT>
0

>  <PUBCHEM_CACTVS_TAUTO_COUNT>
24

>  <PUBCHEM_COMPONENT_COUNT>
1

>  <PUBCHEM_COMPOUND_CID>
10168

>  <PUBCHEM_CONFORMER_DIVERSEORDER>
1

>  <PUBCHEM_CONFORMER_ID>
000027B800000001

>  <PUBCHEM_CONFORMER_RMSD>
0.6

>  <PUBCHEM_COORDINATE_TYPE>
2
5
10

>  <PUBCHEM_EFFECTIVE_ROTOR_COUNT>
1

>  <PUBCHEM_FEATURE_SELFOVERLAP>
50.846

>  <PUBCHEM_HEAVY_ATOM_COUNT>
21

>  <PUBCHEM_ISOTOPIC_ATOM_COUNT>
0

>  <PUBCHEM_MMFF94_ENERGY>
68.6965

>  <PUBCHEM_MMFF94_PARTIAL_CHARGES>
29
1 -0.53
10 0.09
11 0.4
12 0.4
13 0.08
14 -0.15
15 0.08
16 0.09
17 -0.15
18 -0.15
19 -0.15
2 -0.57
20 -0.15
21 0.63
22 0.15
23 0.15
24 0.15
25 0.15
26 0.15
27 0.45
28 0.45
29 0.5
3 -0.57
4 -0.53
5 -0.65
6 -0.57
7 0.09
8 0.09
9 0.09

>  <PUBCHEM_PHARMACOPHORE_FEATURES>
10
1 1 donor
1 2 acceptor
1 3 acceptor
1 4 donor
1 5 acceptor
1 6 acceptor
3 5 6 21 anion
6 7 8 13 14 16 18 rings
6 7 8 9 10 11 12 rings
6 9 10 15 17 19 20 rings

>  <PUBCHEM_SHAPE_FINGERPRINT>
10411042 1 17474108078014113454
10493431 412 18269565953339895465
10498660 4 18410294674922913756
10616163 171 18410857672284589919
10967382 1 18338516322768651303
11112241 14 16053761070513734896
11132069 177 18409728443646081177
11578080 2 16880465970251001054
12011746 2 18411414016725795421
12236239 1 17822008735941251148
12390115 104 18200049372811105841
12403814 3 17603301544648884029
12788726 201 17130428969891162825
12839892 36 18337935806573543930
12954195 1 17914635873199923916
13132413 78 18412263956188401997
13140716 1 17978237380748065187
13214271 11 18413105065582804717
138480 1 17689997830145918786
13862211 1 18410849988456228526
14787075 74 18271241724201582520
14790565 3 18410863182654238816
15196674 1 18410573989646956454
15442244 35 17978509737119017459
15536298 74 18270120106524723222
16945 1 18338797943927191847
19591789 44 18339360880600163352
200 152 18060414720851970709
20510252 161 18343586217802211793
21029758 11 18343016726961894417
21267235 1 18410019848582002819
21421861 104 17898004620951251034
2334 1 18410855434849033379
23366157 5 17970072141091609650
23402539 116 18342168981657591294
23463225 33 18336828581004649021
23557571 272 18272379688914152982
23559900 14 18198340655049243982
2748010 2 18338801104986231055
335352 9 18266458707240121534
34934 24 18410288074001057415
350125 39 18338802342116335721
3545911 37 18410294679449859541
4214541 1 18410575071905095872
474 4 17748835132931610636
474229 33 18410572911836947014
5104073 3 18410011018223987362
58051976 378 18340767031444580180
59755656 215 18340493253766844862
7364860 26 18197216936859193670
9709674 26 18340492162006407318

>  <PUBCHEM_SHAPE_MULTIPOLES>
396.95
8.82
2.71
0.59
3.87
0.56
0
-1.97
0
-0.5
0
-0.03
-0.02
0

>  <PUBCHEM_SHAPE_SELFOVERLAP>
903.159

>  <PUBCHEM_SHAPE_VOLUME>
204.5

>  <RI>
-6.29316e+08

>  <Rbt.Current_Directory>
/root/miniconda3/envs/rdock/share/rxdock-2013.1.1_148c5bd1-0/data/ligands/prepped_ligands/Rhein

>  <Rbt.Executable>
rbdock/0.1.0

>  <Rbt.Library>
librxdock.so/0.1.0

>  <Rbt.Parameter_File>
/root/miniconda3/envs/rdock/share/rxdock-2013.1.1_148c5bd1-0/data/scripts/dock.prm

>  <Rbt.Receptor>
def.prm

>  <SCORE>
-9.77313

>  <SCORE.INTER>
-10.6838

>  <SCORE.INTER.CONST>
1

>  <SCORE.INTER.POLAR>
-0.845092

>  <SCORE.INTER.REPUL>
0.0806336

>  <SCORE.INTER.ROT>
1

>  <SCORE.INTER.VDW>
-14.6137

>  <SCORE.INTER.norm>
-0.508754

>  <SCORE.INTRA>
1.94535

>  <SCORE.INTRA.DIHEDRAL>
5.32567

>  <SCORE.INTRA.DIHEDRAL.0>
1.91521e-05

>  <SCORE.INTRA.POLAR>
0.019207

>  <SCORE.INTRA.POLAR.0>
-0.0515654

>  <SCORE.INTRA.REPUL>
0

>  <SCORE.INTRA.REPUL.0>
0

>  <SCORE.INTRA.VDW>
-0.782793

>  <SCORE.INTRA.VDW.0>
1.17338

>  <SCORE.INTRA.norm>
0.0926355

>  <SCORE.RESTR>
0

>  <SCORE.RESTR.CAVITY>
0

>  <SCORE.RESTR.norm>
0

>  <SCORE.SYSTEM>
-1.03464

>  <SCORE.SYSTEM.CONST>
0

>  <SCORE.SYSTEM.DIHEDRAL>
0.130861

>  <SCORE.SYSTEM.VDW>
-1.10007

>  <SCORE.SYSTEM.norm>
-0.0492686

>  <SCORE.heavy>
21

>  <SCORE.norm>
-0.465387

$$$$
10168
  RxDock  02242110023D
librxdock.so/0.1.0
 24 26  0  0  0  0  0  0  0  0999 V2000
  -49.0556   -7.2687   17.9330 O   0  0  0  0  0  0
  -51.4307   -8.0061   17.3194 O   0  0  0  0  0  0
  -52.6737   -3.1308   15.5180 O   0  0  0  0  0  0
  -53.7652   -8.9020   16.7606 O   0  0  0  0  0  0
  -46.6424   -3.1033   17.6034 O   0  0  0  0  0  0
  -48.0028   -1.5318   16.6837 O   0  0  0  0  0  0
  -50.7185   -5.7999   16.9446 C   0  0  0  0  0  0
  -51.0431   -4.5259   16.4740 C   0  0  0  0  0  0
  -53.0598   -6.6121   16.3610 C   0  0  0  0  0  0
  -53.3845   -5.3380   15.8905 C   0  0  0  0  0  0
  -51.7149   -6.8896   16.9055 C   0  0  0  0  0  0
  -52.3880   -4.2484   15.9298 C   0  0  0  0  0  0
  -49.4400   -6.0498   17.4579 C   0  0  0  0  0  0
  -50.0895   -3.5017   16.5167 C   0  0  0  0  0  0
  -54.0135   -7.6362   16.3183 C   0  0  0  0  0  0
  -48.8167   -3.7551   17.0291 C   0  0  0  0  0  0
  -54.6628   -5.0880   15.3771 C   0  0  0  0  0  0
  -48.4926   -5.0263   17.4986 C   0  0  0  0  0  0
  -55.2861   -7.3829   15.8056 C   0  0  0  0  0  0
  -55.6101   -6.1115   15.3361 C   0  0  0  0  0  0
  -47.8261   -2.6908   17.0730 C   0  0  0  0  0  0
  -49.7939   -7.8975   17.8635 H   0  0  0  0  0  0
  -52.8301   -9.1288   16.6481 H   0  0  0  0  0  0
  -45.9836   -2.3771   17.6347 H   0  0  0  0  0  0
  1 13  1  0  0  0
  1 22  1  0  0  0
  2 11  2  0  0  0
  3 12  2  0  0  0
  4 15  1  0  0  0
  4 23  1  0  0  0
  5 21  1  0  0  0
  5 24  1  0  0  0
  6 21  2  0  0  0
  7  8  2  0  0  0
  7 11  1  0  0  0
  7 13  1  0  0  0
  8 12  1  0  0  0
  8 14  1  0  0  0
  9 10  2  0  0  0
  9 11  1  0  0  0
  9 15  1  0  0  0
 10 12  1  0  0  0
 10 17  1  0  0  0
 13 18  2  0  0  0
 14 16  2  0  0  0
 15 19  2  0  0  0
 16 18  1  0  0  0
 16 21  1  0  0  0
 17 20  2  0  0  0
 19 20  1  0  0  0
M  END
>  <CHROM.0>
-54.28148515,59.08625305,178.22927991

>  <CHROM.1>
-0.57918468,-30.32434229,0.36296948,179.82766749,-51.25541105,-5.37147620
16.63645033,-0.47012838,0.32206514,2.86918311

>  <Name>
10168

>  <PUBCHEM_ATOM_DEF_STEREO_COUNT>
0

>  <PUBCHEM_ATOM_UDEF_STEREO_COUNT>
0

>  <PUBCHEM_BOND_DEF_STEREO_COUNT>
0

>  <PUBCHEM_BOND_UDEF_STEREO_COUNT>
0

>  <PUBCHEM_CACTVS_TAUTO_COUNT>
24

>  <PUBCHEM_COMPONENT_COUNT>
1

>  <PUBCHEM_COMPOUND_CID>
10168

>  <PUBCHEM_CONFORMER_DIVERSEORDER>
1

>  <PUBCHEM_CONFORMER_ID>
000027B800000001

>  <PUBCHEM_CONFORMER_RMSD>
0.6

>  <PUBCHEM_COORDINATE_TYPE>
2
5
10

>  <PUBCHEM_EFFECTIVE_ROTOR_COUNT>
1

>  <PUBCHEM_FEATURE_SELFOVERLAP>
50.846

>  <PUBCHEM_HEAVY_ATOM_COUNT>
21

>  <PUBCHEM_ISOTOPIC_ATOM_COUNT>
0

>  <PUBCHEM_MMFF94_ENERGY>
68.6965

>  <PUBCHEM_MMFF94_PARTIAL_CHARGES>
29
1 -0.53
10 0.09
11 0.4
12 0.4
13 0.08
14 -0.15
15 0.08
16 0.09
17 -0.15
18 -0.15
19 -0.15
2 -0.57
20 -0.15
21 0.63
22 0.15
23 0.15
24 0.15
25 0.15
26 0.15
27 0.45
28 0.45
29 0.5
3 -0.57
4 -0.53
5 -0.65
6 -0.57
7 0.09
8 0.09
9 0.09

>  <PUBCHEM_PHARMACOPHORE_FEATURES>
10
1 1 donor
1 2 acceptor
1 3 acceptor
1 4 donor
1 5 acceptor
1 6 acceptor
3 5 6 21 anion
6 7 8 13 14 16 18 rings
6 7 8 9 10 11 12 rings
6 9 10 15 17 19 20 rings

>  <PUBCHEM_SHAPE_FINGERPRINT>
10411042 1 17474108078014113454
10493431 412 18269565953339895465
10498660 4 18410294674922913756
10616163 171 18410857672284589919
10967382 1 18338516322768651303
11112241 14 16053761070513734896
11132069 177 18409728443646081177
11578080 2 16880465970251001054
12011746 2 18411414016725795421
12236239 1 17822008735941251148
12390115 104 18200049372811105841
12403814 3 17603301544648884029
12788726 201 17130428969891162825
12839892 36 18337935806573543930
12954195 1 17914635873199923916
13132413 78 18412263956188401997
13140716 1 17978237380748065187
13214271 11 18413105065582804717
138480 1 17689997830145918786
13862211 1 18410849988456228526
14787075 74 18271241724201582520
14790565 3 18410863182654238816
15196674 1 18410573989646956454
15442244 35 17978509737119017459
15536298 74 18270120106524723222
16945 1 18338797943927191847
19591789 44 18339360880600163352
200 152 18060414720851970709
20510252 161 18343586217802211793
21029758 11 18343016726961894417
21267235 1 18410019848582002819
21421861 104 17898004620951251034
2334 1 18410855434849033379
23366157 5 17970072141091609650
23402539 116 18342168981657591294
23463225 33 18336828581004649021
23557571 272 18272379688914152982
23559900 14 18198340655049243982
2748010 2 18338801104986231055
335352 9 18266458707240121534
34934 24 18410288074001057415
350125 39 18338802342116335721
3545911 37 18410294679449859541
4214541 1 18410575071905095872
474 4 17748835132931610636
474229 33 18410572911836947014
5104073 3 18410011018223987362
58051976 378 18340767031444580180
59755656 215 18340493253766844862
7364860 26 18197216936859193670
9709674 26 18340492162006407318

>  <PUBCHEM_SHAPE_MULTIPOLES>
396.95
8.82
2.71
0.59
3.87
0.56
0
-1.97
0
-0.5
0
-0.03
-0.02
0

>  <PUBCHEM_SHAPE_SELFOVERLAP>
903.159

>  <PUBCHEM_SHAPE_VOLUME>
204.5

>  <RI>
-6.29316e+08

>  <Rbt.Current_Directory>
/root/miniconda3/envs/rdock/share/rxdock-2013.1.1_148c5bd1-0/data/ligands/prepped_ligands/Rhein

>  <Rbt.Executable>
rbdock/0.1.0

>  <Rbt.Library>
librxdock.so/0.1.0

>  <Rbt.Parameter_File>
/root/miniconda3/envs/rdock/share/rxdock-2013.1.1_148c5bd1-0/data/scripts/dock.prm

>  <Rbt.Receptor>
def.prm

>  <SCORE>
-15.5689

>  <SCORE.INTER>
-14.7752

>  <SCORE.INTER.CONST>
1

>  <SCORE.INTER.POLAR>
-1.37588

>  <SCORE.INTER.REPUL>
0.0127695

>  <SCORE.INTER.ROT>
1

>  <SCORE.INTER.VDW>
-16.561

>  <SCORE.INTER.norm>
-0.703581

>  <SCORE.INTRA>
0.13527

>  <SCORE.INTRA.DIHEDRAL>
1.22503

>  <SCORE.INTRA.DIHEDRAL.0>
1.91521e-05

>  <SCORE.INTRA.POLAR>
0.0182289

>  <SCORE.INTRA.POLAR.0>
-0.0515654

>  <SCORE.INTRA.REPUL>
0

>  <SCORE.INTRA.REPUL.0>
0

>  <SCORE.INTRA.VDW>
-0.539225

>  <SCORE.INTRA.VDW.0>
1.17338

>  <SCORE.INTRA.norm>
0.0064414

>  <SCORE.RESTR>
0

>  <SCORE.RESTR.CAVITY>
0

>  <SCORE.RESTR.norm>
0

>  <SCORE.SYSTEM>
-0.928944

>  <SCORE.SYSTEM.CONST>
0

>  <SCORE.SYSTEM.DIHEDRAL>
0.0894116

>  <SCORE.SYSTEM.VDW>
-0.97365

>  <SCORE.SYSTEM.norm>
-0.0442354

>  <SCORE.heavy>
21

>  <SCORE.norm>
-0.741375

$$$$
10168
  RxDock  02242110023D
librxdock.so/0.1.0
 24 26  0  0  0  0  0  0  0  0999 V2000
  -50.6423   -7.9238   19.4263 O   0  0  0  0  0  0
  -52.4050   -8.7372   17.7551 O   0  0  0  0  0  0
  -53.6445   -3.7322   16.3502 O   0  0  0  0  0  0
  -54.1256   -9.7123   16.1262 O   0  0  0  0  0  0
  -50.3365   -1.9765   19.3248 O   0  0  0  0  0  0
  -49.1644   -3.2576   20.7915 O   0  0  0  0  0  0
  -51.9959   -6.4442   18.0559 C   0  0  0  0  0  0
  -52.3198   -5.1364   17.6890 C   0  0  0  0  0  0
  -53.7274   -7.3334   16.4146 C   0  0  0  0  0  0
  -54.0512   -6.0255   16.0478 C   0  0  0  0  0  0
  -52.6879   -7.5906   17.4323 C   0  0  0  0  0  0
  -53.3593   -4.8792   16.6716 C   0  0  0  0  0  0
  -51.0086   -6.6743   19.0216 C   0  0  0  0  0  0
  -51.6564   -4.0586   18.2877 C   0  0  0  0  0  0
  -54.3908   -8.4112   15.8159 C   0  0  0  0  0  0
  -50.6731   -4.2924   19.2496 C   0  0  0  0  0  0
  -55.0385   -5.7953   15.0821 C   0  0  0  0  0  0
  -50.3498   -5.5974   19.6157 C   0  0  0  0  0  0
  -55.3737   -8.1773   14.8538 C   0  0  0  0  0  0
  -55.6969   -6.8722   14.4877 C   0  0  0  0  0  0
  -49.9840   -3.1723   19.8711 C   0  0  0  0  0  0
  -51.2506   -8.5833   19.0516 H   0  0  0  0  0  0
  -54.8467  -10.2897   15.8346 H   0  0  0  0  0  0
  -49.8755   -1.2270   19.7584 H   0  0  0  0  0  0
  1 13  1  0  0  0
  1 22  1  0  0  0
  2 11  2  0  0  0
  3 12  2  0  0  0
  4 15  1  0  0  0
  4 23  1  0  0  0
  5 21  1  0  0  0
  5 24  1  0  0  0
  6 21  2  0  0  0
  7  8  2  0  0  0
  7 11  1  0  0  0
  7 13  1  0  0  0
  8 12  1  0  0  0
  8 14  1  0  0  0
  9 10  2  0  0  0
  9 11  1  0  0  0
  9 15  1  0  0  0
 10 12  1  0  0  0
 10 17  1  0  0  0
 13 18  2  0  0  0
 14 16  2  0  0  0
 15 19  2  0  0  0
 16 18  1  0  0  0
 16 21  1  0  0  0
 17 20  2  0  0  0
 19 20  1  0  0  0
M  END
>  <CHROM.0>
-67.11038011,178.08026375,176.29500404

>  <CHROM.1>
-8.50297728,162.30115553,-0.80415524,-5.10466135,-52.45435840,-5.99150457
17.59304785,-0.57064305,0.77168015,3.09265944

>  <Name>
10168

>  <PUBCHEM_ATOM_DEF_STEREO_COUNT>
0

>  <PUBCHEM_ATOM_UDEF_STEREO_COUNT>
0

>  <PUBCHEM_BOND_DEF_STEREO_COUNT>
0

>  <PUBCHEM_BOND_UDEF_STEREO_COUNT>
0

>  <PUBCHEM_CACTVS_TAUTO_COUNT>
24

>  <PUBCHEM_COMPONENT_COUNT>
1

>  <PUBCHEM_COMPOUND_CID>
10168

>  <PUBCHEM_CONFORMER_DIVERSEORDER>
1

>  <PUBCHEM_CONFORMER_ID>
000027B800000001

>  <PUBCHEM_CONFORMER_RMSD>
0.6

>  <PUBCHEM_COORDINATE_TYPE>
2
5
10

>  <PUBCHEM_EFFECTIVE_ROTOR_COUNT>
1

>  <PUBCHEM_FEATURE_SELFOVERLAP>
50.846

>  <PUBCHEM_HEAVY_ATOM_COUNT>
21

>  <PUBCHEM_ISOTOPIC_ATOM_COUNT>
0

>  <PUBCHEM_MMFF94_ENERGY>
68.6965

>  <PUBCHEM_MMFF94_PARTIAL_CHARGES>
29
1 -0.53
10 0.09
11 0.4
12 0.4
13 0.08
14 -0.15
15 0.08
16 0.09
17 -0.15
18 -0.15
19 -0.15
2 -0.57
20 -0.15
21 0.63
22 0.15
23 0.15
24 0.15
25 0.15
26 0.15
27 0.45
28 0.45
29 0.5
3 -0.57
4 -0.53
5 -0.65
6 -0.57
7 0.09
8 0.09
9 0.09

>  <PUBCHEM_PHARMACOPHORE_FEATURES>
10
1 1 donor
1 2 acceptor
1 3 acceptor
1 4 donor
1 5 acceptor
1 6 acceptor
3 5 6 21 anion
6 7 8 13 14 16 18 rings
6 7 8 9 10 11 12 rings
6 9 10 15 17 19 20 rings

>  <PUBCHEM_SHAPE_FINGERPRINT>
10411042 1 17474108078014113454
10493431 412 18269565953339895465
10498660 4 18410294674922913756
10616163 171 18410857672284589919
10967382 1 18338516322768651303
11112241 14 16053761070513734896
11132069 177 18409728443646081177
11578080 2 16880465970251001054
12011746 2 18411414016725795421
12236239 1 17822008735941251148
12390115 104 18200049372811105841
12403814 3 17603301544648884029
12788726 201 17130428969891162825
12839892 36 18337935806573543930
12954195 1 17914635873199923916
13132413 78 18412263956188401997
13140716 1 17978237380748065187
13214271 11 18413105065582804717
138480 1 17689997830145918786
13862211 1 18410849988456228526
14787075 74 18271241724201582520
14790565 3 18410863182654238816
15196674 1 18410573989646956454
15442244 35 17978509737119017459
15536298 74 18270120106524723222
16945 1 18338797943927191847
19591789 44 18339360880600163352
200 152 18060414720851970709
20510252 161 18343586217802211793
21029758 11 18343016726961894417
21267235 1 18410019848582002819
21421861 104 17898004620951251034
2334 1 18410855434849033379
23366157 5 17970072141091609650
23402539 116 18342168981657591294
23463225 33 18336828581004649021
23557571 272 18272379688914152982
23559900 14 18198340655049243982
2748010 2 18338801104986231055
335352 9 18266458707240121534
34934 24 18410288074001057415
350125 39 18338802342116335721
3545911 37 18410294679449859541
4214541 1 18410575071905095872
474 4 17748835132931610636
474229 33 18410572911836947014
5104073 3 18410011018223987362
58051976 378 18340767031444580180
59755656 215 18340493253766844862
7364860 26 18197216936859193670
9709674 26 18340492162006407318

>  <PUBCHEM_SHAPE_MULTIPOLES>
396.95
8.82
2.71
0.59
3.87
0.56
0
-1.97
0
-0.5
0
-0.03
-0.02
0

>  <PUBCHEM_SHAPE_SELFOVERLAP>
903.159

>  <PUBCHEM_SHAPE_VOLUME>
204.5

>  <RI>
-6.29316e+08

>  <Rbt.Current_Directory>
/root/miniconda3/envs/rdock/share/rxdock-2013.1.1_148c5bd1-0/data/ligands/prepped_ligands/Rhein

>  <Rbt.Executable>
rbdock/0.1.0

>  <Rbt.Library>
librxdock.so/0.1.0

>  <Rbt.Parameter_File>
/root/miniconda3/envs/rdock/share/rxdock-2013.1.1_148c5bd1-0/data/scripts/dock.prm

>  <Rbt.Receptor>
def.prm

>  <SCORE>
-16.948

>  <SCORE.INTER>
-16.1959

>  <SCORE.INTER.CONST>
1

>  <SCORE.INTER.POLAR>
-1.34775

>  <SCORE.INTER.REPUL>
0

>  <SCORE.INTER.ROT>
1

>  <SCORE.INTER.VDW>
-18.0136

>  <SCORE.INTER.norm>
-0.771234

>  <SCORE.INTRA>
0.253975

>  <SCORE.INTRA.DIHEDRAL>
0.652626

>  <SCORE.INTRA.DIHEDRAL.0>
1.91521e-05

>  <SCORE.INTRA.POLAR>
0.0250135

>  <SCORE.INTRA.POLAR.0>
-0.0515654

>  <SCORE.INTRA.REPUL>
0

>  <SCORE.INTRA.REPUL.0>
0

>  <SCORE.INTRA.VDW>
-0.157384

>  <SCORE.INTRA.VDW.0>
1.17338

>  <SCORE.INTRA.norm>
0.012094

>  <SCORE.RESTR>
0

>  <SCORE.RESTR.CAVITY>
0

>  <SCORE.RESTR.norm>
0

>  <SCORE.SYSTEM>
-1.00606

>  <SCORE.SYSTEM.CONST>
0

>  <SCORE.SYSTEM.DIHEDRAL>
0.183577

>  <SCORE.SYSTEM.VDW>
-1.09785

>  <SCORE.SYSTEM.norm>
-0.0479078

>  <SCORE.heavy>
21

>  <SCORE.norm>
-0.807048

$$$$
10168
  RxDock  02242110023D
librxdock.so/0.1.0
 24 26  0  0  0  0  0  0  0  0999 V2000
  -50.0994   -7.2297   18.7739 O   0  0  0  0  0  0
  -52.0886   -8.2588   17.5306 O   0  0  0  0  0  0
  -53.3524   -3.5700   15.2997 O   0  0  0  0  0  0
  -54.0353   -9.4402   16.3563 O   0  0  0  0  0  0
  -49.9653   -1.3760   18.0506 O   0  0  0  0  0  0
  -48.0535   -2.5304   18.4738 O   0  0  0  0  0  0
  -51.5761   -5.9778   17.3069 C   0  0  0  0  0  0
  -51.9062   -4.7526   16.7241 C   0  0  0  0  0  0
  -53.5326   -7.0770   16.1044 C   0  0  0  0  0  0
  -53.8628   -5.8517   15.5217 C   0  0  0  0  0  0
  -52.3772   -7.1849   17.0185 C   0  0  0  0  0  0
  -53.0617   -4.6447   15.8103 C   0  0  0  0  0  0
  -50.4783   -6.0666   18.1714 C   0  0  0  0  0  0
  -51.1387   -3.6160   17.0058 C   0  0  0  0  0  0
  -54.3001   -8.2136   15.8227 C   0  0  0  0  0  0
  -50.0456   -3.7089   17.8678 C   0  0  0  0  0  0
  -54.9604   -5.7628   14.6571 C   0  0  0  0  0  0
  -49.7160   -4.9315   18.4493 C   0  0  0  0  0  0
  -55.3929   -8.1207   14.9604 C   0  0  0  0  0  0
  -55.7224   -6.8979   14.3789 C   0  0  0  0  0  0
  -49.2483   -2.5279   18.1599 C   0  0  0  0  0  0
  -50.7358   -7.9335   18.5617 H   0  0  0  0  0  0
  -53.1303   -9.4784   16.6995 H   0  0  0  0  0  0
  -50.9229   -1.5520   17.9312 H   0  0  0  0  0  0
  1 13  1  0  0  0
  1 22  1  0  0  0
  2 11  2  0  0  0
  3 12  2  0  0  0
  4 15  1  0  0  0
  4 23  1  0  0  0
  5 21  1  0  0  0
  5 24  1  0  0  0
  6 21  2  0  0  0
  7  8  2  0  0  0
  7 11  1  0  0  0
  7 13  1  0  0  0
  8 12  1  0  0  0
  8 14  1  0  0  0
  9 10  2  0  0  0
  9 11  1  0  0  0
  9 15  1  0  0  0
 10 12  1  0  0  0
 10 17  1  0  0  0
 13 18  2  0  0  0
 14 16  2  0  0  0
 15 19  2  0  0  0
 16 18  1  0  0  0
 16 21  1  0  0  0
 17 20  2  0  0  0
 19 20  1  0  0  0
M  END
>  <CHROM.0>
60.00798164,176.02439592,175.15338601

>  <CHROM.1>
-4.19589337,-18.00619310,-171.19380263,27.57919235,-52.08159490,-5.60151942
16.83045246,-0.56135899,0.62540516,2.90850656

>  <Name>
10168

>  <PUBCHEM_ATOM_DEF_STEREO_COUNT>
0

>  <PUBCHEM_ATOM_UDEF_STEREO_COUNT>
0

>  <PUBCHEM_BOND_DEF_STEREO_COUNT>
0

>  <PUBCHEM_BOND_UDEF_STEREO_COUNT>
0

>  <PUBCHEM_CACTVS_TAUTO_COUNT>
24

>  <PUBCHEM_COMPONENT_COUNT>
1

>  <PUBCHEM_COMPOUND_CID>
10168

>  <PUBCHEM_CONFORMER_DIVERSEORDER>
1

>  <PUBCHEM_CONFORMER_ID>
000027B800000001

>  <PUBCHEM_CONFORMER_RMSD>
0.6

>  <PUBCHEM_COORDINATE_TYPE>
2
5
10

>  <PUBCHEM_EFFECTIVE_ROTOR_COUNT>
1

>  <PUBCHEM_FEATURE_SELFOVERLAP>
50.846

>  <PUBCHEM_HEAVY_ATOM_COUNT>
21

>  <PUBCHEM_ISOTOPIC_ATOM_COUNT>
0

>  <PUBCHEM_MMFF94_ENERGY>
68.6965

>  <PUBCHEM_MMFF94_PARTIAL_CHARGES>
29
1 -0.53
10 0.09
11 0.4
12 0.4
13 0.08
14 -0.15
15 0.08
16 0.09
17 -0.15
18 -0.15
19 -0.15
2 -0.57
20 -0.15
21 0.63
22 0.15
23 0.15
24 0.15
25 0.15
26 0.15
27 0.45
28 0.45
29 0.5
3 -0.57
4 -0.53
5 -0.65
6 -0.57
7 0.09
8 0.09
9 0.09

>  <PUBCHEM_PHARMACOPHORE_FEATURES>
10
1 1 donor
1 2 acceptor
1 3 acceptor
1 4 donor
1 5 acceptor
1 6 acceptor
3 5 6 21 anion
6 7 8 13 14 16 18 rings
6 7 8 9 10 11 12 rings
6 9 10 15 17 19 20 rings

>  <PUBCHEM_SHAPE_FINGERPRINT>
10411042 1 17474108078014113454
10493431 412 18269565953339895465
10498660 4 18410294674922913756
10616163 171 18410857672284589919
10967382 1 18338516322768651303
11112241 14 16053761070513734896
11132069 177 18409728443646081177
11578080 2 16880465970251001054
12011746 2 18411414016725795421
12236239 1 17822008735941251148
12390115 104 18200049372811105841
12403814 3 17603301544648884029
12788726 201 17130428969891162825
12839892 36 18337935806573543930
12954195 1 17914635873199923916
13132413 78 18412263956188401997
13140716 1 17978237380748065187
13214271 11 18413105065582804717
138480 1 17689997830145918786
13862211 1 18410849988456228526
14787075 74 18271241724201582520
14790565 3 18410863182654238816
15196674 1 18410573989646956454
15442244 35 17978509737119017459
15536298 74 18270120106524723222
16945 1 18338797943927191847
19591789 44 18339360880600163352
200 152 18060414720851970709
20510252 161 18343586217802211793
21029758 11 18343016726961894417
21267235 1 18410019848582002819
21421861 104 17898004620951251034
2334 1 18410855434849033379
23366157 5 17970072141091609650
23402539 116 18342168981657591294
23463225 33 18336828581004649021
23557571 272 18272379688914152982
23559900 14 18198340655049243982
2748010 2 18338801104986231055
335352 9 18266458707240121534
34934 24 18410288074001057415
350125 39 18338802342116335721
3545911 37 18410294679449859541
4214541 1 18410575071905095872
474 4 17748835132931610636
474229 33 18410572911836947014
5104073 3 18410011018223987362
58051976 378 18340767031444580180
59755656 215 18340493253766844862
7364860 26 18197216936859193670
9709674 26 18340492162006407318

>  <PUBCHEM_SHAPE_MULTIPOLES>
396.95
8.82
2.71
0.59
3.87
0.56
0
-1.97
0
-0.5
0
-0.03
-0.02
0

>  <PUBCHEM_SHAPE_SELFOVERLAP>
903.159

>  <PUBCHEM_SHAPE_VOLUME>
204.5

>  <RI>
-6.29316e+08

>  <Rbt.Current_Directory>
/root/miniconda3/envs/rdock/share/rxdock-2013.1.1_148c5bd1-0/data/ligands/prepped_ligands/Rhein

>  <Rbt.Executable>
rbdock/0.1.0

>  <Rbt.Library>
librxdock.so/0.1.0

>  <Rbt.Parameter_File>
/root/miniconda3/envs/rdock/share/rxdock-2013.1.1_148c5bd1-0/data/scripts/dock.prm

>  <Rbt.Receptor>
def.prm

>  <SCORE>
-11.4008

>  <SCORE.INTER>
-13.1306

>  <SCORE.INTER.CONST>
1

>  <SCORE.INTER.POLAR>
-1.2295

>  <SCORE.INTER.REPUL>
0

>  <SCORE.INTER.ROT>
1

>  <SCORE.INTER.VDW>
-15.3503

>  <SCORE.INTER.norm>
-0.625267

>  <SCORE.INTRA>
2.7613

>  <SCORE.INTRA.DIHEDRAL>
3.77951

>  <SCORE.INTRA.DIHEDRAL.0>
1.91521e-05

>  <SCORE.INTRA.POLAR>
-0.00136829

>  <SCORE.INTRA.POLAR.0>
-0.0515654

>  <SCORE.INTRA.REPUL>
0

>  <SCORE.INTRA.REPUL.0>
0

>  <SCORE.INTRA.VDW>
0.876195

>  <SCORE.INTRA.VDW.0>
1.17338

>  <SCORE.INTRA.norm>
0.13149

>  <SCORE.RESTR>
0

>  <SCORE.RESTR.CAVITY>
0

>  <SCORE.RESTR.norm>
0

>  <SCORE.SYSTEM>
-1.03145

>  <SCORE.SYSTEM.CONST>
0

>  <SCORE.SYSTEM.DIHEDRAL>
0.139466

>  <SCORE.SYSTEM.VDW>
-1.10118

>  <SCORE.SYSTEM.norm>
-0.0491167

>  <SCORE.heavy>
21

>  <SCORE.norm>
-0.542893

$$$$
