W_DAR_D
  xed2sdf_05210316543D
 
 82 86  0  0  1  0  0  0  0  0999 V2000
  -48.2797  -17.8256   21.7304 O   0  0  0  0  0  0  0  0  0  0  0  0
  -47.7677  -16.7596   21.4364 C   0  0  0  0  0  0  0  0  0  0  0  0
  -47.7347  -15.5976   22.4014 C   0  0  0  0  0  0  0  0  0  0  0  0
  -46.4227  -14.8236   22.2784 C   0  0  0  0  0  0  0  0  0  0  0  0
  -46.3677  -14.3176   20.8324 C   0  0  0  0  0  0  0  0  0  0  0  0
  -45.0967  -13.6036   20.6424 N   0  0  0  0  0  0  0  0  0  0  0  0
  -45.0187  -12.1546   20.3884 C   0  0  0  0  0  0  0  0  0  0  0  0
  -43.6617  -12.2546   19.6674 C   0  0  0  0  0  0  0  0  0  0  0  0
  -42.8177  -11.0666   19.2544 C   0  0  0  0  0  0  0  0  0  0  0  0
  -43.5037   -9.8916   19.1454 N   0  0  0  0  0  0  0  0  0  0  0  0
  -44.5607   -9.7786   18.1324 C   0  0  0  0  0  0  0  0  0  0  0  0
  -45.5647   -8.6496   18.4164 C   0  0  0  0  0  0  0  0  0  0  0  0
  -46.7297   -9.2406   19.2244 C   0  0  0  0  0  0  0  0  0  0  0  0
  -47.6337   -8.1256   19.7704 C   0  0  0  0  0  0  0  0  0  0  0  0
  -48.8167   -7.9646   18.8034 C   0  0  0  0  0  0  0  0  0  0  0  0
  -48.4557   -7.0316   17.6374 C   0  0  0  0  0  0  0  0  0  0  0  0
  -49.7127   -6.8096   16.9084 N   0  0  0  0  0  0  0  0  0  0  0  0
  -50.1817   -5.5576   16.7154 C   0  0  0  0  0  0  0  0  0  0  0  0
  -49.5507   -4.5436   17.0064 O   0  0  0  0  0  0  0  0  0  0  0  0
  -51.5437   -5.3676   16.1484 C   0  0  0  0  0  0  0  0  0  0  0  0
  -52.6117   -6.0686   16.6714 C   0  0  0  0  0  0  0  0  0  0  0  0
  -53.8767   -5.8796   16.1784 C   0  0  0  0  0  0  0  0  0  0  0  0
  -54.1697   -5.0246   15.1794 N   0  0  0  0  0  0  0  0  0  0  0  0
  -53.1257   -4.3506   14.6714 C   0  0  0  0  0  0  0  0  0  0  0  0
  -51.8187   -4.4846   15.1094 C   0  0  0  0  0  0  0  0  0  0  0  0
  -50.7887   -3.7596   14.4944 N   0  0  0  0  0  0  0  0  0  0  0  0
  -50.6107   -2.4246   14.5514 C   0  0  0  0  0  0  0  0  0  0  0  0
  -51.2637   -1.6566   15.2414 O   0  0  0  0  0  0  0  0  0  0  0  0
  -49.4857   -1.9326   13.6654 C   0  0  0  0  0  0  0  0  0  0  0  0
  -48.2377   -1.7256   14.5054 C   0  0  0  0  0  0  0  0  0  0  0  0
  -47.5077   -0.5636   14.3894 C   0  0  0  0  0  0  0  0  0  0  0  0
  -46.3827   -0.3746   15.1594 C   0  0  0  0  0  0  0  0  0  0  0  0
  -45.9847   -1.3456   16.0494 C   0  0  0  0  0  0  0  0  0  0  0  0
  -46.7137   -2.5086   16.1674 C   0  0  0  0  0  0  0  0  0  0  0  0
  -46.2157   -3.7386   17.2914 Cl  0  0  0  0  0  0  0  0  0  0  0  0
  -47.8387   -2.6966   15.3954 C   0  0  0  0  0  0  0  0  0  0  0  0
  -41.5087  -11.2436   19.0094 C   0  0  0  0  0  0  0  0  0  0  0  0
  -40.9107  -12.5716   19.1494 C   0  0  0  0  0  0  0  0  0  0  0  0
  -41.5327  -13.5016   19.8704 C   0  0  0  0  0  0  0  0  0  0  0  0
  -42.8477  -13.2106   20.5444 C   0  0  0  0  0  0  0  0  0  0  0  0
  -43.9207  -14.2476   20.6954 C   0  0  0  0  0  0  0  0  0  0  0  0
  -43.7507  -15.4506   20.8394 O   0  0  0  0  0  0  0  0  0  0  0  0
  -46.5307  -15.4246   19.8114 C   0  0  0  0  0  0  0  0  0  0  0  0
  -46.0747  -15.3226   18.6854 O   0  0  0  0  0  0  0  0  0  0  0  0
  -47.1927  -16.5246   20.2364 N   0  0  0  0  0  0  0  0  0  0  0  0
  -47.1407  -13.7016   20.6824 H   0  0  0  0  0  0  0  0  0  0  0  0
  -43.9117  -12.5266   18.7384 H   0  0  0  0  0  0  0  0  0  0  0  0
  -42.4837  -12.9576   21.4404 H   0  0  0  0  0  0  0  0  0  0  0  0
  -47.8287  -15.9426   23.3344 H   0  0  0  0  0  0  0  0  0  0  0  0
  -48.4907  -14.9796   22.1824 H   0  0  0  0  0  0  0  0  0  0  0  0
  -45.6447  -15.4216   22.4704 H   0  0  0  0  0  0  0  0  0  0  0  0
  -46.3787  -14.0676   22.9324 H   0  0  0  0  0  0  0  0  0  0  0  0
  -44.9867  -11.6056   21.2234 H   0  0  0  0  0  0  0  0  0  0  0  0
  -45.7787  -11.7126   19.9114 H   0  0  0  0  0  0  0  0  0  0  0  0
  -43.1197   -9.1516   19.4284 H   0  0  0  0  0  0  0  0  0  0  0  0
  -45.0587  -10.6456   18.0944 H   0  0  0  0  0  0  0  0  0  0  0  0
  -44.1147   -9.5616   17.2644 H   0  0  0  0  0  0  0  0  0  0  0  0
  -45.9037   -8.2706   17.5554 H   0  0  0  0  0  0  0  0  0  0  0  0
  -45.1237   -7.9156   18.9324 H   0  0  0  0  0  0  0  0  0  0  0  0
  -46.3647   -9.7736   19.9884 H   0  0  0  0  0  0  0  0  0  0  0  0
  -47.2727   -9.8276   18.6234 H   0  0  0  0  0  0  0  0  0  0  0  0
  -47.1207   -7.2696   19.8304 H   0  0  0  0  0  0  0  0  0  0  0  0
  -47.9617   -8.3586   20.6854 H   0  0  0  0  0  0  0  0  0  0  0  0
  -49.5957   -7.5836   19.3004 H   0  0  0  0  0  0  0  0  0  0  0  0
  -49.0447   -8.8626   18.4294 H   0  0  0  0  0  0  0  0  0  0  0  0
  -47.7757   -7.4596   17.0424 H   0  0  0  0  0  0  0  0  0  0  0  0
  -48.0587   -6.1726   17.9594 H   0  0  0  0  0  0  0  0  0  0  0  0
  -50.1737   -7.5036   16.6254 H   0  0  0  0  0  0  0  0  0  0  0  0
  -52.4617   -6.7196   17.4154 H   0  0  0  0  0  0  0  0  0  0  0  0
  -54.6247   -6.4056   16.5834 H   0  0  0  0  0  0  0  0  0  0  0  0
  -53.3027   -3.7086   13.9264 H   0  0  0  0  0  0  0  0  0  0  0  0
  -50.2157   -4.2226   14.0154 H   0  0  0  0  0  0  0  0  0  0  0  0
  -49.7497   -1.0686   13.2364 H   0  0  0  0  0  0  0  0  0  0  0  0
  -49.2997   -2.6106   12.9544 H   0  0  0  0  0  0  0  0  0  0  0  0
  -47.7957    0.1444   13.7444 H   0  0  0  0  0  0  0  0  0  0  0  0
  -45.8537    0.4704   15.0724 H   0  0  0  0  0  0  0  0  0  0  0  0
  -45.1677   -1.2086   16.6084 H   0  0  0  0  0  0  0  0  0  0  0  0
  -48.3667   -3.5416   15.4824 H   0  0  0  0  0  0  0  0  0  0  0  0
  -40.9427  -10.4676   18.7314 H   0  0  0  0  0  0  0  0  0  0  0  0
  -40.0397  -12.7796   18.7044 H   0  0  0  0  0  0  0  0  0  0  0  0
  -41.1197  -14.4066   19.9674 H   0  0  0  0  0  0  0  0  0  0  0  0
  -47.2487  -17.1826   19.6534 H   0  0  0  0  0  0  0  0  0  0  0  0
  1  2  2  0
  2  3  1  0
  2 45  1  0
  3  4  1  0
  4  5  1  0
  5  6  1  0
  5 43  1  0
  6  7  1  0
  6 41  1  0
  7  8  1  0
  8  9  1  0
  8 40  1  0
  9 10  1  0
  9 37  2  0
 10 11  1  0
 11 12  1  0
 12 13  1  0
 13 14  1  0
 14 15  1  0
 15 16  1  0
 16 17  1  0
 17 18  1  0
 18 19  2  0
 18 20  1  0
 20 21  2  0
 20 25  1  0
 21 22  1  0
 22 23  2  0
 23 24  1  0
 24 25  2  0
 25 26  1  0
 26 27  1  0
 27 28  2  0
 27 29  1  0
 29 30  1  0
 30 31  2  0
 30 36  1  0
 31 32  1  0
 32 33  2  0
 33 34  1  0
 34 35  1  0
 34 36  2  0
 37 38  1  0
 38 39  2  0
 39 40  1  0
 40 41  1  0
 41 42  2  0
 43 44  2  0
 43 45  1  0
  3 49  1  0
  3 50  1  0
  4 51  1  0
  4 52  1  0
  5 46  1  0
  7 53  1  0
  7 54  1  0
  8 47  1  0
 10 55  1  0
 11 56  1  0
 11 57  1  0
 12 58  1  0
 12 59  1  0
 13 60  1  0
 13 61  1  0
 14 62  1  0
 14 63  1  0
 15 64  1  0
 15 65  1  0
 16 66  1  0
 16 67  1  0
 17 68  1  0
 21 69  1  0
 22 70  1  0
 24 71  1  0
 26 72  1  0
 29 73  1  0
 29 74  1  0
 31 75  1  0
 32 76  1  0
 33 77  1  0
 36 78  1  0
 37 79  1  0
 38 80  1  0
 39 81  1  0
 40 48  1  0
 45 82  1  0
M  END
>  <BioMolTech Lead Finder dG>
-10.649

>  <BioMolTech Lead Finder VSscore>
-12.27

>  <BioMolTech Lead Finder Rank score>
-4.875

>  <BioMolTech Lead Finder LE>
-0.237

>  <BioMolTech Lead Finder Structure Name>
/var/folders/xd/y7jw_xv579q2qqq7kks92xd80000gn/T/LeadFinder_19255_1/Ligand_1.sdf

>  <BioMolTech Lead Finder SDF id>
0

>  <BioMolTech Lead Finder Pose rank>
0

>  <BioMolTech Lead Finder version>
2001 1, 19 January 2019

>  <LF dG>
-10.649

>  <LF VSscore>
-12.27

>  <LF Rank Score>
-4.875

>  <LF LE>
-0.237

>  <Preferred Pose_cresset>
true

>  <Favorite_cresset>
false

>  <Protein_cresset>
6M2N_Dimer_P

>  <MW_cresset>
633.1

>  <#Atoms_cresset>
45

>  <SlogP_cresset>
2.9

>  <TPSA_cresset>
149.6

>  <Flexibility_cresset>
10.4

>  <#RB_cresset>
13

>  <Rof5_cresset>
2

>  <Filename_cresset>
DAR-DIA-9e4459de-1.mol

>  <Confs_cresset>
0

>  <Poses_cresset>
10

>  <_cresset_fieldpoints>
    -5     -49.099072     -18.731192      23.082531    -13.6134
    -5     -42.361305     -16.510015      20.773249    -17.4199
    -5     -50.269104      -2.774146      17.146496    -19.8114
    -5     -52.105968      -1.924037      16.852234    -17.0665
    -5     -55.976059      -4.607238      14.700452    -10.7437
    -5     -50.980484      -0.041033      15.996824    -16.1314
    -5     -45.179237      -2.728204      13.382719     -2.1052
    -5     -44.186928     -16.126732      19.102545    -17.2272
    -5     -40.091942     -11.790983      21.332247     -4.2956
    -6     -51.458313      -8.910641      16.812584      9.0273
    -6     -47.767113     -11.690403      21.216183      8.3053
    -6     -49.193504     -13.897836      20.379051      7.4580
    -6     -42.872780      -7.342653      20.005283      9.8163
    -6     -48.670593       0.091514      11.619743      4.1843
    -6     -43.862206       0.856193      16.250706      2.7282
    -6     -48.920609      -4.838159      12.746443     11.4123
    -6     -47.819813     -18.373142      18.267702      4.9012
    -7     -50.349365     -17.438774      23.002312     -1.1344
    -7     -51.734669      -9.010710      17.986862     -2.0613
    -7     -44.826588     -17.532417      21.077900     -2.6089
    -7     -46.412819     -12.981661      17.714045     -2.9713
    -7     -42.805206     -12.093444      16.430935     -2.3219
    -7     -41.722660      -8.410122      17.394886     -1.7936
    -7     -45.894676      -6.231055      15.784597     -2.4682
    -7     -47.619106      -9.885311      16.079384     -2.4266
    -7     -48.562294      -3.983747      19.148312     -2.6445
    -7     -45.483517      -5.446491      19.523991     -2.2008
    -7     -47.988258     -11.337185      21.425671     -2.7048
    -7     -50.380806      -2.280259      17.463688     -3.2485
    -7     -56.400368      -4.998597      14.094797     -1.0233
    -7     -48.271191      -5.831405      14.587414     -3.3260
    -7     -51.244282      -8.164217      14.392982     -1.7726
    -7     -51.537582      -3.622712      11.772138     -2.0694
    -7     -52.833439      -1.295800      13.115986     -1.7511
    -7     -46.616364       2.522426      13.368353     -0.9967
    -7     -43.572632       0.985392      16.510504     -0.9772
    -7     -45.512081      -3.029932      12.889606     -1.8798
    -7     -50.123360      -4.939453      19.547756     -2.4683
    -7     -44.408989      -9.110380      21.584436     -2.9889
    -7     -43.827461     -15.062465      17.932102     -2.6663
    -7     -44.159462     -12.818655      23.502716     -2.4315
    -7     -41.843109     -15.699776      22.343189     -1.6505
    -7     -49.459023     -14.939844      19.610369     -2.0074
    -8     -47.033463     -15.043598      21.705055      5.5691
    -8     -42.263519     -12.357531      19.609837      7.0445
    -8     -45.809593      -9.327106      18.598951      5.6114
    -8     -47.563698      -8.299700      18.801247      6.1267
    -8     -52.473976      -5.302414      15.855854      5.3680
    -8     -47.115124      -1.536740      15.274716      7.1862
    -8     -46.643513      -2.668347      16.311512      5.6012

$$$$
DAR_D
  xed2sdf_05210316543D
 
 82 86  0  0  1  0  0  0  0  0999 V2000
  -39.6531   -9.3749   20.4789 O   0  0  0  0  0  0  0  0  0  0  0  0
  -40.3701  -10.3539   20.3639 C   0  0  0  0  0  0  0  0  0  0  0  0
  -40.3911  -11.4529   21.3999 C   0  0  0  0  0  0  0  0  0  0  0  0
  -41.8051  -12.0069   21.5799 C   0  0  0  0  0  0  0  0  0  0  0  0
  -42.2161  -12.5569   20.2099 C   0  0  0  0  0  0  0  0  0  0  0  0
  -43.5941  -13.0609   20.3109 N   0  0  0  0  0  0  0  0  0  0  0  0
  -44.7661  -12.1769   20.4279 C   0  0  0  0  0  0  0  0  0  0  0  0
  -45.6241  -13.2469   21.1299 C   0  0  0  0  0  0  0  0  0  0  0  0
  -47.1051  -13.1089   21.4169 C   0  0  0  0  0  0  0  0  0  0  0  0
  -47.5661  -11.8239   21.4279 N   0  0  0  0  0  0  0  0  0  0  0  0
  -48.4651  -11.3829   20.3539 C   0  0  0  0  0  0  0  0  0  0  0  0
  -48.6791   -9.8619   20.3179 C   0  0  0  0  0  0  0  0  0  0  0  0
  -48.8841   -9.4449   18.8539 C   0  0  0  0  0  0  0  0  0  0  0  0
  -47.7941   -8.4579   18.4129 C   0  0  0  0  0  0  0  0  0  0  0  0
  -48.4181   -7.4919   17.3949 C   0  0  0  0  0  0  0  0  0  0  0  0
  -48.2151   -6.0299   17.8209 C   0  0  0  0  0  0  0  0  0  0  0  0
  -48.5141   -5.2269   16.6259 N   0  0  0  0  0  0  0  0  0  0  0  0
  -48.4131   -3.8799   16.6619 C   0  0  0  0  0  0  0  0  0  0  0  0
  -47.9551   -3.2589   17.6179 O   0  0  0  0  0  0  0  0  0  0  0  0
  -48.9031   -3.0809   15.5079 C   0  0  0  0  0  0  0  0  0  0  0  0
  -50.2381   -3.1199   15.1589 C   0  0  0  0  0  0  0  0  0  0  0  0
  -50.7081   -2.3639   14.1169 C   0  0  0  0  0  0  0  0  0  0  0  0
  -49.9331   -1.5509   13.3739 N   0  0  0  0  0  0  0  0  0  0  0  0
  -48.6341   -1.5219   13.7149 C   0  0  0  0  0  0  0  0  0  0  0  0
  -48.0791   -2.2549   14.7499 C   0  0  0  0  0  0  0  0  0  0  0  0
  -46.7041   -2.1829   15.0099 N   0  0  0  0  0  0  0  0  0  0  0  0
  -45.9141   -1.1059   14.8229 C   0  0  0  0  0  0  0  0  0  0  0  0
  -46.3041    0.0061   14.5009 O   0  0  0  0  0  0  0  0  0  0  0  0
  -44.4471   -1.3919   15.0669 C   0  0  0  0  0  0  0  0  0  0  0  0
  -44.1231   -1.1519   16.5309 C   0  0  0  0  0  0  0  0  0  0  0  0
  -43.3991   -2.0809   17.2439 C   0  0  0  0  0  0  0  0  0  0  0  0
  -43.0971   -1.8559   18.5679 C   0  0  0  0  0  0  0  0  0  0  0  0
  -43.5191   -0.6989   19.1829 C   0  0  0  0  0  0  0  0  0  0  0  0
  -44.2441    0.2321   18.4729 C   0  0  0  0  0  0  0  0  0  0  0  0
  -44.7771    1.6951   19.2459 Cl  0  0  0  0  0  0  0  0  0  0  0  0
  -44.5441    0.0051   17.1479 C   0  0  0  0  0  0  0  0  0  0  0  0
  -47.8341  -14.2129   21.6539 C   0  0  0  0  0  0  0  0  0  0  0  0
  -47.1981  -15.5299   21.6269 C   0  0  0  0  0  0  0  0  0  0  0  0
  -46.0311  -15.6849   21.0059 C   0  0  0  0  0  0  0  0  0  0  0  0
  -45.3491  -14.5239   20.3319 C   0  0  0  0  0  0  0  0  0  0  0  0
  -43.8571  -14.3769   20.2959 C   0  0  0  0  0  0  0  0  0  0  0  0
  -43.0401  -15.2859   20.2619 O   0  0  0  0  0  0  0  0  0  0  0  0
  -42.0871  -11.5369   19.0979 C   0  0  0  0  0  0  0  0  0  0  0  0
  -42.7651  -11.6109   18.0869 O   0  0  0  0  0  0  0  0  0  0  0  0
  -41.1961  -10.5419   19.3119 N   0  0  0  0  0  0  0  0  0  0  0  0
  -41.5901  -13.2979   19.9649 H   0  0  0  0  0  0  0  0  0  0  0  0
  -45.3321  -13.1869   22.0849 H   0  0  0  0  0  0  0  0  0  0  0  0
  -45.7021  -14.6809   19.4099 H   0  0  0  0  0  0  0  0  0  0  0  0
  -40.0661  -11.0889   22.2729 H   0  0  0  0  0  0  0  0  0  0  0  0
  -39.7951  -12.1949   21.0909 H   0  0  0  0  0  0  0  0  0  0  0  0
  -42.4301  -11.2819   21.8679 H   0  0  0  0  0  0  0  0  0  0  0  0
  -41.8351  -12.7159   22.2839 H   0  0  0  0  0  0  0  0  0  0  0  0
  -45.1361  -11.8879   19.5449 H   0  0  0  0  0  0  0  0  0  0  0  0
  -44.6521  -11.2899   20.8749 H   0  0  0  0  0  0  0  0  0  0  0  0
  -47.0971  -11.2119   21.8539 H   0  0  0  0  0  0  0  0  0  0  0  0
  -49.3531  -11.8269   20.4819 H   0  0  0  0  0  0  0  0  0  0  0  0
  -48.0371  -11.6399   19.4879 H   0  0  0  0  0  0  0  0  0  0  0  0
  -47.8781   -9.3969   20.6969 H   0  0  0  0  0  0  0  0  0  0  0  0
  -49.4771   -9.6099   20.8639 H   0  0  0  0  0  0  0  0  0  0  0  0
  -49.7801   -9.0129   18.7569 H   0  0  0  0  0  0  0  0  0  0  0  0
  -48.8301  -10.2599   18.2769 H   0  0  0  0  0  0  0  0  0  0  0  0
  -47.0341   -8.9529   17.9919 H   0  0  0  0  0  0  0  0  0  0  0  0
  -47.4411   -7.9519   19.1999 H   0  0  0  0  0  0  0  0  0  0  0  0
  -49.3981   -7.6799   17.3219 H   0  0  0  0  0  0  0  0  0  0  0  0
  -47.9701   -7.6279   16.5109 H   0  0  0  0  0  0  0  0  0  0  0  0
  -47.2731   -5.8789   18.1199 H   0  0  0  0  0  0  0  0  0  0  0  0
  -48.8051   -5.7829   18.5889 H   0  0  0  0  0  0  0  0  0  0  0  0
  -48.7881   -5.6319   15.8939 H   0  0  0  0  0  0  0  0  0  0  0  0
  -50.8671   -3.7049   15.6709 H   0  0  0  0  0  0  0  0  0  0  0  0
  -51.6821   -2.4199   13.8949 H   0  0  0  0  0  0  0  0  0  0  0  0
  -48.0261   -0.9319   13.1839 H   0  0  0  0  0  0  0  0  0  0  0  0
  -46.3221   -2.9149   15.3089 H   0  0  0  0  0  0  0  0  0  0  0  0
  -43.8891   -0.7889   14.4959 H   0  0  0  0  0  0  0  0  0  0  0  0
  -44.2491   -2.3429   14.8339 H   0  0  0  0  0  0  0  0  0  0  0  0
  -43.0901   -2.9209   16.7979 H   0  0  0  0  0  0  0  0  0  0  0  0
  -42.5721   -2.5329   19.0829 H   0  0  0  0  0  0  0  0  0  0  0  0
  -43.3001   -0.5359   20.1449 H   0  0  0  0  0  0  0  0  0  0  0  0
  -45.0701    0.6821   16.6329 H   0  0  0  0  0  0  0  0  0  0  0  0
  -48.8121  -14.1329   21.8479 H   0  0  0  0  0  0  0  0  0  0  0  0
  -47.6381  -16.3089   22.0729 H   0  0  0  0  0  0  0  0  0  0  0  0
  -45.6001  -16.5869   20.9869 H   0  0  0  0  0  0  0  0  0  0  0  0
  -41.1551   -9.9279   18.6819 H   0  0  0  0  0  0  0  0  0  0  0  0
  1  2  2  0
  2  3  1  0
  2 45  1  0
  3  4  1  0
  4  5  1  0
  5  6  1  0
  5 43  1  0
  6  7  1  0
  6 41  1  0
  7  8  1  0
  8  9  1  0
  8 40  1  0
  9 10  1  0
  9 37  2  0
 10 11  1  0
 11 12  1  0
 12 13  1  0
 13 14  1  0
 14 15  1  0
 15 16  1  0
 16 17  1  0
 17 18  1  0
 18 19  2  0
 18 20  1  0
 20 21  2  0
 20 25  1  0
 21 22  1  0
 22 23  2  0
 23 24  1  0
 24 25  2  0
 25 26  1  0
 26 27  1  0
 27 28  2  0
 27 29  1  0
 29 30  1  0
 30 31  2  0
 30 36  1  0
 31 32  1  0
 32 33  2  0
 33 34  1  0
 34 35  1  0
 34 36  2  0
 37 38  1  0
 38 39  2  0
 39 40  1  0
 40 41  1  0
 41 42  2  0
 43 44  2  0
 43 45  1  0
  3 49  1  0
  3 50  1  0
  4 51  1  0
  4 52  1  0
  5 46  1  0
  7 53  1  0
  7 54  1  0
  8 47  1  0
 10 55  1  0
 11 56  1  0
 11 57  1  0
 12 58  1  0
 12 59  1  0
 13 60  1  0
 13 61  1  0
 14 62  1  0
 14 63  1  0
 15 64  1  0
 15 65  1  0
 16 66  1  0
 16 67  1  0
 17 68  1  0
 21 69  1  0
 22 70  1  0
 24 71  1  0
 26 72  1  0
 29 73  1  0
 29 74  1  0
 31 75  1  0
 32 76  1  0
 33 77  1  0
 36 78  1  0
 37 79  1  0
 38 80  1  0
 39 81  1  0
 40 48  1  0
 45 82  1  0
M  END
>  <BioMolTech Lead Finder dG>
-10.356

>  <BioMolTech Lead Finder VSscore>
-11.86

>  <BioMolTech Lead Finder Rank score>
-4.52

>  <BioMolTech Lead Finder LE>
-0.23

>  <BioMolTech Lead Finder Structure Name>
/var/folders/xd/y7jw_xv579q2qqq7kks92xd80000gn/T/LeadFinder_14620_1/Ligand_1.sdf

>  <BioMolTech Lead Finder SDF id>
0

>  <BioMolTech Lead Finder Pose rank>
0

>  <BioMolTech Lead Finder version>
2001 1, 19 January 2019

>  <LF dG>
-10.356

>  <LF VSscore>
-11.86

>  <LF Rank Score>
-4.52

>  <LF LE>
-0.23

>  <Preferred Pose_cresset>
true

>  <Favorite_cresset>
false

>  <Protein_cresset>
6M2N_Dimer_P

>  <MW_cresset>
633.1

>  <#Atoms_cresset>
45

>  <SlogP_cresset>
2.9

>  <TPSA_cresset>
149.6

>  <Flexibility_cresset>
10.4

>  <#RB_cresset>
13

>  <Rof5_cresset>
2

>  <Filename_cresset>
DAR-DIA-9e4459de-1.mol

>  <Confs_cresset>
0

>  <Poses_cresset>
10

>  <_cresset_fieldpoints>
    -5     -38.385757      -8.616106      21.555983    -12.9697
    -5     -43.746235     -13.121679      17.720890    -14.9343
    -5     -43.182915     -17.031322      20.191795    -16.8586
    -5     -48.952049     -12.135529      23.100952     -2.2730
    -5     -48.233402     -15.449444      19.377365     -4.8239
    -5     -47.681564       1.283343      14.599777    -14.2958
    -5     -50.632774      -0.310807      12.093817    -11.2794
    -5     -45.990395       1.770151      14.122484    -13.8681
    -5     -41.426437       0.700854      17.227131     -2.7142
    -5     -47.466660      -1.424773      17.870569    -16.9094
    -6     -45.720284      -9.950740      22.275806     13.2648
    -6     -41.450706      -8.429199      17.528975      6.5485
    -6     -39.618279     -12.827235      18.986217      5.7186
    -6     -43.816643      -9.491274      21.526463      7.3822
    -6     -46.540668     -11.336213      17.848808      3.5830
    -6     -49.603317      -6.489926      14.389452      8.4407
    -6     -43.466022      -9.510713      20.882568      7.4359
    -6     -45.039955      -4.336824      15.338672     11.3867
    -6     -41.937874      -2.423814      21.251814      2.7607
    -6     -50.982521     -13.143167      21.510767      1.8762
    -6     -49.965858     -16.146570      22.771740      1.1080
    -6     -51.606937     -10.789951      19.669495      2.5101
    -7     -44.405937      -9.474382      18.765919     -2.5736
    -7     -45.324844      -8.959336      20.386269     -2.5632
    -7     -39.351326     -12.475233      18.389664     -1.9866
    -7     -43.239395      -9.140388      20.426788     -2.6921
    -7     -37.466770     -10.026026      21.401150     -1.1345
    -7     -46.903801     -12.447332      24.204655     -1.8634
    -7     -44.564934     -11.141541      23.505413     -2.1460
    -7     -43.403908     -14.649876      23.132057     -2.5737
    -7     -46.508095     -11.522032      17.490982     -2.6184
    -7     -49.190956     -11.972077      23.454876     -2.0266
    -7     -51.685097     -11.016500      19.334146     -1.5153
    -7     -49.836178      -6.854082      20.680798     -2.1797
    -7     -47.886230     -10.423418      15.788841     -1.6180
    -7     -44.128540     -13.428750      17.461143     -2.5770
    -7     -48.959000     -10.174114      15.632120     -1.5728
    -7     -45.696194      -3.511002      12.813763     -2.1014
    -7     -51.273960      -5.740159      16.997105     -2.4118
    -7     -50.790230      -0.347816      11.384762     -1.0253
    -7     -44.787003       1.847207      14.372382     -1.9406
    -7     -41.170898       0.579725      16.763958     -1.8738
    -7     -45.492561      -4.500828      16.920193     -3.2921
    -7     -45.667030      -4.057983      17.791901     -2.9805
    -7     -41.899780      -2.246327      21.726513     -0.9778
    -7     -47.570087      -0.798883      17.642296     -3.2345
    -7     -48.181427     -14.178086      18.700680     -2.6775
    -7     -46.743465     -12.846899      17.775993     -2.5348
    -7     -43.999596     -17.093916      18.883261     -1.5550
    -8     -41.301712     -11.897808      20.886265      5.5835
    -8     -46.456451     -14.377873      21.171789      7.0477
    -8     -48.338467      -9.241259      19.250998      5.8038
    -8     -48.635151     -10.206150      19.645897      5.6737
    -8     -48.494801      -8.444687      18.224041      5.8286
    -8     -48.144627      -7.424095      18.072845      5.5821
    -8     -49.322487      -2.584315      14.775928      5.3662
    -8     -43.820652      -0.926291      17.852814      7.1891
    -8     -44.312733       0.419312      18.568073      5.6065

$$$$
W_Baicalein_D
  xed2sdf_05210316543D
 
 30 32  0  0  0  0  0  0  0  0999 V2000
  -50.0431   -3.5531   16.0415 O   0  0  0  0  0  0  0  0  0  0  0  0
  -46.0041   -1.1791   14.8105 O   0  0  0  0  0  0  0  0  0  0  0  0
  -47.4711    0.3789   13.1605 O   0  0  0  0  0  0  0  0  0  0  0  0
  -50.1821    0.0039   12.9475 O   0  0  0  0  0  0  0  0  0  0  0  0
  -46.0601   -3.2071   16.6195 O   0  0  0  0  0  0  0  0  0  0  0  0
  -47.9731   -2.4031   15.4825 C   0  0  0  0  0  0  0  0  0  0  0  0
  -49.3541   -2.5941   15.3605 C   0  0  0  0  0  0  0  0  0  0  0  0
  -49.3461   -4.3951   16.8705 C   0  0  0  0  0  0  0  0  0  0  0  0
  -47.3451   -1.3951   14.7315 C   0  0  0  0  0  0  0  0  0  0  0  0
  -47.2671   -3.2821   16.3965 C   0  0  0  0  0  0  0  0  0  0  0  0
  -48.0021   -4.2871   17.0745 C   0  0  0  0  0  0  0  0  0  0  0  0
  -50.1321   -5.4561   17.5555 C   0  0  0  0  0  0  0  0  0  0  0  0
  -50.0741   -1.7771   14.5075 C   0  0  0  0  0  0  0  0  0  0  0  0
  -48.0851   -0.6001   13.8905 C   0  0  0  0  0  0  0  0  0  0  0  0
  -49.4561   -0.7881   13.7785 C   0  0  0  0  0  0  0  0  0  0  0  0
  -50.8581   -5.1291   18.6915 C   0  0  0  0  0  0  0  0  0  0  0  0
  -50.1781   -6.7691   17.1055 C   0  0  0  0  0  0  0  0  0  0  0  0
  -51.6021   -6.0751   19.3525 C   0  0  0  0  0  0  0  0  0  0  0  0
  -50.9221   -7.7151   17.7665 C   0  0  0  0  0  0  0  0  0  0  0  0
  -51.6361   -7.3721   18.8915 C   0  0  0  0  0  0  0  0  0  0  0  0
  -45.5511   -1.2731   13.9215 H   0  0  0  0  0  0  0  0  0  0  0  0
  -46.7151    0.0089   12.6085 H   0  0  0  0  0  0  0  0  0  0  0  0
  -50.3051   -0.4221   12.0445 H   0  0  0  0  0  0  0  0  0  0  0  0
  -47.5361   -4.9141   17.6995 H   0  0  0  0  0  0  0  0  0  0  0  0
  -51.0621   -1.9081   14.4205 H   0  0  0  0  0  0  0  0  0  0  0  0
  -50.8391   -4.1891   19.0335 H   0  0  0  0  0  0  0  0  0  0  0  0
  -49.6621   -7.0291   16.2885 H   0  0  0  0  0  0  0  0  0  0  0  0
  -52.1191   -5.8221   20.1705 H   0  0  0  0  0  0  0  0  0  0  0  0
  -50.9451   -8.6571   17.4295 H   0  0  0  0  0  0  0  0  0  0  0  0
  -52.1771   -8.0611   19.3725 H   0  0  0  0  0  0  0  0  0  0  0  0
  1  7  1  0
  1  8  1  0
  2  9  1  0
  3 14  1  0
  4 15  1  0
  5 10  2  0
  6  7  2  0
  6  9  1  0
  6 10  1  0
  7 13  1  0
  8 11  2  0
  8 12  1  0
  9 14  2  0
 10 11  1  0
 12 16  2  0
 12 17  1  0
 13 15  2  0
 14 15  1  0
 16 18  1  0
 17 19  2  0
 18 20  2  0
 19 20  1  0
  2 21  1  0
  3 22  1  0
  4 23  1  0
 11 24  1  0
 13 25  1  0
 16 26  1  0
 17 27  1  0
 18 28  1  0
 19 29  1  0
 20 30  1  0
M  END
>  <BioMolTech Lead Finder dG>
-6.877

>  <BioMolTech Lead Finder VSscore>
-8.905

>  <BioMolTech Lead Finder Rank score>
-10.895

>  <BioMolTech Lead Finder LE>
-0.344

>  <BioMolTech Lead Finder Structure Name>
/var/folders/xd/y7jw_xv579q2qqq7kks92xd80000gn/T/LeadFinder_20272_1/Ligand_1.sdf

>  <BioMolTech Lead Finder SDF id>
0

>  <BioMolTech Lead Finder Pose rank>
0

>  <BioMolTech Lead Finder version>
2001 1, 19 January 2019

>  <PUBCHEM_COMPOUND_CID>
5281605

>  <PUBCHEM_COMPOUND_CANONICALIZED>
1

>  <PUBCHEM_CACTVS_COMPLEXITY>
413

>  <PUBCHEM_CACTVS_HBOND_ACCEPTOR>
5

>  <PUBCHEM_CACTVS_HBOND_DONOR>
3

>  <PUBCHEM_CACTVS_ROTATABLE_BOND>
1

>  <PUBCHEM_CACTVS_SUBSKEYS>
AAADccBwOAAAAAAAAAAAAAAAAAAAAAAAAAAwYIAAAAAAAACBQAAAGgAACAAADASAmAAwBoAABgCIAqBSAAACCAAkIAAIiAEGiMgNJzaGNRqCeWGl4BUJuQfK7LzOIQABCAAIQABCAAIQABCAAAAAAAAAAA==

>  <PUBCHEM_IUPAC_OPENEYE_NAME>
5,6,7-trihydroxy-2-phenyl-chromen-4-one

>  <PUBCHEM_IUPAC_CAS_NAME>
5,6,7-trihydroxy-2-phenyl-1-benzopyran-4-one

>  <PUBCHEM_IUPAC_NAME_MARKUP>
5,6,7-trihydroxy-2-phenylchromen-4-one

>  <PUBCHEM_IUPAC_NAME>
5,6,7-trihydroxy-2-phenylchromen-4-one

>  <PUBCHEM_IUPAC_SYSTEMATIC_NAME>
5,6,7-tris(oxidanyl)-2-phenyl-chromen-4-one

>  <PUBCHEM_IUPAC_TRADITIONAL_NAME>
5,6,7-trihydroxy-2-phenyl-chromone

>  <PUBCHEM_IUPAC_INCHI>
InChI=1S/C15H10O5/c16-9-6-11(8-4-2-1-3-5-8)20-12-7-10(17)14(18)15(19)13(9)12/h1-7,17-19H

>  <PUBCHEM_IUPAC_INCHIKEY>
FXNFHKRTJBSTCS-UHFFFAOYSA-N

>  <PUBCHEM_XLOGP3>
1.7

>  <PUBCHEM_EXACT_MASS>
270.052823

>  <PUBCHEM_MOLECULAR_FORMULA>
C15H10O5

>  <PUBCHEM_MOLECULAR_WEIGHT>
270.24

>  <PUBCHEM_OPENEYE_CAN_SMILES>
C1=CC=C(C=C1)C2=CC(=O)C3=C(O2)C=C(C(=C3O)O)O

>  <PUBCHEM_OPENEYE_ISO_SMILES>
C1=CC=C(C=C1)C2=CC(=O)C3=C(O2)C=C(C(=C3O)O)O

>  <PUBCHEM_CACTVS_TPSA>
87

>  <PUBCHEM_MONOISOTOPIC_WEIGHT>
270.052823

>  <PUBCHEM_TOTAL_CHARGE>
0

>  <PUBCHEM_HEAVY_ATOM_COUNT>
20

>  <PUBCHEM_ATOM_DEF_STEREO_COUNT>
0

>  <PUBCHEM_ATOM_UDEF_STEREO_COUNT>
0

>  <PUBCHEM_BOND_DEF_STEREO_COUNT>
0

>  <PUBCHEM_BOND_UDEF_STEREO_COUNT>
0

>  <PUBCHEM_ISOTOPIC_ATOM_COUNT>
0

>  <PUBCHEM_COMPONENT_COUNT>
1

>  <PUBCHEM_CACTVS_TAUTO_COUNT>
-1

>  <PUBCHEM_COORDINATE_TYPE>
1
5
255

>  <PUBCHEM_BONDANNOTATIONS>
1  7  8
1  8  8
10  11  8
12  16  8
12  17  8
13  15  8
14  15  8
16  18  8
17  19  8
18  20  8
19  20  8
6  10  8
6  7  8
6  9  8
7  13  8
8  11  8
9  14  8

>  <LF dG>
-6.877

>  <LF VSscore>
-8.905

>  <LF Rank Score>
-10.895

>  <LF LE>
-0.344

>  <Preferred Pose_cresset>
true

>  <Favorite_cresset>
false

>  <Protein_cresset>
6M2N_Dimer_P

>  <MW_cresset>
270.2

>  <#Atoms_cresset>
20

>  <SlogP_cresset>
2.3

>  <TPSA_cresset>
87

>  <Flexibility_cresset>
1.7

>  <#RB_cresset>
4

>  <Rof5_cresset>
0

>  <Filename_cresset>
Baicalein.sdf

>  <Confs_cresset>
0

>  <Poses_cresset>
10

>  <_cresset_fieldpoints>
    -5     -52.383232      -4.363544      15.984017     -2.6347
    -5     -53.183365      -5.613806      16.556675     -2.9206
    -5     -44.747009      -3.829469      17.810844    -11.0261
    -5     -48.183643       2.192889      14.227272     -6.3391
    -5     -44.890617      -1.721375      16.450729    -13.6650
    -5     -48.628700      -7.107762      20.080036     -2.8267
    -6     -50.237976      -1.560526      10.709826      6.6517
    -6     -52.340462      -3.737306      21.172485      2.5871
    -6     -48.849693      -5.960885      14.422705      3.1453
    -6     -45.463543      -1.122380      12.127991     10.4244
    -6     -49.753601      -9.279694      15.347166      3.2577
    -6     -52.259556     -10.424568      18.485771      3.1019
    -6     -53.511971      -7.598403      21.345287      2.9382
    -7     -52.385262      -4.151597      15.605574     -2.4545
    -7     -44.846527      -3.515622      14.387497     -1.7812
    -7     -45.126797       1.049785      13.984451     -1.5466
    -7     -45.393723      -0.859686      17.320061     -1.6227
    -7     -48.654076       1.026071      11.051027     -1.4667
    -7     -46.080528      -2.202784      11.761595     -1.4090
    -7     -48.156654      -3.916404      12.426495     -1.8299
    -7     -52.611031      -0.510289      12.599625     -1.2585
    -7     -49.159729       0.259824      17.262463     -1.8077
    -7     -49.375542      -2.002207      18.652740     -2.6023
    -7     -52.296303      -3.186607      21.041079     -0.9924
    -7     -49.379318      -9.527373      15.321274     -0.9884
    -7     -48.402290      -5.656608      14.337059     -2.6074
    -7     -52.349655     -10.680819      18.601166     -0.9672
    -7     -47.938637      -6.662200      19.727383     -2.0485
    -7     -53.637878      -7.560515      21.631733     -0.9670
    -8     -48.725990      -1.620932      14.646267      6.5998
    -8     -50.883133      -6.416975      18.227608      7.1498
    -8     -48.328354      -3.372267      16.221491      5.0054

$$$$
Untitled
  xed2sdf_05210316543D
 
 30 32  0  0  0  0  0  0  0  0999 V2000
  -48.1918   -3.2617   15.9072 O   0  0  0  0  0  0  0  0  0  0  0  0
  -52.4858   -2.2397   13.9122 O   0  0  0  0  0  0  0  0  0  0  0  0
  -53.4678   -4.5357   14.9472 O   0  0  0  0  0  0  0  0  0  0  0  0
  -51.8608   -6.1757   16.4522 O   0  0  0  0  0  0  0  0  0  0  0  0
  -50.3158   -0.6157   13.7152 O   0  0  0  0  0  0  0  0  0  0  0  0
  -50.3198   -2.6737   14.8832 C   0  0  0  0  0  0  0  0  0  0  0  0
  -49.5038   -3.5207   15.6422 C   0  0  0  0  0  0  0  0  0  0  0  0
  -47.6298   -2.1257   15.3812 C   0  0  0  0  0  0  0  0  0  0  0  0
  -51.6598   -3.0277   14.6522 C   0  0  0  0  0  0  0  0  0  0  0  0
  -49.7088   -1.4597   14.3732 C   0  0  0  0  0  0  0  0  0  0  0  0
  -48.3368   -1.2247   14.6402 C   0  0  0  0  0  0  0  0  0  0  0  0
  -46.1838   -1.9097   15.6562 C   0  0  0  0  0  0  0  0  0  0  0  0
  -50.0398   -4.6867   16.1582 C   0  0  0  0  0  0  0  0  0  0  0  0
  -52.1638   -4.1927   15.1752 C   0  0  0  0  0  0  0  0  0  0  0  0
  -51.3538   -5.0267   15.9342 C   0  0  0  0  0  0  0  0  0  0  0  0
  -45.7908   -1.5327   16.9312 C   0  0  0  0  0  0  0  0  0  0  0  0
  -45.2008   -2.0737   14.6892 C   0  0  0  0  0  0  0  0  0  0  0  0
  -44.4658   -1.3267   17.2312 C   0  0  0  0  0  0  0  0  0  0  0  0
  -43.8758   -1.8687   14.9892 C   0  0  0  0  0  0  0  0  0  0  0  0
  -43.5048   -1.4947   16.2612 C   0  0  0  0  0  0  0  0  0  0  0  0
  -53.3268   -2.7157   13.6462 H   0  0  0  0  0  0  0  0  0  0  0  0
  -53.8318   -4.0787   14.1282 H   0  0  0  0  0  0  0  0  0  0  0  0
  -51.7998   -6.9347   15.7942 H   0  0  0  0  0  0  0  0  0  0  0  0
  -47.8898   -0.4027   14.2882 H   0  0  0  0  0  0  0  0  0  0  0  0
  -49.4618   -5.2927   16.7042 H   0  0  0  0  0  0  0  0  0  0  0  0
  -46.4818   -1.4077   17.6432 H   0  0  0  0  0  0  0  0  0  0  0  0
  -45.4598   -2.3447   13.7622 H   0  0  0  0  0  0  0  0  0  0  0  0
  -44.1998   -1.0557   18.1562 H   0  0  0  0  0  0  0  0  0  0  0  0
  -43.1798   -1.9907   14.2822 H   0  0  0  0  0  0  0  0  0  0  0  0
  -42.5398   -1.3457   16.4782 H   0  0  0  0  0  0  0  0  0  0  0  0
  1  7  1  0
  1  8  1  0
  2  9  1  0
  3 14  1  0
  4 15  1  0
  5 10  2  0
  6  7  2  0
  6  9  1  0
  6 10  1  0
  7 13  1  0
  8 11  2  0
  8 12  1  0
  9 14  2  0
 10 11  1  0
 12 16  2  0
 12 17  1  0
 13 15  2  0
 14 15  1  0
 16 18  1  0
 17 19  2  0
 18 20  2  0
 19 20  1  0
  2 21  1  0
  3 22  1  0
  4 23  1  0
 11 24  1  0
 13 25  1  0
 16 26  1  0
 17 27  1  0
 18 28  1  0
 19 29  1  0
 20 30  1  0
M  END
>  <BioMolTech Lead Finder dG>
-7.08

>  <BioMolTech Lead Finder VSscore>
-8.567

>  <BioMolTech Lead Finder Rank score>
-11.077

>  <BioMolTech Lead Finder LE>
-0.354

>  <BioMolTech Lead Finder Structure Name>
/var/folders/xd/y7jw_xv579q2qqq7kks92xd80000gn/T/LeadFinder_15589_1/Ligand_1.sdf

>  <BioMolTech Lead Finder SDF id>
0

>  <BioMolTech Lead Finder Pose rank>
0

>  <BioMolTech Lead Finder version>
2001 1, 19 January 2019

>  <PUBCHEM_COMPOUND_CID>
5281605

>  <PUBCHEM_COMPOUND_CANONICALIZED>
1

>  <PUBCHEM_CACTVS_COMPLEXITY>
413

>  <PUBCHEM_CACTVS_HBOND_ACCEPTOR>
5

>  <PUBCHEM_CACTVS_HBOND_DONOR>
3

>  <PUBCHEM_CACTVS_ROTATABLE_BOND>
1

>  <PUBCHEM_CACTVS_SUBSKEYS>
AAADccBwOAAAAAAAAAAAAAAAAAAAAAAAAAAwYIAAAAAAAACBQAAAGgAACAAADASAmAAwBoAABgCIAqBSAAACCAAkIAAIiAEGiMgNJzaGNRqCeWGl4BUJuQfK7LzOIQABCAAIQABCAAIQABCAAAAAAAAAAA==

>  <PUBCHEM_IUPAC_OPENEYE_NAME>
5,6,7-trihydroxy-2-phenyl-chromen-4-one

>  <PUBCHEM_IUPAC_CAS_NAME>
5,6,7-trihydroxy-2-phenyl-1-benzopyran-4-one

>  <PUBCHEM_IUPAC_NAME_MARKUP>
5,6,7-trihydroxy-2-phenylchromen-4-one

>  <PUBCHEM_IUPAC_NAME>
5,6,7-trihydroxy-2-phenylchromen-4-one

>  <PUBCHEM_IUPAC_SYSTEMATIC_NAME>
5,6,7-tris(oxidanyl)-2-phenyl-chromen-4-one

>  <PUBCHEM_IUPAC_TRADITIONAL_NAME>
5,6,7-trihydroxy-2-phenyl-chromone

>  <PUBCHEM_IUPAC_INCHI>
InChI=1S/C15H10O5/c16-9-6-11(8-4-2-1-3-5-8)20-12-7-10(17)14(18)15(19)13(9)12/h1-7,17-19H

>  <PUBCHEM_IUPAC_INCHIKEY>
FXNFHKRTJBSTCS-UHFFFAOYSA-N

>  <PUBCHEM_XLOGP3>
1.7

>  <PUBCHEM_EXACT_MASS>
270.052823

>  <PUBCHEM_MOLECULAR_FORMULA>
C15H10O5

>  <PUBCHEM_MOLECULAR_WEIGHT>
270.24

>  <PUBCHEM_OPENEYE_CAN_SMILES>
C1=CC=C(C=C1)C2=CC(=O)C3=C(O2)C=C(C(=C3O)O)O

>  <PUBCHEM_OPENEYE_ISO_SMILES>
C1=CC=C(C=C1)C2=CC(=O)C3=C(O2)C=C(C(=C3O)O)O

>  <PUBCHEM_CACTVS_TPSA>
87

>  <PUBCHEM_MONOISOTOPIC_WEIGHT>
270.052823

>  <PUBCHEM_TOTAL_CHARGE>
0

>  <PUBCHEM_HEAVY_ATOM_COUNT>
20

>  <PUBCHEM_ATOM_DEF_STEREO_COUNT>
0

>  <PUBCHEM_ATOM_UDEF_STEREO_COUNT>
0

>  <PUBCHEM_BOND_DEF_STEREO_COUNT>
0

>  <PUBCHEM_BOND_UDEF_STEREO_COUNT>
0

>  <PUBCHEM_ISOTOPIC_ATOM_COUNT>
0

>  <PUBCHEM_COMPONENT_COUNT>
1

>  <PUBCHEM_CACTVS_TAUTO_COUNT>
-1

>  <PUBCHEM_COORDINATE_TYPE>
1
5
255

>  <PUBCHEM_BONDANNOTATIONS>
1  7  8
1  8  8
10  11  8
12  16  8
12  17  8
13  15  8
14  15  8
16  18  8
17  19  8
18  20  8
19  20  8
6  10  8
6  7  8
6  9  8
7  13  8
8  11  8
9  14  8

>  <LF dG>
-7.08

>  <LF VSscore>
-8.567

>  <LF Rank Score>
-11.077

>  <LF LE>
-0.354

>  <Preferred Pose_cresset>
true

>  <Favorite_cresset>
false

>  <Protein_cresset>
6M2N_Dimer_P

>  <MW_cresset>
270.2

>  <#Atoms_cresset>
20

>  <SlogP_cresset>
2.3

>  <TPSA_cresset>
87

>  <Flexibility_cresset>
1.7

>  <#RB_cresset>
4

>  <Rof5_cresset>
0

>  <Filename_cresset>
Baicalein.sdf

>  <Confs_cresset>
0

>  <Poses_cresset>
10

>  <_cresset_fieldpoints>
    -5     -52.118446      -0.300649      13.333810    -13.3714
    -5     -53.652367      -5.578207      17.529121     -5.4041
    -5     -44.711060      -4.545959      16.739929     -3.0670
    -5     -50.084118       1.088450      12.967114    -11.1542
    -6     -51.288246      -8.097925      14.589304      5.8158
    -6     -45.580757      -0.758708      20.020893      2.6258
    -6     -47.089375      -3.564306      12.800677      2.4185
    -6     -54.556900      -3.543968      12.676789     10.1028
    -6     -43.687706      -2.726004      12.034314      2.9714
    -6     -48.468094      -1.591052      18.406425      1.7026
    -6     -41.756618      -0.722582      18.707296      2.8971
    -6     -40.772003      -1.676609      14.753060      2.9826
    -7     -49.115379      -0.864474      17.629311     -2.5961
    -7     -54.937103      -2.331846      15.255694     -1.4669
    -7     -51.466019      -1.649828      11.689481     -1.6841
    -7     -52.459049       0.145219      14.848824     -1.6350
    -7     -53.056267      -4.246897      11.896701     -1.4018
    -7     -54.171501      -6.859653      15.559208     -1.4213
    -7     -49.741955      -5.213326      12.667092     -1.8222
    -7     -50.276100      -7.880226      17.365807     -1.2560
    -7     -51.474144      -2.040308      18.030018     -1.8089
    -7     -45.999443      -1.271682      20.284485     -0.9941
    -7     -46.600014      -4.973511      16.679235     -2.4481
    -7     -41.630035      -0.603329      18.953438     -0.9670
    -7     -43.862335      -2.284727      11.601480     -0.9900
    -7     -47.687366      -3.605020      12.797205     -2.6003
    -7     -45.880787       1.296275      14.934571     -2.0411
    -7     -40.498459      -1.659651      14.685625     -0.9673
    -8     -50.802544      -3.841774      15.408558      6.5995
    -8     -44.839325      -1.697662      15.958775      7.1499
    -8     -49.144463      -2.183574      14.944708      5.0047

$$$$
W_Baicalin_D
  xed2sdf_05210316543D
 
 49 52  0  0  1  0  0  0  0  0999 V2000
  -48.3092   -2.0774   16.4248 O   0  0  0  0  0  0  0  0  0  0  0  0
  -50.5602   -2.7134   15.8358 O   0  0  0  0  0  0  0  0  0  0  0  0
  -48.0292    0.2556   12.9258 O   0  0  0  0  0  0  0  0  0  0  0  0
  -50.2622   -1.5024   13.3218 O   0  0  0  0  0  0  0  0  0  0  0  0
  -45.6702   -0.3224   14.4818 O   0  0  0  0  0  0  0  0  0  0  0  0
  -45.6372   -0.2624   17.1988 O   0  5  0  0  0  0  0  0  0  0  0  0
  -45.8342   -2.4194   17.9218 O   0  0  0  0  0  0  0  0  0  0  0  0
  -48.7582   -6.6874   17.5198 O   0  0  0  0  0  0  0  0  0  0  0  0
  -53.1662   -3.8114   15.8638 O   0  0  0  0  0  0  0  0  0  0  0  0
  -53.4942   -6.3534   16.7608 O   0  0  0  0  0  0  0  0  0  0  0  0
  -52.3842   -8.4774   17.7238 O   0  0  0  0  0  0  0  0  0  0  0  0
  -47.9582   -0.8634   13.8208 C   0  0  0  0  0  0  0  0  0  0  0  0
  -49.3512   -1.1894   14.3868 C   0  0  0  0  0  0  0  0  0  0  0  0
  -46.9922   -0.5674   14.9818 C   0  0  0  0  0  0  0  0  0  0  0  0
  -49.2352   -2.3834   15.3578 C   0  0  0  0  0  0  0  0  0  0  0  0
  -46.9832   -1.7724   15.9428 C   0  0  0  0  0  0  0  0  0  0  0  0
  -46.0802   -1.4614   17.1098 C   0  0  0  0  0  0  0  0  0  0  0  0
  -50.7932   -3.9614   16.2508 C   0  0  0  0  0  0  0  0  0  0  0  0
  -49.7172   -4.7214   16.6548 C   0  0  0  0  0  0  0  0  0  0  0  0
  -52.0732   -4.5214   16.2818 C   0  0  0  0  0  0  0  0  0  0  0  0
  -49.8712   -6.0134   17.1208 C   0  0  0  0  0  0  0  0  0  0  0  0
  -51.1522   -6.5624   17.1638 C   0  0  0  0  0  0  0  0  0  0  0  0
  -52.2482   -5.8084   16.7318 C   0  0  0  0  0  0  0  0  0  0  0  0
  -51.2912   -7.9124   17.6688 C   0  0  0  0  0  0  0  0  0  0  0  0
  -48.9142   -7.9484   18.0408 C   0  0  0  0  0  0  0  0  0  0  0  0
  -50.1232   -8.5794   18.1178 C   0  0  0  0  0  0  0  0  0  0  0  0
  -47.6772   -8.6104   18.5298 C   0  0  0  0  0  0  0  0  0  0  0  0
  -46.4202   -8.0254   18.4498 C   0  0  0  0  0  0  0  0  0  0  0  0
  -47.7772   -9.8764   19.0858 C   0  0  0  0  0  0  0  0  0  0  0  0
  -45.3082   -8.6874   18.9118 C   0  0  0  0  0  0  0  0  0  0  0  0
  -46.6652  -10.5374   19.5478 C   0  0  0  0  0  0  0  0  0  0  0  0
  -45.4272   -9.9434   19.4618 C   0  0  0  0  0  0  0  0  0  0  0  0
  -47.6192   -1.6504   13.3048 H   0  0  0  0  0  0  0  0  0  0  0  0
  -49.7052   -0.3934   14.8768 H   0  0  0  0  0  0  0  0  0  0  0  0
  -47.2982    0.2496   15.4708 H   0  0  0  0  0  0  0  0  0  0  0  0
  -48.8632   -3.1854   14.8908 H   0  0  0  0  0  0  0  0  0  0  0  0
  -46.6482   -2.5724   15.4448 H   0  0  0  0  0  0  0  0  0  0  0  0
  -48.2612   -0.0354   11.9908 H   0  0  0  0  0  0  0  0  0  0  0  0
  -49.8082   -1.4564   12.4258 H   0  0  0  0  0  0  0  0  0  0  0  0
  -45.5522   -0.7024   13.5578 H   0  0  0  0  0  0  0  0  0  0  0  0
  -53.6392   -3.3704   16.6328 H   0  0  0  0  0  0  0  0  0  0  0  0
  -53.5662   -7.1394   16.1368 H   0  0  0  0  0  0  0  0  0  0  0  0
  -48.7982   -4.3284   16.6088 H   0  0  0  0  0  0  0  0  0  0  0  0
  -50.1842   -9.5064   18.4888 H   0  0  0  0  0  0  0  0  0  0  0  0
  -46.3232   -7.1134   18.0518 H   0  0  0  0  0  0  0  0  0  0  0  0
  -48.6732  -10.3154   19.1518 H   0  0  0  0  0  0  0  0  0  0  0  0
  -44.4082   -8.2544   18.8478 H   0  0  0  0  0  0  0  0  0  0  0  0
  -46.7562  -11.4504   19.9458 H   0  0  0  0  0  0  0  0  0  0  0  0
  -44.6162  -10.4234   19.7968 H   0  0  0  0  0  0  0  0  0  0  0  0
  1 15  1  0
  1 16  1  0
  2 18  1  0
  6 17  1  0
  7 17  2  0
  8 21  1  0
  8 25  1  0
  9 20  1  0
 10 23  1  0
 11 24  2  0
 12  3  1  0
 12 13  1  0
 12 14  1  0
 13  4  1  0
 13 15  1  0
 14  5  1  0
 14 16  1  0
 15  2  1  0
 16 17  1  0
 18 19  2  0
 18 20  1  0
 19 21  1  0
 20 23  2  0
 21 22  2  0
 22 23  1  0
 22 24  1  0
 24 26  1  0
 25 26  2  0
 25 27  1  0
 27 28  2  0
 27 29  1  0
 28 30  1  0
 29 31  2  0
 30 32  2  0
 31 32  1  0
  3 38  1  0
  4 39  1  0
  5 40  1  0
  9 41  1  0
 10 42  1  0
 12 33  1  0
 13 34  1  0
 14 35  1  0
 15 36  1  0
 16 37  1  0
 19 43  1  0
 26 44  1  0
 28 45  1  0
 29 46  1  0
 30 47  1  0
 31 48  1  0
 32 49  1  0
M  CHG  1   6  -1
M  END
>  <BioMolTech Lead Finder dG>
-8.399

>  <BioMolTech Lead Finder VSscore>
-12.452

>  <BioMolTech Lead Finder Rank score>
-12.268

>  <BioMolTech Lead Finder LE>
-0.262

>  <BioMolTech Lead Finder Structure Name>
/var/folders/xd/y7jw_xv579q2qqq7kks92xd80000gn/T/LeadFinder_20271_1/Ligand_1.sdf

>  <BioMolTech Lead Finder SDF id>
0

>  <BioMolTech Lead Finder Pose rank>
0

>  <BioMolTech Lead Finder version>
2001 1, 19 January 2019

>  <PUBCHEM_COMPOUND_CID>
64982

>  <PUBCHEM_COMPOUND_CANONICALIZED>
1

>  <PUBCHEM_CACTVS_COMPLEXITY>
748

>  <PUBCHEM_CACTVS_HBOND_ACCEPTOR>
11

>  <PUBCHEM_CACTVS_HBOND_DONOR>
6

>  <PUBCHEM_CACTVS_ROTATABLE_BOND>
4

>  <PUBCHEM_CACTVS_SUBSKEYS>
AAADceB4PAAAAAAAAAAAAAAAAAAAAAAAAAA0YIEAAAAAAACBQAAAGgAACAAADBSwmAMwDoAABgCIAqDSCAICCAAkIAAIiAFGiMgdNzaGNR6ieWOl4BUPuQfK7LzOIQABCAAIQABCAAIQABCAAAAAAAAAAA==

>  <PUBCHEM_IUPAC_OPENEYE_NAME>
(2S,3S,4S,5R,6S)-6-(5,6-dihydroxy-4-oxo-2-phenyl-chromen-7-yl)oxy-3,4,5-trihydroxy-tetrahydropyran-2-carboxylic acid

>  <PUBCHEM_IUPAC_CAS_NAME>
(2S,3S,4S,5R,6S)-6-[(5,6-dihydroxy-4-oxo-2-phenyl-1-benzopyran-7-yl)oxy]-3,4,5-trihydroxy-2-oxanecarboxylic acid

>  <PUBCHEM_IUPAC_NAME_MARKUP>
(2<I>S</I>,3<I>S</I>,4<I>S</I>,5<I>R</I>,6<I>S</I>)-6-(5,6-dihydroxy-4-oxo-2-phenylchromen-7-yl)oxy-3,4,5-trihydroxyoxane-2-carboxylic acid

>  <PUBCHEM_IUPAC_NAME>
(2S,3S,4S,5R,6S)-6-(5,6-dihydroxy-4-oxo-2-phenylchromen-7-yl)oxy-3,4,5-trihydroxyoxane-2-carboxylic acid

>  <PUBCHEM_IUPAC_SYSTEMATIC_NAME>
(2S,3S,4S,5R,6S)-6-[5,6-bis(oxidanyl)-4-oxidanylidene-2-phenyl-chromen-7-yl]oxy-3,4,5-tris(oxidanyl)oxane-2-carboxylic acid

>  <PUBCHEM_IUPAC_TRADITIONAL_NAME>
(2S,3S,4S,5R,6S)-6-(5,6-dihydroxy-4-keto-2-phenyl-chromen-7-yl)oxy-3,4,5-trihydroxy-tetrahydropyran-2-carboxylic acid

>  <PUBCHEM_IUPAC_INCHI>
InChI=1S/C21H18O11/c22-9-6-10(8-4-2-1-3-5-8)30-11-7-12(14(23)15(24)13(9)11)31-21-18(27)16(25)17(26)19(32-21)20(28)29/h1-7,16-19,21,23-27H,(H,28,29)/t16-,17-,18+,19-,21+/m0/s1

>  <PUBCHEM_IUPAC_INCHIKEY>
IKIIZLYTISPENI-ZFORQUDYSA-N

>  <PUBCHEM_XLOGP3_AA>
1.1

>  <PUBCHEM_EXACT_MASS>
446.084911

>  <PUBCHEM_MOLECULAR_FORMULA>
C21H18O11

>  <PUBCHEM_MOLECULAR_WEIGHT>
446.4

>  <PUBCHEM_OPENEYE_CAN_SMILES>
C1=CC=C(C=C1)C2=CC(=O)C3=C(C(=C(C=C3O2)OC4C(C(C(C(O4)C(=O)O)O)O)O)O)O

>  <PUBCHEM_OPENEYE_ISO_SMILES>
C1=CC=C(C=C1)C2=CC(=O)C3=C(C(=C(C=C3O2)O[C@H]4[C@@H]([C@H]([C@@H]([C@H](O4)C(=O)O)O)O)O)O)O

>  <PUBCHEM_CACTVS_TPSA>
183

>  <PUBCHEM_MONOISOTOPIC_WEIGHT>
446.084911

>  <PUBCHEM_TOTAL_CHARGE>
0

>  <PUBCHEM_HEAVY_ATOM_COUNT>
32

>  <PUBCHEM_ATOM_DEF_STEREO_COUNT>
5

>  <PUBCHEM_ATOM_UDEF_STEREO_COUNT>
0

>  <PUBCHEM_BOND_DEF_STEREO_COUNT>
0

>  <PUBCHEM_BOND_UDEF_STEREO_COUNT>
0

>  <PUBCHEM_ISOTOPIC_ATOM_COUNT>
0

>  <PUBCHEM_COMPONENT_COUNT>
1

>  <PUBCHEM_CACTVS_TAUTO_COUNT>
-1

>  <PUBCHEM_COORDINATE_TYPE>
1
5
255

>  <PUBCHEM_BONDANNOTATIONS>
16  17  5
18  19  8
18  20  8
19  21  8
15  2  5
20  23  8
21  22  8
22  23  8
22  24  8
24  26  8
25  26  8
27  28  8
27  29  8
28  30  8
29  31  8
12  3  5
30  32  8
31  32  8
13  4  6
14  5  6
8  21  8
8  25  8

>  <LF dG>
-8.399

>  <LF VSscore>
-12.452

>  <LF Rank Score>
-12.268

>  <LF LE>
-0.262

>  <Preferred Pose_cresset>
true

>  <Favorite_cresset>
false

>  <Protein_cresset>
6M2N_Dimer_P

>  <MW_cresset>
445.4

>  <#Atoms_cresset>
32

>  <SlogP_cresset>
1.1

>  <TPSA_cresset>
186

>  <Flexibility_cresset>
7.6

>  <#RB_cresset>
9

>  <Rof5_cresset>
1

>  <Filename_cresset>
Baicalin.sdf

>  <Confs_cresset>
0

>  <Poses_cresset>
10

>  <_cresset_fieldpoints>
    -5     -44.605560      -0.199529      18.686794    -11.3338
    -5     -49.081673      -1.678830      18.255600     -7.8658
    -5     -52.026321      -2.109807      13.972155    -12.2410
    -5     -44.789360       0.928956      15.615654    -12.2304
    -5     -47.381992       1.972814      13.506453     -8.2616
    -5     -44.758965      -1.572565      19.188187    -10.6025
    -5     -46.086529     -10.509752      16.348145     -3.2090
    -5     -53.273254      -9.906208      18.593494    -10.2285
    -5     -46.952339      -7.796221      21.577721     -4.4926
    -5     -54.048065      -7.577893      18.344620    -12.4005
    -6     -48.530937      -1.572860      11.170097     14.4531
    -6     -45.823692      -1.891877      12.166140     10.4571
    -6     -47.013275      -3.689866      13.393587      9.4863
    -6     -49.118904     -12.457460      19.849796      2.4962
    -6     -44.814957     -12.763924      20.684273      2.3358
    -6     -42.351929      -9.711754      19.569836      2.1148
    -7     -49.216873      -0.154249      17.643469     -2.4239
    -7     -48.408466      -2.635435      18.754585     -2.5715
    -7     -52.534248      -2.078972      13.993801     -2.2880
    -7     -45.907337       1.352737      12.536678     -1.5727
    -7     -48.376984      -2.171251      10.858065     -1.3229
    -7     -48.903313       2.189317      14.291142     -1.5875
    -7     -50.389374       0.834696      12.165506     -1.6234
    -7     -50.700134      -3.889601      12.924736     -2.4521
    -7     -45.329292      -2.976827      13.250324     -1.7555
    -7     -43.973930      -2.030372      14.740971     -1.6693
    -7     -46.526947      -4.728081      17.404625     -3.1002
    -7     -55.397003      -4.971700      15.963612     -1.4757
    -7     -54.096848      -7.203032      19.059370     -1.6785
    -7     -49.823273      -6.544487      20.439041     -2.4364
    -7     -52.362198      -8.852459      15.048160     -1.7747
    -7     -48.993355      -8.617959      15.211071     -2.3890
    -7     -46.329365     -10.497576      15.993343     -1.7862
    -7     -42.079475      -9.411719      19.687958     -0.9675
    -7     -51.255920      -4.301253      19.768015     -1.8831
    -7     -44.661736     -12.928522      20.894794     -0.9671
    -7     -47.188026      -7.851626      21.844906     -1.7857
    -8     -48.031433      -1.392802      14.764223      5.1842
    -8     -50.948460      -5.285734      16.713680      6.6072
    -8     -48.732056      -9.032816      18.549225      5.5704
    -8     -50.334923      -7.409517      17.629395      5.0277
    -8     -46.550674      -9.281832      18.998409      7.1517

$$$$
Untitled
  xed2sdf_05210316543D
 
 49 52  0  0  1  0  0  0  0  0999 V2000
  -51.2558   -7.3562   20.3797 O   0  0  0  0  0  0  0  0  0  0  0  0
  -49.4578   -8.2292   19.0267 O   0  0  0  0  0  0  0  0  0  0  0  0
  -50.6988  -10.4702   23.1657 O   0  0  0  0  0  0  0  0  0  0  0  0
  -49.3318  -10.5192   20.6437 O   0  0  0  0  0  0  0  0  0  0  0  0
  -53.0448   -8.7972   23.3027 O   0  0  0  0  0  0  0  0  0  0  0  0
  -54.2228   -6.4942   22.1637 O   0  5  0  0  0  0  0  0  0  0  0  0
  -52.3608   -5.3142   21.5667 O   0  0  0  0  0  0  0  0  0  0  0  0
  -47.5908   -4.3962   17.1047 O   0  0  0  0  0  0  0  0  0  0  0  0
  -51.7908   -7.9572   17.4527 O   0  0  0  0  0  0  0  0  0  0  0  0
  -51.9408   -5.8872   15.7017 O   0  0  0  0  0  0  0  0  0  0  0  0
  -50.7858   -3.8102   14.6877 O   0  0  0  0  0  0  0  0  0  0  0  0
  -51.1788   -9.7312   22.0337 C   0  0  0  0  0  0  0  0  0  0  0  0
  -50.0108   -9.3442   21.1087 C   0  0  0  0  0  0  0  0  0  0  0  0
  -51.9118   -8.4572   22.4897 C   0  0  0  0  0  0  0  0  0  0  0  0
  -50.5588   -8.5362   19.9147 C   0  0  0  0  0  0  0  0  0  0  0  0
  -52.3668   -7.6702   21.2457 C   0  0  0  0  0  0  0  0  0  0  0  0
  -53.0358   -6.3942   21.6907 C   0  0  0  0  0  0  0  0  0  0  0  0
  -49.6048   -7.2272   18.1557 C   0  0  0  0  0  0  0  0  0  0  0  0
  -48.5878   -6.3042   18.0517 C   0  0  0  0  0  0  0  0  0  0  0  0
  -50.7458   -7.0782   17.3607 C   0  0  0  0  0  0  0  0  0  0  0  0
  -48.6478   -5.2512   17.1587 C   0  0  0  0  0  0  0  0  0  0  0  0
  -49.7808   -5.1152   16.3577 C   0  0  0  0  0  0  0  0  0  0  0  0
  -50.8308   -6.0322   16.4737 C   0  0  0  0  0  0  0  0  0  0  0  0
  -49.8158   -4.0122   15.4197 C   0  0  0  0  0  0  0  0  0  0  0  0
  -47.6198   -3.3842   16.1757 C   0  0  0  0  0  0  0  0  0  0  0  0
  -48.6848   -3.1592   15.3507 C   0  0  0  0  0  0  0  0  0  0  0  0
  -46.4088   -2.5262   16.1077 C   0  0  0  0  0  0  0  0  0  0  0  0
  -45.3248   -2.6712   16.9637 C   0  0  0  0  0  0  0  0  0  0  0  0
  -46.3588   -1.5242   15.1497 C   0  0  0  0  0  0  0  0  0  0  0  0
  -44.2328   -1.8442   16.8597 C   0  0  0  0  0  0  0  0  0  0  0  0
  -45.2668   -0.6972   15.0467 C   0  0  0  0  0  0  0  0  0  0  0  0
  -44.2008   -0.8552   15.9017 C   0  0  0  0  0  0  0  0  0  0  0  0
  -51.8178  -10.3152   21.5317 H   0  0  0  0  0  0  0  0  0  0  0  0
  -49.3558   -8.7852   21.6177 H   0  0  0  0  0  0  0  0  0  0  0  0
  -51.2928   -7.8932   23.0367 H   0  0  0  0  0  0  0  0  0  0  0  0
  -51.2328   -9.0702   19.4037 H   0  0  0  0  0  0  0  0  0  0  0  0
  -53.0068   -8.2382   20.7277 H   0  0  0  0  0  0  0  0  0  0  0  0
  -51.4218  -10.6012   23.8527 H   0  0  0  0  0  0  0  0  0  0  0  0
  -49.9818  -11.2082   20.3027 H   0  0  0  0  0  0  0  0  0  0  0  0
  -52.7628   -9.0632   24.2307 H   0  0  0  0  0  0  0  0  0  0  0  0
  -52.0148   -8.3622   16.5607 H   0  0  0  0  0  0  0  0  0  0  0  0
  -52.1778   -6.7442   15.2317 H   0  0  0  0  0  0  0  0  0  0  0  0
  -47.7838   -6.3982   18.6387 H   0  0  0  0  0  0  0  0  0  0  0  0
  -48.6678   -2.3982   14.7037 H   0  0  0  0  0  0  0  0  0  0  0  0
  -45.3388   -3.3872   17.6627 H   0  0  0  0  0  0  0  0  0  0  0  0
  -47.1298   -1.4022   14.5247 H   0  0  0  0  0  0  0  0  0  0  0  0
  -43.4588   -1.9602   17.4817 H   0  0  0  0  0  0  0  0  0  0  0  0
  -45.2468    0.0198   14.3497 H   0  0  0  0  0  0  0  0  0  0  0  0
  -43.4048   -0.2542   15.8287 H   0  0  0  0  0  0  0  0  0  0  0  0
  1 15  1  0
  1 16  1  0
  2 18  1  0
  6 17  1  0
  7 17  2  0
  8 21  1  0
  8 25  1  0
  9 20  1  0
 10 23  1  0
 11 24  2  0
 12  3  1  0
 12 13  1  0
 12 14  1  0
 13  4  1  0
 13 15  1  0
 14  5  1  0
 14 16  1  0
 15  2  1  0
 16 17  1  0
 18 19  2  0
 18 20  1  0
 19 21  1  0
 20 23  2  0
 21 22  2  0
 22 23  1  0
 22 24  1  0
 24 26  1  0
 25 26  2  0
 25 27  1  0
 27 28  2  0
 27 29  1  0
 28 30  1  0
 29 31  2  0
 30 32  2  0
 31 32  1  0
  3 38  1  0
  4 39  1  0
  5 40  1  0
  9 41  1  0
 10 42  1  0
 12 33  1  0
 13 34  1  0
 14 35  1  0
 15 36  1  0
 16 37  1  0
 19 43  1  0
 26 44  1  0
 28 45  1  0
 29 46  1  0
 30 47  1  0
 31 48  1  0
 32 49  1  0
M  CHG  1   6  -1
M  END
>  <BioMolTech Lead Finder dG>
-7.009

>  <BioMolTech Lead Finder VSscore>
-11.085

>  <BioMolTech Lead Finder Rank score>
-11.453

>  <BioMolTech Lead Finder LE>
-0.219

>  <BioMolTech Lead Finder Structure Name>
/var/folders/xd/y7jw_xv579q2qqq7kks92xd80000gn/T/LeadFinder_15588_1/Ligand_1.sdf

>  <BioMolTech Lead Finder SDF id>
0

>  <BioMolTech Lead Finder Pose rank>
0

>  <BioMolTech Lead Finder version>
2001 1, 19 January 2019

>  <PUBCHEM_COMPOUND_CID>
64982

>  <PUBCHEM_COMPOUND_CANONICALIZED>
1

>  <PUBCHEM_CACTVS_COMPLEXITY>
748

>  <PUBCHEM_CACTVS_HBOND_ACCEPTOR>
11

>  <PUBCHEM_CACTVS_HBOND_DONOR>
6

>  <PUBCHEM_CACTVS_ROTATABLE_BOND>
4

>  <PUBCHEM_CACTVS_SUBSKEYS>
AAADceB4PAAAAAAAAAAAAAAAAAAAAAAAAAA0YIEAAAAAAACBQAAAGgAACAAADBSwmAMwDoAABgCIAqDSCAICCAAkIAAIiAFGiMgdNzaGNR6ieWOl4BUPuQfK7LzOIQABCAAIQABCAAIQABCAAAAAAAAAAA==

>  <PUBCHEM_IUPAC_OPENEYE_NAME>
(2S,3S,4S,5R,6S)-6-(5,6-dihydroxy-4-oxo-2-phenyl-chromen-7-yl)oxy-3,4,5-trihydroxy-tetrahydropyran-2-carboxylic acid

>  <PUBCHEM_IUPAC_CAS_NAME>
(2S,3S,4S,5R,6S)-6-[(5,6-dihydroxy-4-oxo-2-phenyl-1-benzopyran-7-yl)oxy]-3,4,5-trihydroxy-2-oxanecarboxylic acid

>  <PUBCHEM_IUPAC_NAME_MARKUP>
(2<I>S</I>,3<I>S</I>,4<I>S</I>,5<I>R</I>,6<I>S</I>)-6-(5,6-dihydroxy-4-oxo-2-phenylchromen-7-yl)oxy-3,4,5-trihydroxyoxane-2-carboxylic acid

>  <PUBCHEM_IUPAC_NAME>
(2S,3S,4S,5R,6S)-6-(5,6-dihydroxy-4-oxo-2-phenylchromen-7-yl)oxy-3,4,5-trihydroxyoxane-2-carboxylic acid

>  <PUBCHEM_IUPAC_SYSTEMATIC_NAME>
(2S,3S,4S,5R,6S)-6-[5,6-bis(oxidanyl)-4-oxidanylidene-2-phenyl-chromen-7-yl]oxy-3,4,5-tris(oxidanyl)oxane-2-carboxylic acid

>  <PUBCHEM_IUPAC_TRADITIONAL_NAME>
(2S,3S,4S,5R,6S)-6-(5,6-dihydroxy-4-keto-2-phenyl-chromen-7-yl)oxy-3,4,5-trihydroxy-tetrahydropyran-2-carboxylic acid

>  <PUBCHEM_IUPAC_INCHI>
InChI=1S/C21H18O11/c22-9-6-10(8-4-2-1-3-5-8)30-11-7-12(14(23)15(24)13(9)11)31-21-18(27)16(25)17(26)19(32-21)20(28)29/h1-7,16-19,21,23-27H,(H,28,29)/t16-,17-,18+,19-,21+/m0/s1

>  <PUBCHEM_IUPAC_INCHIKEY>
IKIIZLYTISPENI-ZFORQUDYSA-N

>  <PUBCHEM_XLOGP3_AA>
1.1

>  <PUBCHEM_EXACT_MASS>
446.084911

>  <PUBCHEM_MOLECULAR_FORMULA>
C21H18O11

>  <PUBCHEM_MOLECULAR_WEIGHT>
446.4

>  <PUBCHEM_OPENEYE_CAN_SMILES>
C1=CC=C(C=C1)C2=CC(=O)C3=C(C(=C(C=C3O2)OC4C(C(C(C(O4)C(=O)O)O)O)O)O)O

>  <PUBCHEM_OPENEYE_ISO_SMILES>
C1=CC=C(C=C1)C2=CC(=O)C3=C(C(=C(C=C3O2)O[C@H]4[C@@H]([C@H]([C@@H]([C@H](O4)C(=O)O)O)O)O)O)O

>  <PUBCHEM_CACTVS_TPSA>
183

>  <PUBCHEM_MONOISOTOPIC_WEIGHT>
446.084911

>  <PUBCHEM_TOTAL_CHARGE>
0

>  <PUBCHEM_HEAVY_ATOM_COUNT>
32

>  <PUBCHEM_ATOM_DEF_STEREO_COUNT>
5

>  <PUBCHEM_ATOM_UDEF_STEREO_COUNT>
0

>  <PUBCHEM_BOND_DEF_STEREO_COUNT>
0

>  <PUBCHEM_BOND_UDEF_STEREO_COUNT>
0

>  <PUBCHEM_ISOTOPIC_ATOM_COUNT>
0

>  <PUBCHEM_COMPONENT_COUNT>
1

>  <PUBCHEM_CACTVS_TAUTO_COUNT>
-1

>  <PUBCHEM_COORDINATE_TYPE>
1
5
255

>  <PUBCHEM_BONDANNOTATIONS>
16  17  5
18  19  8
18  20  8
19  21  8
15  2  5
20  23  8
21  22  8
22  23  8
22  24  8
24  26  8
25  26  8
27  28  8
27  29  8
28  30  8
29  31  8
12  3  5
30  32  8
31  32  8
13  4  6
14  5  6
8  21  8
8  25  8

>  <LF dG>
-7.009

>  <LF VSscore>
-11.085

>  <LF Rank Score>
-11.453

>  <LF LE>
-0.219

>  <Preferred Pose_cresset>
true

>  <Favorite_cresset>
false

>  <Protein_cresset>
6M2N_Dimer_P

>  <MW_cresset>
445.4

>  <#Atoms_cresset>
32

>  <SlogP_cresset>
1.1

>  <TPSA_cresset>
186

>  <Flexibility_cresset>
7.6

>  <#RB_cresset>
9

>  <Rof5_cresset>
1

>  <Filename_cresset>
Baicalin.sdf

>  <Confs_cresset>
0

>  <Poses_cresset>
10

>  <_cresset_fieldpoints>
    -5     -50.780136      -5.419945      20.452744    -14.0697
    -5     -47.673771     -10.170628      19.885635    -11.0949
    -5     -48.714645     -11.237809      22.494823    -10.6070
    -5     -54.827721      -8.239155      22.771214    -10.8902
    -5     -54.667641      -4.750978      22.546459    -11.4407
    -5     -53.459099      -3.977082      22.132227    -11.8341
    -5     -44.098488      -3.671498      14.162275     -4.2469
    -5     -52.641209      -4.133286      14.971438    -15.0382
    -5     -46.768703      -0.020515      18.030182     -4.8814
    -6     -52.345383      -8.503363      14.872598      9.5029
    -6     -52.208778     -10.227779      25.366299     10.1868
    -6     -51.607201     -11.463303      19.522686      7.8682
    -6     -47.082733       0.264991      12.764414      1.7939
    -6     -41.417656      -0.409498      17.195965      1.8687
    -6     -42.865593      -3.408668      19.114178      1.3794
    -6     -43.233334       1.507093      14.107052      1.9473
    -7     -50.704041     -10.395668      17.241169     -2.0842
    -7     -47.014061      -8.254787      20.336672     -2.0013
    -7     -49.364449     -12.382547      22.295078     -1.5314
    -7     -54.588181     -10.137461      21.885206     -1.7091
    -7     -53.723038     -11.114426      23.472317     -1.6172
    -7     -53.346672     -10.432251      19.381983     -1.9388
    -7     -49.405899     -10.805304      18.026047     -2.1018
    -7     -52.020271     -11.465612      19.178860     -1.7950
    -7     -53.584152      -9.086004      18.377893     -2.2146
    -7     -49.210968      -8.977152      24.462421     -1.6494
    -7     -53.876083      -6.922851      24.572506     -1.6885
    -7     -55.245087      -8.727509      22.360451     -1.7647
    -7     -53.745865      -6.869987      18.492268     -2.2701
    -7     -50.978233      -4.763600      19.845695     -3.0587
    -7     -49.825363      -5.676482      21.240219     -3.2115
    -7     -48.259468      -7.816098      14.881880     -1.8664
    -7     -52.862679      -3.470484      16.121281     -1.6469
    -7     -51.158890      -5.868378      13.216547     -1.7868
    -7     -46.970245      -5.486963      14.248409     -2.4334
    -7     -49.236786      -2.142317      18.250031     -2.3857
    -7     -46.884697       0.237862      18.090164     -1.7871
    -7     -44.134666      -3.893147      13.922178     -1.7848
    -7     -43.402275      -4.213902      19.229702     -1.0128
    -7     -44.298019       2.508266      15.521086     -0.9549
    -7     -43.144695       1.712605      13.943272     -0.9671
    -7     -41.210312      -0.406023      17.449127     -0.9675
    -8     -49.674088      -6.142810      17.252258      6.5960
    -8     -51.282845      -8.877558      21.380886      5.1671
    -8     -48.961304      -4.198967      16.056232      5.0236
    -8     -45.301506      -1.685513      16.003798      7.1519
    -8     -47.339706      -2.442387      15.463596      5.5695

$$$$
W_Diammonium Glycyrrhizinate_D
  xed2sdf_05210316543D
 
117123  0  0  1  0  0  0  0  0999 V2000
  -52.0593   -7.1553   20.4710 O   0  0  0  0  0  0  0  0  0  0  0  0
  -47.7173  -12.1283   21.8610 O   0  0  0  0  0  0  0  0  0  0  0  0
  -53.8493   -6.0893   21.7120 O   0  0  0  0  0  0  0  0  0  0  0  0
  -41.5573  -15.5493   23.3700 O   0  5  0  0  0  0  0  0  0  0  0  0
  -43.4423  -14.4183   23.9820 O   0  0  0  0  0  0  0  0  0  0  0  0
  -53.1373   -4.8713   19.2150 O   0  0  0  0  0  0  0  0  0  0  0  0
  -52.5553   -2.2953   20.4870 O   0  0  0  0  0  0  0  0  0  0  0  0
  -54.3803   -2.5463   22.6800 O   0  0  0  0  0  0  0  0  0  0  0  0
  -51.9983   -3.2093   17.8700 O   0  0  0  0  0  0  0  0  0  0  0  0
  -55.9583   -4.8203   24.1720 O   0  5  0  0  0  0  0  0  0  0  0  0
  -56.4653   -5.6193   22.0940 O   0  0  0  0  0  0  0  0  0  0  0  0
  -53.8153   -6.3023   16.9040 O   0  0  0  0  0  0  0  0  0  0  0  0
  -53.5853   -4.9523   14.3810 O   0  0  0  0  0  0  0  0  0  0  0  0
  -51.5343   -2.9443   14.1950 O   0  0  0  0  0  0  0  0  0  0  0  0
  -49.8653   -1.2103   15.8790 O   0  5  0  0  0  0  0  0  0  0  0  0
  -51.5713   -0.6753   17.2990 O   0  0  0  0  0  0  0  0  0  0  0  0
  -45.8033   -9.7423   19.9490 C   0  0  0  0  0  0  0  0  0  0  0  0
  -48.4533   -9.6663   20.4300 C   0  0  0  0  0  0  0  0  0  0  0  0
  -47.0023  -10.0143   20.9120 C   0  0  0  0  0  0  0  0  0  0  0  0
  -44.4543   -9.9183   20.7560 C   0  0  0  0  0  0  0  0  0  0  0  0
  -48.4413   -8.2233   19.8250 C   0  0  0  0  0  0  0  0  0  0  0  0
  -45.9463   -8.3313   19.3120 C   0  0  0  0  0  0  0  0  0  0  0  0
  -49.8393   -7.5853   19.5170 C   0  0  0  0  0  0  0  0  0  0  0  0
  -47.3513   -8.0403   18.7340 C   0  0  0  0  0  0  0  0  0  0  0  0
  -44.3993  -11.3523   21.2720 C   0  0  0  0  0  0  0  0  0  0  0  0
  -43.0983  -12.1193   21.4400 C   0  0  0  0  0  0  0  0  0  0  0  0
  -41.9543  -11.7193   20.4720 C   0  0  0  0  0  0  0  0  0  0  0  0
  -43.2163   -9.5223   19.8930 C   0  0  0  0  0  0  0  0  0  0  0  0
  -49.3703   -9.6243   21.6830 C   0  0  0  0  0  0  0  0  0  0  0  0
  -41.8803  -10.1803   20.3090 C   0  0  0  0  0  0  0  0  0  0  0  0
  -50.7323   -7.6373   20.7900 C   0  0  0  0  0  0  0  0  0  0  0  0
  -46.8153  -11.4003   21.4960 C   0  0  0  0  0  0  0  0  0  0  0  0
  -45.8263  -10.7823   18.7910 C   0  0  0  0  0  0  0  0  0  0  0  0
  -50.7813   -9.0503   21.4220 C   0  0  0  0  0  0  0  0  0  0  0  0
  -48.9863  -10.7783   19.4840 C   0  0  0  0  0  0  0  0  0  0  0  0
  -44.3843   -9.0913   22.0690 C   0  0  0  0  0  0  0  0  0  0  0  0
  -45.5133  -12.0283   21.5790 C   0  0  0  0  0  0  0  0  0  0  0  0
  -42.6213  -12.0613   22.9070 C   0  0  0  0  0  0  0  0  0  0  0  0
  -40.5763  -12.2103   21.0000 C   0  0  0  0  0  0  0  0  0  0  0  0
  -41.5693  -13.1693   23.1730 C   0  0  0  0  0  0  0  0  0  0  0  0
  -49.6813   -6.0853   19.1710 C   0  0  0  0  0  0  0  0  0  0  0  0
  -50.5743   -8.2133   18.3080 C   0  0  0  0  0  0  0  0  0  0  0  0
  -40.6923  -13.4443   21.9240 C   0  0  0  0  0  0  0  0  0  0  0  0
  -42.2173  -12.3853   19.1060 C   0  0  0  0  0  0  0  0  0  0  0  0
  -40.6863  -12.7233   24.3550 C   0  0  0  0  0  0  0  0  0  0  0  0
  -42.2413  -14.4773   23.5370 C   0  0  0  0  0  0  0  0  0  0  0  0
  -52.4843   -6.0123   21.2470 C   0  0  0  0  0  0  0  0  0  0  0  0
  -52.2993   -4.7483   20.3820 C   0  0  0  0  0  0  0  0  0  0  0  0
  -52.6613   -3.5133   21.2380 C   0  0  0  0  0  0  0  0  0  0  0  0
  -54.2213   -4.9803   22.5550 C   0  0  0  0  0  0  0  0  0  0  0  0
  -54.0873   -3.6443   21.8030 C   0  0  0  0  0  0  0  0  0  0  0  0
  -52.4583   -4.5763   17.9760 C   0  0  0  0  0  0  0  0  0  0  0  0
  -55.6593   -5.1553   22.9720 C   0  0  0  0  0  0  0  0  0  0  0  0
  -53.4083   -4.9293   16.8140 C   0  0  0  0  0  0  0  0  0  0  0  0
  -52.6983   -4.6713   15.4740 C   0  0  0  0  0  0  0  0  0  0  0  0
  -51.3133   -2.9423   16.6290 C   0  0  0  0  0  0  0  0  0  0  0  0
  -52.2313   -3.2073   15.4210 C   0  0  0  0  0  0  0  0  0  0  0  0
  -50.8843   -1.4983   16.5980 C   0  0  0  0  0  0  0  0  0  0  0  0
  -46.9583   -9.3223   21.6330 H   0  0  0  0  0  0  0  0  0  0  0  0
  -48.1503   -7.6373   20.5810 H   0  0  0  0  0  0  0  0  0  0  0  0
  -43.3233  -13.0603   21.1870 H   0  0  0  0  0  0  0  0  0  0  0  0
  -50.3213   -7.0413   21.4800 H   0  0  0  0  0  0  0  0  0  0  0  0
  -51.9183   -5.9853   22.0710 H   0  0  0  0  0  0  0  0  0  0  0  0
  -51.3543   -4.6403   20.0730 H   0  0  0  0  0  0  0  0  0  0  0  0
  -52.0053   -3.4763   21.9930 H   0  0  0  0  0  0  0  0  0  0  0  0
  -53.6143   -4.9643   23.3490 H   0  0  0  0  0  0  0  0  0  0  0  0
  -54.7433   -3.6243   21.0480 H   0  0  0  0  0  0  0  0  0  0  0  0
  -51.6263   -5.1293   17.9420 H   0  0  0  0  0  0  0  0  0  0  0  0
  -54.2243   -4.3533   16.8700 H   0  0  0  0  0  0  0  0  0  0  0  0
  -51.9043   -5.2743   15.3960 H   0  0  0  0  0  0  0  0  0  0  0  0
  -50.5203   -3.5493   16.5720 H   0  0  0  0  0  0  0  0  0  0  0  0
  -53.0243   -2.5993   15.4590 H   0  0  0  0  0  0  0  0  0  0  0  0
  -53.2783   -2.2333   19.7910 H   0  0  0  0  0  0  0  0  0  0  0  0
  -54.1383   -2.7643   23.6320 H   0  0  0  0  0  0  0  0  0  0  0  0
  -53.2213   -6.8973   16.3530 H   0  0  0  0  0  0  0  0  0  0  0  0
  -53.8873   -4.1063   13.9290 H   0  0  0  0  0  0  0  0  0  0  0  0
  -52.1623   -2.6213   13.4790 H   0  0  0  0  0  0  0  0  0  0  0  0
  -45.2773   -8.2483   18.5730 H   0  0  0  0  0  0  0  0  0  0  0  0
  -45.7933   -7.6673   20.0440 H   0  0  0  0  0  0  0  0  0  0  0  0
  -47.3813   -7.1013   18.3930 H   0  0  0  0  0  0  0  0  0  0  0  0
  -47.5313   -8.6833   17.9890 H   0  0  0  0  0  0  0  0  0  0  0  0
  -43.1043   -8.5303   19.9490 H   0  0  0  0  0  0  0  0  0  0  0  0
  -43.4083   -9.8523   18.9690 H   0  0  0  0  0  0  0  0  0  0  0  0
  -48.9253   -9.0613   22.3790 H   0  0  0  0  0  0  0  0  0  0  0  0
  -49.4993  -10.5723   21.9740 H   0  0  0  0  0  0  0  0  0  0  0  0
  -41.1943   -9.9703   19.6120 H   0  0  0  0  0  0  0  0  0  0  0  0
  -41.6463   -9.8073   21.2060 H   0  0  0  0  0  0  0  0  0  0  0  0
  -45.9263  -10.3003   17.9210 H   0  0  0  0  0  0  0  0  0  0  0  0
  -44.9733  -11.3053   18.7900 H   0  0  0  0  0  0  0  0  0  0  0  0
  -46.5923  -11.4113   18.9190 H   0  0  0  0  0  0  0  0  0  0  0  0
  -51.2753   -9.0003   22.2900 H   0  0  0  0  0  0  0  0  0  0  0  0
  -51.2443   -9.6573   20.7760 H   0  0  0  0  0  0  0  0  0  0  0  0
  -49.7903  -11.2033   19.9020 H   0  0  0  0  0  0  0  0  0  0  0  0
  -49.2363  -10.3803   18.6010 H   0  0  0  0  0  0  0  0  0  0  0  0
  -48.2763  -11.4683   19.3410 H   0  0  0  0  0  0  0  0  0  0  0  0
  -43.5703   -8.5103   22.0450 H   0  0  0  0  0  0  0  0  0  0  0  0
  -45.2023   -8.5223   22.1540 H   0  0  0  0  0  0  0  0  0  0  0  0
  -44.3353   -9.7083   22.8540 H   0  0  0  0  0  0  0  0  0  0  0  0
  -45.4453  -12.9823   21.8700 H   0  0  0  0  0  0  0  0  0  0  0  0
  -43.4043  -12.1923   23.5160 H   0  0  0  0  0  0  0  0  0  0  0  0
  -42.2043  -11.1683   23.0800 H   0  0  0  0  0  0  0  0  0  0  0  0
  -40.1443  -11.4663   21.5100 H   0  0  0  0  0  0  0  0  0  0  0  0
  -40.0293  -12.4803   20.2080 H   0  0  0  0  0  0  0  0  0  0  0  0
  -50.0873   -5.9133   18.2730 H   0  0  0  0  0  0  0  0  0  0  0  0
  -50.1443   -5.5293   19.8620 H   0  0  0  0  0  0  0  0  0  0  0  0
  -48.7113   -5.8443   19.1550 H   0  0  0  0  0  0  0  0  0  0  0  0
  -50.7533   -7.5013   17.6300 H   0  0  0  0  0  0  0  0  0  0  0  0
  -50.0063   -8.9303   17.9030 H   0  0  0  0  0  0  0  0  0  0  0  0
  -51.4383   -8.6163   18.6120 H   0  0  0  0  0  0  0  0  0  0  0  0
  -39.7763  -13.7093   22.2240 H   0  0  0  0  0  0  0  0  0  0  0  0
  -41.1303  -14.1753   21.4010 H   0  0  0  0  0  0  0  0  0  0  0  0
  -41.4433  -12.9773   18.8780 H   0  0  0  0  0  0  0  0  0  0  0  0
  -43.0553  -12.9303   19.1510 H   0  0  0  0  0  0  0  0  0  0  0  0
  -42.3243  -11.6823   18.4030 H   0  0  0  0  0  0  0  0  0  0  0  0
  -40.7603  -13.3983   25.0890 H   0  0  0  0  0  0  0  0  0  0  0  0
  -39.7343  -12.6513   24.0580 H   0  0  0  0  0  0  0  0  0  0  0  0
  -40.9923  -11.8303   24.6850 H   0  0  0  0  0  0  0  0  0  0  0  0
  2 32  2  0
  3 47  1  0
  3 50  1  0
  4 46  1  0
  5 46  2  0
  9 52  1  0
  9 56  1  0
 10 53  1  0
 11 53  2  0
 15 58  1  0
 16 58  2  0
 17 19  1  0
 17 20  1  0
 17 22  1  0
 17 33  1  0
 18 19  1  0
 18 21  1  0
 18 29  1  0
 18 35  1  0
 19 32  1  0
 20 25  1  0
 20 28  1  0
 20 36  1  0
 21 23  1  0
 21 24  1  0
 22 24  1  0
 23 31  1  0
 23 41  1  0
 23 42  1  0
 25 26  1  0
 25 37  2  0
 26 27  1  0
 26 38  1  0
 27 30  1  0
 27 39  1  0
 27 44  1  0
 28 30  1  0
 29 34  1  0
 31  1  1  0
 31 34  1  0
 32 37  1  0
 38 40  1  0
 39 43  1  0
 40 43  1  0
 40 45  1  0
 40 46  1  0
 47  1  1  0
 47 48  1  0
 48  6  1  0
 48 49  1  0
 49  7  1  0
 49 51  1  0
 50 51  1  0
 50 53  1  0
 51  8  1  0
 52  6  1  0
 52 54  1  0
 54 12  1  0
 54 55  1  0
 55 13  1  0
 55 57  1  0
 56 57  1  0
 56 58  1  0
 57 14  1  0
  7 73  1  0
  8 74  1  0
 12 75  1  0
 13 76  1  0
 14 77  1  0
 19 59  1  0
 21 60  1  0
 22 78  1  0
 22 79  1  0
 24 80  1  0
 24 81  1  0
 26 61  1  0
 28 82  1  0
 28 83  1  0
 29 84  1  0
 29 85  1  0
 30 86  1  0
 30 87  1  0
 31 62  1  0
 33 88  1  0
 33 89  1  0
 33 90  1  0
 34 91  1  0
 34 92  1  0
 35 93  1  0
 35 94  1  0
 35 95  1  0
 36 96  1  0
 36 97  1  0
 36 98  1  0
 37 99  1  0
 38100  1  0
 38101  1  0
 39102  1  0
 39103  1  0
 41104  1  0
 41105  1  0
 41106  1  0
 42107  1  0
 42108  1  0
 42109  1  0
 43110  1  0
 43111  1  0
 44112  1  0
 44113  1  0
 44114  1  0
 45115  1  0
 45116  1  0
 45117  1  0
 47 63  1  0
 48 64  1  0
 49 65  1  0
 50 66  1  0
 51 67  1  0
 52 68  1  0
 54 69  1  0
 55 70  1  0
 56 71  1  0
 57 72  1  0
M  CHG  3   4  -1  10  -1  15  -1
M  END
>  <BioMolTech Lead Finder dG>
-8.684

>  <BioMolTech Lead Finder VSscore>
-13.953

>  <BioMolTech Lead Finder Rank score>
-8.247

>  <BioMolTech Lead Finder LE>
-0.15

>  <BioMolTech Lead Finder Structure Name>
/var/folders/xd/y7jw_xv579q2qqq7kks92xd80000gn/T/LeadFinder_20273_1/Ligand_1.sdf

>  <BioMolTech Lead Finder SDF id>
0

>  <BioMolTech Lead Finder Pose rank>
0

>  <BioMolTech Lead Finder version>
2001 1, 19 January 2019

>  <PUBCHEM_COMPOUND_CID>
656656

>  <PUBCHEM_COMPOUND_CANONICALIZED>
1

>  <PUBCHEM_CACTVS_COMPLEXITY>
1730

>  <PUBCHEM_CACTVS_HBOND_ACCEPTOR>
18

>  <PUBCHEM_CACTVS_HBOND_DONOR>
10

>  <PUBCHEM_CACTVS_ROTATABLE_BOND>
7

>  <PUBCHEM_CACTVS_SUBSKEYS>
AAADcfB/PgAAAAAAAAAAAAAAAAAAAAAAAAA0aMGCAAAAAADAAAAAGgAQCAAADxSwgAMCCAAABgCIAqDSCAIAAAAgAAAACAFAAEgREBYAAQQiQAAFoAAPAQPK7PzPgAAAAAAAAADAAAYAADAAAAAAAAAAAA==

>  <PUBCHEM_IUPAC_OPENEYE_NAME>
(2S,3S,4S,5R,6R)-6-[(2S,3R,4S,5S,6S)-2-[[(3S,4aR,6aR,6bS,8aS,11S,12aR,14aR,14bS)-11-carboxy-4,4,6a,6b,8a,11,14b-heptamethyl-14-oxo-2,3,4a,5,6,7,8,9,10,12,12a,14a-dodecahydro-1H-picen-3-yl]oxy]-6-carbo

>  <PUBCHEM_IUPAC_CAS_NAME>
(2S,3S,4S,5R,6R)-6-[[(2S,3R,4S,5S,6S)-2-[[(3S,4aR,6aR,6bS,8aS,11S,12aR,14aR,14bS)-11-carboxy-4,4,6a,6b,8a,11,14b-heptamethyl-14-oxo-2,3,4a,5,6,7,8,9,10,12,12a,14a-dodecahydro-1H-picen-3-yl]oxy]-6-carb

>  <PUBCHEM_IUPAC_NAME_MARKUP>
(2<I>S</I>,3<I>S</I>,4<I>S</I>,5<I>R</I>,6<I>R</I>)-6-[(2<I>S</I>,3<I>R</I>,4<I>S</I>,5<I>S</I>,6<I>S</I>)-2-[[(3<I>S</I>,4<I>a</I><I>R</I>,6<I>a</I><I>R</I>,6<I>b</I><I>S</I>,8<I>a</I><I>S</I>,11<I>S

>  <PUBCHEM_IUPAC_NAME>
(2S,3S,4S,5R,6R)-6-[(2S,3R,4S,5S,6S)-2-[[(3S,4aR,6aR,6bS,8aS,11S,12aR,14aR,14bS)-11-carboxy-4,4,6a,6b,8a,11,14b-heptamethyl-14-oxo-2,3,4a,5,6,7,8,9,10,12,12a,14a-dodecahydro-1H-picen-3-yl]oxy]-6-carbo

>  <PUBCHEM_IUPAC_SYSTEMATIC_NAME>
(2S,3S,4S,5R,6R)-6-[(2S,3R,4S,5S,6S)-2-[[(3S,4aR,6aR,6bS,8aS,11S,12aR,14aR,14bS)-11-carboxy-4,4,6a,6b,8a,11,14b-heptamethyl-14-oxidanylidene-2,3,4a,5,6,7,8,9,10,12,12a,14a-dodecahydro-1H-picen-3-yl]ox

>  <PUBCHEM_IUPAC_TRADITIONAL_NAME>
(2S,3S,4S,5R,6R)-6-[(2S,3R,4S,5S,6S)-2-[[(3S,4aR,6aR,6bS,8aS,11S,12aR,14aR,14bS)-11-carboxy-14-keto-4,4,6a,6b,8a,11,14b-heptamethyl-2,3,4a,5,6,7,8,9,10,12,12a,14a-dodecahydro-1H-picen-3-yl]oxy]-6-carb

>  <PUBCHEM_IUPAC_INCHI>
InChI=1S/C42H62O16.2H3N/c1-37(2)21-8-11-42(7)31(20(43)16-18-19-17-39(4,36(53)54)13-12-38(19,3)14-15-41(18,42)6)40(21,5)10-9-22(37)55-35-30(26(47)25(46)29(57-35)33(51)52)58-34-27(48)23(44)24(45)28(56-3

>  <PUBCHEM_IUPAC_INCHIKEY>
SPPIIOPGDLITJE-VLQRKCJKSA-N

>  <PUBCHEM_EXACT_MASS>
856.456884

>  <PUBCHEM_MOLECULAR_FORMULA>
C42H68N2O16

>  <PUBCHEM_MOLECULAR_WEIGHT>
857

>  <PUBCHEM_OPENEYE_CAN_SMILES>
CC1(C2CCC3(C(C2(CCC1OC4C(C(C(C(O4)C(=O)O)O)O)OC5C(C(C(C(O5)C(=O)O)O)O)O)C)C(=O)C=C6C3(CCC7(C6CC(CC7)(C)C(=O)O)C)C)C)C.N.N

>  <PUBCHEM_OPENEYE_ISO_SMILES>
C[C@]12CC[C@](C[C@H]1C3=CC(=O)[C@@H]4[C@]5(CC[C@@H](C([C@@H]5CC[C@]4([C@@]3(CC2)C)C)(C)C)O[C@@H]6[C@@H]([C@H]([C@@H]([C@H](O6)C(=O)O)O)O)O[C@H]7[C@@H]([C@H]([C@@H]([C@H](O7)C(=O)O)O)O)O)C)(C)C(=O)O.N.

>  <PUBCHEM_CACTVS_TPSA>
269

>  <PUBCHEM_MONOISOTOPIC_WEIGHT>
856.456884

>  <PUBCHEM_TOTAL_CHARGE>
0

>  <PUBCHEM_HEAVY_ATOM_COUNT>
60

>  <PUBCHEM_ATOM_DEF_STEREO_COUNT>
19

>  <PUBCHEM_ATOM_UDEF_STEREO_COUNT>
0

>  <PUBCHEM_BOND_DEF_STEREO_COUNT>
0

>  <PUBCHEM_BOND_UDEF_STEREO_COUNT>
0

>  <PUBCHEM_ISOTOPIC_ATOM_COUNT>
0

>  <PUBCHEM_COMPONENT_COUNT>
3

>  <PUBCHEM_CACTVS_TAUTO_COUNT>
-1

>  <PUBCHEM_COORDINATE_TYPE>
1
5
255

>  <PUBCHEM_BONDANNOTATIONS>
33  1  5
49  1  6
56  12  6
57  13  5
59  14  6
19  35  5
20  37  5
21  61  6
22  38  6
23  62  6
28  67  5
29  46  5
42  47  6
52  55  5
58  60  5
50  6  6
54  6  5
51  7  5
53  8  6

>  <LF dG>
-8.684

>  <LF VSscore>
-13.953

>  <LF Rank Score>
-8.247

>  <LF LE>
-0.15

>  <Preferred Pose_cresset>
true

>  <Favorite_cresset>
false

>  <Protein_cresset>
6M2N_Dimer_P

>  <MW_cresset>
819.9

>  <#Atoms_cresset>
58

>  <SlogP_cresset>
4.1

>  <TPSA_cresset>
275.5

>  <Flexibility_cresset>
17.3

>  <#RB_cresset>
12

>  <Rof5_cresset>
2

>  <Filename_cresset>
Diammonium Glycyrrhizinate.sdf

>  <Confs_cresset>
0

>  <Poses_cresset>
10

>  <_cresset_fieldpoints>
    -5     -47.782631     -13.758992      22.582882    -13.5752
    -5     -49.328178     -12.980173      22.045662    -12.9832
    -5     -43.917328     -16.150959      24.296881    -12.1211
    -5     -58.098511      -5.720107      22.856678    -13.6909
    -5     -51.283676      -1.397136      19.538864    -14.2794
    -5     -53.409176      -0.912816      21.765846    -14.2300
    -5     -50.759644       0.944328      17.115593    -11.9075
    -5     -57.803162      -5.208916      24.166988    -12.6506
    -5     -49.627388      -2.469292      14.258114    -11.1095
    -5     -49.650635       0.599151      16.139439    -11.5152
    -5     -52.942299      -1.264473      18.239632     -9.7378
    -5     -54.202457      -6.689746      18.943451    -20.8579
    -5     -39.490204     -11.270531      17.846855     -1.4828
    -5     -42.722420     -16.866049      23.914833    -11.8244
    -6     -51.353756      -4.731870      23.856911      4.3400
    -6     -52.586918      -3.380596      24.487461      4.3671
    -6     -51.705978      -7.523257      15.546993      2.5526
    -6     -53.899162      -2.495701      13.196096     10.2587
    -6     -49.976669      -4.954152      22.547194      4.1916
    -6     -43.865364      -6.283180      20.702225      1.4497
    -6     -49.839577      -5.819304      16.056847      2.9166
    -6     -41.524414      -7.234325      21.563578      1.0908
    -6     -47.079464      -6.936189      22.465385      2.5058
    -6     -40.323975      -9.625525      23.247124      1.6628
    -7     -45.758072     -11.176072      24.317730     -2.8805
    -7     -47.103630     -13.764133      19.777456     -2.6989
    -7     -46.746635     -10.126160      24.106922     -2.8938
    -7     -45.363716     -13.901005      19.397640     -3.0870
    -7     -49.810699     -13.093147      21.665848     -2.1118
    -7     -51.378242     -12.326191      21.548260     -1.7944
    -7     -39.254570     -15.627040      24.017578     -1.9559
    -7     -43.525841     -13.023678      25.989414     -2.0324
    -7     -43.242409     -15.432741      20.763988     -2.6713
    -7     -45.501205     -13.136209      24.395359     -2.3074
    -7     -49.487206      -4.769237      22.225224     -2.9972
    -7     -54.023590      -0.478472      21.236223     -1.5605
    -7     -52.590202      -1.009483      23.263294     -1.4705
    -7     -56.443520      -2.410658      23.889925     -1.6772
    -7     -54.342567      -3.778704      25.626532     -1.5315
    -7     -52.068619      -3.290705      24.577362     -1.7482
    -7     -53.760731      -7.540442      18.864445     -3.6714
    -7     -55.290619      -5.866326      19.535381     -3.3328
    -7     -47.232468      -7.021613      22.698685     -3.3893
    -7     -55.627724      -3.092044      15.018099     -1.6805
    -7     -54.981178      -6.933064      14.770897     -1.5481
    -7     -52.126747      -4.612298      12.337194     -1.6242
    -7     -55.037579      -2.694063      18.629084     -2.5625
    -7     -49.129974      -2.903287      14.222055     -1.7804
    -7     -54.418587      -1.999616      13.304544     -1.2920
    -7     -49.480991      -5.933269      15.897865     -3.0738
    -7     -49.966385      -2.652033      19.448627     -3.1025
    -7     -54.002941      -1.670056      17.822777     -2.9378
    -7     -50.906517      -0.662198      13.713942     -1.6756
    -7     -43.832512      -6.181326      20.680397     -2.2235
    -7     -43.577515     -10.218544      16.562908     -2.3710
    -7     -48.116447     -10.414585      16.346485     -2.6046
    -7     -41.891449      -9.643585      16.913269     -1.9209
    -7     -41.429008      -7.191880      21.586061     -1.8123
    -7     -50.400501      -6.990875      24.005558     -2.2273
    -7     -43.875061      -9.336975      16.601936     -2.3650
    -7     -52.182152     -11.056255      18.866508     -2.1721
    -7     -39.462414     -11.060637      18.023247     -1.9776
    -7     -37.780739     -11.803982      22.626461     -1.7599
    -7     -39.976715     -15.057560      19.187181     -1.7619
    -7     -40.255905      -9.611023      23.295826     -2.8809
    -8     -49.551682      -8.671198      20.588829      7.2496
    -8     -52.961349      -4.483717      21.634090      5.0311
    -8     -45.619087     -10.643285      20.854580      7.4713
    -8     -49.638741      -7.554706      19.474792      6.4381
    -8     -41.760494     -12.429110      21.793270      7.4470
    -8     -43.132328     -10.801136      20.673538      7.2475
    -8     -52.350578      -4.162009      16.363255      5.1997
    -8     -48.391907      -9.451686      20.557156      6.6680
    -8     -47.163158      -9.016294      19.865200      7.3769

$$$$
Diammonium_D
  xed2sdf_05210316543D
 
117123  0  0  1  0  0  0  0  0999 V2000
  -47.5373   -7.3364   19.3695 O   0  0  0  0  0  0  0  0  0  0  0  0
  -46.5523  -13.9144   18.2395 O   0  0  0  0  0  0  0  0  0  0  0  0
  -48.7693   -5.8224   17.9295 O   0  0  0  0  0  0  0  0  0  0  0  0
  -45.9033  -18.9594   18.9705 O   0  5  0  0  0  0  0  0  0  0  0  0
  -46.3643  -21.0804   19.6715 O   0  0  0  0  0  0  0  0  0  0  0  0
  -50.2503   -7.0184   20.0755 O   0  0  0  0  0  0  0  0  0  0  0  0
  -52.2133   -8.1894   18.2405 O   0  0  0  0  0  0  0  0  0  0  0  0
  -52.0163   -6.2124   16.1775 O   0  0  0  0  0  0  0  0  0  0  0  0
  -49.8923   -9.1384   21.1905 O   0  0  0  0  0  0  0  0  0  0  0  0
  -50.1743   -3.9804   15.2855 O   0  5  0  0  0  0  0  0  0  0  0  0
  -49.7033   -3.4034   17.4445 O   0  0  0  0  0  0  0  0  0  0  0  0
  -52.6503   -6.6664   21.4755 O   0  0  0  0  0  0  0  0  0  0  0  0
  -53.7923   -8.9614   22.7675 O   0  0  0  0  0  0  0  0  0  0  0  0
  -51.9353  -10.9454   23.7105 O   0  0  0  0  0  0  0  0  0  0  0  0
  -49.0113  -11.7914   23.2955 O   0  5  0  0  0  0  0  0  0  0  0  0
  -49.4413  -11.7784   21.0525 O   0  0  0  0  0  0  0  0  0  0  0  0
  -44.6793  -13.2044   21.2395 C   0  0  0  0  0  0  0  0  0  0  0  0
  -45.9273  -11.4154   19.6595 C   0  0  0  0  0  0  0  0  0  0  0  0
  -45.8793  -12.8414   20.3075 C   0  0  0  0  0  0  0  0  0  0  0  0
  -44.9993  -14.5724   21.9675 C   0  0  0  0  0  0  0  0  0  0  0  0
  -45.6493  -10.3544   20.7745 C   0  0  0  0  0  0  0  0  0  0  0  0
  -44.4103  -12.0394   22.2325 C   0  0  0  0  0  0  0  0  0  0  0  0
  -45.9033   -8.8554   20.3905 C   0  0  0  0  0  0  0  0  0  0  0  0
  -44.3443  -10.6454   21.5655 C   0  0  0  0  0  0  0  0  0  0  0  0
  -45.1763  -15.6444   20.8985 C   0  0  0  0  0  0  0  0  0  0  0  0
  -44.7953  -17.0984   21.1175 C   0  0  0  0  0  0  0  0  0  0  0  0
  -43.6323  -17.3444   22.1145 C   0  0  0  0  0  0  0  0  0  0  0  0
  -43.9063  -14.9254   23.0245 C   0  0  0  0  0  0  0  0  0  0  0  0
  -47.3773  -11.1734   19.1565 C   0  0  0  0  0  0  0  0  0  0  0  0
  -43.7673  -16.4284   23.3565 C   0  0  0  0  0  0  0  0  0  0  0  0
  -47.3453   -8.6954   19.8315 C   0  0  0  0  0  0  0  0  0  0  0  0
  -46.0913  -14.0054   19.3595 C   0  0  0  0  0  0  0  0  0  0  0  0
  -43.3963  -13.3914   20.3785 C   0  0  0  0  0  0  0  0  0  0  0  0
  -47.6673   -9.7204   18.7165 C   0  0  0  0  0  0  0  0  0  0  0  0
  -44.9783  -11.3504   18.4295 C   0  0  0  0  0  0  0  0  0  0  0  0
  -46.3703  -14.6004   22.6975 C   0  0  0  0  0  0  0  0  0  0  0  0
  -45.6573  -15.3484   19.6845 C   0  0  0  0  0  0  0  0  0  0  0  0
  -46.0353  -17.9314   21.5035 C   0  0  0  0  0  0  0  0  0  0  0  0
  -43.6193  -18.8194   22.6075 C   0  0  0  0  0  0  0  0  0  0  0  0
  -45.7493  -19.4424   21.3045 C   0  0  0  0  0  0  0  0  0  0  0  0
  -45.8343   -7.9594   21.6495 C   0  0  0  0  0  0  0  0  0  0  0  0
  -44.8653   -8.2664   19.4055 C   0  0  0  0  0  0  0  0  0  0  0  0
  -44.2683  -19.7944   21.5995 C   0  0  0  0  0  0  0  0  0  0  0  0
  -42.3003  -17.0614   21.3895 C   0  0  0  0  0  0  0  0  0  0  0  0
  -46.6823  -20.2384   22.2385 C   0  0  0  0  0  0  0  0  0  0  0  0
  -46.0263  -19.8614   19.8735 C   0  0  0  0  0  0  0  0  0  0  0  0
  -48.5563   -7.1864   18.3545 C   0  0  0  0  0  0  0  0  0  0  0  0
  -49.8733   -7.7714   18.9045 C   0  0  0  0  0  0  0  0  0  0  0  0
  -50.9423   -7.7004   17.7895 C   0  0  0  0  0  0  0  0  0  0  0  0
  -49.7253   -5.7084   16.8575 C   0  0  0  0  0  0  0  0  0  0  0  0
  -51.1003   -6.2564   17.2805 C   0  0  0  0  0  0  0  0  0  0  0  0
  -50.5183   -7.8354   21.2325 C   0  0  0  0  0  0  0  0  0  0  0  0
  -49.8773   -4.2514   16.5015 C   0  0  0  0  0  0  0  0  0  0  0  0
  -52.0483   -7.9654   21.3825 C   0  0  0  0  0  0  0  0  0  0  0  0
  -52.3733   -8.7924   22.6385 C   0  0  0  0  0  0  0  0  0  0  0  0
  -50.1663   -9.9314   22.3645 C   0  0  0  0  0  0  0  0  0  0  0  0
  -51.6783  -10.1614   22.5365 C   0  0  0  0  0  0  0  0  0  0  0  0
  -49.4893  -11.2714   22.2275 C   0  0  0  0  0  0  0  0  0  0  0  0
  -46.6783  -12.7214   20.8965 H   0  0  0  0  0  0  0  0  0  0  0  0
  -46.3863  -10.4874   21.4365 H   0  0  0  0  0  0  0  0  0  0  0  0
  -44.4353  -17.4024   20.2345 H   0  0  0  0  0  0  0  0  0  0  0  0
  -47.9883   -8.8844   20.5735 H   0  0  0  0  0  0  0  0  0  0  0  0
  -48.2413   -7.6764   17.5425 H   0  0  0  0  0  0  0  0  0  0  0  0
  -49.7733   -8.7294   19.1735 H   0  0  0  0  0  0  0  0  0  0  0  0
  -50.6263   -8.2854   17.0425 H   0  0  0  0  0  0  0  0  0  0  0  0
  -49.3953   -6.2384   16.0765 H   0  0  0  0  0  0  0  0  0  0  0  0
  -51.4683   -5.6874   18.0165 H   0  0  0  0  0  0  0  0  0  0  0  0
  -50.1153   -7.3834   22.0285 H   0  0  0  0  0  0  0  0  0  0  0  0
  -52.4183   -8.4294   20.5775 H   0  0  0  0  0  0  0  0  0  0  0  0
  -52.0393   -8.3124   23.4495 H   0  0  0  0  0  0  0  0  0  0  0  0
  -49.8193   -9.4384   23.1635 H   0  0  0  0  0  0  0  0  0  0  0  0
  -52.0373  -10.6634   21.7495 H   0  0  0  0  0  0  0  0  0  0  0  0
  -52.7293   -8.6114   17.4875 H   0  0  0  0  0  0  0  0  0  0  0  0
  -52.1163   -7.1174   15.7495 H   0  0  0  0  0  0  0  0  0  0  0  0
  -53.1323   -6.5474   22.3495 H   0  0  0  0  0  0  0  0  0  0  0  0
  -54.0493   -9.9324   22.7285 H   0  0  0  0  0  0  0  0  0  0  0  0
  -52.5003  -10.4394   24.3715 H   0  0  0  0  0  0  0  0  0  0  0  0
  -43.5393  -12.2114   22.6925 H   0  0  0  0  0  0  0  0  0  0  0  0
  -45.1813  -12.0174   22.8685 H   0  0  0  0  0  0  0  0  0  0  0  0
  -44.2233   -9.9464   22.2695 H   0  0  0  0  0  0  0  0  0  0  0  0
  -43.5733  -10.6304   20.9285 H   0  0  0  0  0  0  0  0  0  0  0  0
  -44.1243  -14.4394   23.8705 H   0  0  0  0  0  0  0  0  0  0  0  0
  -43.0333  -14.6524   22.6195 H   0  0  0  0  0  0  0  0  0  0  0  0
  -48.0093  -11.4104   19.8945 H   0  0  0  0  0  0  0  0  0  0  0  0
  -47.4973  -11.7454   18.3455 H   0  0  0  0  0  0  0  0  0  0  0  0
  -42.9563  -16.5524   23.9285 H   0  0  0  0  0  0  0  0  0  0  0  0
  -44.6113  -16.6974   23.8215 H   0  0  0  0  0  0  0  0  0  0  0  0
  -42.7103  -12.7234   20.6665 H   0  0  0  0  0  0  0  0  0  0  0  0
  -43.0373  -14.3164   20.5025 H   0  0  0  0  0  0  0  0  0  0  0  0
  -43.6163  -13.2554   19.4125 H   0  0  0  0  0  0  0  0  0  0  0  0
  -48.6333   -9.6434   18.4735 H   0  0  0  0  0  0  0  0  0  0  0  0
  -47.0793   -9.5154   17.9335 H   0  0  0  0  0  0  0  0  0  0  0  0
  -45.5213  -11.1694   17.6095 H   0  0  0  0  0  0  0  0  0  0  0  0
  -44.3083  -10.6204   18.5575 H   0  0  0  0  0  0  0  0  0  0  0  0
  -44.4963  -12.2214   18.3305 H   0  0  0  0  0  0  0  0  0  0  0  0
  -46.2233  -14.8364   23.6575 H   0  0  0  0  0  0  0  0  0  0  0  0
  -46.8053  -13.7024   22.6335 H   0  0  0  0  0  0  0  0  0  0  0  0
  -46.9653  -15.2814   22.2695 H   0  0  0  0  0  0  0  0  0  0  0  0
  -45.7173  -16.0654   18.9905 H   0  0  0  0  0  0  0  0  0  0  0  0
  -46.8093  -17.6604   20.9305 H   0  0  0  0  0  0  0  0  0  0  0  0
  -46.2523  -17.7664   22.4665 H   0  0  0  0  0  0  0  0  0  0  0  0
  -44.1173  -18.8734   23.4735 H   0  0  0  0  0  0  0  0  0  0  0  0
  -42.6633  -19.0924   22.7135 H   0  0  0  0  0  0  0  0  0  0  0  0
  -45.1513   -7.2444   21.5035 H   0  0  0  0  0  0  0  0  0  0  0  0
  -46.7283   -7.5414   21.8165 H   0  0  0  0  0  0  0  0  0  0  0  0
  -45.5813   -8.5124   22.4435 H   0  0  0  0  0  0  0  0  0  0  0  0
  -44.4283   -7.4734   19.8295 H   0  0  0  0  0  0  0  0  0  0  0  0
  -44.1753   -8.9564   19.1885 H   0  0  0  0  0  0  0  0  0  0  0  0
  -45.3233   -7.9874   18.5615 H   0  0  0  0  0  0  0  0  0  0  0  0
  -44.2243  -20.7214   21.9725 H   0  0  0  0  0  0  0  0  0  0  0  0
  -43.7633  -19.7244   20.7395 H   0  0  0  0  0  0  0  0  0  0  0  0
  -41.7393  -17.8894   21.4035 H   0  0  0  0  0  0  0  0  0  0  0  0
  -42.4813  -16.7944   20.4425 H   0  0  0  0  0  0  0  0  0  0  0  0
  -41.8173  -16.3184   21.8505 H   0  0  0  0  0  0  0  0  0  0  0  0
  -47.2543  -20.8464   21.6875 H   0  0  0  0  0  0  0  0  0  0  0  0
  -46.1373  -20.7784   22.8795 H   0  0  0  0  0  0  0  0  0  0  0  0
  -47.2603  -19.6064   22.7545 H   0  0  0  0  0  0  0  0  0  0  0  0
  2 32  2  0
  3 47  1  0
  3 50  1  0
  4 46  1  0
  5 46  2  0
  9 52  1  0
  9 56  1  0
 10 53  1  0
 11 53  2  0
 15 58  1  0
 16 58  2  0
 17 19  1  0
 17 20  1  0
 17 22  1  0
 17 33  1  0
 18 19  1  0
 18 21  1  0
 18 29  1  0
 18 35  1  0
 19 32  1  0
 20 25  1  0
 20 28  1  0
 20 36  1  0
 21 23  1  0
 21 24  1  0
 22 24  1  0
 23 31  1  0
 23 41  1  0
 23 42  1  0
 25 26  1  0
 25 37  2  0
 26 27  1  0
 26 38  1  0
 27 30  1  0
 27 39  1  0
 27 44  1  0
 28 30  1  0
 29 34  1  0
 31  1  1  0
 31 34  1  0
 32 37  1  0
 38 40  1  0
 39 43  1  0
 40 43  1  0
 40 45  1  0
 40 46  1  0
 47  1  1  0
 47 48  1  0
 48  6  1  0
 48 49  1  0
 49  7  1  0
 49 51  1  0
 50 51  1  0
 50 53  1  0
 51  8  1  0
 52  6  1  0
 52 54  1  0
 54 12  1  0
 54 55  1  0
 55 13  1  0
 55 57  1  0
 56 57  1  0
 56 58  1  0
 57 14  1  0
  7 73  1  0
  8 74  1  0
 12 75  1  0
 13 76  1  0
 14 77  1  0
 19 59  1  0
 21 60  1  0
 22 78  1  0
 22 79  1  0
 24 80  1  0
 24 81  1  0
 26 61  1  0
 28 82  1  0
 28 83  1  0
 29 84  1  0
 29 85  1  0
 30 86  1  0
 30 87  1  0
 31 62  1  0
 33 88  1  0
 33 89  1  0
 33 90  1  0
 34 91  1  0
 34 92  1  0
 35 93  1  0
 35 94  1  0
 35 95  1  0
 36 96  1  0
 36 97  1  0
 36 98  1  0
 37 99  1  0
 38100  1  0
 38101  1  0
 39102  1  0
 39103  1  0
 41104  1  0
 41105  1  0
 41106  1  0
 42107  1  0
 42108  1  0
 42109  1  0
 43110  1  0
 43111  1  0
 44112  1  0
 44113  1  0
 44114  1  0
 45115  1  0
 45116  1  0
 45117  1  0
 47 63  1  0
 48 64  1  0
 49 65  1  0
 50 66  1  0
 51 67  1  0
 52 68  1  0
 54 69  1  0
 55 70  1  0
 56 71  1  0
 57 72  1  0
M  CHG  3   4  -1  10  -1  15  -1
M  END
>  <BioMolTech Lead Finder dG>
-9.004

>  <BioMolTech Lead Finder VSscore>
-14.599

>  <BioMolTech Lead Finder Rank score>
-8.331

>  <BioMolTech Lead Finder LE>
-0.155

>  <BioMolTech Lead Finder Structure Name>
/var/folders/xd/y7jw_xv579q2qqq7kks92xd80000gn/T/LeadFinder_15590_1/Ligand_1.sdf

>  <BioMolTech Lead Finder SDF id>
0

>  <BioMolTech Lead Finder Pose rank>
0

>  <BioMolTech Lead Finder version>
2001 1, 19 January 2019

>  <PUBCHEM_COMPOUND_CID>
656656

>  <PUBCHEM_COMPOUND_CANONICALIZED>
1

>  <PUBCHEM_CACTVS_COMPLEXITY>
1730

>  <PUBCHEM_CACTVS_HBOND_ACCEPTOR>
18

>  <PUBCHEM_CACTVS_HBOND_DONOR>
10

>  <PUBCHEM_CACTVS_ROTATABLE_BOND>
7

>  <PUBCHEM_CACTVS_SUBSKEYS>
AAADcfB/PgAAAAAAAAAAAAAAAAAAAAAAAAA0aMGCAAAAAADAAAAAGgAQCAAADxSwgAMCCAAABgCIAqDSCAIAAAAgAAAACAFAAEgREBYAAQQiQAAFoAAPAQPK7PzPgAAAAAAAAADAAAYAADAAAAAAAAAAAA==

>  <PUBCHEM_IUPAC_OPENEYE_NAME>
(2S,3S,4S,5R,6R)-6-[(2S,3R,4S,5S,6S)-2-[[(3S,4aR,6aR,6bS,8aS,11S,12aR,14aR,14bS)-11-carboxy-4,4,6a,6b,8a,11,14b-heptamethyl-14-oxo-2,3,4a,5,6,7,8,9,10,12,12a,14a-dodecahydro-1H-picen-3-yl]oxy]-6-carbo

>  <PUBCHEM_IUPAC_CAS_NAME>
(2S,3S,4S,5R,6R)-6-[[(2S,3R,4S,5S,6S)-2-[[(3S,4aR,6aR,6bS,8aS,11S,12aR,14aR,14bS)-11-carboxy-4,4,6a,6b,8a,11,14b-heptamethyl-14-oxo-2,3,4a,5,6,7,8,9,10,12,12a,14a-dodecahydro-1H-picen-3-yl]oxy]-6-carb

>  <PUBCHEM_IUPAC_NAME_MARKUP>
(2<I>S</I>,3<I>S</I>,4<I>S</I>,5<I>R</I>,6<I>R</I>)-6-[(2<I>S</I>,3<I>R</I>,4<I>S</I>,5<I>S</I>,6<I>S</I>)-2-[[(3<I>S</I>,4<I>a</I><I>R</I>,6<I>a</I><I>R</I>,6<I>b</I><I>S</I>,8<I>a</I><I>S</I>,11<I>S

>  <PUBCHEM_IUPAC_NAME>
(2S,3S,4S,5R,6R)-6-[(2S,3R,4S,5S,6S)-2-[[(3S,4aR,6aR,6bS,8aS,11S,12aR,14aR,14bS)-11-carboxy-4,4,6a,6b,8a,11,14b-heptamethyl-14-oxo-2,3,4a,5,6,7,8,9,10,12,12a,14a-dodecahydro-1H-picen-3-yl]oxy]-6-carbo

>  <PUBCHEM_IUPAC_SYSTEMATIC_NAME>
(2S,3S,4S,5R,6R)-6-[(2S,3R,4S,5S,6S)-2-[[(3S,4aR,6aR,6bS,8aS,11S,12aR,14aR,14bS)-11-carboxy-4,4,6a,6b,8a,11,14b-heptamethyl-14-oxidanylidene-2,3,4a,5,6,7,8,9,10,12,12a,14a-dodecahydro-1H-picen-3-yl]ox

>  <PUBCHEM_IUPAC_TRADITIONAL_NAME>
(2S,3S,4S,5R,6R)-6-[(2S,3R,4S,5S,6S)-2-[[(3S,4aR,6aR,6bS,8aS,11S,12aR,14aR,14bS)-11-carboxy-14-keto-4,4,6a,6b,8a,11,14b-heptamethyl-2,3,4a,5,6,7,8,9,10,12,12a,14a-dodecahydro-1H-picen-3-yl]oxy]-6-carb

>  <PUBCHEM_IUPAC_INCHI>
InChI=1S/C42H62O16.2H3N/c1-37(2)21-8-11-42(7)31(20(43)16-18-19-17-39(4,36(53)54)13-12-38(19,3)14-15-41(18,42)6)40(21,5)10-9-22(37)55-35-30(26(47)25(46)29(57-35)33(51)52)58-34-27(48)23(44)24(45)28(56-3

>  <PUBCHEM_IUPAC_INCHIKEY>
SPPIIOPGDLITJE-VLQRKCJKSA-N

>  <PUBCHEM_EXACT_MASS>
856.456884

>  <PUBCHEM_MOLECULAR_FORMULA>
C42H68N2O16

>  <PUBCHEM_MOLECULAR_WEIGHT>
857

>  <PUBCHEM_OPENEYE_CAN_SMILES>
CC1(C2CCC3(C(C2(CCC1OC4C(C(C(C(O4)C(=O)O)O)O)OC5C(C(C(C(O5)C(=O)O)O)O)O)C)C(=O)C=C6C3(CCC7(C6CC(CC7)(C)C(=O)O)C)C)C)C.N.N

>  <PUBCHEM_OPENEYE_ISO_SMILES>
C[C@]12CC[C@](C[C@H]1C3=CC(=O)[C@@H]4[C@]5(CC[C@@H](C([C@@H]5CC[C@]4([C@@]3(CC2)C)C)(C)C)O[C@@H]6[C@@H]([C@H]([C@@H]([C@H](O6)C(=O)O)O)O)O[C@H]7[C@@H]([C@H]([C@@H]([C@H](O7)C(=O)O)O)O)O)C)(C)C(=O)O.N.

>  <PUBCHEM_CACTVS_TPSA>
269

>  <PUBCHEM_MONOISOTOPIC_WEIGHT>
856.456884

>  <PUBCHEM_TOTAL_CHARGE>
0

>  <PUBCHEM_HEAVY_ATOM_COUNT>
60

>  <PUBCHEM_ATOM_DEF_STEREO_COUNT>
19

>  <PUBCHEM_ATOM_UDEF_STEREO_COUNT>
0

>  <PUBCHEM_BOND_DEF_STEREO_COUNT>
0

>  <PUBCHEM_BOND_UDEF_STEREO_COUNT>
0

>  <PUBCHEM_ISOTOPIC_ATOM_COUNT>
0

>  <PUBCHEM_COMPONENT_COUNT>
3

>  <PUBCHEM_CACTVS_TAUTO_COUNT>
-1

>  <PUBCHEM_COORDINATE_TYPE>
1
5
255

>  <PUBCHEM_BONDANNOTATIONS>
33  1  5
49  1  6
56  12  6
57  13  5
59  14  6
19  35  5
20  37  5
21  61  6
22  38  6
23  62  6
28  67  5
29  46  5
42  47  6
52  55  5
58  60  5
50  6  6
54  6  5
51  7  5
53  8  6

>  <LF dG>
-9.004

>  <LF VSscore>
-14.599

>  <LF Rank Score>
-8.331

>  <LF LE>
-0.155

>  <Preferred Pose_cresset>
true

>  <Favorite_cresset>
false

>  <Protein_cresset>
6M2N_Dimer_P

>  <MW_cresset>
819.9

>  <#Atoms_cresset>
58

>  <SlogP_cresset>
4.1

>  <TPSA_cresset>
275.5

>  <Flexibility_cresset>
17.3

>  <#RB_cresset>
12

>  <Rof5_cresset>
2

>  <Filename_cresset>
Diammonium Glycyrrhizinate.sdf

>  <Confs_cresset>
0

>  <Poses_cresset>
10

>  <_cresset_fieldpoints>
    -5     -49.202026      -4.348218      19.204811    -20.1173
    -5     -51.709030      -5.438353      20.297062    -19.2366
    -5     -46.892429     -15.139845      16.998470    -14.2767
    -5     -46.333092     -19.800468      17.411827    -12.5074
    -5     -46.608879     -21.142563      17.851082    -12.2313
    -5     -49.991268      -1.784669      16.708778    -15.3046
    -5     -52.633034      -4.538067      15.616119    -13.6919
    -5     -50.313065      -2.142711      15.338749    -14.6756
    -5     -48.859489     -13.526168      21.068607    -12.0891
    -5     -50.416027     -10.898211      19.703897     -9.3797
    -5     -44.793381      -8.964420      16.321482     -4.7610
    -5     -47.074486     -13.427027      16.574598    -13.0650
    -5     -51.013206     -12.514522      24.242245     -9.3089
    -5     -40.590240     -17.763737      23.974073     -2.0668
    -6     -52.449951      -8.879484      15.713592      9.2509
    -6     -52.786739      -6.312872      24.204742      2.2795
    -6     -54.271614     -10.678256      24.382914      6.1402
    -6     -52.624115      -9.212058      25.599033      5.4857
    -7     -48.216831      -5.593100      21.001011     -3.0815
    -7     -48.831108     -14.025743      20.612551     -3.5676
    -7     -44.094398     -14.589457      17.286709     -2.7004
    -7     -46.805519     -12.898376      16.175701     -2.1255
    -7     -48.706444      -9.291704      15.679350     -2.5313
    -7     -45.488213      -8.887672      16.182026     -2.4069
    -7     -46.072632      -8.159317      16.146336     -2.3770
    -7     -43.480156     -18.666534      18.430010     -2.8155
    -7     -47.765907     -17.479322      18.643631     -2.3350
    -7     -43.203217     -15.794476      18.252193     -3.0938
    -7     -45.312927     -22.869694      20.849121     -1.9536
    -7     -48.908012     -18.997467      20.104691     -1.8687
    -7     -44.387970     -21.182724      24.715332     -1.7596
    -7     -55.185829      -7.413640      21.489098     -1.5585
    -7     -53.768757      -6.544960      19.151709     -2.3466
    -7     -52.295265      -9.333517      15.309117     -1.3279
    -7     -50.389194      -8.012665      14.460123     -1.7975
    -7     -51.179573      -5.811702      13.949270     -1.8541
    -7     -46.373924      -5.334571      19.764069     -2.7082
    -7     -49.889648      -4.642894      19.962372     -3.0410
    -7     -50.862297     -10.886801      19.342590     -4.2883
    -7     -54.314247     -10.213798      20.370487     -1.8237
    -7     -49.914207      -7.301084      24.594212     -1.8509
    -7     -54.448753      -9.508261      25.029816     -1.3990
    -7     -50.782188      -9.537188      25.624598     -1.8101
    -7     -50.215828     -11.127172      25.376705     -1.8855
    -7     -45.533516     -12.773171      25.256947     -2.2552
    -7     -54.102272     -12.017580      23.606602     -1.4122
    -7     -40.762611     -13.889133      22.158806     -2.3712
    -7     -41.861710     -10.650492      19.160049     -2.6022
    -7     -42.473827      -8.053639      21.588383     -2.2526
    -7     -47.068954     -10.386771      23.757172     -3.8393
    -7     -40.739990     -17.880016      24.111946     -1.9776
    -7     -41.063347     -13.169027      22.654152     -2.3651
    -7     -47.360847     -11.005260      15.774764     -1.9417
    -7     -40.704880     -14.890524      23.658176     -1.9208
    -7     -45.430820     -15.440464      26.008799     -1.8135
    -7     -41.170948     -20.292007      20.712448     -1.7588
    -7     -48.243782      -7.623214      23.838894     -2.2526
    -7     -51.409225      -5.670617      23.644596     -1.7571
    -7     -46.191315     -18.327587      24.904373     -2.8810
    -8     -46.599449     -10.086637      19.745325      7.2451
    -8     -45.144981     -11.764057      20.954865      7.3710
    -8     -45.287689     -14.196543      20.679630      7.4674
    -8     -46.047432     -11.375166      19.852085      6.6562
    -8     -44.353210     -16.019253      22.102926      7.2460
    -8     -51.405502      -8.907970      22.165146      5.2046
    -8     -50.030060      -7.130588      17.630875      5.0529
    -8     -44.666832     -18.374344      21.727840      7.4350
    -8     -45.803192      -8.983875      20.528522      6.4099
    -8     -43.748650     -17.360241      22.077888      6.7135
    -8     -48.456024      -8.723352      18.774155      4.6935

$$$$
W_Forsythoside E_D
  xed2sdf_05210316543D
 
 62 64  0  0  1  0  0  0  0  0999 V2000
  -48.1395  -13.1137   22.3849 O   0  0  0  0  0  0  0  0  0  0  0  0
  -48.2075  -15.3677   24.1179 O   0  0  0  0  0  0  0  0  0  0  0  0
  -49.7325  -16.6427   25.5119 O   0  0  0  0  0  0  0  0  0  0  0  0
  -47.2895  -15.8267   19.9789 O   0  0  0  0  0  0  0  0  0  0  0  0
  -48.7855  -10.8277   22.0409 O   0  0  0  0  0  0  0  0  0  0  0  0
  -47.1405  -13.5067   18.3149 O   0  0  0  0  0  0  0  0  0  0  0  0
  -48.5375  -11.1677   19.2459 O   0  0  0  0  0  0  0  0  0  0  0  0
  -48.0215  -18.9417   25.0099 O   0  0  0  0  0  0  0  0  0  0  0  0
  -45.9355  -17.9937   26.6819 O   0  0  0  0  0  0  0  0  0  0  0  0
  -47.5875  -16.4957   28.5489 O   0  0  0  0  0  0  0  0  0  0  0  0
  -51.5215   -6.2047   25.5619 O   0  0  0  0  0  0  0  0  0  0  0  0
  -54.1515   -6.0297   24.7709 O   0  0  0  0  0  0  0  0  0  0  0  0
  -48.1125  -14.4527   21.8479 C   0  0  0  0  0  0  0  0  0  0  0  0
  -47.2945  -14.5047   20.5389 C   0  0  0  0  0  0  0  0  0  0  0  0
  -47.9005  -13.5097   19.5329 C   0  0  0  0  0  0  0  0  0  0  0  0
  -47.9325  -12.1007   20.1539 C   0  0  0  0  0  0  0  0  0  0  0  0
  -47.5575  -17.5877   24.9069 C   0  0  0  0  0  0  0  0  0  0  0  0
  -48.7175  -16.6647   24.4839 C   0  0  0  0  0  0  0  0  0  0  0  0
  -46.9835  -17.1097   26.2549 C   0  0  0  0  0  0  0  0  0  0  0  0
  -48.1015  -17.0247   27.3159 C   0  0  0  0  0  0  0  0  0  0  0  0
  -48.7235  -12.1517   21.4769 C   0  0  0  0  0  0  0  0  0  0  0  0
  -47.4765  -15.4007   22.8799 C   0  0  0  0  0  0  0  0  0  0  0  0
  -49.2455  -16.1407   26.7739 C   0  0  0  0  0  0  0  0  0  0  0  0
  -50.3975  -16.1157   27.7909 C   0  0  0  0  0  0  0  0  0  0  0  0
  -50.1275  -10.4477   22.3919 C   0  0  0  0  0  0  0  0  0  0  0  0
  -50.4835   -9.0907   21.7569 C   0  0  0  0  0  0  0  0  0  0  0  0
  -51.4715   -8.2657   22.5659 C   0  0  0  0  0  0  0  0  0  0  0  0
  -51.0515   -7.6037   23.7009 C   0  0  0  0  0  0  0  0  0  0  0  0
  -52.7895   -8.1757   22.1759 C   0  0  0  0  0  0  0  0  0  0  0  0
  -51.9415   -6.8567   24.4409 C   0  0  0  0  0  0  0  0  0  0  0  0
  -53.6855   -7.4297   22.9109 C   0  0  0  0  0  0  0  0  0  0  0  0
  -53.2665   -6.7687   24.0439 C   0  0  0  0  0  0  0  0  0  0  0  0
  -49.0505  -14.7367   21.6489 H   0  0  0  0  0  0  0  0  0  0  0  0
  -46.3475  -14.2557   20.7409 H   0  0  0  0  0  0  0  0  0  0  0  0
  -48.8355  -13.7897   19.3159 H   0  0  0  0  0  0  0  0  0  0  0  0
  -46.9975  -11.7957   20.3369 H   0  0  0  0  0  0  0  0  0  0  0  0
  -46.8345  -17.5517   24.2169 H   0  0  0  0  0  0  0  0  0  0  0  0
  -49.1695  -17.0197   23.6659 H   0  0  0  0  0  0  0  0  0  0  0  0
  -46.5975  -16.1947   26.1409 H   0  0  0  0  0  0  0  0  0  0  0  0
  -48.4545  -17.9417   27.5019 H   0  0  0  0  0  0  0  0  0  0  0  0
  -49.6595  -12.4587   21.3029 H   0  0  0  0  0  0  0  0  0  0  0  0
  -48.8915  -15.2167   26.6329 H   0  0  0  0  0  0  0  0  0  0  0  0
  -47.6995  -15.8367   19.0609 H   0  0  0  0  0  0  0  0  0  0  0  0
  -47.4785  -14.2017   17.6699 H   0  0  0  0  0  0  0  0  0  0  0  0
  -49.5415  -11.2137   19.2889 H   0  0  0  0  0  0  0  0  0  0  0  0
  -48.9875  -18.9787   25.2879 H   0  0  0  0  0  0  0  0  0  0  0  0
  -45.8375  -17.9927   27.6819 H   0  0  0  0  0  0  0  0  0  0  0  0
  -46.9575  -17.1417   28.9929 H   0  0  0  0  0  0  0  0  0  0  0  0
  -51.7795   -6.7037   26.3969 H   0  0  0  0  0  0  0  0  0  0  0  0
  -54.5235   -6.5567   25.5439 H   0  0  0  0  0  0  0  0  0  0  0  0
  -47.4805  -16.3327   22.5189 H   0  0  0  0  0  0  0  0  0  0  0  0
  -46.5385  -15.1017   23.0529 H   0  0  0  0  0  0  0  0  0  0  0  0
  -50.1485  -16.6797   28.5779 H   0  0  0  0  0  0  0  0  0  0  0  0
  -50.5655  -15.1767   28.0879 H   0  0  0  0  0  0  0  0  0  0  0  0
  -51.2285  -16.4767   27.3669 H   0  0  0  0  0  0  0  0  0  0  0  0
  -50.2025  -10.3787   23.3869 H   0  0  0  0  0  0  0  0  0  0  0  0
  -50.7605  -11.1407   22.0489 H   0  0  0  0  0  0  0  0  0  0  0  0
  -50.8765   -9.2587   20.8539 H   0  0  0  0  0  0  0  0  0  0  0  0
  -49.6355   -8.5617   21.7149 H   0  0  0  0  0  0  0  0  0  0  0  0
  -50.0955   -7.6667   23.9879 H   0  0  0  0  0  0  0  0  0  0  0  0
  -53.0985   -8.6547   21.3539 H   0  0  0  0  0  0  0  0  0  0  0  0
  -54.6405   -7.3687   22.6219 H   0  0  0  0  0  0  0  0  0  0  0  0
  1 13  1  0
  1 21  1  0
  2 22  1  0
  3 18  1  0
  3 23  1  0
  5 25  1  0
 11 30  1  0
 12 32  1  0
 13 14  1  0
 13 22  1  0
 14  4  1  0
 14 15  1  0
 15  6  1  0
 15 16  1  0
 16  7  1  0
 16 21  1  0
 17  8  1  0
 17 18  1  0
 17 19  1  0
 18  2  1  0
 19  9  1  0
 19 20  1  0
 20 10  1  0
 20 23  1  0
 21  5  1  0
 23 24  1  0
 25 26  1  0
 26 27  1  0
 27 28  2  0
 27 29  1  0
 28 30  1  0
 29 31  2  0
 30 32  2  0
 31 32  1  0
  4 43  1  0
  6 44  1  0
  7 45  1  0
  8 46  1  0
  9 47  1  0
 10 48  1  0
 11 49  1  0
 12 50  1  0
 13 33  1  0
 14 34  1  0
 15 35  1  0
 16 36  1  0
 17 37  1  0
 18 38  1  0
 19 39  1  0
 20 40  1  0
 21 41  1  0
 22 51  1  0
 22 52  1  0
 23 42  1  0
 24 53  1  0
 24 54  1  0
 24 55  1  0
 25 56  1  0
 25 57  1  0
 26 58  1  0
 26 59  1  0
 28 60  1  0
 29 61  1  0
 31 62  1  0
M  END
>  <BioMolTech Lead Finder dG>
-5.077

>  <BioMolTech Lead Finder VSscore>
-11.522

>  <BioMolTech Lead Finder Rank score>
-9.766

>  <BioMolTech Lead Finder LE>
-0.159

>  <BioMolTech Lead Finder Structure Name>
/var/folders/xd/y7jw_xv579q2qqq7kks92xd80000gn/T/LeadFinder_20272_1/Ligand_1.sdf

>  <BioMolTech Lead Finder SDF id>
0

>  <BioMolTech Lead Finder Pose rank>
0

>  <BioMolTech Lead Finder version>
2001 1, 19 January 2019

>  <PUBCHEM_COMPOUND_CID>
69634125

>  <PUBCHEM_COMPOUND_CANONICALIZED>
1

>  <PUBCHEM_CACTVS_COMPLEXITY>
581

>  <PUBCHEM_CACTVS_HBOND_ACCEPTOR>
12

>  <PUBCHEM_CACTVS_HBOND_DONOR>
8

>  <PUBCHEM_CACTVS_ROTATABLE_BOND>
7

>  <PUBCHEM_CACTVS_SUBSKEYS>
AAADceB4PAAAAAAAAAAAAAAAAAAAAAAAAAA0SIAAAAAAAAABAAAAGgAACAAADBSwmAMyDoAABgCAAiBCAAACAAAgIAAIiAAGiIgZNiKCERKicAElwBEPmAfA4LwOIAABAAAAQABAAAIAAACAAAAAAAAAAA==

>  <PUBCHEM_IUPAC_OPENEYE_NAME>
(2R,3R,4R,5R,6S)-2-[[(2R,3S,4S,5R,6R)-6-[2-(3,4-dihydroxyphenyl)ethoxy]-3,4,5-trihydroxy-tetrahydropyran-2-yl]methoxy]-6-methyl-tetrahydropyran-3,4,5-triol

>  <PUBCHEM_IUPAC_CAS_NAME>
(2R,3R,4R,5R,6S)-2-[[(2R,3S,4S,5R,6R)-6-[2-(3,4-dihydroxyphenyl)ethoxy]-3,4,5-trihydroxy-2-oxanyl]methoxy]-6-methyloxane-3,4,5-triol

>  <PUBCHEM_IUPAC_NAME_MARKUP>
(2<I>R</I>,3<I>R</I>,4<I>R</I>,5<I>R</I>,6<I>S</I>)-2-[[(2<I>R</I>,3<I>S</I>,4<I>S</I>,5<I>R</I>,6<I>R</I>)-6-[2-(3,4-dihydroxyphenyl)ethoxy]-3,4,5-trihydroxyoxan-2-yl]methoxy]-6-methyloxane-3,4,5-tri

>  <PUBCHEM_IUPAC_NAME>
(2R,3R,4R,5R,6S)-2-[[(2R,3S,4S,5R,6R)-6-[2-(3,4-dihydroxyphenyl)ethoxy]-3,4,5-trihydroxyoxan-2-yl]methoxy]-6-methyloxane-3,4,5-triol

>  <PUBCHEM_IUPAC_SYSTEMATIC_NAME>
(2R,3R,4R,5R,6S)-2-[[(2R,3S,4S,5R,6R)-6-[2-[3,4-bis(oxidanyl)phenyl]ethoxy]-3,4,5-tris(oxidanyl)oxan-2-yl]methoxy]-6-methyl-oxane-3,4,5-triol

>  <PUBCHEM_IUPAC_TRADITIONAL_NAME>
(2R,3R,4R,5R,6S)-2-[[(2R,3S,4S,5R,6R)-6-[2-(3,4-dihydroxyphenyl)ethoxy]-3,4,5-trihydroxy-tetrahydropyran-2-yl]methoxy]-6-methyl-tetrahydropyran-3,4,5-triol

>  <PUBCHEM_IUPAC_INCHI>
InChI=1S/C20H30O12/c1-8-13(23)15(25)17(27)20(31-8)30-7-12-14(24)16(26)18(28)19(32-12)29-5-4-9-2-3-10(21)11(22)6-9/h2-3,6,8,12-28H,4-5,7H2,1H3/t8-,12+,13-,14+,15+,16-,17+,18+,19+,20+/m0/s1

>  <PUBCHEM_IUPAC_INCHIKEY>
QIMGUQIHCNDUKU-OJJLXHDHSA-N

>  <PUBCHEM_XLOGP3_AA>
-2.5

>  <PUBCHEM_EXACT_MASS>
462.173726

>  <PUBCHEM_MOLECULAR_FORMULA>
C20H30O12

>  <PUBCHEM_MOLECULAR_WEIGHT>
462.4

>  <PUBCHEM_OPENEYE_CAN_SMILES>
CC1C(C(C(C(O1)OCC2C(C(C(C(O2)OCCC3=CC(=C(C=C3)O)O)O)O)O)O)O)O

>  <PUBCHEM_OPENEYE_ISO_SMILES>
C[C@H]1[C@@H]([C@H]([C@H]([C@@H](O1)OC[C@@H]2[C@H]([C@@H]([C@H]([C@@H](O2)OCCC3=CC(=C(C=C3)O)O)O)O)O)O)O)O

>  <PUBCHEM_CACTVS_TPSA>
199

>  <PUBCHEM_MONOISOTOPIC_WEIGHT>
462.173726

>  <PUBCHEM_TOTAL_CHARGE>
0

>  <PUBCHEM_HEAVY_ATOM_COUNT>
32

>  <PUBCHEM_ATOM_DEF_STEREO_COUNT>
10

>  <PUBCHEM_ATOM_UDEF_STEREO_COUNT>
0

>  <PUBCHEM_BOND_DEF_STEREO_COUNT>
0

>  <PUBCHEM_BOND_UDEF_STEREO_COUNT>
0

>  <PUBCHEM_ISOTOPIC_ATOM_COUNT>
0

>  <PUBCHEM_COMPONENT_COUNT>
1

>  <PUBCHEM_CACTVS_TAUTO_COUNT>
-1

>  <PUBCHEM_COORDINATE_TYPE>
1
5
255

>  <PUBCHEM_BONDANNOTATIONS>
20  10  5
13  22  5
18  2  5
23  24  6
27  28  8
27  29  8
28  30  8
29  31  8
30  32  8
31  32  8
14  4  6
21  5  5
15  6  5
16  7  6
17  8  6
19  9  6

>  <LF dG>
-5.077

>  <LF VSscore>
-11.522

>  <LF Rank Score>
-9.766

>  <LF LE>
-0.159

>  <Preferred Pose_cresset>
true

>  <Favorite_cresset>
false

>  <Protein_cresset>
6M2N_Dimer_P

>  <MW_cresset>
462.4

>  <#Atoms_cresset>
32

>  <SlogP_cresset>
-0.4

>  <TPSA_cresset>
198.8

>  <Flexibility_cresset>
15.9

>  <#RB_cresset>
15

>  <Rof5_cresset>
2

>  <Filename_cresset>
Forsythoside E.sdf

>  <Confs_cresset>
0

>  <Poses_cresset>
10

>  <_cresset_fieldpoints>
    -5     -48.240162     -13.163478      24.439001    -10.0949
    -5     -47.191864     -11.275259      17.736919    -10.5596
    -5     -45.939232     -17.049223      20.423225     -5.8157
    -5     -46.280998     -19.799232      25.687744    -11.2906
    -5     -47.188416      -9.736484      22.146542     -9.0003
    -5     -47.756813     -14.735273      29.111504     -6.7878
    -5     -51.884674      -4.087673      24.786606     -7.2056
    -5     -52.662239     -10.160006      24.695719     -1.6370
    -6     -50.947941     -12.333822      19.494869     11.9524
    -6     -48.719116     -15.490588      17.661304     14.0313
    -6     -50.184845     -19.415670      26.554819      4.7850
    -6     -46.039001     -18.523117      29.357609     10.6957
    -6     -53.554405      -7.193757      27.087940      7.7632
    -7     -45.710960     -12.435595      22.737247     -2.4214
    -7     -51.094017     -18.665981      25.779423     -2.2489
    -7     -49.109501     -17.347359      20.721563     -2.2323
    -7     -45.584106     -15.483939      18.045788     -1.6501
    -7     -45.576263     -17.264530      21.024313     -1.7518
    -7     -47.110058      -9.183388      21.447506     -2.1255
    -7     -47.733170      -8.819845      23.640594     -1.9810
    -7     -48.874367     -11.976183      16.952330     -1.5687
    -7     -47.196121     -20.249233      26.905220     -1.9160
    -7     -51.661430     -11.658379      19.698832     -2.3235
    -7     -47.669861      -8.982784      20.131844     -2.0742
    -7     -44.522827     -16.205963      24.281456     -1.7778
    -7     -45.187454     -15.772366      28.527660     -1.6052
    -7     -46.843864     -14.158968      28.031591     -1.8053
    -7     -48.674721     -17.725128      30.426006     -1.5535
    -7     -47.266136     -13.622438      25.464790     -2.7082
    -7     -52.621002     -10.503322      24.737272     -2.2843
    -7     -53.330597      -5.005762      26.922340     -1.5411
    -7     -53.551414      -8.272837      26.999294     -1.3918
    -7     -49.476448      -7.262828      26.676868     -1.2983
    -7     -51.220062     -14.159143      20.304054     -2.0005
    -7     -44.795288     -12.821299      18.973072     -1.5946
    -7     -49.588226     -13.382725      24.517082     -3.2286
    -7     -51.468628      -5.061756      21.376823     -1.8205
    -7     -56.593315      -6.363929      24.373821     -1.2529
    -8     -48.074127     -13.417171      20.596762      5.1933
    -8     -47.982651     -16.792048      26.089813      4.8393
    -8     -49.440372     -16.482391      27.576176      4.4754
    -8     -47.305946     -14.965208      21.810772      4.2908
    -8     -52.350941      -7.556486      23.259224      6.9315
    -8     -47.661922     -16.921543      23.807306      3.3609

$$$$
Untitled
  xed2sdf_05210316543D
 
 62 64  0  0  1  0  0  0  0  0999 V2000
  -48.2460  -13.1333   22.3938 O   0  0  0  0  0  0  0  0  0  0  0  0
  -48.2160  -15.3523   24.1498 O   0  0  0  0  0  0  0  0  0  0  0  0
  -49.7590  -16.6303   25.5208 O   0  0  0  0  0  0  0  0  0  0  0  0
  -47.2010  -15.8103   20.0238 O   0  0  0  0  0  0  0  0  0  0  0  0
  -49.0010  -10.8853   22.0218 O   0  0  0  0  0  0  0  0  0  0  0  0
  -47.1350  -13.4923   18.3498 O   0  0  0  0  0  0  0  0  0  0  0  0
  -48.6720  -11.2263   19.2348 O   0  0  0  0  0  0  0  0  0  0  0  0
  -48.0480  -18.9313   25.0258 O   0  0  0  0  0  0  0  0  0  0  0  0
  -45.9790  -17.9953   26.7258 O   0  0  0  0  0  0  0  0  0  0  0  0
  -47.6480  -16.5023   28.5818 O   0  0  0  0  0  0  0  0  0  0  0  0
  -51.0660   -6.3713   25.6328 O   0  0  0  0  0  0  0  0  0  0  0  0
  -53.7490   -5.9163   25.2238 O   0  0  0  0  0  0  0  0  0  0  0  0
  -48.1360  -14.4723   21.8648 C   0  0  0  0  0  0  0  0  0  0  0  0
  -47.2880  -14.4873   20.5758 C   0  0  0  0  0  0  0  0  0  0  0  0
  -47.9210  -13.5293   19.5498 C   0  0  0  0  0  0  0  0  0  0  0  0
  -48.0400  -12.1213   20.1618 C   0  0  0  0  0  0  0  0  0  0  0  0
  -47.5800  -17.5773   24.9348 C   0  0  0  0  0  0  0  0  0  0  0  0
  -48.7330  -16.6503   24.5038 C   0  0  0  0  0  0  0  0  0  0  0  0
  -47.0190  -17.1073   26.2918 C   0  0  0  0  0  0  0  0  0  0  0  0
  -48.1490  -17.0253   27.3398 C   0  0  0  0  0  0  0  0  0  0  0  0
  -48.8580  -12.2073   21.4668 C   0  0  0  0  0  0  0  0  0  0  0  0
  -47.4760  -15.3803   22.9168 C   0  0  0  0  0  0  0  0  0  0  0  0
  -49.2850  -16.1353   26.7898 C   0  0  0  0  0  0  0  0  0  0  0  0
  -50.4480  -16.1133   27.7948 C   0  0  0  0  0  0  0  0  0  0  0  0
  -50.3430  -10.6253   22.4678 C   0  0  0  0  0  0  0  0  0  0  0  0
  -50.9040   -9.3693   21.7758 C   0  0  0  0  0  0  0  0  0  0  0  0
  -51.6710   -8.4383   22.7008 C   0  0  0  0  0  0  0  0  0  0  0  0
  -51.0220   -7.8213   23.7508 C   0  0  0  0  0  0  0  0  0  0  0  0
  -53.0140   -8.2073   22.5028 C   0  0  0  0  0  0  0  0  0  0  0  0
  -51.7110   -6.9783   24.5958 C   0  0  0  0  0  0  0  0  0  0  0  0
  -53.7090   -7.3653   23.3438 C   0  0  0  0  0  0  0  0  0  0  0  0
  -53.0620   -6.7493   24.3918 C   0  0  0  0  0  0  0  0  0  0  0  0
  -49.0530  -14.8043   21.6468 H   0  0  0  0  0  0  0  0  0  0  0  0
  -46.3590  -14.1883   20.7968 H   0  0  0  0  0  0  0  0  0  0  0  0
  -48.8350  -13.8583   19.3138 H   0  0  0  0  0  0  0  0  0  0  0  0
  -47.1270  -11.7673   20.3638 H   0  0  0  0  0  0  0  0  0  0  0  0
  -46.8500  -17.5393   24.2528 H   0  0  0  0  0  0  0  0  0  0  0  0
  -49.1770  -16.9993   23.6788 H   0  0  0  0  0  0  0  0  0  0  0  0
  -46.6300  -16.1923   26.1858 H   0  0  0  0  0  0  0  0  0  0  0  0
  -48.5060  -17.9413   27.5178 H   0  0  0  0  0  0  0  0  0  0  0  0
  -49.7720  -12.5633   21.2738 H   0  0  0  0  0  0  0  0  0  0  0  0
  -48.9270  -15.2113   26.6568 H   0  0  0  0  0  0  0  0  0  0  0  0
  -47.7000  -15.8763   19.1528 H   0  0  0  0  0  0  0  0  0  0  0  0
  -47.4500  -14.1773   17.6828 H   0  0  0  0  0  0  0  0  0  0  0  0
  -49.6710  -11.2163   19.3578 H   0  0  0  0  0  0  0  0  0  0  0  0
  -49.0130  -18.9673   25.3098 H   0  0  0  0  0  0  0  0  0  0  0  0
  -45.8710  -17.9763   27.7248 H   0  0  0  0  0  0  0  0  0  0  0  0
  -47.0080  -17.1433   29.0188 H   0  0  0  0  0  0  0  0  0  0  0  0
  -51.3730   -6.7343   26.5198 H   0  0  0  0  0  0  0  0  0  0  0  0
  -54.2660   -6.4313   25.9158 H   0  0  0  0  0  0  0  0  0  0  0  0
  -47.4460  -16.3183   22.5708 H   0  0  0  0  0  0  0  0  0  0  0  0
  -46.5490  -15.0463   23.0908 H   0  0  0  0  0  0  0  0  0  0  0  0
  -50.2090  -16.6803   28.5818 H   0  0  0  0  0  0  0  0  0  0  0  0
  -50.6170  -15.1743   28.0948 H   0  0  0  0  0  0  0  0  0  0  0  0
  -51.2750  -16.4693   27.3598 H   0  0  0  0  0  0  0  0  0  0  0  0
  -50.3430  -10.4863   23.4578 H   0  0  0  0  0  0  0  0  0  0  0  0
  -50.9200  -11.4073   22.2338 H   0  0  0  0  0  0  0  0  0  0  0  0
  -51.5170   -9.6603   21.0418 H   0  0  0  0  0  0  0  0  0  0  0  0
  -50.1170   -8.8523   21.4368 H   0  0  0  0  0  0  0  0  0  0  0  0
  -50.0470   -7.9863   23.8988 H   0  0  0  0  0  0  0  0  0  0  0  0
  -53.4880   -8.6533   21.7428 H   0  0  0  0  0  0  0  0  0  0  0  0
  -54.6840   -7.2023   23.1928 H   0  0  0  0  0  0  0  0  0  0  0  0
  1 13  1  0
  1 21  1  0
  2 22  1  0
  3 18  1  0
  3 23  1  0
  5 25  1  0
 11 30  1  0
 12 32  1  0
 13 14  1  0
 13 22  1  0
 14  4  1  0
 14 15  1  0
 15  6  1  0
 15 16  1  0
 16  7  1  0
 16 21  1  0
 17  8  1  0
 17 18  1  0
 17 19  1  0
 18  2  1  0
 19  9  1  0
 19 20  1  0
 20 10  1  0
 20 23  1  0
 21  5  1  0
 23 24  1  0
 25 26  1  0
 26 27  1  0
 27 28  2  0
 27 29  1  0
 28 30  1  0
 29 31  2  0
 30 32  2  0
 31 32  1  0
  4 43  1  0
  6 44  1  0
  7 45  1  0
  8 46  1  0
  9 47  1  0
 10 48  1  0
 11 49  1  0
 12 50  1  0
 13 33  1  0
 14 34  1  0
 15 35  1  0
 16 36  1  0
 17 37  1  0
 18 38  1  0
 19 39  1  0
 20 40  1  0
 21 41  1  0
 22 51  1  0
 22 52  1  0
 23 42  1  0
 24 53  1  0
 24 54  1  0
 24 55  1  0
 25 56  1  0
 25 57  1  0
 26 58  1  0
 26 59  1  0
 28 60  1  0
 29 61  1  0
 31 62  1  0
M  END
>  <BioMolTech Lead Finder dG>
-4.703

>  <BioMolTech Lead Finder VSscore>
-11.457

>  <BioMolTech Lead Finder Rank score>
-9.882

>  <BioMolTech Lead Finder LE>
-0.147

>  <BioMolTech Lead Finder Structure Name>
/var/folders/xd/y7jw_xv579q2qqq7kks92xd80000gn/T/LeadFinder_15589_1/Ligand_1.sdf

>  <BioMolTech Lead Finder SDF id>
0

>  <BioMolTech Lead Finder Pose rank>
0

>  <BioMolTech Lead Finder version>
2001 1, 19 January 2019

>  <PUBCHEM_COMPOUND_CID>
69634125

>  <PUBCHEM_COMPOUND_CANONICALIZED>
1

>  <PUBCHEM_CACTVS_COMPLEXITY>
581

>  <PUBCHEM_CACTVS_HBOND_ACCEPTOR>
12

>  <PUBCHEM_CACTVS_HBOND_DONOR>
8

>  <PUBCHEM_CACTVS_ROTATABLE_BOND>
7

>  <PUBCHEM_CACTVS_SUBSKEYS>
AAADceB4PAAAAAAAAAAAAAAAAAAAAAAAAAA0SIAAAAAAAAABAAAAGgAACAAADBSwmAMyDoAABgCAAiBCAAACAAAgIAAIiAAGiIgZNiKCERKicAElwBEPmAfA4LwOIAABAAAAQABAAAIAAACAAAAAAAAAAA==

>  <PUBCHEM_IUPAC_OPENEYE_NAME>
(2R,3R,4R,5R,6S)-2-[[(2R,3S,4S,5R,6R)-6-[2-(3,4-dihydroxyphenyl)ethoxy]-3,4,5-trihydroxy-tetrahydropyran-2-yl]methoxy]-6-methyl-tetrahydropyran-3,4,5-triol

>  <PUBCHEM_IUPAC_CAS_NAME>
(2R,3R,4R,5R,6S)-2-[[(2R,3S,4S,5R,6R)-6-[2-(3,4-dihydroxyphenyl)ethoxy]-3,4,5-trihydroxy-2-oxanyl]methoxy]-6-methyloxane-3,4,5-triol

>  <PUBCHEM_IUPAC_NAME_MARKUP>
(2<I>R</I>,3<I>R</I>,4<I>R</I>,5<I>R</I>,6<I>S</I>)-2-[[(2<I>R</I>,3<I>S</I>,4<I>S</I>,5<I>R</I>,6<I>R</I>)-6-[2-(3,4-dihydroxyphenyl)ethoxy]-3,4,5-trihydroxyoxan-2-yl]methoxy]-6-methyloxane-3,4,5-tri

>  <PUBCHEM_IUPAC_NAME>
(2R,3R,4R,5R,6S)-2-[[(2R,3S,4S,5R,6R)-6-[2-(3,4-dihydroxyphenyl)ethoxy]-3,4,5-trihydroxyoxan-2-yl]methoxy]-6-methyloxane-3,4,5-triol

>  <PUBCHEM_IUPAC_SYSTEMATIC_NAME>
(2R,3R,4R,5R,6S)-2-[[(2R,3S,4S,5R,6R)-6-[2-[3,4-bis(oxidanyl)phenyl]ethoxy]-3,4,5-tris(oxidanyl)oxan-2-yl]methoxy]-6-methyl-oxane-3,4,5-triol

>  <PUBCHEM_IUPAC_TRADITIONAL_NAME>
(2R,3R,4R,5R,6S)-2-[[(2R,3S,4S,5R,6R)-6-[2-(3,4-dihydroxyphenyl)ethoxy]-3,4,5-trihydroxy-tetrahydropyran-2-yl]methoxy]-6-methyl-tetrahydropyran-3,4,5-triol

>  <PUBCHEM_IUPAC_INCHI>
InChI=1S/C20H30O12/c1-8-13(23)15(25)17(27)20(31-8)30-7-12-14(24)16(26)18(28)19(32-12)29-5-4-9-2-3-10(21)11(22)6-9/h2-3,6,8,12-28H,4-5,7H2,1H3/t8-,12+,13-,14+,15+,16-,17+,18+,19+,20+/m0/s1

>  <PUBCHEM_IUPAC_INCHIKEY>
QIMGUQIHCNDUKU-OJJLXHDHSA-N

>  <PUBCHEM_XLOGP3_AA>
-2.5

>  <PUBCHEM_EXACT_MASS>
462.173726

>  <PUBCHEM_MOLECULAR_FORMULA>
C20H30O12

>  <PUBCHEM_MOLECULAR_WEIGHT>
462.4

>  <PUBCHEM_OPENEYE_CAN_SMILES>
CC1C(C(C(C(O1)OCC2C(C(C(C(O2)OCCC3=CC(=C(C=C3)O)O)O)O)O)O)O)O

>  <PUBCHEM_OPENEYE_ISO_SMILES>
C[C@H]1[C@@H]([C@H]([C@H]([C@@H](O1)OC[C@@H]2[C@H]([C@@H]([C@H]([C@@H](O2)OCCC3=CC(=C(C=C3)O)O)O)O)O)O)O)O

>  <PUBCHEM_CACTVS_TPSA>
199

>  <PUBCHEM_MONOISOTOPIC_WEIGHT>
462.173726

>  <PUBCHEM_TOTAL_CHARGE>
0

>  <PUBCHEM_HEAVY_ATOM_COUNT>
32

>  <PUBCHEM_ATOM_DEF_STEREO_COUNT>
10

>  <PUBCHEM_ATOM_UDEF_STEREO_COUNT>
0

>  <PUBCHEM_BOND_DEF_STEREO_COUNT>
0

>  <PUBCHEM_BOND_UDEF_STEREO_COUNT>
0

>  <PUBCHEM_ISOTOPIC_ATOM_COUNT>
0

>  <PUBCHEM_COMPONENT_COUNT>
1

>  <PUBCHEM_CACTVS_TAUTO_COUNT>
-1

>  <PUBCHEM_COORDINATE_TYPE>
1
5
255

>  <PUBCHEM_BONDANNOTATIONS>
20  10  5
13  22  5
18  2  5
23  24  6
27  28  8
27  29  8
28  30  8
29  31  8
30  32  8
31  32  8
14  4  6
21  5  5
15  6  5
16  7  6
17  8  6
19  9  6

>  <LF dG>
-4.703

>  <LF VSscore>
-11.457

>  <LF Rank Score>
-9.882

>  <LF LE>
-0.147

>  <Preferred Pose_cresset>
true

>  <Favorite_cresset>
false

>  <Protein_cresset>
6M2N_Dimer_P

>  <MW_cresset>
462.4

>  <#Atoms_cresset>
32

>  <SlogP_cresset>
-0.4

>  <TPSA_cresset>
198.8

>  <Flexibility_cresset>
15.9

>  <#RB_cresset>
15

>  <Rof5_cresset>
2

>  <Filename_cresset>
Forsythoside E.sdf

>  <Confs_cresset>
0

>  <Poses_cresset>
10

>  <_cresset_fieldpoints>
    -5     -47.540359      -9.593340      21.943954     -8.9312
    -5     -47.281502     -11.322363      17.741386    -10.8820
    -5     -48.354824     -13.178584      24.452747    -10.0437
    -5     -45.728271     -16.892403      20.419579     -6.2230
    -5     -46.324730     -19.798244      25.723810    -11.3068
    -5     -47.845062     -14.751987      29.168446     -6.7325
    -5     -51.018494      -4.305805      24.880630     -7.4220
    -5     -52.575100     -10.185209      25.075741     -1.9086
    -6     -51.121620     -12.293941      19.554043     11.5201
    -6     -48.647003     -15.543625      17.697426     13.7613
    -6     -50.231487     -19.408619      26.550772      4.8208
    -6     -46.034512     -18.481441      29.410534     10.6708
    -6     -53.164566      -7.121955      27.415092      6.9036
    -7     -45.598297     -15.504744      18.075943     -1.6527
    -7     -49.238716     -15.733012      17.518747     -1.3024
    -7     -44.549782     -16.173016      24.339520     -1.7850
    -7     -44.842663     -12.678213      19.059275     -1.5921
    -7     -45.875908     -12.323687      22.808708     -2.4267
    -7     -47.713089      -8.895656      22.672102     -2.2167
    -7     -47.518463      -9.082727      21.555487     -2.2347
    -7     -48.964615     -12.064798      16.956808     -1.5492
    -7     -47.245262     -20.251730      26.918608     -1.9129
    -7     -48.973534     -17.415237      20.744644     -2.2558
    -7     -45.270195     -15.720459      28.576328     -1.6044
    -7     -45.492096     -17.199247      21.113897     -1.7478
    -7     -46.887939     -14.166954      28.080269     -1.8065
    -7     -48.742455     -17.724337      30.445190     -1.5559
    -7     -52.630630     -10.569653      25.040051     -2.2537
    -7     -52.697998      -4.980172      27.227148     -1.5055
    -7     -49.312954      -7.996101      26.657259     -1.3069
    -7     -49.715157     -13.438941      24.501637     -3.3264
    -7     -53.742493      -3.568663      24.365589     -1.0378
    -7     -53.206558      -7.932024      27.477203     -1.3820
    -7     -47.275185     -13.629362      25.527733     -2.6831
    -7     -56.146027      -7.737770      25.592981     -1.1568
    -7     -51.216221     -14.362453      20.262012     -1.9957
    -7     -50.306030     -12.438147      17.614107     -1.5267
    -7     -51.126625     -18.650459      25.761341     -2.2500
    -7     -53.555748     -11.425409      21.845192     -1.8873
    -7     -51.486748      -5.270121      21.452957     -1.8254
    -7     -56.147640      -8.791590      21.419647     -1.0013
    -7     -56.200809      -5.571933      24.842762     -1.2566
    -7     -51.716087     -12.032866      19.698471     -2.3026
    -8     -48.016144     -16.789749      26.116367      4.8398
    -8     -48.123207     -13.441669      20.610561      5.1929
    -8     -49.491581     -16.477509      27.588112      4.4754
    -8     -47.313293     -14.944326      21.846600      4.2913
    -8     -52.361069      -7.638148      23.499348      6.9314
    -8     -51.023842      -8.960026      22.764742      5.5900
    -8     -47.672237     -16.908348      23.838810      3.3609
    -8     -51.630363      -8.503534      22.688335      5.6909

$$$$
W_Lopinavir_D
  xed2sdf_05210316543D
 
 94 97  0  0  1  0  0  0  0  0999 V2000
  -49.1221   -9.0597   16.9240 O   0  0  0  0  0  0  0  0  0  0  0  0
  -46.2821  -10.0447   21.3060 O   0  0  0  0  0  0  0  0  0  0  0  0
  -45.2751  -14.1347   18.7940 O   0  0  0  0  0  0  0  0  0  0  0  0
  -48.6381   -5.1577   18.8740 O   0  0  0  0  0  0  0  0  0  0  0  0
  -49.3861   -4.5097   15.9820 O   0  0  0  0  0  0  0  0  0  0  0  0
  -45.2661  -12.8137   20.6280 N   0  0  0  0  0  0  0  0  0  0  0  0
  -46.3311  -10.1587   19.0320 N   0  0  0  0  0  0  0  0  0  0  0  0
  -50.0211   -6.8027   18.1130 N   0  0  0  0  0  0  0  0  0  0  0  0
  -43.4931  -14.2717   20.1360 N   0  0  0  0  0  0  0  0  0  0  0  0
  -46.0541   -8.7247   18.8580 C   0  0  0  0  0  0  0  0  0  0  0  0
  -46.5581  -12.1907   20.2700 C   0  0  0  0  0  0  0  0  0  0  0  0
  -47.1491   -8.0637   17.9970 C   0  0  0  0  0  0  0  0  0  0  0  0
  -48.5201   -8.7437   18.1880 C   0  0  0  0  0  0  0  0  0  0  0  0
  -47.7301  -12.6057   21.1920 C   0  0  0  0  0  0  0  0  0  0  0  0
  -49.4571   -7.8297   19.0030 C   0  0  0  0  0  0  0  0  0  0  0  0
  -44.6771   -8.6347   18.1680 C   0  0  0  0  0  0  0  0  0  0  0  0
  -46.3881  -10.6827   20.2680 C   0  0  0  0  0  0  0  0  0  0  0  0
  -44.6551  -12.4127   21.9080 C   0  0  0  0  0  0  0  0  0  0  0  0
  -43.6851  -13.4717   22.4440 C   0  0  0  0  0  0  0  0  0  0  0  0
  -50.5801   -8.6667   19.6530 C   0  0  0  0  0  0  0  0  0  0  0  0
  -44.7001  -13.7477   19.8170 C   0  0  0  0  0  0  0  0  0  0  0  0
  -48.0371  -14.1057   21.0530 C   0  0  0  0  0  0  0  0  0  0  0  0
  -49.0091  -11.8307   20.8330 C   0  0  0  0  0  0  0  0  0  0  0  0
  -42.7251  -13.8117   21.3020 C   0  0  0  0  0  0  0  0  0  0  0  0
  -43.5841   -9.5137   18.7580 C   0  0  0  0  0  0  0  0  0  0  0  0
  -50.9511   -8.2487   21.0690 C   0  0  0  0  0  0  0  0  0  0  0  0
  -49.5331   -5.5527   18.1410 C   0  0  0  0  0  0  0  0  0  0  0  0
  -43.1601   -9.3257   20.0560 C   0  0  0  0  0  0  0  0  0  0  0  0
  -43.0131  -10.5087   17.9960 C   0  0  0  0  0  0  0  0  0  0  0  0
  -52.2401   -7.8657   21.3680 C   0  0  0  0  0  0  0  0  0  0  0  0
  -49.9971   -8.2527   22.0630 C   0  0  0  0  0  0  0  0  0  0  0  0
  -50.2251   -4.6527   17.1470 C   0  0  0  0  0  0  0  0  0  0  0  0
  -42.1731  -10.1257   20.5860 C   0  0  0  0  0  0  0  0  0  0  0  0
  -42.0261  -11.3097   18.5240 C   0  0  0  0  0  0  0  0  0  0  0  0
  -41.6061  -11.1187   19.8200 C   0  0  0  0  0  0  0  0  0  0  0  0
  -52.5731   -7.4907   22.6500 C   0  0  0  0  0  0  0  0  0  0  0  0
  -50.3281   -7.8787   23.3450 C   0  0  0  0  0  0  0  0  0  0  0  0
  -51.6171   -7.4987   23.6390 C   0  0  0  0  0  0  0  0  0  0  0  0
  -49.3141   -3.2947   15.4200 C   0  0  0  0  0  0  0  0  0  0  0  0
  -50.4141   -2.7227   14.7880 C   0  0  0  0  0  0  0  0  0  0  0  0
  -48.1261   -2.5777   15.4860 C   0  0  0  0  0  0  0  0  0  0  0  0
  -50.3061   -1.4757   14.2200 C   0  0  0  0  0  0  0  0  0  0  0  0
  -48.0371   -1.3307   14.9130 C   0  0  0  0  0  0  0  0  0  0  0  0
  -51.7821   -3.3797   14.6690 C   0  0  0  0  0  0  0  0  0  0  0  0
  -46.8831   -3.1207   16.1730 C   0  0  0  0  0  0  0  0  0  0  0  0
  -49.1231   -0.7787   14.2770 C   0  0  0  0  0  0  0  0  0  0  0  0
  -46.0491   -8.2437   19.7340 H   0  0  0  0  0  0  0  0  0  0  0  0
  -46.8081  -12.5207   19.3600 H   0  0  0  0  0  0  0  0  0  0  0  0
  -48.3761   -9.5987   18.6880 H   0  0  0  0  0  0  0  0  0  0  0  0
  -48.9411   -7.3817   19.7330 H   0  0  0  0  0  0  0  0  0  0  0  0
  -48.4341   -9.3697   16.2580 H   0  0  0  0  0  0  0  0  0  0  0  0
  -46.4531  -10.6627   18.3210 H   0  0  0  0  0  0  0  0  0  0  0  0
  -50.6721   -7.0167   17.5590 H   0  0  0  0  0  0  0  0  0  0  0  0
  -43.1721  -14.9287   19.6450 H   0  0  0  0  0  0  0  0  0  0  0  0
  -46.8871   -8.1247   17.0340 H   0  0  0  0  0  0  0  0  0  0  0  0
  -47.2351   -7.1097   18.2840 H   0  0  0  0  0  0  0  0  0  0  0  0
  -47.4511  -12.3977   22.1290 H   0  0  0  0  0  0  0  0  0  0  0  0
  -44.3701   -7.6837   18.2160 H   0  0  0  0  0  0  0  0  0  0  0  0
  -44.8181   -8.9667   17.2350 H   0  0  0  0  0  0  0  0  0  0  0  0
  -45.3801  -12.2667   22.5810 H   0  0  0  0  0  0  0  0  0  0  0  0
  -44.1341  -11.5747   21.7500 H   0  0  0  0  0  0  0  0  0  0  0  0
  -44.1881  -14.2877   22.7290 H   0  0  0  0  0  0  0  0  0  0  0  0
  -43.1871  -13.1297   23.2410 H   0  0  0  0  0  0  0  0  0  0  0  0
  -50.2851   -9.6217   19.6760 H   0  0  0  0  0  0  0  0  0  0  0  0
  -51.3971   -8.5217   19.0960 H   0  0  0  0  0  0  0  0  0  0  0  0
  -48.9881  -14.2187   20.7640 H   0  0  0  0  0  0  0  0  0  0  0  0
  -47.4281  -14.5137   20.3720 H   0  0  0  0  0  0  0  0  0  0  0  0
  -47.8941  -14.5617   21.9310 H   0  0  0  0  0  0  0  0  0  0  0  0
  -49.7301  -12.4837   20.5970 H   0  0  0  0  0  0  0  0  0  0  0  0
  -49.2991  -11.2777   21.6140 H   0  0  0  0  0  0  0  0  0  0  0  0
  -48.8311  -11.2277   20.0550 H   0  0  0  0  0  0  0  0  0  0  0  0
  -42.1961  -12.9997   21.0550 H   0  0  0  0  0  0  0  0  0  0  0  0
  -42.1001  -14.5347   21.5980 H   0  0  0  0  0  0  0  0  0  0  0  0
  -43.5701   -8.6057   20.6140 H   0  0  0  0  0  0  0  0  0  0  0  0
  -43.3171  -10.6507   17.0540 H   0  0  0  0  0  0  0  0  0  0  0  0
  -52.9371   -7.8587   20.6510 H   0  0  0  0  0  0  0  0  0  0  0  0
  -49.0591   -8.5277   21.8510 H   0  0  0  0  0  0  0  0  0  0  0  0
  -51.1031   -5.0527   16.8820 H   0  0  0  0  0  0  0  0  0  0  0  0
  -50.3881   -3.7567   17.5590 H   0  0  0  0  0  0  0  0  0  0  0  0
  -41.8681   -9.9857   21.5280 H   0  0  0  0  0  0  0  0  0  0  0  0
  -41.6151  -12.0297   17.9660 H   0  0  0  0  0  0  0  0  0  0  0  0
  -40.8891  -11.6997   20.2050 H   0  0  0  0  0  0  0  0  0  0  0  0
  -53.5101   -7.2137   22.8630 H   0  0  0  0  0  0  0  0  0  0  0  0
  -49.6321   -7.8837   24.0630 H   0  0  0  0  0  0  0  0  0  0  0  0
  -51.8591   -7.2277   24.5710 H   0  0  0  0  0  0  0  0  0  0  0  0
  -51.0971   -1.0707   13.7610 H   0  0  0  0  0  0  0  0  0  0  0  0
  -47.1771   -0.8227   14.9580 H   0  0  0  0  0  0  0  0  0  0  0  0
  -52.3961   -2.7647   14.1760 H   0  0  0  0  0  0  0  0  0  0  0  0
  -51.6991   -4.2437   14.1720 H   0  0  0  0  0  0  0  0  0  0  0  0
  -52.1481   -3.5637   15.5820 H   0  0  0  0  0  0  0  0  0  0  0  0
  -46.1481   -2.4467   16.0970 H   0  0  0  0  0  0  0  0  0  0  0  0
  -47.0801   -3.2977   17.1370 H   0  0  0  0  0  0  0  0  0  0  0  0
  -46.6031   -3.9757   15.7360 H   0  0  0  0  0  0  0  0  0  0  0  0
  -49.0531    0.1273   13.8580 H   0  0  0  0  0  0  0  0  0  0  0  0
  2 17  2  0
  3 21  2  0
  4 27  2  0
  5 32  1  0
  5 39  1  0
  6 11  1  0
  6 18  1  0
  6 21  1  0
  7 17  1  0
  8 27  1  0
  9 21  1  0
  9 24  1  0
 10  7  1  0
 10 12  1  0
 10 16  1  0
 11 14  1  0
 11 17  1  0
 12 13  1  0
 13  1  1  0
 13 15  1  0
 14 22  1  0
 14 23  1  0
 15  8  1  0
 15 20  1  0
 16 25  1  0
 18 19  1  0
 19 24  1  0
 20 26  1  0
 25 28  2  0
 25 29  1  0
 26 30  2  0
 26 31  1  0
 27 32  1  0
 28 33  1  0
 29 34  2  0
 30 36  1  0
 31 37  2  0
 33 35  2  0
 34 35  1  0
 36 38  2  0
 37 38  1  0
 39 40  2  0
 39 41  1  0
 40 42  1  0
 40 44  1  0
 41 43  2  0
 41 45  1  0
 42 46  2  0
 43 46  1  0
  1 51  1  0
  7 52  1  0
  8 53  1  0
  9 54  1  0
 10 47  1  0
 11 48  1  0
 12 55  1  0
 12 56  1  0
 13 49  1  0
 14 57  1  0
 15 50  1  0
 16 58  1  0
 16 59  1  0
 18 60  1  0
 18 61  1  0
 19 62  1  0
 19 63  1  0
 20 64  1  0
 20 65  1  0
 22 66  1  0
 22 67  1  0
 22 68  1  0
 23 69  1  0
 23 70  1  0
 23 71  1  0
 24 72  1  0
 24 73  1  0
 28 74  1  0
 29 75  1  0
 30 76  1  0
 31 77  1  0
 32 78  1  0
 32 79  1  0
 33 80  1  0
 34 81  1  0
 35 82  1  0
 36 83  1  0
 37 84  1  0
 38 85  1  0
 42 86  1  0
 43 87  1  0
 44 88  1  0
 44 89  1  0
 44 90  1  0
 45 91  1  0
 45 92  1  0
 45 93  1  0
 46 94  1  0
M  END
>  <BioMolTech Lead Finder dG>
-8.774

>  <BioMolTech Lead Finder VSscore>
-11.519

>  <BioMolTech Lead Finder Rank score>
-11.967

>  <BioMolTech Lead Finder LE>
-0.191

>  <BioMolTech Lead Finder Structure Name>
/var/folders/xd/y7jw_xv579q2qqq7kks92xd80000gn/T/LeadFinder_20271_1/Ligand_1.sdf

>  <BioMolTech Lead Finder SDF id>
0

>  <BioMolTech Lead Finder Pose rank>
0

>  <BioMolTech Lead Finder version>
2001 1, 19 January 2019

>  <PUBCHEM_COMPOUND_CID>
92727

>  <PUBCHEM_COMPOUND_CANONICALIZED>
1

>  <PUBCHEM_CACTVS_COMPLEXITY>
940

>  <PUBCHEM_CACTVS_HBOND_ACCEPTOR>
5

>  <PUBCHEM_CACTVS_HBOND_DONOR>
4

>  <PUBCHEM_CACTVS_ROTATABLE_BOND>
15

>  <PUBCHEM_CACTVS_SUBSKEYS>
AAADcfB/uAAAAAAAAAAAAAAAAAAAAAAAAAA8YMEAAAAAAAABUAAAHgAQCAAADTzhmAYzBoPABgCIAiFSEAICCAAgIAAIiIHMCIiOdjKE8T+XeCCu1hOYqAeQwPAOAAACAAAIAAAAAAQAABAAAAAAAAAAAA==

>  <PUBCHEM_IUPAC_OPENEYE_NAME>
(2S)-N-[(1S,3S,4S)-1-benzyl-4-[[2-(2,6-dimethylphenoxy)acetyl]amino]-3-hydroxy-5-phenyl-pentyl]-3-methyl-2-(2-oxohexahydropyrimidin-1-yl)butanamide

>  <PUBCHEM_IUPAC_CAS_NAME>
(2S)-N-[(2S,4S,5S)-5-[[2-(2,6-dimethylphenoxy)-1-oxoethyl]amino]-4-hydroxy-1,6-diphenylhexan-2-yl]-3-methyl-2-(2-oxo-1,3-diazinan-1-yl)butanamide

>  <PUBCHEM_IUPAC_NAME_MARKUP>
(2<I>S</I>)-<I>N</I>-[(2<I>S</I>,4<I>S</I>,5<I>S</I>)-5-[[2-(2,6-dimethylphenoxy)acetyl]amino]-4-hydroxy-1,6-diphenylhexan-2-yl]-3-methyl-2-(2-oxo-1,3-diazinan-1-yl)butanamide

>  <PUBCHEM_IUPAC_NAME>
(2S)-N-[(2S,4S,5S)-5-[[2-(2,6-dimethylphenoxy)acetyl]amino]-4-hydroxy-1,6-diphenylhexan-2-yl]-3-methyl-2-(2-oxo-1,3-diazinan-1-yl)butanamide

>  <PUBCHEM_IUPAC_SYSTEMATIC_NAME>
(2S)-N-[(2S,4S,5S)-5-[2-(2,6-dimethylphenoxy)ethanoylamino]-4-oxidanyl-1,6-diphenyl-hexan-2-yl]-3-methyl-2-(2-oxidanylidene-1,3-diazinan-1-yl)butanamide

>  <PUBCHEM_IUPAC_TRADITIONAL_NAME>
(2S)-N-[(1S,3S,4S)-1-benzyl-4-[[2-(2,6-dimethylphenoxy)acetyl]amino]-3-hydroxy-5-phenyl-pentyl]-2-(2-ketohexahydropyrimidin-1-yl)-3-methyl-butyramide

>  <PUBCHEM_IUPAC_INCHI>
InChI=1S/C37H48N4O5/c1-25(2)34(41-20-12-19-38-37(41)45)36(44)39-30(21-28-15-7-5-8-16-28)23-32(42)31(22-29-17-9-6-10-18-29)40-33(43)24-46-35-26(3)13-11-14-27(35)4/h5-11,13-18,25,30-32,34,42H,12,19-24H2

>  <PUBCHEM_IUPAC_INCHIKEY>
KJHKTHWMRKYKJE-SUGCFTRWSA-N

>  <PUBCHEM_XLOGP3_AA>
5.9

>  <PUBCHEM_EXACT_MASS>
628.362471

>  <PUBCHEM_MOLECULAR_FORMULA>
C37H48N4O5

>  <PUBCHEM_MOLECULAR_WEIGHT>
628.8

>  <PUBCHEM_OPENEYE_CAN_SMILES>
CC1=C(C(=CC=C1)C)OCC(=O)NC(CC2=CC=CC=C2)C(CC(CC3=CC=CC=C3)NC(=O)C(C(C)C)N4CCCNC4=O)O

>  <PUBCHEM_OPENEYE_ISO_SMILES>
CC1=C(C(=CC=C1)C)OCC(=O)N[C@@H](CC2=CC=CC=C2)[C@H](C[C@H](CC3=CC=CC=C3)NC(=O)[C@H](C(C)C)N4CCCNC4=O)O

>  <PUBCHEM_CACTVS_TPSA>
120

>  <PUBCHEM_MONOISOTOPIC_WEIGHT>
628.362471

>  <PUBCHEM_TOTAL_CHARGE>
0

>  <PUBCHEM_HEAVY_ATOM_COUNT>
46

>  <PUBCHEM_ATOM_DEF_STEREO_COUNT>
4

>  <PUBCHEM_ATOM_UDEF_STEREO_COUNT>
0

>  <PUBCHEM_BOND_DEF_STEREO_COUNT>
0

>  <PUBCHEM_BOND_UDEF_STEREO_COUNT>
0

>  <PUBCHEM_ISOTOPIC_ATOM_COUNT>
0

>  <PUBCHEM_COMPONENT_COUNT>
1

>  <PUBCHEM_CACTVS_TAUTO_COUNT>
-1

>  <PUBCHEM_COORDINATE_TYPE>
1
5
255

>  <PUBCHEM_BONDANNOTATIONS>
13  1  6
11  17  5
25  28  8
25  29  8
26  30  8
26  31  8
28  33  8
29  34  8
30  36  8
31  37  8
33  35  8
34  35  8
36  38  8
37  38  8
39  40  8
39  41  8
40  42  8
41  43  8
42  46  8
43  46  8
10  7  6
15  8  5

>  <LF dG>
-8.774

>  <LF VSscore>
-11.519

>  <LF Rank Score>
-11.967

>  <LF LE>
-0.191

>  <Preferred Pose_cresset>
true

>  <Favorite_cresset>
false

>  <Protein_cresset>
6M2N_Dimer_P

>  <MW_cresset>
628.8

>  <#Atoms_cresset>
46

>  <SlogP_cresset>
4.7

>  <TPSA_cresset>
120

>  <Flexibility_cresset>
16.1

>  <#RB_cresset>
16

>  <Rof5_cresset>
1

>  <Filename_cresset>
Lopinavir.sdf

>  <Confs_cresset>
0

>  <Poses_cresset>
10

>  <_cresset_fieldpoints>
    -5     -49.087414      -7.121280      15.910763     -6.4471
    -5     -50.788254      -9.704737      16.575285     -5.2454
    -5     -45.054733     -15.283775      17.540161    -11.6140
    -5     -46.580528     -10.111229      23.040325     -9.8553
    -5     -48.106606      -3.545794      19.239916    -12.8247
    -5     -46.122871      -8.526600      22.236908     -9.3081
    -5     -48.001255      -5.240766      20.563890    -11.5078
    -5     -48.265640      -3.524444      12.555277     -5.3426
    -5     -51.760513     -10.641927      22.970879     -5.4088
    -5     -40.666233      -8.398144      18.374371     -4.9681
    -6     -46.928997     -10.431388      16.230417     10.0060
    -6     -52.587814      -6.734866      16.770569      6.0146
    -6     -41.223969     -15.874790      19.669085      4.2841
    -6     -40.632999     -12.172803      22.708754      4.9353
    -6     -53.214684      -0.749521      13.102720      2.7668
    -6     -54.734474      -6.596213      24.724075      1.4726
    -6     -45.075577      -0.207537      15.132955      1.4469
    -6     -47.139538       1.581023      13.747208      1.6636
    -7     -51.433064      -9.216959      16.512329     -2.0934
    -7     -48.568726     -11.876579      17.545000     -3.1315
    -7     -46.356209     -10.536604      15.888750     -2.6644
    -7     -45.375565     -12.470519      17.117949     -3.0945
    -7     -45.437515     -16.074188      21.327019     -2.6056
    -7     -43.467934     -13.903426      17.174881     -2.1820
    -7     -50.167458      -5.043999      20.924118     -3.1365
    -7     -47.216309      -6.081667      20.792805     -2.9629
    -7     -40.725044     -14.349211      18.879030     -1.9445
    -7     -46.751755      -7.896674      22.031645     -3.0463
    -7     -45.296146      -6.062955      16.301168     -2.3290
    -7     -46.562088     -14.029874      24.108990     -2.1870
    -7     -44.830742      -9.277023      22.869114     -2.7100
    -7     -42.806553     -10.498795      23.810631     -2.0458
    -7     -40.876698     -11.782761      23.151337     -2.1336
    -7     -47.449310     -10.049234      23.269484     -3.2824
    -7     -44.618202      -6.218685      20.468674     -2.0693
    -7     -40.563454      -8.052756      18.151756     -1.8394
    -7     -55.410950      -6.832092      20.867056     -1.0065
    -7     -50.116291      -7.278293      26.679882     -0.9702
    -7     -54.366264      -6.438633      25.335255     -0.9684
    -7     -51.784027     -11.145150      22.514988     -2.5487
    -7     -48.309959      -3.628663      12.201324     -1.9850
    -7     -48.966774      -7.099605      15.434948     -3.4845
    -7     -46.693962       1.600877      13.943474     -1.0015
    -7     -48.634308      -2.537870      19.005852     -2.3752
    -7     -52.632690      -5.952518      18.830372     -2.8452
    -7     -46.231842      -5.001152      18.927776     -2.6539
    -7     -51.238766       1.325652      12.605772     -1.0059
    -7     -50.172890      -1.136345      17.824623     -2.4564
    -8     -47.450134      -8.314259      18.625824      5.0890
    -8     -45.873638      -8.184450      18.117237      5.2715
    -8     -42.603012     -10.322001      19.293224      7.2266
    -8     -48.010429     -12.734127      20.744781      5.9791
    -8     -43.490555     -13.007664      22.013687      5.0047
    -8     -50.636658      -4.776474      17.827271      2.8822
    -8     -49.438335      -8.700697      19.372860      5.1047
    -8     -50.560143      -2.609838      14.705839      5.4960
    -8     -50.098373      -8.289554      20.508192      5.7053
    -8     -51.280148      -7.874755      22.349316      7.2007
    -8     -50.919815      -8.245834      21.061012      5.7478
    -8     -49.220917      -2.002279      14.842318      7.0734

$$$$
Untitled
  xed2sdf_05210316543D
 
 94 97  0  0  1  0  0  0  0  0999 V2000
  -46.0147  -14.6781   18.2651 O   0  0  0  0  0  0  0  0  0  0  0  0
  -47.7327   -9.1361   18.6091 O   0  0  0  0  0  0  0  0  0  0  0  0
  -51.3757   -9.7541   21.9171 O   0  0  0  0  0  0  0  0  0  0  0  0
  -47.7587  -17.8791   20.0541 O   0  0  0  0  0  0  0  0  0  0  0  0
  -46.4277  -19.7281   18.5871 O   0  0  0  0  0  0  0  0  0  0  0  0
  -49.5917   -8.5901   21.1671 N   0  0  0  0  0  0  0  0  0  0  0  0
  -48.5687  -11.0111   19.5931 N   0  0  0  0  0  0  0  0  0  0  0  0
  -45.9217  -16.5281   20.0391 N   0  0  0  0  0  0  0  0  0  0  0  0
  -50.2887   -8.4911   23.4061 N   0  0  0  0  0  0  0  0  0  0  0  0
  -47.3897  -11.8261   19.2661 C   0  0  0  0  0  0  0  0  0  0  0  0
  -49.8297   -8.9881   19.7631 C   0  0  0  0  0  0  0  0  0  0  0  0
  -47.7087  -13.3271   19.4231 C   0  0  0  0  0  0  0  0  0  0  0  0
  -46.4267  -14.1761   19.5461 C   0  0  0  0  0  0  0  0  0  0  0  0
  -50.1987   -7.8081   18.8321 C   0  0  0  0  0  0  0  0  0  0  0  0
  -46.6597  -15.3491   20.5191 C   0  0  0  0  0  0  0  0  0  0  0  0
  -46.2817  -11.3891   20.2471 C   0  0  0  0  0  0  0  0  0  0  0  0
  -48.6027   -9.7131   19.2461 C   0  0  0  0  0  0  0  0  0  0  0  0
  -48.4227   -7.7311   21.4351 C   0  0  0  0  0  0  0  0  0  0  0  0
  -48.0007   -7.7701   22.9071 C   0  0  0  0  0  0  0  0  0  0  0  0
  -46.1977  -14.9561   21.9401 C   0  0  0  0  0  0  0  0  0  0  0  0
  -50.4467   -8.9741   22.1511 C   0  0  0  0  0  0  0  0  0  0  0  0
  -51.4557   -7.0791   19.3361 C   0  0  0  0  0  0  0  0  0  0  0  0
  -50.4877   -8.3061   17.4061 C   0  0  0  0  0  0  0  0  0  0  0  0
  -49.2587   -7.4961   23.7361 C   0  0  0  0  0  0  0  0  0  0  0  0
  -44.8977  -11.2071   19.6421 C   0  0  0  0  0  0  0  0  0  0  0  0
  -46.7747  -15.8111   23.0591 C   0  0  0  0  0  0  0  0  0  0  0  0
  -46.5687  -17.6881   19.8471 C   0  0  0  0  0  0  0  0  0  0  0  0
  -44.7017  -10.3311   18.5951 C   0  0  0  0  0  0  0  0  0  0  0  0
  -43.8267  -11.9151   20.1421 C   0  0  0  0  0  0  0  0  0  0  0  0
  -47.8587  -15.3701   23.7851 C   0  0  0  0  0  0  0  0  0  0  0  0
  -46.2137  -17.0351   23.3531 C   0  0  0  0  0  0  0  0  0  0  0  0
  -45.6507  -18.7701   19.3351 C   0  0  0  0  0  0  0  0  0  0  0  0
  -43.4477  -10.1661   18.0541 C   0  0  0  0  0  0  0  0  0  0  0  0
  -42.5717  -11.7521   19.6011 C   0  0  0  0  0  0  0  0  0  0  0  0
  -42.3817  -10.8761   18.5561 C   0  0  0  0  0  0  0  0  0  0  0  0
  -48.3807  -16.1471   24.7941 C   0  0  0  0  0  0  0  0  0  0  0  0
  -46.7347  -17.8131   24.3611 C   0  0  0  0  0  0  0  0  0  0  0  0
  -47.8187  -17.3701   25.0821 C   0  0  0  0  0  0  0  0  0  0  0  0
  -45.9367  -20.1311   17.4061 C   0  0  0  0  0  0  0  0  0  0  0  0
  -46.0737  -19.3531   16.2611 C   0  0  0  0  0  0  0  0  0  0  0  0
  -45.2557  -21.3401   17.3231 C   0  0  0  0  0  0  0  0  0  0  0  0
  -45.5597  -19.7961   15.0651 C   0  0  0  0  0  0  0  0  0  0  0  0
  -44.7477  -21.7671   16.1191 C   0  0  0  0  0  0  0  0  0  0  0  0
  -46.7667  -17.9991   16.2131 C   0  0  0  0  0  0  0  0  0  0  0  0
  -45.0457  -22.2411   18.5291 C   0  0  0  0  0  0  0  0  0  0  0  0
  -44.9007  -21.0001   14.9881 C   0  0  0  0  0  0  0  0  0  0  0  0
  -47.1027  -11.6921   18.3181 H   0  0  0  0  0  0  0  0  0  0  0  0
  -50.6287   -9.5901   19.7551 H   0  0  0  0  0  0  0  0  0  0  0  0
  -45.6987  -13.5901   19.9011 H   0  0  0  0  0  0  0  0  0  0  0  0
  -47.6347  -15.5671   20.5591 H   0  0  0  0  0  0  0  0  0  0  0  0
  -46.8027  -14.9941   17.7251 H   0  0  0  0  0  0  0  0  0  0  0  0
  -49.2437  -11.3831   20.0191 H   0  0  0  0  0  0  0  0  0  0  0  0
  -45.0597  -16.4631   19.8711 H   0  0  0  0  0  0  0  0  0  0  0  0
  -50.8397   -8.7621   24.0381 H   0  0  0  0  0  0  0  0  0  0  0  0
  -48.2277  -13.6331   18.6251 H   0  0  0  0  0  0  0  0  0  0  0  0
  -48.2397  -13.4451   20.2621 H   0  0  0  0  0  0  0  0  0  0  0  0
  -49.4177   -7.1841   18.8291 H   0  0  0  0  0  0  0  0  0  0  0  0
  -46.2157  -12.0821   20.9661 H   0  0  0  0  0  0  0  0  0  0  0  0
  -46.5537  -10.4861   20.5801 H   0  0  0  0  0  0  0  0  0  0  0  0
  -48.6507   -6.7891   21.1871 H   0  0  0  0  0  0  0  0  0  0  0  0
  -47.6587   -8.0741   20.8891 H   0  0  0  0  0  0  0  0  0  0  0  0
  -47.3087   -7.0711   23.0871 H   0  0  0  0  0  0  0  0  0  0  0  0
  -47.6047   -8.6571   23.1431 H   0  0  0  0  0  0  0  0  0  0  0  0
  -46.4617  -14.0061   22.1031 H   0  0  0  0  0  0  0  0  0  0  0  0
  -45.2077  -15.0981   21.9621 H   0  0  0  0  0  0  0  0  0  0  0  0
  -52.1547   -7.1021   18.6221 H   0  0  0  0  0  0  0  0  0  0  0  0
  -51.7997   -7.5301   20.1601 H   0  0  0  0  0  0  0  0  0  0  0  0
  -51.2287   -6.1301   19.5561 H   0  0  0  0  0  0  0  0  0  0  0  0
  -51.4167   -8.0381   17.1491 H   0  0  0  0  0  0  0  0  0  0  0  0
  -49.8327   -7.9021   16.7671 H   0  0  0  0  0  0  0  0  0  0  0  0
  -50.4017   -9.3021   17.3731 H   0  0  0  0  0  0  0  0  0  0  0  0
  -49.0377   -7.5521   24.7101 H   0  0  0  0  0  0  0  0  0  0  0  0
  -49.6007   -6.5791   23.5271 H   0  0  0  0  0  0  0  0  0  0  0  0
  -45.4747   -9.8131   18.2281 H   0  0  0  0  0  0  0  0  0  0  0  0
  -43.9627  -12.5511   20.9011 H   0  0  0  0  0  0  0  0  0  0  0  0
  -48.2697  -14.4821   23.5781 H   0  0  0  0  0  0  0  0  0  0  0  0
  -45.4247  -17.3601   22.8301 H   0  0  0  0  0  0  0  0  0  0  0  0
  -44.9497  -18.3691   18.7451 H   0  0  0  0  0  0  0  0  0  0  0  0
  -45.2037  -19.2251   20.1061 H   0  0  0  0  0  0  0  0  0  0  0  0
  -43.3107   -9.5301   17.2951 H   0  0  0  0  0  0  0  0  0  0  0  0
  -41.7987  -12.2691   19.9671 H   0  0  0  0  0  0  0  0  0  0  0  0
  -41.4697  -10.7571   18.1631 H   0  0  0  0  0  0  0  0  0  0  0  0
  -49.1687  -15.8231   25.3191 H   0  0  0  0  0  0  0  0  0  0  0  0
  -46.3247  -18.7011   24.5701 H   0  0  0  0  0  0  0  0  0  0  0  0
  -48.1977  -17.9351   25.8151 H   0  0  0  0  0  0  0  0  0  0  0  0
  -45.6677  -19.2381   14.2421 H   0  0  0  0  0  0  0  0  0  0  0  0
  -44.2647  -22.6401   16.0651 H   0  0  0  0  0  0  0  0  0  0  0  0
  -46.7277  -17.6461   15.2781 H   0  0  0  0  0  0  0  0  0  0  0  0
  -47.7197  -18.0971   16.4971 H   0  0  0  0  0  0  0  0  0  0  0  0
  -46.3057  -17.3631   16.8321 H   0  0  0  0  0  0  0  0  0  0  0  0
  -44.5397  -23.0551   18.2431 H   0  0  0  0  0  0  0  0  0  0  0  0
  -44.5277  -21.7511   19.2311 H   0  0  0  0  0  0  0  0  0  0  0  0
  -45.9317  -22.5101   18.9071 H   0  0  0  0  0  0  0  0  0  0  0  0
  -44.5327  -21.3161   14.1131 H   0  0  0  0  0  0  0  0  0  0  0  0
  2 17  2  0
  3 21  2  0
  4 27  2  0
  5 32  1  0
  5 39  1  0
  6 11  1  0
  6 18  1  0
  6 21  1  0
  7 17  1  0
  8 27  1  0
  9 21  1  0
  9 24  1  0
 10  7  1  0
 10 12  1  0
 10 16  1  0
 11 14  1  0
 11 17  1  0
 12 13  1  0
 13  1  1  0
 13 15  1  0
 14 22  1  0
 14 23  1  0
 15  8  1  0
 15 20  1  0
 16 25  1  0
 18 19  1  0
 19 24  1  0
 20 26  1  0
 25 28  2  0
 25 29  1  0
 26 30  2  0
 26 31  1  0
 27 32  1  0
 28 33  1  0
 29 34  2  0
 30 36  1  0
 31 37  2  0
 33 35  2  0
 34 35  1  0
 36 38  2  0
 37 38  1  0
 39 40  2  0
 39 41  1  0
 40 42  1  0
 40 44  1  0
 41 43  2  0
 41 45  1  0
 42 46  2  0
 43 46  1  0
  1 51  1  0
  7 52  1  0
  8 53  1  0
  9 54  1  0
 10 47  1  0
 11 48  1  0
 12 55  1  0
 12 56  1  0
 13 49  1  0
 14 57  1  0
 15 50  1  0
 16 58  1  0
 16 59  1  0
 18 60  1  0
 18 61  1  0
 19 62  1  0
 19 63  1  0
 20 64  1  0
 20 65  1  0
 22 66  1  0
 22 67  1  0
 22 68  1  0
 23 69  1  0
 23 70  1  0
 23 71  1  0
 24 72  1  0
 24 73  1  0
 28 74  1  0
 29 75  1  0
 30 76  1  0
 31 77  1  0
 32 78  1  0
 32 79  1  0
 33 80  1  0
 34 81  1  0
 35 82  1  0
 36 83  1  0
 37 84  1  0
 38 85  1  0
 42 86  1  0
 43 87  1  0
 44 88  1  0
 44 89  1  0
 44 90  1  0
 45 91  1  0
 45 92  1  0
 45 93  1  0
 46 94  1  0
M  END
>  <BioMolTech Lead Finder dG>
-10.314

>  <BioMolTech Lead Finder VSscore>
-11.935

>  <BioMolTech Lead Finder Rank score>
-11.717

>  <BioMolTech Lead Finder LE>
-0.224

>  <BioMolTech Lead Finder Structure Name>
/var/folders/xd/y7jw_xv579q2qqq7kks92xd80000gn/T/LeadFinder_15588_1/Ligand_1.sdf

>  <BioMolTech Lead Finder SDF id>
0

>  <BioMolTech Lead Finder Pose rank>
0

>  <BioMolTech Lead Finder version>
2001 1, 19 January 2019

>  <PUBCHEM_COMPOUND_CID>
92727

>  <PUBCHEM_COMPOUND_CANONICALIZED>
1

>  <PUBCHEM_CACTVS_COMPLEXITY>
940

>  <PUBCHEM_CACTVS_HBOND_ACCEPTOR>
5

>  <PUBCHEM_CACTVS_HBOND_DONOR>
4

>  <PUBCHEM_CACTVS_ROTATABLE_BOND>
15

>  <PUBCHEM_CACTVS_SUBSKEYS>
AAADcfB/uAAAAAAAAAAAAAAAAAAAAAAAAAA8YMEAAAAAAAABUAAAHgAQCAAADTzhmAYzBoPABgCIAiFSEAICCAAgIAAIiIHMCIiOdjKE8T+XeCCu1hOYqAeQwPAOAAACAAAIAAAAAAQAABAAAAAAAAAAAA==

>  <PUBCHEM_IUPAC_OPENEYE_NAME>
(2S)-N-[(1S,3S,4S)-1-benzyl-4-[[2-(2,6-dimethylphenoxy)acetyl]amino]-3-hydroxy-5-phenyl-pentyl]-3-methyl-2-(2-oxohexahydropyrimidin-1-yl)butanamide

>  <PUBCHEM_IUPAC_CAS_NAME>
(2S)-N-[(2S,4S,5S)-5-[[2-(2,6-dimethylphenoxy)-1-oxoethyl]amino]-4-hydroxy-1,6-diphenylhexan-2-yl]-3-methyl-2-(2-oxo-1,3-diazinan-1-yl)butanamide

>  <PUBCHEM_IUPAC_NAME_MARKUP>
(2<I>S</I>)-<I>N</I>-[(2<I>S</I>,4<I>S</I>,5<I>S</I>)-5-[[2-(2,6-dimethylphenoxy)acetyl]amino]-4-hydroxy-1,6-diphenylhexan-2-yl]-3-methyl-2-(2-oxo-1,3-diazinan-1-yl)butanamide

>  <PUBCHEM_IUPAC_NAME>
(2S)-N-[(2S,4S,5S)-5-[[2-(2,6-dimethylphenoxy)acetyl]amino]-4-hydroxy-1,6-diphenylhexan-2-yl]-3-methyl-2-(2-oxo-1,3-diazinan-1-yl)butanamide

>  <PUBCHEM_IUPAC_SYSTEMATIC_NAME>
(2S)-N-[(2S,4S,5S)-5-[2-(2,6-dimethylphenoxy)ethanoylamino]-4-oxidanyl-1,6-diphenyl-hexan-2-yl]-3-methyl-2-(2-oxidanylidene-1,3-diazinan-1-yl)butanamide

>  <PUBCHEM_IUPAC_TRADITIONAL_NAME>
(2S)-N-[(1S,3S,4S)-1-benzyl-4-[[2-(2,6-dimethylphenoxy)acetyl]amino]-3-hydroxy-5-phenyl-pentyl]-2-(2-ketohexahydropyrimidin-1-yl)-3-methyl-butyramide

>  <PUBCHEM_IUPAC_INCHI>
InChI=1S/C37H48N4O5/c1-25(2)34(41-20-12-19-38-37(41)45)36(44)39-30(21-28-15-7-5-8-16-28)23-32(42)31(22-29-17-9-6-10-18-29)40-33(43)24-46-35-26(3)13-11-14-27(35)4/h5-11,13-18,25,30-32,34,42H,12,19-24H2

>  <PUBCHEM_IUPAC_INCHIKEY>
KJHKTHWMRKYKJE-SUGCFTRWSA-N

>  <PUBCHEM_XLOGP3_AA>
5.9

>  <PUBCHEM_EXACT_MASS>
628.362471

>  <PUBCHEM_MOLECULAR_FORMULA>
C37H48N4O5

>  <PUBCHEM_MOLECULAR_WEIGHT>
628.8

>  <PUBCHEM_OPENEYE_CAN_SMILES>
CC1=C(C(=CC=C1)C)OCC(=O)NC(CC2=CC=CC=C2)C(CC(CC3=CC=CC=C3)NC(=O)C(C(C)C)N4CCCNC4=O)O

>  <PUBCHEM_OPENEYE_ISO_SMILES>
CC1=C(C(=CC=C1)C)OCC(=O)N[C@@H](CC2=CC=CC=C2)[C@H](C[C@H](CC3=CC=CC=C3)NC(=O)[C@H](C(C)C)N4CCCNC4=O)O

>  <PUBCHEM_CACTVS_TPSA>
120

>  <PUBCHEM_MONOISOTOPIC_WEIGHT>
628.362471

>  <PUBCHEM_TOTAL_CHARGE>
0

>  <PUBCHEM_HEAVY_ATOM_COUNT>
46

>  <PUBCHEM_ATOM_DEF_STEREO_COUNT>
4

>  <PUBCHEM_ATOM_UDEF_STEREO_COUNT>
0

>  <PUBCHEM_BOND_DEF_STEREO_COUNT>
0

>  <PUBCHEM_BOND_UDEF_STEREO_COUNT>
0

>  <PUBCHEM_ISOTOPIC_ATOM_COUNT>
0

>  <PUBCHEM_COMPONENT_COUNT>
1

>  <PUBCHEM_CACTVS_TAUTO_COUNT>
-1

>  <PUBCHEM_COORDINATE_TYPE>
1
5
255

>  <PUBCHEM_BONDANNOTATIONS>
13  1  6
11  17  5
25  28  8
25  29  8
26  30  8
26  31  8
28  33  8
29  34  8
30  36  8
31  37  8
33  35  8
34  35  8
36  38  8
37  38  8
39  40  8
39  41  8
40  42  8
41  43  8
42  46  8
43  46  8
10  7  6
15  8  5

>  <LF dG>
-10.314

>  <LF VSscore>
-11.935

>  <LF Rank Score>
-11.717

>  <LF LE>
-0.224

>  <Preferred Pose_cresset>
true

>  <Favorite_cresset>
false

>  <Protein_cresset>
6M2N_Dimer_P

>  <MW_cresset>
628.8

>  <#Atoms_cresset>
46

>  <SlogP_cresset>
4.7

>  <TPSA_cresset>
120

>  <Flexibility_cresset>
16.1

>  <#RB_cresset>
16

>  <Rof5_cresset>
1

>  <Filename_cresset>
Lopinavir.sdf

>  <Confs_cresset>
0

>  <Poses_cresset>
10

>  <_cresset_fieldpoints>
    -5     -44.600441     -13.638935      17.497543    -10.1588
    -5     -47.215622      -7.615000      17.864603     -9.3978
    -5     -48.547928     -19.395782      19.716967    -16.8602
    -5     -52.785210     -10.444622      22.649467    -10.7239
    -5     -48.540794     -10.641436      22.096210     -3.5561
    -5     -43.203526      -8.771603      20.791595     -4.4605
    -5     -45.578251     -15.430489      26.063885     -4.1163
    -5     -48.863247     -17.896275      21.539192    -13.8814
    -5     -42.751675     -19.299238      16.301062     -2.9284
    -6     -48.269554     -15.132174      16.793467      5.7666
    -6     -50.931225      -8.359110      26.130917      4.6393
    -6     -44.866272     -12.536503      22.959557      4.7416
    -6     -47.665390      -5.320210      24.889591      4.3458
    -6     -48.329224     -12.591542      22.356571      5.6652
    -6     -43.284973     -17.320948      20.387428      7.2346
    -6     -50.049782     -16.805233      27.378979      1.4346
    -6     -45.993248     -17.512939      12.895404      2.0598
    -6     -42.939507     -24.301437      16.769249      2.2740
    -6     -43.047951     -23.593792      14.258856      2.0137
    -6     -44.666218     -19.749643      12.057364      1.9096
    -7     -47.540100      -9.924307      16.463217     -2.8787
    -7     -46.335350      -7.383009      18.845791     -2.8725
    -7     -53.091854      -9.813993      20.209461     -2.0354
    -7     -51.466904     -11.847548      20.854139     -1.9251
    -7     -53.006012      -9.912161      18.888733     -1.9840
    -7     -50.290146     -11.825932      17.716637     -2.7061
    -7     -48.677826     -16.357048      18.236845     -3.2845
    -7     -49.341583     -17.439938      21.643335     -2.9120
    -7     -49.061333     -19.097023      18.491344     -2.4658
    -7     -47.177185     -21.033016      20.911480     -2.1766
    -7     -49.975182     -14.983629      21.346582     -2.4674
    -7     -50.119003      -5.013378      17.111584     -1.5050
    -7     -48.926193      -4.773474      19.675312     -1.7808
    -7     -50.540955      -5.082264      21.756145     -2.1211
    -7     -45.048935     -12.236245      23.271065     -2.6823
    -7     -52.000656      -6.433610      22.472927     -2.3089
    -7     -43.143982     -15.065303      20.433258     -2.8146
    -7     -48.511578     -11.155772      22.428616     -4.2313
    -7     -45.182579     -14.995377      25.955212     -1.8384
    -7     -40.905045      -9.087526      16.073612     -0.9689
    -7     -45.143837     -13.071041      16.817038     -3.2242
    -7     -45.088219      -8.440336      21.462299     -2.8116
    -7     -39.266884     -12.175842      18.956024     -0.9699
    -7     -43.596703     -14.870764      18.462389     -2.9135
    -7     -50.317360     -17.206676      27.377003     -0.9685
    -7     -47.282036     -20.440346      26.440609     -0.9699
    -7     -43.465729     -17.303312      21.475842     -2.5395
    -7     -46.047775     -19.042624      27.431025     -0.9571
    -7     -47.766823     -19.635246      21.724216     -2.5270
    -7     -48.292320     -21.959890      15.795097     -1.9826
    -7     -44.287773     -16.072166      17.564934     -3.1126
    -7     -42.829865     -18.902235      17.264822     -2.4989
    -7     -43.272865     -23.785446      13.864664     -1.0014
    -7     -48.717155     -20.081314      19.833492     -1.9997
    -7     -44.620453     -19.702282      11.836866     -1.0058
    -7     -46.662048     -20.503418      12.023973     -1.0063
    -8     -46.857841     -14.178148      20.597900      5.5569
    -8     -45.399910     -20.570198      16.168379      7.0734
    -8     -47.294449     -16.587517      24.066353      7.1908
    -8     -46.713882     -12.679363      19.780785      6.0685
    -8     -43.645279     -11.045269      19.102543      7.2069
    -8     -50.671753      -8.052780      18.719608      5.9435
    -8     -48.437996      -7.398853      22.700592      4.9365
    -8     -46.059494     -19.257290      16.079651      5.4869
    -8     -45.314178     -18.255199      19.777945      2.8477
    -8     -44.983925     -11.275719      19.653955      5.8043

$$$$
W_Wogonoside_D
  xed2sdf_05210316543D
 
 52 55  0  0  1  0  0  0  0  0999 V2000
  -50.8930   -7.3230   20.1075 O   0  0  0  0  0  0  0  0  0  0  0  0
  -49.2790   -8.2850   18.5975 O   0  0  0  0  0  0  0  0  0  0  0  0
  -50.1380  -10.3970   22.8915 O   0  0  0  0  0  0  0  0  0  0  0  0
  -49.0800  -10.5580   20.2245 O   0  0  0  0  0  0  0  0  0  0  0  0
  -52.3770   -8.6170   23.2605 O   0  0  0  0  0  0  0  0  0  0  0  0
  -51.6480   -5.3020   21.7285 O   0  5  0  0  0  0  0  0  0  0  0  0
  -53.7300   -6.2350   21.8335 O   0  0  0  0  0  0  0  0  0  0  0  0
  -47.5670   -4.1780   17.0795 O   0  0  0  0  0  0  0  0  0  0  0  0
  -47.4110   -6.3570   18.6865 O   0  0  0  0  0  0  0  0  0  0  0  0
  -51.7230   -5.8590   15.3455 O   0  0  0  0  0  0  0  0  0  0  0  0
  -50.7050   -3.6210   14.5875 O   0  0  0  0  0  0  0  0  0  0  0  0
  -50.7210   -9.6670   21.8015 C   0  0  0  0  0  0  0  0  0  0  0  0
  -49.6520   -9.3470   20.7425 C   0  0  0  0  0  0  0  0  0  0  0  0
  -51.3420   -8.3510   22.3035 C   0  0  0  0  0  0  0  0  0  0  0  0
  -50.2940   -8.5360   19.5975 C   0  0  0  0  0  0  0  0  0  0  0  0
  -51.9120   -7.5800   21.0975 C   0  0  0  0  0  0  0  0  0  0  0  0
  -52.4730   -6.2720   21.5925 C   0  0  0  0  0  0  0  0  0  0  0  0
  -49.4240   -7.2120   17.8165 C   0  0  0  0  0  0  0  0  0  0  0  0
  -48.4660   -6.2150   17.8595 C   0  0  0  0  0  0  0  0  0  0  0  0
  -50.5210   -7.0830   16.9725 C   0  0  0  0  0  0  0  0  0  0  0  0
  -48.5660   -5.1020   17.0345 C   0  0  0  0  0  0  0  0  0  0  0  0
  -49.6690   -4.9840   16.1885 C   0  0  0  0  0  0  0  0  0  0  0  0
  -50.6500   -5.9810   16.1695 C   0  0  0  0  0  0  0  0  0  0  0  0
  -49.7470   -3.8170   15.3345 C   0  0  0  0  0  0  0  0  0  0  0  0
  -47.6200   -3.1160   16.2115 C   0  0  0  0  0  0  0  0  0  0  0  0
  -48.6680   -2.8960   15.3645 C   0  0  0  0  0  0  0  0  0  0  0  0
  -46.4540   -2.1950   16.2365 C   0  0  0  0  0  0  0  0  0  0  0  0
  -46.4990   -7.4410   18.4185 C   0  0  0  0  0  0  0  0  0  0  0  0
  -45.4260   -2.2450   15.3055 C   0  0  0  0  0  0  0  0  0  0  0  0
  -46.3820   -1.2450   17.2435 C   0  0  0  0  0  0  0  0  0  0  0  0
  -44.3660   -1.3750   15.3825 C   0  0  0  0  0  0  0  0  0  0  0  0
  -45.3220   -0.3750   17.3215 C   0  0  0  0  0  0  0  0  0  0  0  0
  -44.3110   -0.4380   16.3905 C   0  0  0  0  0  0  0  0  0  0  0  0
  -51.4360  -10.2350   21.3945 H   0  0  0  0  0  0  0  0  0  0  0  0
  -48.9220   -8.8100   21.1645 H   0  0  0  0  0  0  0  0  0  0  0  0
  -50.6390   -7.8010   22.7535 H   0  0  0  0  0  0  0  0  0  0  0  0
  -51.0390   -9.0510   19.1715 H   0  0  0  0  0  0  0  0  0  0  0  0
  -52.6250   -8.1320   20.6665 H   0  0  0  0  0  0  0  0  0  0  0  0
  -50.7910  -11.0540   23.2815 H   0  0  0  0  0  0  0  0  0  0  0  0
  -49.7810  -11.2690   20.0965 H   0  0  0  0  0  0  0  0  0  0  0  0
  -52.0160   -8.6200   24.1995 H   0  0  0  0  0  0  0  0  0  0  0  0
  -51.9850   -6.7450   14.9465 H   0  0  0  0  0  0  0  0  0  0  0  0
  -51.2200   -7.7990   16.9515 H   0  0  0  0  0  0  0  0  0  0  0  0
  -48.6750   -2.0930   14.7695 H   0  0  0  0  0  0  0  0  0  0  0  0
  -46.8170   -7.9420   17.6135 H   0  0  0  0  0  0  0  0  0  0  0  0
  -45.5830   -7.0780   18.2495 H   0  0  0  0  0  0  0  0  0  0  0  0
  -46.4650   -8.0550   19.2065 H   0  0  0  0  0  0  0  0  0  0  0  0
  -45.4570   -2.9220   14.5695 H   0  0  0  0  0  0  0  0  0  0  0  0
  -47.1130   -1.1920   17.9245 H   0  0  0  0  0  0  0  0  0  0  0  0
  -43.6320   -1.4220   14.7055 H   0  0  0  0  0  0  0  0  0  0  0  0
  -45.2850    0.3050   18.0545 H   0  0  0  0  0  0  0  0  0  0  0  0
  -43.5380    0.1940   16.4455 H   0  0  0  0  0  0  0  0  0  0  0  0
  1 15  1  0
  1 16  1  0
  2 18  1  0
  6 17  1  0
  7 17  2  0
  8 21  1  0
  8 25  1  0
  9 19  1  0
  9 28  1  0
 10 23  1  0
 11 24  2  0
 12  3  1  0
 12 13  1  0
 12 14  1  0
 13  4  1  0
 13 15  1  0
 14  5  1  0
 14 16  1  0
 15  2  1  0
 16 17  1  0
 18 19  2  0
 18 20  1  0
 19 21  1  0
 20 23  2  0
 21 22  2  0
 22 23  1  0
 22 24  1  0
 24 26  1  0
 25 26  2  0
 25 27  1  0
 27 29  2  0
 27 30  1  0
 29 31  1  0
 30 32  2  0
 31 33  2  0
 32 33  1  0
  3 39  1  0
  4 40  1  0
  5 41  1  0
 10 42  1  0
 12 34  1  0
 13 35  1  0
 14 36  1  0
 15 37  1  0
 16 38  1  0
 20 43  1  0
 26 44  1  0
 28 45  1  0
 28 46  1  0
 28 47  1  0
 29 48  1  0
 30 49  1  0
 31 50  1  0
 32 51  1  0
 33 52  1  0
M  CHG  1   6  -1
M  END
>  <BioMolTech Lead Finder dG>
-7.107

>  <BioMolTech Lead Finder VSscore>
-11.296

>  <BioMolTech Lead Finder Rank score>
-11.342

>  <BioMolTech Lead Finder LE>
-0.215

>  <BioMolTech Lead Finder Structure Name>
/var/folders/xd/y7jw_xv579q2qqq7kks92xd80000gn/T/LeadFinder_38503_1/Ligand_1.sdf

>  <BioMolTech Lead Finder SDF id>
0

>  <BioMolTech Lead Finder Pose rank>
0

>  <BioMolTech Lead Finder version>
2001 1, 19 January 2019

>  <PUBCHEM_COMPOUND_CID>
3084961

>  <PUBCHEM_COMPOUND_CANONICALIZED>
1

>  <PUBCHEM_CACTVS_COMPLEXITY>
763

>  <PUBCHEM_CACTVS_HBOND_ACCEPTOR>
11

>  <PUBCHEM_CACTVS_HBOND_DONOR>
5

>  <PUBCHEM_CACTVS_ROTATABLE_BOND>
5

>  <PUBCHEM_CACTVS_SUBSKEYS>
AAADceB4PAAAAAAAAAAAAAAAAAAAAAAAAAA0YIEAAAAAAACBQAAAGgAACAAADBSwmAMyDoAABgCIAqDSCAICCAAkIAAIiAFGiMgdNzaGNR6ieWKl4BUPuQfK7LzOIQABCAAIQABCAAIQABCAAAAAAAAAAA==

>  <PUBCHEM_IUPAC_OPENEYE_NAME>
(2S,3S,4S,5R,6S)-3,4,5-trihydroxy-6-(5-hydroxy-8-methoxy-4-oxo-2-phenyl-chromen-7-yl)oxy-tetrahydropyran-2-carboxylic acid

>  <PUBCHEM_IUPAC_CAS_NAME>
(2S,3S,4S,5R,6S)-3,4,5-trihydroxy-6-[(5-hydroxy-8-methoxy-4-oxo-2-phenyl-1-benzopyran-7-yl)oxy]-2-oxanecarboxylic acid

>  <PUBCHEM_IUPAC_NAME_MARKUP>
(2<I>S</I>,3<I>S</I>,4<I>S</I>,5<I>R</I>,6<I>S</I>)-3,4,5-trihydroxy-6-(5-hydroxy-8-methoxy-4-oxo-2-phenylchromen-7-yl)oxyoxane-2-carboxylic acid

>  <PUBCHEM_IUPAC_NAME>
(2S,3S,4S,5R,6S)-3,4,5-trihydroxy-6-(5-hydroxy-8-methoxy-4-oxo-2-phenylchromen-7-yl)oxyoxane-2-carboxylic acid

>  <PUBCHEM_IUPAC_SYSTEMATIC_NAME>
(2S,3S,4S,5R,6S)-6-(8-methoxy-5-oxidanyl-4-oxidanylidene-2-phenyl-chromen-7-yl)oxy-3,4,5-tris(oxidanyl)oxane-2-carboxylic acid

>  <PUBCHEM_IUPAC_TRADITIONAL_NAME>
(2S,3S,4S,5R,6S)-3,4,5-trihydroxy-6-(5-hydroxy-4-keto-8-methoxy-2-phenyl-chromen-7-yl)oxy-tetrahydropyran-2-carboxylic acid

>  <PUBCHEM_IUPAC_INCHI>
InChI=1S/C22H20O11/c1-30-18-13(32-22-17(27)15(25)16(26)20(33-22)21(28)29)8-11(24)14-10(23)7-12(31-19(14)18)9-5-3-2-4-6-9/h2-8,15-17,20,22,24-27H,1H3,(H,28,29)/t15-,16-,17+,20-,22+/m0/s1

>  <PUBCHEM_IUPAC_INCHIKEY>
LNOHXHDWGCMVCO-NTKSAMNMSA-N

>  <PUBCHEM_XLOGP3_AA>
1.4

>  <PUBCHEM_EXACT_MASS>
460.100561

>  <PUBCHEM_MOLECULAR_FORMULA>
C22H20O11

>  <PUBCHEM_MOLECULAR_WEIGHT>
460.4

>  <PUBCHEM_OPENEYE_CAN_SMILES>
COC1=C(C=C(C2=C1OC(=CC2=O)C3=CC=CC=C3)O)OC4C(C(C(C(O4)C(=O)O)O)O)O

>  <PUBCHEM_OPENEYE_ISO_SMILES>
COC1=C(C=C(C2=C1OC(=CC2=O)C3=CC=CC=C3)O)O[C@H]4[C@@H]([C@H]([C@@H]([C@H](O4)C(=O)O)O)O)O

>  <PUBCHEM_CACTVS_TPSA>
172

>  <PUBCHEM_MONOISOTOPIC_WEIGHT>
460.100561

>  <PUBCHEM_TOTAL_CHARGE>
0

>  <PUBCHEM_HEAVY_ATOM_COUNT>
33

>  <PUBCHEM_ATOM_DEF_STEREO_COUNT>
5

>  <PUBCHEM_ATOM_UDEF_STEREO_COUNT>
0

>  <PUBCHEM_BOND_DEF_STEREO_COUNT>
0

>  <PUBCHEM_BOND_UDEF_STEREO_COUNT>
0

>  <PUBCHEM_ISOTOPIC_ATOM_COUNT>
0

>  <PUBCHEM_COMPONENT_COUNT>
1

>  <PUBCHEM_CACTVS_TAUTO_COUNT>
-1

>  <PUBCHEM_COORDINATE_TYPE>
1
5
255

>  <PUBCHEM_BONDANNOTATIONS>
16  17  5
18  19  8
18  20  8
19  21  8
15  2  5
20  23  8
21  22  8
22  23  8
22  24  8
24  26  8
25  26  8
27  29  8
27  30  8
29  31  8
12  3  5
30  32  8
31  33  8
32  33  8
13  4  6
14  5  6
8  21  8
8  25  8

>  <LF dG>
-7.107

>  <LF VSscore>
-11.296

>  <LF Rank Score>
-11.342

>  <LF LE>
-0.215

>  <Preferred Pose_cresset>
true

>  <Favorite_cresset>
false

>  <Protein_cresset>
6M2N_Dimer_P

>  <MW_cresset>
459.4

>  <#Atoms_cresset>
33

>  <SlogP_cresset>
1.4

>  <TPSA_cresset>
175

>  <Flexibility_cresset>
7.6

>  <#RB_cresset>
9

>  <Rof5_cresset>
1

>  <Filename_cresset>
Wogonoside.sdf

>  <Confs_cresset>
0

>  <Poses_cresset>
10

>  <_cresset_fieldpoints>
    -5     -47.706818     -10.229035      18.932865    -13.3706
    -5     -48.402824     -10.983545      22.334370    -13.6455
    -5     -50.091965      -5.656565      20.671604    -15.4491
    -5     -53.970264      -4.458676      22.397079    -11.8241
    -5     -54.136360      -7.956898      22.893818    -13.7826
    -5     -52.728882      -3.897913      22.308981    -11.9033
    -5     -46.325336      -4.324968      18.718243     -8.5504
    -5     -52.481316      -4.240860      14.658648    -23.4675
    -5     -46.606743       0.816455      14.674470     -2.4988
    -6     -52.486320      -9.325102      17.660816      7.1033
    -6     -46.707123      -7.313608      15.261184      1.8889
    -6     -51.602337     -11.334202      19.510220     12.7831
    -6     -51.686623     -10.394022      24.839756     11.0450
    -6     -51.738228     -12.315510      22.196297     10.4659
    -6     -52.403690      -8.582972      15.280577      9.9643
    -6     -46.433762      -4.755558      14.053501      3.0167
    -6     -49.134628      -1.355568      18.283207      1.7493
    -6     -43.948181      -3.223321      12.919186      2.8500
    -6     -41.767097       0.034484      14.730677      2.6156
    -6     -46.782242       0.781855      19.640568      2.3839
    -6     -43.297115       1.857068      18.059227      2.5377
    -7     -47.838585     -10.470200      18.151100     -2.4892
    -7     -48.369148      -8.865681      23.873505     -1.6157
    -7     -53.083946     -10.845800      23.707260     -1.5920
    -7     -50.024750      -9.456378      25.077753     -1.5800
    -7     -53.189613     -10.386522      19.486300     -1.8747
    -7     -49.114685      -5.949722      21.108490     -3.6681
    -7     -51.880005     -11.459650      19.117966     -1.7756
    -7     -54.679760      -8.381395      22.620089     -1.7565
    -7     -54.137650      -9.929399      22.047146     -1.6925
    -7     -53.782784      -6.966348      24.202719     -1.6631
    -7     -49.555321      -2.177045      18.269304     -2.6146
    -7     -52.855530      -3.558572      15.955048     -1.6405
    -7     -45.570427      -5.515555      15.920095     -2.9341
    -7     -46.758858      -5.265903      14.316757     -2.7127
    -7     -50.970905      -5.562513      12.949750     -1.7670
    -7     -47.483131      -7.544906      14.951216     -2.2944
    -7     -51.003677      -4.748444      19.495480     -3.2231
    -7     -47.535721       0.333021      14.393618     -2.0431
    -7     -48.966438     -12.360589      22.009850     -1.6187
    -7     -45.458046      -4.331086      18.435402     -3.0768
    -7     -41.431061       0.195265      14.700256     -0.9676
    -7     -43.696102      -3.161991      12.553370     -0.9885
    -7     -44.303814      -2.466783      12.149080     -0.9871
    -7     -47.001091       0.145744      20.253347     -0.9933
    -7     -43.246933       2.086319      18.400734     -0.9670
    -8     -49.567940      -6.089760      16.983486      6.6039
    -8     -50.861404      -8.822279      21.138729      5.1791
    -8     -45.946392      -8.097271      18.217762      2.5147
    -8     -45.380890      -1.312384      16.312733      7.1508
    -8     -48.897713      -3.998507      15.977728      5.0104

$$$$
Untitled
  xed2sdf_05210316543D
 
 52 55  0  0  1  0  0  0  0  0999 V2000
  -47.3807  -13.4923   22.2089 O   0  0  0  0  0  0  0  0  0  0  0  0
  -47.1457  -11.6793   20.6369 O   0  0  0  0  0  0  0  0  0  0  0  0
  -46.5827  -16.2703   19.1409 O   0  0  0  0  0  0  0  0  0  0  0  0
  -47.0487  -13.5053   18.5139 O   0  0  0  0  0  0  0  0  0  0  0  0
  -47.5597  -17.1703   21.7009 O   0  0  0  0  0  0  0  0  0  0  0  0
  -46.6687  -16.1403   24.0439 O   0  5  0  0  0  0  0  0  0  0  0  0
  -48.2627  -14.6653   24.7479 O   0  0  0  0  0  0  0  0  0  0  0  0
  -50.5297   -8.5773   21.6479 O   0  0  0  0  0  0  0  0  0  0  0  0
  -48.7267  -10.4473   22.4249 O   0  0  0  0  0  0  0  0  0  0  0  0
  -49.2207   -9.3323   17.0849 O   0  0  0  0  0  0  0  0  0  0  0  0
  -51.0657   -7.6643   17.7429 O   0  0  0  0  0  0  0  0  0  0  0  0
  -47.2977  -15.4033   20.0329 C   0  0  0  0  0  0  0  0  0  0  0  0
  -46.8227  -13.9503   19.8589 C   0  0  0  0  0  0  0  0  0  0  0  0
  -47.0817  -15.8333   21.4939 C   0  0  0  0  0  0  0  0  0  0  0  0
  -47.5817  -13.0433   20.8499 C   0  0  0  0  0  0  0  0  0  0  0  0
  -47.8267  -14.8493   22.4169 C   0  0  0  0  0  0  0  0  0  0  0  0
  -47.5667  -15.2503   23.8459 C   0  0  0  0  0  0  0  0  0  0  0  0
  -48.0467  -10.7973   20.1989 C   0  0  0  0  0  0  0  0  0  0  0  0
  -48.8647  -10.1603   21.1149 C   0  0  0  0  0  0  0  0  0  0  0  0
  -48.1757  -10.5183   18.8429 C   0  0  0  0  0  0  0  0  0  0  0  0
  -49.7877   -9.2113   20.6979 C   0  0  0  0  0  0  0  0  0  0  0  0
  -49.9077   -8.9353   19.3359 C   0  0  0  0  0  0  0  0  0  0  0  0
  -49.0977   -9.6023   18.4099 C   0  0  0  0  0  0  0  0  0  0  0  0
  -50.8747   -7.9373   18.9279 C   0  0  0  0  0  0  0  0  0  0  0  0
  -51.3887   -7.5823   21.2499 C   0  0  0  0  0  0  0  0  0  0  0  0
  -51.5957   -7.2553   19.9409 C   0  0  0  0  0  0  0  0  0  0  0  0
  -52.0957   -6.8583   22.3379 C   0  0  0  0  0  0  0  0  0  0  0  0
  -49.7637  -11.2313   23.0459 C   0  0  0  0  0  0  0  0  0  0  0  0
  -51.6977   -5.6133   22.8059 C   0  0  0  0  0  0  0  0  0  0  0  0
  -53.2017   -7.4573   22.9219 C   0  0  0  0  0  0  0  0  0  0  0  0
  -52.3847   -4.9943   23.8229 C   0  0  0  0  0  0  0  0  0  0  0  0
  -53.8877   -6.8383   23.9379 C   0  0  0  0  0  0  0  0  0  0  0  0
  -53.4797   -5.6043   24.3909 C   0  0  0  0  0  0  0  0  0  0  0  0
  -48.2717  -15.4653   19.8119 H   0  0  0  0  0  0  0  0  0  0  0  0
  -45.8417  -13.9023   20.0459 H   0  0  0  0  0  0  0  0  0  0  0  0
  -46.1037  -15.8183   21.7049 H   0  0  0  0  0  0  0  0  0  0  0  0
  -48.5677  -13.0893   20.6889 H   0  0  0  0  0  0  0  0  0  0  0  0
  -48.8037  -14.8863   22.2089 H   0  0  0  0  0  0  0  0  0  0  0  0
  -47.0207  -16.3053   18.2359 H   0  0  0  0  0  0  0  0  0  0  0  0
  -47.5137  -14.2113   17.9669 H   0  0  0  0  0  0  0  0  0  0  0  0
  -48.5307  -17.1753   21.9599 H   0  0  0  0  0  0  0  0  0  0  0  0
  -48.3317   -9.3743   16.6159 H   0  0  0  0  0  0  0  0  0  0  0  0
  -47.5927  -10.9883   18.1809 H   0  0  0  0  0  0  0  0  0  0  0  0
  -52.2527   -6.5413   19.6979 H   0  0  0  0  0  0  0  0  0  0  0  0
  -50.4607  -11.4493   22.3629 H   0  0  0  0  0  0  0  0  0  0  0  0
  -49.3747  -12.0773   23.4119 H   0  0  0  0  0  0  0  0  0  0  0  0
  -50.1767  -10.7123   23.7949 H   0  0  0  0  0  0  0  0  0  0  0  0
  -50.9037   -5.1623   22.3999 H   0  0  0  0  0  0  0  0  0  0  0  0
  -53.5047   -8.3533   22.5979 H   0  0  0  0  0  0  0  0  0  0  0  0
  -52.0877   -4.0973   24.1509 H   0  0  0  0  0  0  0  0  0  0  0  0
  -54.6827   -7.2843   24.3489 H   0  0  0  0  0  0  0  0  0  0  0  0
  -53.9777   -5.1523   25.1319 H   0  0  0  0  0  0  0  0  0  0  0  0
  1 15  1  0
  1 16  1  0
  2 18  1  0
  6 17  1  0
  7 17  2  0
  8 21  1  0
  8 25  1  0
  9 19  1  0
  9 28  1  0
 10 23  1  0
 11 24  2  0
 12  3  1  0
 12 13  1  0
 12 14  1  0
 13  4  1  0
 13 15  1  0
 14  5  1  0
 14 16  1  0
 15  2  1  0
 16 17  1  0
 18 19  2  0
 18 20  1  0
 19 21  1  0
 20 23  2  0
 21 22  2  0
 22 23  1  0
 22 24  1  0
 24 26  1  0
 25 26  2  0
 25 27  1  0
 27 29  2  0
 27 30  1  0
 29 31  1  0
 30 32  2  0
 31 33  2  0
 32 33  1  0
  3 39  1  0
  4 40  1  0
  5 41  1  0
 10 42  1  0
 12 34  1  0
 13 35  1  0
 14 36  1  0
 15 37  1  0
 16 38  1  0
 20 43  1  0
 26 44  1  0
 28 45  1  0
 28 46  1  0
 28 47  1  0
 29 48  1  0
 30 49  1  0
 31 50  1  0
 32 51  1  0
 33 52  1  0
M  CHG  1   6  -1
M  END
>  <BioMolTech Lead Finder dG>
-7.53

>  <BioMolTech Lead Finder VSscore>
-11.241

>  <BioMolTech Lead Finder Rank score>
-10.841

>  <BioMolTech Lead Finder LE>
-0.228

>  <BioMolTech Lead Finder Structure Name>
/var/folders/xd/y7jw_xv579q2qqq7kks92xd80000gn/T/LeadFinder_36873_1/Ligand_1.sdf

>  <BioMolTech Lead Finder SDF id>
0

>  <BioMolTech Lead Finder Pose rank>
0

>  <BioMolTech Lead Finder version>
2001 1, 19 January 2019

>  <PUBCHEM_COMPOUND_CID>
3084961

>  <PUBCHEM_COMPOUND_CANONICALIZED>
1

>  <PUBCHEM_CACTVS_COMPLEXITY>
763

>  <PUBCHEM_CACTVS_HBOND_ACCEPTOR>
11

>  <PUBCHEM_CACTVS_HBOND_DONOR>
5

>  <PUBCHEM_CACTVS_ROTATABLE_BOND>
5

>  <PUBCHEM_CACTVS_SUBSKEYS>
AAADceB4PAAAAAAAAAAAAAAAAAAAAAAAAAA0YIEAAAAAAACBQAAAGgAACAAADBSwmAMyDoAABgCIAqDSCAICCAAkIAAIiAFGiMgdNzaGNR6ieWKl4BUPuQfK7LzOIQABCAAIQABCAAIQABCAAAAAAAAAAA==

>  <PUBCHEM_IUPAC_OPENEYE_NAME>
(2S,3S,4S,5R,6S)-3,4,5-trihydroxy-6-(5-hydroxy-8-methoxy-4-oxo-2-phenyl-chromen-7-yl)oxy-tetrahydropyran-2-carboxylic acid

>  <PUBCHEM_IUPAC_CAS_NAME>
(2S,3S,4S,5R,6S)-3,4,5-trihydroxy-6-[(5-hydroxy-8-methoxy-4-oxo-2-phenyl-1-benzopyran-7-yl)oxy]-2-oxanecarboxylic acid

>  <PUBCHEM_IUPAC_NAME_MARKUP>
(2<I>S</I>,3<I>S</I>,4<I>S</I>,5<I>R</I>,6<I>S</I>)-3,4,5-trihydroxy-6-(5-hydroxy-8-methoxy-4-oxo-2-phenylchromen-7-yl)oxyoxane-2-carboxylic acid

>  <PUBCHEM_IUPAC_NAME>
(2S,3S,4S,5R,6S)-3,4,5-trihydroxy-6-(5-hydroxy-8-methoxy-4-oxo-2-phenylchromen-7-yl)oxyoxane-2-carboxylic acid

>  <PUBCHEM_IUPAC_SYSTEMATIC_NAME>
(2S,3S,4S,5R,6S)-6-(8-methoxy-5-oxidanyl-4-oxidanylidene-2-phenyl-chromen-7-yl)oxy-3,4,5-tris(oxidanyl)oxane-2-carboxylic acid

>  <PUBCHEM_IUPAC_TRADITIONAL_NAME>
(2S,3S,4S,5R,6S)-3,4,5-trihydroxy-6-(5-hydroxy-4-keto-8-methoxy-2-phenyl-chromen-7-yl)oxy-tetrahydropyran-2-carboxylic acid

>  <PUBCHEM_IUPAC_INCHI>
InChI=1S/C22H20O11/c1-30-18-13(32-22-17(27)15(25)16(26)20(33-22)21(28)29)8-11(24)14-10(23)7-12(31-19(14)18)9-5-3-2-4-6-9/h2-8,15-17,20,22,24-27H,1H3,(H,28,29)/t15-,16-,17+,20-,22+/m0/s1

>  <PUBCHEM_IUPAC_INCHIKEY>
LNOHXHDWGCMVCO-NTKSAMNMSA-N

>  <PUBCHEM_XLOGP3_AA>
1.4

>  <PUBCHEM_EXACT_MASS>
460.100561

>  <PUBCHEM_MOLECULAR_FORMULA>
C22H20O11

>  <PUBCHEM_MOLECULAR_WEIGHT>
460.4

>  <PUBCHEM_OPENEYE_CAN_SMILES>
COC1=C(C=C(C2=C1OC(=CC2=O)C3=CC=CC=C3)O)OC4C(C(C(C(O4)C(=O)O)O)O)O

>  <PUBCHEM_OPENEYE_ISO_SMILES>
COC1=C(C=C(C2=C1OC(=CC2=O)C3=CC=CC=C3)O)O[C@H]4[C@@H]([C@H]([C@@H]([C@H](O4)C(=O)O)O)O)O

>  <PUBCHEM_CACTVS_TPSA>
172

>  <PUBCHEM_MONOISOTOPIC_WEIGHT>
460.100561

>  <PUBCHEM_TOTAL_CHARGE>
0

>  <PUBCHEM_HEAVY_ATOM_COUNT>
33

>  <PUBCHEM_ATOM_DEF_STEREO_COUNT>
5

>  <PUBCHEM_ATOM_UDEF_STEREO_COUNT>
0

>  <PUBCHEM_BOND_DEF_STEREO_COUNT>
0

>  <PUBCHEM_BOND_UDEF_STEREO_COUNT>
0

>  <PUBCHEM_ISOTOPIC_ATOM_COUNT>
0

>  <PUBCHEM_COMPONENT_COUNT>
1

>  <PUBCHEM_CACTVS_TAUTO_COUNT>
-1

>  <PUBCHEM_COORDINATE_TYPE>
1
5
255

>  <PUBCHEM_BONDANNOTATIONS>
16  17  5
18  19  8
18  20  8
19  21  8
15  2  5
20  23  8
21  22  8
22  23  8
22  24  8
24  26  8
25  26  8
27  29  8
27  30  8
29  31  8
12  3  5
30  32  8
31  33  8
32  33  8
13  4  6
14  5  6
8  21  8
8  25  8

>  <LF dG>
-7.53

>  <LF VSscore>
-11.241

>  <LF Rank Score>
-10.841

>  <LF LE>
-0.228

>  <Preferred Pose_cresset>
true

>  <Favorite_cresset>
false

>  <Protein_cresset>
6M2N_Dimer_P

>  <MW_cresset>
459.4

>  <#Atoms_cresset>
33

>  <SlogP_cresset>
1.4

>  <TPSA_cresset>
175

>  <Flexibility_cresset>
7.6

>  <#RB_cresset>
9

>  <Rof5_cresset>
1

>  <Filename_cresset>
Wogonoside.sdf

>  <Confs_cresset>
0

>  <Poses_cresset>
10

>  <_cresset_fieldpoints>
    -5     -46.552692     -17.900824      20.244808    -17.7915
    -5     -46.309738     -17.833778      22.990273    -15.8685
    -5     -46.814430     -11.931406      23.162621    -12.5612
    -5     -45.593174     -12.358505      18.032797     -9.9876
    -5     -46.586845     -16.359045      25.883671    -11.4851
    -5     -47.519337     -15.455690      26.320656    -11.1386
    -5     -49.329514      -8.281531      23.462158     -6.1714
    -5     -50.712112      -8.585237      16.145386    -23.1012
    -5     -54.717659      -4.782955      21.644619     -2.2808
    -6     -48.584293     -15.604420      17.431053     18.5716
    -6     -50.061920     -16.276775      21.243492     13.3945
    -6     -46.687027     -10.082846      16.134155      8.5260
    -6     -50.146194     -14.745262      20.563442     10.5049
    -6     -49.331650      -5.402152      21.049026      2.8061
    -6     -52.695267     -10.329655      21.885546      4.5385
    -6     -55.957314      -6.348508      26.077831      2.7267
    -6     -53.311249      -2.984534      25.928448      2.6793
    -6     -50.139542      -3.075036      22.982069      2.8191
    -7     -44.941166     -13.410671      22.657219     -2.3631
    -7     -46.559521     -11.784210      23.583286     -2.8336
    -7     -47.942940     -18.467194      19.644003     -1.5194
    -7     -47.667877     -18.310169      23.794392     -1.6583
    -7     -44.148598     -16.065214      19.747271     -1.5914
    -7     -45.408623     -15.004163      17.223129     -1.6546
    -7     -45.078312     -11.657438      18.545124     -2.0690
    -7     -50.448250     -16.375381      20.893433     -1.7400
    -7     -50.116676     -16.880533      23.568134     -1.3984
    -7     -47.025322     -16.074532      26.593918     -0.8509
    -7     -50.611629     -14.298523      24.057175     -1.8158
    -7     -49.714165     -13.412447      18.371361     -2.8254
    -7     -48.902866      -6.871529      16.636185     -1.7583
    -7     -50.931351     -12.523680      19.919708     -2.9338
    -7     -46.984623      -7.360251      20.172890     -1.9156
    -7     -51.732368      -9.750904      16.454460     -1.6373
    -7     -52.691639     -10.352450      21.256367     -2.9591
    -7     -48.893524      -5.990318      20.811539     -2.6537
    -7     -50.675037      -2.454263      22.314484     -0.9871
    -7     -54.352463      -5.117704      20.655739     -2.0430
    -7     -53.329651      -2.695359      26.136585     -0.9675
    -7     -49.478863      -8.049659      23.872005     -3.0685
    -7     -56.181145      -6.206907      26.364382     -0.9670
    -8     -48.990334      -9.863638      19.740335      6.6178
    -8     -47.423828     -14.702915      20.849422      5.1858
    -8     -52.791702      -6.226332      23.366825      7.1514
    -8     -50.421364     -11.713097      23.370993      2.5286
    -8     -50.696159      -8.170771      19.968245      5.0158

$$$$
W_Wogonin_D
  xed2sdf_05210316543D
 
 33 35  0  0  0  0  0  0  0  0999 V2000
  -48.2808   -2.9076   15.9568 O   0  0  0  0  0  0  0  0  0  0  0  0
  -49.3398   -5.1596   17.0008 O   0  0  0  0  0  0  0  0  0  0  0  0
  -52.4238   -2.2316   13.5468 O   0  0  0  0  0  0  0  0  0  0  0  0
  -51.8648   -5.9776   16.3538 O   0  0  0  0  0  0  0  0  0  0  0  0
  -50.3268   -0.5206   13.4218 O   0  0  0  0  0  0  0  0  0  0  0  0
  -50.3358   -2.4946   14.7258 C   0  0  0  0  0  0  0  0  0  0  0  0
  -49.5538   -3.2496   15.6068 C   0  0  0  0  0  0  0  0  0  0  0  0
  -47.7348   -1.7686   15.4198 C   0  0  0  0  0  0  0  0  0  0  0  0
  -50.0778   -4.4136   16.1558 C   0  0  0  0  0  0  0  0  0  0  0  0
  -49.7418   -1.2836   14.1888 C   0  0  0  0  0  0  0  0  0  0  0  0
  -51.6318   -2.9296   14.4028 C   0  0  0  0  0  0  0  0  0  0  0  0
  -48.4148   -0.9536   14.5638 C   0  0  0  0  0  0  0  0  0  0  0  0
  -46.3388   -1.4476   15.8198 C   0  0  0  0  0  0  0  0  0  0  0  0
  -51.3528   -4.8316   15.8258 C   0  0  0  0  0  0  0  0  0  0  0  0
  -52.1228   -4.0846   14.9508 C   0  0  0  0  0  0  0  0  0  0  0  0
  -45.2318   -1.8486   15.0838 C   0  0  0  0  0  0  0  0  0  0  0  0
  -46.1238   -0.7186   16.9798 C   0  0  0  0  0  0  0  0  0  0  0  0
  -43.9598   -1.5296   15.4938 C   0  0  0  0  0  0  0  0  0  0  0  0
  -44.8518   -0.3996   17.3898 C   0  0  0  0  0  0  0  0  0  0  0  0
  -43.7668   -0.8046   16.6478 C   0  0  0  0  0  0  0  0  0  0  0  0
  -49.1988   -4.6826   18.3538 C   0  0  0  0  0  0  0  0  0  0  0  0
  -53.3688   -2.5676   13.5448 H   0  0  0  0  0  0  0  0  0  0  0  0
  -51.7248   -6.7656   15.7458 H   0  0  0  0  0  0  0  0  0  0  0  0
  -47.9808   -0.1286   14.2028 H   0  0  0  0  0  0  0  0  0  0  0  0
  -53.0458   -4.3906   14.7178 H   0  0  0  0  0  0  0  0  0  0  0  0
  -45.3618   -2.3766   14.2438 H   0  0  0  0  0  0  0  0  0  0  0  0
  -46.9068   -0.4206   17.5258 H   0  0  0  0  0  0  0  0  0  0  0  0
  -43.1728   -1.8256   14.9528 H   0  0  0  0  0  0  0  0  0  0  0  0
  -44.7148    0.1274   18.2288 H   0  0  0  0  0  0  0  0  0  0  0  0
  -42.8408   -0.5726   16.9448 H   0  0  0  0  0  0  0  0  0  0  0  0
  -49.7028   -3.8236   18.4508 H   0  0  0  0  0  0  0  0  0  0  0  0
  -49.5648   -5.3606   18.9908 H   0  0  0  0  0  0  0  0  0  0  0  0
  -48.2318   -4.5316   18.5588 H   0  0  0  0  0  0  0  0  0  0  0  0
  1  7  1  0
  1  8  1  0
  2  9  1  0
  2 21  1  0
  3 11  1  0
  4 14  1  0
  5 10  2  0
  6  7  2  0
  6 10  1  0
  6 11  1  0
  7  9  1  0
  8 12  2  0
  8 13  1  0
  9 14  2  0
 10 12  1  0
 11 15  2  0
 13 16  2  0
 13 17  1  0
 14 15  1  0
 16 18  1  0
 17 19  2  0
 18 20  2  0
 19 20  1  0
  3 22  1  0
  4 23  1  0
 12 24  1  0
 15 25  1  0
 16 26  1  0
 17 27  1  0
 18 28  1  0
 19 29  1  0
 20 30  1  0
 21 31  1  0
 21 32  1  0
 21 33  1  0
M  END
>  <BioMolTech Lead Finder dG>
-7.023

>  <BioMolTech Lead Finder VSscore>
-8.218

>  <BioMolTech Lead Finder Rank score>
-10.376

>  <BioMolTech Lead Finder LE>
-0.334

>  <BioMolTech Lead Finder Structure Name>
/var/folders/xd/y7jw_xv579q2qqq7kks92xd80000gn/T/LeadFinder_39258_1/Ligand_1.sdf

>  <BioMolTech Lead Finder SDF id>
0

>  <BioMolTech Lead Finder Pose rank>
0

>  <BioMolTech Lead Finder version>
2001 1, 19 January 2019

>  <PUBCHEM_COMPOUND_CID>
5281703

>  <PUBCHEM_COMPOUND_CANONICALIZED>
1

>  <PUBCHEM_CACTVS_COMPLEXITY>
426

>  <PUBCHEM_CACTVS_HBOND_ACCEPTOR>
5

>  <PUBCHEM_CACTVS_HBOND_DONOR>
2

>  <PUBCHEM_CACTVS_ROTATABLE_BOND>
2

>  <PUBCHEM_CACTVS_SUBSKEYS>
AAADccB4OAAAAAAAAAAAAAAAAAAAAAAAAAAwYIAAAAAAAACBQAAAGgAACAAADASAmAIyBoAABgCIAqBSAAACCAAkIAAIiAEGiMgNJzaGNRqCeWOl4BULuQfK7LzOIQABCAAIQABCAAIQABCAAAAAAAAAAA==

>  <PUBCHEM_IUPAC_OPENEYE_NAME>
5,7-dihydroxy-8-methoxy-2-phenyl-chromen-4-one

>  <PUBCHEM_IUPAC_CAS_NAME>
5,7-dihydroxy-8-methoxy-2-phenyl-1-benzopyran-4-one

>  <PUBCHEM_IUPAC_NAME_MARKUP>
5,7-dihydroxy-8-methoxy-2-phenylchromen-4-one

>  <PUBCHEM_IUPAC_NAME>
5,7-dihydroxy-8-methoxy-2-phenylchromen-4-one

>  <PUBCHEM_IUPAC_SYSTEMATIC_NAME>
8-methoxy-5,7-bis(oxidanyl)-2-phenyl-chromen-4-one

>  <PUBCHEM_IUPAC_TRADITIONAL_NAME>
5,7-dihydroxy-8-methoxy-2-phenyl-chromone

>  <PUBCHEM_IUPAC_INCHI>
InChI=1S/C16H12O5/c1-20-15-12(19)7-10(17)14-11(18)8-13(21-16(14)15)9-5-3-2-4-6-9/h2-8,17,19H,1H3

>  <PUBCHEM_IUPAC_INCHIKEY>
XLTFNNCXVBYBSX-UHFFFAOYSA-N

>  <PUBCHEM_XLOGP3_AA>
3

>  <PUBCHEM_EXACT_MASS>
284.068473

>  <PUBCHEM_MOLECULAR_FORMULA>
C16H12O5

>  <PUBCHEM_MOLECULAR_WEIGHT>
284.26

>  <PUBCHEM_OPENEYE_CAN_SMILES>
COC1=C(C=C(C2=C1OC(=CC2=O)C3=CC=CC=C3)O)O

>  <PUBCHEM_OPENEYE_ISO_SMILES>
COC1=C(C=C(C2=C1OC(=CC2=O)C3=CC=CC=C3)O)O

>  <PUBCHEM_CACTVS_TPSA>
76

>  <PUBCHEM_MONOISOTOPIC_WEIGHT>
284.068473

>  <PUBCHEM_TOTAL_CHARGE>
0

>  <PUBCHEM_HEAVY_ATOM_COUNT>
21

>  <PUBCHEM_ATOM_DEF_STEREO_COUNT>
0

>  <PUBCHEM_ATOM_UDEF_STEREO_COUNT>
0

>  <PUBCHEM_BOND_DEF_STEREO_COUNT>
0

>  <PUBCHEM_BOND_UDEF_STEREO_COUNT>
0

>  <PUBCHEM_ISOTOPIC_ATOM_COUNT>
0

>  <PUBCHEM_COMPONENT_COUNT>
1

>  <PUBCHEM_CACTVS_TAUTO_COUNT>
-1

>  <PUBCHEM_COORDINATE_TYPE>
1
5
255

>  <PUBCHEM_BONDANNOTATIONS>
1  7  8
1  8  8
10  12  8
11  15  8
13  16  8
13  17  8
14  15  8
16  18  8
17  19  8
18  20  8
19  20  8
6  10  8
6  11  8
6  7  8
7  9  8
8  12  8
9  14  8

>  <LF dG>
-7.023

>  <LF VSscore>
-8.218

>  <LF Rank Score>
-10.376

>  <LF LE>
-0.334

>  <Preferred Pose_cresset>
true

>  <Favorite_cresset>
false

>  <Protein_cresset>
6M2N_Dimer_P

>  <MW_cresset>
284.3

>  <#Atoms_cresset>
21

>  <SlogP_cresset>
2.6

>  <TPSA_cresset>
76

>  <Flexibility_cresset>
1.7

>  <#RB_cresset>
4

>  <Rof5_cresset>
0

>  <Filename_cresset>
Wogonin.sdf

>  <Confs_cresset>
0

>  <Poses_cresset>
10

>  <_cresset_fieldpoints>
    -5     -46.855915      -4.685324      16.292084     -4.7347
    -5     -51.986641      -0.519832      12.567651    -14.2994
    -5     -52.199348      -6.142085      18.340034     -3.4232
    -5     -50.140667       1.057482      12.424091    -11.4822
    -5     -45.033623       1.445961      14.693731     -2.8863
    -6     -43.227127      -3.068941      12.948229      2.6553
    -6     -54.794228      -3.654418      13.630746      6.6840
    -6     -52.382259      -7.552766      14.312951      5.8706
    -6     -40.836464      -1.243148      15.727545      2.8959
    -6     -42.473450       0.700762      19.069653      3.0006
    -6     -46.626156       0.699702      19.690201      3.1007
    -6     -48.868378      -1.386850      18.278248      3.5422
    -7     -49.307152      -1.164830      17.983053     -2.9547
    -7     -51.138062      -1.782487      11.365795     -1.6489
    -7     -51.592201      -1.949419      17.941330     -2.2413
    -7     -47.478622      -3.473335      12.995419     -2.6242
    -7     -49.408108      -5.174471      12.796638     -1.8615
    -7     -50.594143      -7.616480      17.645123     -1.8738
    -7     -54.099842      -6.790173      15.627337     -1.2727
    -7     -52.628548       0.180043      14.253729     -1.6658
    -7     -52.977573      -3.717777      11.523829     -1.2354
    -7     -45.814072       1.478297      14.337700     -2.0547
    -7     -43.426468      -3.129126      12.528145     -0.9875
    -7     -42.276955       0.870460      19.202047     -0.9671
    -7     -46.570984      -4.689528      16.359264     -3.0218
    -7     -40.571030      -1.279863      15.590698     -0.9674
    -8     -50.854904      -3.644993      15.260806      6.6060
    -8     -45.049667      -1.121578      16.231674      7.1516
    -8     -49.204994      -1.929780      14.863842      4.9953
    -8     -49.140572      -4.355595      19.167332      2.5238

$$$$
Untitled
  xed2sdf_05210316543D
 
 33 35  0  0  0  0  0  0  0  0999 V2000
  -48.1165   -3.4700   15.8879 O   0  0  0  0  0  0  0  0  0  0  0  0
  -49.2765   -5.6960   16.8799 O   0  0  0  0  0  0  0  0  0  0  0  0
  -52.3755   -2.2910   13.9109 O   0  0  0  0  0  0  0  0  0  0  0  0
  -51.9085   -6.2570   16.4149 O   0  0  0  0  0  0  0  0  0  0  0  0
  -50.1545   -0.7520   13.7029 O   0  0  0  0  0  0  0  0  0  0  0  0
  -50.2245   -2.8050   14.8769 C   0  0  0  0  0  0  0  0  0  0  0  0
  -49.4395   -3.6820   15.6339 C   0  0  0  0  0  0  0  0  0  0  0  0
  -47.5205   -2.3440   15.3759 C   0  0  0  0  0  0  0  0  0  0  0  0
  -50.0155   -4.8350   16.1549 C   0  0  0  0  0  0  0  0  0  0  0  0
  -49.5745   -1.6120   14.3649 C   0  0  0  0  0  0  0  0  0  0  0  0
  -51.5765   -3.1090   14.6459 C   0  0  0  0  0  0  0  0  0  0  0  0
  -48.1975   -1.4190   14.6379 C   0  0  0  0  0  0  0  0  0  0  0  0
  -46.0735   -2.1670   15.6669 C   0  0  0  0  0  0  0  0  0  0  0  0
  -51.3455   -5.1230   15.9159 C   0  0  0  0  0  0  0  0  0  0  0  0
  -52.1185   -4.2560   15.1629 C   0  0  0  0  0  0  0  0  0  0  0  0
  -45.1145   -2.0270   14.6719 C   0  0  0  0  0  0  0  0  0  0  0  0
  -45.6525   -2.1430   16.9889 C   0  0  0  0  0  0  0  0  0  0  0  0
  -43.7875   -1.8680   14.9899 C   0  0  0  0  0  0  0  0  0  0  0  0
  -44.3255   -1.9840   17.3059 C   0  0  0  0  0  0  0  0  0  0  0  0
  -43.3895   -1.8450   16.3069 C   0  0  0  0  0  0  0  0  0  0  0  0
  -49.3295   -5.5660   18.3149 C   0  0  0  0  0  0  0  0  0  0  0  0
  -53.2085   -2.7530   13.5999 H   0  0  0  0  0  0  0  0  0  0  0  0
  -51.7915   -7.0390   15.7939 H   0  0  0  0  0  0  0  0  0  0  0  0
  -47.7255   -0.6090   14.2919 H   0  0  0  0  0  0  0  0  0  0  0  0
  -53.0815   -4.4680   14.9959 H   0  0  0  0  0  0  0  0  0  0  0  0
  -45.3935   -2.0420   13.7119 H   0  0  0  0  0  0  0  0  0  0  0  0
  -46.3255   -2.2440   17.7209 H   0  0  0  0  0  0  0  0  0  0  0  0
  -43.1095   -1.7680   14.2619 H   0  0  0  0  0  0  0  0  0  0  0  0
  -44.0395   -1.9680   18.2639 H   0  0  0  0  0  0  0  0  0  0  0  0
  -42.4235   -1.7290   16.5369 H   0  0  0  0  0  0  0  0  0  0  0  0
  -49.9435   -4.8130   18.5519 H   0  0  0  0  0  0  0  0  0  0  0  0
  -49.6685   -6.4160   18.7189 H   0  0  0  0  0  0  0  0  0  0  0  0
  -48.4135   -5.3800   18.6709 H   0  0  0  0  0  0  0  0  0  0  0  0
  1  7  1  0
  1  8  1  0
  2  9  1  0
  2 21  1  0
  3 11  1  0
  4 14  1  0
  5 10  2  0
  6  7  2  0
  6 10  1  0
  6 11  1  0
  7  9  1  0
  8 12  2  0
  8 13  1  0
  9 14  2  0
 10 12  1  0
 11 15  2  0
 13 16  2  0
 13 17  1  0
 14 15  1  0
 16 18  1  0
 17 19  2  0
 18 20  2  0
 19 20  1  0
  3 22  1  0
  4 23  1  0
 12 24  1  0
 15 25  1  0
 16 26  1  0
 17 27  1  0
 18 28  1  0
 19 29  1  0
 20 30  1  0
 21 31  1  0
 21 32  1  0
 21 33  1  0
M  END
>  <BioMolTech Lead Finder dG>
-6.966

>  <BioMolTech Lead Finder VSscore>
-7.985

>  <BioMolTech Lead Finder Rank score>
-10.556

>  <BioMolTech Lead Finder LE>
-0.332

>  <BioMolTech Lead Finder Structure Name>
/var/folders/xd/y7jw_xv579q2qqq7kks92xd80000gn/T/LeadFinder_37644_1/Ligand_1.sdf

>  <BioMolTech Lead Finder SDF id>
0

>  <BioMolTech Lead Finder Pose rank>
0

>  <BioMolTech Lead Finder version>
2001 1, 19 January 2019

>  <PUBCHEM_COMPOUND_CID>
5281703

>  <PUBCHEM_COMPOUND_CANONICALIZED>
1

>  <PUBCHEM_CACTVS_COMPLEXITY>
426

>  <PUBCHEM_CACTVS_HBOND_ACCEPTOR>
5

>  <PUBCHEM_CACTVS_HBOND_DONOR>
2

>  <PUBCHEM_CACTVS_ROTATABLE_BOND>
2

>  <PUBCHEM_CACTVS_SUBSKEYS>
AAADccB4OAAAAAAAAAAAAAAAAAAAAAAAAAAwYIAAAAAAAACBQAAAGgAACAAADASAmAIyBoAABgCIAqBSAAACCAAkIAAIiAEGiMgNJzaGNRqCeWOl4BULuQfK7LzOIQABCAAIQABCAAIQABCAAAAAAAAAAA==

>  <PUBCHEM_IUPAC_OPENEYE_NAME>
5,7-dihydroxy-8-methoxy-2-phenyl-chromen-4-one

>  <PUBCHEM_IUPAC_CAS_NAME>
5,7-dihydroxy-8-methoxy-2-phenyl-1-benzopyran-4-one

>  <PUBCHEM_IUPAC_NAME_MARKUP>
5,7-dihydroxy-8-methoxy-2-phenylchromen-4-one

>  <PUBCHEM_IUPAC_NAME>
5,7-dihydroxy-8-methoxy-2-phenylchromen-4-one

>  <PUBCHEM_IUPAC_SYSTEMATIC_NAME>
8-methoxy-5,7-bis(oxidanyl)-2-phenyl-chromen-4-one

>  <PUBCHEM_IUPAC_TRADITIONAL_NAME>
5,7-dihydroxy-8-methoxy-2-phenyl-chromone

>  <PUBCHEM_IUPAC_INCHI>
InChI=1S/C16H12O5/c1-20-15-12(19)7-10(17)14-11(18)8-13(21-16(14)15)9-5-3-2-4-6-9/h2-8,17,19H,1H3

>  <PUBCHEM_IUPAC_INCHIKEY>
XLTFNNCXVBYBSX-UHFFFAOYSA-N

>  <PUBCHEM_XLOGP3_AA>
3

>  <PUBCHEM_EXACT_MASS>
284.068473

>  <PUBCHEM_MOLECULAR_FORMULA>
C16H12O5

>  <PUBCHEM_MOLECULAR_WEIGHT>
284.26

>  <PUBCHEM_OPENEYE_CAN_SMILES>
COC1=C(C=C(C2=C1OC(=CC2=O)C3=CC=CC=C3)O)O

>  <PUBCHEM_OPENEYE_ISO_SMILES>
COC1=C(C=C(C2=C1OC(=CC2=O)C3=CC=CC=C3)O)O

>  <PUBCHEM_CACTVS_TPSA>
76

>  <PUBCHEM_MONOISOTOPIC_WEIGHT>
284.068473

>  <PUBCHEM_TOTAL_CHARGE>
0

>  <PUBCHEM_HEAVY_ATOM_COUNT>
21

>  <PUBCHEM_ATOM_DEF_STEREO_COUNT>
0

>  <PUBCHEM_ATOM_UDEF_STEREO_COUNT>
0

>  <PUBCHEM_BOND_DEF_STEREO_COUNT>
0

>  <PUBCHEM_BOND_UDEF_STEREO_COUNT>
0

>  <PUBCHEM_ISOTOPIC_ATOM_COUNT>
0

>  <PUBCHEM_COMPONENT_COUNT>
1

>  <PUBCHEM_CACTVS_TAUTO_COUNT>
-1

>  <PUBCHEM_COORDINATE_TYPE>
1
5
255

>  <PUBCHEM_BONDANNOTATIONS>
1  7  8
1  8  8
10  12  8
11  15  8
13  16  8
13  17  8
14  15  8
16  18  8
17  19  8
18  20  8
19  20  8
6  10  8
6  11  8
6  7  8
7  9  8
8  12  8
9  14  8

>  <LF dG>
-6.966

>  <LF VSscore>
-7.985

>  <LF Rank Score>
-10.556

>  <LF LE>
-0.332

>  <Preferred Pose_cresset>
true

>  <Favorite_cresset>
false

>  <Protein_cresset>
6M2N_Dimer_P

>  <MW_cresset>
284.3

>  <#Atoms_cresset>
21

>  <SlogP_cresset>
2.6

>  <TPSA_cresset>
76

>  <Flexibility_cresset>
1.7

>  <#RB_cresset>
4

>  <Rof5_cresset>
0

>  <Filename_cresset>
Wogonin.sdf

>  <Confs_cresset>
0

>  <Poses_cresset>
10

>  <_cresset_fieldpoints>
    -5     -46.847775      -5.321713      16.123394     -5.6099
    -5     -51.936981      -0.438106      13.233956    -14.3910
    -5     -52.782646      -6.149652      18.272465     -2.6617
    -5     -45.049961       0.960909      16.135246     -3.0896
    -5     -50.036247       0.932817      12.880842    -11.4609
    -6     -43.575768      -1.768368      11.937312      2.6273
    -6     -52.403343      -7.839334      14.356346      6.0320
    -6     -54.559418      -3.927082      13.446066      6.7590
    -6     -45.987926      -2.479610      20.025002      3.0742
    -6     -40.678757      -1.475218      14.825777      2.8143
    -6     -41.679283      -1.698153      18.928404      2.8871
    -6     -47.983467      -2.840065      19.026932      3.4255
    -7     -50.267357      -8.331964      16.802952     -1.8102
    -7     -54.489483      -1.682664      15.249195     -1.2384
    -7     -49.719955      -5.416270      12.703997     -1.8574
    -7     -51.181267      -2.421047      18.233479     -2.2414
    -7     -54.176628      -6.941379      15.688873     -1.2776
    -7     -51.350113      -1.743543      11.681070     -1.6869
    -7     -52.237801       0.093998      14.882204     -1.6346
    -7     -46.179798       1.087726      15.726395     -2.0137
    -7     -47.559029      -3.815907      12.823368     -2.5711
    -7     -43.860207      -1.516338      11.581970     -0.9953
    -7     -46.547604      -5.346824      16.389187     -3.0249
    -7     -41.443520      -1.719029      19.089897     -0.9671
    -7     -48.734474      -2.217730      18.336830     -2.8816
    -7     -40.424706      -1.461948      14.696810     -0.9674
    -7     -52.512733      -6.109963      18.804279     -1.6529
    -8     -50.800842      -3.944298      15.385580      6.6060
    -8     -44.728546      -2.003823      15.986993      7.1506
    -8     -49.041359      -2.345508      14.944366      4.9928
    -8     -49.387699      -5.448332      19.187786      2.5226

$$$$
W_VTRRT_D
  xed2sdf_05210316543D
 
 92 97  0  0  1  0  0  0  0  0999 V2000
  -44.1348   -1.5175   15.4840 C   0  0  0  0  0  0  0  0  0  0  0  0
  -45.2718   -1.6295   14.7160 C   0  0  0  0  0  0  0  0  0  0  0  0
  -46.4528   -1.0585   15.1360 C   0  0  0  0  0  0  0  0  0  0  0  0
  -46.4868   -0.3715   16.3300 C   0  0  0  0  0  0  0  0  0  0  0  0
  -45.3518   -0.2575   17.0980 C   0  0  0  0  0  0  0  0  0  0  0  0
  -44.1748   -0.8315   16.6760 C   0  0  0  0  0  0  0  0  0  0  0  0
  -47.7108   -1.1805   14.2880 C   0  0  0  0  0  0  0  0  0  0  0  0
  -48.2698   -2.6135   14.1510 C   0  0  0  0  0  0  0  0  0  0  0  0
  -49.4648   -2.5935   13.2370 N   0  3  0  0  0  0  0  0  0  0  0  0
  -48.6358   -3.1615   15.5490 C   0  0  0  0  0  0  0  0  0  0  0  0
  -47.5128   -3.8645   16.1070 O   0  0  0  0  0  0  0  0  0  0  0  0
  -49.8578   -4.1035   15.4840 C   0  0  0  0  0  0  0  0  0  0  0  0
  -50.1648   -4.7265   16.8630 C   0  0  0  0  0  0  0  0  0  0  0  0
  -51.6318   -4.4595   17.2650 C   0  0  0  0  0  0  0  0  0  0  0  0
  -52.6748   -5.2335   16.4710 C   0  0  0  0  0  0  0  0  0  0  0  0
  -53.0798   -6.4815   16.8900 C   0  0  0  0  0  0  0  0  0  0  0  0
  -54.0228   -7.1815   16.1720 C   0  0  0  0  0  0  0  0  0  0  0  0
  -54.5648   -6.6355   15.0320 C   0  0  0  0  0  0  0  0  0  0  0  0
  -54.1648   -5.3885   14.6100 C   0  0  0  0  0  0  0  0  0  0  0  0
  -53.2218   -4.6895   15.3290 C   0  0  0  0  0  0  0  0  0  0  0  0
  -49.8808   -6.1665   16.7720 N   0  0  0  0  0  0  0  0  0  0  0  0
  -49.6638   -6.8645   18.0900 P   0  0  0  0  0  0  0  0  0  0  0  0
  -48.4648   -7.9225   17.9350 O   0  0  0  0  0  0  0  0  0  0  0  0
  -50.9118   -7.7905   18.5290 O   0  0  0  0  0  0  0  0  0  0  0  0
  -49.3298   -5.8715   19.1730 O   0  0  0  0  0  0  0  0  0  0  0  0
  -47.1148   -7.4635   18.1000 C   0  0  0  0  0  0  0  0  0  0  0  0
  -51.2798   -7.9585   19.8360 C   0  0  0  0  0  0  0  0  0  0  0  0
  -52.2428   -7.1255   20.3720 C   0  0  0  0  0  0  0  0  0  0  0  0
  -52.6388   -7.2685   21.6810 C   0  0  0  0  0  0  0  0  0  0  0  0
  -52.0728   -8.2445   22.4690 C   0  0  0  0  0  0  0  0  0  0  0  0
  -51.1098   -9.0775   21.9450 C   0  0  0  0  0  0  0  0  0  0  0  0
  -50.7158   -8.9365   20.6350 C   0  0  0  0  0  0  0  0  0  0  0  0
  -46.5598   -7.9225   19.4580 C   0  0  0  0  0  0  0  0  0  0  0  0
  -45.1288   -8.0575   19.4430 O   0  0  0  0  0  0  0  0  0  0  0  0
  -44.7188   -9.0935   20.3600 C   0  0  0  0  0  0  0  0  0  0  0  0
  -46.0278   -9.7155   20.9070 C   0  0  0  0  0  0  0  0  0  0  0  0
  -47.0928   -9.2965   19.8880 C   0  0  0  0  0  0  0  0  0  0  0  0
  -47.1148  -10.2275   18.7940 O   0  0  0  0  0  0  0  0  0  0  0  0
  -45.9768  -11.1425   21.0610 O   0  0  0  0  0  0  0  0  0  0  0  0
  -43.7858  -10.0605   19.6330 C   0  0  0  0  0  0  0  0  0  0  0  0
  -43.9778   -8.4705   21.4640 C   0  0  0  0  0  0  0  0  0  0  0  0
  -43.4058   -7.9885   22.3190 N   0  0  0  0  0  0  0  0  0  0  0  0
  -43.0608  -11.0015   20.2890 N   0  0  0  0  0  0  0  0  0  0  0  0
  -42.3648  -11.6525   19.3210 C   0  0  0  0  0  0  0  0  0  0  0  0
  -42.6368  -11.1455   18.0910 C   0  0  0  0  0  0  0  0  0  0  0  0
  -43.5578  -10.1155   18.3040 C   0  0  0  0  0  0  0  0  0  0  0  0
  -42.9368  -11.3495   21.6030 N   0  0  0  0  0  0  0  0  0  0  0  0
  -42.1228  -12.3355   21.8980 C   0  0  0  0  0  0  0  0  0  0  0  0
  -41.3718  -13.0625   21.0100 N   0  0  0  0  0  0  0  0  0  0  0  0
  -41.5038  -12.7065   19.7240 C   0  0  0  0  0  0  0  0  0  0  0  0
  -40.7658  -13.4075   18.7990 N   0  0  0  0  0  0  0  0  0  0  0  0
  -47.5798   -3.2185   13.7540 H   0  0  0  0  0  0  0  0  0  0  0  0
  -48.8728   -2.3845   16.1310 H   0  0  0  0  0  0  0  0  0  0  0  0
  -49.5948   -4.3135   17.5730 H   0  0  0  0  0  0  0  0  0  0  0  0
  -46.8558   -7.2095   20.0930 H   0  0  0  0  0  0  0  0  0  0  0  0
  -46.2168   -9.3895   21.8330 H   0  0  0  0  0  0  0  0  0  0  0  0
  -48.0318   -9.2725   20.2320 H   0  0  0  0  0  0  0  0  0  0  0  0
  -43.2798   -1.9355   15.1760 H   0  0  0  0  0  0  0  0  0  0  0  0
  -45.2398   -2.1285   13.8500 H   0  0  0  0  0  0  0  0  0  0  0  0
  -47.3418    0.0465   16.6390 H   0  0  0  0  0  0  0  0  0  0  0  0
  -45.3818    0.2415   17.9640 H   0  0  0  0  0  0  0  0  0  0  0  0
  -43.3488   -0.7505   17.2350 H   0  0  0  0  0  0  0  0  0  0  0  0
  -47.5038   -0.8375   13.3720 H   0  0  0  0  0  0  0  0  0  0  0  0
  -48.4168   -0.6505   14.7570 H   0  0  0  0  0  0  0  0  0  0  0  0
  -50.1648   -2.1425   13.6040 H   0  0  0  0  0  0  0  0  0  0  0  0
  -49.2748   -2.1885   12.4440 H   0  0  0  0  0  0  0  0  0  0  0  0
  -49.7578   -3.4295   13.0350 H   0  0  0  0  0  0  0  0  0  0  0  0
  -47.1058   -4.4945   15.4370 H   0  0  0  0  0  0  0  0  0  0  0  0
  -49.6718   -4.8355   14.8290 H   0  0  0  0  0  0  0  0  0  0  0  0
  -50.6518   -3.5675   15.1990 H   0  0  0  0  0  0  0  0  0  0  0  0
  -51.8128   -3.4835   17.1490 H   0  0  0  0  0  0  0  0  0  0  0  0
  -51.7198   -4.7715   18.2110 H   0  0  0  0  0  0  0  0  0  0  0  0
  -52.6868   -6.8805   17.7190 H   0  0  0  0  0  0  0  0  0  0  0  0
  -54.3128   -8.0875   16.4800 H   0  0  0  0  0  0  0  0  0  0  0  0
  -55.2498   -7.1445   14.5100 H   0  0  0  0  0  0  0  0  0  0  0  0
  -54.5588   -4.9895   13.7820 H   0  0  0  0  0  0  0  0  0  0  0  0
  -52.9318   -3.7835   15.0210 H   0  0  0  0  0  0  0  0  0  0  0  0
  -50.6098   -6.6465   16.2310 H   0  0  0  0  0  0  0  0  0  0  0  0
  -47.0968   -6.4645   18.0530 H   0  0  0  0  0  0  0  0  0  0  0  0
  -46.5488   -7.8465   17.3700 H   0  0  0  0  0  0  0  0  0  0  0  0
  -52.6558   -6.4135   19.8040 H   0  0  0  0  0  0  0  0  0  0  0  0
  -53.3388   -6.6635   22.0600 H   0  0  0  0  0  0  0  0  0  0  0  0
  -52.3598   -8.3485   23.4210 H   0  0  0  0  0  0  0  0  0  0  0  0
  -50.6978   -9.7865   22.5170 H   0  0  0  0  0  0  0  0  0  0  0  0
  -50.0168   -9.5445   20.2580 H   0  0  0  0  0  0  0  0  0  0  0  0
  -46.6348   -9.8585   17.9900 H   0  0  0  0  0  0  0  0  0  0  0  0
  -45.8538  -11.6015   20.1750 H   0  0  0  0  0  0  0  0  0  0  0  0
  -42.2588  -11.4465   17.2160 H   0  0  0  0  0  0  0  0  0  0  0  0
  -43.9678   -9.5305   17.6050 H   0  0  0  0  0  0  0  0  0  0  0  0
  -42.0428  -12.5815   22.8640 H   0  0  0  0  0  0  0  0  0  0  0  0
  -40.2358  -14.0575   19.0650 H   0  0  0  0  0  0  0  0  0  0  0  0
  -40.8198  -13.2085   17.9430 H   0  0  0  0  0  0  0  0  0  0  0  0
  1  2  2  0
  2  3  1  0
  3  4  2  0
  3  7  1  0
  4  5  1  0
  5  6  2  0
  6  1  1  0
  7  8  1  0
  8  9  1  0
  8 10  1  0
 10 11  1  0
 10 12  1  0
 12 13  1  0
 13 14  1  0
 13 21  1  0
 14 15  1  0
 15 16  2  0
 16 17  1  0
 17 18  2  0
 18 19  1  0
 19 20  2  0
 20 15  1  0
 21 22  1  0
 22 23  1  0
 22 24  1  0
 22 25  2  0
 23 26  1  0
 24 27  1  0
 27 28  2  0
 28 29  1  0
 29 30  2  0
 30 31  1  0
 31 32  2  0
 32 27  1  0
 33 26  1  0
 33 34  1  0
 34 35  1  0
 35 36  1  0
 35 40  1  0
 35 41  1  0
 36 37  1  0
 36 39  1  0
 37 33  1  0
 37 38  1  0
 40 43  1  0
 41 42  3  0
 43 44  1  0
 43 47  1  0
 44 45  2  0
 45 46  1  0
 46 40  2  0
 47 48  2  0
 48 49  1  0
 49 50  2  0
 50 44  1  0
 50 51  1  0
  1 58  1  0
  2 59  1  0
  4 60  1  0
  5 61  1  0
  6 62  1  0
  7 63  1  0
  7 64  1  0
  8 52  1  0
  9 65  1  0
  9 66  1  0
  9 67  1  0
 10 53  1  0
 11 68  1  0
 12 69  1  0
 12 70  1  0
 13 54  1  0
 14 71  1  0
 14 72  1  0
 16 73  1  0
 17 74  1  0
 18 75  1  0
 19 76  1  0
 20 77  1  0
 21 78  1  0
 26 79  1  0
 26 80  1  0
 28 81  1  0
 29 82  1  0
 30 83  1  0
 31 84  1  0
 32 85  1  0
 33 55  1  0
 36 56  1  0
 37 57  1  0
 38 86  1  0
 39 87  1  0
 45 88  1  0
 46 89  1  0
 48 90  1  0
 51 91  1  0
 51 92  1  0
M  CHG  1   9   1
M  END
>  <BioMolTech Lead Finder dG>
-8.597

>  <BioMolTech Lead Finder VSscore>
-13.952

>  <BioMolTech Lead Finder Rank score>
-13.275

>  <BioMolTech Lead Finder LE>
-0.169

>  <BioMolTech Lead Finder Structure Name>
/var/folders/xd/y7jw_xv579q2qqq7kks92xd80000gn/T/LeadFinder_39260_1/Ligand_1.sdf

>  <BioMolTech Lead Finder SDF id>
0

>  <BioMolTech Lead Finder Pose rank>
0

>  <BioMolTech Lead Finder version>
2001 1, 19 January 2019

>  <LF dG>
-8.597

>  <LF VSscore>
-13.952

>  <LF Rank Score>
-13.275

>  <LF LE>
-0.169

>  <Preferred Pose_cresset>
true

>  <Favorite_cresset>
false

>  <Protein_cresset>
6M2N_Dimer_P

>  <MW_cresset>
714.7

>  <#Atoms_cresset>
51

>  <SlogP_cresset>
4

>  <TPSA_cresset>
225.1

>  <Flexibility_cresset>
17.1

>  <#RB_cresset>
18

>  <Rof5_cresset>
3

>  <Filename_cresset>
VTRRT-13V2.1.sdf

>  <Confs_cresset>
0

>  <Poses_cresset>
10

>  <_cresset_fieldpoints>
    -5     -41.903252      -8.903127      23.419949    -10.0950
    -5     -44.533310       1.538478      14.660638     -3.0237
    -5     -46.475777      -3.210263      17.461737    -10.2245
    -5     -55.826233      -4.941853      17.375568     -2.5754
    -5     -51.509502      -9.463251      17.443344     -4.8770
    -5     -53.567055     -10.096424      20.178562     -4.3188
    -5     -49.671341      -5.790142      21.535378     -2.9734
    -5     -44.991814     -11.922777      22.428913    -10.8974
    -5     -48.927917     -10.075653      17.923660     -7.4388
    -5     -39.697502     -13.729527      21.921921     -4.7251
    -6     -47.072697      -5.462556      13.931190     10.0088
    -6     -45.769970      -9.700242      16.380718      8.8754
    -6     -51.675293      -1.579403      15.063412      9.5303
    -6     -43.504604       0.854379      19.348675      2.3478
    -6     -40.967911     -12.818575      16.031715     10.2480
    -6     -47.313480      -2.459437      11.341750      7.7441
    -6     -47.136314      -5.026077      20.254402      1.7810
    -6     -47.621868      -7.468674      22.226898      3.6558
    -6     -53.187943      -4.191064      19.983315      4.2465
    -7     -45.519394      -4.782809      13.972042     -2.0744
    -7     -40.982933      -1.995628      16.653202     -0.9697
    -7     -46.337543      -2.406645      11.521544     -1.9640
    -7     -49.936630      -1.685273      18.257530     -2.3413
    -7     -50.353027      -1.361025      17.772621     -2.3296
    -7     -51.229076      -1.166899      15.798164     -2.9546
    -7     -52.952454      -1.440184      16.273624     -1.7614
    -7     -47.191360      -3.911642      18.394081     -3.3792
    -7     -50.505058      -4.328326      20.424534     -2.9244
    -7     -43.246277       0.521194      19.650494     -0.9691
    -7     -44.780151       1.760903      14.187612     -1.8337
    -7     -50.146523       0.295377      12.848427     -1.6079
    -7     -52.192112      -3.292266      12.597868     -2.2081
    -7     -47.814648      -6.598448      15.119148     -3.1330
    -7     -51.380943      -9.324615      16.705084     -2.7466
    -7     -54.241058      -4.577775      19.400230     -2.4382
    -7     -56.155373      -9.640245      15.215368     -0.9766
    -7     -56.427834      -6.218795      12.221494     -0.9694
    -7     -49.331585     -10.171642      17.782200     -3.2019
    -7     -54.024620      -9.413809      18.717957     -2.2463
    -7     -54.255898      -6.781290      24.627026     -0.9691
    -7     -50.812340      -9.770258      25.240173     -0.9756
    -7     -48.632088     -11.457852      21.760780     -2.1867
    -7     -48.802299      -6.379116      21.480585     -3.4763
    -7     -44.757256     -11.165621      23.347176     -2.1917
    -7     -46.084053     -12.197470      18.070950     -2.6104
    -7     -44.885902     -13.459639      20.478102     -2.3562
    -7     -40.851791      -9.267115      21.055067     -2.3807
    -7     -43.830032      -6.794019      17.952084     -2.5305
    -7     -45.870041      -9.909729      15.950211     -1.9374
    -7     -43.047638     -14.423245      17.241882     -1.5198
    -7     -39.240406     -11.115705      17.768948     -1.5179
    -7     -50.916943      -7.059509      14.240429     -3.3494
    -7     -46.118084      -3.674487      17.831989     -3.2762
    -7     -39.815117     -14.918252      21.576351     -1.1831
    -8     -45.317528      -0.945930      15.904789      7.1900
    -8     -47.260956      -1.734820      14.648331      5.6206
    -8     -53.612732      -5.930877      15.754739      7.2081
    -8     -46.497734      -1.087098      15.127605      5.7392
    -8     -51.468765      -4.548130      16.311810      5.6136
    -8     -49.871094      -3.782599      16.129051      5.0886
    -8     -49.301483      -3.296699      15.047600      4.6798
    -8     -51.687412      -8.105184      21.186787      7.0381
    -8     -46.388947      -8.777534      20.510403      4.6461
    -8     -43.094688     -10.688738      18.507389      4.9158
    -8     -45.195663      -9.069687      21.110512      4.0095
    -8     -41.988861     -12.678455      23.116341      1.2362

$$$$
VTRRT_D
  xed2sdf_05210316543D
 
 92 97  0  0  1  0  0  0  0  0999 V2000
  -48.9770  -10.0679   22.5305 C   0  0  0  0  0  0  0  0  0  0  0  0
  -49.4460   -8.7759   22.4595 C   0  0  0  0  0  0  0  0  0  0  0  0
  -50.8020   -8.5279   22.4645 C   0  0  0  0  0  0  0  0  0  0  0  0
  -51.6840   -9.5839   22.5445 C   0  0  0  0  0  0  0  0  0  0  0  0
  -51.2160  -10.8759   22.6155 C   0  0  0  0  0  0  0  0  0  0  0  0
  -49.8620  -11.1189   22.6085 C   0  0  0  0  0  0  0  0  0  0  0  0
  -51.3230   -7.1009   22.3875 C   0  0  0  0  0  0  0  0  0  0  0  0
  -50.9660   -6.3449   21.0885 C   0  0  0  0  0  0  0  0  0  0  0  0
  -50.9700   -4.8659   21.3605 N   0  3  0  0  0  0  0  0  0  0  0  0
  -51.9750   -6.7189   19.9785 C   0  0  0  0  0  0  0  0  0  0  0  0
  -51.4620   -7.8139   19.2005 O   0  0  0  0  0  0  0  0  0  0  0  0
  -52.2680   -5.5179   19.0535 C   0  0  0  0  0  0  0  0  0  0  0  0
  -51.4470   -5.5949   17.7495 C   0  0  0  0  0  0  0  0  0  0  0  0
  -52.2020   -4.9089   16.5895 C   0  0  0  0  0  0  0  0  0  0  0  0
  -53.3070   -5.7379   15.9525 C   0  0  0  0  0  0  0  0  0  0  0  0
  -53.6100   -6.9869   16.4485 C   0  0  0  0  0  0  0  0  0  0  0  0
  -54.6100   -7.7389   15.8735 C   0  0  0  0  0  0  0  0  0  0  0  0
  -55.3110   -7.2429   14.7985 C   0  0  0  0  0  0  0  0  0  0  0  0
  -55.0130   -5.9949   14.3005 C   0  0  0  0  0  0  0  0  0  0  0  0
  -54.0140   -5.2459   14.8775 C   0  0  0  0  0  0  0  0  0  0  0  0
  -50.1480   -4.9549   18.0035 N   0  0  0  0  0  0  0  0  0  0  0  0
  -48.9600   -5.6359   17.3745 P   0  0  0  0  0  0  0  0  0  0  0  0
  -47.9510   -6.1119   18.5295 O   0  0  0  0  0  0  0  0  0  0  0  0
  -48.0520   -4.6329   16.4905 O   0  0  0  0  0  0  0  0  0  0  0  0
  -49.3950   -6.8229   16.5545 O   0  0  0  0  0  0  0  0  0  0  0  0
  -47.7470   -7.5189   18.7275 C   0  0  0  0  0  0  0  0  0  0  0  0
  -48.5810   -3.5759   15.8005 C   0  0  0  0  0  0  0  0  0  0  0  0
  -48.2250   -2.2929   16.1665 C   0  0  0  0  0  0  0  0  0  0  0  0
  -48.7340   -1.2089   15.4925 C   0  0  0  0  0  0  0  0  0  0  0  0
  -49.6100   -1.3969   14.4465 C   0  0  0  0  0  0  0  0  0  0  0  0
  -49.9730   -2.6719   14.0765 C   0  0  0  0  0  0  0  0  0  0  0  0
  -49.4610   -3.7569   14.7485 C   0  0  0  0  0  0  0  0  0  0  0  0
  -46.2430   -7.8429   18.7255 C   0  0  0  0  0  0  0  0  0  0  0  0
  -45.9590   -9.1029   18.0945 O   0  0  0  0  0  0  0  0  0  0  0  0
  -44.7920   -9.7049   18.6925 C   0  0  0  0  0  0  0  0  0  0  0  0
  -44.3890   -8.7729   19.8625 C   0  0  0  0  0  0  0  0  0  0  0  0
  -45.6540   -7.9539   20.1385 C   0  0  0  0  0  0  0  0  0  0  0  0
  -46.5220   -8.6799   21.0235 O   0  0  0  0  0  0  0  0  0  0  0  0
  -43.9430   -9.4689   21.0365 O   0  0  0  0  0  0  0  0  0  0  0  0
  -45.1180  -11.1439   19.0825 C   0  0  0  0  0  0  0  0  0  0  0  0
  -43.7160   -9.7229   17.6935 C   0  0  0  0  0  0  0  0  0  0  0  0
  -42.8840   -9.7379   16.9195 N   0  0  0  0  0  0  0  0  0  0  0  0
  -46.3910  -11.5809   19.2545 N   0  0  0  0  0  0  0  0  0  0  0  0
  -46.2760  -12.8909   19.5945 C   0  0  0  0  0  0  0  0  0  0  0  0
  -44.9750  -13.2769   19.6375 C   0  0  0  0  0  0  0  0  0  0  0  0
  -44.2340  -12.1399   19.3055 C   0  0  0  0  0  0  0  0  0  0  0  0
  -47.6140  -10.9829   19.1525 N   0  0  0  0  0  0  0  0  0  0  0  0
  -48.6740  -11.7179   19.3925 C   0  0  0  0  0  0  0  0  0  0  0  0
  -48.6800  -13.0439   19.7425 N   0  0  0  0  0  0  0  0  0  0  0  0
  -47.4720  -13.6159   19.8405 C   0  0  0  0  0  0  0  0  0  0  0  0
  -47.4310  -14.9439   20.1925 N   0  0  0  0  0  0  0  0  0  0  0  0
  -50.0530   -6.6059   20.7745 H   0  0  0  0  0  0  0  0  0  0  0  0
  -52.8310   -6.9879   20.4195 H   0  0  0  0  0  0  0  0  0  0  0  0
  -51.3070   -6.5469   17.4745 H   0  0  0  0  0  0  0  0  0  0  0  0
  -45.8330   -7.0799   18.2265 H   0  0  0  0  0  0  0  0  0  0  0  0
  -43.6000   -8.2099   19.6145 H   0  0  0  0  0  0  0  0  0  0  0  0
  -45.5060   -7.0689   20.5825 H   0  0  0  0  0  0  0  0  0  0  0  0
  -47.9920  -10.2429   22.5255 H   0  0  0  0  0  0  0  0  0  0  0  0
  -48.8010   -8.0139   22.4035 H   0  0  0  0  0  0  0  0  0  0  0  0
  -52.6690   -9.4109   22.5495 H   0  0  0  0  0  0  0  0  0  0  0  0
  -51.8600  -11.6389   22.6735 H   0  0  0  0  0  0  0  0  0  0  0  0
  -49.5210  -12.0579   22.6595 H   0  0  0  0  0  0  0  0  0  0  0  0
  -50.9470   -6.5889   23.1595 H   0  0  0  0  0  0  0  0  0  0  0  0
  -52.3210   -7.1669   22.4055 H   0  0  0  0  0  0  0  0  0  0  0  0
  -51.8140   -4.5419   21.4675 H   0  0  0  0  0  0  0  0  0  0  0  0
  -50.5100   -4.6619   22.1185 H   0  0  0  0  0  0  0  0  0  0  0  0
  -50.5820   -4.3909   20.6885 H   0  0  0  0  0  0  0  0  0  0  0  0
  -51.5710   -8.6889   19.6855 H   0  0  0  0  0  0  0  0  0  0  0  0
  -52.0390   -4.6719   19.5345 H   0  0  0  0  0  0  0  0  0  0  0  0
  -53.2390   -5.5369   18.8135 H   0  0  0  0  0  0  0  0  0  0  0  0
  -51.5360   -4.6789   15.8795 H   0  0  0  0  0  0  0  0  0  0  0  0
  -52.6520   -4.1099   16.9875 H   0  0  0  0  0  0  0  0  0  0  0  0
  -53.1020   -7.3499   17.2295 H   0  0  0  0  0  0  0  0  0  0  0  0
  -54.8260   -8.6449   16.2355 H   0  0  0  0  0  0  0  0  0  0  0  0
  -56.0380   -7.7879   14.3805 H   0  0  0  0  0  0  0  0  0  0  0  0
  -55.5230   -5.6329   13.5195 H   0  0  0  0  0  0  0  0  0  0  0  0
  -53.7990   -4.3389   14.5135 H   0  0  0  0  0  0  0  0  0  0  0  0
  -49.9960   -4.8339   19.0125 H   0  0  0  0  0  0  0  0  0  0  0  0
  -48.1970   -8.0259   17.9925 H   0  0  0  0  0  0  0  0  0  0  0  0
  -48.1350   -7.7839   19.6095 H   0  0  0  0  0  0  0  0  0  0  0  0
  -47.5910   -2.1509   16.9265 H   0  0  0  0  0  0  0  0  0  0  0  0
  -48.4690   -0.2829   15.7615 H   0  0  0  0  0  0  0  0  0  0  0  0
  -49.9820   -0.6079   13.9575 H   0  0  0  0  0  0  0  0  0  0  0  0
  -50.6090   -2.8089   13.3175 H   0  0  0  0  0  0  0  0  0  0  0  0
  -49.7270   -4.6809   14.4755 H   0  0  0  0  0  0  0  0  0  0  0  0
  -46.3760   -9.6719   20.9465 H   0  0  0  0  0  0  0  0  0  0  0  0
  -43.0340   -9.8759   20.8975 H   0  0  0  0  0  0  0  0  0  0  0  0
  -44.6210  -14.1849   19.8605 H   0  0  0  0  0  0  0  0  0  0  0  0
  -43.2370  -12.0759   19.2455 H   0  0  0  0  0  0  0  0  0  0  0  0
  -49.5630  -11.2669   19.3125 H   0  0  0  0  0  0  0  0  0  0  0  0
  -48.1810  -15.3789   20.3425 H   0  0  0  0  0  0  0  0  0  0  0  0
  -46.6600  -15.3609   20.2685 H   0  0  0  0  0  0  0  0  0  0  0  0
  1  2  2  0
  2  3  1  0
  3  4  2  0
  3  7  1  0
  4  5  1  0
  5  6  2  0
  6  1  1  0
  7  8  1  0
  8  9  1  0
  8 10  1  0
 10 11  1  0
 10 12  1  0
 12 13  1  0
 13 14  1  0
 13 21  1  0
 14 15  1  0
 15 16  2  0
 16 17  1  0
 17 18  2  0
 18 19  1  0
 19 20  2  0
 20 15  1  0
 21 22  1  0
 22 23  1  0
 22 24  1  0
 22 25  2  0
 23 26  1  0
 24 27  1  0
 27 28  2  0
 28 29  1  0
 29 30  2  0
 30 31  1  0
 31 32  2  0
 32 27  1  0
 33 26  1  0
 33 34  1  0
 34 35  1  0
 35 36  1  0
 35 40  1  0
 35 41  1  0
 36 37  1  0
 36 39  1  0
 37 33  1  0
 37 38  1  0
 40 43  1  0
 41 42  3  0
 43 44  1  0
 43 47  1  0
 44 45  2  0
 45 46  1  0
 46 40  2  0
 47 48  2  0
 48 49  1  0
 49 50  2  0
 50 44  1  0
 50 51  1  0
  1 58  1  0
  2 59  1  0
  4 60  1  0
  5 61  1  0
  6 62  1  0
  7 63  1  0
  7 64  1  0
  8 52  1  0
  9 65  1  0
  9 66  1  0
  9 67  1  0
 10 53  1  0
 11 68  1  0
 12 69  1  0
 12 70  1  0
 13 54  1  0
 14 71  1  0
 14 72  1  0
 16 73  1  0
 17 74  1  0
 18 75  1  0
 19 76  1  0
 20 77  1  0
 21 78  1  0
 26 79  1  0
 26 80  1  0
 28 81  1  0
 29 82  1  0
 30 83  1  0
 31 84  1  0
 32 85  1  0
 33 55  1  0
 36 56  1  0
 37 57  1  0
 38 86  1  0
 39 87  1  0
 45 88  1  0
 46 89  1  0
 48 90  1  0
 51 91  1  0
 51 92  1  0
M  CHG  1   9   1
M  END
>  <BioMolTech Lead Finder dG>
-6.652

>  <BioMolTech Lead Finder VSscore>
-11.617

>  <BioMolTech Lead Finder Rank score>
-12.339

>  <BioMolTech Lead Finder LE>
-0.13

>  <BioMolTech Lead Finder Structure Name>
/var/folders/xd/y7jw_xv579q2qqq7kks92xd80000gn/T/LeadFinder_37643_1/Ligand_1.sdf

>  <BioMolTech Lead Finder SDF id>
0

>  <BioMolTech Lead Finder Pose rank>
0

>  <BioMolTech Lead Finder version>
2001 1, 19 January 2019

>  <LF dG>
-6.652

>  <LF VSscore>
-11.617

>  <LF Rank Score>
-12.339

>  <LF LE>
-0.13

>  <Preferred Pose_cresset>
true

>  <Favorite_cresset>
false

>  <Protein_cresset>
6M2N_Dimer_P

>  <MW_cresset>
714.7

>  <#Atoms_cresset>
51

>  <SlogP_cresset>
4

>  <TPSA_cresset>
225.1

>  <Flexibility_cresset>
17.1

>  <#RB_cresset>
18

>  <Rof5_cresset>
3

>  <Filename_cresset>
VTRRT-13V2.1.sdf

>  <Confs_cresset>
0

>  <Poses_cresset>
10

>  <_cresset_fieldpoints>
    -5     -45.103767      -8.998173      22.672215     -6.7421
    -5     -50.033421      -9.658119      25.404692     -3.7107
    -5     -46.041534      -8.401972      22.827217     -6.7895
    -5     -47.417980     -10.269278      17.142986     -8.1575
    -5     -50.565884      -8.580133      17.631048     -7.5727
    -5     -50.731888      -2.542286      17.663044     -3.9346
    -5     -56.243263      -5.267276      17.089771     -3.4643
    -5     -50.688969      -8.113446      15.654520     -6.5913
    -5     -46.162926      -4.995350      15.847347     -6.7725
    -5     -46.608421      -3.114872      13.598524     -5.7103
    -5     -42.501221      -9.652423      14.888760     -7.0731
    -6     -44.970451     -16.284199      20.550335     10.6003
    -6     -53.850906      -5.179133      21.924812      7.1672
    -6     -53.418938      -9.271416      20.133045      6.5753
    -6     -50.184753      -4.577806      24.207245      4.9731
    -6     -48.991219      -3.558291      19.825634      5.4411
    -6     -57.453171      -6.857891      12.484182      2.4556
    -6     -56.695652     -10.073055      15.682257      2.5519
    -6     -54.344872      -8.219744      21.669815      6.6029
    -6     -52.963711      -2.859344      13.012035      3.3915
    -6     -47.384468       0.558200      17.687317      2.3234
    -6     -49.512760       1.773693      14.767227      2.4183
    -6     -41.784599     -10.365477      19.875690     11.3761
    -6     -43.418343      -6.290419      18.609310      4.6908
    -7     -55.200432      -7.263894      19.297230     -2.2638
    -7     -54.626614      -8.258844      21.584156     -1.9922
    -7     -51.989525     -10.740721      19.321722     -2.4046
    -7     -50.487007     -14.055716      21.176479     -2.1023
    -7     -53.611961      -9.216659      18.991064     -2.7472
    -7     -50.367020      -9.336420      25.747879     -1.8398
    -7     -54.206726      -5.285840      21.885775     -2.1698
    -7     -56.781746     -10.272661      15.259918     -0.9705
    -7     -50.628525      -6.990306      14.565847     -3.5267
    -7     -50.542885      -8.924006      17.458675     -3.9070
    -7     -57.538929      -6.961895      12.245632     -0.9685
    -7     -55.545223      -4.662945      18.048578     -2.3961
    -7     -46.051872      -4.429586      18.233570     -2.7137
    -7     -52.908283      -2.014225      15.410784     -2.5646
    -7     -46.584091      -2.633441      13.065564     -1.6989
    -7     -50.724312      -2.515952      18.394444     -3.7153
    -7     -48.044621      -5.056794      20.695461     -3.6198
    -7     -49.455841       1.994053      14.606150     -0.9684
    -7     -41.293308     -10.430416      19.636738     -1.9666
    -7     -43.392784      -6.433012      17.638474     -1.9168
    -7     -45.561363     -10.977985      22.386345     -3.5342
    -7     -46.035980      -5.971086      15.877470     -2.4183
    -7     -46.079483     -15.900034      17.761330     -1.5183
    -7     -47.369904     -10.348222      16.719379     -3.1866
    -8     -50.333313      -9.819967      22.529861      7.2066
    -8     -44.860901     -12.528391      19.434597      4.9274
    -8     -50.804222      -8.508152      22.424700      5.7540
    -8     -50.579208      -7.667666      22.039383      5.6430
    -8     -52.633835      -5.861553      17.005550      6.1165
    -8     -45.021584      -8.121883      19.285664      4.6325
    -8     -51.890163      -5.878233      19.973413      4.6669
    -8     -49.114265      -2.460324      15.105207      7.0442
    -8     -54.306580      -6.489191      15.381069      7.2028
    -8     -44.163315     -10.762290      18.821911      4.7135
    -8     -46.469124      -7.457682      19.353703      3.9878

$$$$
