Diammonium Glycyrrhizinate
  xed2sdf_05210316543D
 
127131  0  0  1  0  0  0  0  0999 V2000
    0.4155   -2.0168   -0.0266 O   0  0  0  0  0  0  0  0  0  0  0  0
   -1.2796    2.1733   -0.0267 O   0  0  0  0  0  0  0  0  0  0  0  0
   -1.3165   -2.0169   -0.0267 O   0  0  0  0  0  0  0  0  0  0  0  0
   -0.5767    8.5550   -0.0266 O   0  5  0  0  0  0  0  0  0  0  0  0
   -2.0633    7.6659   -0.0267 O   0  0  0  0  0  0  0  0  0  0  0  0
    0.4155   -4.0168   -0.0266 O   0  0  0  0  0  0  0  0  0  0  0  0
   -1.3165   -5.0169    0.9734 O   0  0  0  0  0  0  0  0  0  0  0  0
   -3.0486   -4.0169   -1.0266 O   0  0  0  0  0  0  0  0  0  0  0  0
   -0.4505   -5.5169   -0.0267 O   0  0  0  0  0  0  0  0  0  0  0  0
   -3.9146   -2.5169   -0.0267 O   0  5  0  0  0  0  0  0  0  0  0  0
   -3.0485   -1.0169   -0.0267 O   0  0  0  0  0  0  0  0  0  0  0  0
    2.1476   -5.0169   -1.0267 O   0  0  0  0  0  0  0  0  0  0  0  0
    2.1476   -7.0168    0.9734 O   0  0  0  0  0  0  0  0  0  0  0  0
    0.4155   -8.0169   -1.0266 O   0  0  0  0  0  0  0  0  0  0  0  0
   -1.3166   -8.0169   -0.0267 O   0  5  0  0  0  0  0  0  0  0  0  0
   -2.1826   -6.5168   -0.0267 O   0  0  0  0  0  0  0  0  0  0  0  0
   -7.0281    0.5351   -0.0266 N   0  3  0  0  0  0  0  0  0  0  0  0
    5.5495    0.5351   -0.0266 N   0  3  0  0  0  0  0  0  0  0  0  0
    1.3166    2.6833    0.0233 C   0  0  0  0  0  0  0  0  0  0  0  0
    0.4404    1.1384    0.0234 C   0  0  0  0  0  0  0  0  0  0  0  0
    0.4526    2.1800   -0.5267 C   0  0  0  0  0  0  0  0  0  0  0  0
    1.3127    3.6833   -0.0766 C   0  0  0  0  0  0  0  0  0  0  0  0
    1.3405    0.6141   -0.5267 C   0  0  0  0  0  0  0  0  0  0  0  0
    2.2285    2.1800   -0.0266 C   0  0  0  0  0  0  0  0  0  0  0  0
    1.3531   -0.4708   -0.0267 C   0  0  0  0  0  0  0  0  0  0  0  0
    2.2406    1.1384   -0.0267 C   0  0  0  0  0  0  0  0  0  0  0  0
    0.4449    4.1800   -0.0267 C   0  0  0  0  0  0  0  0  0  0  0  0
    0.4247    5.2214    0.4734 C   0  0  0  0  0  0  0  0  0  0  0  0
    1.3208    5.7526    0.0233 C   0  0  0  0  0  0  0  0  0  0  0  0
    2.2209    4.1937   -0.0267 C   0  0  0  0  0  0  0  0  0  0  0  0
   -0.5095    0.6141   -0.0266 C   0  0  0  0  0  0  0  0  0  0  0  0
    2.2248    5.2354   -0.0267 C   0  0  0  0  0  0  0  0  0  0  0  0
    0.4155   -1.0168    0.0233 C   0  0  0  0  0  0  0  0  0  0  0  0
   -0.4155    2.6766   -0.0267 C   0  0  0  0  0  0  0  0  0  0  0  0
    2.3008    2.8609    0.9733 C   0  0  0  0  0  0  0  0  0  0  0  0
   -0.5220   -0.4708   -0.0267 C   0  0  0  0  0  0  0  0  0  0  0  0
   -0.4237    1.6418    0.9733 C   0  0  0  0  0  0  0  0  0  0  0  0
    2.2982    3.5135   -1.0266 C   0  0  0  0  0  0  0  0  0  0  0  0
   -0.4193    3.6766   -0.0267 C   0  0  0  0  0  0  0  0  0  0  0  0
   -0.5292    5.7385   -0.0267 C   0  0  0  0  0  0  0  0  0  0  0  0
    1.3249    6.8376   -0.0267 C   0  0  0  0  0  0  0  0  0  0  0  0
   -0.5500    6.8232   -0.0767 C   0  0  0  0  0  0  0  0  0  0  0  0
    2.3530   -0.4631   -0.0266 C   0  0  0  0  0  0  0  0  0  0  0  0
    1.8597   -1.3329   -0.0267 C   0  0  0  0  0  0  0  0  0  0  0  0
    0.3833    7.3766   -0.0267 C   0  0  0  0  0  0  0  0  0  0  0  0
    2.1809    6.2626    0.9733 C   0  0  0  0  0  0  0  0  0  0  0  0
   -1.5500    6.8077   -1.0267 C   0  0  0  0  0  0  0  0  0  0  0  0
   -1.0634    7.6814   -0.0267 C   0  0  0  0  0  0  0  0  0  0  0  0
   -0.4505   -2.5169   -0.0767 C   0  0  0  0  0  0  0  0  0  0  0  0
   -0.4505   -3.5169   -0.0767 C   0  0  0  0  0  0  0  0  0  0  0  0
   -1.3165   -4.0169    0.0233 C   0  0  0  0  0  0  0  0  0  0  0  0
   -2.1826   -2.5169    0.0233 C   0  0  0  0  0  0  0  0  0  0  0  0
   -2.1826   -3.5169   -0.0767 C   0  0  0  0  0  0  0  0  0  0  0  0
    0.4156   -5.0169    0.0233 C   0  0  0  0  0  0  0  0  0  0  0  0
   -3.0485   -2.0168    0.9733 C   0  0  0  0  0  0  0  0  0  0  0  0
    1.2815   -5.5169   -0.0766 C   0  0  0  0  0  0  0  0  0  0  0  0
    1.2816   -6.5169    0.0234 C   0  0  0  0  0  0  0  0  0  0  0  0
   -0.4505   -6.5168    0.0234 C   0  0  0  0  0  0  0  0  0  0  0  0
    0.4155   -7.0168   -0.0767 C   0  0  0  0  0  0  0  0  0  0  0  0
   -1.3166   -7.0169    0.9734 C   0  0  0  0  0  0  0  0  0  0  0  0
    0.4525    2.1800   -1.0267 H   0  0  0  0  0  0  0  0  0  0  0  0
    1.3406    0.6141   -1.0267 H   0  0  0  0  0  0  0  0  0  0  0  0
    2.8406    2.0810   -0.0266 H   0  0  0  0  0  0  0  0  0  0  0  0
    2.4309    2.7661   -0.0267 H   0  0  0  0  0  0  0  0  0  0  0  0
    2.4564    0.5572   -0.0266 H   0  0  0  0  0  0  0  0  0  0  0  0
    2.8501    1.2517   -0.0266 H   0  0  0  0  0  0  0  0  0  0  0  0
    0.4247    5.2214    0.9733 H   0  0  0  0  0  0  0  0  0  0  0  0
    2.4277    3.6092   -0.0267 H   0  0  0  0  0  0  0  0  0  0  0  0
    2.8320    4.2974   -0.0266 H   0  0  0  0  0  0  0  0  0  0  0  0
   -0.7118    1.2002   -0.0267 H   0  0  0  0  0  0  0  0  0  0  0  0
   -1.1214    0.5152   -0.0267 H   0  0  0  0  0  0  0  0  0  0  0  0
    2.8352    5.1269   -0.0267 H   0  0  0  0  0  0  0  0  0  0  0  0
    2.4362    5.8183   -0.0266 H   0  0  0  0  0  0  0  0  0  0  0  0
    0.9530   -1.3258   -0.0266 H   0  0  0  0  0  0  0  0  0  0  0  0
    2.4107    2.2506   -0.0266 H   0  0  0  0  0  0  0  0  0  0  0  0
    2.9109    2.9709   -0.0267 H   0  0  0  0  0  0  0  0  0  0  0  0
    2.1908    3.4709   -0.0267 H   0  0  0  0  0  0  0  0  0  0  0  0
   -1.1315   -0.3576   -0.0267 H   0  0  0  0  0  0  0  0  0  0  0  0
   -0.7378   -1.0520   -0.0267 H   0  0  0  0  0  0  0  0  0  0  0  0
   -0.1116    2.1775   -0.0267 H   0  0  0  0  0  0  0  0  0  0  0  0
   -0.9594    1.9539   -0.0267 H   0  0  0  0  0  0  0  0  0  0  0  0
   -0.7357    1.1060   -0.0267 H   0  0  0  0  0  0  0  0  0  0  0  0
    2.1929    2.9025   -0.0267 H   0  0  0  0  0  0  0  0  0  0  0  0
    2.9092    3.4082   -0.0267 H   0  0  0  0  0  0  0  0  0  0  0  0
    2.4035    4.1245   -0.0267 H   0  0  0  0  0  0  0  0  0  0  0  0
   -0.9573    3.9847   -0.0267 H   0  0  0  0  0  0  0  0  0  0  0  0
   -1.1420    5.8328   -0.0267 H   0  0  0  0  0  0  0  0  0  0  0  0
   -0.7269    5.1507   -0.0266 H   0  0  0  0  0  0  0  0  0  0  0  0
    1.9354    6.7292   -0.0267 H   0  0  0  0  0  0  0  0  0  0  0  0
    1.5363    7.4205   -0.0266 H   0  0  0  0  0  0  0  0  0  0  0  0
    2.3578   -1.0830   -0.0267 H   0  0  0  0  0  0  0  0  0  0  0  0
    2.9730   -0.4582   -0.0267 H   0  0  0  0  0  0  0  0  0  0  0  0
    2.3483    0.1570   -0.0266 H   0  0  0  0  0  0  0  0  0  0  0  0
    1.3252   -1.6470   -0.0267 H   0  0  0  0  0  0  0  0  0  0  0  0
    2.1738   -1.8675   -0.0266 H   0  0  0  0  0  0  0  0  0  0  0  0
    2.3942   -1.0188   -0.0266 H   0  0  0  0  0  0  0  0  0  0  0  0
    0.7787    7.8540   -0.0267 H   0  0  0  0  0  0  0  0  0  0  0  0
   -0.0196    7.8478   -0.0267 H   0  0  0  0  0  0  0  0  0  0  0  0
    2.4972    5.7293   -0.0267 H   0  0  0  0  0  0  0  0  0  0  0  0
    2.7142    6.5788   -0.0267 H   0  0  0  0  0  0  0  0  0  0  0  0
    1.8647    6.7960   -0.0267 H   0  0  0  0  0  0  0  0  0  0  0  0
   -1.5596    7.4277   -0.0266 H   0  0  0  0  0  0  0  0  0  0  0  0
   -2.1700    6.7982   -0.0266 H   0  0  0  0  0  0  0  0  0  0  0  0
   -1.5405    6.1878   -0.0267 H   0  0  0  0  0  0  0  0  0  0  0  0
   -0.4505   -1.8969   -0.0267 H   0  0  0  0  0  0  0  0  0  0  0  0
    0.0864   -3.2069   -0.0267 H   0  0  0  0  0  0  0  0  0  0  0  0
   -0.7796   -4.3269   -0.0267 H   0  0  0  0  0  0  0  0  0  0  0  0
   -2.1826   -1.8969   -0.0267 H   0  0  0  0  0  0  0  0  0  0  0  0
   -2.7195   -3.2068   -0.0266 H   0  0  0  0  0  0  0  0  0  0  0  0
    0.9524   -4.7069   -0.0267 H   0  0  0  0  0  0  0  0  0  0  0  0
   -1.8535   -5.3269   -0.0267 H   0  0  0  0  0  0  0  0  0  0  0  0
   -3.0485   -4.6369   -0.0266 H   0  0  0  0  0  0  0  0  0  0  0  0
    1.8186   -5.8269   -0.0267 H   0  0  0  0  0  0  0  0  0  0  0  0
    1.2815   -7.1369   -0.0266 H   0  0  0  0  0  0  0  0  0  0  0  0
   -0.9874   -6.2068   -0.0267 H   0  0  0  0  0  0  0  0  0  0  0  0
   -0.1214   -7.3269   -0.0266 H   0  0  0  0  0  0  0  0  0  0  0  0
    2.1477   -4.3968   -0.0267 H   0  0  0  0  0  0  0  0  0  0  0  0
    2.6846   -6.7069   -0.0267 H   0  0  0  0  0  0  0  0  0  0  0  0
    0.9524   -8.3268   -0.0267 H   0  0  0  0  0  0  0  0  0  0  0  0
   -6.4911    0.8451   -0.0266 H   0  0  0  0  0  0  0  0  0  0  0  0
   -7.5649    0.8451   -0.0267 H   0  0  0  0  0  0  0  0  0  0  0  0
   -7.0281   -0.0848   -0.0267 H   0  0  0  0  0  0  0  0  0  0  0  0
    6.0864    0.8451   -0.0266 H   0  0  0  0  0  0  0  0  0  0  0  0
    5.0126    0.8451   -0.0266 H   0  0  0  0  0  0  0  0  0  0  0  0
    5.5495   -0.0849   -0.0267 H   0  0  0  0  0  0  0  0  0  0  0  0
   -7.0231    0.5351    1.0533 H   0  0  0  0  0  0  0  0  0  0  0  0
    5.5495    0.5351    1.0534 H   0  0  0  0  0  0  0  0  0  0  0  0
  2 34  2  0
  3 49  1  0
  3 52  1  0
  4 48  1  0
  5 48  2  0
  9 54  1  0
  9 58  1  0
 10 55  1  0
 11 55  2  0
 15 60  1  0
 16 60  2  0
 19 21  1  0
 19 22  1  0
 19 24  1  0
 19 35  1  0
 20 21  1  0
 20 23  1  0
 20 31  1  0
 20 37  1  0
 21 34  1  0
 22 27  1  0
 22 30  1  0
 22 38  1  0
 23 25  1  0
 23 26  1  0
 24 26  1  0
 25 33  1  0
 25 43  1  0
 25 44  1  0
 27 28  1  0
 27 39  2  0
 28 29  1  0
 28 40  1  0
 29 32  1  0
 29 41  1  0
 29 46  1  0
 30 32  1  0
 31 36  1  0
 33  1  1  0
 33 36  1  0
 34 39  1  0
 40 42  1  0
 41 45  1  0
 42 45  1  0
 42 47  1  0
 42 48  1  0
 49  1  1  0
 49 50  1  0
 50  6  1  0
 50 51  1  0
 51  7  1  0
 51 53  1  0
 52 53  1  0
 52 55  1  0
 53  8  1  0
 54  6  1  0
 54 56  1  0
 56 12  1  0
 56 57  1  0
 57 13  1  0
 57 59  1  0
 58 59  1  0
 58 60  1  0
 59 14  1  0
  7111  1  0
  8112  1  0
 12117  1  0
 13118  1  0
 14119  1  0
 17120  1  0
 17121  1  0
 17122  1  0
 17126  1  0
 18123  1  0
 18124  1  0
 18125  1  0
 18127  1  0
 21 61  1  0
 23 62  1  0
 24 63  1  0
 24 64  1  0
 26 65  1  0
 26 66  1  0
 28 67  1  0
 30 68  1  0
 30 69  1  0
 31 70  1  0
 31 71  1  0
 32 72  1  0
 32 73  1  0
 33 74  1  0
 35 75  1  0
 35 76  1  0
 35 77  1  0
 36 78  1  0
 36 79  1  0
 37 80  1  0
 37 81  1  0
 37 82  1  0
 38 83  1  0
 38 84  1  0
 38 85  1  0
 39 86  1  0
 40 87  1  0
 40 88  1  0
 41 89  1  0
 41 90  1  0
 43 91  1  0
 43 92  1  0
 43 93  1  0
 44 94  1  0
 44 95  1  0
 44 96  1  0
 45 97  1  0
 45 98  1  0
 46 99  1  0
 46100  1  0
 46101  1  0
 47102  1  0
 47103  1  0
 47104  1  0
 49105  1  0
 50106  1  0
 51107  1  0
 52108  1  0
 53109  1  0
 54110  1  0
 56113  1  0
 57114  1  0
 58115  1  0
 59116  1  0
M  CHG  5   4  -1  10  -1  15  -1  17   1  18   1
M  END
>  <PUBCHEM_COMPOUND_CID>
656656

>  <PUBCHEM_COMPOUND_CANONICALIZED>
1

>  <PUBCHEM_CACTVS_COMPLEXITY>
1730

>  <PUBCHEM_CACTVS_HBOND_ACCEPTOR>
18

>  <PUBCHEM_CACTVS_HBOND_DONOR>
10

>  <PUBCHEM_CACTVS_ROTATABLE_BOND>
7

>  <PUBCHEM_CACTVS_SUBSKEYS>
AAADcfB/PgAAAAAAAAAAAAAAAAAAAAAAAAA0aMGCAAAAAADAAAAAGgAQCAAADxSwgAMCCAAABgCIAqDSCAIAAAAgAAAACAFAAEgREBYAAQQiQAAFoAAPAQPK7PzPgAAAAAAAAADAAAYAADAAAAAAAAAAAA==

>  <PUBCHEM_IUPAC_OPENEYE_NAME>
(2S,3S,4S,5R,6R)-6-[(2S,3R,4S,5S,6S)-2-[[(3S,4aR,6aR,6bS,8aS,11S,12aR,14aR,14bS)-11-carboxy-4,4,6a,6b,8a,11,14b-heptamethyl-14-oxo-2,3,4a,5,6,7,8,9,10,12,12a,14a-dodecahydro-1H-picen-3-yl]oxy]-6-carbo

>  <PUBCHEM_IUPAC_CAS_NAME>
(2S,3S,4S,5R,6R)-6-[[(2S,3R,4S,5S,6S)-2-[[(3S,4aR,6aR,6bS,8aS,11S,12aR,14aR,14bS)-11-carboxy-4,4,6a,6b,8a,11,14b-heptamethyl-14-oxo-2,3,4a,5,6,7,8,9,10,12,12a,14a-dodecahydro-1H-picen-3-yl]oxy]-6-carb

>  <PUBCHEM_IUPAC_NAME_MARKUP>
(2<I>S</I>,3<I>S</I>,4<I>S</I>,5<I>R</I>,6<I>R</I>)-6-[(2<I>S</I>,3<I>R</I>,4<I>S</I>,5<I>S</I>,6<I>S</I>)-2-[[(3<I>S</I>,4<I>a</I><I>R</I>,6<I>a</I><I>R</I>,6<I>b</I><I>S</I>,8<I>a</I><I>S</I>,11<I>S

>  <PUBCHEM_IUPAC_NAME>
(2S,3S,4S,5R,6R)-6-[(2S,3R,4S,5S,6S)-2-[[(3S,4aR,6aR,6bS,8aS,11S,12aR,14aR,14bS)-11-carboxy-4,4,6a,6b,8a,11,14b-heptamethyl-14-oxo-2,3,4a,5,6,7,8,9,10,12,12a,14a-dodecahydro-1H-picen-3-yl]oxy]-6-carbo

>  <PUBCHEM_IUPAC_SYSTEMATIC_NAME>
(2S,3S,4S,5R,6R)-6-[(2S,3R,4S,5S,6S)-2-[[(3S,4aR,6aR,6bS,8aS,11S,12aR,14aR,14bS)-11-carboxy-4,4,6a,6b,8a,11,14b-heptamethyl-14-oxidanylidene-2,3,4a,5,6,7,8,9,10,12,12a,14a-dodecahydro-1H-picen-3-yl]ox

>  <PUBCHEM_IUPAC_TRADITIONAL_NAME>
(2S,3S,4S,5R,6R)-6-[(2S,3R,4S,5S,6S)-2-[[(3S,4aR,6aR,6bS,8aS,11S,12aR,14aR,14bS)-11-carboxy-14-keto-4,4,6a,6b,8a,11,14b-heptamethyl-2,3,4a,5,6,7,8,9,10,12,12a,14a-dodecahydro-1H-picen-3-yl]oxy]-6-carb

>  <PUBCHEM_IUPAC_INCHI>
InChI=1S/C42H62O16.2H3N/c1-37(2)21-8-11-42(7)31(20(43)16-18-19-17-39(4,36(53)54)13-12-38(19,3)14-15-41(18,42)6)40(21,5)10-9-22(37)55-35-30(26(47)25(46)29(57-35)33(51)52)58-34-27(48)23(44)24(45)28(56-3

>  <PUBCHEM_IUPAC_INCHIKEY>
SPPIIOPGDLITJE-VLQRKCJKSA-N

>  <PUBCHEM_EXACT_MASS>
856.456884

>  <PUBCHEM_MOLECULAR_FORMULA>
C42H68N2O16

>  <PUBCHEM_MOLECULAR_WEIGHT>
857

>  <PUBCHEM_OPENEYE_CAN_SMILES>
CC1(C2CCC3(C(C2(CCC1OC4C(C(C(C(O4)C(=O)O)O)O)OC5C(C(C(C(O5)C(=O)O)O)O)O)C)C(=O)C=C6C3(CCC7(C6CC(CC7)(C)C(=O)O)C)C)C)C.N.N

>  <PUBCHEM_OPENEYE_ISO_SMILES>
C[C@]12CC[C@](C[C@H]1C3=CC(=O)[C@@H]4[C@]5(CC[C@@H](C([C@@H]5CC[C@]4([C@@]3(CC2)C)C)(C)C)O[C@@H]6[C@@H]([C@H]([C@@H]([C@H](O6)C(=O)O)O)O)O[C@H]7[C@@H]([C@H]([C@@H]([C@H](O7)C(=O)O)O)O)O)C)(C)C(=O)O.N.

>  <PUBCHEM_CACTVS_TPSA>
269

>  <PUBCHEM_MONOISOTOPIC_WEIGHT>
856.456884

>  <PUBCHEM_TOTAL_CHARGE>
0

>  <PUBCHEM_HEAVY_ATOM_COUNT>
60

>  <PUBCHEM_ATOM_DEF_STEREO_COUNT>
19

>  <PUBCHEM_ATOM_UDEF_STEREO_COUNT>
0

>  <PUBCHEM_BOND_DEF_STEREO_COUNT>
0

>  <PUBCHEM_BOND_UDEF_STEREO_COUNT>
0

>  <PUBCHEM_ISOTOPIC_ATOM_COUNT>
0

>  <PUBCHEM_COMPONENT_COUNT>
3

>  <PUBCHEM_CACTVS_TAUTO_COUNT>
-1

>  <PUBCHEM_COORDINATE_TYPE>
1
5
255

>  <PUBCHEM_BONDANNOTATIONS>
33  1  5
49  1  6
56  12  6
57  13  5
59  14  6
19  35  5
20  37  5
21  61  6
22  38  6
23  62  6
28  67  5
29  46  5
42  47  6
52  55  5
58  60  5
50  6  6
54  6  5
51  7  5
53  8  6

>  <Favorite_cresset>
false

>  <MW_cresset>
856

>  <#Atoms_cresset>
60

>  <SlogP_cresset>
4.4

>  <TPSA_cresset>
275.5

>  <Flexibility_cresset>
17.3

>  <#RB_cresset>
12

>  <Rof5_cresset>
3

>  <Filename_cresset>
Diammonium Glycyrrhizinate.sdf

>  <Tags_cresset>
Docking...

>  <Confs_cresset>
0

>  <Poses_cresset>
0

$$$$
