AB1
  -OEChem-01292117403D

 94 97  0     1  0  0  0  0  0999 V2000
  -12.8260   12.8350   34.8630 C   0  0  0  0  0  0  0  0  0  0  0  0
  -10.6950   13.4560   33.6930 C   0  0  0  0  0  0  0  0  0  0  0  0
  -11.3120   14.7950   33.3690 N   0  0  0  0  0  0  0  0  0  0  0  0
  -12.6020   15.1110   33.7730 C   0  0  0  0  0  0  0  0  0  0  0  0
  -13.3030   14.1780   34.4780 N   0  0  0  0  0  0  0  0  0  0  0  0
   -6.2280   18.1490   27.5220 C   0  0  0  0  0  0  0  0  0  0  0  0
   -5.5330   18.8920   26.5370 C   0  0  0  0  0  0  0  0  0  0  0  0
   -4.2180   18.5350   26.1490 C   0  0  0  0  0  0  0  0  0  0  0  0
   -3.5830   17.4290   26.7450 C   0  0  0  0  0  0  0  0  0  0  0  0
   -4.2660   16.6810   27.7290 C   0  0  0  0  0  0  0  0  0  0  0  0
   -5.5790   17.0370   28.1160 C   0  0  0  0  0  0  0  0  0  0  0  0
  -13.1160   16.1860   33.5160 O   0  0  0  0  0  0  0  0  0  0  0  0
  -10.5260   15.8120   32.5870 C   0  0  2  0  0  0  0  0  0  0  0  0
  -10.3560   15.3130   31.1260 C   0  0  0  0  0  0  0  0  0  0  0  0
  -11.2180   15.9240   30.2550 N   0  0  0  0  0  0  0  0  0  0  0  0
  -11.2830   15.6520   28.8020 C   0  0  1  0  0  0  0  0  0  0  0  0
   -9.1410   16.1410   33.2720 C   0  0  0  0  0  0  0  0  0  0  0  0
   -8.3090   17.1860   32.5040 C   0  0  0  0  0  0  0  0  0  0  0  0
   -9.3490   16.6480   34.7180 C   0  0  0  0  0  0  0  0  0  0  0  0
   -9.5230   14.4560   30.8260 O   0  0  0  0  0  0  0  0  0  0  0  0
  -12.7040   11.1390   29.1350 C   0  0  0  0  0  0  0  0  0  0  0  0
  -13.3650   11.1000   30.3860 C   0  0  0  0  0  0  0  0  0  0  0  0
  -13.7730   12.3060   31.0020 C   0  0  0  0  0  0  0  0  0  0  0  0
  -13.5190   13.5420   30.3650 C   0  0  0  0  0  0  0  0  0  0  0  0
  -12.8550   13.5900   29.1090 C   0  0  0  0  0  0  0  0  0  0  0  0
  -12.4510   12.3790   28.5010 C   0  0  0  0  0  0  0  0  0  0  0  0
  -12.5910   14.9100   28.4420 C   0  0  0  0  0  0  0  0  0  0  0  0
  -11.2870   16.9600   27.9810 C   0  0  0  0  0  0  0  0  0  0  0  0
  -10.1160   17.9510   28.1120 C   0  0  1  0  0  0  0  0  0  0  0  0
   -8.7120   17.4430   27.6950 C   0  0  1  0  0  0  0  0  0  0  0  0
   -8.7530   17.0970   26.2550 N   0  0  0  0  0  0  0  0  0  0  0  0
   -8.2660   15.9270   25.7320 C   0  0  0  0  0  0  0  0  0  0  0  0
   -8.3990   15.8070   24.2010 C   0  0  0  0  0  0  0  0  0  0  0  0
   -8.7210   17.0700   23.5900 O   0  0  0  0  0  0  0  0  0  0  0  0
   -8.2970   17.1830   22.2520 C   0  0  0  0  0  0  0  0  0  0  0  0
  -10.4330   19.0340   27.2710 O   0  0  0  0  0  0  0  0  0  0  0  0
   -7.6370   18.5480   27.9160 C   0  0  0  0  0  0  0  0  0  0  0  0
   -7.7420   15.0210   26.3890 O   0  0  0  0  0  0  0  0  0  0  0  0
   -9.0670   16.6400   21.1650 C   0  0  0  0  0  0  0  0  0  0  0  0
   -8.5870   16.7880   19.8360 C   0  0  0  0  0  0  0  0  0  0  0  0
   -7.3740   17.4590   19.5740 C   0  0  0  0  0  0  0  0  0  0  0  0
   -6.6140   17.9970   20.6320 C   0  0  0  0  0  0  0  0  0  0  0  0
   -7.0610   17.8680   21.9690 C   0  0  0  0  0  0  0  0  0  0  0  0
   -6.2340   18.4510   23.0640 C   0  0  0  0  0  0  0  0  0  0  0  0
  -10.3740   15.9150   21.3830 C   0  0  0  0  0  0  0  0  0  0  0  0
  -11.2960   12.7740   34.9400 C   0  0  0  0  0  0  0  0  0  0  0  0
  -13.2300   12.0500   34.1820 H   0  0  0  0  0  0  0  0  0  0  0  0
  -13.2940   12.4960   35.8170 H   0  0  0  0  0  0  0  0  0  0  0  0
   -9.5880   13.5490   33.7920 H   0  0  0  0  0  0  0  0  0  0  0  0
  -10.7490   12.7760   32.8110 H   0  0  0  0  0  0  0  0  0  0  0  0
  -14.2360   14.5030   34.7320 H   0  0  0  0  0  0  0  0  0  0  0  0
   -6.0230   19.7610   26.0660 H   0  0  0  0  0  0  0  0  0  0  0  0
   -3.6860   19.1200   25.3800 H   0  0  0  0  0  0  0  0  0  0  0  0
   -2.5590   17.1510   26.4440 H   0  0  0  0  0  0  0  0  0  0  0  0
   -3.7710   15.8140   28.1980 H   0  0  0  0  0  0  0  0  0  0  0  0
   -6.1000   16.4440   28.8860 H   0  0  0  0  0  0  0  0  0  0  0  0
  -11.0910   16.7730   32.5720 H   0  0  0  0  0  0  0  0  0  0  0  0
  -11.8320   16.6040   30.7030 H   0  0  0  0  0  0  0  0  0  0  0  0
  -10.3850   15.0370   28.5590 H   0  0  0  0  0  0  0  0  0  0  0  0
   -8.5740   15.1810   33.2680 H   0  0  0  0  0  0  0  0  0  0  0  0
   -8.8990   18.1180   32.3400 H   0  0  0  0  0  0  0  0  0  0  0  0
   -7.3310   17.4180   32.9880 H   0  0  0  0  0  0  0  0  0  0  0  0
   -8.1610   16.8720   31.4450 H   0  0  0  0  0  0  0  0  0  0  0  0
   -9.9490   15.9300   35.3250 H   0  0  0  0  0  0  0  0  0  0  0  0
   -8.3710   16.8800   35.2020 H   0  0  0  0  0  0  0  0  0  0  0  0
  -10.0440   17.5190   34.7530 H   0  0  0  0  0  0  0  0  0  0  0  0
  -12.3850   10.2000   28.6530 H   0  0  0  0  0  0  0  0  0  0  0  0
  -13.5610   10.1330   30.8790 H   0  0  0  0  0  0  0  0  0  0  0  0
  -14.2880   12.2830   31.9770 H   0  0  0  0  0  0  0  0  0  0  0  0
  -13.8420   14.4770   30.8520 H   0  0  0  0  0  0  0  0  0  0  0  0
  -11.9350   12.4020   27.5260 H   0  0  0  0  0  0  0  0  0  0  0  0
  -12.6460   14.7790   27.3360 H   0  0  0  0  0  0  0  0  0  0  0  0
  -13.4580   15.5890   28.6170 H   0  0  0  0  0  0  0  0  0  0  0  0
  -12.2370   17.5060   28.1900 H   0  0  0  0  0  0  0  0  0  0  0  0
  -11.4120   16.7010   26.9040 H   0  0  0  0  0  0  0  0  0  0  0  0
  -10.0240   18.1820   29.1990 H   0  0  0  0  0  0  0  0  0  0  0  0
   -8.4440   16.5560   28.3150 H   0  0  0  0  0  0  0  0  0  0  0  0
   -9.1550   17.7240   25.5580 H   0  0  0  0  0  0  0  0  0  0  0  0
   -9.1370   15.0200   23.9190 H   0  0  0  0  0  0  0  0  0  0  0  0
   -7.4840   15.3590   23.7480 H   0  0  0  0  0  0  0  0  0  0  0  0
   -9.7100   19.6460   27.3520 H   0  0  0  0  0  0  0  0  0  0  0  0
   -7.9340   19.4870   27.3930 H   0  0  0  0  0  0  0  0  0  0  0  0
   -7.6580   18.9020   28.9730 H   0  0  0  0  0  0  0  0  0  0  0  0
   -9.1660   16.3750   18.9930 H   0  0  0  0  0  0  0  0  0  0  0  0
   -7.0180   17.5640   18.5350 H   0  0  0  0  0  0  0  0  0  0  0  0
   -5.6680   18.5200   20.4130 H   0  0  0  0  0  0  0  0  0  0  0  0
   -6.0200   17.6430   23.8020 H   0  0  0  0  0  0  0  0  0  0  0  0
   -5.2780   18.9810   22.8450 H   0  0  0  0  0  0  0  0  0  0  0  0
   -6.8810   19.1380   23.6570 H   0  0  0  0  0  0  0  0  0  0  0  0
  -11.0420   16.5920   21.9650 H   0  0  0  0  0  0  0  0  0  0  0  0
  -10.9710   15.4940   20.5410 H   0  0  0  0  0  0  0  0  0  0  0  0
  -10.1850   15.0900   22.1080 H   0  0  0  0  0  0  0  0  0  0  0  0
  -10.9210   11.7330   35.0740 H   0  0  0  0  0  0  0  0  0  0  0  0
  -10.9030   13.2070   35.8890 H   0  0  0  0  0  0  0  0  0  0  0  0
  1  5  1  0  0  0  0
  1 46  1  0  0  0  0
  1 47  1  0  0  0  0
  1 48  1  0  0  0  0
  2  3  1  0  0  0  0
  2 46  1  0  0  0  0
  2 49  1  0  0  0  0
  2 50  1  0  0  0  0
  3  4  1  0  0  0  0
  3 13  1  0  0  0  0
  4  5  1  0  0  0  0
  4 12  2  0  0  0  0
  5 51  1  0  0  0  0
  6  7  2  0  0  0  0
  6 11  1  0  0  0  0
  6 37  1  0  0  0  0
  7  8  1  0  0  0  0
  7 52  1  0  0  0  0
  8  9  2  0  0  0  0
  8 53  1  0  0  0  0
  9 10  1  0  0  0  0
  9 54  1  0  0  0  0
 10 11  2  0  0  0  0
 10 55  1  0  0  0  0
 11 56  1  0  0  0  0
 13 14  1  0  0  0  0
 13 17  1  0  0  0  0
 13 57  1  0  0  0  0
 14 15  1  0  0  0  0
 14 20  2  0  0  0  0
 15 16  1  0  0  0  0
 15 58  1  0  0  0  0
 16 27  1  0  0  0  0
 16 28  1  0  0  0  0
 16 59  1  0  0  0  0
 17 18  1  0  0  0  0
 17 19  1  0  0  0  0
 17 60  1  0  0  0  0
 18 61  1  0  0  0  0
 18 62  1  0  0  0  0
 18 63  1  0  0  0  0
 19 64  1  0  0  0  0
 19 65  1  0  0  0  0
 19 66  1  0  0  0  0
 21 22  2  0  0  0  0
 21 26  1  0  0  0  0
 21 67  1  0  0  0  0
 22 23  1  0  0  0  0
 22 68  1  0  0  0  0
 23 24  2  0  0  0  0
 23 69  1  0  0  0  0
 24 25  1  0  0  0  0
 24 70  1  0  0  0  0
 25 26  2  0  0  0  0
 25 27  1  0  0  0  0
 26 71  1  0  0  0  0
 27 72  1  0  0  0  0
 27 73  1  0  0  0  0
 28 29  1  0  0  0  0
 28 74  1  0  0  0  0
 28 75  1  0  0  0  0
 29 30  1  0  0  0  0
 29 36  1  0  0  0  0
 29 76  1  0  0  0  0
 30 31  1  0  0  0  0
 30 37  1  0  0  0  0
 30 77  1  0  0  0  0
 31 32  1  0  0  0  0
 31 78  1  0  0  0  0
 32 33  1  0  0  0  0
 32 38  2  0  0  0  0
 33 34  1  0  0  0  0
 33 79  1  0  0  0  0
 33 80  1  0  0  0  0
 34 35  1  0  0  0  0
 35 39  2  0  0  0  0
 35 43  1  0  0  0  0
 36 81  1  0  0  0  0
 37 82  1  0  0  0  0
 37 83  1  0  0  0  0
 39 40  1  0  0  0  0
 39 45  1  0  0  0  0
 40 41  2  0  0  0  0
 40 84  1  0  0  0  0
 41 42  1  0  0  0  0
 41 85  1  0  0  0  0
 42 43  2  0  0  0  0
 42 86  1  0  0  0  0
 43 44  1  0  0  0  0
 44 87  1  0  0  0  0
 44 88  1  0  0  0  0
 44 89  1  0  0  0  0
 45 90  1  0  0  0  0
 45 91  1  0  0  0  0
 45 92  1  0  0  0  0
 46 93  1  0  0  0  0
 46 94  1  0  0  0  0
M  END
> <OPENEYE_ISO_SMILES>
Cc1cccc(c1OCC(=O)N[C@@H](Cc2ccccc2)[C@H](C[C@H](Cc3ccccc3)NC(=O)[C@H](C(C)C)N4CCCNC4=O)O)C

> <OPENEYE_INCHI>
InChI=1S/C37H48N4O5/c1-25(2)34(41-20-12-19-38-37(41)45)36(44)39-30(21-28-15-7-5-8-16-28)23-32(42)31(22-29-17-9-6-10-18-29)40-33(43)24-46-35-26(3)13-11-14-27(35)4/h5-11,13-18,25,30-32,34,42H,12,19-24H2,1-4H3,(H,38,45)(H,39,44)(H,40,43)/t30-,31-,32-,34-/m0/s1

> <OPENEYE_INCHIKEY>
KJHKTHWMRKYKJE-SUGCFTRWSA-N

> <FORMULA>
C37H48N4O5

$$$$
