VTRRT-13V2
  xed2sdf_05210316543D
 
 92 97  0  0  1  0  0  0  0  0999 V2000
   -0.0889    5.9465   -0.1941 C   0  0  0  0  0  0  0  0  0  0  0  0
   -0.0889    5.1215   -1.1441 C   0  0  0  0  0  0  0  0  0  0  0  0
    0.6256    4.7089   -0.1441 C   0  0  0  0  0  0  0  0  0  0  0  0
    1.3401    5.1215   -0.1441 C   0  0  0  0  0  0  0  0  0  0  0  0
    1.3400    5.9464   -0.1442 C   0  0  0  0  0  0  0  0  0  0  0  0
    0.6256    6.3590   -0.1441 C   0  0  0  0  0  0  0  0  0  0  0  0
    0.6256    3.8840   -0.1441 C   0  0  0  0  0  0  0  0  0  0  0  0
   -0.0889    3.4714   -0.0941 C   0  0  0  0  0  0  0  0  0  0  0  0
   -0.8034    3.8840    0.8559 N   0  3  0  0  0  0  0  0  0  0  0  0
   -0.0889    2.6465   -0.0941 C   0  0  0  0  0  0  0  0  0  0  0  0
   -0.8033    2.2340    0.8558 O   0  0  0  0  0  0  0  0  0  0  0  0
    0.6256    2.2340   -0.1441 C   0  0  0  0  0  0  0  0  0  0  0  0
    0.6255    1.4090   -0.0941 C   0  0  0  0  0  0  0  0  0  0  0  0
    1.3401    0.9965    0.8559 C   0  0  0  0  0  0  0  0  0  0  0  0
    2.0545    1.4089   -0.1441 C   0  0  0  0  0  0  0  0  0  0  0  0
    2.7690    0.9965   -0.1441 C   0  0  0  0  0  0  0  0  0  0  0  0
    3.4835    1.4090   -0.1441 C   0  0  0  0  0  0  0  0  0  0  0  0
    3.4835    2.2340   -0.1441 C   0  0  0  0  0  0  0  0  0  0  0  0
    2.7690    2.6465   -0.1441 C   0  0  0  0  0  0  0  0  0  0  0  0
    2.0545    2.2340   -0.1441 C   0  0  0  0  0  0  0  0  0  0  0  0
   -0.0889    0.9965   -0.1441 N   0  0  0  0  0  0  0  0  0  0  0  0
   -0.0889    0.1714   -0.0941 P   0  0  0  0  0  0  0  0  0  0  0  0
   -0.0889   -0.6536    0.8558 O   0  0  0  0  0  0  0  0  0  0  0  0
    0.7361    0.1715   -0.1441 O   0  0  0  0  0  0  0  0  0  0  0  0
   -0.9138    0.1715   -0.1441 O   0  0  0  0  0  0  0  0  0  0  0  0
   -0.6722   -1.2369    0.8559 C   0  0  0  0  0  0  0  0  0  0  0  0
    1.3195   -0.4119   -0.1441 C   0  0  0  0  0  0  0  0  0  0  0  0
    1.1059   -1.2088   -0.1441 C   0  0  0  0  0  0  0  0  0  0  0  0
    1.6894   -1.7922   -0.1441 C   0  0  0  0  0  0  0  0  0  0  0  0
    2.4862   -1.5786   -0.1442 C   0  0  0  0  0  0  0  0  0  0  0  0
    2.6997   -0.7817   -0.1441 C   0  0  0  0  0  0  0  0  0  0  0  0
    2.1163   -0.1983   -0.1441 C   0  0  0  0  0  0  0  0  0  0  0  0
   -0.6723   -2.0618   -0.0941 C   0  0  0  0  0  0  0  0  0  0  0  0
   -1.3397   -2.5468   -0.1442 O   0  0  0  0  0  0  0  0  0  0  0  0
   -1.0847   -3.3314   -0.0941 C   0  0  0  0  0  0  0  0  0  0  0  0
   -0.2598   -3.3315   -0.0941 C   0  0  0  0  0  0  0  0  0  0  0  0
   -0.0048   -2.5468   -0.0941 C   0  0  0  0  0  0  0  0  0  0  0  0
    0.7798   -2.2919    0.8559 O   0  0  0  0  0  0  0  0  0  0  0  0
    0.2251   -3.9989    0.8559 O   0  0  0  0  0  0  0  0  0  0  0  0
   -1.7992   -3.7439    0.8559 C   0  0  0  0  0  0  0  0  0  0  0  0
   -0.8712   -4.1283   -0.1441 C   0  0  0  0  0  0  0  0  0  0  0  0
   -0.6577   -4.9252   -0.1442 N   0  0  0  0  0  0  0  0  0  0  0  0
   -2.2117   -3.0295   -0.1441 N   0  0  0  0  0  0  0  0  0  0  0  0
   -3.0187   -3.2010   -0.1441 C   0  0  0  0  0  0  0  0  0  0  0  0
   -3.1049   -4.0214   -0.1441 C   0  0  0  0  0  0  0  0  0  0  0  0
   -2.3513   -4.3570   -0.1442 C   0  0  0  0  0  0  0  0  0  0  0  0
   -1.9563   -2.2446   -0.1442 N   0  0  0  0  0  0  0  0  0  0  0  0
   -2.5085   -1.6312   -0.1441 C   0  0  0  0  0  0  0  0  0  0  0  0
   -3.3158   -1.8028   -0.1442 N   0  0  0  0  0  0  0  0  0  0  0  0
   -3.5709   -2.5876   -0.1441 C   0  0  0  0  0  0  0  0  0  0  0  0
   -4.3778   -2.7591   -0.1442 N   0  0  0  0  0  0  0  0  0  0  0  0
   -0.0889    5.9465    0.8058 H   0  0  0  0  0  0  0  0  0  0  0  0
   -0.0889    3.4715   -1.0942 H   0  0  0  0  0  0  0  0  0  0  0  0
   -0.0888    2.6464   -1.0942 H   0  0  0  0  0  0  0  0  0  0  0  0
    0.6256    1.4090   -1.0942 H   0  0  0  0  0  0  0  0  0  0  0  0
   -0.6723   -2.0619   -1.0941 H   0  0  0  0  0  0  0  0  0  0  0  0
   -0.2597   -3.3314   -1.0941 H   0  0  0  0  0  0  0  0  0  0  0  0
   -0.0048   -2.5468   -1.0941 H   0  0  0  0  0  0  0  0  0  0  0  0
   -0.4480    4.9016   -2.1386 H   0  0  0  0  0  0  0  0  0  0  0  0
    2.2754    4.5815   -0.1439 H   0  0  0  0  0  0  0  0  0  0  0  0
    2.2754    6.4864   -0.1444 H   0  0  0  0  0  0  0  0  0  0  0  0
    0.6239    7.4370   -0.0787 H   0  0  0  0  0  0  0  0  0  0  0  0
    1.2257    3.5720    0.6979 H   0  0  0  0  0  0  0  0  0  0  0  0
    1.1026    3.5719   -1.0614 H   0  0  0  0  0  0  0  0  0  0  0  0
   -1.8459    3.7717    0.5973 H   0  0  0  0  0  0  0  0  0  0  0  0
   -0.5888    3.3083    1.7441 H   0  0  0  0  0  0  0  0  0  0  0  0
   -0.5888    4.9260    1.0416 H   0  0  0  0  0  0  0  0  0  0  0  0
   -1.7302    2.3336    0.6265 H   0  0  0  0  0  0  0  0  0  0  0  0
    1.2536    2.5965    0.6562 H   0  0  0  0  0  0  0  0  0  0  0  0
    1.0697    2.4904   -1.0946 H   0  0  0  0  0  0  0  0  0  0  0  0
    1.3343   -0.0586    1.0866 H   0  0  0  0  0  0  0  0  0  0  0  0
    1.3584    1.5655    1.7737 H   0  0  0  0  0  0  0  0  0  0  0  0
    2.7690   -0.0835   -0.1441 H   0  0  0  0  0  0  0  0  0  0  0  0
    4.4188    0.8690   -0.1441 H   0  0  0  0  0  0  0  0  0  0  0  0
    4.4188    2.7740   -0.1440 H   0  0  0  0  0  0  0  0  0  0  0  0
    2.7690    3.7265   -0.1442 H   0  0  0  0  0  0  0  0  0  0  0  0
    1.1192    2.7739   -0.1440 H   0  0  0  0  0  0  0  0  0  0  0  0
   -0.7169    1.3591    0.6561 H   0  0  0  0  0  0  0  0  0  0  0  0
   -1.6293   -0.7365    0.8491 H   0  0  0  0  0  0  0  0  0  0  0  0
   -0.5666   -1.7992    1.7719 H   0  0  0  0  0  0  0  0  0  0  0  0
    0.0627   -1.4882   -0.1440 H   0  0  0  0  0  0  0  0  0  0  0  0
    1.4099   -2.8354   -0.1441 H   0  0  0  0  0  0  0  0  0  0  0  0
    3.2500   -2.3422   -0.1443 H   0  0  0  0  0  0  0  0  0  0  0  0
    3.7429   -0.5022   -0.1439 H   0  0  0  0  0  0  0  0  0  0  0  0
    2.3958    0.8449   -0.1442 H   0  0  0  0  0  0  0  0  0  0  0  0
    1.6871   -2.3732    0.5528 H   0  0  0  0  0  0  0  0  0  0  0  0
    1.1837   -3.9684    0.8125 H   0  0  0  0  0  0  0  0  0  0  0  0
   -4.0402   -4.5614   -0.1440 H   0  0  0  0  0  0  0  0  0  0  0  0
   -1.9357   -5.1066   -0.8014 H   0  0  0  0  0  0  0  0  0  0  0  0
   -2.1748   -0.6041   -0.1441 H   0  0  0  0  0  0  0  0  0  0  0  0
   -5.1005   -1.9565   -0.1443 H   0  0  0  0  0  0  0  0  0  0  0  0
   -4.7116   -3.7863   -0.1441 H   0  0  0  0  0  0  0  0  0  0  0  0
  1  2  2  0
  2  3  1  0
  3  4  2  0
  3  7  1  0
  4  5  1  0
  5  6  2  0
  6  1  1  0
  7  8  1  0
  8  9  1  0
  8 10  1  0
 10 11  1  0
 10 12  1  0
 12 13  1  0
 13 14  1  0
 13 21  1  0
 14 15  1  0
 15 16  2  0
 16 17  1  0
 17 18  2  0
 18 19  1  0
 19 20  2  0
 20 15  1  0
 21 22  1  0
 22 23  1  0
 22 24  1  0
 22 25  2  0
 23 26  1  0
 24 27  1  0
 27 28  2  0
 28 29  1  0
 29 30  2  0
 30 31  1  0
 31 32  2  0
 32 27  1  0
 33 26  1  0
 33 34  1  0
 34 35  1  0
 35 36  1  0
 35 40  1  0
 35 41  1  0
 36 37  1  0
 36 39  1  0
 37 33  1  0
 37 38  1  0
 40 43  1  0
 41 42  3  0
 43 44  1  0
 43 47  1  0
 44 45  2  0
 45 46  1  0
 46 40  2  0
 47 48  2  0
 48 49  1  0
 49 50  2  0
 50 44  1  0
 50 51  1  0
  1 52  1  0
  2 59  1  0
  4 60  1  0
  5 61  1  0
  6 62  1  0
  7 63  1  0
  7 64  1  0
  8 53  1  0
  9 65  1  0
  9 66  1  0
  9 67  1  0
 10 54  1  0
 11 68  1  0
 12 69  1  0
 12 70  1  0
 13 55  1  0
 14 71  1  0
 14 72  1  0
 16 73  1  0
 17 74  1  0
 18 75  1  0
 19 76  1  0
 20 77  1  0
 21 78  1  0
 26 79  1  0
 26 80  1  0
 28 81  1  0
 29 82  1  0
 30 83  1  0
 31 84  1  0
 32 85  1  0
 33 56  1  0
 36 57  1  0
 37 58  1  0
 38 86  1  0
 39 87  1  0
 45 88  1  0
 46 89  1  0
 48 90  1  0
 51 91  1  0
 51 92  1  0
M  CHG  1   9   1
M  END
>  <Favorite_cresset>
false

>  <MW_cresset>
714.7

>  <#Atoms_cresset>
51

>  <SlogP_cresset>
4

>  <TPSA_cresset>
225.1

>  <Flexibility_cresset>
17.1

>  <#RB_cresset>
18

>  <Rof5_cresset>
3

>  <Filename_cresset>
VTRRT-13V2.1.sdf

>  <Confs_cresset>
0

>  <Poses_cresset>
0

$$$$
