3084961
  -OEChem-02092118563D

 53 56  0     1  0  0  0  0  0999 V2000
   -2.8589    0.4638   -0.3399 O   0  0  0  0  0  0  0  0  0  0  0  0
   -1.9908   -0.6711    1.5042 O   0  0  0  0  0  0  0  0  0  0  0  0
   -6.5040    0.9335    1.4946 O   0  0  0  0  0  0  0  0  0  0  0  0
   -4.6182   -1.1209    2.4415 O   0  0  0  0  0  0  0  0  0  0  0  0
   -6.2793    1.2251   -1.3886 O   0  0  0  0  0  0  0  0  0  0  0  0
   -4.3654    1.9156   -3.1594 O   0  0  0  0  0  0  0  0  0  0  0  0
   -2.3472    2.2017   -2.1393 O   0  0  0  0  0  0  0  0  0  0  0  0
    2.5674    0.1554    0.4201 O   0  0  0  0  0  0  0  0  0  0  0  0
    0.2652    0.9292    1.6226 O   0  0  0  0  0  0  0  0  0  0  0  0
    0.3579   -3.8959   -1.0637 O   0  0  0  0  0  0  0  0  0  0  0  0
    2.8659   -3.3598   -1.6179 O   0  0  0  0  0  0  0  0  0  0  0  0
   -5.5339    0.2623    0.6892 C   0  0  2  0  0  0  0  0  0  0  0  0
   -4.3035   -0.0627    1.5367 C   0  0  2  0  0  0  0  0  0  0  0  0
   -5.1779    1.1772   -0.4831 C   0  0  1  0  0  0  0  0  0  0  0  0
   -3.1322   -0.5118    0.6626 C   0  0  1  0  0  0  0  0  0  0  0  0
   -3.9561    0.6518   -1.2264 C   0  0  1  0  0  0  0  0  0  0  0  0
   -3.4436    1.6654   -2.1977 C   0  0  0  0  0  0  0  0  0  0  0  0
   -0.8337   -1.0636    0.8969 C   0  0  0  0  0  0  0  0  0  0  0  0
    0.3054   -0.2601    0.9547 C   0  0  0  0  0  0  0  0  0  0  0  0
   -0.7983   -2.2809    0.2153 C   0  0  0  0  0  0  0  0  0  0  0  0
    1.4807   -0.6770    0.3294 C   0  0  0  0  0  0  0  0  0  0  0  0
    1.5141   -1.8931   -0.3509 C   0  0  0  0  0  0  0  0  0  0  0  0
    0.3758   -2.7004   -0.4113 C   0  0  0  0  0  0  0  0  0  0  0  0
    2.7659   -2.3074   -1.0026 C   0  0  0  0  0  0  0  0  0  0  0  0
    3.7514   -0.2359   -0.1865 C   0  0  0  0  0  0  0  0  0  0  0  0
    3.9065   -1.3781   -0.8746 C   0  0  0  0  0  0  0  0  0  0  0  0
    4.8533    0.7353   -0.0333 C   0  0  0  0  0  0  0  0  0  0  0  0
    0.6060    0.9047    3.0066 C   0  0  0  0  0  0  0  0  0  0  0  0
    5.8259    0.8562   -1.0292 C   0  0  0  0  0  0  0  0  0  0  0  0
    4.9283    1.5381    1.1077 C   0  0  0  0  0  0  0  0  0  0  0  0
    6.8665    1.7738   -0.8850 C   0  0  0  0  0  0  0  0  0  0  0  0
    5.9688    2.4558    1.2519 C   0  0  0  0  0  0  0  0  0  0  0  0
    6.9380    2.5736    0.2555 C   0  0  0  0  0  0  0  0  0  0  0  0
   -6.0117   -0.6576    0.3296 H   0  0  0  0  0  0  0  0  0  0  0  0
   -4.0145    0.8054    2.1424 H   0  0  0  0  0  0  0  0  0  0  0  0
   -5.0113    2.1991   -0.1208 H   0  0  0  0  0  0  0  0  0  0  0  0
   -3.3777   -1.4738    0.1938 H   0  0  0  0  0  0  0  0  0  0  0  0
   -4.1513   -0.2781   -1.7749 H   0  0  0  0  0  0  0  0  0  0  0  0
   -6.7907    0.3155    2.1877 H   0  0  0  0  0  0  0  0  0  0  0  0
   -5.2995   -0.7938    3.0526 H   0  0  0  0  0  0  0  0  0  0  0  0
   -6.4352    0.3250   -1.7220 H   0  0  0  0  0  0  0  0  0  0  0  0
   -1.6748   -2.9230    0.1811 H   0  0  0  0  0  0  0  0  0  0  0  0
   -4.0482    2.5808   -3.8069 H   0  0  0  0  0  0  0  0  0  0  0  0
    4.8364   -1.6873   -1.3372 H   0  0  0  0  0  0  0  0  0  0  0  0
    1.2244   -4.0822   -1.4562 H   0  0  0  0  0  0  0  0  0  0  0  0
    1.6320    0.5495    3.1456 H   0  0  0  0  0  0  0  0  0  0  0  0
    0.5343    1.9244    3.3949 H   0  0  0  0  0  0  0  0  0  0  0  0
   -0.0898    0.2691    3.5634 H   0  0  0  0  0  0  0  0  0  0  0  0
    5.7937    0.2677   -1.9422 H   0  0  0  0  0  0  0  0  0  0  0  0
    4.1912    1.4616    1.9034 H   0  0  0  0  0  0  0  0  0  0  0  0
    7.6185    1.8696   -1.6627 H   0  0  0  0  0  0  0  0  0  0  0  0
    6.0256    3.0777    2.1405 H   0  0  0  0  0  0  0  0  0  0  0  0
    7.7476    3.2887    0.3675 H   0  0  0  0  0  0  0  0  0  0  0  0
  1 15  1  0  0  0  0
  1 16  1  0  0  0  0
  2 15  1  0  0  0  0
  2 18  1  0  0  0  0
  3 12  1  0  0  0  0
  3 39  1  0  0  0  0
  4 13  1  0  0  0  0
  4 40  1  0  0  0  0
  5 14  1  0  0  0  0
  5 41  1  0  0  0  0
  6 17  1  0  0  0  0
  6 43  1  0  0  0  0
  7 17  2  0  0  0  0
  8 21  1  0  0  0  0
  8 25  1  0  0  0  0
  9 19  1  0  0  0  0
  9 28  1  0  0  0  0
 10 23  1  0  0  0  0
 10 45  1  0  0  0  0
 11 24  2  0  0  0  0
 12 13  1  0  0  0  0
 12 14  1  0  0  0  0
 12 34  1  0  0  0  0
 13 15  1  0  0  0  0
 13 35  1  0  0  0  0
 14 16  1  0  0  0  0
 14 36  1  0  0  0  0
 15 37  1  0  0  0  0
 16 17  1  0  0  0  0
 16 38  1  0  0  0  0
 18 19  2  0  0  0  0
 18 20  1  0  0  0  0
 19 21  1  0  0  0  0
 20 23  2  0  0  0  0
 20 42  1  0  0  0  0
 21 22  2  0  0  0  0
 22 23  1  0  0  0  0
 22 24  1  0  0  0  0
 24 26  1  0  0  0  0
 25 26  2  0  0  0  0
 25 27  1  0  0  0  0
 26 44  1  0  0  0  0
 27 29  2  0  0  0  0
 27 30  1  0  0  0  0
 28 46  1  0  0  0  0
 28 47  1  0  0  0  0
 28 48  1  0  0  0  0
 29 31  1  0  0  0  0
 29 49  1  0  0  0  0
 30 32  2  0  0  0  0
 30 50  1  0  0  0  0
 31 33  2  0  0  0  0
 31 51  1  0  0  0  0
 32 33  1  0  0  0  0
 32 52  1  0  0  0  0
 33 53  1  0  0  0  0
M  END
> <PUBCHEM_COMPOUND_CID>
3084961

> <PUBCHEM_CONFORMER_RMSD>
0.8

> <PUBCHEM_CONFORMER_DIVERSEORDER>
1
101
78
8
73
87
120
97
94
33
62
119
29
117
47
106
92
115
109
77
112
25
80
28
2
20
66
65
114
43
105
108
34
82
99
55
70
45
56
98
39
61
123
10
42
6
16
52
37
30
67
44
17
60
63
14
102
4
118
5
3
9
69
113
116
22
74
111
110
7
46
71
31
104
103
58
32
35
81
95
41
85
15
11
107
13
53
59
38
75
68
48
19
91
27
100
86
21
88
83
26
79
51
57
76
36
90
24
64
122
40
23
96
72
93
89
54
121
49
84
50
18
12

> <PUBCHEM_MMFF94_PARTIAL_CHARGES>
45
1 -0.56
10 -0.53
11 -0.57
12 0.28
13 0.28
14 0.28
15 0.56
16 0.34
17 0.66
18 0.08
19 0.08
2 -0.36
20 -0.15
21 0.08
22 0.09
23 0.08
24 0.47
25 0.05
26 -0.14
27 0.03
28 0.28
29 -0.15
3 -0.68
30 -0.15
31 -0.15
32 -0.15
33 -0.15
39 0.4
4 -0.68
40 0.4
41 0.4
42 0.15
43 0.5
44 0.15
45 0.45
49 0.15
5 -0.68
50 0.15
51 0.15
52 0.15
53 0.15
6 -0.65
7 -0.57
8 -0.16
9 -0.36

> <PUBCHEM_EFFECTIVE_ROTOR_COUNT>
6.2

> <PUBCHEM_PHARMACOPHORE_FEATURES>
19
1 1 acceptor
1 10 donor
1 11 acceptor
1 2 acceptor
1 3 acceptor
1 3 donor
1 4 acceptor
1 4 donor
1 5 acceptor
1 5 donor
1 6 acceptor
1 7 acceptor
1 8 acceptor
1 9 acceptor
3 6 7 17 anion
6 1 12 13 14 15 16 rings
6 18 19 20 21 22 23 rings
6 27 29 30 31 32 33 rings
6 8 21 22 24 25 26 rings

> <PUBCHEM_HEAVY_ATOM_COUNT>
33

> <PUBCHEM_ATOM_DEF_STEREO_COUNT>
5

> <PUBCHEM_ATOM_UDEF_STEREO_COUNT>
0

> <PUBCHEM_BOND_DEF_STEREO_COUNT>
0

> <PUBCHEM_BOND_UDEF_STEREO_COUNT>
0

> <PUBCHEM_ISOTOPIC_ATOM_COUNT>
0

> <PUBCHEM_COMPONENT_COUNT>
1

> <PUBCHEM_CACTVS_TAUTO_COUNT>
4

> <PUBCHEM_CONFORMER_ID>
002F12A100000001

> <PUBCHEM_MMFF94_ENERGY>
115.2359

> <PUBCHEM_FEATURE_SELFOVERLAP>
96.605

> <PUBCHEM_SHAPE_FINGERPRINT>
10 15 17458628938421549504
10165383 225 18341337764342666787
10369192 42 18411426137081384581
105312 117 18338792420625688214
11135926 11 18131639976166880590
11621639 307 17703231711043634336
11720765 8 17252564800152789567
11796584 16 13110954310433743055
11991303 11 18337679736460543550
12107698 1 17168708659994997349
12293681 160 17704080607397970786
12403259 415 18261399901274569038
12422481 6 17894625989913922812
12788726 201 16199883751608976635
12969540 114 18273493498714702610
13257819 101 18260823808895081102
13402501 40 18187082858070643869
13911987 19 18272937136798021394
14117953 113 18342468071313969972
14415360 78 18057877138104434520
14739800 52 17168410593506907368
14767858 380 17632580456969906072
14840074 17 17275109422543762685
15001296 14 15409742908952294089
15183329 4 15769783450429072208
15276724 80 17916319238192409425
20715895 44 18272091638933362488
21033648 144 18409731767930000767
21033648 29 18113344097815891351
21859007 373 18041552539148806430
23559900 14 17315367933674111363
24771293 8 18040153995156402573
2838139 119 18115012096227203092
392239 28 16226059915653487449
44802255 64 18188781664456202254
484985 159 11239728525728064839
57527585 21 18120345732692133517
58902169 19 16128385891290712760
6697151 62 17830437402827914886
9849439 229 16736899426268185181

> <PUBCHEM_SHAPE_MULTIPOLES>
614.56
16.62
3.22
2.31
4.59
2.52
0.13
-14.87
1.8
3.06
1.43
-3.01
-1.2
3.14

> <PUBCHEM_SHAPE_SELFOVERLAP>
1350.616

> <PUBCHEM_SHAPE_VOLUME>
327.4

> <PUBCHEM_COORDINATE_TYPE>
2
5
10

$$$$
