REMARK  15 active torsions:
REMARK  status: ('A' for Active; 'I' for Inactive)
REMARK    1  A    between atoms: O_2  and  C_18 
REMARK    2  A    between atoms: O_2  and  C_22 
REMARK    3  A    between atoms: O_4  and  C_14 
REMARK    4  A    between atoms: O_5  and  C_21 
REMARK    5  A    between atoms: O_5  and  C_25 
REMARK    6  A    between atoms: O_6  and  C_15 
REMARK    7  A    between atoms: O_7  and  C_16 
REMARK    8  A    between atoms: O_8  and  C_17 
REMARK    9  A    between atoms: O_9  and  C_19 
REMARK   10  A    between atoms: O_10  and  C_20 
REMARK   11  A    between atoms: O_11  and  C_30 
REMARK   12  A    between atoms: O_12  and  C_32 
REMARK   13  A    between atoms: C_13  and  C_22 
REMARK   14  A    between atoms: C_25  and  C_26 
REMARK   15  A    between atoms: C_26  and  C_27 
ROOT
HETATM    1  O   UNK     0       0.845   1.672  -0.776  0.00  0.00    -0.348 OA
HETATM    2  C   UNK     0       2.247   1.756  -1.038  0.00  0.00     0.180 C 
HETATM    3  C   UNK     0       2.981   2.259   0.207  0.00  0.00     0.180 C 
HETATM    4  C   UNK     0       2.408   3.598   0.672  0.00  0.00     0.183 C 
HETATM    5  C   UNK     0       0.884   3.542   0.772  0.00  0.00     0.204 C 
HETATM    6  C   UNK     0       0.265   2.943  -0.490  0.00  0.00     0.291 C 
ENDROOT
BRANCH   2   7
HETATM    7  C   UNK     0       2.722   0.367  -1.452  0.00  0.00     0.205 C 
BRANCH   7   8
HETATM    8  O   UNK     0       2.489  -0.539  -0.383  0.00  0.00    -0.356 OA
BRANCH   8   9
HETATM    9  C   UNK     0       2.915  -1.856  -0.715  0.00  0.00     0.291 C 
HETATM   10  O   UNK     0       2.002  -2.520  -1.595  0.00  0.00    -0.351 OA
HETATM   11  C   UNK     0       0.708  -2.755  -1.029  0.00  0.00     0.152 C 
HETATM   12  C   UNK     0       0.808  -3.619   0.236  0.00  0.00     0.178 C 
HETATM   13  C   UNK     0      -0.137  -3.422  -2.112  0.00  0.00     0.042 C 
HETATM   14  C   UNK     0       1.780  -2.983   1.230  0.00  0.00     0.183 C 
HETATM   15  C   UNK     0       3.120  -2.669   0.562  0.00  0.00     0.204 C 
BRANCH  12  16
HETATM   16  O   UNK     0      -0.466  -3.722   0.865  0.00  0.00    -0.390 OA
HETATM   17  H   UNK     0      -0.783  -2.822   1.054  0.00  0.00     0.210 HD
ENDBRANCH  12  16
BRANCH  14  18
HETATM   18  O   UNK     0       1.981  -3.874   2.325  0.00  0.00    -0.390 OA
HETATM   19  H   UNK     0       2.607  -3.450   2.937  0.00  0.00     0.210 HD
ENDBRANCH  14  18
BRANCH  15  20
HETATM   20  O   UNK     0       3.782  -3.883   0.203  0.00  0.00    -0.388 OA
HETATM   21  H   UNK     0       4.651  -3.647  -0.163  0.00  0.00     0.210 HD
ENDBRANCH  15  20
ENDBRANCH   8   9
ENDBRANCH   7   8
ENDBRANCH   2   7
BRANCH   6  22
HETATM   22  O   UNK     0      -1.137   2.793  -0.264  0.00  0.00    -0.358 OA
BRANCH  22  23
HETATM   23  C   UNK     0      -1.848   2.684  -1.487  0.00  0.00     0.175 C 
BRANCH  23  24
HETATM   24  C   UNK     0      -3.339   2.540  -1.204  0.00  0.00     0.065 C 
BRANCH  24  25
HETATM   25  C   UNK     0      -3.656   1.294  -0.414  0.00  0.00    -0.053 A 
HETATM   26  C   UNK     0      -3.937   0.100  -1.077  0.00  0.00     0.046 A 
HETATM   27  C   UNK     0      -4.228  -1.052  -0.346  0.00  0.00     0.099 A 
HETATM   28  C   UNK     0      -4.239  -1.009   1.048  0.00  0.00     0.098 A 
HETATM   29  C   UNK     0      -3.958   0.185   1.711  0.00  0.00     0.040 A 
HETATM   30  C   UNK     0      -3.666   1.337   0.981  0.00  0.00     0.010 A 
BRANCH  27  31
HETATM   31  O   UNK     0      -4.499  -2.213  -1.005  0.00  0.00    -0.358 OA
HETATM   32  H   UNK     0      -4.442  -2.054  -1.963  0.00  0.00     0.217 HD
ENDBRANCH  27  31
BRANCH  28  33
HETATM   33  O   UNK     0      -4.522  -2.128   1.773  0.00  0.00    -0.358 OA
HETATM   34  H   UNK     0      -4.482  -1.910   2.720  0.00  0.00     0.217 HD
ENDBRANCH  28  33
ENDBRANCH  24  25
ENDBRANCH  23  24
ENDBRANCH  22  23
ENDBRANCH   6  22
BRANCH   3  35
HETATM   35  O   UNK     0       4.365   2.417  -0.094  0.00  0.00    -0.390 OA
HETATM   36  H   UNK     0       4.443   3.057  -0.822  0.00  0.00     0.210 HD
ENDBRANCH   3  35
BRANCH   5  37
HETATM   37  O   UNK     0       0.371   4.864   0.937  0.00  0.00    -0.388 OA
HETATM   38  H   UNK     0       0.632   5.388   0.160  0.00  0.00     0.210 HD
ENDBRANCH   5  37
BRANCH   4  39
HETATM   39  O   UNK     0       2.959   3.892   1.957  0.00  0.00    -0.390 OA
HETATM   40  H   UNK     0       2.674   3.197   2.575  0.00  0.00     0.210 HD
ENDBRANCH   4  39
TORSDOF 15
