MODEL 1
REMARK VINA RESULT:      -8.3      0.000      0.000
REMARK  10 active torsions:
REMARK  status: ('A' for Active; 'I' for Inactive)
REMARK    1  A    between atoms: O_2  and  C_15 
REMARK    2  A    between atoms: O_2  and  C_18 
REMARK    3  A    between atoms: O_3  and  C_12 
REMARK    4  A    between atoms: O_4  and  C_13 
REMARK    5  A    between atoms: O_5  and  C_14 
REMARK    6  A    between atoms: O_6  and  C_17 
REMARK    7  A    between atoms: O_9  and  C_20 
REMARK    8  A    between atoms: O_10  and  C_23 
REMARK    9  A    between atoms: C_16  and  C_17 
REMARK   10  A    between atoms: C_25  and  C_27 
ROOT
HETATM    1  O   UNK     0      10.883  -0.423  19.443  0.00  0.00    -0.340 OA
HETATM    2  C   UNK     0      10.933   2.426  19.072  0.00  0.00     0.183 C 
HETATM    3  C   UNK     0      11.455   1.756  20.344  0.00  0.00     0.205 C 
HETATM    4  C   UNK     0      10.916   1.451  17.895  0.00  0.00     0.189 C 
HETATM    5  C   UNK     0      10.760   0.416  20.588  0.00  0.00     0.299 C 
HETATM    6  C   UNK     0      10.257   0.135  18.293  0.00  0.00     0.253 C 
ENDROOT
BRANCH   5   7
HETATM    7  O   UNK     0      11.385  -0.207  21.711  0.00  0.00    -0.315 OA
BRANCH   7   8
HETATM    8  C   UNK     0      10.574  -0.925  22.541  0.00  0.00     0.110 A 
HETATM    9  C   UNK     0      10.859  -2.270  22.778  0.00  0.00     0.078 A 
HETATM   10  C   UNK     0      10.036  -3.014  23.626  0.00  0.00     0.096 A 
HETATM   11  O   UNK     0      10.365  -4.331  23.820  0.00  0.00    -0.309 OA
HETATM   12  C   UNK     0       8.934  -2.411  24.231  0.00  0.00     0.084 A 
HETATM   13  C   UNK     0       9.570  -5.092  24.663  0.00  0.00     0.090 A 
HETATM   14  C   UNK     0       8.482  -4.630  25.298  0.00  0.00     0.094 A 
HETATM   15  C   UNK     0       8.083  -3.219  25.118  0.00  0.00     0.190 A 
HETATM   16  O   UNK     0       7.099  -2.758  25.680  0.00  0.00    -0.287 OA
HETATM   17  C   UNK     0       8.647  -1.065  23.996  0.00  0.00     0.118 A 
HETATM   18  C   UNK     0       9.471  -0.324  23.148  0.00  0.00     0.134 A 
BRANCH  13  19
HETATM   19  C   UNK     0      10.011  -6.496  24.797  0.00  0.00    -0.002 A 
HETATM   20  C   UNK     0      10.636  -6.925  25.971  0.00  0.00     0.014 A 
HETATM   21  C   UNK     0      11.051  -8.251  26.099  0.00  0.00     0.001 A 
HETATM   22  C   UNK     0      10.843  -9.151  25.054  0.00  0.00     0.000 A 
HETATM   23  C   UNK     0      10.219  -8.726  23.881  0.00  0.00     0.001 A 
HETATM   24  C   UNK     0       9.804  -7.400  23.753  0.00  0.00     0.014 A 
ENDBRANCH  13  19
BRANCH  17  25
HETATM   25  O   UNK     0       7.578  -0.443  24.570  0.00  0.00    -0.357 OA
HETATM   26  H   UNK     0       6.799  -1.020  24.564  0.00  0.00     0.217 HD
ENDBRANCH  17  25
BRANCH  18  27
HETATM   27  O   UNK     0       9.199   0.992  22.910  0.00  0.00    -0.356 OA
HETATM   28  H   UNK     0       9.971   1.519  23.183  0.00  0.00     0.218 HD
ENDBRANCH  18  27
ENDBRANCH   7   8
ENDBRANCH   5   7
BRANCH   6  29
HETATM   29  C   UNK     0      10.471  -0.908  17.245  0.00  0.00     0.172 C 
HETATM   30  O   UNK     0       9.603  -1.645  16.800  0.00  0.00    -0.648 OA
BRANCH  29  31
HETATM   31  O   UNK     0      11.767  -0.932  16.851  0.00  0.00    -0.774 OA
HETATM   32  H   UNK     0      11.914  -0.401  16.039  0.00  0.00     0.167 HD
ENDBRANCH  29  31
ENDBRANCH   6  29
BRANCH   3  33
HETATM   33  O   UNK     0      11.199   2.603  21.465  0.00  0.00    -0.388 OA
HETATM   34  H   UNK     0      10.442   3.168  21.240  0.00  0.00     0.210 HD
ENDBRANCH   3  33
BRANCH   4  35
HETATM   35  O   UNK     0      10.175   2.028  16.822  0.00  0.00    -0.390 OA
HETATM   36  H   UNK     0       9.946   1.318  16.198  0.00  0.00     0.210 HD
ENDBRANCH   4  35
BRANCH   2  37
HETATM   37  O   UNK     0      11.784   3.520  18.728  0.00  0.00    -0.390 OA
HETATM   38  H   UNK     0      11.994   4.000  19.546  0.00  0.00     0.210 HD
ENDBRANCH   2  37
TORSDOF 10
ENDMDL
MODEL 2
REMARK VINA RESULT:      -8.1      1.787      2.178
REMARK  10 active torsions:
REMARK  status: ('A' for Active; 'I' for Inactive)
REMARK    1  A    between atoms: O_2  and  C_15 
REMARK    2  A    between atoms: O_2  and  C_18 
REMARK    3  A    between atoms: O_3  and  C_12 
REMARK    4  A    between atoms: O_4  and  C_13 
REMARK    5  A    between atoms: O_5  and  C_14 
REMARK    6  A    between atoms: O_6  and  C_17 
REMARK    7  A    between atoms: O_9  and  C_20 
REMARK    8  A    between atoms: O_10  and  C_23 
REMARK    9  A    between atoms: C_16  and  C_17 
REMARK   10  A    between atoms: C_25  and  C_27 
ROOT
HETATM    1  O   UNK     0      10.179   0.871  21.328  0.00  0.00    -0.340 OA
HETATM    2  C   UNK     0      12.853   1.100  20.302  0.00  0.00     0.183 C 
HETATM    3  C   UNK     0      12.525   1.292  21.782  0.00  0.00     0.205 C 
HETATM    4  C   UNK     0      11.776   0.279  19.593  0.00  0.00     0.189 C 
HETATM    5  C   UNK     0      11.084   1.764  21.973  0.00  0.00     0.299 C 
HETATM    6  C   UNK     0      10.387   0.814  19.921  0.00  0.00     0.253 C 
ENDROOT
BRANCH   5   7
HETATM    7  O   UNK     0      10.812   1.796  23.375  0.00  0.00    -0.315 OA
BRANCH   7   8
HETATM    8  C   UNK     0      10.071   0.767  23.877  0.00  0.00     0.110 A 
HETATM    9  C   UNK     0      10.633  -0.507  23.952  0.00  0.00     0.078 A 
HETATM   10  C   UNK     0       9.884  -1.568  24.464  0.00  0.00     0.096 A 
HETATM   11  O   UNK     0      10.490  -2.797  24.512  0.00  0.00    -0.309 OA
HETATM   12  C   UNK     0       8.577  -1.350  24.898  0.00  0.00     0.084 A 
HETATM   13  C   UNK     0       9.771  -3.867  25.023  0.00  0.00     0.090 A 
HETATM   14  C   UNK     0       8.507  -3.787  25.467  0.00  0.00     0.094 A 
HETATM   15  C   UNK     0       7.810  -2.485  25.432  0.00  0.00     0.190 A 
HETATM   16  O   UNK     0       6.658  -2.368  25.829  0.00  0.00    -0.287 OA
HETATM   17  C   UNK     0       8.011  -0.075  24.825  0.00  0.00     0.118 A 
HETATM   18  C   UNK     0       8.763   0.982  24.312  0.00  0.00     0.134 A 
BRANCH  13  19
HETATM   19  C   UNK     0      10.516  -5.143  25.025  0.00  0.00    -0.002 A 
HETATM   20  C   UNK     0      10.223  -6.125  25.976  0.00  0.00     0.014 A 
HETATM   21  C   UNK     0      10.926  -7.330  25.976  0.00  0.00     0.001 A 
HETATM   22  C   UNK     0      11.921  -7.559  25.027  0.00  0.00     0.000 A 
HETATM   23  C   UNK     0      12.216  -6.581  24.076  0.00  0.00     0.001 A 
HETATM   24  C   UNK     0      11.514  -5.375  24.076  0.00  0.00     0.014 A 
ENDBRANCH  13  19
BRANCH  17  25
HETATM   25  O   UNK     0       6.737   0.174  25.240  0.00  0.00    -0.357 OA
HETATM   26  H   UNK     0       6.508  -0.380  26.002  0.00  0.00     0.217 HD
ENDBRANCH  17  25
BRANCH  18  27
HETATM   27  O   UNK     0       8.220   2.232  24.235  0.00  0.00    -0.356 OA
HETATM   28  H   UNK     0       8.782   2.777  23.657  0.00  0.00     0.218 HD
ENDBRANCH  18  27
ENDBRANCH   7   8
ENDBRANCH   5   7
BRANCH   6  29
HETATM   29  C   UNK     0       9.326  -0.131  19.456  0.00  0.00     0.172 C 
HETATM   30  O   UNK     0       8.517   0.103  18.570  0.00  0.00    -0.648 OA
BRANCH  29  31
HETATM   31  O   UNK     0       9.379  -1.291  20.154  0.00  0.00    -0.774 OA
HETATM   32  H   UNK     0       9.280  -2.074  19.572  0.00  0.00     0.167 HD
ENDBRANCH  29  31
ENDBRANCH   6  29
BRANCH   3  33
HETATM   33  O   UNK     0      13.397   2.278  22.337  0.00  0.00    -0.388 OA
HETATM   34  H   UNK     0      13.799   1.900  23.136  0.00  0.00     0.210 HD
ENDBRANCH   3  33
BRANCH   4  35
HETATM   35  O   UNK     0      11.977   0.362  18.184  0.00  0.00    -0.390 OA
HETATM   36  H   UNK     0      12.818   0.824  18.026  0.00  0.00     0.210 HD
ENDBRANCH   4  35
BRANCH   2  37
HETATM   37  O   UNK     0      14.094   0.404  20.175  0.00  0.00    -0.390 OA
HETATM   38  H   UNK     0      14.809   1.053  20.281  0.00  0.00     0.210 HD
ENDBRANCH   2  37
TORSDOF 10
ENDMDL
MODEL 3
REMARK VINA RESULT:      -8.0      2.672      8.306
REMARK  10 active torsions:
REMARK  status: ('A' for Active; 'I' for Inactive)
REMARK    1  A    between atoms: O_2  and  C_15 
REMARK    2  A    between atoms: O_2  and  C_18 
REMARK    3  A    between atoms: O_3  and  C_12 
REMARK    4  A    between atoms: O_4  and  C_13 
REMARK    5  A    between atoms: O_5  and  C_14 
REMARK    6  A    between atoms: O_6  and  C_17 
REMARK    7  A    between atoms: O_9  and  C_20 
REMARK    8  A    between atoms: O_10  and  C_23 
REMARK    9  A    between atoms: C_16  and  C_17 
REMARK   10  A    between atoms: C_25  and  C_27 
ROOT
HETATM    1  O   UNK     0      10.666  -5.467  23.769  0.00  0.00    -0.340 OA
HETATM    2  C   UNK     0      10.731  -6.891  26.264  0.00  0.00     0.183 C 
HETATM    3  C   UNK     0       9.514  -6.083  25.814  0.00  0.00     0.205 C 
HETATM    4  C   UNK     0      11.609  -7.286  25.076  0.00  0.00     0.189 C 
HETATM    5  C   UNK     0       9.920  -4.952  24.869  0.00  0.00     0.299 C 
HETATM    6  C   UNK     0      11.881  -6.083  24.181  0.00  0.00     0.253 C 
ENDROOT
BRANCH   5   7
HETATM    7  O   UNK     0       8.727  -4.327  24.391  0.00  0.00    -0.315 OA
BRANCH   7   8
HETATM    8  C   UNK     0       8.728  -2.964  24.346  0.00  0.00     0.110 A 
HETATM    9  C   UNK     0       9.585  -2.310  23.461  0.00  0.00     0.078 A 
HETATM   10  C   UNK     0       9.593  -0.915  23.406  0.00  0.00     0.096 A 
HETATM   11  O   UNK     0      10.456  -0.328  22.517  0.00  0.00    -0.309 OA
HETATM   12  C   UNK     0       8.747  -0.181  24.235  0.00  0.00     0.084 A 
HETATM   13  C   UNK     0      10.481   1.056  22.435  0.00  0.00     0.090 A 
HETATM   14  C   UNK     0       9.721   1.870  23.183  0.00  0.00     0.094 A 
HETATM   15  C   UNK     0       8.777   1.287  24.158  0.00  0.00     0.190 A 
HETATM   16  O   UNK     0       8.064   1.995  24.858  0.00  0.00    -0.287 OA
HETATM   17  C   UNK     0       7.887  -0.833  25.123  0.00  0.00     0.118 A 
HETATM   18  C   UNK     0       7.881  -2.227  25.175  0.00  0.00     0.134 A 
BRANCH  13  19
HETATM   19  C   UNK     0      11.449   1.582  21.451  0.00  0.00    -0.002 A 
HETATM   20  C   UNK     0      12.812   1.615  21.756  0.00  0.00     0.014 A 
HETATM   21  C   UNK     0      13.726   2.111  20.826  0.00  0.00     0.001 A 
HETATM   22  C   UNK     0      13.280   2.574  19.588  0.00  0.00     0.000 A 
HETATM   23  C   UNK     0      11.920   2.542  19.280  0.00  0.00     0.001 A 
HETATM   24  C   UNK     0      11.006   2.046  20.210  0.00  0.00     0.014 A 
ENDBRANCH  13  19
BRANCH  17  25
HETATM   25  O   UNK     0       7.046  -0.148  25.948  0.00  0.00    -0.357 OA
HETATM   26  H   UNK     0       7.047  -0.533  26.838  0.00  0.00     0.217 HD
ENDBRANCH  17  25
BRANCH  18  27
HETATM   27  O   UNK     0       7.046  -2.875  26.039  0.00  0.00    -0.356 OA
HETATM   28  H   UNK     0       6.128  -2.658  25.800  0.00  0.00     0.218 HD
ENDBRANCH  18  27
ENDBRANCH   7   8
ENDBRANCH   5   7
BRANCH   6  29
HETATM   29  C   UNK     0      12.506  -6.506  22.892  0.00  0.00     0.172 C 
HETATM   30  O   UNK     0      12.751  -7.661  22.576  0.00  0.00    -0.648 OA
BRANCH  29  31
HETATM   31  O   UNK     0      12.771  -5.429  22.112  0.00  0.00    -0.774 OA
HETATM   32  H   UNK     0      11.966  -4.896  21.937  0.00  0.00     0.167 HD
ENDBRANCH  29  31
ENDBRANCH   6  29
BRANCH   3  33
HETATM   33  O   UNK     0       8.879  -5.507  26.955  0.00  0.00    -0.388 OA
HETATM   34  H   UNK     0       8.685  -6.226  27.579  0.00  0.00     0.210 HD
ENDBRANCH   3  33
BRANCH   4  35
HETATM   35  O   UNK     0      12.853  -7.787  25.561  0.00  0.00    -0.390 OA
HETATM   36  H   UNK     0      13.086  -7.289  26.363  0.00  0.00     0.210 HD
ENDBRANCH   4  35
BRANCH   2  37
HETATM   37  O   UNK     0      10.296  -8.088  26.910  0.00  0.00    -0.390 OA
HETATM   38  H   UNK     0       9.326  -8.067  26.947  0.00  0.00     0.210 HD
ENDBRANCH   2  37
TORSDOF 10
ENDMDL
MODEL 4
REMARK VINA RESULT:      -8.0      6.089     12.314
REMARK  10 active torsions:
REMARK  status: ('A' for Active; 'I' for Inactive)
REMARK    1  A    between atoms: O_2  and  C_15 
REMARK    2  A    between atoms: O_2  and  C_18 
REMARK    3  A    between atoms: O_3  and  C_12 
REMARK    4  A    between atoms: O_4  and  C_13 
REMARK    5  A    between atoms: O_5  and  C_14 
REMARK    6  A    between atoms: O_6  and  C_17 
REMARK    7  A    between atoms: O_9  and  C_20 
REMARK    8  A    between atoms: O_10  and  C_23 
REMARK    9  A    between atoms: C_16  and  C_17 
REMARK   10  A    between atoms: C_25  and  C_27 
ROOT
HETATM    1  O   UNK     0      11.754   3.043  18.707  0.00  0.00    -0.340 OA
HETATM    2  C   UNK     0      13.000   1.034  20.341  0.00  0.00     0.183 C 
HETATM    3  C   UNK     0      13.096   2.526  20.661  0.00  0.00     0.205 C 
HETATM    4  C   UNK     0      11.792   0.730  19.455  0.00  0.00     0.189 C 
HETATM    5  C   UNK     0      12.957   3.374  19.396  0.00  0.00     0.299 C 
HETATM    6  C   UNK     0      11.735   1.688  18.271  0.00  0.00     0.253 C 
ENDROOT
BRANCH   5   7
HETATM    7  O   UNK     0      12.926   4.747  19.787  0.00  0.00    -0.315 OA
BRANCH   7   8
HETATM    8  C   UNK     0      13.894   5.553  19.264  0.00  0.00     0.110 A 
HETATM    9  C   UNK     0      14.167   5.494  17.897  0.00  0.00     0.078 A 
HETATM   10  C   UNK     0      15.156   6.315  17.351  0.00  0.00     0.096 A 
HETATM   11  O   UNK     0      15.380   6.213  16.002  0.00  0.00    -0.309 OA
HETATM   12  C   UNK     0      15.866   7.188  18.173  0.00  0.00     0.084 A 
HETATM   13  C   UNK     0      16.351   7.021  15.431  0.00  0.00     0.090 A 
HETATM   14  C   UNK     0      17.104   7.896  16.115  0.00  0.00     0.094 A 
HETATM   15  C   UNK     0      16.904   8.040  17.571  0.00  0.00     0.190 A 
HETATM   16  O   UNK     0      17.568   8.828  18.232  0.00  0.00    -0.287 OA
HETATM   17  C   UNK     0      15.596   7.250  19.542  0.00  0.00     0.118 A 
HETATM   18  C   UNK     0      14.608   6.428  20.084  0.00  0.00     0.134 A 
BRANCH  13  19
HETATM   19  C   UNK     0      16.513   6.828  13.975  0.00  0.00    -0.002 A 
HETATM   20  C   UNK     0      17.785   6.874  13.399  0.00  0.00     0.014 A 
HETATM   21  C   UNK     0      17.937   6.690  12.024  0.00  0.00     0.001 A 
HETATM   22  C   UNK     0      16.820   6.458  11.223  0.00  0.00     0.000 A 
HETATM   23  C   UNK     0      15.549   6.411  11.795  0.00  0.00     0.001 A 
HETATM   24  C   UNK     0      15.396   6.595  13.170  0.00  0.00     0.014 A 
ENDBRANCH  13  19
BRANCH  17  25
HETATM   25  O   UNK     0      16.271   8.092  20.374  0.00  0.00    -0.357 OA
HETATM   26  H   UNK     0      15.662   8.535  20.984  0.00  0.00     0.217 HD
ENDBRANCH  17  25
BRANCH  18  27
HETATM   27  O   UNK     0      14.334   6.479  21.420  0.00  0.00    -0.356 OA
HETATM   28  H   UNK     0      14.897   5.827  21.874  0.00  0.00     0.218 HD
ENDBRANCH  18  27
ENDBRANCH   7   8
ENDBRANCH   5   7
BRANCH   6  29
HETATM   29  C   UNK     0      10.429   1.576  17.554  0.00  0.00     0.172 C 
HETATM   30  O   UNK     0       9.663   0.627  17.635  0.00  0.00    -0.648 OA
BRANCH  29  31
HETATM   31  O   UNK     0      10.205   2.675  16.794  0.00  0.00    -0.774 OA
HETATM   32  H   UNK     0      10.637   2.608  15.916  0.00  0.00     0.167 HD
ENDBRANCH  29  31
ENDBRANCH   6  29
BRANCH   3  33
HETATM   33  O   UNK     0      14.368   2.804  21.248  0.00  0.00    -0.388 OA
HETATM   34  H   UNK     0      14.249   3.533  21.879  0.00  0.00     0.210 HD
ENDBRANCH   3  33
BRANCH   4  35
HETATM   35  O   UNK     0      11.899  -0.603  18.961  0.00  0.00    -0.390 OA
HETATM   36  H   UNK     0      11.313  -1.169  19.492  0.00  0.00     0.210 HD
ENDBRANCH   4  35
BRANCH   2  37
HETATM   37  O   UNK     0      12.857   0.295  21.554  0.00  0.00    -0.390 OA
HETATM   38  H   UNK     0      12.867  -0.650  21.327  0.00  0.00     0.210 HD
ENDBRANCH   2  37
TORSDOF 10
ENDMDL
MODEL 5
REMARK VINA RESULT:      -7.9      1.628      2.434
REMARK  10 active torsions:
REMARK  status: ('A' for Active; 'I' for Inactive)
REMARK    1  A    between atoms: O_2  and  C_15 
REMARK    2  A    between atoms: O_2  and  C_18 
REMARK    3  A    between atoms: O_3  and  C_12 
REMARK    4  A    between atoms: O_4  and  C_13 
REMARK    5  A    between atoms: O_5  and  C_14 
REMARK    6  A    between atoms: O_6  and  C_17 
REMARK    7  A    between atoms: O_9  and  C_20 
REMARK    8  A    between atoms: O_10  and  C_23 
REMARK    9  A    between atoms: C_16  and  C_17 
REMARK   10  A    between atoms: C_25  and  C_27 
ROOT
HETATM    1  O   UNK     0       9.884  -0.562  21.770  0.00  0.00    -0.340 OA
HETATM    2  C   UNK     0      10.851   2.019  20.958  0.00  0.00     0.183 C 
HETATM    3  C   UNK     0      10.877   1.556  22.415  0.00  0.00     0.205 C 
HETATM    4  C   UNK     0      10.789   0.833  19.996  0.00  0.00     0.189 C 
HETATM    5  C   UNK     0       9.782   0.525  22.687  0.00  0.00     0.299 C 
HETATM    6  C   UNK     0       9.703  -0.150  20.420  0.00  0.00     0.253 C 
ENDROOT
BRANCH   5   7
HETATM    7  O   UNK     0       9.949   0.046  24.022  0.00  0.00    -0.315 OA
BRANCH   7   8
HETATM    8  C   UNK     0       9.499  -1.216  24.279  0.00  0.00     0.110 A 
HETATM    9  C   UNK     0      10.203  -2.309  23.776  0.00  0.00     0.078 A 
HETATM   10  C   UNK     0       9.751  -3.604  24.034  0.00  0.00     0.096 A 
HETATM   11  O   UNK     0      10.485  -4.639  23.512  0.00  0.00    -0.309 OA
HETATM   12  C   UNK     0       8.599  -3.801  24.792  0.00  0.00     0.084 A 
HETATM   13  C   UNK     0      10.064  -5.937  23.758  0.00  0.00     0.090 A 
HETATM   14  C   UNK     0       8.970  -6.255  24.468  0.00  0.00     0.094 A 
HETATM   15  C   UNK     0       8.144  -5.176  25.047  0.00  0.00     0.190 A 
HETATM   16  O   UNK     0       7.140  -5.423  25.702  0.00  0.00    -0.287 OA
HETATM   17  C   UNK     0       7.891  -2.708  25.298  0.00  0.00     0.118 A 
HETATM   18  C   UNK     0       8.345  -1.415  25.039  0.00  0.00     0.134 A 
BRANCH  13  19
HETATM   19  C   UNK     0      10.922  -6.972  23.147  0.00  0.00    -0.002 A 
HETATM   20  C   UNK     0      10.643  -8.326  23.353  0.00  0.00     0.014 A 
HETATM   21  C   UNK     0      11.453  -9.304  22.775  0.00  0.00     0.001 A 
HETATM   22  C   UNK     0      12.544  -8.932  21.989  0.00  0.00     0.000 A 
HETATM   23  C   UNK     0      12.825  -7.581  21.782  0.00  0.00     0.001 A 
HETATM   24  C   UNK     0      12.015  -6.603  22.360  0.00  0.00     0.014 A 
ENDBRANCH  13  19
BRANCH  17  25
HETATM   25  O   UNK     0       6.760  -2.863  26.044  0.00  0.00    -0.357 OA
HETATM   26  H   UNK     0       6.758  -2.254  26.798  0.00  0.00     0.217 HD
ENDBRANCH  17  25
BRANCH  18  27
HETATM   27  O   UNK     0       7.661  -0.340  25.528  0.00  0.00    -0.356 OA
HETATM   28  H   UNK     0       6.813  -0.652  25.889  0.00  0.00     0.218 HD
ENDBRANCH  18  27
ENDBRANCH   7   8
ENDBRANCH   5   7
BRANCH   6  29
HETATM   29  C   UNK     0       9.809  -1.428  19.653  0.00  0.00     0.172 C 
HETATM   30  O   UNK     0      10.299  -2.463  20.079  0.00  0.00    -0.648 OA
BRANCH  29  31
HETATM   31  O   UNK     0       9.289  -1.285  18.410  0.00  0.00    -0.774 OA
HETATM   32  H   UNK     0       9.464  -0.394  18.039  0.00  0.00     0.167 HD
ENDBRANCH  29  31
ENDBRANCH   6  29
BRANCH   3  33
HETATM   33  O   UNK     0      10.659   2.677  23.272  0.00  0.00    -0.388 OA
HETATM   34  H   UNK     0       9.700   2.821  23.331  0.00  0.00     0.210 HD
ENDBRANCH   3  33
BRANCH   4  35
HETATM   35  O   UNK     0      10.489   1.309  18.686  0.00  0.00    -0.390 OA
HETATM   36  H   UNK     0       9.760   0.773  18.330  0.00  0.00     0.210 HD
ENDBRANCH   4  35
BRANCH   2  37
HETATM   37  O   UNK     0      12.040   2.758  20.672  0.00  0.00    -0.390 OA
HETATM   38  H   UNK     0      12.755   2.119  20.518  0.00  0.00     0.210 HD
ENDBRANCH   2  37
TORSDOF 10
ENDMDL
MODEL 6
REMARK VINA RESULT:      -7.7      2.707      4.537
REMARK  10 active torsions:
REMARK  status: ('A' for Active; 'I' for Inactive)
REMARK    1  A    between atoms: O_2  and  C_15 
REMARK    2  A    between atoms: O_2  and  C_18 
REMARK    3  A    between atoms: O_3  and  C_12 
REMARK    4  A    between atoms: O_4  and  C_13 
REMARK    5  A    between atoms: O_5  and  C_14 
REMARK    6  A    between atoms: O_6  and  C_17 
REMARK    7  A    between atoms: O_9  and  C_20 
REMARK    8  A    between atoms: O_10  and  C_23 
REMARK    9  A    between atoms: C_16  and  C_17 
REMARK   10  A    between atoms: C_25  and  C_27 
ROOT
HETATM    1  O   UNK     0       9.778  -0.036  24.784  0.00  0.00    -0.340 OA
HETATM    2  C   UNK     0      11.042   0.744  22.324  0.00  0.00     0.183 C 
HETATM    3  C   UNK     0      11.545  -0.428  23.168  0.00  0.00     0.205 C 
HETATM    4  C   UNK     0       9.576   1.058  22.623  0.00  0.00     0.189 C 
HETATM    5  C   UNK     0      11.181  -0.245  24.641  0.00  0.00     0.299 C 
HETATM    6  C   UNK     0       9.338   1.146  24.126  0.00  0.00     0.253 C 
ENDROOT
BRANCH   5   7
HETATM    7  O   UNK     0      11.565  -1.430  25.340  0.00  0.00    -0.315 OA
BRANCH   7   8
HETATM    8  C   UNK     0      10.770  -2.525  25.170  0.00  0.00     0.110 A 
HETATM    9  C   UNK     0      11.186  -3.546  24.316  0.00  0.00     0.078 A 
HETATM   10  C   UNK     0      10.379  -4.671  24.135  0.00  0.00     0.096 A 
HETATM   11  O   UNK     0      10.841  -5.642  23.283  0.00  0.00    -0.309 OA
HETATM   12  C   UNK     0       9.162  -4.770  24.806  0.00  0.00     0.084 A 
HETATM   13  C   UNK     0      10.064  -6.774  23.089  0.00  0.00     0.090 A 
HETATM   14  C   UNK     0       8.874  -6.983  23.673  0.00  0.00     0.094 A 
HETATM   15  C   UNK     0       8.331  -5.965  24.596  0.00  0.00     0.190 A 
HETATM   16  O   UNK     0       7.251  -6.117  25.150  0.00  0.00    -0.287 OA
HETATM   17  C   UNK     0       8.742  -3.749  25.662  0.00  0.00     0.118 A 
HETATM   18  C   UNK     0       9.550  -2.626  25.841  0.00  0.00     0.134 A 
BRANCH  13  19
HETATM   19  C   UNK     0      10.652  -7.752  22.151  0.00  0.00    -0.002 A 
HETATM   20  C   UNK     0      10.511  -7.572  20.772  0.00  0.00     0.014 A 
HETATM   21  C   UNK     0      11.067  -8.495  19.886  0.00  0.00     0.001 A 
HETATM   22  C   UNK     0      11.766  -9.599  20.374  0.00  0.00     0.000 A 
HETATM   23  C   UNK     0      11.908  -9.781  21.750  0.00  0.00     0.001 A 
HETATM   24  C   UNK     0      11.352  -8.858  22.636  0.00  0.00     0.014 A 
ENDBRANCH  13  19
BRANCH  17  25
HETATM   25  O   UNK     0       7.558  -3.812  26.335  0.00  0.00    -0.357 OA
HETATM   26  H   UNK     0       7.647  -3.437  27.225  0.00  0.00     0.217 HD
ENDBRANCH  17  25
BRANCH  18  27
HETATM   27  O   UNK     0       9.150  -1.622  26.675  0.00  0.00    -0.356 OA
HETATM   28  H   UNK     0       9.078  -1.981  27.576  0.00  0.00     0.218 HD
ENDBRANCH  18  27
ENDBRANCH   7   8
ENDBRANCH   5   7
BRANCH   6  29
HETATM   29  C   UNK     0       7.876   1.186  24.434  0.00  0.00     0.172 C 
HETATM   30  O   UNK     0       7.156   2.164  24.296  0.00  0.00    -0.648 OA
BRANCH  29  31
HETATM   31  O   UNK     0       7.451  -0.015  24.895  0.00  0.00    -0.774 OA
HETATM   32  H   UNK     0       7.999  -0.754  24.554  0.00  0.00     0.167 HD
ENDBRANCH  29  31
ENDBRANCH   6  29
BRANCH   3  33
HETATM   33  O   UNK     0      12.967  -0.510  23.065  0.00  0.00    -0.388 OA
HETATM   34  H   UNK     0      13.193  -0.535  22.120  0.00  0.00     0.210 HD
ENDBRANCH   3  33
BRANCH   4  35
HETATM   35  O   UNK     0       9.237   2.310  22.032  0.00  0.00    -0.390 OA
HETATM   36  H   UNK     0       9.648   2.349  21.151  0.00  0.00     0.210 HD
ENDBRANCH   4  35
BRANCH   2  37
HETATM   37  O   UNK     0      11.151   0.415  20.939  0.00  0.00    -0.390 OA
HETATM   38  H   UNK     0      12.004  -0.030  20.807  0.00  0.00     0.210 HD
ENDBRANCH   2  37
TORSDOF 10
ENDMDL
MODEL 7
REMARK VINA RESULT:      -7.7      3.048      5.302
REMARK  10 active torsions:
REMARK  status: ('A' for Active; 'I' for Inactive)
REMARK    1  A    between atoms: O_2  and  C_15 
REMARK    2  A    between atoms: O_2  and  C_18 
REMARK    3  A    between atoms: O_3  and  C_12 
REMARK    4  A    between atoms: O_4  and  C_13 
REMARK    5  A    between atoms: O_5  and  C_14 
REMARK    6  A    between atoms: O_6  and  C_17 
REMARK    7  A    between atoms: O_9  and  C_20 
REMARK    8  A    between atoms: O_10  and  C_23 
REMARK    9  A    between atoms: C_16  and  C_17 
REMARK   10  A    between atoms: C_25  and  C_27 
ROOT
HETATM    1  O   UNK     0      10.033  -0.502  24.354  0.00  0.00    -0.340 OA
HETATM    2  C   UNK     0       7.733   1.193  24.661  0.00  0.00     0.183 C 
HETATM    3  C   UNK     0       8.042   0.049  25.628  0.00  0.00     0.205 C 
HETATM    4  C   UNK     0       8.987   1.648  23.915  0.00  0.00     0.189 C 
HETATM    5  C   UNK     0       8.855  -1.049  24.942  0.00  0.00     0.299 C 
HETATM    6  C   UNK     0       9.738   0.453  23.340  0.00  0.00     0.253 C 
ENDROOT
BRANCH   5   7
HETATM    7  O   UNK     0       9.215  -2.014  25.932  0.00  0.00    -0.315 OA
BRANCH   7   8
HETATM    8  C   UNK     0       9.372  -3.299  25.504  0.00  0.00     0.110 A 
HETATM    9  C   UNK     0      10.644  -3.753  25.154  0.00  0.00     0.078 A 
HETATM   10  C   UNK     0      10.816  -5.066  24.715  0.00  0.00     0.096 A 
HETATM   11  O   UNK     0      12.089  -5.454  24.385  0.00  0.00    -0.309 OA
HETATM   12  C   UNK     0       9.718  -5.920  24.627  0.00  0.00     0.084 A 
HETATM   13  C   UNK     0      12.291  -6.756  23.952  0.00  0.00     0.090 A 
HETATM   14  C   UNK     0      11.316  -7.669  23.820  0.00  0.00     0.094 A 
HETATM   15  C   UNK     0       9.927  -7.299  24.159  0.00  0.00     0.190 A 
HETATM   16  O   UNK     0       9.009  -8.101  24.054  0.00  0.00    -0.287 OA
HETATM   17  C   UNK     0       8.442  -5.470  24.976  0.00  0.00     0.118 A 
HETATM   18  C   UNK     0       8.274  -4.156  25.415  0.00  0.00     0.134 A 
BRANCH  13  19
HETATM   19  C   UNK     0      13.697  -7.066  23.619  0.00  0.00    -0.002 A 
HETATM   20  C   UNK     0      14.728  -6.257  24.104  0.00  0.00     0.014 A 
HETATM   21  C   UNK     0      16.055  -6.551  23.790  0.00  0.00     0.001 A 
HETATM   22  C   UNK     0      16.356  -7.654  22.992  0.00  0.00     0.000 A 
HETATM   23  C   UNK     0      15.329  -8.464  22.507  0.00  0.00     0.001 A 
HETATM   24  C   UNK     0      14.002  -8.170  22.820  0.00  0.00     0.014 A 
ENDBRANCH  13  19
BRANCH  17  25
HETATM   25  O   UNK     0       7.346  -6.276  24.903  0.00  0.00    -0.357 OA
HETATM   26  H   UNK     0       7.086  -6.421  23.980  0.00  0.00     0.217 HD
ENDBRANCH  17  25
BRANCH  18  27
HETATM   27  O   UNK     0       7.033  -3.705  25.759  0.00  0.00    -0.356 OA
HETATM   28  H   UNK     0       6.369  -4.292  25.356  0.00  0.00     0.218 HD
ENDBRANCH  18  27
ENDBRANCH   7   8
ENDBRANCH   5   7
BRANCH   6  29
HETATM   29  C   UNK     0      11.088   0.856  22.846  0.00  0.00     0.172 C 
HETATM   30  O   UNK     0      11.530   1.996  22.862  0.00  0.00    -0.648 OA
BRANCH  29  31
HETATM   31  O   UNK     0      11.764  -0.217  22.369  0.00  0.00    -0.774 OA
HETATM   32  H   UNK     0      11.797  -0.949  23.022  0.00  0.00     0.167 HD
ENDBRANCH  29  31
ENDBRANCH   6  29
BRANCH   3  33
HETATM   33  O   UNK     0       6.819  -0.523  26.092  0.00  0.00    -0.388 OA
HETATM   34  H   UNK     0       6.143  -0.363  25.413  0.00  0.00     0.210 HD
ENDBRANCH   3  33
BRANCH   4  35
HETATM   35  O   UNK     0       8.606   2.508  22.843  0.00  0.00    -0.390 OA
HETATM   36  H   UNK     0       8.761   2.035  22.008  0.00  0.00     0.210 HD
ENDBRANCH   4  35
BRANCH   2  37
HETATM   37  O   UNK     0       7.223   2.309  25.392  0.00  0.00    -0.390 OA
HETATM   38  H   UNK     0       7.712   2.362  26.229  0.00  0.00     0.210 HD
ENDBRANCH   2  37
TORSDOF 10
ENDMDL
MODEL 8
REMARK VINA RESULT:      -7.6      1.875      3.245
REMARK  10 active torsions:
REMARK  status: ('A' for Active; 'I' for Inactive)
REMARK    1  A    between atoms: O_2  and  C_15 
REMARK    2  A    between atoms: O_2  and  C_18 
REMARK    3  A    between atoms: O_3  and  C_12 
REMARK    4  A    between atoms: O_4  and  C_13 
REMARK    5  A    between atoms: O_5  and  C_14 
REMARK    6  A    between atoms: O_6  and  C_17 
REMARK    7  A    between atoms: O_9  and  C_20 
REMARK    8  A    between atoms: O_10  and  C_23 
REMARK    9  A    between atoms: C_16  and  C_17 
REMARK   10  A    between atoms: C_25  and  C_27 
ROOT
HETATM    1  O   UNK     0      12.214   1.542  22.645  0.00  0.00    -0.340 OA
HETATM    2  C   UNK     0      11.542   1.542  19.851  0.00  0.00     0.183 C 
HETATM    3  C   UNK     0      10.478   1.529  20.949  0.00  0.00     0.205 C 
HETATM    4  C   UNK     0      12.872   2.087  20.370  0.00  0.00     0.189 C 
HETATM    5  C   UNK     0      11.014   0.892  22.232  0.00  0.00     0.299 C 
HETATM    6  C   UNK     0      13.256   1.417  21.684  0.00  0.00     0.253 C 
ENDROOT
BRANCH   5   7
HETATM    7  O   UNK     0      10.017   1.032  23.244  0.00  0.00    -0.315 OA
BRANCH   7   8
HETATM    8  C   UNK     0       9.510  -0.122  23.766  0.00  0.00     0.110 A 
HETATM    9  C   UNK     0      10.056  -1.346  23.378  0.00  0.00     0.078 A 
HETATM   10  C   UNK     0       9.546  -2.533  23.906  0.00  0.00     0.096 A 
HETATM   11  O   UNK     0      10.123  -3.704  23.487  0.00  0.00    -0.309 OA
HETATM   12  C   UNK     0       8.492  -2.491  24.818  0.00  0.00     0.084 A 
HETATM   13  C   UNK     0       9.641  -4.898  24.000  0.00  0.00     0.090 A 
HETATM   14  C   UNK     0       8.629  -4.990  24.878  0.00  0.00     0.094 A 
HETATM   15  C   UNK     0       7.972  -3.757  25.357  0.00  0.00     0.190 A 
HETATM   16  O   UNK     0       7.048  -3.797  26.159  0.00  0.00    -0.287 OA
HETATM   17  C   UNK     0       7.943  -1.268  25.209  0.00  0.00     0.118 A 
HETATM   18  C   UNK     0       8.455  -0.084  24.679  0.00  0.00     0.134 A 
BRANCH  13  19
HETATM   19  C   UNK     0      10.329  -6.097  23.479  0.00  0.00    -0.002 A 
HETATM   20  C   UNK     0      11.412  -5.960  22.607  0.00  0.00     0.014 A 
HETATM   21  C   UNK     0      12.063  -7.092  22.116  0.00  0.00     0.001 A 
HETATM   22  C   UNK     0      11.634  -8.364  22.496  0.00  0.00     0.000 A 
HETATM   23  C   UNK     0      10.553  -8.504  23.366  0.00  0.00     0.001 A 
HETATM   24  C   UNK     0       9.902  -7.372  23.857  0.00  0.00     0.014 A 
ENDBRANCH  13  19
BRANCH  17  25
HETATM   25  O   UNK     0       6.913  -1.190  26.098  0.00  0.00    -0.357 OA
HETATM   26  H   UNK     0       6.436  -2.033  26.149  0.00  0.00     0.217 HD
ENDBRANCH  17  25
BRANCH  18  27
HETATM   27  O   UNK     0       7.926   1.117  25.053  0.00  0.00    -0.356 OA
HETATM   28  H   UNK     0       7.489   1.515  24.280  0.00  0.00     0.218 HD
ENDBRANCH  18  27
ENDBRANCH   7   8
ENDBRANCH   5   7
BRANCH   6  29
HETATM   29  C   UNK     0      14.404   2.123  22.329  0.00  0.00     0.172 C 
HETATM   30  O   UNK     0      14.303   3.027  23.145  0.00  0.00    -0.648 OA
BRANCH  29  31
HETATM   31  O   UNK     0      15.583   1.625  21.883  0.00  0.00    -0.774 OA
HETATM   32  H   UNK     0      16.239   1.530  22.607  0.00  0.00     0.167 HD
ENDBRANCH  29  31
ENDBRANCH   6  29
BRANCH   3  33
HETATM   33  O   UNK     0       9.352   0.769  20.509  0.00  0.00    -0.388 OA
HETATM   34  H   UNK     0       9.549  -0.169  20.669  0.00  0.00     0.210 HD
ENDBRANCH   3  33
BRANCH   4  35
HETATM   35  O   UNK     0      13.891   1.824  19.408  0.00  0.00    -0.390 OA
HETATM   36  H   UNK     0      13.482   1.831  18.525  0.00  0.00     0.210 HD
ENDBRANCH   4  35
BRANCH   2  37
HETATM   37  O   UNK     0      11.109   2.379  18.778  0.00  0.00    -0.390 OA
HETATM   38  H   UNK     0      10.631   3.131  19.165  0.00  0.00     0.210 HD
ENDBRANCH   2  37
TORSDOF 10
ENDMDL
MODEL 9
REMARK VINA RESULT:      -7.5      3.223      5.889
REMARK  10 active torsions:
REMARK  status: ('A' for Active; 'I' for Inactive)
REMARK    1  A    between atoms: O_2  and  C_15 
REMARK    2  A    between atoms: O_2  and  C_18 
REMARK    3  A    between atoms: O_3  and  C_12 
REMARK    4  A    between atoms: O_4  and  C_13 
REMARK    5  A    between atoms: O_5  and  C_14 
REMARK    6  A    between atoms: O_6  and  C_17 
REMARK    7  A    between atoms: O_9  and  C_20 
REMARK    8  A    between atoms: O_10  and  C_23 
REMARK    9  A    between atoms: C_16  and  C_17 
REMARK   10  A    between atoms: C_25  and  C_27 
ROOT
HETATM    1  O   UNK     0      10.009  -0.892  24.194  0.00  0.00    -0.340 OA
HETATM    2  C   UNK     0       7.332  -0.948  25.238  0.00  0.00     0.183 C 
HETATM    3  C   UNK     0       8.398  -1.959  25.662  0.00  0.00     0.205 C 
HETATM    4  C   UNK     0       7.964   0.328  24.681  0.00  0.00     0.189 C 
HETATM    5  C   UNK     0       9.447  -2.149  24.567  0.00  0.00     0.299 C 
HETATM    6  C   UNK     0       9.037  -0.005  23.651  0.00  0.00     0.253 C 
ENDROOT
BRANCH   5   7
HETATM    7  O   UNK     0      10.472  -3.001  25.081  0.00  0.00    -0.315 OA
BRANCH   7   8
HETATM    8  C   UNK     0      10.592  -4.229  24.501  0.00  0.00     0.110 A 
HETATM    9  C   UNK     0      10.477  -5.373  25.292  0.00  0.00     0.078 A 
HETATM   10  C   UNK     0      10.599  -6.635  24.708  0.00  0.00     0.096 A 
HETATM   11  O   UNK     0      10.477  -7.721  25.536  0.00  0.00    -0.309 OA
HETATM   12  C   UNK     0      10.835  -6.749  23.339  0.00  0.00     0.084 A 
HETATM   13  C   UNK     0      10.586  -8.988  24.983  0.00  0.00     0.090 A 
HETATM   14  C   UNK     0      10.818  -9.228  23.683  0.00  0.00     0.094 A 
HETATM   15  C   UNK     0      10.960  -8.091  22.751  0.00  0.00     0.190 A 
HETATM   16  O   UNK     0      11.170  -8.266  21.558  0.00  0.00    -0.287 OA
HETATM   17  C   UNK     0      10.950  -5.606  22.544  0.00  0.00     0.118 A 
HETATM   18  C   UNK     0      10.828  -4.346  23.130  0.00  0.00     0.134 A 
BRANCH  13  19
HETATM   19  C   UNK     0      10.444 -10.085  25.962  0.00  0.00    -0.002 A 
HETATM   20  C   UNK     0      10.232 -11.395  25.523  0.00  0.00     0.014 A 
HETATM   21  C   UNK     0      10.099 -12.430  26.448  0.00  0.00     0.001 A 
HETATM   22  C   UNK     0      10.179 -12.161  27.814  0.00  0.00     0.000 A 
HETATM   23  C   UNK     0      10.390 -10.854  28.256  0.00  0.00     0.001 A 
HETATM   24  C   UNK     0      10.523  -9.819  27.331  0.00  0.00     0.014 A 
ENDBRANCH  13  19
BRANCH  17  25
HETATM   25  O   UNK     0      11.180  -5.679  21.203  0.00  0.00    -0.357 OA
HETATM   26  H   UNK     0      12.132  -5.704  21.017  0.00  0.00     0.217 HD
ENDBRANCH  17  25
BRANCH  18  27
HETATM   27  O   UNK     0      10.940  -3.222  22.364  0.00  0.00    -0.356 OA
HETATM   28  H   UNK     0      10.492  -2.491  22.823  0.00  0.00     0.218 HD
ENDBRANCH  18  27
ENDBRANCH   7   8
ENDBRANCH   5   7
BRANCH   6  29
HETATM   29  C   UNK     0       9.837   1.207  23.300  0.00  0.00     0.172 C 
HETATM   30  O   UNK     0      10.974   1.434  23.687  0.00  0.00    -0.648 OA
BRANCH  29  31
HETATM   31  O   UNK     0       9.127   2.031  22.492  0.00  0.00    -0.774 OA
HETATM   32  H   UNK     0       8.774   1.561  21.707  0.00  0.00     0.167 HD
ENDBRANCH  29  31
ENDBRANCH   6  29
BRANCH   3  33
HETATM   33  O   UNK     0       7.780  -3.221  25.914  0.00  0.00    -0.388 OA
HETATM   34  H   UNK     0       8.405  -3.758  26.428  0.00  0.00     0.210 HD
ENDBRANCH   3  33
BRANCH   4  35
HETATM   35  O   UNK     0       6.953   1.112  24.051  0.00  0.00    -0.390 OA
HETATM   36  H   UNK     0       7.102   2.044  24.290  0.00  0.00     0.210 HD
ENDBRANCH   4  35
BRANCH   2  37
HETATM   37  O   UNK     0       6.537  -0.590  26.370  0.00  0.00    -0.390 OA
HETATM   38  H   UNK     0       5.764  -1.178  26.384  0.00  0.00     0.210 HD
ENDBRANCH   2  37
TORSDOF 10
ENDMDL
MODEL 10
REMARK VINA RESULT:      -7.5      5.452     10.319
REMARK  10 active torsions:
REMARK  status: ('A' for Active; 'I' for Inactive)
REMARK    1  A    between atoms: O_2  and  C_15 
REMARK    2  A    between atoms: O_2  and  C_18 
REMARK    3  A    between atoms: O_3  and  C_12 
REMARK    4  A    between atoms: O_4  and  C_13 
REMARK    5  A    between atoms: O_5  and  C_14 
REMARK    6  A    between atoms: O_6  and  C_17 
REMARK    7  A    between atoms: O_9  and  C_20 
REMARK    8  A    between atoms: O_10  and  C_23 
REMARK    9  A    between atoms: C_16  and  C_17 
REMARK   10  A    between atoms: C_25  and  C_27 
ROOT
HETATM    1  O   UNK     0      11.215   2.415  18.647  0.00  0.00    -0.340 OA
HETATM    2  C   UNK     0      11.079   0.452  20.741  0.00  0.00     0.183 C 
HETATM    3  C   UNK     0      11.625   1.861  20.974  0.00  0.00     0.205 C 
HETATM    4  C   UNK     0      10.165   0.402  19.517  0.00  0.00     0.189 C 
HETATM    5  C   UNK     0      12.192   2.454  19.684  0.00  0.00     0.299 C 
HETATM    6  C   UNK     0      10.822   1.085  18.324  0.00  0.00     0.253 C 
ENDROOT
BRANCH   5   7
HETATM    7  O   UNK     0      12.561   3.809  19.947  0.00  0.00    -0.315 OA
BRANCH   7   8
HETATM    8  C   UNK     0      13.667   4.277  19.300  0.00  0.00     0.110 A 
HETATM    9  C   UNK     0      14.827   3.502  19.282  0.00  0.00     0.078 A 
HETATM   10  C   UNK     0      15.964   3.972  18.623  0.00  0.00     0.096 A 
HETATM   11  O   UNK     0      17.074   3.167  18.639  0.00  0.00    -0.309 OA
HETATM   12  C   UNK     0      15.938   5.212  17.987  0.00  0.00     0.084 A 
HETATM   13  C   UNK     0      18.217   3.604  17.986  0.00  0.00     0.090 A 
HETATM   14  C   UNK     0      18.318   4.778  17.345  0.00  0.00     0.094 A 
HETATM   15  C   UNK     0      17.151   5.683  17.302  0.00  0.00     0.190 A 
HETATM   16  O   UNK     0      17.201   6.762  16.726  0.00  0.00    -0.287 OA
HETATM   17  C   UNK     0      14.778   5.990  18.003  0.00  0.00     0.118 A 
HETATM   18  C   UNK     0      13.643   5.518  18.663  0.00  0.00     0.134 A 
BRANCH  13  19
HETATM   19  C   UNK     0      19.353   2.663  18.070  0.00  0.00    -0.002 A 
HETATM   20  C   UNK     0      20.355   2.686  17.097  0.00  0.00     0.014 A 
HETATM   21  C   UNK     0      21.429   1.798  17.176  0.00  0.00     0.001 A 
HETATM   22  C   UNK     0      21.504   0.886  18.229  0.00  0.00     0.000 A 
HETATM   23  C   UNK     0      20.504   0.861  19.202  0.00  0.00     0.001 A 
HETATM   24  C   UNK     0      19.431   1.748  19.122  0.00  0.00     0.014 A 
ENDBRANCH  13  19
BRANCH  17  25
HETATM   25  O   UNK     0      14.716   7.207  17.392  0.00  0.00    -0.357 OA
HETATM   26  H   UNK     0      15.477   7.755  17.638  0.00  0.00     0.217 HD
ENDBRANCH  17  25
BRANCH  18  27
HETATM   27  O   UNK     0      12.504   6.270  18.686  0.00  0.00    -0.356 OA
HETATM   28  H   UNK     0      12.730   7.161  19.005  0.00  0.00     0.218 HD
ENDBRANCH  18  27
ENDBRANCH   7   8
ENDBRANCH   5   7
BRANCH   6  29
HETATM   29  C   UNK     0       9.844   1.277  17.211  0.00  0.00     0.172 C 
HETATM   30  O   UNK     0       9.016   0.452  16.855  0.00  0.00    -0.648 OA
BRANCH  29  31
HETATM   31  O   UNK     0      10.000   2.497  16.641  0.00  0.00    -0.774 OA
HETATM   32  H   UNK     0       9.233   3.083  16.814  0.00  0.00     0.167 HD
ENDBRANCH  29  31
ENDBRANCH   6  29
BRANCH   3  33
HETATM   33  O   UNK     0      12.673   1.810  21.942  0.00  0.00    -0.388 OA
HETATM   34  H   UNK     0      12.684   0.914  22.317  0.00  0.00     0.210 HD
ENDBRANCH   3  33
BRANCH   4  35
HETATM   35  O   UNK     0       9.909  -0.960  19.181  0.00  0.00    -0.390 OA
HETATM   36  H   UNK     0       9.012  -1.015  18.809  0.00  0.00     0.210 HD
ENDBRANCH   4  35
BRANCH   2  37
HETATM   37  O   UNK     0      10.318   0.042  21.879  0.00  0.00    -0.390 OA
HETATM   38  H   UNK     0      10.432  -0.918  21.979  0.00  0.00     0.210 HD
ENDBRANCH   2  37
TORSDOF 10
ENDMDL
