MODEL 1
REMARK VINA RESULT:      -7.2      0.000      0.000
REMARK  20 active torsions:
REMARK  status: ('A' for Active; 'I' for Inactive)
REMARK    1  A    between atoms: C_3  and  C_7 
REMARK    2  A    between atoms: C_7  and  C_8 
REMARK    3  A    between atoms: C_8  and  N_9 
REMARK    4  A    between atoms: C_8  and  C_10 
REMARK    5  A    between atoms: C_10  and  O_11 
REMARK    6  A    between atoms: C_10  and  C_12 
REMARK    7  A    between atoms: C_12  and  C_13 
REMARK    8  A    between atoms: C_13  and  C_14 
REMARK    9  A    between atoms: C_13  and  N_21 
REMARK   10  A    between atoms: C_14  and  C_15 
REMARK   11  A    between atoms: N_21  and  P_22 
REMARK   12  A    between atoms: P_22  and  O_23 
REMARK   13  A    between atoms: P_22  and  O_24 
REMARK   14  A    between atoms: O_23  and  C_26 
REMARK   15  A    between atoms: O_24  and  C_27 
REMARK   16  A    between atoms: C_26  and  C_33 
REMARK   17  A    between atoms: C_35  and  C_40 
REMARK   18  A    between atoms: C_36  and  O_39 
REMARK   19  A    between atoms: C_37  and  O_38 
REMARK   20  A    between atoms: C_50  and  N_51 
ROOT
HETATM    1  C   MOL     1      16.121  -6.623  28.515  1.00 -0.25     0.001 A 
HETATM    2  C   MOL     1      15.204  -7.641  28.643  1.00 -0.30     0.007 A 
HETATM    3  C   MOL     1      14.200  -7.560  29.583  1.00 -0.25    -0.056 A 
HETATM    4  C   MOL     1      14.122  -6.450  30.397  1.00 -0.33     0.007 A 
HETATM    5  C   MOL     1      15.040  -5.432  30.272  1.00 -0.34     0.001 A 
HETATM    6  C   MOL     1      16.039  -5.519  29.331  1.00 -0.27     0.000 A 
ENDROOT
BRANCH   3   7
HETATM    7  C   MOL     1      13.184  -8.686  29.721  1.00 -0.43     0.074 C 
BRANCH   7   8
HETATM    8  C   MOL     1      11.726  -8.295  29.393  1.00 -0.43     0.216 C 
BRANCH   8   9
HETATM    9  N   MOL     1      10.805  -9.382  29.878  1.00  0.05    -0.072 N 
HETATM   10  H   MOL     1      11.159 -10.209  29.747  1.00 -0.64     0.274 HD
HETATM   11  H   MOL     1      10.635  -9.305  30.769  1.00 -0.76     0.274 HD
HETATM   12  H   MOL     1       9.998  -9.363  29.463  1.00 -0.15     0.274 HD
ENDBRANCH   8   9
BRANCH   8  13
HETATM   13  C   MOL     1      11.570  -8.063  27.872  1.00 -0.29     0.150 C 
BRANCH  13  14
HETATM   14  O   MOL     1      10.541  -7.088  27.626  1.00  0.06    -0.393 OA
HETATM   15  H   MOL     1      10.069  -6.833  28.477  1.00 -0.27     0.210 HD
ENDBRANCH  13  14
BRANCH  13  16
HETATM   16  C   MOL     1      11.212  -9.374  27.139  1.00 -0.14     0.054 C 
BRANCH  16  17
HETATM   17  C   MOL     1      11.481  -9.271  25.621  1.00 -0.12     0.073 C 
BRANCH  17  18
HETATM   18  C   MOL     1      11.930 -10.649  25.084  1.00 -0.13     0.058 C 
BRANCH  18  19
HETATM   19  C   MOL     1      12.378 -10.672  23.631  1.00 -0.16    -0.057 A 
HETATM   20  C   MOL     1      11.822 -11.571  22.747  1.00 -0.21     0.007 A 
HETATM   21  C   MOL     1      12.228 -11.596  21.431  1.00 -0.25     0.001 A 
HETATM   22  C   MOL     1      13.196 -10.722  20.994  1.00 -0.37     0.000 A 
HETATM   23  C   MOL     1      13.756  -9.821  21.873  1.00 -0.40     0.001 A 
HETATM   24  C   MOL     1      13.346  -9.798  23.187  1.00 -0.21     0.007 A 
ENDBRANCH  18  19
ENDBRANCH  17  18
BRANCH  17  25
HETATM   25  N   MOL     1      10.255  -8.851  24.929  1.00  0.15    -0.221 NA
HETATM   26  H   MOL     1       9.439  -8.991  25.538  1.00  0.32     0.134 HD
BRANCH  25  27
HETATM   27  P   MOL     1      10.297  -7.437  24.408  1.00  0.09     0.413 P 
HETATM   28  O   MOL     1      11.704  -6.902  24.380  1.00  0.07    -0.239 OA
BRANCH  27  29
HETATM   29  O   MOL     1       9.353  -6.466  25.276  1.00  0.12    -0.299 OA
BRANCH  29  30
HETATM   30  C   MOL     1       8.507  -5.530  24.594  1.00 -0.20     0.214 C 
BRANCH  30  31
HETATM   31  C   MOL     1       8.491  -4.194  25.354  1.00 -0.04     0.180 C 
HETATM   32  O   MOL     1       7.961  -3.133  24.540  1.00  0.26    -0.347 OA
HETATM   33  C   MOL     1       8.615  -1.889  24.854  1.00 -0.04     0.222 C 
HETATM   34  C   MOL     1       9.676  -2.221  25.930  1.00 -0.10     0.205 C 
HETATM   35  C   MOL     1       7.612  -0.965  25.399  1.00 -0.21     0.107 C 
HETATM   36  C   MOL     1       9.890  -3.733  25.788  1.00 -0.06     0.182 C 
HETATM   37  N   MOL     1       6.835  -0.250  25.822  1.00  0.07    -0.193 NA
BRANCH  33  38
HETATM   38  C   MOL     1       9.153  -1.373  23.524  1.00 -0.19     0.088 A 
HETATM   39  N   MOL     1       9.448  -0.062  23.351  1.00 -0.03    -0.229 N 
HETATM   40  C   MOL     1       9.891   0.039  22.070  1.00 -0.22     0.104 A 
HETATM   41  N   MOL     1       9.374   1.035  24.160  1.00  0.23    -0.160 NA
HETATM   42  C   MOL     1       9.877  -1.168  21.448  1.00 -0.37     0.038 A 
HETATM   43  C   MOL     1      10.279   1.323  21.607  1.00 -0.44     0.151 A 
HETATM   44  C   MOL     1       9.396  -2.076  22.396  1.00 -0.17     0.034 A 
HETATM   45  N   MOL     1      10.213   2.409  22.388  1.00 -0.19    -0.221 NA
HETATM   46  C   MOL     1       9.747   2.189  23.660  1.00 -0.33     0.258 A 
BRANCH  43  47
HETATM   47  N   MOL     1      10.742   1.501  20.324  1.00 -0.25    -0.382 N 
HETATM   48  H   MOL     1      10.607   2.267  19.913  1.00 -0.27     0.157 HD
HETATM   49  H   MOL     1      11.173   0.853  19.912  1.00 -0.19     0.157 HD
ENDBRANCH  43  47
ENDBRANCH  33  38
BRANCH  34  50
HETATM   50  O   MOL     1      10.901  -1.490  25.769  1.00  0.41    -0.388 OA
HETATM   51  H   MOL     1      11.148  -1.398  24.798  1.00 -0.42     0.210 HD
ENDBRANCH  34  50
BRANCH  36  52
HETATM   52  O   MOL     1      10.875  -3.988  24.774  1.00  0.07    -0.390 OA
HETATM   53  H   MOL     1      10.731  -3.401  23.969  1.00 -0.09     0.210 HD
ENDBRANCH  36  52
ENDBRANCH  30  31
ENDBRANCH  29  30
ENDBRANCH  27  29
BRANCH  27  54
HETATM   54  O   MOL     1       9.636  -7.365  22.938  1.00  0.13    -0.260 OA
BRANCH  54  55
HETATM   55  C   MOL     1      10.360  -7.027  21.829  1.00 -0.29     0.080 A 
HETATM   56  C   MOL     1      10.806  -5.736  21.614  1.00 -0.28     0.037 A 
HETATM   57  C   MOL     1      11.535  -5.430  20.490  1.00 -0.40     0.003 A 
HETATM   58  C   MOL     1      11.828  -6.411  19.570  1.00 -0.35     0.000 A 
HETATM   59  C   MOL     1      11.388  -7.698  19.776  1.00 -0.47     0.003 A 
HETATM   60  C   MOL     1      10.656  -8.004  20.898  1.00 -0.37     0.037 A 
ENDBRANCH  54  55
ENDBRANCH  27  54
ENDBRANCH  25  27
ENDBRANCH  17  25
ENDBRANCH  16  17
ENDBRANCH  13  16
ENDBRANCH   8  13
ENDBRANCH   7   8
ENDBRANCH   3   7
TORSDOF 20
ENDMDL
MODEL 2
REMARK VINA RESULT:      -7.1      4.461      9.817
REMARK  20 active torsions:
REMARK  status: ('A' for Active; 'I' for Inactive)
REMARK    1  A    between atoms: C_3  and  C_7 
REMARK    2  A    between atoms: C_7  and  C_8 
REMARK    3  A    between atoms: C_8  and  N_9 
REMARK    4  A    between atoms: C_8  and  C_10 
REMARK    5  A    between atoms: C_10  and  O_11 
REMARK    6  A    between atoms: C_10  and  C_12 
REMARK    7  A    between atoms: C_12  and  C_13 
REMARK    8  A    between atoms: C_13  and  C_14 
REMARK    9  A    between atoms: C_13  and  N_21 
REMARK   10  A    between atoms: C_14  and  C_15 
REMARK   11  A    between atoms: N_21  and  P_22 
REMARK   12  A    between atoms: P_22  and  O_23 
REMARK   13  A    between atoms: P_22  and  O_24 
REMARK   14  A    between atoms: O_23  and  C_26 
REMARK   15  A    between atoms: O_24  and  C_27 
REMARK   16  A    between atoms: C_26  and  C_33 
REMARK   17  A    between atoms: C_35  and  C_40 
REMARK   18  A    between atoms: C_36  and  O_39 
REMARK   19  A    between atoms: C_37  and  O_38 
REMARK   20  A    between atoms: C_50  and  N_51 
ROOT
HETATM    1  C   MOL     1      16.117   3.103  26.869  1.00 -0.25     0.001 A 
HETATM    2  C   MOL     1      15.742   2.003  26.130  1.00 -0.30     0.007 A 
HETATM    3  C   MOL     1      16.389   1.703  24.951  1.00 -0.25    -0.056 A 
HETATM    4  C   MOL     1      17.416   2.514  24.517  1.00 -0.33     0.007 A 
HETATM    5  C   MOL     1      17.791   3.615  25.253  1.00 -0.34     0.001 A 
HETATM    6  C   MOL     1      17.141   3.909  26.430  1.00 -0.27     0.000 A 
ENDROOT
BRANCH   3   7
HETATM    7  C   MOL     1      15.976   0.485  24.138  1.00 -0.43     0.074 C 
BRANCH   7   8
HETATM    8  C   MOL     1      14.535   0.529  23.580  1.00 -0.43     0.216 C 
BRANCH   8   9
HETATM    9  N   MOL     1      14.185  -0.822  23.017  1.00  0.05    -0.072 N 
HETATM   10  H   MOL     1      14.910  -1.238  22.660  1.00 -0.64     0.274 HD
HETATM   11  H   MOL     1      13.850  -1.376  23.658  1.00 -0.76     0.274 HD
HETATM   12  H   MOL     1      13.553  -0.773  22.367  1.00 -0.15     0.274 HD
ENDBRANCH   8   9
BRANCH   8  13
HETATM   13  C   MOL     1      14.419   1.634  22.504  1.00 -0.29     0.150 C 
BRANCH  13  14
HETATM   14  O   MOL     1      13.307   2.496  22.803  1.00  0.06    -0.393 OA
HETATM   15  H   MOL     1      13.585   3.257  23.398  1.00 -0.27     0.210 HD
ENDBRANCH  13  14
BRANCH  13  16
HETATM   16  C   MOL     1      14.227   1.027  21.097  1.00 -0.14     0.054 C 
BRANCH  16  17
HETATM   17  C   MOL     1      12.772   1.185  20.601  1.00 -0.12     0.073 C 
BRANCH  17  18
HETATM   18  C   MOL     1      12.775   1.840  19.201  1.00 -0.13     0.058 C 
BRANCH  18  19
HETATM   19  C   MOL     1      12.690   3.359  19.187  1.00 -0.16    -0.057 A 
HETATM   20  C   MOL     1      13.834   4.120  19.290  1.00 -0.21     0.007 A 
HETATM   21  C   MOL     1      13.758   5.495  19.281  1.00 -0.25     0.001 A 
HETATM   22  C   MOL     1      12.536   6.115  19.169  1.00 -0.37     0.000 A 
HETATM   23  C   MOL     1      11.389   5.360  19.065  1.00 -0.40     0.001 A 
HETATM   24  C   MOL     1      11.468   3.985  19.074  1.00 -0.21     0.007 A 
ENDBRANCH  18  19
ENDBRANCH  17  18
BRANCH  17  25
HETATM   25  N   MOL     1      12.131  -0.134  20.523  1.00  0.15    -0.221 NA
HETATM   26  H   MOL     1      12.822  -0.875  20.698  1.00  0.32     0.134 HD
BRANCH  25  27
HETATM   27  P   MOL     1      10.938  -0.293  21.431  1.00  0.09     0.413 P 
HETATM   28  O   MOL     1      10.801   0.878  22.369  1.00  0.07    -0.239 OA
BRANCH  27  29
HETATM   29  O   MOL     1      11.017  -1.664  22.267  1.00  0.12    -0.299 OA
BRANCH  29  30
HETATM   30  C   MOL     1      10.914  -1.612  23.697  1.00 -0.20     0.214 C 
BRANCH  30  31
HETATM   31  C   MOL     1      11.360  -2.953  24.300  1.00 -0.04     0.180 C 
HETATM   32  O   MOL     1      12.170  -3.700  23.375  1.00  0.26    -0.347 OA
HETATM   33  C   MOL     1      11.940  -5.112  23.539  1.00 -0.04     0.222 C 
HETATM   34  C   MOL     1      10.858  -5.247  24.636  1.00 -0.10     0.205 C 
HETATM   35  C   MOL     1      13.193  -5.735  23.984  1.00 -0.21     0.107 C 
HETATM   36  C   MOL     1      10.184  -3.869  24.666  1.00 -0.06     0.182 C 
HETATM   37  N   MOL     1      14.163  -6.217  24.329  1.00  0.07    -0.193 NA
BRANCH  33  38
HETATM   38  C   MOL     1      11.552  -5.618  22.153  1.00 -0.19     0.088 A 
HETATM   39  N   MOL     1      11.548  -6.942  21.870  1.00 -0.03    -0.229 N 
HETATM   40  C   MOL     1      11.162  -7.028  20.569  1.00 -0.22     0.104 A 
HETATM   41  N   MOL     1      11.838  -8.063  22.594  1.00  0.23    -0.160 NA
HETATM   42  C   MOL     1      10.930  -5.798  20.043  1.00 -0.37     0.038 A 
HETATM   43  C   MOL     1      11.067  -8.322  19.994  1.00 -0.44     0.151 A 
HETATM   44  C   MOL     1      11.186  -4.891  21.075  1.00 -0.17     0.034 A 
HETATM   45  N   MOL     1      11.349  -9.431  20.691  1.00 -0.19    -0.221 NA
HETATM   46  C   MOL     1      11.731  -9.224  21.993  1.00 -0.33     0.258 A 
BRANCH  43  47
HETATM   47  N   MOL     1      10.680  -8.486  18.685  1.00 -0.25    -0.382 N 
HETATM   48  H   MOL     1      10.303  -7.818  18.253  1.00 -0.27     0.157 HD
HETATM   49  H   MOL     1      10.807  -9.255  18.275  1.00 -0.19     0.157 HD
ENDBRANCH  43  47
ENDBRANCH  33  38
BRANCH  34  50
HETATM   50  O   MOL     1       9.913  -6.299  24.382  1.00  0.41    -0.388 OA
HETATM   51  H   MOL     1       8.970  -5.949  24.375  1.00 -0.42     0.210 HD
ENDBRANCH  34  50
BRANCH  36  52
HETATM   52  O   MOL     1       9.142  -3.820  23.679  1.00  0.07    -0.390 OA
HETATM   53  H   MOL     1       9.165  -2.955  23.165  1.00 -0.09     0.210 HD
ENDBRANCH  36  52
ENDBRANCH  30  31
ENDBRANCH  29  30
ENDBRANCH  27  29
BRANCH  27  54
HETATM   54  O   MOL     1       9.594  -0.477  20.558  1.00  0.13    -0.260 OA
BRANCH  54  55
HETATM   55  C   MOL     1       9.612  -0.518  19.192  1.00 -0.29     0.080 A 
HETATM   56  C   MOL     1       9.980  -1.658  18.501  1.00 -0.28     0.037 A 
HETATM   57  C   MOL     1       9.984  -1.668  17.126  1.00 -0.40     0.003 A 
HETATM   58  C   MOL     1       9.618  -0.540  16.428  1.00 -0.35     0.000 A 
HETATM   59  C   MOL     1       9.251   0.599  17.107  1.00 -0.47     0.003 A 
HETATM   60  C   MOL     1       9.249   0.610  18.482  1.00 -0.37     0.037 A 
ENDBRANCH  54  55
ENDBRANCH  27  54
ENDBRANCH  25  27
ENDBRANCH  17  25
ENDBRANCH  16  17
ENDBRANCH  13  16
ENDBRANCH   8  13
ENDBRANCH   7   8
ENDBRANCH   3   7
TORSDOF 20
ENDMDL
MODEL 3
REMARK VINA RESULT:      -7.0      6.808     11.539
REMARK  20 active torsions:
REMARK  status: ('A' for Active; 'I' for Inactive)
REMARK    1  A    between atoms: C_3  and  C_7 
REMARK    2  A    between atoms: C_7  and  C_8 
REMARK    3  A    between atoms: C_8  and  N_9 
REMARK    4  A    between atoms: C_8  and  C_10 
REMARK    5  A    between atoms: C_10  and  O_11 
REMARK    6  A    between atoms: C_10  and  C_12 
REMARK    7  A    between atoms: C_12  and  C_13 
REMARK    8  A    between atoms: C_13  and  C_14 
REMARK    9  A    between atoms: C_13  and  N_21 
REMARK   10  A    between atoms: C_14  and  C_15 
REMARK   11  A    between atoms: N_21  and  P_22 
REMARK   12  A    between atoms: P_22  and  O_23 
REMARK   13  A    between atoms: P_22  and  O_24 
REMARK   14  A    between atoms: O_23  and  C_26 
REMARK   15  A    between atoms: O_24  and  C_27 
REMARK   16  A    between atoms: C_26  and  C_33 
REMARK   17  A    between atoms: C_35  and  C_40 
REMARK   18  A    between atoms: C_36  and  O_39 
REMARK   19  A    between atoms: C_37  and  O_38 
REMARK   20  A    between atoms: C_50  and  N_51 
ROOT
HETATM    1  C   MOL     1      17.112   4.604  17.290  1.00 -0.25     0.001 A 
HETATM    2  C   MOL     1      16.188   4.401  18.290  1.00 -0.30     0.007 A 
HETATM    3  C   MOL     1      15.053   5.179  18.358  1.00 -0.25    -0.056 A 
HETATM    4  C   MOL     1      14.850   6.164  17.415  1.00 -0.33     0.007 A 
HETATM    5  C   MOL     1      15.773   6.370  16.415  1.00 -0.34     0.001 A 
HETATM    6  C   MOL     1      16.904   5.589  16.353  1.00 -0.27     0.000 A 
ENDROOT
BRANCH   3   7
HETATM    7  C   MOL     1      14.031   4.951  19.462  1.00 -0.43     0.074 C 
BRANCH   7   8
HETATM    8  C   MOL     1      12.739   4.228  19.019  1.00 -0.43     0.216 C 
BRANCH   8   9
HETATM    9  N   MOL     1      11.557   5.113  19.310  1.00  0.05    -0.072 N 
HETATM   10  H   MOL     1      11.553   5.856  18.787  1.00 -0.64     0.274 HD
HETATM   11  H   MOL     1      10.769   4.681  19.162  1.00 -0.76     0.274 HD
HETATM   12  H   MOL     1      11.536   5.390  20.175  1.00 -0.15     0.274 HD
ENDBRANCH   8   9
BRANCH   8  13
HETATM   13  C   MOL     1      12.617   2.869  19.747  1.00 -0.29     0.150 C 
BRANCH  13  14
HETATM   14  O   MOL     1      13.725   2.022  19.396  1.00  0.06    -0.393 OA
HETATM   15  H   MOL     1      14.565   2.558  19.258  1.00 -0.27     0.210 HD
ENDBRANCH  13  14
BRANCH  13  16
HETATM   16  C   MOL     1      11.297   2.155  19.384  1.00 -0.14     0.054 C 
BRANCH  16  17
HETATM   17  C   MOL     1      10.779   1.285  20.551  1.00 -0.12     0.073 C 
BRANCH  17  18
HETATM   18  C   MOL     1       9.610   0.405  20.056  1.00 -0.13     0.058 C 
BRANCH  18  19
HETATM   19  C   MOL     1       9.856  -0.345  18.756  1.00 -0.16    -0.057 A 
HETATM   20  C   MOL     1      10.741  -1.402  18.720  1.00 -0.21     0.007 A 
HETATM   21  C   MOL     1      10.968  -2.079  17.543  1.00 -0.25     0.001 A 
HETATM   22  C   MOL     1      10.312  -1.702  16.395  1.00 -0.37     0.000 A 
HETATM   23  C   MOL     1       9.427  -0.647  16.425  1.00 -0.40     0.001 A 
HETATM   24  C   MOL     1       9.201   0.029  17.603  1.00 -0.21     0.007 A 
ENDBRANCH  18  19
ENDBRANCH  17  18
BRANCH  17  25
HETATM   25  N   MOL     1      11.864   0.425  21.045  1.00  0.15    -0.221 NA
HETATM   26  H   MOL     1      12.775   0.799  20.751  1.00  0.32     0.134 HD
BRANCH  25  27
HETATM   27  P   MOL     1      11.838   0.199  22.536  1.00  0.09     0.413 P 
HETATM   28  O   MOL     1      11.597   1.484  23.284  1.00  0.07    -0.239 OA
BRANCH  27  29
HETATM   29  O   MOL     1      13.197  -0.492  23.046  1.00  0.12    -0.299 OA
BRANCH  29  30
HETATM   30  C   MOL     1      13.833   0.020  24.227  1.00 -0.20     0.214 C 
BRANCH  30  31
HETATM   31  C   MOL     1      15.358   0.036  24.030  1.00 -0.04     0.180 C 
HETATM   32  O   MOL     1      16.023   0.670  25.136  1.00  0.26    -0.347 OA
HETATM   33  C   MOL     1      17.197   1.368  24.679  1.00 -0.04     0.222 C 
HETATM   34  C   MOL     1      17.235   1.183  23.143  1.00 -0.10     0.205 C 
HETATM   35  C   MOL     1      18.374   0.743  25.294  1.00 -0.21     0.107 C 
HETATM   36  C   MOL     1      15.793   0.808  22.776  1.00 -0.06     0.182 C 
HETATM   37  N   MOL     1      19.286   0.258  25.770  1.00  0.07    -0.193 NA
BRANCH  33  38
HETATM   38  C   MOL     1      17.029   2.801  25.173  1.00 -0.19     0.088 A 
HETATM   39  N   MOL     1      18.039   3.697  25.070  1.00 -0.03    -0.229 N 
HETATM   40  C   MOL     1      17.550   4.849  25.603  1.00 -0.22     0.104 A 
HETATM   41  N   MOL     1      19.312   3.632  24.581  1.00  0.23    -0.160 NA
HETATM   42  C   MOL     1      16.271   4.688  26.031  1.00 -0.37     0.038 A 
HETATM   43  C   MOL     1      18.407   5.979  25.626  1.00 -0.44     0.151 A 
HETATM   44  C   MOL     1      15.942   3.359  25.751  1.00 -0.17     0.034 A 
HETATM   45  N   MOL     1      19.658   5.931  25.150  1.00 -0.19    -0.221 NA
HETATM   46  C   MOL     1      20.046   4.718  24.640  1.00 -0.33     0.258 A 
BRANCH  43  47
HETATM   47  N   MOL     1      17.979   7.179  26.145  1.00 -0.25    -0.382 N 
HETATM   48  H   MOL     1      17.348   7.189  26.759  1.00 -0.27     0.157 HD
HETATM   49  H   MOL     1      18.334   7.936  25.869  1.00 -0.19     0.157 HD
ENDBRANCH  43  47
ENDBRANCH  33  38
BRANCH  34  50
HETATM   50  O   MOL     1      17.679   2.352  22.437  1.00  0.41    -0.388 OA
HETATM   51  H   MOL     1      18.657   2.526  22.596  1.00 -0.42     0.210 HD
ENDBRANCH  34  50
BRANCH  36  52
HETATM   52  O   MOL     1      15.017   2.002  22.588  1.00  0.07    -0.390 OA
HETATM   53  H   MOL     1      15.294   2.489  21.752  1.00 -0.09     0.210 HD
ENDBRANCH  36  52
ENDBRANCH  30  31
ENDBRANCH  29  30
ENDBRANCH  27  29
BRANCH  27  54
HETATM   54  O   MOL     1      10.712  -0.894  22.914  1.00  0.13    -0.260 OA
BRANCH  54  55
HETATM   55  C   MOL     1       9.799  -0.686  23.910  1.00 -0.29     0.080 A 
HETATM   56  C   MOL     1       9.960  -1.228  25.172  1.00 -0.28     0.037 A 
HETATM   57  C   MOL     1       9.026  -0.997  26.153  1.00 -0.40     0.003 A 
HETATM   58  C   MOL     1       7.922  -0.221  25.884  1.00 -0.35     0.000 A 
HETATM   59  C   MOL     1       7.754   0.323  24.631  1.00 -0.47     0.003 A 
HETATM   60  C   MOL     1       8.686   0.090  23.649  1.00 -0.37     0.037 A 
ENDBRANCH  54  55
ENDBRANCH  27  54
ENDBRANCH  25  27
ENDBRANCH  17  25
ENDBRANCH  16  17
ENDBRANCH  13  16
ENDBRANCH   8  13
ENDBRANCH   7   8
ENDBRANCH   3   7
TORSDOF 20
ENDMDL
MODEL 4
REMARK VINA RESULT:      -6.9     13.646     17.212
REMARK  20 active torsions:
REMARK  status: ('A' for Active; 'I' for Inactive)
REMARK    1  A    between atoms: C_3  and  C_7 
REMARK    2  A    between atoms: C_7  and  C_8 
REMARK    3  A    between atoms: C_8  and  N_9 
REMARK    4  A    between atoms: C_8  and  C_10 
REMARK    5  A    between atoms: C_10  and  O_11 
REMARK    6  A    between atoms: C_10  and  C_12 
REMARK    7  A    between atoms: C_12  and  C_13 
REMARK    8  A    between atoms: C_13  and  C_14 
REMARK    9  A    between atoms: C_13  and  N_21 
REMARK   10  A    between atoms: C_14  and  C_15 
REMARK   11  A    between atoms: N_21  and  P_22 
REMARK   12  A    between atoms: P_22  and  O_23 
REMARK   13  A    between atoms: P_22  and  O_24 
REMARK   14  A    between atoms: O_23  and  C_26 
REMARK   15  A    between atoms: O_24  and  C_27 
REMARK   16  A    between atoms: C_26  and  C_33 
REMARK   17  A    between atoms: C_35  and  C_40 
REMARK   18  A    between atoms: C_36  and  O_39 
REMARK   19  A    between atoms: C_37  and  O_38 
REMARK   20  A    between atoms: C_50  and  N_51 
ROOT
HETATM    1  C   MOL     1      14.921   4.427   7.747  1.00 -0.25     0.001 A 
HETATM    2  C   MOL     1      15.318   5.489   8.528  1.00 -0.30     0.007 A 
HETATM    3  C   MOL     1      15.407   5.353   9.896  1.00 -0.25    -0.056 A 
HETATM    4  C   MOL     1      15.095   4.143  10.478  1.00 -0.33     0.007 A 
HETATM    5  C   MOL     1      14.697   3.080   9.699  1.00 -0.34     0.001 A 
HETATM    6  C   MOL     1      14.610   3.222   8.334  1.00 -0.27     0.000 A 
ENDROOT
BRANCH   3   7
HETATM    7  C   MOL     1      15.849   6.528  10.757  1.00 -0.43     0.074 C 
BRANCH   7   8
HETATM    8  C   MOL     1      15.607   6.356  12.273  1.00 -0.43     0.216 C 
BRANCH   8   9
HETATM    9  N   MOL     1      14.414   7.180  12.677  1.00  0.05    -0.072 N 
HETATM   10  H   MOL     1      14.627   8.059  12.774  1.00 -0.64     0.274 HD
HETATM   11  H   MOL     1      13.749   7.136  12.056  1.00 -0.76     0.274 HD
HETATM   12  H   MOL     1      14.049   6.901  13.460  1.00 -0.15     0.274 HD
ENDBRANCH   8   9
BRANCH   8  13
HETATM   13  C   MOL     1      16.870   6.772  13.060  1.00 -0.29     0.150 C 
BRANCH  13  14
HETATM   14  O   MOL     1      16.889   8.199  13.242  1.00  0.06    -0.393 OA
HETATM   15  H   MOL     1      16.850   8.679  12.359  1.00 -0.27     0.210 HD
ENDBRANCH  13  14
BRANCH  13  16
HETATM   16  C   MOL     1      18.157   6.337  12.326  1.00 -0.14     0.054 C 
BRANCH  16  17
HETATM   17  C   MOL     1      18.616   4.929  12.764  1.00 -0.12     0.073 C 
BRANCH  17  18
HETATM   18  C   MOL     1      18.799   4.036  11.515  1.00 -0.13     0.058 C 
BRANCH  18  19
HETATM   19  C   MOL     1      18.032   2.723  11.529  1.00 -0.16    -0.057 A 
HETATM   20  C   MOL     1      18.127   1.852  10.465  1.00 -0.21     0.007 A 
HETATM   21  C   MOL     1      17.430   0.665  10.474  1.00 -0.25     0.001 A 
HETATM   22  C   MOL     1      16.633   0.343  11.548  1.00 -0.37     0.000 A 
HETATM   23  C   MOL     1      16.534   1.210  12.613  1.00 -0.40     0.001 A 
HETATM   24  C   MOL     1      17.233   2.396  12.602  1.00 -0.21     0.007 A 
ENDBRANCH  18  19
ENDBRANCH  17  18
BRANCH  17  25
HETATM   25  N   MOL     1      19.891   5.026  13.487  1.00  0.15    -0.221 NA
HETATM   26  H   MOL     1      20.241   5.993  13.461  1.00  0.32     0.134 HD
BRANCH  25  27
HETATM   27  P   MOL     1      19.834   4.519  14.906  1.00  0.09     0.413 P 
HETATM   28  O   MOL     1      18.422   4.193  15.317  1.00  0.07    -0.239 OA
BRANCH  27  29
HETATM   29  O   MOL     1      20.479   5.576  15.932  1.00  0.12    -0.299 OA
BRANCH  29  30
HETATM   30  C   MOL     1      20.137   6.964  15.802  1.00 -0.20     0.214 C 
BRANCH  30  31
HETATM   31  C   MOL     1      19.697   7.520  17.166  1.00 -0.04     0.180 C 
HETATM   32  O   MOL     1      19.126   6.491  17.993  1.00  0.26    -0.347 OA
HETATM   33  C   MOL     1      18.081   7.037  18.819  1.00 -0.04     0.222 C 
HETATM   34  C   MOL     1      17.968   8.532  18.436  1.00 -0.10     0.205 C 
HETATM   35  C   MOL     1      18.486   6.903  20.225  1.00 -0.21     0.107 C 
HETATM   36  C   MOL     1      18.625   8.613  17.052  1.00 -0.06     0.182 C 
HETATM   37  N   MOL     1      18.801   6.800  21.312  1.00  0.07    -0.193 NA
BRANCH  33  38
HETATM   38  C   MOL     1      16.853   6.180  18.531  1.00 -0.19     0.088 A 
HETATM   39  N   MOL     1      15.696   6.368  19.209  1.00 -0.03    -0.229 N 
HETATM   40  C   MOL     1      14.833   5.446  18.706  1.00 -0.22     0.104 A 
HETATM   41  N   MOL     1      15.312   7.227  20.199  1.00  0.23    -0.160 NA
HETATM   42  C   MOL     1      15.423   4.697  17.739  1.00 -0.37     0.038 A 
HETATM   43  C   MOL     1      13.519   5.413  19.240  1.00 -0.44     0.151 A 
HETATM   44  C   MOL     1      16.731   5.177  17.634  1.00 -0.17     0.034 A 
HETATM   45  N   MOL     1      13.127   6.249  20.211  1.00 -0.19    -0.221 NA
HETATM   46  C   MOL     1      14.081   7.134  20.645  1.00 -0.33     0.258 A 
BRANCH  43  47
HETATM   47  N   MOL     1      12.591   4.511  18.777  1.00 -0.25    -0.382 N 
HETATM   48  H   MOL     1      12.817   3.932  18.154  1.00 -0.27     0.157 HD
HETATM   49  H   MOL     1      11.771   4.508  19.101  1.00 -0.19     0.157 HD
ENDBRANCH  43  47
ENDBRANCH  33  38
BRANCH  34  50
HETATM   50  O   MOL     1      16.616   9.017  18.416  1.00  0.41    -0.388 OA
HETATM   51  H   MOL     1      16.574   9.992  18.656  1.00 -0.42     0.210 HD
ENDBRANCH  34  50
BRANCH  36  52
HETATM   52  O   MOL     1      17.655   8.306  16.039  1.00  0.07    -0.390 OA
HETATM   53  H   MOL     1      16.772   8.748  16.233  1.00 -0.09     0.210 HD
ENDBRANCH  36  52
ENDBRANCH  30  31
ENDBRANCH  29  30
ENDBRANCH  27  29
BRANCH  27  54
HETATM   54  O   MOL     1      20.784   3.226  15.074  1.00  0.13    -0.260 OA
BRANCH  54  55
HETATM   55  C   MOL     1      20.525   2.043  14.439  1.00 -0.29     0.080 A 
HETATM   56  C   MOL     1      21.099   1.728  13.221  1.00 -0.28     0.037 A 
HETATM   57  C   MOL     1      20.820   0.528  12.610  1.00 -0.40     0.003 A 
HETATM   58  C   MOL     1      19.967  -0.369  13.210  1.00 -0.35     0.000 A 
HETATM   59  C   MOL     1      19.390  -0.063  14.422  1.00 -0.47     0.003 A 
HETATM   60  C   MOL     1      19.666   1.137  15.032  1.00 -0.37     0.037 A 
ENDBRANCH  54  55
ENDBRANCH  27  54
ENDBRANCH  25  27
ENDBRANCH  17  25
ENDBRANCH  16  17
ENDBRANCH  13  16
ENDBRANCH   8  13
ENDBRANCH   7   8
ENDBRANCH   3   7
TORSDOF 20
ENDMDL
MODEL 5
REMARK VINA RESULT:      -6.8      4.111     10.671
REMARK  20 active torsions:
REMARK  status: ('A' for Active; 'I' for Inactive)
REMARK    1  A    between atoms: C_3  and  C_7 
REMARK    2  A    between atoms: C_7  and  C_8 
REMARK    3  A    between atoms: C_8  and  N_9 
REMARK    4  A    between atoms: C_8  and  C_10 
REMARK    5  A    between atoms: C_10  and  O_11 
REMARK    6  A    between atoms: C_10  and  C_12 
REMARK    7  A    between atoms: C_12  and  C_13 
REMARK    8  A    between atoms: C_13  and  C_14 
REMARK    9  A    between atoms: C_13  and  N_21 
REMARK   10  A    between atoms: C_14  and  C_15 
REMARK   11  A    between atoms: N_21  and  P_22 
REMARK   12  A    between atoms: P_22  and  O_23 
REMARK   13  A    between atoms: P_22  and  O_24 
REMARK   14  A    between atoms: O_23  and  C_26 
REMARK   15  A    between atoms: O_24  and  C_27 
REMARK   16  A    between atoms: C_26  and  C_33 
REMARK   17  A    between atoms: C_35  and  C_40 
REMARK   18  A    between atoms: C_36  and  O_39 
REMARK   19  A    between atoms: C_37  and  O_38 
REMARK   20  A    between atoms: C_50  and  N_51 
ROOT
HETATM    1  C   MOL     1      17.198   4.272  17.817  1.00 -0.25     0.001 A 
HETATM    2  C   MOL     1      16.284   3.753  18.706  1.00 -0.30     0.007 A 
HETATM    3  C   MOL     1      15.014   4.284  18.787  1.00 -0.25    -0.056 A 
HETATM    4  C   MOL     1      14.667   5.339  17.971  1.00 -0.33     0.007 A 
HETATM    5  C   MOL     1      15.581   5.860  17.083  1.00 -0.34     0.001 A 
HETATM    6  C   MOL     1      16.847   5.326  17.007  1.00 -0.27     0.000 A 
ENDROOT
BRANCH   3   7
HETATM    7  C   MOL     1      14.003   3.707  19.768  1.00 -0.43     0.074 C 
BRANCH   7   8
HETATM    8  C   MOL     1      12.879   2.862  19.128  1.00 -0.43     0.216 C 
BRANCH   8   9
HETATM    9  N   MOL     1      11.649   3.716  18.975  1.00  0.05    -0.072 N 
HETATM   10  H   MOL     1      10.948   3.389  19.453  1.00 -0.64     0.274 HD
HETATM   11  H   MOL     1      11.793   4.567  19.265  1.00 -0.76     0.274 HD
HETATM   12  H   MOL     1      11.380   3.784  18.110  1.00 -0.15     0.274 HD
ENDBRANCH   8   9
BRANCH   8  13
HETATM   13  C   MOL     1      12.593   1.616  19.998  1.00 -0.29     0.150 C 
BRANCH  13  14
HETATM   14  O   MOL     1      13.581   0.602  19.744  1.00  0.06    -0.393 OA
HETATM   15  H   MOL     1      13.185  -0.320  19.819  1.00 -0.27     0.210 HD
ENDBRANCH  13  14
BRANCH  13  16
HETATM   16  C   MOL     1      11.190   1.041  19.710  1.00 -0.14     0.054 C 
BRANCH  16  17
HETATM   17  C   MOL     1      10.657   0.213  20.900  1.00 -0.12     0.073 C 
BRANCH  17  18
HETATM   18  C   MOL     1      10.041  -1.104  20.375  1.00 -0.13     0.058 C 
BRANCH  18  19
HETATM   19  C   MOL     1      10.157  -1.331  18.876  1.00 -0.16    -0.057 A 
HETATM   20  C   MOL     1      11.227  -2.029  18.360  1.00 -0.21     0.007 A 
HETATM   21  C   MOL     1      11.335  -2.233  17.002  1.00 -0.25     0.001 A 
HETATM   22  C   MOL     1      10.373  -1.738  16.154  1.00 -0.37     0.000 A 
HETATM   23  C   MOL     1       9.301  -1.040  16.664  1.00 -0.40     0.001 A 
HETATM   24  C   MOL     1       9.195  -0.838  18.022  1.00 -0.21     0.007 A 
ENDBRANCH  18  19
ENDBRANCH  17  18
BRANCH  17  25
HETATM   25  N   MOL     1      11.759  -0.095  21.821  1.00  0.15    -0.221 NA
HETATM   26  H   MOL     1      12.408   0.700  21.875  1.00  0.32     0.134 HD
BRANCH  25  27
HETATM   27  P   MOL     1      11.310  -0.512  23.199  1.00  0.09     0.413 P 
HETATM   28  O   MOL     1      11.754   0.477  24.245  1.00  0.07    -0.239 OA
BRANCH  27  29
HETATM   29  O   MOL     1      11.844  -1.983  23.568  1.00  0.12    -0.299 OA
BRANCH  29  30
HETATM   30  C   MOL     1      10.894  -2.994  23.934  1.00 -0.20     0.214 C 
BRANCH  30  31
HETATM   31  C   MOL     1      11.628  -4.305  24.257  1.00 -0.04     0.180 C 
HETATM   32  O   MOL     1      12.387  -4.773  23.128  1.00  0.26    -0.347 OA
HETATM   33  C   MOL     1      12.403  -6.212  23.099  1.00 -0.04     0.222 C 
HETATM   34  C   MOL     1      11.539  -6.675  24.297  1.00 -0.10     0.205 C 
HETATM   35  C   MOL     1      13.791  -6.662  23.272  1.00 -0.21     0.107 C 
HETATM   36  C   MOL     1      10.676  -5.451  24.629  1.00 -0.06     0.182 C 
HETATM   37  N   MOL     1      14.865  -7.009  23.406  1.00  0.07    -0.193 NA
BRANCH  33  38
HETATM   38  C   MOL     1      11.884  -6.591  21.717  1.00 -0.19     0.088 A 
HETATM   39  N   MOL     1      11.988  -7.861  21.256  1.00 -0.03    -0.229 N 
HETATM   40  C   MOL     1      11.436  -7.837  20.014  1.00 -0.22     0.104 A 
HETATM   41  N   MOL     1      12.499  -9.015  21.778  1.00  0.23    -0.160 NA
HETATM   42  C   MOL     1      10.998  -6.592  19.695  1.00 -0.37     0.038 A 
HETATM   43  C   MOL     1      11.407  -9.052  19.282  1.00 -0.44     0.151 A 
HETATM   44  C   MOL     1      11.293  -5.792  20.802  1.00 -0.17     0.034 A 
HETATM   45  N   MOL     1      11.905 -10.192  19.780  1.00 -0.19    -0.221 NA
HETATM   46  C   MOL     1      12.439 -10.098  21.040  1.00 -0.33     0.258 A 
BRANCH  43  47
HETATM   47  N   MOL     1      10.861  -9.105  18.021  1.00 -0.25    -0.382 N 
HETATM   48  H   MOL     1      10.681  -8.358  17.592  1.00 -0.27     0.157 HD
HETATM   49  H   MOL     1      10.692  -9.880  17.640  1.00 -0.19     0.157 HD
ENDBRANCH  43  47
ENDBRANCH  33  38
BRANCH  34  50
HETATM   50  O   MOL     1      10.738  -7.832  24.010  1.00  0.41    -0.388 OA
HETATM   51  H   MOL     1      10.007  -7.949  24.692  1.00 -0.42     0.210 HD
ENDBRANCH  34  50
BRANCH  36  52
HETATM   52  O   MOL     1       9.497  -5.454  23.809  1.00  0.07    -0.390 OA
HETATM   53  H   MOL     1       8.662  -5.483  24.370  1.00 -0.09     0.210 HD
ENDBRANCH  36  52
ENDBRANCH  30  31
ENDBRANCH  29  30
ENDBRANCH  27  29
BRANCH  27  54
HETATM   54  O   MOL     1       9.707  -0.689  23.233  1.00  0.13    -0.260 OA
BRANCH  54  55
HETATM   55  C   MOL     1       8.916   0.003  24.108  1.00 -0.29     0.080 A 
HETATM   56  C   MOL     1       8.375  -0.595  25.231  1.00 -0.28     0.037 A 
HETATM   57  C   MOL     1       7.586   0.129  26.094  1.00 -0.40     0.003 A 
HETATM   58  C   MOL     1       7.331   1.458  25.842  1.00 -0.35     0.000 A 
HETATM   59  C   MOL     1       7.864   2.061  24.726  1.00 -0.47     0.003 A 
HETATM   60  C   MOL     1       8.651   1.336  23.863  1.00 -0.37     0.037 A 
ENDBRANCH  54  55
ENDBRANCH  27  54
ENDBRANCH  25  27
ENDBRANCH  17  25
ENDBRANCH  16  17
ENDBRANCH  13  16
ENDBRANCH   8  13
ENDBRANCH   7   8
ENDBRANCH   3   7
TORSDOF 20
ENDMDL
MODEL 6
REMARK VINA RESULT:      -6.7     14.821     19.053
REMARK  20 active torsions:
REMARK  status: ('A' for Active; 'I' for Inactive)
REMARK    1  A    between atoms: C_3  and  C_7 
REMARK    2  A    between atoms: C_7  and  C_8 
REMARK    3  A    between atoms: C_8  and  N_9 
REMARK    4  A    between atoms: C_8  and  C_10 
REMARK    5  A    between atoms: C_10  and  O_11 
REMARK    6  A    between atoms: C_10  and  C_12 
REMARK    7  A    between atoms: C_12  and  C_13 
REMARK    8  A    between atoms: C_13  and  C_14 
REMARK    9  A    between atoms: C_13  and  N_21 
REMARK   10  A    between atoms: C_14  and  C_15 
REMARK   11  A    between atoms: N_21  and  P_22 
REMARK   12  A    between atoms: P_22  and  O_23 
REMARK   13  A    between atoms: P_22  and  O_24 
REMARK   14  A    between atoms: O_23  and  C_26 
REMARK   15  A    between atoms: O_24  and  C_27 
REMARK   16  A    between atoms: C_26  and  C_33 
REMARK   17  A    between atoms: C_35  and  C_40 
REMARK   18  A    between atoms: C_36  and  O_39 
REMARK   19  A    between atoms: C_37  and  O_38 
REMARK   20  A    between atoms: C_50  and  N_51 
ROOT
HETATM    1  C   MOL     1      14.562   4.529   7.512  1.00 -0.25     0.001 A 
HETATM    2  C   MOL     1      15.052   5.453   8.407  1.00 -0.30     0.007 A 
HETATM    3  C   MOL     1      15.360   5.078   9.697  1.00 -0.25    -0.056 A 
HETATM    4  C   MOL     1      15.172   3.769  10.084  1.00 -0.33     0.007 A 
HETATM    5  C   MOL     1      14.681   2.844   9.191  1.00 -0.34     0.001 A 
HETATM    6  C   MOL     1      14.375   3.225   7.905  1.00 -0.27     0.000 A 
ENDROOT
BRANCH   3   7
HETATM    7  C   MOL     1      15.905   6.101  10.684  1.00 -0.43     0.074 C 
BRANCH   7   8
HETATM    8  C   MOL     1      15.438   5.913  12.144  1.00 -0.43     0.216 C 
BRANCH   8   9
HETATM    9  N   MOL     1      14.869   7.212  12.649  1.00  0.05    -0.072 N 
HETATM   10  H   MOL     1      14.180   7.078  13.226  1.00 -0.64     0.274 HD
HETATM   11  H   MOL     1      15.495   7.703  13.093  1.00 -0.76     0.274 HD
HETATM   12  H   MOL     1      14.562   7.740  11.977  1.00 -0.15     0.274 HD
ENDBRANCH   8   9
BRANCH   8  13
HETATM   13  C   MOL     1      16.621   5.440  13.021  1.00 -0.29     0.150 C 
BRANCH  13  14
HETATM   14  O   MOL     1      16.197   5.305  14.389  1.00  0.06    -0.393 OA
HETATM   15  H   MOL     1      16.506   4.433  14.782  1.00 -0.27     0.210 HD
ENDBRANCH  13  14
BRANCH  13  16
HETATM   16  C   MOL     1      17.803   6.431  12.951  1.00 -0.14     0.054 C 
BRANCH  16  17
HETATM   17  C   MOL     1      18.025   7.150  14.300  1.00 -0.12     0.073 C 
BRANCH  17  18
HETATM   18  C   MOL     1      19.511   7.555  14.429  1.00 -0.13     0.058 C 
BRANCH  18  19
HETATM   19  C   MOL     1      20.303   6.815  15.497  1.00 -0.16    -0.057 A 
HETATM   20  C   MOL     1      19.764   5.711  16.121  1.00 -0.21     0.007 A 
HETATM   21  C   MOL     1      20.478   5.042  17.090  1.00 -0.25     0.001 A 
HETATM   22  C   MOL     1      21.735   5.476  17.440  1.00 -0.37     0.000 A 
HETATM   23  C   MOL     1      22.278   6.579  16.819  1.00 -0.40     0.001 A 
HETATM   24  C   MOL     1      21.563   7.245  15.850  1.00 -0.21     0.007 A 
ENDBRANCH  18  19
ENDBRANCH  17  18
BRANCH  17  25
HETATM   25  N   MOL     1      17.183   8.353  14.365  1.00  0.15    -0.221 NA
HETATM   26  H   MOL     1      16.487   8.339  13.608  1.00  0.32     0.134 HD
BRANCH  25  27
HETATM   27  P   MOL     1      16.515   8.565  15.700  1.00  0.09     0.413 P 
HETATM   28  O   MOL     1      15.032   8.775  15.545  1.00  0.07    -0.239 OA
BRANCH  27  29
HETATM   29  O   MOL     1      17.169   9.802  16.491  1.00  0.12    -0.299 OA
BRANCH  29  30
HETATM   30  C   MOL     1      17.690  10.908  15.739  1.00 -0.20     0.214 C 
BRANCH  30  31
HETATM   31  C   MOL     1      19.037  11.353  16.334  1.00 -0.04     0.180 C 
HETATM   32  O   MOL     1      19.878  10.224  16.629  1.00  0.26    -0.347 OA
HETATM   33  C   MOL     1      20.679  10.490  17.795  1.00 -0.04     0.222 C 
HETATM   34  C   MOL     1      20.262  11.895  18.291  1.00 -0.10     0.205 C 
HETATM   35  C   MOL     1      22.092  10.492  17.394  1.00 -0.21     0.107 C 
HETATM   36  C   MOL     1      18.885  12.122  17.654  1.00 -0.06     0.182 C 
HETATM   37  N   MOL     1      23.185  10.494  17.084  1.00  0.07    -0.193 NA
BRANCH  33  38
HETATM   38  C   MOL     1      20.393   9.335  18.749  1.00 -0.19     0.088 A 
HETATM   39  N   MOL     1      21.170   9.120  19.838  1.00 -0.03    -0.229 N 
HETATM   40  C   MOL     1      20.638   8.028  20.447  1.00 -0.22     0.104 A 
HETATM   41  N   MOL     1      22.269   9.748  20.351  1.00  0.23    -0.160 NA
HETATM   42  C   MOL     1      19.559   7.563  19.767  1.00 -0.37     0.038 A 
HETATM   43  C   MOL     1      21.261   7.568  21.636  1.00 -0.44     0.151 A 
HETATM   44  C   MOL     1      19.408   8.413  18.668  1.00 -0.17     0.034 A 
HETATM   45  N   MOL     1      22.339   8.173  22.152  1.00 -0.19    -0.221 NA
HETATM   46  C   MOL     1      22.791   9.263  21.452  1.00 -0.33     0.258 A 
BRANCH  43  47
HETATM   47  N   MOL     1      20.775   6.471  22.309  1.00 -0.25    -0.382 N 
HETATM   48  H   MOL     1      20.044   6.544  22.794  1.00 -0.27     0.157 HD
HETATM   49  H   MOL     1      21.190   5.696  22.256  1.00 -0.19     0.157 HD
ENDBRANCH  43  47
ENDBRANCH  33  38
BRANCH  34  50
HETATM   50  O   MOL     1      20.214  12.006  19.722  1.00  0.41    -0.388 OA
HETATM   51  H   MOL     1      19.645  11.282  20.126  1.00 -0.42     0.210 HD
ENDBRANCH  34  50
BRANCH  36  52
HETATM   52  O   MOL     1      17.867  11.552  18.491  1.00  0.07    -0.390 OA
HETATM   53  H   MOL     1      17.106  12.196  18.630  1.00 -0.09     0.210 HD
ENDBRANCH  36  52
ENDBRANCH  30  31
ENDBRANCH  29  30
ENDBRANCH  27  29
BRANCH  27  54
HETATM   54  O   MOL     1      16.810   7.315  16.675  1.00  0.13    -0.260 OA
BRANCH  54  55
HETATM   55  C   MOL     1      15.944   6.942  17.665  1.00 -0.29     0.080 A 
HETATM   56  C   MOL     1      15.079   5.874  17.514  1.00 -0.28     0.037 A 
HETATM   57  C   MOL     1      14.222   5.522  18.531  1.00 -0.40     0.003 A 
HETATM   58  C   MOL     1      14.223   6.233  19.709  1.00 -0.35     0.000 A 
HETATM   59  C   MOL     1      15.080   7.298  19.868  1.00 -0.47     0.003 A 
HETATM   60  C   MOL     1      15.934   7.652  18.851  1.00 -0.37     0.037 A 
ENDBRANCH  54  55
ENDBRANCH  27  54
ENDBRANCH  25  27
ENDBRANCH  17  25
ENDBRANCH  16  17
ENDBRANCH  13  16
ENDBRANCH   8  13
ENDBRANCH   7   8
ENDBRANCH   3   7
TORSDOF 20
ENDMDL
MODEL 7
REMARK VINA RESULT:      -6.6     14.681     17.711
REMARK  20 active torsions:
REMARK  status: ('A' for Active; 'I' for Inactive)
REMARK    1  A    between atoms: C_3  and  C_7 
REMARK    2  A    between atoms: C_7  and  C_8 
REMARK    3  A    between atoms: C_8  and  N_9 
REMARK    4  A    between atoms: C_8  and  C_10 
REMARK    5  A    between atoms: C_10  and  O_11 
REMARK    6  A    between atoms: C_10  and  C_12 
REMARK    7  A    between atoms: C_12  and  C_13 
REMARK    8  A    between atoms: C_13  and  C_14 
REMARK    9  A    between atoms: C_13  and  N_21 
REMARK   10  A    between atoms: C_14  and  C_15 
REMARK   11  A    between atoms: N_21  and  P_22 
REMARK   12  A    between atoms: P_22  and  O_23 
REMARK   13  A    between atoms: P_22  and  O_24 
REMARK   14  A    between atoms: O_23  and  C_26 
REMARK   15  A    between atoms: O_24  and  C_27 
REMARK   16  A    between atoms: C_26  and  C_33 
REMARK   17  A    between atoms: C_35  and  C_40 
REMARK   18  A    between atoms: C_36  and  O_39 
REMARK   19  A    between atoms: C_37  and  O_38 
REMARK   20  A    between atoms: C_50  and  N_51 
ROOT
HETATM    1  C   MOL     1      14.779   4.583   7.898  1.00 -0.25     0.001 A 
HETATM    2  C   MOL     1      15.232   5.596   8.713  1.00 -0.30     0.007 A 
HETATM    3  C   MOL     1      15.455   5.364  10.052  1.00 -0.25    -0.056 A 
HETATM    4  C   MOL     1      15.220   4.109  10.571  1.00 -0.33     0.007 A 
HETATM    5  C   MOL     1      14.765   3.095   9.758  1.00 -0.34     0.001 A 
HETATM    6  C   MOL     1      14.544   3.333   8.421  1.00 -0.27     0.000 A 
ENDROOT
BRANCH   3   7
HETATM    7  C   MOL     1      15.960   6.484  10.951  1.00 -0.43     0.074 C 
BRANCH   7   8
HETATM    8  C   MOL     1      15.577   6.349  12.442  1.00 -0.43     0.216 C 
BRANCH   8   9
HETATM    9  N   MOL     1      14.336   7.161  12.705  1.00  0.05    -0.072 N 
HETATM   10  H   MOL     1      14.522   8.048  12.778  1.00 -0.64     0.274 HD
HETATM   11  H   MOL     1      13.728   7.071  12.034  1.00 -0.76     0.274 HD
HETATM   12  H   MOL     1      13.913   6.909  13.468  1.00 -0.15     0.274 HD
ENDBRANCH   8   9
BRANCH   8  13
HETATM   13  C   MOL     1      16.752   6.813  13.334  1.00 -0.29     0.150 C 
BRANCH  13  14
HETATM   14  O   MOL     1      16.598   8.205  13.664  1.00  0.06    -0.393 OA
HETATM   15  H   MOL     1      16.506   8.336  14.657  1.00 -0.27     0.210 HD
ENDBRANCH  13  14
BRANCH  13  16
HETATM   16  C   MOL     1      18.109   6.607  12.626  1.00 -0.14     0.054 C 
BRANCH  16  17
HETATM   17  C   MOL     1      18.766   5.269  13.032  1.00 -0.12     0.073 C 
BRANCH  17  18
HETATM   18  C   MOL     1      18.928   4.375  11.782  1.00 -0.13     0.058 C 
BRANCH  18  19
HETATM   19  C   MOL     1      18.171   3.056  11.815  1.00 -0.16    -0.057 A 
HETATM   20  C   MOL     1      18.313   2.147  10.790  1.00 -0.21     0.007 A 
HETATM   21  C   MOL     1      17.626   0.954  10.817  1.00 -0.25     0.001 A 
HETATM   22  C   MOL     1      16.791   0.666  11.871  1.00 -0.37     0.000 A 
HETATM   23  C   MOL     1      16.645   1.571  12.899  1.00 -0.40     0.001 A 
HETATM   24  C   MOL     1      17.334   2.762  12.870  1.00 -0.21     0.007 A 
ENDBRANCH  18  19
ENDBRANCH  17  18
BRANCH  17  25
HETATM   25  N   MOL     1      20.086   5.526  13.624  1.00  0.15    -0.221 NA
HETATM   26  H   MOL     1      20.345   6.513  13.498  1.00  0.32     0.134 HD
BRANCH  25  27
HETATM   27  P   MOL     1      20.198   5.128  15.075  1.00  0.09     0.413 P 
HETATM   28  O   MOL     1      18.844   4.857  15.676  1.00  0.07    -0.239 OA
BRANCH  27  29
HETATM   29  O   MOL     1      20.969   6.249  15.931  1.00  0.12    -0.299 OA
BRANCH  29  30
HETATM   30  C   MOL     1      21.870   5.832  16.967  1.00 -0.20     0.214 C 
BRANCH  30  31
HETATM   31  C   MOL     1      21.420   6.418  18.315  1.00 -0.04     0.180 C 
HETATM   32  O   MOL     1      20.004   6.257  18.509  1.00  0.26    -0.347 OA
HETATM   33  C   MOL     1      19.473   7.372  19.250  1.00 -0.04     0.222 C 
HETATM   34  C   MOL     1      20.663   8.329  19.497  1.00 -0.10     0.205 C 
HETATM   35  C   MOL     1      18.951   6.871  20.528  1.00 -0.21     0.107 C 
HETATM   36  C   MOL     1      21.695   7.923  18.437  1.00 -0.06     0.182 C 
HETATM   37  N   MOL     1      18.548   6.483  21.517  1.00  0.07    -0.193 NA
BRANCH  33  38
HETATM   38  C   MOL     1      18.342   7.923  18.387  1.00 -0.19     0.088 A 
HETATM   39  N   MOL     1      17.292   7.145  18.032  1.00 -0.03    -0.229 N 
HETATM   40  C   MOL     1      16.494   7.945  17.277  1.00 -0.22     0.104 A 
HETATM   41  N   MOL     1      16.956   5.845  18.279  1.00  0.23    -0.160 NA
HETATM   42  C   MOL     1      17.020   9.191  17.155  1.00 -0.37     0.038 A 
HETATM   43  C   MOL     1      15.298   7.383  16.760  1.00 -0.44     0.151 A 
HETATM   44  C   MOL     1      18.218   9.167  17.875  1.00 -0.17     0.034 A 
HETATM   45  N   MOL     1      14.954   6.109  16.994  1.00 -0.19    -0.221 NA
HETATM   46  C   MOL     1      15.836   5.395  17.765  1.00 -0.33     0.258 A 
BRANCH  43  47
HETATM   47  N   MOL     1      14.439   8.133  15.991  1.00 -0.25    -0.382 N 
HETATM   48  H   MOL     1      14.249   7.876  15.171  1.00 -0.27     0.157 HD
HETATM   49  H   MOL     1      14.077   8.868  16.315  1.00 -0.19     0.157 HD
ENDBRANCH  43  47
ENDBRANCH  33  38
BRANCH  34  50
HETATM   50  O   MOL     1      20.311   9.718  19.396  1.00  0.41    -0.388 OA
HETATM   51  H   MOL     1      21.090  10.311  19.627  1.00 -0.42     0.210 HD
ENDBRANCH  34  50
BRANCH  36  52
HETATM   52  O   MOL     1      21.424   8.617  17.210  1.00  0.07    -0.390 OA
HETATM   53  H   MOL     1      21.611   8.034  16.411  1.00 -0.09     0.210 HD
ENDBRANCH  36  52
ENDBRANCH  30  31
ENDBRANCH  29  30
ENDBRANCH  27  29
BRANCH  27  54
HETATM   54  O   MOL     1      21.152   3.836  15.225  1.00  0.13    -0.260 OA
BRANCH  54  55
HETATM   55  C   MOL     1      20.829   2.624  14.682  1.00 -0.29     0.080 A 
HETATM   56  C   MOL     1      19.949   1.757  15.303  1.00 -0.28     0.037 A 
HETATM   57  C   MOL     1      19.642   0.546  14.728  1.00 -0.40     0.003 A 
HETATM   58  C   MOL     1      20.210   0.191  13.526  1.00 -0.35     0.000 A 
HETATM   59  C   MOL     1      21.088   1.047  12.901  1.00 -0.47     0.003 A 
HETATM   60  C   MOL     1      21.397   2.256  13.477  1.00 -0.37     0.037 A 
ENDBRANCH  54  55
ENDBRANCH  27  54
ENDBRANCH  25  27
ENDBRANCH  17  25
ENDBRANCH  16  17
ENDBRANCH  13  16
ENDBRANCH   8  13
ENDBRANCH   7   8
ENDBRANCH   3   7
TORSDOF 20
ENDMDL
MODEL 8
REMARK VINA RESULT:      -6.5      2.504      5.157
REMARK  20 active torsions:
REMARK  status: ('A' for Active; 'I' for Inactive)
REMARK    1  A    between atoms: C_3  and  C_7 
REMARK    2  A    between atoms: C_7  and  C_8 
REMARK    3  A    between atoms: C_8  and  N_9 
REMARK    4  A    between atoms: C_8  and  C_10 
REMARK    5  A    between atoms: C_10  and  O_11 
REMARK    6  A    between atoms: C_10  and  C_12 
REMARK    7  A    between atoms: C_12  and  C_13 
REMARK    8  A    between atoms: C_13  and  C_14 
REMARK    9  A    between atoms: C_13  and  N_21 
REMARK   10  A    between atoms: C_14  and  C_15 
REMARK   11  A    between atoms: N_21  and  P_22 
REMARK   12  A    between atoms: P_22  and  O_23 
REMARK   13  A    between atoms: P_22  and  O_24 
REMARK   14  A    between atoms: O_23  and  C_26 
REMARK   15  A    between atoms: O_24  and  C_27 
REMARK   16  A    between atoms: C_26  and  C_33 
REMARK   17  A    between atoms: C_35  and  C_40 
REMARK   18  A    between atoms: C_36  and  O_39 
REMARK   19  A    between atoms: C_37  and  O_38 
REMARK   20  A    between atoms: C_50  and  N_51 
ROOT
HETATM    1  C   MOL     1      16.806  -9.204  23.234  1.00 -0.25     0.001 A 
HETATM    2  C   MOL     1      16.076  -9.509  22.108  1.00 -0.30     0.007 A 
HETATM    3  C   MOL     1      14.699  -9.550  22.160  1.00 -0.25    -0.056 A 
HETATM    4  C   MOL     1      14.059  -9.283  23.351  1.00 -0.33     0.007 A 
HETATM    5  C   MOL     1      14.787  -8.980  24.479  1.00 -0.34     0.001 A 
HETATM    6  C   MOL     1      16.161  -8.941  24.420  1.00 -0.27     0.000 A 
ENDROOT
BRANCH   3   7
HETATM    7  C   MOL     1      13.894  -9.883  20.912  1.00 -0.43     0.074 C 
BRANCH   7   8
HETATM    8  C   MOL     1      12.373  -9.637  21.030  1.00 -0.43     0.216 C 
BRANCH   8   9
HETATM    9  N   MOL     1      11.687 -10.940  21.341  1.00  0.05    -0.072 N 
HETATM   10  H   MOL     1      12.077 -11.639  20.909  1.00 -0.64     0.274 HD
HETATM   11  H   MOL     1      11.714 -11.129  22.231  1.00 -0.76     0.274 HD
HETATM   12  H   MOL     1      10.809 -10.933  21.109  1.00 -0.15     0.274 HD
ENDBRANCH   8   9
BRANCH   8  13
HETATM   13  C   MOL     1      11.835  -9.017  19.719  1.00 -0.29     0.150 C 
BRANCH  13  14
HETATM   14  O   MOL     1      12.923  -8.478  18.947  1.00  0.06    -0.393 OA
HETATM   15  H   MOL     1      13.505  -7.877  19.506  1.00 -0.27     0.210 HD
ENDBRANCH  13  14
BRANCH  13  16
HETATM   16  C   MOL     1      10.813  -7.896  20.008  1.00 -0.14     0.054 C 
BRANCH  16  17
HETATM   17  C   MOL     1      11.056  -7.242  21.386  1.00 -0.12     0.073 C 
BRANCH  17  18
HETATM   18  C   MOL     1      11.769  -5.885  21.193  1.00 -0.13     0.058 C 
BRANCH  18  19
HETATM   19  C   MOL     1      13.216  -5.831  21.660  1.00 -0.16    -0.057 A 
HETATM   20  C   MOL     1      14.242  -6.056  20.768  1.00 -0.21     0.007 A 
HETATM   21  C   MOL     1      15.552  -6.011  21.190  1.00 -0.25     0.001 A 
HETATM   22  C   MOL     1      15.842  -5.741  22.507  1.00 -0.37     0.000 A 
HETATM   23  C   MOL     1      14.820  -5.515  23.402  1.00 -0.40     0.001 A 
HETATM   24  C   MOL     1      13.511  -5.559  22.978  1.00 -0.21     0.007 A 
ENDBRANCH  18  19
ENDBRANCH  17  18
BRANCH  17  25
HETATM   25  N   MOL     1       9.771  -7.028  22.065  1.00  0.15    -0.221 NA
HETATM   26  H   MOL     1       9.100  -7.757  21.791  1.00  0.32     0.134 HD
BRANCH  25  27
HETATM   27  P   MOL     1       9.876  -6.939  23.567  1.00  0.09     0.413 P 
HETATM   28  O   MOL     1       8.611  -7.408  24.236  1.00  0.07    -0.239 OA
BRANCH  27  29
HETATM   29  O   MOL     1      10.231  -5.444  24.041  1.00  0.12    -0.299 OA
BRANCH  29  30
HETATM   30  C   MOL     1       9.401  -4.361  23.597  1.00 -0.20     0.214 C 
BRANCH  30  31
HETATM   31  C   MOL     1       9.392  -3.246  24.656  1.00 -0.04     0.180 C 
HETATM   32  O   MOL     1       8.686  -2.085  24.188  1.00  0.26    -0.347 OA
HETATM   33  C   MOL     1       9.286  -0.888  24.719  1.00 -0.04     0.222 C 
HETATM   34  C   MOL     1      10.500  -1.353  25.557  1.00 -0.10     0.205 C 
HETATM   35  C   MOL     1       8.301  -0.221  25.580  1.00 -0.21     0.107 C 
HETATM   36  C   MOL     1      10.800  -2.762  25.030  1.00 -0.06     0.182 C 
HETATM   37  N   MOL     1       7.538   0.295  26.247  1.00  0.07    -0.193 NA
BRANCH  33  38
HETATM   38  C   MOL     1       9.606  -0.026  23.502  1.00 -0.19     0.088 A 
HETATM   39  N   MOL     1       9.750  -0.579  22.274  1.00 -0.03    -0.229 N 
HETATM   40  C   MOL     1      10.029   0.461  21.445  1.00 -0.22     0.104 A 
HETATM   41  N   MOL     1       9.672  -1.857  21.800  1.00  0.23    -0.160 NA
HETATM   42  C   MOL     1      10.063   1.636  22.124  1.00 -0.37     0.038 A 
HETATM   43  C   MOL     1      10.231   0.172  20.070  1.00 -0.44     0.151 A 
HETATM   44  C   MOL     1       9.791   1.311  23.456  1.00 -0.17     0.034 A 
HETATM   45  N   MOL     1      10.157  -1.077  19.589  1.00 -0.19    -0.221 NA
HETATM   46  C   MOL     1       9.873  -2.047  20.518  1.00 -0.33     0.258 A 
BRANCH  43  47
HETATM   47  N   MOL     1      10.513   1.173  19.171  1.00 -0.25    -0.382 N 
HETATM   48  H   MOL     1      10.254   1.998  19.340  1.00 -0.27     0.157 HD
HETATM   49  H   MOL     1      10.951   0.996  18.428  1.00 -0.19     0.157 HD
ENDBRANCH  43  47
ENDBRANCH  33  38
BRANCH  34  50
HETATM   50  O   MOL     1      11.639  -0.485  25.443  1.00  0.41    -0.388 OA
HETATM   51  H   MOL     1      11.576   0.096  24.625  1.00 -0.42     0.210 HD
ENDBRANCH  34  50
BRANCH  36  52
HETATM   52  O   MOL     1      11.658  -2.674  23.881  1.00  0.07    -0.390 OA
HETATM   53  H   MOL     1      11.950  -3.587  23.573  1.00 -0.09     0.210 HD
ENDBRANCH  36  52
ENDBRANCH  30  31
ENDBRANCH  29  30
ENDBRANCH  27  29
BRANCH  27  54
HETATM   54  O   MOL     1      11.141  -7.795  24.088  1.00  0.13    -0.260 OA
BRANCH  54  55
HETATM   55  C   MOL     1      11.130  -8.457  25.284  1.00 -0.29     0.080 A 
HETATM   56  C   MOL     1      11.388  -7.809  26.479  1.00 -0.28     0.037 A 
HETATM   57  C   MOL     1      11.366  -8.503  27.666  1.00 -0.40     0.003 A 
HETATM   58  C   MOL     1      11.084  -9.850  27.671  1.00 -0.35     0.000 A 
HETATM   59  C   MOL     1      10.826 -10.502  26.487  1.00 -0.47     0.003 A 
HETATM   60  C   MOL     1      10.851  -9.810  25.300  1.00 -0.37     0.037 A 
ENDBRANCH  54  55
ENDBRANCH  27  54
ENDBRANCH  25  27
ENDBRANCH  17  25
ENDBRANCH  16  17
ENDBRANCH  13  16
ENDBRANCH   8  13
ENDBRANCH   7   8
ENDBRANCH   3   7
TORSDOF 20
ENDMDL
MODEL 9
REMARK VINA RESULT:      -6.4     14.670     18.971
REMARK  20 active torsions:
REMARK  status: ('A' for Active; 'I' for Inactive)
REMARK    1  A    between atoms: C_3  and  C_7 
REMARK    2  A    between atoms: C_7  and  C_8 
REMARK    3  A    between atoms: C_8  and  N_9 
REMARK    4  A    between atoms: C_8  and  C_10 
REMARK    5  A    between atoms: C_10  and  O_11 
REMARK    6  A    between atoms: C_10  and  C_12 
REMARK    7  A    between atoms: C_12  and  C_13 
REMARK    8  A    between atoms: C_13  and  C_14 
REMARK    9  A    between atoms: C_13  and  N_21 
REMARK   10  A    between atoms: C_14  and  C_15 
REMARK   11  A    between atoms: N_21  and  P_22 
REMARK   12  A    between atoms: P_22  and  O_23 
REMARK   13  A    between atoms: P_22  and  O_24 
REMARK   14  A    between atoms: O_23  and  C_26 
REMARK   15  A    between atoms: O_24  and  C_27 
REMARK   16  A    between atoms: C_26  and  C_33 
REMARK   17  A    between atoms: C_35  and  C_40 
REMARK   18  A    between atoms: C_36  and  O_39 
REMARK   19  A    between atoms: C_37  and  O_38 
REMARK   20  A    between atoms: C_50  and  N_51 
ROOT
HETATM    1  C   MOL     1      14.073   3.085   7.259  1.00 -0.25     0.001 A 
HETATM    2  C   MOL     1      14.157   3.479   8.576  1.00 -0.30     0.007 A 
HETATM    3  C   MOL     1      15.233   3.100   9.349  1.00 -0.25    -0.056 A 
HETATM    4  C   MOL     1      16.226   2.323   8.792  1.00 -0.33     0.007 A 
HETATM    5  C   MOL     1      16.144   1.927   7.476  1.00 -0.34     0.001 A 
HETATM    6  C   MOL     1      15.066   2.309   6.710  1.00 -0.27     0.000 A 
ENDROOT
BRANCH   3   7
HETATM    7  C   MOL     1      15.325   3.539  10.803  1.00 -0.43     0.074 C 
BRANCH   7   8
HETATM    8  C   MOL     1      16.531   2.969  11.583  1.00 -0.43     0.216 C 
BRANCH   8   9
HETATM    9  N   MOL     1      16.028   2.050  12.664  1.00  0.05    -0.072 N 
HETATM   10  H   MOL     1      16.475   2.171  13.446  1.00 -0.64     0.274 HD
HETATM   11  H   MOL     1      15.145   2.189  12.839  1.00 -0.76     0.274 HD
HETATM   12  H   MOL     1      16.107   1.174  12.438  1.00 -0.15     0.274 HD
ENDBRANCH   8   9
BRANCH   8  13
HETATM   13  C   MOL     1      17.372   4.124  12.174  1.00 -0.29     0.150 C 
BRANCH  13  14
HETATM   14  O   MOL     1      17.521   3.947  13.594  1.00  0.06    -0.393 OA
HETATM   15  H   MOL     1      18.482   4.045  13.874  1.00 -0.27     0.210 HD
ENDBRANCH  13  14
BRANCH  13  16
HETATM   16  C   MOL     1      16.713   5.494  11.900  1.00 -0.14     0.054 C 
BRANCH  16  17
HETATM   17  C   MOL     1      17.728   6.651  12.029  1.00 -0.12     0.073 C 
BRANCH  17  18
HETATM   18  C   MOL     1      18.378   6.921  10.652  1.00 -0.13     0.058 C 
BRANCH  18  19
HETATM   19  C   MOL     1      17.477   6.698   9.447  1.00 -0.16    -0.057 A 
HETATM   20  C   MOL     1      17.835   5.794   8.470  1.00 -0.21     0.007 A 
HETATM   21  C   MOL     1      17.022   5.593   7.377  1.00 -0.25     0.001 A 
HETATM   22  C   MOL     1      15.848   6.298   7.254  1.00 -0.37     0.000 A 
HETATM   23  C   MOL     1      15.486   7.203   8.227  1.00 -0.40     0.001 A 
HETATM   24  C   MOL     1      16.299   7.401   9.320  1.00 -0.21     0.007 A 
ENDBRANCH  18  19
ENDBRANCH  17  18
BRANCH  17  25
HETATM   25  N   MOL     1      17.040   7.864  12.491  1.00  0.15    -0.221 NA
HETATM   26  H   MOL     1      16.027   7.697  12.547  1.00  0.32     0.134 HD
BRANCH  25  27
HETATM   27  P   MOL     1      17.563   8.409  13.796  1.00  0.09     0.413 P 
HETATM   28  O   MOL     1      18.761   7.632  14.276  1.00  0.07    -0.239 OA
BRANCH  27  29
HETATM   29  O   MOL     1      16.419   8.416  14.927  1.00  0.12    -0.299 OA
BRANCH  29  30
HETATM   30  C   MOL     1      15.428   7.378  14.917  1.00 -0.20     0.214 C 
BRANCH  30  31
HETATM   31  C   MOL     1      15.321   6.748  16.315  1.00 -0.04     0.180 C 
HETATM   32  O   MOL     1      15.750   7.663  17.337  1.00  0.26    -0.347 OA
HETATM   33  C   MOL     1      16.382   6.948  18.415  1.00 -0.04     0.222 C 
HETATM   34  C   MOL     1      16.381   5.458  17.999  1.00 -0.10     0.205 C 
HETATM   35  C   MOL     1      15.577   7.136  19.629  1.00 -0.21     0.107 C 
HETATM   36  C   MOL     1      16.194   5.495  16.477  1.00 -0.06     0.182 C 
HETATM   37  N   MOL     1      14.953   7.282  20.568  1.00  0.07    -0.193 NA
BRANCH  33  38
HETATM   38  C   MOL     1      17.754   7.594  18.575  1.00 -0.19     0.088 A 
HETATM   39  N   MOL     1      18.534   7.319  19.647  1.00 -0.03    -0.229 N 
HETATM   40  C   MOL     1      19.661   8.058  19.468  1.00 -0.22     0.104 A 
HETATM   41  N   MOL     1      18.383   6.519  20.744  1.00  0.23    -0.160 NA
HETATM   42  C   MOL     1      19.598   8.781  18.320  1.00 -0.37     0.038 A 
HETATM   43  C   MOL     1      20.675   7.964  20.457  1.00 -0.44     0.151 A 
HETATM   44  C   MOL     1      18.359   8.476  17.749  1.00 -0.17     0.034 A 
HETATM   45  N   MOL     1      20.541   7.184  21.538  1.00 -0.19    -0.221 NA
HETATM   46  C   MOL     1      19.362   6.487  21.617  1.00 -0.33     0.258 A 
BRANCH  43  47
HETATM   47  N   MOL     1      21.843   8.679  20.341  1.00 -0.25    -0.382 N 
HETATM   48  H   MOL     1      21.860   9.529  20.569  1.00 -0.27     0.157 HD
HETATM   49  H   MOL     1      22.575   8.292  20.041  1.00 -0.19     0.157 HD
ENDBRANCH  43  47
ENDBRANCH  33  38
BRANCH  34  50
HETATM   50  O   MOL     1      17.579   4.759  18.374  1.00  0.41    -0.388 OA
HETATM   51  H   MOL     1      18.385   5.136  17.905  1.00 -0.42     0.210 HD
ENDBRANCH  34  50
BRANCH  36  52
HETATM   52  O   MOL     1      17.471   5.647  15.838  1.00  0.07    -0.390 OA
HETATM   53  H   MOL     1      17.374   6.042  14.917  1.00 -0.09     0.210 HD
ENDBRANCH  36  52
ENDBRANCH  30  31
ENDBRANCH  29  30
ENDBRANCH  27  29
BRANCH  27  54
HETATM   54  O   MOL     1      17.929   9.972  13.641  1.00  0.13    -0.260 OA
BRANCH  54  55
HETATM   55  C   MOL     1      18.565  10.673  14.627  1.00 -0.29     0.080 A 
HETATM   56  C   MOL     1      19.942  10.662  14.757  1.00 -0.28     0.037 A 
HETATM   57  C   MOL     1      20.553  11.381  15.757  1.00 -0.40     0.003 A 
HETATM   58  C   MOL     1      19.794  12.121  16.636  1.00 -0.35     0.000 A 
HETATM   59  C   MOL     1      18.423  12.137  16.513  1.00 -0.47     0.003 A 
HETATM   60  C   MOL     1      17.812  11.416  15.516  1.00 -0.37     0.037 A 
ENDBRANCH  54  55
ENDBRANCH  27  54
ENDBRANCH  25  27
ENDBRANCH  17  25
ENDBRANCH  16  17
ENDBRANCH  13  16
ENDBRANCH   8  13
ENDBRANCH   7   8
ENDBRANCH   3   7
TORSDOF 20
ENDMDL
MODEL 10
REMARK VINA RESULT:      -6.3      4.045      9.007
REMARK  20 active torsions:
REMARK  status: ('A' for Active; 'I' for Inactive)
REMARK    1  A    between atoms: C_3  and  C_7 
REMARK    2  A    between atoms: C_7  and  C_8 
REMARK    3  A    between atoms: C_8  and  N_9 
REMARK    4  A    between atoms: C_8  and  C_10 
REMARK    5  A    between atoms: C_10  and  O_11 
REMARK    6  A    between atoms: C_10  and  C_12 
REMARK    7  A    between atoms: C_12  and  C_13 
REMARK    8  A    between atoms: C_13  and  C_14 
REMARK    9  A    between atoms: C_13  and  N_21 
REMARK   10  A    between atoms: C_14  and  C_15 
REMARK   11  A    between atoms: N_21  and  P_22 
REMARK   12  A    between atoms: P_22  and  O_23 
REMARK   13  A    between atoms: P_22  and  O_24 
REMARK   14  A    between atoms: O_23  and  C_26 
REMARK   15  A    between atoms: O_24  and  C_27 
REMARK   16  A    between atoms: C_26  and  C_33 
REMARK   17  A    between atoms: C_35  and  C_40 
REMARK   18  A    between atoms: C_36  and  O_39 
REMARK   19  A    between atoms: C_37  and  O_38 
REMARK   20  A    between atoms: C_50  and  N_51 
ROOT
HETATM    1  C   MOL     1      14.969   5.270  26.967  1.00 -0.25     0.001 A 
HETATM    2  C   MOL     1      14.959   3.908  27.165  1.00 -0.30     0.007 A 
HETATM    3  C   MOL     1      15.807   3.094  26.445  1.00 -0.25    -0.056 A 
HETATM    4  C   MOL     1      16.666   3.655  25.525  1.00 -0.33     0.007 A 
HETATM    5  C   MOL     1      16.676   5.017  25.325  1.00 -0.34     0.001 A 
HETATM    6  C   MOL     1      15.827   5.824  26.047  1.00 -0.27     0.000 A 
ENDROOT
BRANCH   3   7
HETATM    7  C   MOL     1      15.797   1.588  26.667  1.00 -0.43     0.074 C 
BRANCH   7   8
HETATM    8  C   MOL     1      14.673   0.826  25.932  1.00 -0.43     0.216 C 
BRANCH   8   9
HETATM    9  N   MOL     1      13.545   0.564  26.894  1.00  0.05    -0.072 N 
HETATM   10  H   MOL     1      12.930   1.233  26.885  1.00 -0.64     0.274 HD
HETATM   11  H   MOL     1      13.102  -0.206  26.691  1.00 -0.76     0.274 HD
HETATM   12  H   MOL     1      13.835   0.472  27.750  1.00 -0.15     0.274 HD
ENDBRANCH   8   9
BRANCH   8  13
HETATM   13  C   MOL     1      15.226  -0.492  25.342  1.00 -0.29     0.150 C 
BRANCH  13  14
HETATM   14  O   MOL     1      16.519  -0.264  24.755  1.00  0.06    -0.393 OA
HETATM   15  H   MOL     1      16.783  -1.021  24.148  1.00 -0.27     0.210 HD
ENDBRANCH  13  14
BRANCH  13  16
HETATM   16  C   MOL     1      14.276  -1.069  24.270  1.00 -0.14     0.054 C 
BRANCH  16  17
HETATM   17  C   MOL     1      13.658   0.045  23.396  1.00 -0.12     0.073 C 
BRANCH  17  18
HETATM   18  C   MOL     1      14.662   0.449  22.292  1.00 -0.13     0.058 C 
BRANCH  18  19
HETATM   19  C   MOL     1      14.130   1.411  21.241  1.00 -0.16    -0.057 A 
HETATM   20  C   MOL     1      14.991   2.009  20.347  1.00 -0.21     0.007 A 
HETATM   21  C   MOL     1      14.511   2.883  19.397  1.00 -0.25     0.001 A 
HETATM   22  C   MOL     1      13.166   3.163  19.338  1.00 -0.37     0.000 A 
HETATM   23  C   MOL     1      12.300   2.569  20.229  1.00 -0.40     0.001 A 
HETATM   24  C   MOL     1      12.783   1.695  21.178  1.00 -0.21     0.007 A 
ENDBRANCH  18  19
ENDBRANCH  17  18
BRANCH  17  25
HETATM   25  N   MOL     1      12.419  -0.444  22.775  1.00  0.15    -0.221 NA
HETATM   26  H   MOL     1      12.568  -1.380  22.377  1.00  0.32     0.134 HD
BRANCH  25  27
HETATM   27  P   MOL     1      11.226  -0.440  23.697  1.00  0.09     0.413 P 
HETATM   28  O   MOL     1      11.282   0.714  24.664  1.00  0.07    -0.239 OA
BRANCH  27  29
HETATM   29  O   MOL     1      11.103  -1.828  24.499  1.00  0.12    -0.299 OA
BRANCH  29  30
HETATM   30  C   MOL     1       9.892  -2.109  25.217  1.00 -0.20     0.214 C 
BRANCH  30  31
HETATM   31  C   MOL     1       9.820  -3.608  25.548  1.00 -0.04     0.180 C 
HETATM   32  O   MOL     1      10.921  -4.327  24.965  1.00  0.26    -0.347 OA
HETATM   33  C   MOL     1      10.506  -5.652  24.584  1.00 -0.04     0.222 C 
HETATM   34  C   MOL     1       9.000  -5.744  24.923  1.00 -0.10     0.205 C 
HETATM   35  C   MOL     1      11.266  -6.622  25.383  1.00 -0.21     0.107 C 
HETATM   36  C   MOL     1       8.548  -4.281  25.014  1.00 -0.06     0.182 C 
HETATM   37  N   MOL     1      11.854  -7.373  26.003  1.00  0.07    -0.193 NA
BRANCH  33  38
HETATM   38  C   MOL     1      10.865  -5.775  23.107  1.00 -0.19     0.088 A 
HETATM   39  N   MOL     1      10.961  -6.987  22.510  1.00 -0.03    -0.229 N 
HETATM   40  C   MOL     1      11.294  -6.725  21.219  1.00 -0.22     0.104 A 
HETATM   41  N   MOL     1      10.799  -8.270  22.950  1.00  0.23    -0.160 NA
HETATM   42  C   MOL     1      11.408  -5.389  21.002  1.00 -0.37     0.038 A 
HETATM   43  C   MOL     1      11.462  -7.830  20.344  1.00 -0.44     0.151 A 
HETATM   44  C   MOL     1      11.131  -4.782  22.230  1.00 -0.17     0.034 A 
HETATM   45  N   MOL     1      11.306  -9.094  20.760  1.00 -0.19    -0.221 NA
HETATM   46  C   MOL     1      10.974  -9.240  22.083  1.00 -0.33     0.258 A 
BRANCH  43  47
HETATM   47  N   MOL     1      11.795  -7.641  19.024  1.00 -0.25    -0.382 N 
HETATM   48  H   MOL     1      12.623  -7.435  18.807  1.00 -0.27     0.157 HD
HETATM   49  H   MOL     1      11.186  -7.726  18.394  1.00 -0.19     0.157 HD
ENDBRANCH  43  47
ENDBRANCH  33  38
BRANCH  34  50
HETATM   50  O   MOL     1       8.238  -6.480  23.952  1.00  0.41    -0.388 OA
HETATM   51  H   MOL     1       7.505  -7.012  24.389  1.00 -0.42     0.210 HD
ENDBRANCH  34  50
BRANCH  36  52
HETATM   52  O   MOL     1       8.198  -3.802  23.706  1.00  0.07    -0.390 OA
HETATM   53  H   MOL     1       8.242  -4.540  23.023  1.00 -0.09     0.210 HD
ENDBRANCH  36  52
ENDBRANCH  30  31
ENDBRANCH  29  30
ENDBRANCH  27  29
BRANCH  27  54
HETATM   54  O   MOL     1       9.860  -0.393  22.841  1.00  0.13    -0.260 OA
BRANCH  54  55
HETATM   55  C   MOL     1       9.845  -0.558  21.484  1.00 -0.29     0.080 A 
HETATM   56  C   MOL     1      10.208  -1.753  20.890  1.00 -0.28     0.037 A 
HETATM   57  C   MOL     1      10.178  -1.888  19.522  1.00 -0.40     0.003 A 
HETATM   58  C   MOL     1       9.784  -0.831  18.734  1.00 -0.35     0.000 A 
HETATM   59  C   MOL     1       9.421   0.362  19.316  1.00 -0.47     0.003 A 
HETATM   60  C   MOL     1       9.454   0.498  20.683  1.00 -0.37     0.037 A 
ENDBRANCH  54  55
ENDBRANCH  27  54
ENDBRANCH  25  27
ENDBRANCH  17  25
ENDBRANCH  16  17
ENDBRANCH  13  16
ENDBRANCH   8  13
ENDBRANCH   7   8
ENDBRANCH   3   7
TORSDOF 20
ENDMDL
