MODEL 1
REMARK VINA RESULT:      -6.3      0.000      0.000
REMARK  7 active torsions:
REMARK  status: ('A' for Active; 'I' for Inactive)
REMARK    1  A    between atoms: O_2  and  C_10 
REMARK    2  A    between atoms: O_3  and  C_11 
REMARK    3  A    between atoms: O_4  and  C_14 
REMARK    4  A    between atoms: O_6  and  N_9 
REMARK    5  A    between atoms: N_7  and  C_12 
REMARK    6  A    between atoms: N_9  and  C_18 
REMARK    7  A    between atoms: C_13  and  C_14 
ROOT
HETATM    1  O   UNK     0       9.597  -0.444  25.011  0.00  0.00    -0.353 OA
HETATM    2  C   UNK     0       7.571   0.571  24.317  0.00  0.00     0.198 C 
HETATM    3  C   UNK     0       7.378   0.005  25.708  0.00  0.00     0.182 C 
HETATM    4  C   UNK     0       9.084   0.633  24.209  0.00  0.00     0.264 C 
HETATM    5  C   UNK     0       8.526  -0.990  25.810  0.00  0.00     0.179 C 
ENDROOT
BRANCH   4   6
HETATM    6  N   UNK     0       9.546   0.471  22.860  0.00  0.00    -0.278 N 
HETATM    7  C   UNK     0       9.540  -0.799  22.303  0.00  0.00     0.102 A 
HETATM    8  C   UNK     0       9.949  -1.042  21.060  0.00  0.00     0.070 A 
HETATM    9  C   UNK     0      10.421   0.131  20.279  0.00  0.00     0.153 A 
HETATM   10  N   UNK     0      10.433   1.334  20.789  0.00  0.00    -0.174 NA
HETATM   11  C   UNK     0      10.002   1.567  22.084  0.00  0.00     0.352 A 
HETATM   12  O   UNK     0      10.018   2.708  22.548  0.00  0.00    -0.244 OA
BRANCH   9  13
HETATM   13  N   UNK     0      10.854  -0.077  18.989  0.00  0.00    -0.251 N 
HETATM   14  H   UNK     0      10.366   0.175  18.138  0.00  0.00     0.196 HD
BRANCH  13  15
HETATM   15  O   UNK     0      12.116  -0.589  18.915  0.00  0.00    -0.288 OA
HETATM   16  H   UNK     0      12.250  -0.655  17.955  0.00  0.00     0.244 HD
ENDBRANCH  13  15
ENDBRANCH   9  13
ENDBRANCH   4   6
BRANCH   5  17
HETATM   17  C   UNK     0       8.178  -2.367  25.258  0.00  0.00     0.198 C 
BRANCH  17  18
HETATM   18  O   UNK     0       7.076  -2.881  25.984  0.00  0.00    -0.398 OA
HETATM   19  H   UNK     0       7.409  -3.146  26.859  0.00  0.00     0.209 HD
ENDBRANCH  17  18
ENDBRANCH   5  17
BRANCH   2  20
HETATM   20  O   UNK     0       6.962   1.837  24.163  0.00  0.00    -0.388 OA
HETATM   21  H   UNK     0       6.000   1.706  24.213  0.00  0.00     0.210 HD
ENDBRANCH   2  20
BRANCH   3  22
HETATM   22  O   UNK     0       7.590   1.021  26.689  0.00  0.00    -0.390 OA
HETATM   23  H   UNK     0       8.020   1.784  26.268  0.00  0.00     0.210 HD
ENDBRANCH   3  22
TORSDOF 7
ENDMDL
MODEL 2
REMARK VINA RESULT:      -6.3      2.657      3.134
REMARK  7 active torsions:
REMARK  status: ('A' for Active; 'I' for Inactive)
REMARK    1  A    between atoms: O_2  and  C_10 
REMARK    2  A    between atoms: O_3  and  C_11 
REMARK    3  A    between atoms: O_4  and  C_14 
REMARK    4  A    between atoms: O_6  and  N_9 
REMARK    5  A    between atoms: N_7  and  C_12 
REMARK    6  A    between atoms: N_9  and  C_18 
REMARK    7  A    between atoms: C_13  and  C_14 
ROOT
HETATM    1  O   UNK     0      11.225  -1.433  22.325  0.00  0.00    -0.353 OA
HETATM    2  C   UNK     0      10.352   0.581  23.216  0.00  0.00     0.198 C 
HETATM    3  C   UNK     0      10.398  -0.456  24.317  0.00  0.00     0.182 C 
HETATM    4  C   UNK     0      11.307  -0.005  22.191  0.00  0.00     0.264 C 
HETATM    5  C   UNK     0      10.496  -1.755  23.529  0.00  0.00     0.179 C 
ENDROOT
BRANCH   4   6
HETATM    6  N   UNK     0      10.960   0.359  20.847  0.00  0.00    -0.278 N 
HETATM    7  C   UNK     0      10.149  -0.495  20.115  0.00  0.00     0.102 A 
HETATM    8  C   UNK     0       9.776  -0.237  18.863  0.00  0.00     0.070 A 
HETATM    9  C   UNK     0      10.279   1.031  18.272  0.00  0.00     0.153 A 
HETATM   10  N   UNK     0      11.045   1.846  18.948  0.00  0.00    -0.174 NA
HETATM   11  C   UNK     0      11.420   1.561  20.250  0.00  0.00     0.352 A 
HETATM   12  O   UNK     0      12.141   2.341  20.873  0.00  0.00    -0.244 OA
BRANCH   9  13
HETATM   13  N   UNK     0       9.919   1.334  16.979  0.00  0.00    -0.251 N 
HETATM   14  H   UNK     0       9.481   0.712  16.310  0.00  0.00     0.196 HD
BRANCH  13  15
HETATM   15  O   UNK     0      10.107   2.646  16.655  0.00  0.00    -0.288 OA
HETATM   16  H   UNK     0       9.575   2.731  15.846  0.00  0.00     0.244 HD
ENDBRANCH  13  15
ENDBRANCH   9  13
ENDBRANCH   4   6
BRANCH   5  17
HETATM   17  C   UNK     0       9.139  -2.318  23.126  0.00  0.00     0.198 C 
BRANCH  17  18
HETATM   18  O   UNK     0       9.309  -3.125  21.974  0.00  0.00    -0.398 OA
HETATM   19  H   UNK     0       8.604  -2.883  21.349  0.00  0.00     0.209 HD
ENDBRANCH  17  18
ENDBRANCH   5  17
BRANCH   2  20
HETATM   20  O   UNK     0      10.754   1.859  23.665  0.00  0.00    -0.388 OA
HETATM   21  H   UNK     0      11.015   1.773  24.597  0.00  0.00     0.210 HD
ENDBRANCH   2  20
BRANCH   3  22
HETATM   22  O   UNK     0      11.596  -0.314  25.081  0.00  0.00    -0.390 OA
HETATM   23  H   UNK     0      11.900   0.607  25.026  0.00  0.00     0.210 HD
ENDBRANCH   3  22
TORSDOF 7
ENDMDL
MODEL 3
REMARK VINA RESULT:      -6.1      2.422      6.631
REMARK  7 active torsions:
REMARK  status: ('A' for Active; 'I' for Inactive)
REMARK    1  A    between atoms: O_2  and  C_10 
REMARK    2  A    between atoms: O_3  and  C_11 
REMARK    3  A    between atoms: O_4  and  C_14 
REMARK    4  A    between atoms: O_6  and  N_9 
REMARK    5  A    between atoms: N_7  and  C_12 
REMARK    6  A    between atoms: N_9  and  C_18 
REMARK    7  A    between atoms: C_13  and  C_14 
ROOT
HETATM    1  O   UNK     0      11.734   1.018  19.526  0.00  0.00    -0.353 OA
HETATM    2  C   UNK     0       9.894  -0.251  18.742  0.00  0.00     0.198 C 
HETATM    3  C   UNK     0      10.738   0.163  17.555  0.00  0.00     0.182 C 
HETATM    4  C   UNK     0      10.859  -0.059  19.898  0.00  0.00     0.264 C 
HETATM    5  C   UNK     0      11.547   1.319  18.127  0.00  0.00     0.179 C 
ENDROOT
BRANCH   4   6
HETATM    6  N   UNK     0      10.190   0.283  21.120  0.00  0.00    -0.278 N 
HETATM    7  C   UNK     0      10.196   1.606  21.534  0.00  0.00     0.102 A 
HETATM    8  C   UNK     0       9.600   2.014  22.653  0.00  0.00     0.070 A 
HETATM    9  C   UNK     0       8.916   0.966  23.456  0.00  0.00     0.153 A 
HETATM   10  N   UNK     0       8.903  -0.285  23.080  0.00  0.00    -0.174 NA
HETATM   11  C   UNK     0       9.526  -0.689  21.912  0.00  0.00     0.352 A 
HETATM   12  O   UNK     0       9.501  -1.872  21.572  0.00  0.00    -0.244 OA
BRANCH   9  13
HETATM   13  N   UNK     0       8.290   1.346  24.621  0.00  0.00    -0.251 N 
HETATM   14  H   UNK     0       8.673   1.304  25.557  0.00  0.00     0.196 HD
BRANCH  13  15
HETATM   15  O   UNK     0       7.068   1.919  24.420  0.00  0.00    -0.288 OA
HETATM   16  H   UNK     0       6.465   1.199  24.670  0.00  0.00     0.244 HD
ENDBRANCH  13  15
ENDBRANCH   9  13
ENDBRANCH   4   6
BRANCH   5  17
HETATM   17  C   UNK     0      10.834   2.661  18.022  0.00  0.00     0.198 C 
BRANCH  17  18
HETATM   18  O   UNK     0      10.156   2.718  16.779  0.00  0.00    -0.398 OA
HETATM   19  H   UNK     0      10.635   2.135  16.166  0.00  0.00     0.209 HD
ENDBRANCH  17  18
ENDBRANCH   5  17
BRANCH   2  20
HETATM   20  O   UNK     0       9.432  -1.582  18.634  0.00  0.00    -0.388 OA
HETATM   21  H   UNK     0       9.480  -1.833  17.696  0.00  0.00     0.210 HD
ENDBRANCH   2  20
BRANCH   3  22
HETATM   22  O   UNK     0      11.648  -0.881  17.208  0.00  0.00    -0.390 OA
HETATM   23  H   UNK     0      11.298  -1.728  17.530  0.00  0.00     0.210 HD
ENDBRANCH   3  22
TORSDOF 7
ENDMDL
MODEL 4
REMARK VINA RESULT:      -6.1      2.520      4.062
REMARK  7 active torsions:
REMARK  status: ('A' for Active; 'I' for Inactive)
REMARK    1  A    between atoms: O_2  and  C_10 
REMARK    2  A    between atoms: O_3  and  C_11 
REMARK    3  A    between atoms: O_4  and  C_14 
REMARK    4  A    between atoms: O_6  and  N_9 
REMARK    5  A    between atoms: N_7  and  C_12 
REMARK    6  A    between atoms: N_9  and  C_18 
REMARK    7  A    between atoms: C_13  and  C_14 
ROOT
HETATM    1  O   UNK     0       9.602  -0.204  22.793  0.00  0.00    -0.353 OA
HETATM    2  C   UNK     0      11.902   0.361  22.726  0.00  0.00     0.198 C 
HETATM    3  C   UNK     0      11.453   0.327  24.172  0.00  0.00     0.182 C 
HETATM    4  C   UNK     0      10.803  -0.428  22.037  0.00  0.00     0.264 C 
HETATM    5  C   UNK     0       9.941   0.442  24.039  0.00  0.00     0.179 C 
ENDROOT
BRANCH   4   6
HETATM    6  N   UNK     0      10.588  -0.001  20.683  0.00  0.00    -0.278 N 
HETATM    7  C   UNK     0      11.004   1.268  20.312  0.00  0.00     0.102 A 
HETATM    8  C   UNK     0      10.847   1.746  19.079  0.00  0.00     0.070 A 
HETATM    9  C   UNK     0      10.191   0.841  18.099  0.00  0.00     0.153 A 
HETATM   10  N   UNK     0       9.792  -0.357  18.433  0.00  0.00    -0.174 NA
HETATM   11  C   UNK     0       9.967  -0.837  19.721  0.00  0.00     0.352 A 
HETATM   12  O   UNK     0       9.587  -1.970  20.017  0.00  0.00    -0.244 OA
BRANCH   9  13
HETATM   13  N   UNK     0      10.007   1.298  16.814  0.00  0.00    -0.251 N 
HETATM   14  H   UNK     0       9.707   0.753  16.014  0.00  0.00     0.196 HD
BRANCH  13  15
HETATM   15  O   UNK     0      10.167   2.647  16.688  0.00  0.00    -0.288 OA
HETATM   16  H   UNK     0      10.672   2.866  17.488  0.00  0.00     0.244 HD
ENDBRANCH  13  15
ENDBRANCH   9  13
ENDBRANCH   4   6
BRANCH   5  17
HETATM   17  C   UNK     0       9.450   1.883  23.974  0.00  0.00     0.198 C 
BRANCH  17  18
HETATM   18  O   UNK     0       8.451   1.976  22.975  0.00  0.00    -0.398 OA
HETATM   19  H   UNK     0       7.622   2.222  23.421  0.00  0.00     0.209 HD
ENDBRANCH  17  18
ENDBRANCH   5  17
BRANCH   2  20
HETATM   20  O   UNK     0      13.180  -0.216  22.548  0.00  0.00    -0.388 OA
HETATM   21  H   UNK     0      13.579  -0.320  23.428  0.00  0.00     0.210 HD
ENDBRANCH   2  20
BRANCH   3  22
HETATM   22  O   UNK     0      11.748  -0.944  24.752  0.00  0.00    -0.390 OA
HETATM   23  H   UNK     0      11.034  -1.187  25.364  0.00  0.00     0.210 HD
ENDBRANCH   3  22
TORSDOF 7
ENDMDL
MODEL 5
REMARK VINA RESULT:      -6.1      3.970      6.321
REMARK  7 active torsions:
REMARK  status: ('A' for Active; 'I' for Inactive)
REMARK    1  A    between atoms: O_2  and  C_10 
REMARK    2  A    between atoms: O_3  and  C_11 
REMARK    3  A    between atoms: O_4  and  C_14 
REMARK    4  A    between atoms: O_6  and  N_9 
REMARK    5  A    between atoms: N_7  and  C_12 
REMARK    6  A    between atoms: N_9  and  C_18 
REMARK    7  A    between atoms: C_13  and  C_14 
ROOT
HETATM    1  O   UNK     0       9.970  -0.641  19.339  0.00  0.00    -0.353 OA
HETATM    2  C   UNK     0      10.850   0.941  17.810  0.00  0.00     0.198 C 
HETATM    3  C   UNK     0      10.052  -0.089  17.037  0.00  0.00     0.182 C 
HETATM    4  C   UNK     0      10.331   0.745  19.223  0.00  0.00     0.264 C 
HETATM    5  C   UNK     0       9.978  -1.243  18.027  0.00  0.00     0.179 C 
ENDROOT
BRANCH   4   6
HETATM    6  N   UNK     0      11.318   1.054  20.218  0.00  0.00    -0.278 N 
HETATM    7  C   UNK     0      12.646   0.758  19.952  0.00  0.00     0.102 A 
HETATM    8  C   UNK     0      13.627   1.012  20.815  0.00  0.00     0.070 A 
HETATM    9  C   UNK     0      13.228   1.637  22.103  0.00  0.00     0.153 A 
HETATM   10  N   UNK     0      11.981   1.921  22.370  0.00  0.00    -0.174 NA
HETATM   11  C   UNK     0      10.975   1.652  21.458  0.00  0.00     0.352 A 
HETATM   12  O   UNK     0       9.805   1.928  21.725  0.00  0.00    -0.244 OA
BRANCH   9  13
HETATM   13  N   UNK     0      14.212   1.913  23.024  0.00  0.00    -0.251 N 
HETATM   14  H   UNK     0      14.831   1.246  23.470  0.00  0.00     0.196 HD
BRANCH  13  15
HETATM   15  O   UNK     0      14.391   3.248  23.247  0.00  0.00    -0.288 OA
HETATM   16  H   UNK     0      14.700   3.259  24.168  0.00  0.00     0.244 HD
ENDBRANCH  13  15
ENDBRANCH   9  13
ENDBRANCH   4   6
BRANCH   5  17
HETATM   17  C   UNK     0      11.174  -2.184  17.944  0.00  0.00     0.198 C 
BRANCH  17  18
HETATM   18  O   UNK     0      11.124  -2.872  16.708  0.00  0.00    -0.398 OA
HETATM   19  H   UNK     0      10.261  -3.318  16.663  0.00  0.00     0.209 HD
ENDBRANCH  17  18
ENDBRANCH   5  17
BRANCH   2  20
HETATM   20  O   UNK     0      10.639   2.253  17.330  0.00  0.00    -0.388 OA
HETATM   21  H   UNK     0      10.287   2.780  18.067  0.00  0.00     0.210 HD
ENDBRANCH   2  20
BRANCH   3  22
HETATM   22  O   UNK     0       8.723   0.383  16.811  0.00  0.00    -0.390 OA
HETATM   23  H   UNK     0       8.556   0.413  15.855  0.00  0.00     0.210 HD
ENDBRANCH   3  22
TORSDOF 7
ENDMDL
MODEL 6
REMARK VINA RESULT:      -6.1      2.421      4.384
REMARK  7 active torsions:
REMARK  status: ('A' for Active; 'I' for Inactive)
REMARK    1  A    between atoms: O_2  and  C_10 
REMARK    2  A    between atoms: O_3  and  C_11 
REMARK    3  A    between atoms: O_4  and  C_14 
REMARK    4  A    between atoms: O_6  and  N_9 
REMARK    5  A    between atoms: N_7  and  C_12 
REMARK    6  A    between atoms: N_9  and  C_18 
REMARK    7  A    between atoms: C_13  and  C_14 
ROOT
HETATM    1  O   UNK     0      10.317  -3.404  25.525  0.00  0.00    -0.353 OA
HETATM    2  C   UNK     0       7.982  -3.681  25.238  0.00  0.00     0.198 C 
HETATM    3  C   UNK     0       8.594  -5.029  25.553  0.00  0.00     0.182 C 
HETATM    4  C   UNK     0       9.064  -2.726  25.708  0.00  0.00     0.264 C 
HETATM    5  C   UNK     0      10.064  -4.795  25.232  0.00  0.00     0.179 C 
ENDROOT
BRANCH   4   6
HETATM    6  N   UNK     0       9.081  -1.503  24.956  0.00  0.00    -0.278 N 
HETATM    7  C   UNK     0      10.027  -1.352  23.954  0.00  0.00     0.102 A 
HETATM    8  C   UNK     0      10.115  -0.254  23.206  0.00  0.00     0.070 A 
HETATM    9  C   UNK     0       9.136   0.824  23.499  0.00  0.00     0.153 A 
HETATM   10  N   UNK     0       8.238   0.698  24.441  0.00  0.00    -0.174 NA
HETATM   11  C   UNK     0       8.162  -0.453  25.206  0.00  0.00     0.352 A 
HETATM   12  O   UNK     0       7.308  -0.556  26.088  0.00  0.00    -0.244 OA
BRANCH   9  13
HETATM   13  N   UNK     0       9.194   1.977  22.750  0.00  0.00    -0.251 N 
HETATM   14  H   UNK     0       8.510   2.298  22.075  0.00  0.00     0.196 HD
BRANCH  13  15
HETATM   15  O   UNK     0      10.256   2.776  23.062  0.00  0.00    -0.288 OA
HETATM   16  H   UNK     0      11.009   2.213  22.822  0.00  0.00     0.244 HD
ENDBRANCH  13  15
ENDBRANCH   9  13
ENDBRANCH   4   6
BRANCH   5  17
HETATM   17  C   UNK     0      10.406  -5.040  23.767  0.00  0.00     0.198 C 
BRANCH  17  18
HETATM   18  O   UNK     0       9.620  -6.119  23.294  0.00  0.00    -0.398 OA
HETATM   19  H   UNK     0       9.051  -5.769  22.587  0.00  0.00     0.209 HD
ENDBRANCH  17  18
ENDBRANCH   5  17
BRANCH   2  20
HETATM   20  O   UNK     0       6.752  -3.481  25.905  0.00  0.00    -0.388 OA
HETATM   21  H   UNK     0       6.420  -4.354  26.174  0.00  0.00     0.210 HD
ENDBRANCH   2  20
BRANCH   3  22
HETATM   22  O   UNK     0       8.488  -5.306  26.950  0.00  0.00    -0.390 OA
HETATM   23  H   UNK     0       8.663  -6.250  27.100  0.00  0.00     0.210 HD
ENDBRANCH   3  22
TORSDOF 7
ENDMDL
MODEL 7
REMARK VINA RESULT:      -6.0      3.107      5.890
REMARK  7 active torsions:
REMARK  status: ('A' for Active; 'I' for Inactive)
REMARK    1  A    between atoms: O_2  and  C_10 
REMARK    2  A    between atoms: O_3  and  C_11 
REMARK    3  A    between atoms: O_4  and  C_14 
REMARK    4  A    between atoms: O_6  and  N_9 
REMARK    5  A    between atoms: N_7  and  C_12 
REMARK    6  A    between atoms: N_9  and  C_18 
REMARK    7  A    between atoms: C_13  and  C_14 
ROOT
HETATM    1  O   UNK     0      10.604  -0.454  24.128  0.00  0.00    -0.353 OA
HETATM    2  C   UNK     0       9.418  -1.282  22.252  0.00  0.00     0.198 C 
HETATM    3  C   UNK     0       9.682   0.194  22.045  0.00  0.00     0.182 C 
HETATM    4  C   UNK     0      10.428  -1.635  23.329  0.00  0.00     0.264 C 
HETATM    5  C   UNK     0       9.984   0.666  23.461  0.00  0.00     0.179 C 
ENDROOT
BRANCH   4   6
HETATM    6  N   UNK     0       9.979  -2.706  24.173  0.00  0.00    -0.278 N 
HETATM    7  C   UNK     0       8.639  -2.757  24.527  0.00  0.00     0.102 A 
HETATM    8  C   UNK     0       8.136  -3.714  25.304  0.00  0.00     0.070 A 
HETATM    9  C   UNK     0       9.092  -4.745  25.785  0.00  0.00     0.153 A 
HETATM   10  N   UNK     0      10.358  -4.710  25.462  0.00  0.00    -0.174 NA
HETATM   11  C   UNK     0      10.862  -3.708  24.651  0.00  0.00     0.352 A 
HETATM   12  O   UNK     0      12.057  -3.692  24.354  0.00  0.00    -0.244 OA
BRANCH   9  13
HETATM   13  N   UNK     0       8.612  -5.751  26.593  0.00  0.00    -0.251 N 
HETATM   14  H   UNK     0       9.037  -6.657  26.751  0.00  0.00     0.196 HD
BRANCH  13  15
HETATM   15  O   UNK     0       7.501  -5.397  27.301  0.00  0.00    -0.288 OA
HETATM   16  H   UNK     0       7.687  -4.468  27.518  0.00  0.00     0.244 HD
ENDBRANCH  13  15
ENDBRANCH   9  13
ENDBRANCH   4   6
BRANCH   5  17
HETATM   17  C   UNK     0       8.736   1.052  24.245  0.00  0.00     0.198 C 
BRANCH  17  18
HETATM   18  O   UNK     0       8.105   2.136  23.586  0.00  0.00    -0.398 OA
HETATM   19  H   UNK     0       8.673   2.385  22.837  0.00  0.00     0.209 HD
ENDBRANCH  17  18
ENDBRANCH   5  17
BRANCH   2  20
HETATM   20  O   UNK     0       9.601  -2.032  21.068  0.00  0.00    -0.388 OA
HETATM   21  H   UNK     0       9.060  -2.835  21.145  0.00  0.00     0.210 HD
ENDBRANCH   2  20
BRANCH   3  22
HETATM   22  O   UNK     0      10.860   0.380  21.259  0.00  0.00    -0.390 OA
HETATM   23  H   UNK     0      11.441  -0.390  21.373  0.00  0.00     0.210 HD
ENDBRANCH   3  22
TORSDOF 7
ENDMDL
MODEL 8
REMARK VINA RESULT:      -5.9      2.700      4.027
REMARK  7 active torsions:
REMARK  status: ('A' for Active; 'I' for Inactive)
REMARK    1  A    between atoms: O_2  and  C_10 
REMARK    2  A    between atoms: O_3  and  C_11 
REMARK    3  A    between atoms: O_4  and  C_14 
REMARK    4  A    between atoms: O_6  and  N_9 
REMARK    5  A    between atoms: N_7  and  C_12 
REMARK    6  A    between atoms: N_9  and  C_18 
REMARK    7  A    between atoms: C_13  and  C_14 
ROOT
HETATM    1  O   UNK     0      10.029  -4.360  25.696  0.00  0.00    -0.353 OA
HETATM    2  C   UNK     0       7.811  -3.616  25.327  0.00  0.00     0.198 C 
HETATM    3  C   UNK     0       7.763  -5.011  25.914  0.00  0.00     0.182 C 
HETATM    4  C   UNK     0       9.219  -3.174  25.681  0.00  0.00     0.264 C 
HETATM    5  C   UNK     0       9.171  -5.520  25.642  0.00  0.00     0.179 C 
ENDROOT
BRANCH   4   6
HETATM    6  N   UNK     0       9.761  -2.251  24.725  0.00  0.00    -0.278 N 
HETATM    7  C   UNK     0       9.415  -2.396  23.390  0.00  0.00     0.102 A 
HETATM    8  C   UNK     0       9.868  -1.585  22.436  0.00  0.00     0.070 A 
HETATM    9  C   UNK     0      10.781  -0.497  22.873  0.00  0.00     0.153 A 
HETATM   10  N   UNK     0      11.118  -0.347  24.127  0.00  0.00    -0.174 NA
HETATM   11  C   UNK     0      10.634  -1.199  25.105  0.00  0.00     0.352 A 
HETATM   12  O   UNK     0      10.960  -1.042  26.282  0.00  0.00    -0.244 OA
BRANCH   9  13
HETATM   13  N   UNK     0      11.275   0.361  21.918  0.00  0.00    -0.251 N 
HETATM   14  H   UNK     0      11.546   1.328  22.052  0.00  0.00     0.196 HD
BRANCH  13  15
HETATM   15  O   UNK     0      11.489  -0.235  20.709  0.00  0.00    -0.288 OA
HETATM   16  H   UNK     0      10.745  -0.857  20.656  0.00  0.00     0.244 HD
ENDBRANCH  13  15
ENDBRANCH   9  13
ENDBRANCH   4   6
BRANCH   5  17
HETATM   17  C   UNK     0       9.325  -6.159  24.267  0.00  0.00     0.198 C 
BRANCH  17  18
HETATM   18  O   UNK     0       8.084  -6.728  23.891  0.00  0.00    -0.398 OA
HETATM   19  H   UNK     0       8.162  -6.993  22.959  0.00  0.00     0.209 HD
ENDBRANCH  17  18
ENDBRANCH   5  17
BRANCH   2  20
HETATM   20  O   UNK     0       6.821  -2.769  25.875  0.00  0.00    -0.388 OA
HETATM   21  H   UNK     0       6.233  -2.500  25.150  0.00  0.00     0.210 HD
ENDBRANCH   2  20
BRANCH   3  22
HETATM   22  O   UNK     0       7.584  -4.947  27.329  0.00  0.00    -0.390 OA
HETATM   23  H   UNK     0       8.075  -4.184  27.676  0.00  0.00     0.210 HD
ENDBRANCH   3  22
TORSDOF 7
ENDMDL
MODEL 9
REMARK VINA RESULT:      -5.8      2.368      6.180
REMARK  7 active torsions:
REMARK  status: ('A' for Active; 'I' for Inactive)
REMARK    1  A    between atoms: O_2  and  C_10 
REMARK    2  A    between atoms: O_3  and  C_11 
REMARK    3  A    between atoms: O_4  and  C_14 
REMARK    4  A    between atoms: O_6  and  N_9 
REMARK    5  A    between atoms: N_7  and  C_12 
REMARK    6  A    between atoms: N_9  and  C_18 
REMARK    7  A    between atoms: C_13  and  C_14 
ROOT
HETATM    1  O   UNK     0       8.864   0.232  18.703  0.00  0.00    -0.353 OA
HETATM    2  C   UNK     0      10.986   1.282  18.799  0.00  0.00     0.198 C 
HETATM    3  C   UNK     0      10.591   1.119  17.346  0.00  0.00     0.182 C 
HETATM    4  C   UNK     0       9.652   1.124  19.507  0.00  0.00     0.264 C 
HETATM    5  C   UNK     0       9.514   0.046  17.427  0.00  0.00     0.179 C 
ENDROOT
BRANCH   4   6
HETATM    6  N   UNK     0       9.792   0.566  20.822  0.00  0.00    -0.278 N 
HETATM    7  C   UNK     0       9.721  -0.810  20.972  0.00  0.00     0.102 A 
HETATM    8  C   UNK     0       9.842  -1.413  22.152  0.00  0.00     0.070 A 
HETATM    9  C   UNK     0      10.059  -0.529  23.327  0.00  0.00     0.153 A 
HETATM   10  N   UNK     0      10.128   0.770  23.203  0.00  0.00    -0.174 NA
HETATM   11  C   UNK     0      10.002   1.379  21.966  0.00  0.00     0.352 A 
HETATM   12  O   UNK     0      10.071   2.605  21.867  0.00  0.00    -0.244 OA
BRANCH   9  13
HETATM   13  N   UNK     0      10.187  -1.113  24.566  0.00  0.00    -0.251 N 
HETATM   14  H   UNK     0      11.033  -1.184  25.119  0.00  0.00     0.196 HD
BRANCH  13  15
HETATM   15  O   UNK     0       9.001  -1.533  25.095  0.00  0.00    -0.288 OA
HETATM   16  H   UNK     0       8.484  -0.711  25.108  0.00  0.00     0.244 HD
ENDBRANCH  13  15
ENDBRANCH   9  13
ENDBRANCH   4   6
BRANCH   5  17
HETATM   17  C   UNK     0      10.071  -1.371  17.381  0.00  0.00     0.198 C 
BRANCH  17  18
HETATM   18  O   UNK     0       9.639  -1.988  16.181  0.00  0.00    -0.398 OA
HETATM   19  H   UNK     0      10.205  -1.650  15.466  0.00  0.00     0.209 HD
ENDBRANCH  17  18
ENDBRANCH   5  17
BRANCH   2  20
HETATM   20  O   UNK     0      11.592   2.533  19.053  0.00  0.00    -0.388 OA
HETATM   21  H   UNK     0      10.939   3.086  19.514  0.00  0.00     0.210 HD
ENDBRANCH   2  20
BRANCH   3  22
HETATM   22  O   UNK     0       9.983   2.317  16.861  0.00  0.00    -0.390 OA
HETATM   23  H   UNK     0       9.331   2.088  16.179  0.00  0.00     0.210 HD
ENDBRANCH   3  22
TORSDOF 7
ENDMDL
MODEL 10
REMARK VINA RESULT:      -5.7      3.406      5.837
REMARK  7 active torsions:
REMARK  status: ('A' for Active; 'I' for Inactive)
REMARK    1  A    between atoms: O_2  and  C_10 
REMARK    2  A    between atoms: O_3  and  C_11 
REMARK    3  A    between atoms: O_4  and  C_14 
REMARK    4  A    between atoms: O_6  and  N_9 
REMARK    5  A    between atoms: N_7  and  C_12 
REMARK    6  A    between atoms: N_9  and  C_18 
REMARK    7  A    between atoms: C_13  and  C_14 
ROOT
HETATM    1  O   UNK     0       9.249  -1.346  23.351  0.00  0.00    -0.353 OA
HETATM    2  C   UNK     0       8.306  -0.874  25.472  0.00  0.00     0.198 C 
HETATM    3  C   UNK     0       8.534   0.432  24.741  0.00  0.00     0.182 C 
HETATM    4  C   UNK     0       8.353  -1.882  24.338  0.00  0.00     0.264 C 
HETATM    5  C   UNK     0       9.543   0.029  23.675  0.00  0.00     0.179 C 
ENDROOT
BRANCH   4   6
HETATM    6  N   UNK     0       8.839  -3.164  24.762  0.00  0.00    -0.278 N 
HETATM    7  C   UNK     0      10.167  -3.485  24.523  0.00  0.00     0.102 A 
HETATM    8  C   UNK     0      10.703  -4.649  24.884  0.00  0.00     0.070 A 
HETATM    9  C   UNK     0       9.797  -5.609  25.566  0.00  0.00     0.153 A 
HETATM   10  N   UNK     0       8.543  -5.323  25.798  0.00  0.00    -0.174 NA
HETATM   11  C   UNK     0       8.005  -4.106  25.418  0.00  0.00     0.352 A 
HETATM   12  O   UNK     0       6.822  -3.851  25.647  0.00  0.00    -0.244 OA
BRANCH   9  13
HETATM   13  N   UNK     0      10.311  -6.826  25.953  0.00  0.00    -0.251 N 
HETATM   14  H   UNK     0      10.829  -7.477  25.375  0.00  0.00     0.196 HD
BRANCH  13  15
HETATM   15  O   UNK     0      10.161  -7.081  27.285  0.00  0.00    -0.288 OA
HETATM   16  H   UNK     0      10.654  -7.912  27.387  0.00  0.00     0.244 HD
ENDBRANCH  13  15
ENDBRANCH   9  13
ENDBRANCH   4   6
BRANCH   5  17
HETATM   17  C   UNK     0      10.987   0.106  24.153  0.00  0.00     0.198 C 
BRANCH  17  18
HETATM   18  O   UNK     0      11.600   1.239  23.564  0.00  0.00    -0.398 OA
HETATM   19  H   UNK     0      10.892   1.766  23.156  0.00  0.00     0.209 HD
ENDBRANCH  17  18
ENDBRANCH   5  17
BRANCH   2  20
HETATM   20  O   UNK     0       7.076  -0.893  26.167  0.00  0.00    -0.388 OA
HETATM   21  H   UNK     0       6.655  -1.751  25.991  0.00  0.00     0.210 HD
ENDBRANCH   2  20
BRANCH   3  22
HETATM   22  O   UNK     0       7.337   0.844  24.081  0.00  0.00    -0.390 OA
HETATM   23  H   UNK     0       6.878   1.498  24.635  0.00  0.00     0.210 HD
ENDBRANCH   3  22
TORSDOF 7
ENDMDL
