MODEL 1
REMARK VINA RESULT:      -3.6      0.000      0.000
REMARK  9 active torsions:
REMARK  status: ('A' for Active; 'I' for Inactive)
REMARK    1  A    between atoms: S_1  and  S_2 
REMARK    2  A    between atoms: S_1  and  C_15 
REMARK    3  A    between atoms: S_2  and  C_16 
REMARK    4  A    between atoms: N_5  and  C_7 
REMARK    5  A    between atoms: N_5  and  C_8 
REMARK    6  A    between atoms: N_5  and  C_15 
REMARK    7  A    between atoms: N_6  and  C_9 
REMARK    8  A    between atoms: N_6  and  C_10 
REMARK    9  A    between atoms: N_6  and  C_16 
ROOT
HETATM    1  S   MOL     1       9.482  -2.431  23.010  1.00  0.00    -0.020 SA
ENDROOT
BRANCH   1   2
HETATM    2  S   MOL     1      11.037  -3.487  23.857  1.00  0.00    -0.020 SA
BRANCH   2   3
HETATM    3  C   MOL     1      10.479  -5.163  23.660  1.00  0.00     0.147 C 
HETATM    4  S   MOL     1      11.140  -6.082  22.404  1.00  0.00    -0.052 SA
BRANCH   3   5
HETATM    5  N   MOL     1       9.528  -5.621  24.595  1.00  0.00    -0.367 N 
BRANCH   5   6
HETATM    6  C   MOL     1       9.825  -5.723  26.026  1.00  0.00     0.120 C 
HETATM    7  C   MOL     1      10.723  -6.906  26.323  1.00  0.00     0.026 C 
ENDBRANCH   5   6
BRANCH   5   8
HETATM    8  C   MOL     1       8.158  -6.016  24.253  1.00  0.00     0.120 C 
HETATM    9  C   MOL     1       7.140  -5.080  24.871  1.00  0.00     0.026 C 
ENDBRANCH   5   8
ENDBRANCH   3   5
ENDBRANCH   2   3
ENDBRANCH   1   2
BRANCH   1  10
HETATM   10  C   MOL     1       9.106  -1.261  24.293  1.00  0.00     0.147 C 
HETATM   11  S   MOL     1       9.058  -1.815  25.891  1.00  0.00    -0.052 SA
BRANCH  10  12
HETATM   12  N   MOL     1       8.895   0.071  23.883  1.00  0.00    -0.367 N 
BRANCH  12  13
HETATM   13  C   MOL     1       8.249   1.096  24.711  1.00  0.00     0.120 C 
HETATM   14  C   MOL     1       6.739   0.997  24.638  1.00  0.00     0.026 C 
ENDBRANCH  12  13
BRANCH  12  15
HETATM   15  C   MOL     1       9.293   0.555  22.560  1.00  0.00     0.120 C 
HETATM   16  C   MOL     1       9.945   1.920  22.641  1.00  0.00     0.026 C 
ENDBRANCH  12  15
ENDBRANCH  10  12
ENDBRANCH   1  10
TORSDOF 9
ENDMDL
MODEL 2
REMARK VINA RESULT:      -3.6      3.170      4.089
REMARK  9 active torsions:
REMARK  status: ('A' for Active; 'I' for Inactive)
REMARK    1  A    between atoms: S_1  and  S_2 
REMARK    2  A    between atoms: S_1  and  C_15 
REMARK    3  A    between atoms: S_2  and  C_16 
REMARK    4  A    between atoms: N_5  and  C_7 
REMARK    5  A    between atoms: N_5  and  C_8 
REMARK    6  A    between atoms: N_5  and  C_15 
REMARK    7  A    between atoms: N_6  and  C_9 
REMARK    8  A    between atoms: N_6  and  C_10 
REMARK    9  A    between atoms: N_6  and  C_16 
ROOT
HETATM    1  S   MOL     1       9.995  -1.695  21.109  1.00  0.00    -0.020 SA
ENDROOT
BRANCH   1   2
HETATM    2  S   MOL     1      10.342  -1.553  23.137  1.00  0.00    -0.020 SA
BRANCH   2   3
HETATM    3  C   MOL     1      10.042  -3.223  23.666  1.00  0.00     0.147 C 
HETATM    4  S   MOL     1      10.917  -4.464  22.924  1.00  0.00    -0.052 SA
BRANCH   3   5
HETATM    5  N   MOL     1       9.101  -3.392  24.702  1.00  0.00    -0.367 N 
BRANCH   5   6
HETATM    6  C   MOL     1       9.415  -4.125  25.932  1.00  0.00     0.120 C 
HETATM    7  C   MOL     1       8.250  -4.983  26.380  1.00  0.00     0.026 C 
ENDBRANCH   5   6
BRANCH   5   8
HETATM    8  C   MOL     1       7.739  -2.848  24.678  1.00  0.00     0.120 C 
HETATM    9  C   MOL     1       7.636  -1.577  25.494  1.00  0.00     0.026 C 
ENDBRANCH   5   8
ENDBRANCH   3   5
ENDBRANCH   2   3
ENDBRANCH   1   2
BRANCH   1  10
HETATM   10  C   MOL     1      10.044   0.012  20.619  1.00  0.00     0.147 C 
HETATM   11  S   MOL     1      10.106   1.190  21.832  1.00  0.00    -0.052 SA
BRANCH  10  12
HETATM   12  N   MOL     1      10.053   0.266  19.233  1.00  0.00    -0.367 N 
BRANCH  12  13
HETATM   13  C   MOL     1       8.892   0.088  18.354  1.00  0.00     0.120 C 
HETATM   14  C   MOL     1       9.182  -0.905  17.247  1.00  0.00     0.026 C 
ENDBRANCH  12  13
BRANCH  12  15
HETATM   15  C   MOL     1      11.254   0.722  18.528  1.00  0.00     0.120 C 
HETATM   16  C   MOL     1      11.388   2.230  18.577  1.00  0.00     0.026 C 
ENDBRANCH  12  15
ENDBRANCH  10  12
ENDBRANCH   1  10
TORSDOF 9
ENDMDL
MODEL 3
REMARK VINA RESULT:      -3.5      1.396      6.579
REMARK  9 active torsions:
REMARK  status: ('A' for Active; 'I' for Inactive)
REMARK    1  A    between atoms: S_1  and  S_2 
REMARK    2  A    between atoms: S_1  and  C_15 
REMARK    3  A    between atoms: S_2  and  C_16 
REMARK    4  A    between atoms: N_5  and  C_7 
REMARK    5  A    between atoms: N_5  and  C_8 
REMARK    6  A    between atoms: N_5  and  C_15 
REMARK    7  A    between atoms: N_6  and  C_9 
REMARK    8  A    between atoms: N_6  and  C_10 
REMARK    9  A    between atoms: N_6  and  C_16 
ROOT
HETATM    1  S   MOL     1      11.469  -3.431  23.983  1.00  0.00    -0.020 SA
ENDROOT
BRANCH   1   2
HETATM    2  S   MOL     1       9.798  -2.264  23.668  1.00  0.00    -0.020 SA
BRANCH   2   3
HETATM    3  C   MOL     1      10.322  -0.704  24.341  1.00  0.00     0.147 C 
HETATM    4  S   MOL     1      11.828  -0.630  25.106  1.00  0.00    -0.052 SA
BRANCH   3   5
HETATM    5  N   MOL     1       9.441   0.382  24.163  1.00  0.00    -0.367 N 
BRANCH   5   6
HETATM    6  C   MOL     1       9.891   1.677  23.645  1.00  0.00     0.120 C 
HETATM    7  C   MOL     1       9.896   1.698  22.131  1.00  0.00     0.026 C 
ENDBRANCH   5   6
BRANCH   5   8
HETATM    8  C   MOL     1       8.003   0.335  24.449  1.00  0.00     0.120 C 
HETATM    9  C   MOL     1       7.738   0.173  25.931  1.00  0.00     0.026 C 
ENDBRANCH   5   8
ENDBRANCH   3   5
ENDBRANCH   2   3
ENDBRANCH   1   2
BRANCH   1  10
HETATM   10  C   MOL     1      10.938  -4.995  23.331  1.00  0.00     0.147 C 
HETATM   11  S   MOL     1      11.366  -5.385  21.742  1.00  0.00    -0.052 SA
BRANCH  10  12
HETATM   12  N   MOL     1      10.206  -5.823  24.206  1.00  0.00    -0.367 N 
BRANCH  12  13
HETATM   13  C   MOL     1       9.369  -6.947  23.772  1.00  0.00     0.120 C 
HETATM   14  C   MOL     1      10.059  -8.275  24.009  1.00  0.00     0.026 C 
ENDBRANCH  12  13
BRANCH  12  15
HETATM   15  C   MOL     1      10.201  -5.618  25.657  1.00  0.00     0.120 C 
HETATM   16  C   MOL     1       8.829  -5.217  26.157  1.00  0.00     0.026 C 
ENDBRANCH  12  15
ENDBRANCH  10  12
ENDBRANCH   1  10
TORSDOF 9
ENDMDL
MODEL 4
REMARK VINA RESULT:      -3.3      1.289      2.101
REMARK  9 active torsions:
REMARK  status: ('A' for Active; 'I' for Inactive)
REMARK    1  A    between atoms: S_1  and  S_2 
REMARK    2  A    between atoms: S_1  and  C_15 
REMARK    3  A    between atoms: S_2  and  C_16 
REMARK    4  A    between atoms: N_5  and  C_7 
REMARK    5  A    between atoms: N_5  and  C_8 
REMARK    6  A    between atoms: N_5  and  C_15 
REMARK    7  A    between atoms: N_6  and  C_9 
REMARK    8  A    between atoms: N_6  and  C_10 
REMARK    9  A    between atoms: N_6  and  C_16 
ROOT
HETATM    1  S   MOL     1       9.977  -2.230  23.229  1.00  0.00    -0.020 SA
ENDROOT
BRANCH   1   2
HETATM    2  S   MOL     1      11.478  -3.484  23.883  1.00  0.00    -0.020 SA
BRANCH   2   3
HETATM    3  C   MOL     1      10.905  -5.060  23.295  1.00  0.00     0.147 C 
HETATM    4  S   MOL     1      11.270  -5.499  21.704  1.00  0.00    -0.052 SA
BRANCH   3   5
HETATM    5  N   MOL     1      10.199  -5.856  24.221  1.00  0.00    -0.367 N 
BRANCH   5   6
HETATM    6  C   MOL     1      10.748  -7.103  24.759  1.00  0.00     0.120 C 
HETATM    7  C   MOL     1      10.153  -8.314  24.070  1.00  0.00     0.026 C 
ENDBRANCH   5   6
BRANCH   5   8
HETATM    8  C   MOL     1       8.876  -5.521  24.757  1.00  0.00     0.120 C 
HETATM    9  C   MOL     1       8.949  -5.155  26.225  1.00  0.00     0.026 C 
ENDBRANCH   5   8
ENDBRANCH   3   5
ENDBRANCH   2   3
ENDBRANCH   1   2
BRANCH   1  10
HETATM   10  C   MOL     1      10.096  -0.895  24.396  1.00  0.00     0.147 C 
HETATM   11  S   MOL     1      11.458  -0.827  25.396  1.00  0.00    -0.052 SA
BRANCH  10  12
HETATM   12  N   MOL     1       9.040   0.039  24.388  1.00  0.00    -0.367 N 
BRANCH  12  13
HETATM   13  C   MOL     1       8.843   1.051  23.344  1.00  0.00     0.120 C 
HETATM   14  C   MOL     1      10.104   1.855  23.107  1.00  0.00     0.026 C 
ENDBRANCH  12  13
BRANCH  12  15
HETATM   15  C   MOL     1       8.036   0.096  25.453  1.00  0.00     0.120 C 
HETATM   16  C   MOL     1       7.230   1.376  25.388  1.00  0.00     0.026 C 
ENDBRANCH  12  15
ENDBRANCH  10  12
ENDBRANCH   1  10
TORSDOF 9
ENDMDL
MODEL 5
REMARK VINA RESULT:      -3.3      2.261      6.293
REMARK  9 active torsions:
REMARK  status: ('A' for Active; 'I' for Inactive)
REMARK    1  A    between atoms: S_1  and  S_2 
REMARK    2  A    between atoms: S_1  and  C_15 
REMARK    3  A    between atoms: S_2  and  C_16 
REMARK    4  A    between atoms: N_5  and  C_7 
REMARK    5  A    between atoms: N_5  and  C_8 
REMARK    6  A    between atoms: N_5  and  C_15 
REMARK    7  A    between atoms: N_6  and  C_9 
REMARK    8  A    between atoms: N_6  and  C_10 
REMARK    9  A    between atoms: N_6  and  C_16 
ROOT
HETATM    1  S   MOL     1      11.041  -1.845  23.431  1.00  0.00    -0.020 SA
ENDROOT
BRANCH   1   2
HETATM    2  S   MOL     1       9.592  -1.882  21.964  1.00  0.00    -0.020 SA
BRANCH   2   3
HETATM    3  C   MOL     1      10.310  -0.824  20.729  1.00  0.00     0.147 C 
HETATM    4  S   MOL     1      10.377  -1.389  19.136  1.00  0.00    -0.052 SA
BRANCH   3   5
HETATM    5  N   MOL     1      10.755   0.440  21.168  1.00  0.00    -0.367 N 
BRANCH   5   6
HETATM    6  C   MOL     1       9.834   1.458  21.681  1.00  0.00     0.120 C 
HETATM    7  C   MOL     1      10.188   1.864  23.096  1.00  0.00     0.026 C 
ENDBRANCH   5   6
BRANCH   5   8
HETATM    8  C   MOL     1      12.159   0.862  21.181  1.00  0.00     0.120 C 
HETATM    9  C   MOL     1      12.477   1.766  20.009  1.00  0.00     0.026 C 
ENDBRANCH   5   8
ENDBRANCH   3   5
ENDBRANCH   2   3
ENDBRANCH   1   2
BRANCH   1  10
HETATM   10  C   MOL     1      10.129  -2.415  24.845  1.00  0.00     0.147 C 
HETATM   11  S   MOL     1       9.778  -1.302  26.070  1.00  0.00    -0.052 SA
BRANCH  10  12
HETATM   12  N   MOL     1       9.737  -3.768  24.834  1.00  0.00    -0.367 N 
BRANCH  12  13
HETATM   13  C   MOL     1       8.350  -4.226  24.963  1.00  0.00     0.120 C 
HETATM   14  C   MOL     1       8.080  -4.797  26.340  1.00  0.00     0.026 C 
ENDBRANCH  12  13
BRANCH  12  15
HETATM   15  C   MOL     1      10.704  -4.862  24.708  1.00  0.00     0.120 C 
HETATM   16  C   MOL     1      10.408  -5.729  23.501  1.00  0.00     0.026 C 
ENDBRANCH  12  15
ENDBRANCH  10  12
ENDBRANCH   1  10
TORSDOF 9
ENDMDL
MODEL 6
REMARK VINA RESULT:      -3.3      2.546      3.778
REMARK  9 active torsions:
REMARK  status: ('A' for Active; 'I' for Inactive)
REMARK    1  A    between atoms: S_1  and  S_2 
REMARK    2  A    between atoms: S_1  and  C_15 
REMARK    3  A    between atoms: S_2  and  C_16 
REMARK    4  A    between atoms: N_5  and  C_7 
REMARK    5  A    between atoms: N_5  and  C_8 
REMARK    6  A    between atoms: N_5  and  C_15 
REMARK    7  A    between atoms: N_6  and  C_9 
REMARK    8  A    between atoms: N_6  and  C_10 
REMARK    9  A    between atoms: N_6  and  C_16 
ROOT
HETATM    1  S   MOL     1      11.452  -3.256  24.249  1.00  0.00    -0.020 SA
ENDROOT
BRANCH   1   2
HETATM    2  S   MOL     1      10.902  -5.236  24.422  1.00  0.00    -0.020 SA
BRANCH   2   3
HETATM    3  C   MOL     1      11.901  -5.994  23.163  1.00  0.00     0.147 C 
HETATM    4  S   MOL     1      13.503  -5.481  22.999  1.00  0.00    -0.052 SA
BRANCH   3   5
HETATM    5  N   MOL     1      11.283  -7.003  22.396  1.00  0.00    -0.367 N 
BRANCH   5   6
HETATM    6  C   MOL     1      10.140  -7.773  22.893  1.00  0.00     0.120 C 
HETATM    7  C   MOL     1      10.587  -8.949  23.736  1.00  0.00     0.026 C 
ENDBRANCH   5   6
BRANCH   5   8
HETATM    8  C   MOL     1      11.689  -7.372  21.036  1.00  0.00     0.120 C 
HETATM    9  C   MOL     1      10.638  -6.982  20.018  1.00  0.00     0.026 C 
ENDBRANCH   5   8
ENDBRANCH   3   5
ENDBRANCH   2   3
ENDBRANCH   1   2
BRANCH   1  10
HETATM   10  C   MOL     1       9.910  -2.497  23.796  1.00  0.00     0.147 C 
HETATM   11  S   MOL     1       9.675  -2.071  22.177  1.00  0.00    -0.052 SA
BRANCH  10  12
HETATM   12  N   MOL     1       8.970  -2.324  24.832  1.00  0.00    -0.367 N 
BRANCH  12  13
HETATM   13  C   MOL     1       9.112  -1.352  25.921  1.00  0.00     0.120 C 
HETATM   14  C   MOL     1       8.020  -0.302  25.872  1.00  0.00     0.026 C 
ENDBRANCH  12  13
BRANCH  12  15
HETATM   15  C   MOL     1       7.750  -3.130  24.925  1.00  0.00     0.120 C 
HETATM   16  C   MOL     1       7.842  -4.152  26.039  1.00  0.00     0.026 C 
ENDBRANCH  12  15
ENDBRANCH  10  12
ENDBRANCH   1  10
TORSDOF 9
ENDMDL
MODEL 7
REMARK VINA RESULT:      -3.3      1.763      2.712
REMARK  9 active torsions:
REMARK  status: ('A' for Active; 'I' for Inactive)
REMARK    1  A    between atoms: S_1  and  S_2 
REMARK    2  A    between atoms: S_1  and  C_15 
REMARK    3  A    between atoms: S_2  and  C_16 
REMARK    4  A    between atoms: N_5  and  C_7 
REMARK    5  A    between atoms: N_5  and  C_8 
REMARK    6  A    between atoms: N_5  and  C_15 
REMARK    7  A    between atoms: N_6  and  C_9 
REMARK    8  A    between atoms: N_6  and  C_10 
REMARK    9  A    between atoms: N_6  and  C_16 
ROOT
HETATM    1  S   MOL     1       9.832  -2.876  23.191  1.00  0.00    -0.020 SA
ENDROOT
BRANCH   1   2
HETATM    2  S   MOL     1      11.097  -4.201  24.138  1.00  0.00    -0.020 SA
BRANCH   2   3
HETATM    3  C   MOL     1       9.940  -5.330  24.877  1.00  0.00     0.147 C 
HETATM    4  S   MOL     1       8.496  -4.704  25.493  1.00  0.00    -0.052 SA
BRANCH   3   5
HETATM    5  N   MOL     1      10.305  -6.693  24.872  1.00  0.00    -0.367 N 
BRANCH   5   6
HETATM    6  C   MOL     1      11.255  -7.251  25.838  1.00  0.00     0.120 C 
HETATM    7  C   MOL     1      12.571  -7.606  25.179  1.00  0.00     0.026 C 
ENDBRANCH   5   6
BRANCH   5   8
HETATM    8  C   MOL     1       9.770  -7.687  23.936  1.00  0.00     0.120 C 
HETATM    9  C   MOL     1      10.132  -7.352  22.505  1.00  0.00     0.026 C 
ENDBRANCH   5   8
ENDBRANCH   3   5
ENDBRANCH   2   3
ENDBRANCH   1   2
BRANCH   1  10
HETATM   10  C   MOL     1      10.312  -1.335  23.932  1.00  0.00     0.147 C 
HETATM   11  S   MOL     1      11.958  -0.949  23.981  1.00  0.00    -0.052 SA
BRANCH  10  12
HETATM   12  N   MOL     1       9.267  -0.520  24.413  1.00  0.00    -0.367 N 
BRANCH  12  13
HETATM   13  C   MOL     1       8.645   0.563  23.644  1.00  0.00     0.120 C 
HETATM   14  C   MOL     1       9.393   1.869  23.821  1.00  0.00     0.026 C 
ENDBRANCH  12  13
BRANCH  12  15
HETATM   15  C   MOL     1       8.711  -0.673  25.760  1.00  0.00     0.120 C 
HETATM   16  C   MOL     1       7.225  -0.379  25.784  1.00  0.00     0.026 C 
ENDBRANCH  12  15
ENDBRANCH  10  12
ENDBRANCH   1  10
TORSDOF 9
ENDMDL
MODEL 8
REMARK VINA RESULT:      -3.2      2.095      6.423
REMARK  9 active torsions:
REMARK  status: ('A' for Active; 'I' for Inactive)
REMARK    1  A    between atoms: S_1  and  S_2 
REMARK    2  A    between atoms: S_1  and  C_15 
REMARK    3  A    between atoms: S_2  and  C_16 
REMARK    4  A    between atoms: N_5  and  C_7 
REMARK    5  A    between atoms: N_5  and  C_8 
REMARK    6  A    between atoms: N_5  and  C_15 
REMARK    7  A    between atoms: N_6  and  C_9 
REMARK    8  A    between atoms: N_6  and  C_10 
REMARK    9  A    between atoms: N_6  and  C_16 
ROOT
HETATM    1  S   MOL     1       9.822  -3.366  23.885  1.00  0.00    -0.020 SA
ENDROOT
BRANCH   1   2
HETATM    2  S   MOL     1       9.798  -2.338  25.672  1.00  0.00    -0.020 SA
BRANCH   2   3
HETATM    3  C   MOL     1       9.408  -0.691  25.128  1.00  0.00     0.147 C 
HETATM    4  S   MOL     1       7.910  -0.040  25.566  1.00  0.00    -0.052 SA
BRANCH   3   5
HETATM    5  N   MOL     1      10.402  -0.025  24.382  1.00  0.00    -0.367 N 
BRANCH   5   6
HETATM    6  C   MOL     1      11.824  -0.110  24.724  1.00  0.00     0.120 C 
HETATM    7  C   MOL     1      12.699   0.025  23.495  1.00  0.00     0.026 C 
ENDBRANCH   5   6
BRANCH   5   8
HETATM    8  C   MOL     1      10.134   0.791  23.193  1.00  0.00     0.120 C 
HETATM    9  C   MOL     1       9.396  -0.000  22.134  1.00  0.00     0.026 C 
ENDBRANCH   5   8
ENDBRANCH   3   5
ENDBRANCH   2   3
ENDBRANCH   1   2
BRANCH   1  10
HETATM   10  C   MOL     1       9.887  -5.051  24.445  1.00  0.00     0.147 C 
HETATM   11  S   MOL     1       9.406  -5.384  26.032  1.00  0.00    -0.052 SA
BRANCH  10  12
HETATM   12  N   MOL     1      10.320  -6.007  23.504  1.00  0.00    -0.367 N 
BRANCH  12  13
HETATM   13  C   MOL     1       9.602  -7.250  23.201  1.00  0.00     0.120 C 
HETATM   14  C   MOL     1      10.332  -8.459  23.748  1.00  0.00     0.026 C 
ENDBRANCH  12  13
BRANCH  12  15
HETATM   15  C   MOL     1      11.562  -5.851  22.743  1.00  0.00     0.120 C 
HETATM   16  C   MOL     1      11.294  -5.770  21.254  1.00  0.00     0.026 C 
ENDBRANCH  12  15
ENDBRANCH  10  12
ENDBRANCH   1  10
TORSDOF 9
ENDMDL
MODEL 9
REMARK VINA RESULT:      -3.2      3.194      4.595
REMARK  9 active torsions:
REMARK  status: ('A' for Active; 'I' for Inactive)
REMARK    1  A    between atoms: S_1  and  S_2 
REMARK    2  A    between atoms: S_1  and  C_15 
REMARK    3  A    between atoms: S_2  and  C_16 
REMARK    4  A    between atoms: N_5  and  C_7 
REMARK    5  A    between atoms: N_5  and  C_8 
REMARK    6  A    between atoms: N_5  and  C_15 
REMARK    7  A    between atoms: N_6  and  C_9 
REMARK    8  A    between atoms: N_6  and  C_10 
REMARK    9  A    between atoms: N_6  and  C_16 
ROOT
HETATM    1  S   MOL     1      10.200  -5.591  25.203  1.00  0.00    -0.020 SA
ENDROOT
BRANCH   1   2
HETATM    2  S   MOL     1       9.756  -7.084  23.851  1.00  0.00    -0.020 SA
BRANCH   2   3
HETATM    3  C   MOL     1      10.997  -6.816  22.606  1.00  0.00     0.147 C 
HETATM    4  S   MOL     1      12.015  -5.477  22.769  1.00  0.00    -0.052 SA
BRANCH   3   5
HETATM    5  N   MOL     1      11.060  -7.771  21.570  1.00  0.00    -0.367 N 
BRANCH   5   6
HETATM    6  C   MOL     1      10.582  -7.486  20.214  1.00  0.00     0.120 C 
HETATM    7  C   MOL     1      10.940  -8.600  19.254  1.00  0.00     0.026 C 
ENDBRANCH   5   6
BRANCH   5   8
HETATM    8  C   MOL     1      11.619  -9.118  21.721  1.00  0.00     0.120 C 
HETATM    9  C   MOL     1      12.811  -9.121  22.655  1.00  0.00     0.026 C 
ENDBRANCH   5   8
ENDBRANCH   3   5
ENDBRANCH   2   3
ENDBRANCH   1   2
BRANCH   1  10
HETATM   10  C   MOL     1       9.031  -4.335  24.742  1.00  0.00     0.147 C 
HETATM   11  S   MOL     1       7.384  -4.667  24.934  1.00  0.00    -0.052 SA
BRANCH  10  12
HETATM   12  N   MOL     1       9.570  -3.123  24.264  1.00  0.00    -0.367 N 
BRANCH  12  13
HETATM   13  C   MOL     1       9.269  -2.549  22.948  1.00  0.00     0.120 C 
HETATM   14  C   MOL     1      10.387  -1.646  22.469  1.00  0.00     0.026 C 
ENDBRANCH  12  13
BRANCH  12  15
HETATM   15  C   MOL     1      10.513  -2.322  25.049  1.00  0.00     0.120 C 
HETATM   16  C   MOL     1       9.804  -1.523  26.122  1.00  0.00     0.026 C 
ENDBRANCH  12  15
ENDBRANCH  10  12
ENDBRANCH   1  10
TORSDOF 9
ENDMDL
MODEL 10
REMARK VINA RESULT:      -3.2      2.742      3.966
REMARK  9 active torsions:
REMARK  status: ('A' for Active; 'I' for Inactive)
REMARK    1  A    between atoms: S_1  and  S_2 
REMARK    2  A    between atoms: S_1  and  C_15 
REMARK    3  A    between atoms: S_2  and  C_16 
REMARK    4  A    between atoms: N_5  and  C_7 
REMARK    5  A    between atoms: N_5  and  C_8 
REMARK    6  A    between atoms: N_5  and  C_15 
REMARK    7  A    between atoms: N_6  and  C_9 
REMARK    8  A    between atoms: N_6  and  C_10 
REMARK    9  A    between atoms: N_6  and  C_16 
ROOT
HETATM    1  S   MOL     1      10.357  -3.482  22.958  1.00  0.00    -0.020 SA
ENDROOT
BRANCH   1   2
HETATM    2  S   MOL     1      11.683  -4.943  23.556  1.00  0.00    -0.020 SA
BRANCH   2   3
HETATM    3  C   MOL     1      10.905  -6.410  22.923  1.00  0.00     0.147 C 
HETATM    4  S   MOL     1       9.561  -7.020  23.748  1.00  0.00    -0.052 SA
BRANCH   3   5
HETATM    5  N   MOL     1      11.457  -6.954  21.746  1.00  0.00    -0.367 N 
BRANCH   5   6
HETATM    6  C   MOL     1      12.703  -7.725  21.750  1.00  0.00     0.120 C 
HETATM    7  C   MOL     1      12.560  -9.007  22.543  1.00  0.00     0.026 C 
ENDBRANCH   5   6
BRANCH   5   8
HETATM    8  C   MOL     1      10.850  -6.833  20.416  1.00  0.00     0.120 C 
HETATM    9  C   MOL     1      11.355  -5.606  19.687  1.00  0.00     0.026 C 
ENDBRANCH   5   8
ENDBRANCH   3   5
ENDBRANCH   2   3
ENDBRANCH   1   2
BRANCH   1  10
HETATM   10  C   MOL     1      10.391  -2.379  24.350  1.00  0.00     0.147 C 
HETATM   11  S   MOL     1      11.810  -1.504  24.641  1.00  0.00    -0.052 SA
BRANCH  10  12
HETATM   12  N   MOL     1       9.207  -2.292  25.110  1.00  0.00    -0.367 N 
BRANCH  12  13
HETATM   13  C   MOL     1       8.095  -3.244  25.015  1.00  0.00     0.120 C 
HETATM   14  C   MOL     1       8.155  -4.277  26.121  1.00  0.00     0.026 C 
ENDBRANCH  12  13
BRANCH  12  15
HETATM   15  C   MOL     1       8.969  -1.210  26.068  1.00  0.00     0.120 C 
HETATM   16  C   MOL     1       7.716  -0.431  25.727  1.00  0.00     0.026 C 
ENDBRANCH  12  15
ENDBRANCH  10  12
ENDBRANCH   1  10
TORSDOF 9
ENDMDL
