MODEL 1
REMARK VINA RESULT:      -6.7      0.000      0.000
REMARK  4 active torsions:
REMARK  status: ('A' for Active; 'I' for Inactive)
REMARK    1  A    between atoms: O_2  and  C_9 
REMARK    2  A    between atoms: O_3  and  C_11 
REMARK    3  A    between atoms: O_4  and  C_14 
REMARK    4  A    between atoms: C_8  and  C_13 
ROOT
HETATM    1  O   UNK     0       9.791  -0.035  21.351  0.00  0.00    -0.306 OA
HETATM    2  O   UNK     0      13.033   1.971  22.790  0.00  0.00    -0.287 OA
HETATM    3  C   UNK     0      11.628   1.502  20.948  0.00  0.00     0.084 A 
HETATM    4  C   UNK     0      10.510   0.789  20.521  0.00  0.00     0.129 A 
HETATM    5  C   UNK     0      10.203  -0.166  22.669  0.00  0.00     0.090 A 
HETATM    6  C   UNK     0      10.075   0.897  19.200  0.00  0.00     0.136 A 
HETATM    7  C   UNK     0      12.062   1.372  22.347  0.00  0.00     0.190 A 
HETATM    8  C   UNK     0      12.321   2.327  20.059  0.00  0.00     0.085 A 
HETATM    9  C   UNK     0      11.258   0.472  23.198  0.00  0.00     0.094 A 
HETATM   10  C   UNK     0      10.765   1.720  18.308  0.00  0.00     0.104 A 
HETATM   11  C   UNK     0      11.885   2.433  18.737  0.00  0.00     0.077 A 
ENDROOT
BRANCH   5  12
HETATM   12  C   UNK     0       9.357  -1.071  23.474  0.00  0.00    -0.002 A 
HETATM   13  C   UNK     0       9.324  -2.438  23.191  0.00  0.00     0.014 A 
HETATM   14  C   UNK     0       8.526  -3.293  23.950  0.00  0.00     0.001 A 
HETATM   15  C   UNK     0       7.759  -2.783  24.998  0.00  0.00     0.000 A 
HETATM   16  C   UNK     0       7.789  -1.418  25.284  0.00  0.00     0.001 A 
HETATM   17  C   UNK     0       8.587  -0.563  24.523  0.00  0.00     0.014 A 
ENDBRANCH   5  12
BRANCH   6  18
HETATM   18  O   UNK     0       8.981   0.203  18.775  0.00  0.00    -0.351 OA
HETATM   19  C   UNK     0       9.221  -0.992  18.034  0.00  0.00     0.210 C 
ENDBRANCH   6  18
BRANCH   8  20
HETATM   20  O   UNK     0      13.418   3.045  20.427  0.00  0.00    -0.360 OA
HETATM   21  H   UNK     0      13.975   2.530  21.030  0.00  0.00     0.217 HD
ENDBRANCH   8  20
BRANCH  10  22
HETATM   22  O   UNK     0      10.354   1.835  17.015  0.00  0.00    -0.358 OA
HETATM   23  H   UNK     0       9.468   1.444  16.927  0.00  0.00     0.217 HD
ENDBRANCH  10  22
TORSDOF 4
ENDMDL
MODEL 2
REMARK VINA RESULT:      -6.6      2.454      6.498
REMARK  4 active torsions:
REMARK  status: ('A' for Active; 'I' for Inactive)
REMARK    1  A    between atoms: O_2  and  C_9 
REMARK    2  A    between atoms: O_3  and  C_11 
REMARK    3  A    between atoms: O_4  and  C_14 
REMARK    4  A    between atoms: C_8  and  C_13 
ROOT
HETATM    1  O   UNK     0       9.264  -0.254  22.059  0.00  0.00    -0.306 OA
HETATM    2  O   UNK     0      10.483  -4.112  22.539  0.00  0.00    -0.287 OA
HETATM    3  C   UNK     0       9.483  -2.199  23.499  0.00  0.00     0.084 A 
HETATM    4  C   UNK     0       9.089  -0.882  23.267  0.00  0.00     0.129 A 
HETATM    5  C   UNK     0       9.868  -0.961  21.030  0.00  0.00     0.090 A 
HETATM    6  C   UNK     0       8.484  -0.145  24.285  0.00  0.00     0.136 A 
HETATM    7  C   UNK     0      10.115  -2.953  22.407  0.00  0.00     0.190 A 
HETATM    8  C   UNK     0       9.278  -2.788  24.748  0.00  0.00     0.085 A 
HETATM    9  C   UNK     0      10.284  -2.232  21.129  0.00  0.00     0.094 A 
HETATM   10  C   UNK     0       8.277  -0.729  25.536  0.00  0.00     0.104 A 
HETATM   11  C   UNK     0       8.674  -2.048  25.766  0.00  0.00     0.077 A 
ENDROOT
BRANCH   5  12
HETATM   12  C   UNK     0      10.003  -0.193  19.775  0.00  0.00    -0.002 A 
HETATM   13  C   UNK     0       9.191  -0.493  18.678  0.00  0.00     0.014 A 
HETATM   14  C   UNK     0       9.317   0.231  17.494  0.00  0.00     0.001 A 
HETATM   15  C   UNK     0      10.257   1.259  17.401  0.00  0.00     0.000 A 
HETATM   16  C   UNK     0      11.069   1.561  18.494  0.00  0.00     0.001 A 
HETATM   17  C   UNK     0      10.943   0.836  19.679  0.00  0.00     0.014 A 
ENDBRANCH   5  12
BRANCH   6  18
HETATM   18  O   UNK     0       8.095   1.143  24.066  0.00  0.00    -0.351 OA
HETATM   19  C   UNK     0       9.096   2.151  24.188  0.00  0.00     0.210 C 
ENDBRANCH   6  18
BRANCH   8  20
HETATM   20  O   UNK     0       9.644  -4.069  25.025  0.00  0.00    -0.360 OA
HETATM   21  H   UNK     0      10.351  -4.358  24.428  0.00  0.00     0.217 HD
ENDBRANCH   8  20
BRANCH  10  22
HETATM   22  O   UNK     0       7.690  -0.023  26.541  0.00  0.00    -0.358 OA
HETATM   23  H   UNK     0       8.190  -0.165  27.363  0.00  0.00     0.217 HD
ENDBRANCH  10  22
TORSDOF 4
ENDMDL
MODEL 3
REMARK VINA RESULT:      -6.5      2.516      4.656
REMARK  4 active torsions:
REMARK  status: ('A' for Active; 'I' for Inactive)
REMARK    1  A    between atoms: O_2  and  C_9 
REMARK    2  A    between atoms: O_3  and  C_11 
REMARK    3  A    between atoms: O_4  and  C_14 
REMARK    4  A    between atoms: C_8  and  C_13 
ROOT
HETATM    1  O   UNK     0      12.131   0.132  20.471  0.00  0.00    -0.306 OA
HETATM    2  O   UNK     0      12.079   3.684  18.475  0.00  0.00    -0.287 OA
HETATM    3  C   UNK     0      11.228   1.488  18.669  0.00  0.00     0.084 A 
HETATM    4  C   UNK     0      11.295   0.301  19.396  0.00  0.00     0.129 A 
HETATM    5  C   UNK     0      12.950   1.188  20.842  0.00  0.00     0.090 A 
HETATM    6  C   UNK     0      10.487  -0.781  19.042  0.00  0.00     0.136 A 
HETATM    7  C   UNK     0      12.087   2.613  19.066  0.00  0.00     0.190 A 
HETATM    8  C   UNK     0      10.356   1.604  17.584  0.00  0.00     0.085 A 
HETATM    9  C   UNK     0      12.971   2.380  20.226  0.00  0.00     0.094 A 
HETATM   10  C   UNK     0       9.615  -0.670  17.958  0.00  0.00     0.104 A 
HETATM   11  C   UNK     0       9.550   0.520  17.231  0.00  0.00     0.077 A 
ENDROOT
BRANCH   5  12
HETATM   12  C   UNK     0      13.805   0.901  22.012  0.00  0.00    -0.002 A 
HETATM   13  C   UNK     0      13.260   0.299  23.148  0.00  0.00     0.014 A 
HETATM   14  C   UNK     0      14.066   0.027  24.253  0.00  0.00     0.001 A 
HETATM   15  C   UNK     0      15.422   0.357  24.224  0.00  0.00     0.000 A 
HETATM   16  C   UNK     0      15.970   0.958  23.092  0.00  0.00     0.001 A 
HETATM   17  C   UNK     0      15.162   1.230  21.987  0.00  0.00     0.014 A 
ENDBRANCH   5  12
BRANCH   6  18
HETATM   18  O   UNK     0      10.546  -1.945  19.749  0.00  0.00    -0.351 OA
HETATM   19  C   UNK     0       9.875  -1.974  21.006  0.00  0.00     0.210 C 
ENDBRANCH   6  18
BRANCH   8  20
HETATM   20  O   UNK     0      10.253   2.742  16.844  0.00  0.00    -0.360 OA
HETATM   21  H   UNK     0      10.583   2.594  15.945  0.00  0.00     0.217 HD
ENDBRANCH   8  20
BRANCH  10  22
HETATM   22  O   UNK     0       8.821  -1.716  17.599  0.00  0.00    -0.358 OA
HETATM   23  H   UNK     0       7.951  -1.615  18.024  0.00  0.00     0.217 HD
ENDBRANCH  10  22
TORSDOF 4
ENDMDL
MODEL 4
REMARK VINA RESULT:      -6.5      3.025      5.082
REMARK  4 active torsions:
REMARK  status: ('A' for Active; 'I' for Inactive)
REMARK    1  A    between atoms: O_2  and  C_9 
REMARK    2  A    between atoms: O_3  and  C_11 
REMARK    3  A    between atoms: O_4  and  C_14 
REMARK    4  A    between atoms: C_8  and  C_13 
ROOT
HETATM    1  O   UNK     0      10.257  -1.839  24.207  0.00  0.00    -0.306 OA
HETATM    2  O   UNK     0       6.908  -0.344  25.981  0.00  0.00    -0.287 OA
HETATM    3  C   UNK     0       8.779   0.050  24.593  0.00  0.00     0.084 A 
HETATM    4  C   UNK     0       9.910  -0.525  24.016  0.00  0.00     0.129 A 
HETATM    5  C   UNK     0       9.451  -2.624  25.018  0.00  0.00     0.090 A 
HETATM    6  C   UNK     0      10.744   0.240  23.200  0.00  0.00     0.136 A 
HETATM    7  C   UNK     0       7.917  -0.782  25.445  0.00  0.00     0.190 A 
HETATM    8  C   UNK     0       8.474   1.393  24.362  0.00  0.00     0.085 A 
HETATM    9  C   UNK     0       8.335  -2.187  25.622  0.00  0.00     0.094 A 
HETATM   10  C   UNK     0      10.443   1.583  22.967  0.00  0.00     0.104 A 
HETATM   11  C   UNK     0       9.310   2.158  23.546  0.00  0.00     0.077 A 
ENDROOT
BRANCH   5  12
HETATM   12  C   UNK     0       9.913  -4.020  25.152  0.00  0.00    -0.002 A 
HETATM   13  C   UNK     0       9.367  -4.849  26.135  0.00  0.00     0.014 A 
HETATM   14  C   UNK     0       9.802  -6.167  26.262  0.00  0.00     0.001 A 
HETATM   15  C   UNK     0      10.785  -6.663  25.404  0.00  0.00     0.000 A 
HETATM   16  C   UNK     0      11.332  -5.839  24.421  0.00  0.00     0.001 A 
HETATM   17  C   UNK     0      10.897  -4.519  24.295  0.00  0.00     0.014 A 
ENDBRANCH   5  12
BRANCH   6  18
HETATM   18  O   UNK     0      11.852  -0.315  22.632  0.00  0.00    -0.351 OA
HETATM   19  C   UNK     0      13.083  -0.167  23.335  0.00  0.00     0.210 C 
ENDBRANCH   6  18
BRANCH   8  20
HETATM   20  O   UNK     0       7.381   2.000  24.901  0.00  0.00    -0.360 OA
HETATM   21  H   UNK     0       7.354   2.936  24.652  0.00  0.00     0.217 HD
ENDBRANCH   8  20
BRANCH  10  22
HETATM   22  O   UNK     0      11.247   2.345  22.175  0.00  0.00    -0.358 OA
HETATM   23  H   UNK     0      11.828   1.761  21.657  0.00  0.00     0.217 HD
ENDBRANCH  10  22
TORSDOF 4
ENDMDL
MODEL 5
REMARK VINA RESULT:      -6.5      2.266      5.864
REMARK  4 active torsions:
REMARK  status: ('A' for Active; 'I' for Inactive)
REMARK    1  A    between atoms: O_2  and  C_9 
REMARK    2  A    between atoms: O_3  and  C_11 
REMARK    3  A    between atoms: O_4  and  C_14 
REMARK    4  A    between atoms: C_8  and  C_13 
ROOT
HETATM    1  O   UNK     0       9.587  -1.241  21.237  0.00  0.00    -0.306 OA
HETATM    2  O   UNK     0       9.901   2.752  21.985  0.00  0.00    -0.287 OA
HETATM    3  C   UNK     0       9.479   0.587  22.833  0.00  0.00     0.084 A 
HETATM    4  C   UNK     0       9.387  -0.765  22.508  0.00  0.00     0.129 A 
HETATM    5  C   UNK     0       9.884  -0.333  20.232  0.00  0.00     0.090 A 
HETATM    6  C   UNK     0       9.084  -1.701  23.497  0.00  0.00     0.136 A 
HETATM    7  C   UNK     0       9.803   1.551  21.771  0.00  0.00     0.190 A 
HETATM    8  C   UNK     0       9.266   1.015  24.145  0.00  0.00     0.085 A 
HETATM    9  C   UNK     0      10.006   0.990  20.420  0.00  0.00     0.094 A 
HETATM   10  C   UNK     0       8.871  -1.279  24.810  0.00  0.00     0.104 A 
HETATM   11  C   UNK     0       8.962   0.077  25.133  0.00  0.00     0.077 A 
ENDROOT
BRANCH   5  12
HETATM   12  C   UNK     0      10.085  -0.951  18.905  0.00  0.00    -0.002 A 
HETATM   13  C   UNK     0       9.239  -0.623  17.843  0.00  0.00     0.014 A 
HETATM   14  C   UNK     0       9.428  -1.206  16.590  0.00  0.00     0.001 A 
HETATM   15  C   UNK     0      10.465  -2.119  16.396  0.00  0.00     0.000 A 
HETATM   16  C   UNK     0      11.311  -2.449  17.453  0.00  0.00     0.001 A 
HETATM   17  C   UNK     0      11.122  -1.866  18.706  0.00  0.00     0.014 A 
ENDBRANCH   5  12
BRANCH   6  18
HETATM   18  O   UNK     0       8.994  -3.026  23.188  0.00  0.00    -0.351 OA
HETATM   19  C   UNK     0      10.178  -3.807  23.337  0.00  0.00     0.210 C 
ENDBRANCH   6  18
BRANCH   8  20
HETATM   20  O   UNK     0       9.345   2.323  24.512  0.00  0.00    -0.360 OA
HETATM   21  H   UNK     0      10.269   2.590  24.628  0.00  0.00     0.217 HD
ENDBRANCH   8  20
BRANCH  10  22
HETATM   22  O   UNK     0       8.573  -2.179  25.787  0.00  0.00    -0.358 OA
HETATM   23  H   UNK     0       8.427  -3.051  25.381  0.00  0.00     0.217 HD
ENDBRANCH  10  22
TORSDOF 4
ENDMDL
MODEL 6
REMARK VINA RESULT:      -6.4      3.045      6.486
REMARK  4 active torsions:
REMARK  status: ('A' for Active; 'I' for Inactive)
REMARK    1  A    between atoms: O_2  and  C_9 
REMARK    2  A    between atoms: O_3  and  C_11 
REMARK    3  A    between atoms: O_4  and  C_14 
REMARK    4  A    between atoms: C_8  and  C_13 
ROOT
HETATM    1  O   UNK     0      10.260  -2.515  21.380  0.00  0.00    -0.306 OA
HETATM    2  O   UNK     0       9.068   0.743  23.516  0.00  0.00    -0.287 OA
HETATM    3  C   UNK     0       9.764  -1.515  23.538  0.00  0.00     0.084 A 
HETATM    4  C   UNK     0      10.166  -2.590  22.747  0.00  0.00     0.129 A 
HETATM    5  C   UNK     0       9.932  -1.319  20.761  0.00  0.00     0.090 A 
HETATM    6  C   UNK     0      10.497  -3.808  23.342  0.00  0.00     0.136 A 
HETATM    7  C   UNK     0       9.425  -0.242  22.885  0.00  0.00     0.190 A 
HETATM    8  C   UNK     0       9.688  -1.648  24.926  0.00  0.00     0.085 A 
HETATM    9  C   UNK     0       9.539  -0.214  21.413  0.00  0.00     0.094 A 
HETATM   10  C   UNK     0      10.422  -3.946  24.729  0.00  0.00     0.104 A 
HETATM   11  C   UNK     0      10.018  -2.868  25.519  0.00  0.00     0.077 A 
ENDROOT
BRANCH   5  12
HETATM   12  C   UNK     0      10.073  -1.346  19.291  0.00  0.00    -0.002 A 
HETATM   13  C   UNK     0       9.310  -0.487  18.496  0.00  0.00     0.014 A 
HETATM   14  C   UNK     0       9.443  -0.512  17.109  0.00  0.00     0.001 A 
HETATM   15  C   UNK     0      10.340  -1.397  16.510  0.00  0.00     0.000 A 
HETATM   16  C   UNK     0      11.104  -2.256  17.299  0.00  0.00     0.001 A 
HETATM   17  C   UNK     0      10.970  -2.231  18.688  0.00  0.00     0.014 A 
ENDBRANCH   5  12
BRANCH   6  18
HETATM   18  O   UNK     0      10.891  -4.865  22.576  0.00  0.00    -0.351 OA
HETATM   19  C   UNK     0      12.287  -5.159  22.548  0.00  0.00     0.210 C 
ENDBRANCH   6  18
BRANCH   8  20
HETATM   20  O   UNK     0       9.302  -0.628  25.741  0.00  0.00    -0.360 OA
HETATM   21  H   UNK     0       9.987  -0.442  26.400  0.00  0.00     0.217 HD
ENDBRANCH   8  20
BRANCH  10  22
HETATM   22  O   UNK     0      10.739  -5.129  25.324  0.00  0.00    -0.358 OA
HETATM   23  H   UNK     0      10.661  -5.029  26.289  0.00  0.00     0.217 HD
ENDBRANCH  10  22
TORSDOF 4
ENDMDL
MODEL 7
REMARK VINA RESULT:      -6.2      2.380      6.362
REMARK  4 active torsions:
REMARK  status: ('A' for Active; 'I' for Inactive)
REMARK    1  A    between atoms: O_2  and  C_9 
REMARK    2  A    between atoms: O_3  and  C_11 
REMARK    3  A    between atoms: O_4  and  C_14 
REMARK    4  A    between atoms: C_8  and  C_13 
ROOT
HETATM    1  O   UNK     0       9.645  -0.641  22.191  0.00  0.00    -0.306 OA
HETATM    2  O   UNK     0       8.285   2.270  24.697  0.00  0.00    -0.287 OA
HETATM    3  C   UNK     0       8.676  -0.032  24.334  0.00  0.00     0.084 A 
HETATM    4  C   UNK     0       9.157  -0.977  23.429  0.00  0.00     0.129 A 
HETATM    5  C   UNK     0       9.650   0.696  21.824  0.00  0.00     0.090 A 
HETATM    6  C   UNK     0       9.160  -2.330  23.768  0.00  0.00     0.136 A 
HETATM    7  C   UNK     0       8.689   1.388  23.952  0.00  0.00     0.190 A 
HETATM    8  C   UNK     0       8.193  -0.431  25.582  0.00  0.00     0.085 A 
HETATM    9  C   UNK     0       9.220   1.696  22.609  0.00  0.00     0.094 A 
HETATM   10  C   UNK     0       8.677  -2.734  25.014  0.00  0.00     0.104 A 
HETATM   11  C   UNK     0       8.195  -1.786  25.919  0.00  0.00     0.077 A 
ENDROOT
BRANCH   5  12
HETATM   12  C   UNK     0      10.199   0.946  20.476  0.00  0.00    -0.002 A 
HETATM   13  C   UNK     0      11.194   1.909  20.291  0.00  0.00     0.014 A 
HETATM   14  C   UNK     0      11.714   2.145  19.019  0.00  0.00     0.001 A 
HETATM   15  C   UNK     0      11.240   1.418  17.927  0.00  0.00     0.000 A 
HETATM   16  C   UNK     0      10.247   0.456  18.107  0.00  0.00     0.001 A 
HETATM   17  C   UNK     0       9.727   0.220  19.380  0.00  0.00     0.014 A 
ENDBRANCH   5  12
BRANCH   6  18
HETATM   18  O   UNK     0       9.630  -3.260  22.889  0.00  0.00    -0.351 OA
HETATM   19  C   UNK     0      10.993  -3.654  23.031  0.00  0.00     0.210 C 
ENDBRANCH   6  18
BRANCH   8  20
HETATM   20  O   UNK     0       7.713   0.452  26.500  0.00  0.00    -0.360 OA
HETATM   21  H   UNK     0       6.768   0.611  26.358  0.00  0.00     0.217 HD
ENDBRANCH   8  20
BRANCH  10  22
HETATM   22  O   UNK     0       8.671  -4.051  25.360  0.00  0.00    -0.358 OA
HETATM   23  H   UNK     0       8.273  -4.145  26.243  0.00  0.00     0.217 HD
ENDBRANCH  10  22
TORSDOF 4
ENDMDL
MODEL 8
REMARK VINA RESULT:      -6.2      3.968      7.603
REMARK  4 active torsions:
REMARK  status: ('A' for Active; 'I' for Inactive)
REMARK    1  A    between atoms: O_2  and  C_9 
REMARK    2  A    between atoms: O_3  and  C_11 
REMARK    3  A    between atoms: O_4  and  C_14 
REMARK    4  A    between atoms: C_8  and  C_13 
ROOT
HETATM    1  O   UNK     0      10.418  -3.372  23.269  0.00  0.00    -0.306 OA
HETATM    2  O   UNK     0       7.207  -3.361  25.776  0.00  0.00    -0.287 OA
HETATM    3  C   UNK     0       9.234  -4.388  25.131  0.00  0.00     0.084 A 
HETATM    4  C   UNK     0      10.306  -4.333  24.242  0.00  0.00     0.129 A 
HETATM    5  C   UNK     0       9.415  -2.420  23.163  0.00  0.00     0.090 A 
HETATM    6  C   UNK     0      11.327  -5.281  24.320  0.00  0.00     0.136 A 
HETATM    7  C   UNK     0       8.174  -3.375  25.028  0.00  0.00     0.190 A 
HETATM    8  C   UNK     0       9.173  -5.390  26.103  0.00  0.00     0.085 A 
HETATM    9  C   UNK     0       8.339  -2.365  23.963  0.00  0.00     0.094 A 
HETATM   10  C   UNK     0      11.270  -6.284  25.289  0.00  0.00     0.104 A 
HETATM   11  C   UNK     0      10.196  -6.337  26.179  0.00  0.00     0.077 A 
ENDROOT
BRANCH   5  12
HETATM   12  C   UNK     0       9.637  -1.432  22.088  0.00  0.00    -0.002 A 
HETATM   13  C   UNK     0       9.591  -0.065  22.371  0.00  0.00     0.014 A 
HETATM   14  C   UNK     0       9.801   0.869  21.358  0.00  0.00     0.001 A 
HETATM   15  C   UNK     0      10.058   0.438  20.056  0.00  0.00     0.000 A 
HETATM   16  C   UNK     0      10.106  -0.926  19.769  0.00  0.00     0.001 A 
HETATM   17  C   UNK     0       9.895  -1.859  20.784  0.00  0.00     0.014 A 
ENDBRANCH   5  12
BRANCH   6  18
HETATM   18  O   UNK     0      12.379  -5.233  23.454  0.00  0.00    -0.351 OA
HETATM   19  C   UNK     0      12.250  -5.966  22.238  0.00  0.00     0.210 C 
ENDBRANCH   6  18
BRANCH   8  20
HETATM   20  O   UNK     0       8.149  -5.486  26.994  0.00  0.00    -0.360 OA
HETATM   21  H   UNK     0       7.374  -5.894  26.580  0.00  0.00     0.217 HD
ENDBRANCH   8  20
BRANCH  10  22
HETATM   22  O   UNK     0      12.258  -7.217  25.378  0.00  0.00    -0.358 OA
HETATM   23  H   UNK     0      11.899  -8.084  25.121  0.00  0.00     0.217 HD
ENDBRANCH  10  22
TORSDOF 4
ENDMDL
MODEL 9
REMARK VINA RESULT:      -6.2      1.276      3.517
REMARK  4 active torsions:
REMARK  status: ('A' for Active; 'I' for Inactive)
REMARK    1  A    between atoms: O_2  and  C_9 
REMARK    2  A    between atoms: O_3  and  C_11 
REMARK    3  A    between atoms: O_4  and  C_14 
REMARK    4  A    between atoms: C_8  and  C_13 
ROOT
HETATM    1  O   UNK     0      11.248   0.107  22.241  0.00  0.00    -0.306 OA
HETATM    2  O   UNK     0       9.468  -0.745  18.677  0.00  0.00    -0.287 OA
HETATM    3  C   UNK     0      11.007   0.591  19.873  0.00  0.00     0.084 A 
HETATM    4  C   UNK     0      11.578   0.829  21.122  0.00  0.00     0.129 A 
HETATM    5  C   UNK     0      10.299  -0.897  22.123  0.00  0.00     0.090 A 
HETATM    6  C   UNK     0      12.532   1.836  21.273  0.00  0.00     0.136 A 
HETATM    7  C   UNK     0      10.008  -0.479  19.742  0.00  0.00     0.190 A 
HETATM    8  C   UNK     0      11.382   1.357  18.767  0.00  0.00     0.085 A 
HETATM    9  C   UNK     0       9.685  -1.225  20.976  0.00  0.00     0.094 A 
HETATM   10  C   UNK     0      12.909   2.605  20.170  0.00  0.00     0.104 A 
HETATM   11  C   UNK     0      12.336   2.365  18.920  0.00  0.00     0.077 A 
ENDROOT
BRANCH   5  12
HETATM   12  C   UNK     0      10.023  -1.613  23.385  0.00  0.00    -0.002 A 
HETATM   13  C   UNK     0      10.129  -0.947  24.608  0.00  0.00     0.014 A 
HETATM   14  C   UNK     0       9.868  -1.622  25.800  0.00  0.00     0.001 A 
HETATM   15  C   UNK     0       9.500  -2.967  25.772  0.00  0.00     0.000 A 
HETATM   16  C   UNK     0       9.393  -3.637  24.554  0.00  0.00     0.001 A 
HETATM   17  C   UNK     0       9.654  -2.961  23.361  0.00  0.00     0.014 A 
ENDBRANCH   5  12
BRANCH   6  18
HETATM   18  O   UNK     0      13.095   2.075  22.491  0.00  0.00    -0.351 OA
HETATM   19  C   UNK     0      14.323   1.408  22.777  0.00  0.00     0.210 C 
ENDBRANCH   6  18
BRANCH   8  20
HETATM   20  O   UNK     0      10.855   1.163  17.527  0.00  0.00    -0.360 OA
HETATM   21  H   UNK     0      10.188   1.838  17.331  0.00  0.00     0.217 HD
ENDBRANCH   8  20
BRANCH  10  22
HETATM   22  O   UNK     0      13.837   3.592  20.301  0.00  0.00    -0.358 OA
HETATM   23  H   UNK     0      14.460   3.352  21.009  0.00  0.00     0.217 HD
ENDBRANCH  10  22
TORSDOF 4
ENDMDL
MODEL 10
REMARK VINA RESULT:      -6.2      5.273      6.812
REMARK  4 active torsions:
REMARK  status: ('A' for Active; 'I' for Inactive)
REMARK    1  A    between atoms: O_2  and  C_9 
REMARK    2  A    between atoms: O_3  and  C_11 
REMARK    3  A    between atoms: O_4  and  C_14 
REMARK    4  A    between atoms: C_8  and  C_13 
ROOT
HETATM    1  O   UNK     0       9.865  -4.509  23.396  0.00  0.00    -0.306 OA
HETATM    2  O   UNK     0      13.254  -2.565  24.552  0.00  0.00    -0.287 OA
HETATM    3  C   UNK     0      10.901  -2.731  24.688  0.00  0.00     0.084 A 
HETATM    4  C   UNK     0       9.783  -3.441  24.254  0.00  0.00     0.129 A 
HETATM    5  C   UNK     0      11.116  -4.891  22.936  0.00  0.00     0.090 A 
HETATM    6  C   UNK     0       8.510  -3.076  24.695  0.00  0.00     0.136 A 
HETATM    7  C   UNK     0      12.230  -3.140  24.211  0.00  0.00     0.190 A 
HETATM    8  C   UNK     0      10.757  -1.653  25.564  0.00  0.00     0.085 A 
HETATM    9  C   UNK     0      12.265  -4.292  23.287  0.00  0.00     0.094 A 
HETATM   10  C   UNK     0       8.362  -1.998  25.569  0.00  0.00     0.104 A 
HETATM   11  C   UNK     0       9.483  -1.289  26.003  0.00  0.00     0.077 A 
ENDROOT
BRANCH   5  12
HETATM   12  C   UNK     0      11.091  -6.052  22.024  0.00  0.00    -0.002 A 
HETATM   13  C   UNK     0      10.984  -7.346  22.538  0.00  0.00     0.014 A 
HETATM   14  C   UNK     0      10.959  -8.443  21.677  0.00  0.00     0.001 A 
HETATM   15  C   UNK     0      11.042  -8.249  20.298  0.00  0.00     0.000 A 
HETATM   16  C   UNK     0      11.149  -6.958  19.780  0.00  0.00     0.001 A 
HETATM   17  C   UNK     0      11.174  -5.861  20.642  0.00  0.00     0.014 A 
ENDBRANCH   5  12
BRANCH   6  18
HETATM   18  O   UNK     0       7.411  -3.765  24.275  0.00  0.00    -0.351 OA
HETATM   19  C   UNK     0       7.118  -4.988  24.948  0.00  0.00     0.210 C 
ENDBRANCH   6  18
BRANCH   8  20
HETATM   20  O   UNK     0      11.818  -0.930  26.017  0.00  0.00    -0.360 OA
HETATM   21  H   UNK     0      11.818  -0.043  25.625  0.00  0.00     0.217 HD
ENDBRANCH   8  20
BRANCH  10  22
HETATM   22  O   UNK     0       7.127  -1.628  26.008  0.00  0.00    -0.358 OA
HETATM   23  H   UNK     0       7.158  -0.700  26.298  0.00  0.00     0.217 HD
ENDBRANCH  10  22
TORSDOF 4
ENDMDL
