MODEL 1
REMARK VINA RESULT:      -3.8      0.000      0.000
REMARK  9 active torsions:
REMARK  status: ('A' for Active; 'I' for Inactive)
REMARK    1  A    between atoms: S_1  and  S_2 
REMARK    2  A    between atoms: S_1  and  C_15 
REMARK    3  A    between atoms: S_2  and  C_16 
REMARK    4  A    between atoms: N_5  and  C_7 
REMARK    5  A    between atoms: N_5  and  C_8 
REMARK    6  A    between atoms: N_5  and  C_15 
REMARK    7  A    between atoms: N_6  and  C_9 
REMARK    8  A    between atoms: N_6  and  C_10 
REMARK    9  A    between atoms: N_6  and  C_16 
ROOT
HETATM    1  S   MOL     1       9.734  -0.996  22.781  1.00  0.00    -0.020 SA
ENDROOT
BRANCH   1   2
HETATM    2  S   MOL     1      10.013   1.023  22.467  1.00  0.00    -0.020 SA
BRANCH   2   3
HETATM    3  C   MOL     1      11.569   1.038  21.608  1.00  0.00     0.147 C 
HETATM    4  S   MOL     1      12.981   0.822  22.512  1.00  0.00    -0.052 SA
BRANCH   3   5
HETATM    5  N   MOL     1      11.511   1.205  20.209  1.00  0.00    -0.367 N 
BRANCH   5   6
HETATM    6  C   MOL     1      11.312   0.078  19.294  1.00  0.00     0.120 C 
HETATM    7  C   MOL     1      10.711   0.530  17.980  1.00  0.00     0.026 C 
ENDBRANCH   5   6
BRANCH   5   8
HETATM    8  C   MOL     1      11.618   2.499  19.528  1.00  0.00     0.120 C 
HETATM    9  C   MOL     1      13.064   2.906  19.336  1.00  0.00     0.026 C 
ENDBRANCH   5   8
ENDBRANCH   3   5
ENDBRANCH   2   3
ENDBRANCH   1   2
BRANCH   1  10
HETATM   10  C   MOL     1       9.727  -1.083  24.555  1.00  0.00     0.147 C 
HETATM   11  S   MOL     1      11.210  -1.005  25.365  1.00  0.00    -0.052 SA
BRANCH  10  12
HETATM   12  N   MOL     1       8.464  -1.188  25.172  1.00  0.00    -0.367 N 
BRANCH  12  13
HETATM   13  C   MOL     1       7.646  -2.405  25.173  1.00  0.00     0.120 C 
HETATM   14  C   MOL     1       8.365  -3.556  25.848  1.00  0.00     0.026 C 
ENDBRANCH  12  13
BRANCH  12  15
HETATM   15  C   MOL     1       7.835  -0.061  25.865  1.00  0.00     0.120 C 
HETATM   16  C   MOL     1       6.908   0.708  24.947  1.00  0.00     0.026 C 
ENDBRANCH  12  15
ENDBRANCH  10  12
ENDBRANCH   1  10
TORSDOF 9
ENDMDL
MODEL 2
REMARK VINA RESULT:      -3.8      2.586      3.730
REMARK  9 active torsions:
REMARK  status: ('A' for Active; 'I' for Inactive)
REMARK    1  A    between atoms: S_1  and  S_2 
REMARK    2  A    between atoms: S_1  and  C_15 
REMARK    3  A    between atoms: S_2  and  C_16 
REMARK    4  A    between atoms: N_5  and  C_7 
REMARK    5  A    between atoms: N_5  and  C_8 
REMARK    6  A    between atoms: N_5  and  C_15 
REMARK    7  A    between atoms: N_6  and  C_9 
REMARK    8  A    between atoms: N_6  and  C_10 
REMARK    9  A    between atoms: N_6  and  C_16 
ROOT
HETATM    1  S   MOL     1      11.174  -2.216  23.632  1.00  0.00    -0.020 SA
ENDROOT
BRANCH   1   2
HETATM    2  S   MOL     1       9.618  -2.285  22.281  1.00  0.00    -0.020 SA
BRANCH   2   3
HETATM    3  C   MOL     1       9.803  -0.726  21.446  1.00  0.00     0.147 C 
HETATM    4  S   MOL     1      10.023  -0.740  19.770  1.00  0.00    -0.052 SA
BRANCH   3   5
HETATM    5  N   MOL     1       9.726   0.429  22.251  1.00  0.00    -0.367 N 
BRANCH   5   6
HETATM    6  C   MOL     1      10.608   1.581  22.051  1.00  0.00     0.120 C 
HETATM    7  C   MOL     1      12.063   1.206  22.238  1.00  0.00     0.026 C 
ENDBRANCH   5   6
BRANCH   5   8
HETATM    8  C   MOL     1       8.762   0.613  23.341  1.00  0.00     0.120 C 
HETATM    9  C   MOL     1       8.945   1.952  24.022  1.00  0.00     0.026 C 
ENDBRANCH   5   8
ENDBRANCH   3   5
ENDBRANCH   2   3
ENDBRANCH   1   2
BRANCH   1  10
HETATM   10  C   MOL     1      10.329  -2.523  25.164  1.00  0.00     0.147 C 
HETATM   11  S   MOL     1      10.135  -1.234  26.243  1.00  0.00    -0.052 SA
BRANCH  10  12
HETATM   12  N   MOL     1       9.851  -3.834  25.364  1.00  0.00    -0.367 N 
BRANCH  12  13
HETATM   13  C   MOL     1      10.576  -5.045  24.966  1.00  0.00     0.120 C 
HETATM   14  C   MOL     1      10.244  -6.213  25.873  1.00  0.00     0.026 C 
ENDBRANCH  12  13
BRANCH  12  15
HETATM   15  C   MOL     1       8.551  -4.108  25.982  1.00  0.00     0.120 C 
HETATM   16  C   MOL     1       7.409  -3.791  25.040  1.00  0.00     0.026 C 
ENDBRANCH  12  15
ENDBRANCH  10  12
ENDBRANCH   1  10
TORSDOF 9
ENDMDL
MODEL 3
REMARK VINA RESULT:      -3.5      2.351      6.520
REMARK  9 active torsions:
REMARK  status: ('A' for Active; 'I' for Inactive)
REMARK    1  A    between atoms: S_1  and  S_2 
REMARK    2  A    between atoms: S_1  and  C_15 
REMARK    3  A    between atoms: S_2  and  C_16 
REMARK    4  A    between atoms: N_5  and  C_7 
REMARK    5  A    between atoms: N_5  and  C_8 
REMARK    6  A    between atoms: N_5  and  C_15 
REMARK    7  A    between atoms: N_6  and  C_9 
REMARK    8  A    between atoms: N_6  and  C_10 
REMARK    9  A    between atoms: N_6  and  C_16 
ROOT
HETATM    1  S   MOL     1       9.754  -1.340  21.543  1.00  0.00    -0.020 SA
ENDROOT
BRANCH   1   2
HETATM    2  S   MOL     1       9.965  -0.973  23.561  1.00  0.00    -0.020 SA
BRANCH   2   3
HETATM    3  C   MOL     1      11.039  -2.301  24.054  1.00  0.00     0.147 C 
HETATM    4  S   MOL     1      12.653  -1.934  24.400  1.00  0.00    -0.052 SA
BRANCH   3   5
HETATM    5  N   MOL     1      10.453  -3.580  24.147  1.00  0.00    -0.367 N 
BRANCH   5   6
HETATM    6  C   MOL     1      11.233  -4.810  23.988  1.00  0.00     0.120 C 
HETATM    7  C   MOL     1      11.422  -5.163  22.528  1.00  0.00     0.026 C 
ENDBRANCH   5   6
BRANCH   5   8
HETATM    8  C   MOL     1       9.034  -3.819  24.428  1.00  0.00     0.120 C 
HETATM    9  C   MOL     1       8.765  -3.866  25.918  1.00  0.00     0.026 C 
ENDBRANCH   5   8
ENDBRANCH   3   5
ENDBRANCH   2   3
ENDBRANCH   1   2
BRANCH   1  10
HETATM   10  C   MOL     1       9.918   0.293  20.865  1.00  0.00     0.147 C 
HETATM   11  S   MOL     1       9.971   1.601  21.936  1.00  0.00    -0.052 SA
BRANCH  10  12
HETATM   12  N   MOL     1      10.018   0.382  19.462  1.00  0.00    -0.367 N 
BRANCH  12  13
HETATM   13  C   MOL     1       8.899   0.158  18.540  1.00  0.00     0.120 C 
HETATM   14  C   MOL     1       9.184  -0.987  17.590  1.00  0.00     0.026 C 
ENDBRANCH  12  13
BRANCH  12  15
HETATM   15  C   MOL     1      11.279   0.694  18.785  1.00  0.00     0.120 C 
HETATM   16  C   MOL     1      11.393   2.172  18.476  1.00  0.00     0.026 C 
ENDBRANCH  12  15
ENDBRANCH  10  12
ENDBRANCH   1  10
TORSDOF 9
ENDMDL
MODEL 4
REMARK VINA RESULT:      -3.5      3.506      6.674
REMARK  9 active torsions:
REMARK  status: ('A' for Active; 'I' for Inactive)
REMARK    1  A    between atoms: S_1  and  S_2 
REMARK    2  A    between atoms: S_1  and  C_15 
REMARK    3  A    between atoms: S_2  and  C_16 
REMARK    4  A    between atoms: N_5  and  C_7 
REMARK    5  A    between atoms: N_5  and  C_8 
REMARK    6  A    between atoms: N_5  and  C_15 
REMARK    7  A    between atoms: N_6  and  C_9 
REMARK    8  A    between atoms: N_6  and  C_10 
REMARK    9  A    between atoms: N_6  and  C_16 
ROOT
HETATM    1  S   MOL     1      11.329  -2.818  24.071  1.00  0.00    -0.020 SA
ENDROOT
BRANCH   1   2
HETATM    2  S   MOL     1      10.965  -4.381  22.777  1.00  0.00    -0.020 SA
BRANCH   2   3
HETATM    3  C   MOL     1      11.552  -5.768  23.721  1.00  0.00     0.147 C 
HETATM    4  S   MOL     1      13.206  -6.117  23.682  1.00  0.00    -0.052 SA
BRANCH   3   5
HETATM    5  N   MOL     1      10.585  -6.473  24.467  1.00  0.00    -0.367 N 
BRANCH   5   6
HETATM    6  C   MOL     1       9.745  -7.515  23.871  1.00  0.00     0.120 C 
HETATM    7  C   MOL     1      10.347  -8.891  24.065  1.00  0.00     0.026 C 
ENDBRANCH   5   6
BRANCH   5   8
HETATM    8  C   MOL     1      10.331  -6.263  25.896  1.00  0.00     0.120 C 
HETATM    9  C   MOL     1       9.188  -5.295  26.119  1.00  0.00     0.026 C 
ENDBRANCH   5   8
ENDBRANCH   3   5
ENDBRANCH   2   3
ENDBRANCH   1   2
BRANCH   1  10
HETATM   10  C   MOL     1      10.237  -1.569  23.435  1.00  0.00     0.147 C 
HETATM   11  S   MOL     1       9.750  -1.680  21.819  1.00  0.00    -0.052 SA
BRANCH  10  12
HETATM   12  N   MOL     1       9.829  -0.572  24.345  1.00  0.00    -0.367 N 
BRANCH  12  13
HETATM   13  C   MOL     1       9.145  -0.843  25.613  1.00  0.00     0.120 C 
HETATM   14  C   MOL     1       7.920  -1.711  25.408  1.00  0.00     0.026 C 
ENDBRANCH  12  13
BRANCH  12  15
HETATM   15  C   MOL     1      10.041   0.855  24.089  1.00  0.00     0.120 C 
HETATM   16  C   MOL     1       8.728   1.590  23.918  1.00  0.00     0.026 C 
ENDBRANCH  12  15
ENDBRANCH  10  12
ENDBRANCH   1  10
TORSDOF 9
ENDMDL
MODEL 5
REMARK VINA RESULT:      -3.3      5.706      7.550
REMARK  9 active torsions:
REMARK  status: ('A' for Active; 'I' for Inactive)
REMARK    1  A    between atoms: S_1  and  S_2 
REMARK    2  A    between atoms: S_1  and  C_15 
REMARK    3  A    between atoms: S_2  and  C_16 
REMARK    4  A    between atoms: N_5  and  C_7 
REMARK    5  A    between atoms: N_5  and  C_8 
REMARK    6  A    between atoms: N_5  and  C_15 
REMARK    7  A    between atoms: N_6  and  C_9 
REMARK    8  A    between atoms: N_6  and  C_10 
REMARK    9  A    between atoms: N_6  and  C_16 
ROOT
HETATM    1  S   MOL     1      10.590  -6.082  25.211  1.00  0.00    -0.020 SA
ENDROOT
BRANCH   1   2
HETATM    2  S   MOL     1      12.126  -6.759  24.013  1.00  0.00    -0.020 SA
BRANCH   2   3
HETATM    3  C   MOL     1      11.365  -8.151  23.212  1.00  0.00     0.147 C 
HETATM    4  S   MOL     1      10.570  -9.290  24.176  1.00  0.00    -0.052 SA
BRANCH   3   5
HETATM    5  N   MOL     1      11.458  -8.193  21.806  1.00  0.00    -0.367 N 
BRANCH   5   6
HETATM    6  C   MOL     1      10.462  -7.560  20.937  1.00  0.00     0.120 C 
HETATM    7  C   MOL     1      11.111  -6.639  19.926  1.00  0.00     0.026 C 
ENDBRANCH   5   6
BRANCH   5   8
HETATM    8  C   MOL     1      12.549  -8.839  21.069  1.00  0.00     0.120 C 
HETATM    9  C   MOL     1      12.157 -10.223  20.598  1.00  0.00     0.026 C 
ENDBRANCH   5   8
ENDBRANCH   3   5
ENDBRANCH   2   3
ENDBRANCH   1   2
BRANCH   1  10
HETATM   10  C   MOL     1      10.066  -4.631  24.331  1.00  0.00     0.147 C 
HETATM   11  S   MOL     1      10.938  -4.172  22.956  1.00  0.00    -0.052 SA
BRANCH  10  12
HETATM   12  N   MOL     1       8.927  -3.970  24.835  1.00  0.00    -0.367 N 
BRANCH  12  13
HETATM   13  C   MOL     1       8.619  -2.557  24.591  1.00  0.00     0.120 C 
HETATM   14  C   MOL     1       8.768  -1.732  25.853  1.00  0.00     0.026 C 
ENDBRANCH  12  13
BRANCH  12  15
HETATM   15  C   MOL     1       7.940  -4.645  25.681  1.00  0.00     0.120 C 
HETATM   16  C   MOL     1       6.915  -5.390  24.851  1.00  0.00     0.026 C 
ENDBRANCH  12  15
ENDBRANCH  10  12
ENDBRANCH   1  10
TORSDOF 9
ENDMDL
MODEL 6
REMARK VINA RESULT:      -3.3      5.093      6.669
REMARK  9 active torsions:
REMARK  status: ('A' for Active; 'I' for Inactive)
REMARK    1  A    between atoms: S_1  and  S_2 
REMARK    2  A    between atoms: S_1  and  C_15 
REMARK    3  A    between atoms: S_2  and  C_16 
REMARK    4  A    between atoms: N_5  and  C_7 
REMARK    5  A    between atoms: N_5  and  C_8 
REMARK    6  A    between atoms: N_5  and  C_15 
REMARK    7  A    between atoms: N_6  and  C_9 
REMARK    8  A    between atoms: N_6  and  C_10 
REMARK    9  A    between atoms: N_6  and  C_16 
ROOT
HETATM    1  S   MOL     1      10.782  -4.472  24.382  1.00  0.00    -0.020 SA
ENDROOT
BRANCH   1   2
HETATM    2  S   MOL     1      11.320  -5.032  22.471  1.00  0.00    -0.020 SA
BRANCH   2   3
HETATM    3  C   MOL     1      11.141  -6.799  22.555  1.00  0.00     0.147 C 
HETATM    4  S   MOL     1       9.864  -7.430  23.467  1.00  0.00    -0.052 SA
BRANCH   3   5
HETATM    5  N   MOL     1      12.076  -7.559  21.823  1.00  0.00    -0.367 N 
BRANCH   5   6
HETATM    6  C   MOL     1      12.119  -7.546  20.359  1.00  0.00     0.120 C 
HETATM    7  C   MOL     1      10.730  -7.633  19.762  1.00  0.00     0.026 C 
ENDBRANCH   5   6
BRANCH   5   8
HETATM    8  C   MOL     1      13.104  -8.411  22.430  1.00  0.00     0.120 C 
HETATM    9  C   MOL     1      13.663  -7.791  23.693  1.00  0.00     0.026 C 
ENDBRANCH   5   8
ENDBRANCH   3   5
ENDBRANCH   2   3
ENDBRANCH   1   2
BRANCH   1  10
HETATM   10  C   MOL     1       9.483  -3.305  24.058  1.00  0.00     0.147 C 
HETATM   11  S   MOL     1       9.553  -2.409  22.625  1.00  0.00    -0.052 SA
BRANCH  10  12
HETATM   12  N   MOL     1       8.458  -3.225  25.022  1.00  0.00    -0.367 N 
BRANCH  12  13
HETATM   13  C   MOL     1       7.887  -4.384  25.717  1.00  0.00     0.120 C 
HETATM   14  C   MOL     1       7.032  -5.220  24.787  1.00  0.00     0.026 C 
ENDBRANCH  12  13
BRANCH  12  15
HETATM   15  C   MOL     1       7.847  -1.952  25.412  1.00  0.00     0.120 C 
HETATM   16  C   MOL     1       8.863  -1.013  26.028  1.00  0.00     0.026 C 
ENDBRANCH  12  15
ENDBRANCH  10  12
ENDBRANCH   1  10
TORSDOF 9
ENDMDL
MODEL 7
REMARK VINA RESULT:      -3.2      5.105      7.130
REMARK  9 active torsions:
REMARK  status: ('A' for Active; 'I' for Inactive)
REMARK    1  A    between atoms: S_1  and  S_2 
REMARK    2  A    between atoms: S_1  and  C_15 
REMARK    3  A    between atoms: S_2  and  C_16 
REMARK    4  A    between atoms: N_5  and  C_7 
REMARK    5  A    between atoms: N_5  and  C_8 
REMARK    6  A    between atoms: N_5  and  C_15 
REMARK    7  A    between atoms: N_6  and  C_9 
REMARK    8  A    between atoms: N_6  and  C_10 
REMARK    9  A    between atoms: N_6  and  C_16 
ROOT
HETATM    1  S   MOL     1      11.529  -4.402  23.462  1.00  0.00    -0.020 SA
ENDROOT
BRANCH   1   2
HETATM    2  S   MOL     1      11.300  -5.334  21.637  1.00  0.00    -0.020 SA
BRANCH   2   3
HETATM    3  C   MOL     1      12.480  -6.658  21.763  1.00  0.00     0.147 C 
HETATM    4  S   MOL     1      14.095  -6.325  21.390  1.00  0.00    -0.052 SA
BRANCH   3   5
HETATM    5  N   MOL     1      11.980  -7.903  22.197  1.00  0.00    -0.367 N 
BRANCH   5   6
HETATM    6  C   MOL     1      11.787  -9.030  21.282  1.00  0.00     0.120 C 
HETATM    7  C   MOL     1      11.034  -8.611  20.036  1.00  0.00     0.026 C 
ENDBRANCH   5   6
BRANCH   5   8
HETATM    8  C   MOL     1      11.627  -8.211  23.587  1.00  0.00     0.120 C 
HETATM    9  C   MOL     1      10.126  -8.270  23.777  1.00  0.00     0.026 C 
ENDBRANCH   5   8
ENDBRANCH   3   5
ENDBRANCH   2   3
ENDBRANCH   1   2
BRANCH   1  10
HETATM   10  C   MOL     1      10.058  -3.409  23.541  1.00  0.00     0.147 C 
HETATM   11  S   MOL     1       9.751  -2.333  22.273  1.00  0.00    -0.052 SA
BRANCH  10  12
HETATM   12  N   MOL     1       9.227  -3.609  24.662  1.00  0.00    -0.367 N 
BRANCH  12  13
HETATM   13  C   MOL     1       8.849  -2.554  25.607  1.00  0.00     0.120 C 
HETATM   14  C   MOL     1      10.043  -1.707  25.999  1.00  0.00     0.026 C 
ENDBRANCH  12  13
BRANCH  12  15
HETATM   15  C   MOL     1       8.670  -4.922  24.998  1.00  0.00     0.120 C 
HETATM   16  C   MOL     1       8.096  -4.938  26.400  1.00  0.00     0.026 C 
ENDBRANCH  12  15
ENDBRANCH  10  12
ENDBRANCH   1  10
TORSDOF 9
ENDMDL
MODEL 8
REMARK VINA RESULT:      -3.2      3.647      6.474
REMARK  9 active torsions:
REMARK  status: ('A' for Active; 'I' for Inactive)
REMARK    1  A    between atoms: S_1  and  S_2 
REMARK    2  A    between atoms: S_1  and  C_15 
REMARK    3  A    between atoms: S_2  and  C_16 
REMARK    4  A    between atoms: N_5  and  C_7 
REMARK    5  A    between atoms: N_5  and  C_8 
REMARK    6  A    between atoms: N_5  and  C_15 
REMARK    7  A    between atoms: N_6  and  C_9 
REMARK    8  A    between atoms: N_6  and  C_10 
REMARK    9  A    between atoms: N_6  and  C_16 
ROOT
HETATM    1  S   MOL     1      12.668  -0.275  24.189  1.00  0.00    -0.020 SA
ENDROOT
BRANCH   1   2
HETATM    2  S   MOL     1      11.348   0.698  22.938  1.00  0.00    -0.020 SA
BRANCH   2   3
HETATM    3  C   MOL     1       9.887  -0.298  23.119  1.00  0.00     0.147 C 
HETATM    4  S   MOL     1       9.716  -1.653  22.123  1.00  0.00    -0.052 SA
BRANCH   3   5
HETATM    5  N   MOL     1       8.973   0.106  24.114  1.00  0.00    -0.367 N 
BRANCH   5   6
HETATM    6  C   MOL     1       8.471   1.479  24.204  1.00  0.00     0.120 C 
HETATM    7  C   MOL     1       7.045   1.517  24.712  1.00  0.00     0.026 C 
ENDBRANCH   5   6
BRANCH   5   8
HETATM    8  C   MOL     1       8.416  -0.788  25.135  1.00  0.00     0.120 C 
HETATM    9  C   MOL     1       9.476  -1.230  26.122  1.00  0.00     0.026 C 
ENDBRANCH   5   8
ENDBRANCH   3   5
ENDBRANCH   2   3
ENDBRANCH   1   2
BRANCH   1  10
HETATM   10  C   MOL     1      14.194   0.551  23.808  1.00  0.00     0.147 C 
HETATM   11  S   MOL     1      14.556   0.852  22.183  1.00  0.00    -0.052 SA
BRANCH  10  12
HETATM   12  N   MOL     1      14.995   0.924  24.906  1.00  0.00    -0.367 N 
BRANCH  12  13
HETATM   13  C   MOL     1      14.653   0.651  26.307  1.00  0.00     0.120 C 
HETATM   14  C   MOL     1      15.757  -0.113  27.008  1.00  0.00     0.026 C 
ENDBRANCH  12  13
BRANCH  12  15
HETATM   15  C   MOL     1      16.257   1.649  24.744  1.00  0.00     0.120 C 
HETATM   16  C   MOL     1      16.106   3.114  25.099  1.00  0.00     0.026 C 
ENDBRANCH  12  15
ENDBRANCH  10  12
ENDBRANCH   1  10
TORSDOF 9
ENDMDL
MODEL 9
REMARK VINA RESULT:      -2.9      3.955      5.263
REMARK  9 active torsions:
REMARK  status: ('A' for Active; 'I' for Inactive)
REMARK    1  A    between atoms: S_1  and  S_2 
REMARK    2  A    between atoms: S_1  and  C_15 
REMARK    3  A    between atoms: S_2  and  C_16 
REMARK    4  A    between atoms: N_5  and  C_7 
REMARK    5  A    between atoms: N_5  and  C_8 
REMARK    6  A    between atoms: N_5  and  C_15 
REMARK    7  A    between atoms: N_6  and  C_9 
REMARK    8  A    between atoms: N_6  and  C_10 
REMARK    9  A    between atoms: N_6  and  C_16 
ROOT
HETATM    1  S   MOL     1      11.647  -0.572  23.535  1.00  0.00    -0.020 SA
ENDROOT
BRANCH   1   2
HETATM    2  S   MOL     1      13.157  -0.536  24.939  1.00  0.00    -0.020 SA
BRANCH   2   3
HETATM    3  C   MOL     1      14.361   0.500  24.140  1.00  0.00     0.147 C 
HETATM    4  S   MOL     1      14.009   1.086  22.593  1.00  0.00    -0.052 SA
BRANCH   3   5
HETATM    5  N   MOL     1      15.530   0.785  24.875  1.00  0.00    -0.367 N 
BRANCH   5   6
HETATM    6  C   MOL     1      16.836   0.950  24.233  1.00  0.00     0.120 C 
HETATM    7  C   MOL     1      17.359   2.362  24.394  1.00  0.00     0.026 C 
ENDBRANCH   5   6
BRANCH   5   8
HETATM    8  C   MOL     1      15.566   0.966  26.330  1.00  0.00     0.120 C 
HETATM    9  C   MOL     1      16.228  -0.209  27.018  1.00  0.00     0.026 C 
ENDBRANCH   5   8
ENDBRANCH   3   5
ENDBRANCH   2   3
ENDBRANCH   1   2
BRANCH   1  10
HETATM   10  C   MOL     1      10.211  -0.329  24.552  1.00  0.00     0.147 C 
HETATM   11  S   MOL     1       9.977  -1.368  25.866  1.00  0.00    -0.052 SA
BRANCH  10  12
HETATM   12  N   MOL     1       9.368   0.745  24.198  1.00  0.00    -0.367 N 
BRANCH  12  13
HETATM   13  C   MOL     1       7.907   0.723  24.328  1.00  0.00     0.120 C 
HETATM   14  C   MOL     1       7.423   1.764  25.316  1.00  0.00     0.026 C 
ENDBRANCH  12  13
BRANCH  12  15
HETATM   15  C   MOL     1       9.886   1.997  23.642  1.00  0.00     0.120 C 
HETATM   16  C   MOL     1       9.751   2.032  22.134  1.00  0.00     0.026 C 
ENDBRANCH  12  15
ENDBRANCH  10  12
ENDBRANCH   1  10
TORSDOF 9
ENDMDL
MODEL 10
REMARK VINA RESULT:      -2.9      3.618      4.801
REMARK  9 active torsions:
REMARK  status: ('A' for Active; 'I' for Inactive)
REMARK    1  A    between atoms: S_1  and  S_2 
REMARK    2  A    between atoms: S_1  and  C_15 
REMARK    3  A    between atoms: S_2  and  C_16 
REMARK    4  A    between atoms: N_5  and  C_7 
REMARK    5  A    between atoms: N_5  and  C_8 
REMARK    6  A    between atoms: N_5  and  C_15 
REMARK    7  A    between atoms: N_6  and  C_9 
REMARK    8  A    between atoms: N_6  and  C_10 
REMARK    9  A    between atoms: N_6  and  C_16 
ROOT
HETATM    1  S   MOL     1      11.320  -0.275  22.925  1.00  0.00    -0.020 SA
ENDROOT
BRANCH   1   2
HETATM    2  S   MOL     1      12.780  -0.434  24.372  1.00  0.00    -0.020 SA
BRANCH   2   3
HETATM    3  C   MOL     1      14.080   0.558  23.676  1.00  0.00     0.147 C 
HETATM    4  S   MOL     1      13.718   1.522  22.336  1.00  0.00    -0.052 SA
BRANCH   3   5
HETATM    5  N   MOL     1      15.334   0.487  24.318  1.00  0.00    -0.367 N 
BRANCH   5   6
HETATM    6  C   MOL     1      16.141  -0.736  24.325  1.00  0.00     0.120 C 
HETATM    7  C   MOL     1      17.591  -0.445  24.000  1.00  0.00     0.026 C 
ENDBRANCH   5   6
BRANCH   5   8
HETATM    8  C   MOL     1      15.968   1.610  25.016  1.00  0.00     0.120 C 
HETATM    9  C   MOL     1      15.539   1.674  26.467  1.00  0.00     0.026 C 
ENDBRANCH   5   8
ENDBRANCH   3   5
ENDBRANCH   2   3
ENDBRANCH   1   2
BRANCH   1  10
HETATM   10  C   MOL     1       9.918   0.239  23.888  1.00  0.00     0.147 C 
HETATM   11  S   MOL     1       9.398   1.842  23.748  1.00  0.00    -0.052 SA
BRANCH  10  12
HETATM   12  N   MOL     1       9.316  -0.748  24.694  1.00  0.00    -0.367 N 
BRANCH  12  13
HETATM   13  C   MOL     1       8.582  -0.466  25.932  1.00  0.00     0.120 C 
HETATM   14  C   MOL     1       7.084  -0.481  25.703  1.00  0.00     0.026 C 
ENDBRANCH  12  13
BRANCH  12  15
HETATM   15  C   MOL     1       9.388  -2.175  24.369  1.00  0.00     0.120 C 
HETATM   16  C   MOL     1      10.012  -2.970  25.497  1.00  0.00     0.026 C 
ENDBRANCH  12  15
ENDBRANCH  10  12
ENDBRANCH   1  10
TORSDOF 9
ENDMDL
