MODEL 1
REMARK VINA RESULT:      -7.8      0.000      0.000
REMARK  10 active torsions:
REMARK  status: ('A' for Active; 'I' for Inactive)
REMARK    1  A    between atoms: O_2  and  C_15 
REMARK    2  A    between atoms: O_2  and  C_18 
REMARK    3  A    between atoms: O_3  and  C_12 
REMARK    4  A    between atoms: O_4  and  C_13 
REMARK    5  A    between atoms: O_5  and  C_14 
REMARK    6  A    between atoms: O_6  and  C_17 
REMARK    7  A    between atoms: O_9  and  C_19 
REMARK    8  A    between atoms: O_10  and  C_23 
REMARK    9  A    between atoms: C_16  and  C_17 
REMARK   10  A    between atoms: C_25  and  C_27 
ROOT
HETATM    1  O   UNK     0      10.626   0.093  21.234  0.00  0.00    -0.340 OA
HETATM    2  C   UNK     0      12.351   2.036  20.007  0.00  0.00     0.183 C 
HETATM    3  C   UNK     0      12.632   1.449  21.391  0.00  0.00     0.205 C 
HETATM    4  C   UNK     0      11.441   1.121  19.188  0.00  0.00     0.189 C 
HETATM    5  C   UNK     0      11.340   0.998  22.073  0.00  0.00     0.299 C 
HETATM    6  C   UNK     0      10.229   0.692  20.006  0.00  0.00     0.253 C 
ENDROOT
BRANCH   5   7
HETATM    7  O   UNK     0      11.691   0.348  23.294  0.00  0.00    -0.315 OA
BRANCH   7   8
HETATM    8  C   UNK     0      10.781  -0.534  23.800  0.00  0.00     0.111 A 
HETATM    9  C   UNK     0      11.081  -1.894  23.880  0.00  0.00     0.137 A 
HETATM   10  C   UNK     0      10.139  -2.783  24.401  0.00  0.00     0.129 A 
HETATM   11  O   UNK     0      10.491  -4.107  24.454  0.00  0.00    -0.306 OA
HETATM   12  C   UNK     0       8.904  -2.310  24.840  0.00  0.00     0.084 A 
HETATM   13  C   UNK     0       9.579  -5.013  24.973  0.00  0.00     0.090 A 
HETATM   14  C   UNK     0       8.356  -4.682  25.420  0.00  0.00     0.094 A 
HETATM   15  C   UNK     0       7.930  -3.269  25.383  0.00  0.00     0.190 A 
HETATM   16  O   UNK     0       6.827  -2.924  25.784  0.00  0.00    -0.287 OA
HETATM   17  C   UNK     0       8.600  -0.949  24.761  0.00  0.00     0.085 A 
HETATM   18  C   UNK     0       9.543  -0.063  24.240  0.00  0.00     0.077 A 
BRANCH   9  19
HETATM   19  O   UNK     0      12.293  -2.350  23.449  0.00  0.00    -0.351 OA
HETATM   20  C   UNK     0      13.407  -2.143  24.315  0.00  0.00     0.210 C 
ENDBRANCH   9  19
BRANCH  13  21
HETATM   21  C   UNK     0      10.055  -6.410  24.977  0.00  0.00    -0.002 A 
HETATM   22  C   UNK     0      10.757  -6.910  26.078  0.00  0.00     0.014 A 
HETATM   23  C   UNK     0      11.206  -8.230  26.082  0.00  0.00     0.001 A 
HETATM   24  C   UNK     0      10.956  -9.056  24.986  0.00  0.00     0.000 A 
HETATM   25  C   UNK     0      10.256  -8.561  23.885  0.00  0.00     0.001 A 
HETATM   26  C   UNK     0       9.807  -7.240  23.881  0.00  0.00     0.014 A 
ENDBRANCH  13  21
BRANCH  17  27
HETATM   27  O   UNK     0       7.407  -0.439  25.176  0.00  0.00    -0.360 OA
HETATM   28  H   UNK     0       6.694  -0.714  24.580  0.00  0.00     0.217 HD
ENDBRANCH  17  27
ENDBRANCH   7   8
ENDBRANCH   5   7
BRANCH   6  29
HETATM   29  C   UNK     0       9.477  -0.400  19.317  0.00  0.00     0.172 C 
HETATM   30  O   UNK     0       9.615  -1.595  19.539  0.00  0.00    -0.648 OA
BRANCH  29  31
HETATM   31  O   UNK     0       8.619   0.111  18.403  0.00  0.00    -0.774 OA
HETATM   32  H   UNK     0       8.712  -0.324  17.528  0.00  0.00     0.167 HD
ENDBRANCH  29  31
ENDBRANCH   6  29
BRANCH   3  33
HETATM   33  O   UNK     0      13.247   2.442  22.210  0.00  0.00    -0.388 OA
HETATM   34  H   UNK     0      13.771   3.020  21.631  0.00  0.00     0.210 HD
ENDBRANCH   3  33
BRANCH   4  35
HETATM   35  O   UNK     0      10.987   1.826  18.034  0.00  0.00    -0.390 OA
HETATM   36  H   UNK     0      11.510   2.642  17.954  0.00  0.00     0.210 HD
ENDBRANCH   4  35
BRANCH   2  37
HETATM   37  O   UNK     0      13.581   2.187  19.296  0.00  0.00    -0.390 OA
HETATM   38  H   UNK     0      13.366   2.296  18.354  0.00  0.00     0.210 HD
ENDBRANCH   2  37
TORSDOF 10
ENDMDL
MODEL 2
REMARK VINA RESULT:      -7.8      2.318      8.897
REMARK  10 active torsions:
REMARK  status: ('A' for Active; 'I' for Inactive)
REMARK    1  A    between atoms: O_2  and  C_15 
REMARK    2  A    between atoms: O_2  and  C_18 
REMARK    3  A    between atoms: O_3  and  C_12 
REMARK    4  A    between atoms: O_4  and  C_13 
REMARK    5  A    between atoms: O_5  and  C_14 
REMARK    6  A    between atoms: O_6  and  C_17 
REMARK    7  A    between atoms: O_9  and  C_19 
REMARK    8  A    between atoms: O_10  and  C_23 
REMARK    9  A    between atoms: C_16  and  C_17 
REMARK   10  A    between atoms: C_25  and  C_27 
ROOT
HETATM    1  O   UNK     0       9.273  -1.567  23.849  0.00  0.00    -0.340 OA
HETATM    2  C   UNK     0       8.747  -4.266  24.681  0.00  0.00     0.183 C 
HETATM    3  C   UNK     0       9.918  -3.905  23.767  0.00  0.00     0.205 C 
HETATM    4  C   UNK     0       8.276  -3.058  25.490  0.00  0.00     0.189 C 
HETATM    5  C   UNK     0       9.626  -2.632  22.970  0.00  0.00     0.299 C 
HETATM    6  C   UNK     0       8.089  -1.844  24.588  0.00  0.00     0.253 C 
ENDROOT
BRANCH   5   7
HETATM    7  O   UNK     0      10.804  -2.287  22.244  0.00  0.00    -0.315 OA
BRANCH   7   8
HETATM    8  C   UNK     0      10.643  -1.447  21.181  0.00  0.00     0.111 A 
HETATM    9  C   UNK     0      11.343  -0.241  21.119  0.00  0.00     0.137 A 
HETATM   10  C   UNK     0      11.168   0.607  20.024  0.00  0.00     0.129 A 
HETATM   11  O   UNK     0      11.882   1.777  20.018  0.00  0.00    -0.306 OA
HETATM   12  C   UNK     0      10.295   0.248  18.998  0.00  0.00     0.084 A 
HETATM   13  C   UNK     0      11.733   2.636  18.941  0.00  0.00     0.090 A 
HETATM   14  C   UNK     0      10.920   2.407  17.897  0.00  0.00     0.094 A 
HETATM   15  C   UNK     0      10.128   1.161  17.857  0.00  0.00     0.190 A 
HETATM   16  O   UNK     0       9.378   0.910  16.923  0.00  0.00    -0.287 OA
HETATM   17  C   UNK     0       9.593  -0.958  19.058  0.00  0.00     0.085 A 
HETATM   18  C   UNK     0       9.770  -1.804  20.153  0.00  0.00     0.077 A 
BRANCH   9  19
HETATM   19  O   UNK     0      12.196   0.103  22.127  0.00  0.00    -0.351 OA
HETATM   20  C   UNK     0      11.651   0.859  23.205  0.00  0.00     0.210 C 
ENDBRANCH   9  19
BRANCH  13  21
HETATM   21  C   UNK     0      12.541   3.868  19.039  0.00  0.00    -0.002 A 
HETATM   22  C   UNK     0      13.936   3.800  18.981  0.00  0.00     0.014 A 
HETATM   23  C   UNK     0      14.699   4.964  19.072  0.00  0.00     0.001 A 
HETATM   24  C   UNK     0      14.071   6.200  19.223  0.00  0.00     0.000 A 
HETATM   25  C   UNK     0      12.679   6.273  19.282  0.00  0.00     0.001 A 
HETATM   26  C   UNK     0      11.915   5.108  19.190  0.00  0.00     0.014 A 
ENDBRANCH  13  21
BRANCH  17  27
HETATM   27  O   UNK     0       8.729  -1.353  18.081  0.00  0.00    -0.360 OA
HETATM   28  H   UNK     0       8.898  -2.273  17.829  0.00  0.00     0.217 HD
ENDBRANCH  17  27
ENDBRANCH   7   8
ENDBRANCH   5   7
BRANCH   6  29
HETATM   29  C   UNK     0       7.888  -0.603  25.395  0.00  0.00     0.172 C 
HETATM   30  O   UNK     0       8.646   0.357  25.407  0.00  0.00    -0.648 OA
BRANCH  29  31
HETATM   31  O   UNK     0       6.748  -0.683  26.123  0.00  0.00    -0.774 OA
HETATM   32  H   UNK     0       5.966  -0.868  25.561  0.00  0.00     0.167 HD
ENDBRANCH  29  31
ENDBRANCH   6  29
BRANCH   3  33
HETATM   33  O   UNK     0      10.145  -4.968  22.843  0.00  0.00    -0.388 OA
HETATM   34  H   UNK     0      10.838  -5.539  23.215  0.00  0.00     0.210 HD
ENDBRANCH   3  33
BRANCH   4  35
HETATM   35  O   UNK     0       7.028  -3.367  26.107  0.00  0.00    -0.390 OA
HETATM   36  H   UNK     0       7.146  -3.314  27.071  0.00  0.00     0.210 HD
ENDBRANCH   4  35
BRANCH   2  37
HETATM   37  O   UNK     0       9.156  -5.281  25.599  0.00  0.00    -0.390 OA
HETATM   38  H   UNK     0       8.640  -5.167  26.415  0.00  0.00     0.210 HD
ENDBRANCH   2  37
TORSDOF 10
ENDMDL
MODEL 3
REMARK VINA RESULT:      -7.6      1.989      2.835
REMARK  10 active torsions:
REMARK  status: ('A' for Active; 'I' for Inactive)
REMARK    1  A    between atoms: O_2  and  C_15 
REMARK    2  A    between atoms: O_2  and  C_18 
REMARK    3  A    between atoms: O_3  and  C_12 
REMARK    4  A    between atoms: O_4  and  C_13 
REMARK    5  A    between atoms: O_5  and  C_14 
REMARK    6  A    between atoms: O_6  and  C_17 
REMARK    7  A    between atoms: O_9  and  C_19 
REMARK    8  A    between atoms: O_10  and  C_23 
REMARK    9  A    between atoms: C_16  and  C_17 
REMARK   10  A    between atoms: C_25  and  C_27 
ROOT
HETATM    1  O   UNK     0      11.205  -1.911  19.232  0.00  0.00    -0.340 OA
HETATM    2  C   UNK     0       9.394   0.062  18.191  0.00  0.00     0.183 C 
HETATM    3  C   UNK     0       9.903   0.098  19.632  0.00  0.00     0.205 C 
HETATM    4  C   UNK     0      10.328  -0.744  17.289  0.00  0.00     0.189 C 
HETATM    5  C   UNK     0      10.273  -1.303  20.124  0.00  0.00     0.299 C 
HETATM    6  C   UNK     0      10.670  -2.085  17.925  0.00  0.00     0.253 C 
ENDROOT
BRANCH   5   7
HETATM    7  O   UNK     0      10.858  -1.175  21.418  0.00  0.00    -0.315 OA
BRANCH   7   8
HETATM    8  C   UNK     0      10.262  -1.870  22.430  0.00  0.00     0.111 A 
HETATM    9  C   UNK     0      10.620  -3.194  22.687  0.00  0.00     0.137 A 
HETATM   10  C   UNK     0      10.001  -3.891  23.726  0.00  0.00     0.129 A 
HETATM   11  O   UNK     0      10.394  -5.188  23.930  0.00  0.00    -0.306 OA
HETATM   12  C   UNK     0       9.028  -3.264  24.502  0.00  0.00     0.084 A 
HETATM   13  C   UNK     0       9.802  -5.904  24.960  0.00  0.00     0.090 A 
HETATM   14  C   UNK     0       8.850  -5.414  25.770  0.00  0.00     0.094 A 
HETATM   15  C   UNK     0       8.391  -4.022  25.589  0.00  0.00     0.190 A 
HETATM   16  O   UNK     0       7.529  -3.536  26.308  0.00  0.00    -0.287 OA
HETATM   17  C   UNK     0       8.667  -1.939  24.247  0.00  0.00     0.085 A 
HETATM   18  C   UNK     0       9.287  -1.245  23.208  0.00  0.00     0.077 A 
BRANCH   9  19
HETATM   19  O   UNK     0      11.574  -3.801  21.923  0.00  0.00    -0.351 OA
HETATM   20  C   UNK     0      11.130  -4.799  21.007  0.00  0.00     0.210 C 
ENDBRANCH   9  19
BRANCH  13  21
HETATM   21  C   UNK     0      10.293  -7.290  25.088  0.00  0.00    -0.002 A 
HETATM   22  C   UNK     0      10.104  -8.201  24.045  0.00  0.00     0.014 A 
HETATM   23  C   UNK     0      10.569  -9.511  24.165  0.00  0.00     0.001 A 
HETATM   24  C   UNK     0      11.224  -9.915  25.328  0.00  0.00     0.000 A 
HETATM   25  C   UNK     0      11.414  -9.008  26.372  0.00  0.00     0.001 A 
HETATM   26  C   UNK     0      10.949  -7.698  26.252  0.00  0.00     0.014 A 
ENDBRANCH  13  21
BRANCH  17  27
HETATM   27  O   UNK     0       7.721  -1.283  24.977  0.00  0.00    -0.360 OA
HETATM   28  H   UNK     0       6.832  -1.551  24.700  0.00  0.00     0.217 HD
ENDBRANCH  17  27
ENDBRANCH   7   8
ENDBRANCH   5   7
BRANCH   6  29
HETATM   29  C   UNK     0      11.778  -2.762  17.187  0.00  0.00     0.172 C 
HETATM   30  O   UNK     0      12.114  -3.928  17.339  0.00  0.00    -0.648 OA
BRANCH  29  31
HETATM   31  O   UNK     0      12.371  -1.905  16.321  0.00  0.00    -0.774 OA
HETATM   32  H   UNK     0      12.933  -1.247  16.783  0.00  0.00     0.167 HD
ENDBRANCH  29  31
ENDBRANCH   6  29
BRANCH   3  33
HETATM   33  O   UNK     0       8.882   0.615  20.483  0.00  0.00    -0.388 OA
HETATM   34  H   UNK     0       8.423  -0.142  20.886  0.00  0.00     0.210 HD
ENDBRANCH   3  33
BRANCH   4  35
HETATM   35  O   UNK     0       9.681  -0.981  16.040  0.00  0.00    -0.390 OA
HETATM   36  H   UNK     0       8.735  -1.125  16.213  0.00  0.00     0.210 HD
ENDBRANCH   4  35
BRANCH   2  37
HETATM   37  O   UNK     0       9.323   1.394  17.678  0.00  0.00    -0.390 OA
HETATM   38  H   UNK     0       8.412   1.546  17.376  0.00  0.00     0.210 HD
ENDBRANCH   2  37
TORSDOF 10
ENDMDL
MODEL 4
REMARK VINA RESULT:      -7.3      4.136      7.712
REMARK  10 active torsions:
REMARK  status: ('A' for Active; 'I' for Inactive)
REMARK    1  A    between atoms: O_2  and  C_15 
REMARK    2  A    between atoms: O_2  and  C_18 
REMARK    3  A    between atoms: O_3  and  C_12 
REMARK    4  A    between atoms: O_4  and  C_13 
REMARK    5  A    between atoms: O_5  and  C_14 
REMARK    6  A    between atoms: O_6  and  C_17 
REMARK    7  A    between atoms: O_9  and  C_19 
REMARK    8  A    between atoms: O_10  and  C_23 
REMARK    9  A    between atoms: C_16  and  C_17 
REMARK   10  A    between atoms: C_25  and  C_27 
ROOT
HETATM    1  O   UNK     0      15.506   3.692  24.609  0.00  0.00    -0.340 OA
HETATM    2  C   UNK     0      18.005   4.401  25.837  0.00  0.00     0.183 C 
HETATM    3  C   UNK     0      17.803   3.078  25.097  0.00  0.00     0.205 C 
HETATM    4  C   UNK     0      16.989   5.452  25.389  0.00  0.00     0.189 C 
HETATM    5  C   UNK     0      16.334   2.650  25.121  0.00  0.00     0.299 C 
HETATM    6  C   UNK     0      15.579   4.876  25.394  0.00  0.00     0.253 C 
ENDROOT
BRANCH   5   7
HETATM    7  O   UNK     0      16.202   1.486  24.307  0.00  0.00    -0.315 OA
BRANCH   7   8
HETATM    8  C   UNK     0      14.940   0.995  24.143  0.00  0.00     0.111 A 
HETATM    9  C   UNK     0      14.310   1.061  22.899  0.00  0.00     0.137 A 
HETATM   10  C   UNK     0      13.019   0.553  22.748  0.00  0.00     0.129 A 
HETATM   11  O   UNK     0      12.452   0.646  21.503  0.00  0.00    -0.306 OA
HETATM   12  C   UNK     0      12.363  -0.017  23.838  0.00  0.00     0.084 A 
HETATM   13  C   UNK     0      11.172   0.144  21.321  0.00  0.00     0.090 A 
HETATM   14  C   UNK     0      10.436  -0.420  22.292  0.00  0.00     0.094 A 
HETATM   15  C   UNK     0      11.002  -0.542  23.650  0.00  0.00     0.190 A 
HETATM   16  O   UNK     0      10.367  -1.054  24.563  0.00  0.00    -0.287 OA
HETATM   17  C   UNK     0      12.990  -0.084  25.083  0.00  0.00     0.085 A 
HETATM   18  C   UNK     0      14.281   0.424  25.232  0.00  0.00     0.077 A 
BRANCH   9  19
HETATM   19  O   UNK     0      14.959   1.620  21.837  0.00  0.00    -0.351 OA
HETATM   20  C   UNK     0      15.730   0.746  21.017  0.00  0.00     0.210 C 
ENDBRANCH   9  19
BRANCH  13  21
HETATM   21  C   UNK     0      10.656   0.302  19.947  0.00  0.00    -0.002 A 
HETATM   22  C   UNK     0       9.632  -0.528  19.482  0.00  0.00     0.014 A 
HETATM   23  C   UNK     0       9.143  -0.378  18.184  0.00  0.00     0.001 A 
HETATM   24  C   UNK     0       9.676   0.601  17.346  0.00  0.00     0.000 A 
HETATM   25  C   UNK     0      10.698   1.432  17.806  0.00  0.00     0.001 A 
HETATM   26  C   UNK     0      11.187   1.282  19.105  0.00  0.00     0.014 A 
ENDBRANCH  13  21
BRANCH  17  27
HETATM   27  O   UNK     0      12.391  -0.631  26.178  0.00  0.00    -0.360 OA
HETATM   28  H   UNK     0      12.257  -1.582  26.053  0.00  0.00     0.217 HD
ENDBRANCH  17  27
ENDBRANCH   7   8
ENDBRANCH   5   7
BRANCH   6  29
HETATM   29  C   UNK     0      14.621   5.800  24.713  0.00  0.00     0.172 C 
HETATM   30  O   UNK     0      14.651   6.091  23.525  0.00  0.00    -0.648 OA
BRANCH  29  31
HETATM   31  O   UNK     0      13.710   6.280  25.592  0.00  0.00    -0.774 OA
HETATM   32  H   UNK     0      12.917   6.640  25.140  0.00  0.00     0.167 HD
ENDBRANCH  29  31
ENDBRANCH   6  29
BRANCH   3  33
HETATM   33  O   UNK     0      18.575   2.059  25.729  0.00  0.00    -0.388 OA
HETATM   34  H   UNK     0      18.101   1.785  26.533  0.00  0.00     0.210 HD
ENDBRANCH   3  33
BRANCH   4  35
HETATM   35  O   UNK     0      17.035   6.559  26.288  0.00  0.00    -0.390 OA
HETATM   36  H   UNK     0      17.966   6.810  26.410  0.00  0.00     0.210 HD
ENDBRANCH   4  35
BRANCH   2  37
HETATM   37  O   UNK     0      19.313   4.905  25.562  0.00  0.00    -0.390 OA
HETATM   38  H   UNK     0      19.465   4.827  24.605  0.00  0.00     0.210 HD
ENDBRANCH   2  37
TORSDOF 10
ENDMDL
MODEL 5
REMARK VINA RESULT:      -7.3      2.489      5.287
REMARK  10 active torsions:
REMARK  status: ('A' for Active; 'I' for Inactive)
REMARK    1  A    between atoms: O_2  and  C_15 
REMARK    2  A    between atoms: O_2  and  C_18 
REMARK    3  A    between atoms: O_3  and  C_12 
REMARK    4  A    between atoms: O_4  and  C_13 
REMARK    5  A    between atoms: O_5  and  C_14 
REMARK    6  A    between atoms: O_6  and  C_17 
REMARK    7  A    between atoms: O_9  and  C_19 
REMARK    8  A    between atoms: O_10  and  C_23 
REMARK    9  A    between atoms: C_16  and  C_17 
REMARK   10  A    between atoms: C_25  and  C_27 
ROOT
HETATM    1  O   UNK     0      10.176  -0.518  23.754  0.00  0.00    -0.340 OA
HETATM    2  C   UNK     0       7.718  -0.287  25.224  0.00  0.00     0.183 C 
HETATM    3  C   UNK     0       8.721  -1.412  25.478  0.00  0.00     0.205 C 
HETATM    4  C   UNK     0       8.387   0.916  24.558  0.00  0.00     0.189 C 
HETATM    5  C   UNK     0       9.550  -1.709  24.227  0.00  0.00     0.299 C 
HETATM    6  C   UNK     0       9.233   0.475  23.370  0.00  0.00     0.253 C 
ENDROOT
BRANCH   5   7
HETATM    7  O   UNK     0      10.543  -2.671  24.575  0.00  0.00    -0.315 OA
BRANCH   7   8
HETATM    8  C   UNK     0      10.678  -3.740  23.738  0.00  0.00     0.111 A 
HETATM    9  C   UNK     0      10.714  -5.039  24.248  0.00  0.00     0.137 A 
HETATM   10  C   UNK     0      10.852  -6.122  23.379  0.00  0.00     0.129 A 
HETATM   11  O   UNK     0      10.881  -7.373  23.938  0.00  0.00    -0.306 OA
HETATM   12  C   UNK     0      10.952  -5.904  22.006  0.00  0.00     0.084 A 
HETATM   13  C   UNK     0      11.010  -8.469  23.099  0.00  0.00     0.090 A 
HETATM   14  C   UNK     0      11.122  -8.390  21.763  0.00  0.00     0.094 A 
HETATM   15  C   UNK     0      11.097  -7.064  21.113  0.00  0.00     0.190 A 
HETATM   16  O   UNK     0      11.192  -6.947  19.899  0.00  0.00    -0.287 OA
HETATM   17  C   UNK     0      10.916  -4.606  21.492  0.00  0.00     0.085 A 
HETATM   18  C   UNK     0      10.779  -3.525  22.363  0.00  0.00     0.077 A 
BRANCH   9  19
HETATM   19  O   UNK     0      10.615  -5.244  25.594  0.00  0.00    -0.351 OA
HETATM   20  C   UNK     0       9.321  -5.551  26.107  0.00  0.00     0.210 C 
ENDBRANCH   9  19
BRANCH  13  21
HETATM   21  C   UNK     0      11.038  -9.766  23.805  0.00  0.00    -0.002 A 
HETATM   22  C   UNK     0      11.780 -10.831  23.287  0.00  0.00     0.014 A 
HETATM   23  C   UNK     0      11.808 -12.056  23.954  0.00  0.00     0.001 A 
HETATM   24  C   UNK     0      11.093 -12.220  25.141  0.00  0.00     0.000 A 
HETATM   25  C   UNK     0      10.351 -11.160  25.660  0.00  0.00     0.001 A 
HETATM   26  C   UNK     0      10.323  -9.934  24.993  0.00  0.00     0.014 A 
ENDBRANCH  13  21
BRANCH  17  27
HETATM   27  O   UNK     0      11.011  -4.342  20.159  0.00  0.00    -0.360 OA
HETATM   28  H   UNK     0      11.882  -3.974  19.946  0.00  0.00     0.217 HD
ENDBRANCH  17  27
ENDBRANCH   7   8
ENDBRANCH   5   7
BRANCH   6  29
HETATM   29  C   UNK     0      10.092   1.595  22.879  0.00  0.00     0.172 C 
HETATM   30  O   UNK     0      11.259   1.776  23.199  0.00  0.00    -0.648 OA
BRANCH  29  31
HETATM   31  O   UNK     0       9.401   2.393  22.030  0.00  0.00    -0.774 OA
HETATM   32  H   UNK     0       8.433   2.333  22.176  0.00  0.00     0.167 HD
ENDBRANCH  29  31
ENDBRANCH   6  29
BRANCH   3  33
HETATM   33  O   UNK     0       8.018  -2.600  25.840  0.00  0.00    -0.388 OA
HETATM   34  H   UNK     0       8.405  -3.337  25.336  0.00  0.00     0.210 HD
ENDBRANCH   3  33
BRANCH   4  35
HETATM   35  O   UNK     0       7.379   1.813  24.094  0.00  0.00    -0.390 OA
HETATM   36  H   UNK     0       7.048   1.480  23.242  0.00  0.00     0.210 HD
ENDBRANCH   4  35
BRANCH   2  37
HETATM   37  O   UNK     0       7.165   0.147  26.467  0.00  0.00    -0.390 OA
HETATM   38  H   UNK     0       7.899   0.445  27.030  0.00  0.00     0.210 HD
ENDBRANCH   2  37
TORSDOF 10
ENDMDL
MODEL 6
REMARK VINA RESULT:      -7.2      2.842      8.870
REMARK  10 active torsions:
REMARK  status: ('A' for Active; 'I' for Inactive)
REMARK    1  A    between atoms: O_2  and  C_15 
REMARK    2  A    between atoms: O_2  and  C_18 
REMARK    3  A    between atoms: O_3  and  C_12 
REMARK    4  A    between atoms: O_4  and  C_13 
REMARK    5  A    between atoms: O_5  and  C_14 
REMARK    6  A    between atoms: O_6  and  C_17 
REMARK    7  A    between atoms: O_9  and  C_19 
REMARK    8  A    between atoms: O_10  and  C_23 
REMARK    9  A    between atoms: C_16  and  C_17 
REMARK   10  A    between atoms: C_25  and  C_27 
ROOT
HETATM    1  O   UNK     0      11.563  -6.924  26.246  0.00  0.00    -0.340 OA
HETATM    2  C   UNK     0      10.335  -9.290  25.173  0.00  0.00     0.183 C 
HETATM    3  C   UNK     0      10.897  -8.182  24.281  0.00  0.00     0.205 C 
HETATM    4  C   UNK     0      10.965  -9.258  26.566  0.00  0.00     0.189 C 
HETATM    5  C   UNK     0      10.879  -6.831  24.998  0.00  0.00     0.299 C 
HETATM    6  C   UNK     0      10.944  -7.845  27.136  0.00  0.00     0.253 C 
ENDROOT
BRANCH   5   7
HETATM    7  O   UNK     0      11.532  -5.880  24.160  0.00  0.00    -0.315 OA
BRANCH   7   8
HETATM    8  C   UNK     0      10.938  -4.657  24.046  0.00  0.00     0.111 A 
HETATM    9  C   UNK     0      11.040  -3.928  22.860  0.00  0.00     0.137 A 
HETATM   10  C   UNK     0      10.426  -2.678  22.759  0.00  0.00     0.129 A 
HETATM   11  O   UNK     0      10.561  -2.009  21.570  0.00  0.00    -0.306 OA
HETATM   12  C   UNK     0       9.715  -2.163  23.841  0.00  0.00     0.084 A 
HETATM   13  C   UNK     0       9.956  -0.768  21.438  0.00  0.00     0.090 A 
HETATM   14  C   UNK     0       9.251  -0.164  22.408  0.00  0.00     0.094 A 
HETATM   15  C   UNK     0       9.079  -0.843  23.708  0.00  0.00     0.190 A 
HETATM   16  O   UNK     0       8.441  -0.330  24.617  0.00  0.00    -0.287 OA
HETATM   17  C   UNK     0       9.611  -2.890  25.029  0.00  0.00     0.085 A 
HETATM   18  C   UNK     0      10.225  -4.138  25.128  0.00  0.00     0.077 A 
BRANCH   9  19
HETATM   19  O   UNK     0      11.738  -4.439  21.805  0.00  0.00    -0.351 OA
HETATM   20  C   UNK     0      11.034  -5.313  20.927  0.00  0.00     0.210 C 
ENDBRANCH   9  19
BRANCH  13  21
HETATM   21  C   UNK     0      10.170  -0.133  20.122  0.00  0.00    -0.002 A 
HETATM   22  C   UNK     0       9.486  -0.602  18.997  0.00  0.00     0.014 A 
HETATM   23  C   UNK     0       9.687  -0.001  17.755  0.00  0.00     0.001 A 
HETATM   24  C   UNK     0      10.572   1.070  17.632  0.00  0.00     0.000 A 
HETATM   25  C   UNK     0      11.257   1.540  18.753  0.00  0.00     0.001 A 
HETATM   26  C   UNK     0      11.056   0.940  19.996  0.00  0.00     0.014 A 
ENDBRANCH  13  21
BRANCH  17  27
HETATM   27  O   UNK     0       8.927  -2.429  26.114  0.00  0.00    -0.360 OA
HETATM   28  H   UNK     0       8.717  -3.157  26.718  0.00  0.00     0.217 HD
ENDBRANCH  17  27
ENDBRANCH   7   8
ENDBRANCH   5   7
BRANCH   6  29
HETATM   29  C   UNK     0      11.784  -7.752  28.368  0.00  0.00     0.172 C 
HETATM   30  O   UNK     0      12.949  -7.380  28.396  0.00  0.00    -0.648 OA
BRANCH  29  31
HETATM   31  O   UNK     0      11.082  -8.142  29.458  0.00  0.00    -0.774 OA
HETATM   32  H   UNK     0      10.930  -9.111  29.470  0.00  0.00     0.167 HD
ENDBRANCH  29  31
ENDBRANCH   6  29
BRANCH   3  33
HETATM   33  O   UNK     0      10.100  -8.073  23.103  0.00  0.00    -0.388 OA
HETATM   34  H   UNK     0       9.187  -7.883  23.380  0.00  0.00     0.210 HD
ENDBRANCH   3  33
BRANCH   4  35
HETATM   35  O   UNK     0      10.223 -10.113  27.433  0.00  0.00    -0.390 OA
HETATM   36  H   UNK     0      10.839 -10.758  27.820  0.00  0.00     0.210 HD
ENDBRANCH   4  35
BRANCH   2  37
HETATM   37  O   UNK     0      10.619 -10.562  24.588  0.00  0.00    -0.390 OA
HETATM   38  H   UNK     0      10.684 -11.210  25.309  0.00  0.00     0.210 HD
ENDBRANCH   2  37
TORSDOF 10
ENDMDL
MODEL 7
REMARK VINA RESULT:      -7.2      5.098     11.424
REMARK  10 active torsions:
REMARK  status: ('A' for Active; 'I' for Inactive)
REMARK    1  A    between atoms: O_2  and  C_15 
REMARK    2  A    between atoms: O_2  and  C_18 
REMARK    3  A    between atoms: O_3  and  C_12 
REMARK    4  A    between atoms: O_4  and  C_13 
REMARK    5  A    between atoms: O_5  and  C_14 
REMARK    6  A    between atoms: O_6  and  C_17 
REMARK    7  A    between atoms: O_9  and  C_19 
REMARK    8  A    between atoms: O_10  and  C_23 
REMARK    9  A    between atoms: C_16  and  C_17 
REMARK   10  A    between atoms: C_25  and  C_27 
ROOT
HETATM    1  O   UNK     0      11.127   1.933  18.704  0.00  0.00    -0.340 OA
HETATM    2  C   UNK     0      10.228   0.124  20.747  0.00  0.00     0.183 C 
HETATM    3  C   UNK     0      11.045   1.376  21.064  0.00  0.00     0.205 C 
HETATM    4  C   UNK     0       9.520   0.246  19.397  0.00  0.00     0.189 C 
HETATM    5  C   UNK     0      11.922   1.781  19.878  0.00  0.00     0.299 C 
HETATM    6  C   UNK     0      10.489   0.721  18.321  0.00  0.00     0.253 C 
ENDROOT
BRANCH   5   7
HETATM    7  O   UNK     0      12.551   3.021  20.198  0.00  0.00    -0.315 OA
BRANCH   7   8
HETATM    8  C   UNK     0      13.838   3.180  19.775  0.00  0.00     0.111 A 
HETATM    9  C   UNK     0      14.189   4.259  18.962  0.00  0.00     0.137 A 
HETATM   10  C   UNK     0      15.511   4.407  18.539  0.00  0.00     0.129 A 
HETATM   11  O   UNK     0      15.795   5.486  17.742  0.00  0.00    -0.306 OA
HETATM   12  C   UNK     0      16.475   3.479  18.928  0.00  0.00     0.084 A 
HETATM   13  C   UNK     0      17.100   5.664  17.312  0.00  0.00     0.090 A 
HETATM   14  C   UNK     0      18.115   4.837  17.612  0.00  0.00     0.094 A 
HETATM   15  C   UNK     0      17.860   3.659  18.466  0.00  0.00     0.190 A 
HETATM   16  O   UNK     0      18.756   2.883  18.768  0.00  0.00    -0.287 OA
HETATM   17  C   UNK     0      16.127   2.399  19.741  0.00  0.00     0.085 A 
HETATM   18  C   UNK     0      14.806   2.252  20.163  0.00  0.00     0.077 A 
BRANCH   9  19
HETATM   19  O   UNK     0      13.239   5.163  18.586  0.00  0.00    -0.351 OA
HETATM   20  C   UNK     0      12.981   6.241  19.483  0.00  0.00     0.210 C 
ENDBRANCH   9  19
BRANCH  13  21
HETATM   21  C   UNK     0      17.294   6.851  16.455  0.00  0.00    -0.002 A 
HETATM   22  C   UNK     0      16.479   7.975  16.617  0.00  0.00     0.014 A 
HETATM   23  C   UNK     0      16.663   9.097  15.809  0.00  0.00     0.001 A 
HETATM   24  C   UNK     0      17.661   9.099  14.835  0.00  0.00     0.000 A 
HETATM   25  C   UNK     0      18.477   7.979  14.670  0.00  0.00     0.001 A 
HETATM   26  C   UNK     0      18.293   6.857  15.479  0.00  0.00     0.014 A 
ENDBRANCH  13  21
BRANCH  17  27
HETATM   27  O   UNK     0      17.033   1.465  20.148  0.00  0.00    -0.360 OA
HETATM   28  H   UNK     0      17.912   1.862  20.239  0.00  0.00     0.217 HD
ENDBRANCH  17  27
ENDBRANCH   7   8
ENDBRANCH   5   7
BRANCH   6  29
HETATM   29  C   UNK     0       9.759   1.095  17.071  0.00  0.00     0.172 C 
HETATM   30  O   UNK     0       9.002   0.360  16.454  0.00  0.00    -0.648 OA
BRANCH  29  31
HETATM   31  O   UNK     0      10.053   2.366  16.707  0.00  0.00    -0.774 OA
HETATM   32  H   UNK     0      11.006   2.571  16.824  0.00  0.00     0.167 HD
ENDBRANCH  29  31
ENDBRANCH   6  29
BRANCH   3  33
HETATM   33  O   UNK     0      11.896   1.116  22.179  0.00  0.00    -0.388 OA
HETATM   34  H   UNK     0      12.757   0.826  21.833  0.00  0.00     0.210 HD
ENDBRANCH   3  33
BRANCH   4  35
HETATM   35  O   UNK     0       9.008  -1.031  19.021  0.00  0.00    -0.390 OA
HETATM   36  H   UNK     0       9.606  -1.712  19.372  0.00  0.00     0.210 HD
ENDBRANCH   4  35
BRANCH   2  37
HETATM   37  O   UNK     0       9.232  -0.063  21.753  0.00  0.00    -0.390 OA
HETATM   38  H   UNK     0       8.446   0.445  21.489  0.00  0.00     0.210 HD
ENDBRANCH   2  37
TORSDOF 10
ENDMDL
MODEL 8
REMARK VINA RESULT:      -6.9      3.730      6.516
REMARK  10 active torsions:
REMARK  status: ('A' for Active; 'I' for Inactive)
REMARK    1  A    between atoms: O_2  and  C_15 
REMARK    2  A    between atoms: O_2  and  C_18 
REMARK    3  A    between atoms: O_3  and  C_12 
REMARK    4  A    between atoms: O_4  and  C_13 
REMARK    5  A    between atoms: O_5  and  C_14 
REMARK    6  A    between atoms: O_6  and  C_17 
REMARK    7  A    between atoms: O_9  and  C_19 
REMARK    8  A    between atoms: O_10  and  C_23 
REMARK    9  A    between atoms: C_16  and  C_17 
REMARK   10  A    between atoms: C_25  and  C_27 
ROOT
HETATM    1  O   UNK     0      15.587   3.417  24.315  0.00  0.00    -0.340 OA
HETATM    2  C   UNK     0      17.708   2.419  25.977  0.00  0.00     0.183 C 
HETATM    3  C   UNK     0      17.286   1.723  24.683  0.00  0.00     0.205 C 
HETATM    4  C   UNK     0      17.292   3.891  25.981  0.00  0.00     0.189 C 
HETATM    5  C   UNK     0      15.820   2.011  24.353  0.00  0.00     0.299 C 
HETATM    6  C   UNK     0      15.833   4.040  25.570  0.00  0.00     0.253 C 
ENDROOT
BRANCH   5   7
HETATM    7  O   UNK     0      15.537   1.441  23.076  0.00  0.00    -0.315 OA
BRANCH   7   8
HETATM    8  C   UNK     0      14.224   1.203  22.791  0.00  0.00     0.111 A 
HETATM    9  C   UNK     0      13.521   0.207  23.469  0.00  0.00     0.137 A 
HETATM   10  C   UNK     0      12.178  -0.023  23.166  0.00  0.00     0.129 A 
HETATM   11  O   UNK     0      11.540  -1.015  23.865  0.00  0.00    -0.306 OA
HETATM   12  C   UNK     0      11.545   0.740  22.187  0.00  0.00     0.084 A 
HETATM   13  C   UNK     0      10.204  -1.262  23.590  0.00  0.00     0.090 A 
HETATM   14  C   UNK     0       9.486  -0.601  22.667  0.00  0.00     0.094 A 
HETATM   15  C   UNK     0      10.129   0.475  21.886  0.00  0.00     0.190 A 
HETATM   16  O   UNK     0       9.512   1.106  21.039  0.00  0.00    -0.287 OA
HETATM   17  C   UNK     0      12.246   1.738  21.506  0.00  0.00     0.085 A 
HETATM   18  C   UNK     0      13.587   1.966  21.811  0.00  0.00     0.077 A 
BRANCH   9  19
HETATM   19  O   UNK     0      14.148  -0.536  24.426  0.00  0.00    -0.351 OA
HETATM   20  C   UNK     0      14.832  -1.709  23.990  0.00  0.00     0.210 C 
ENDBRANCH   9  19
BRANCH  13  21
HETATM   21  C   UNK     0       9.617  -2.353  24.394  0.00  0.00    -0.002 A 
HETATM   22  C   UNK     0      10.414  -3.419  24.819  0.00  0.00     0.014 A 
HETATM   23  C   UNK     0       9.860  -4.449  25.579  0.00  0.00     0.001 A 
HETATM   24  C   UNK     0       8.507  -4.417  25.917  0.00  0.00     0.000 A 
HETATM   25  C   UNK     0       7.708  -3.355  25.494  0.00  0.00     0.001 A 
HETATM   26  C   UNK     0       8.262  -2.324  24.734  0.00  0.00     0.014 A 
ENDBRANCH  13  21
BRANCH  17  27
HETATM   27  O   UNK     0      11.671   2.510  20.541  0.00  0.00    -0.360 OA
HETATM   28  H   UNK     0      12.267   2.606  19.784  0.00  0.00     0.217 HD
ENDBRANCH  17  27
ENDBRANCH   7   8
ENDBRANCH   5   7
BRANCH   6  29
HETATM   29  C   UNK     0      15.492   5.473  25.315  0.00  0.00     0.172 C 
HETATM   30  O   UNK     0      15.233   5.948  24.219  0.00  0.00    -0.648 OA
BRANCH  29  31
HETATM   31  O   UNK     0      15.513   6.183  26.469  0.00  0.00    -0.774 OA
HETATM   32  H   UNK     0      14.621   6.508  26.717  0.00  0.00     0.167 HD
ENDBRANCH  29  31
ENDBRANCH   6  29
BRANCH   3  33
HETATM   33  O   UNK     0      17.442   0.313  24.831  0.00  0.00    -0.388 OA
HETATM   34  H   UNK     0      17.657  -0.053  23.957  0.00  0.00     0.210 HD
ENDBRANCH   3  33
BRANCH   4  35
HETATM   35  O   UNK     0      17.454   4.418  27.297  0.00  0.00    -0.390 OA
HETATM   36  H   UNK     0      17.866   3.732  27.848  0.00  0.00     0.210 HD
ENDBRANCH   4  35
BRANCH   2  37
HETATM   37  O   UNK     0      19.129   2.361  26.107  0.00  0.00    -0.390 OA
HETATM   38  H   UNK     0      19.360   2.700  26.988  0.00  0.00     0.210 HD
ENDBRANCH   2  37
TORSDOF 10
ENDMDL
MODEL 9
REMARK VINA RESULT:      -6.8      3.254      9.215
REMARK  10 active torsions:
REMARK  status: ('A' for Active; 'I' for Inactive)
REMARK    1  A    between atoms: O_2  and  C_15 
REMARK    2  A    between atoms: O_2  and  C_18 
REMARK    3  A    between atoms: O_3  and  C_12 
REMARK    4  A    between atoms: O_4  and  C_13 
REMARK    5  A    between atoms: O_5  and  C_14 
REMARK    6  A    between atoms: O_6  and  C_17 
REMARK    7  A    between atoms: O_9  and  C_19 
REMARK    8  A    between atoms: O_10  and  C_23 
REMARK    9  A    between atoms: C_16  and  C_17 
REMARK   10  A    between atoms: C_25  and  C_27 
ROOT
HETATM    1  O   UNK     0      12.003  -7.373  27.178  0.00  0.00    -0.340 OA
HETATM    2  C   UNK     0      10.965 -10.048  27.029  0.00  0.00     0.183 C 
HETATM    3  C   UNK     0      10.972  -9.105  25.826  0.00  0.00     0.205 C 
HETATM    4  C   UNK     0      12.005  -9.634  28.070  0.00  0.00     0.189 C 
HETATM    5  C   UNK     0      10.937  -7.642  26.269  0.00  0.00     0.299 C 
HETATM    6  C   UNK     0      11.905  -8.144  28.370  0.00  0.00     0.253 C 
ENDROOT
BRANCH   5   7
HETATM    7  O   UNK     0      11.077  -6.826  25.108  0.00  0.00    -0.315 OA
BRANCH   7   8
HETATM    8  C   UNK     0      10.344  -5.676  25.076  0.00  0.00     0.111 A 
HETATM    9  C   UNK     0      10.620  -4.686  24.132  0.00  0.00     0.137 A 
HETATM   10  C   UNK     0       9.859  -3.515  24.113  0.00  0.00     0.129 A 
HETATM   11  O   UNK     0      10.177  -2.579  23.164  0.00  0.00    -0.306 OA
HETATM   12  C   UNK     0       8.828  -3.340  25.034  0.00  0.00     0.084 A 
HETATM   13  C   UNK     0       9.434  -1.409  23.115  0.00  0.00     0.090 A 
HETATM   14  C   UNK     0       8.423  -1.120  23.951  0.00  0.00     0.094 A 
HETATM   15  C   UNK     0       8.044  -2.096  24.992  0.00  0.00     0.190 A 
HETATM   16  O   UNK     0       7.126  -1.875  25.770  0.00  0.00    -0.287 OA
HETATM   17  C   UNK     0       8.549  -4.329  25.979  0.00  0.00     0.085 A 
HETATM   18  C   UNK     0       9.311  -5.498  25.997  0.00  0.00     0.077 A 
BRANCH   9  19
HETATM   19  O   UNK     0      11.630  -4.865  23.234  0.00  0.00    -0.351 OA
HETATM   20  C   UNK     0      11.303  -5.533  22.017  0.00  0.00     0.210 C 
ENDBRANCH   9  19
BRANCH  13  21
HETATM   21  C   UNK     0       9.864  -0.468  22.062  0.00  0.00    -0.002 A 
HETATM   22  C   UNK     0      10.145   0.864  22.382  0.00  0.00     0.014 A 
HETATM   23  C   UNK     0      10.553   1.752  21.387  0.00  0.00     0.001 A 
HETATM   24  C   UNK     0      10.680   1.314  20.069  0.00  0.00     0.000 A 
HETATM   25  C   UNK     0      10.400  -0.014  19.746  0.00  0.00     0.001 A 
HETATM   26  C   UNK     0       9.993  -0.903  20.741  0.00  0.00     0.014 A 
ENDBRANCH  13  21
BRANCH  17  27
HETATM   27  O   UNK     0       7.553  -4.204  26.901  0.00  0.00    -0.360 OA
HETATM   28  H   UNK     0       7.511  -3.295  27.234  0.00  0.00     0.217 HD
ENDBRANCH  17  27
ENDBRANCH   7   8
ENDBRANCH   5   7
BRANCH   6  29
HETATM   29  C   UNK     0      13.075  -7.680  29.176  0.00  0.00     0.172 C 
HETATM   30  O   UNK     0      13.996  -6.998  28.749  0.00  0.00    -0.648 OA
BRANCH  29  31
HETATM   31  O   UNK     0      12.984  -8.123  30.453  0.00  0.00    -0.774 OA
HETATM   32  H   UNK     0      13.663  -8.801  30.656  0.00  0.00     0.167 HD
ENDBRANCH  29  31
ENDBRANCH   6  29
BRANCH   3  33
HETATM   33  O   UNK     0       9.822  -9.355  25.020  0.00  0.00    -0.388 OA
HETATM   34  H   UNK     0      10.129  -9.718  24.172  0.00  0.00     0.210 HD
ENDBRANCH   3  33
BRANCH   4  35
HETATM   35  O   UNK     0      11.775 -10.361  29.276  0.00  0.00    -0.390 OA
HETATM   36  H   UNK     0      12.635 -10.649  29.624  0.00  0.00     0.210 HD
ENDBRANCH   4  35
BRANCH   2  37
HETATM   37  O   UNK     0      11.275 -11.374  26.597  0.00  0.00    -0.390 OA
HETATM   38  H   UNK     0      12.152 -11.351  26.180  0.00  0.00     0.210 HD
ENDBRANCH   2  37
TORSDOF 10
ENDMDL
MODEL 10
REMARK VINA RESULT:      -6.8      4.862      9.994
REMARK  10 active torsions:
REMARK  status: ('A' for Active; 'I' for Inactive)
REMARK    1  A    between atoms: O_2  and  C_15 
REMARK    2  A    between atoms: O_2  and  C_18 
REMARK    3  A    between atoms: O_3  and  C_12 
REMARK    4  A    between atoms: O_4  and  C_13 
REMARK    5  A    between atoms: O_5  and  C_14 
REMARK    6  A    between atoms: O_6  and  C_17 
REMARK    7  A    between atoms: O_9  and  C_19 
REMARK    8  A    between atoms: O_10  and  C_23 
REMARK    9  A    between atoms: C_16  and  C_17 
REMARK   10  A    between atoms: C_25  and  C_27 
ROOT
HETATM    1  O   UNK     0      11.012   1.592  18.895  0.00  0.00    -0.340 OA
HETATM    2  C   UNK     0      10.361  -0.832  20.293  0.00  0.00     0.183 C 
HETATM    3  C   UNK     0      11.079   0.335  20.970  0.00  0.00     0.205 C 
HETATM    4  C   UNK     0       9.588  -0.371  19.057  0.00  0.00     0.189 C 
HETATM    5  C   UNK     0      11.866   1.165  19.954  0.00  0.00     0.299 C 
HETATM    6  C   UNK     0      10.465   0.499  18.166  0.00  0.00     0.253 C 
ENDROOT
BRANCH   5   7
HETATM    7  O   UNK     0      12.398   2.301  20.632  0.00  0.00    -0.315 OA
BRANCH   7   8
HETATM    8  C   UNK     0      13.292   3.064  19.937  0.00  0.00     0.111 A 
HETATM    9  C   UNK     0      14.611   2.640  19.777  0.00  0.00     0.137 A 
HETATM   10  C   UNK     0      15.513   3.432  19.064  0.00  0.00     0.129 A 
HETATM   11  O   UNK     0      16.795   2.963  18.940  0.00  0.00    -0.306 OA
HETATM   12  C   UNK     0      15.093   4.642  18.514  0.00  0.00     0.084 A 
HETATM   13  C   UNK     0      17.711   3.725  18.230  0.00  0.00     0.090 A 
HETATM   14  C   UNK     0      17.431   4.909  17.662  0.00  0.00     0.094 A 
HETATM   15  C   UNK     0      16.064   5.457  17.769  0.00  0.00     0.190 A 
HETATM   16  O   UNK     0      15.765   6.530  17.262  0.00  0.00    -0.287 OA
HETATM   17  C   UNK     0      13.773   5.069  18.673  0.00  0.00     0.085 A 
HETATM   18  C   UNK     0      12.874   4.276  19.387  0.00  0.00     0.077 A 
BRANCH   9  19
HETATM   19  O   UNK     0      15.015   1.454  20.318  0.00  0.00    -0.351 OA
HETATM   20  C   UNK     0      15.304   1.444  21.714  0.00  0.00     0.210 C 
ENDBRANCH   9  19
BRANCH  13  21
HETATM   21  C   UNK     0      19.062   3.132  18.164  0.00  0.00    -0.002 A 
HETATM   22  C   UNK     0      19.541   2.609  16.960  0.00  0.00     0.014 A 
HETATM   23  C   UNK     0      20.818   2.050  16.898  0.00  0.00     0.001 A 
HETATM   24  C   UNK     0      21.619   2.012  18.038  0.00  0.00     0.000 A 
HETATM   25  C   UNK     0      21.144   2.532  19.242  0.00  0.00     0.001 A 
HETATM   26  C   UNK     0      19.868   3.092  19.305  0.00  0.00     0.014 A 
ENDBRANCH  13  21
BRANCH  17  27
HETATM   27  O   UNK     0      13.315   6.244  18.156  0.00  0.00    -0.360 OA
HETATM   28  H   UNK     0      13.141   6.153  17.207  0.00  0.00     0.217 HD
ENDBRANCH  17  27
ENDBRANCH   7   8
ENDBRANCH   5   7
BRANCH   6  29
HETATM   29  C   UNK     0       9.654   1.166  17.103  0.00  0.00     0.172 C 
HETATM   30  O   UNK     0       8.661   0.687  16.574  0.00  0.00    -0.648 OA
BRANCH  29  31
HETATM   31  O   UNK     0      10.170   2.380  16.796  0.00  0.00    -0.774 OA
HETATM   32  H   UNK     0      10.964   2.588  17.333  0.00  0.00     0.167 HD
ENDBRANCH  29  31
ENDBRANCH   6  29
BRANCH   3  33
HETATM   33  O   UNK     0      11.996  -0.171  21.939  0.00  0.00    -0.388 OA
HETATM   34  H   UNK     0      11.651  -1.023  22.255  0.00  0.00     0.210 HD
ENDBRANCH   3  33
BRANCH   4  35
HETATM   35  O   UNK     0       9.173  -1.515  18.312  0.00  0.00    -0.390 OA
HETATM   36  H   UNK     0       8.215  -1.625  18.438  0.00  0.00     0.210 HD
ENDBRANCH   4  35
BRANCH   2  37
HETATM   37  O   UNK     0       9.428  -1.411  21.207  0.00  0.00    -0.390 OA
HETATM   38  H   UNK     0       9.396  -0.844  21.995  0.00  0.00     0.210 HD
ENDBRANCH   2  37
TORSDOF 10
ENDMDL
