MODEL 1
REMARK VINA RESULT:      -6.5      0.000      0.000
REMARK  16 active torsions:
REMARK  status: ('A' for Active; 'I' for Inactive)
REMARK    1  A    between atoms: N_3  and  C_13 
REMARK    2  A    between atoms: C_6  and  C_37 
REMARK    3  A    between atoms: C_13  and  C_14 
REMARK    4  A    between atoms: C_13  and  C_17 
REMARK       I    between atoms: C_14  and  N_15 
REMARK    5  A    between atoms: N_15  and  C_16 
REMARK    6  A    between atoms: C_16  and  C_27 
REMARK    7  A    between atoms: C_16  and  C_28 
REMARK    8  A    between atoms: C_25  and  C_27 
REMARK    9  A    between atoms: C_28  and  C_29 
REMARK   10  A    between atoms: C_29  and  C_30 
REMARK   11  A    between atoms: C_29  and  O_36 
REMARK   12  A    between atoms: C_30  and  N_31 
REMARK   13  A    between atoms: C_30  and  C_37 
REMARK       I    between atoms: N_31  and  C_32 
REMARK   14  A    between atoms: C_32  and  C_33 
REMARK   15  A    between atoms: C_33  and  O_34 
REMARK   16  A    between atoms: O_34  and  C_35 
ROOT
HETATM    1  C   UNK     0      15.851  -3.439  22.771  0.00  0.00     0.126 C 
HETATM    2  C   UNK     0      16.403  -5.804  22.138  0.00  0.00     0.130 C 
HETATM    3  N   UNK     0      15.152  -6.244  22.859  0.00  0.00    -0.320 N 
HETATM    4  C   UNK     0      14.322  -5.327  23.488  0.00  0.00     0.319 C 
HETATM    5  N   UNK     0      14.663  -4.008  23.437  0.00  0.00    -0.343 N 
HETATM    6  O   UNK     0      13.310  -5.667  24.078  0.00  0.00    -0.247 OA
HETATM    7  C   UNK     0      16.359  -4.343  21.641  0.00  0.00     0.040 C 
HETATM    8  H   UNK     0      13.992  -3.414  23.923  0.00  0.00     0.164 HD
ENDROOT
BRANCH   3   9
HETATM    9  C   UNK     0      14.792  -7.704  22.909  0.00  0.00     0.184 C 
BRANCH   9  10
HETATM   10  C   UNK     0      13.370  -7.901  22.316  0.00  0.00     0.241 C 
HETATM   11  N   UNK     0      12.441  -8.225  23.267  0.00  0.00    -0.354 N 
HETATM   12  H   UNK     0      12.829  -8.288  24.208  0.00  0.00     0.162 HD
HETATM   13  O   UNK     0      13.146  -7.770  21.111  0.00  0.00    -0.271 OA
BRANCH  11  14
HETATM   14  C   UNK     0      11.006  -8.469  22.997  0.00  0.00     0.091 C 
BRANCH  14  15
HETATM   15  C   UNK     0      10.352  -9.239  24.167  0.00  0.00     0.063 C 
BRANCH  15  16
HETATM   16  C   UNK     0      11.231 -10.127  25.002  0.00  0.00    -0.056 A 
HETATM   17  C   UNK     0      11.585 -11.423  24.539  0.00  0.00     0.007 A 
HETATM   18  C   UNK     0      12.412 -12.267  25.315  0.00  0.00     0.001 A 
HETATM   19  C   UNK     0      12.896 -11.821  26.566  0.00  0.00     0.000 A 
HETATM   20  C   UNK     0      12.549 -10.531  27.034  0.00  0.00     0.001 A 
HETATM   21  C   UNK     0      11.720  -9.689  26.254  0.00  0.00     0.007 A 
ENDBRANCH  15  16
ENDBRANCH  14  15
BRANCH  14  22
HETATM   22  C   UNK     0      10.224  -7.145  22.859  0.00  0.00     0.059 C 
BRANCH  22  23
HETATM   23  C   UNK     0       9.528  -6.533  24.088  0.00  0.00     0.143 C 
BRANCH  23  24
HETATM   24  C   UNK     0       9.837  -5.048  24.408  0.00  0.00     0.117 C 
BRANCH  24  25
HETATM   25  N   UNK     0       9.528  -4.241  23.204  0.00  0.00    -0.352 N 
HETATM   26  C   UNK     0      10.420  -3.395  22.597  0.00  0.00     0.242 C 
HETATM   27  O   UNK     0      11.583  -3.206  22.969  0.00  0.00    -0.271 OA
HETATM   28  H   UNK     0       8.615  -4.271  22.751  0.00  0.00     0.163 HD
BRANCH  26  29
HETATM   29  C   UNK     0       9.858  -2.644  21.374  0.00  0.00     0.278 C 
BRANCH  29  30
HETATM   30  O   UNK     0      10.899  -2.006  20.611  0.00  0.00    -0.341 OA
BRANCH  30  31
HETATM   31  C   UNK     0      10.473  -1.514  19.362  0.00  0.00     0.081 A 
HETATM   32  C   UNK     0      10.772  -2.202  18.135  0.00  0.00    -0.028 A 
HETATM   33  C   UNK     0      10.313  -1.656  16.907  0.00  0.00     0.009 A 
HETATM   34  C   UNK     0      11.559  -3.491  18.102  0.00  0.00     0.051 C 
HETATM   35  C   UNK     0       9.571  -0.456  16.879  0.00  0.00     0.001 A 
HETATM   36  C   UNK     0       9.271   0.224  18.076  0.00  0.00     0.009 A 
HETATM   37  C   UNK     0       9.712  -0.291  19.319  0.00  0.00    -0.028 A 
HETATM   38  C   UNK     0       9.375   0.453  20.567  0.00  0.00     0.051 C 
ENDBRANCH  30  31
ENDBRANCH  29  30
ENDBRANCH  26  29
ENDBRANCH  24  25
BRANCH  24  39
HETATM   39  C   UNK     0       8.959  -4.543  25.590  0.00  0.00     0.066 C 
BRANCH  39  40
HETATM   40  C   UNK     0       8.775  -3.039  25.646  0.00  0.00    -0.056 A 
HETATM   41  C   UNK     0       9.870  -2.206  25.984  0.00  0.00     0.007 A 
HETATM   42  C   UNK     0       9.721  -0.799  26.048  0.00  0.00     0.001 A 
HETATM   43  C   UNK     0       8.473  -0.208  25.772  0.00  0.00     0.000 A 
HETATM   44  C   UNK     0       7.375  -1.029  25.433  0.00  0.00     0.001 A 
HETATM   45  C   UNK     0       7.523  -2.434  25.370  0.00  0.00     0.007 A 
ENDBRANCH  39  40
ENDBRANCH  24  39
ENDBRANCH  23  24
BRANCH  23  46
HETATM   46  O   UNK     0       8.147  -6.625  23.834  0.00  0.00    -0.393 OA
HETATM   47  H   UNK     0       7.992  -7.522  23.561  0.00  0.00     0.210 HD
ENDBRANCH  23  46
ENDBRANCH  22  23
ENDBRANCH  14  22
ENDBRANCH  11  14
ENDBRANCH   9  10
BRANCH   9  48
HETATM   48  C   UNK     0      14.918  -8.293  24.370  0.00  0.00     0.010 C 
HETATM   49  C   UNK     0      15.150  -9.816  24.400  0.00  0.00     0.012 C 
HETATM   50  C   UNK     0      16.068  -7.607  25.142  0.00  0.00     0.012 C 
ENDBRANCH   9  48
ENDBRANCH   3   9
TORSDOF 16
ENDMDL
MODEL 2
REMARK VINA RESULT:      -6.4      4.827      9.400
REMARK  16 active torsions:
REMARK  status: ('A' for Active; 'I' for Inactive)
REMARK    1  A    between atoms: N_3  and  C_13 
REMARK    2  A    between atoms: C_6  and  C_37 
REMARK    3  A    between atoms: C_13  and  C_14 
REMARK    4  A    between atoms: C_13  and  C_17 
REMARK       I    between atoms: C_14  and  N_15 
REMARK    5  A    between atoms: N_15  and  C_16 
REMARK    6  A    between atoms: C_16  and  C_27 
REMARK    7  A    between atoms: C_16  and  C_28 
REMARK    8  A    between atoms: C_25  and  C_27 
REMARK    9  A    between atoms: C_28  and  C_29 
REMARK   10  A    between atoms: C_29  and  C_30 
REMARK   11  A    between atoms: C_29  and  O_36 
REMARK   12  A    between atoms: C_30  and  N_31 
REMARK   13  A    between atoms: C_30  and  C_37 
REMARK       I    between atoms: N_31  and  C_32 
REMARK   14  A    between atoms: C_32  and  C_33 
REMARK   15  A    between atoms: C_33  and  O_34 
REMARK   16  A    between atoms: O_34  and  C_35 
ROOT
HETATM    1  C   UNK     0       7.764  -5.124  26.520  0.00  0.00     0.126 C 
HETATM    2  C   UNK     0       8.665  -4.310  24.324  0.00  0.00     0.130 C 
HETATM    3  N   UNK     0       9.936  -5.072  24.611  0.00  0.00    -0.320 N 
HETATM    4  C   UNK     0      10.090  -5.803  25.781  0.00  0.00     0.319 C 
HETATM    5  N   UNK     0       9.058  -5.820  26.671  0.00  0.00    -0.343 N 
HETATM    6  O   UNK     0      11.112  -6.421  26.029  0.00  0.00    -0.247 OA
HETATM    7  C   UNK     0       7.422  -4.869  25.048  0.00  0.00     0.040 C 
HETATM    8  H   UNK     0       9.264  -6.385  27.495  0.00  0.00     0.164 HD
ENDROOT
BRANCH   3   9
HETATM    9  C   UNK     0      11.068  -5.040  23.620  0.00  0.00     0.184 C 
BRANCH   9  10
HETATM   10  C   UNK     0      11.378  -3.565  23.245  0.00  0.00     0.241 C 
HETATM   11  N   UNK     0      12.181  -2.944  24.165  0.00  0.00    -0.354 N 
HETATM   12  H   UNK     0      12.444  -3.546  24.945  0.00  0.00     0.162 HD
HETATM   13  O   UNK     0      10.928  -3.047  22.222  0.00  0.00    -0.271 OA
BRANCH  11  14
HETATM   14  C   UNK     0      12.643  -1.542  24.071  0.00  0.00     0.091 C 
BRANCH  14  15
HETATM   15  C   UNK     0      11.955  -0.666  25.144  0.00  0.00     0.063 C 
BRANCH  15  16
HETATM   16  C   UNK     0      10.475  -0.440  25.022  0.00  0.00    -0.056 A 
HETATM   17  C   UNK     0       9.964   0.436  24.025  0.00  0.00     0.007 A 
HETATM   18  C   UNK     0       8.574   0.656  23.900  0.00  0.00     0.001 A 
HETATM   19  C   UNK     0       7.676   0.000  24.774  0.00  0.00     0.000 A 
HETATM   20  C   UNK     0       8.176  -0.873  25.769  0.00  0.00     0.001 A 
HETATM   21  C   UNK     0       9.569  -1.091  25.891  0.00  0.00     0.007 A 
ENDBRANCH  15  16
ENDBRANCH  14  15
BRANCH  14  22
HETATM   22  C   UNK     0      14.161  -1.427  24.327  0.00  0.00     0.059 C 
BRANCH  22  23
HETATM   23  C   UNK     0      15.057  -0.695  23.311  0.00  0.00     0.143 C 
BRANCH  23  24
HETATM   24  C   UNK     0      14.839   0.831  23.150  0.00  0.00     0.117 C 
BRANCH  24  25
HETATM   25  N   UNK     0      15.858   1.534  23.964  0.00  0.00    -0.352 N 
HETATM   26  C   UNK     0      15.689   1.869  25.283  0.00  0.00     0.242 C 
HETATM   27  O   UNK     0      14.679   1.627  25.952  0.00  0.00    -0.271 OA
HETATM   28  H   UNK     0      16.761   1.812  23.580  0.00  0.00     0.163 HD
BRANCH  26  29
HETATM   29  C   UNK     0      16.881   2.620  25.909  0.00  0.00     0.278 C 
BRANCH  29  30
HETATM   30  O   UNK     0      17.994   2.711  25.000  0.00  0.00    -0.341 OA
BRANCH  30  31
HETATM   31  C   UNK     0      19.252   2.712  25.634  0.00  0.00     0.081 A 
HETATM   32  C   UNK     0      19.835   3.917  26.159  0.00  0.00    -0.028 A 
HETATM   33  C   UNK     0      21.106   3.853  26.790  0.00  0.00     0.009 A 
HETATM   34  C   UNK     0      19.143   5.257  26.066  0.00  0.00     0.051 C 
HETATM   35  C   UNK     0      21.795   2.627  26.907  0.00  0.00     0.001 A 
HETATM   36  C   UNK     0      21.231   1.440  26.399  0.00  0.00     0.009 A 
HETATM   37  C   UNK     0      19.966   1.467  25.764  0.00  0.00    -0.028 A 
HETATM   38  C   UNK     0      19.397   0.192  25.239  0.00  0.00     0.051 C 
ENDBRANCH  30  31
ENDBRANCH  29  30
ENDBRANCH  26  29
ENDBRANCH  24  25
BRANCH  24  39
HETATM   39  C   UNK     0      15.003   1.258  21.661  0.00  0.00     0.066 C 
BRANCH  39  40
HETATM   40  C   UNK     0      13.718   1.687  20.979  0.00  0.00    -0.056 A 
HETATM   41  C   UNK     0      13.749   2.690  19.981  0.00  0.00     0.007 A 
HETATM   42  C   UNK     0      12.561   3.110  19.333  0.00  0.00     0.001 A 
HETATM   43  C   UNK     0      11.327   2.528  19.679  0.00  0.00     0.000 A 
HETATM   44  C   UNK     0      11.283   1.526  20.673  0.00  0.00     0.001 A 
HETATM   45  C   UNK     0      12.470   1.107  21.319  0.00  0.00     0.007 A 
ENDBRANCH  39  40
ENDBRANCH  24  39
ENDBRANCH  23  24
BRANCH  23  46
HETATM   46  O   UNK     0      16.378  -0.881  23.758  0.00  0.00    -0.393 OA
HETATM   47  H   UNK     0      16.712  -0.012  23.952  0.00  0.00     0.210 HD
ENDBRANCH  23  46
ENDBRANCH  22  23
ENDBRANCH  14  22
ENDBRANCH  11  14
ENDBRANCH   9  10
BRANCH   9  48
HETATM   48  C   UNK     0      10.764  -5.929  22.349  0.00  0.00     0.010 C 
HETATM   49  C   UNK     0      12.000  -6.173  21.461  0.00  0.00     0.012 C 
HETATM   50  C   UNK     0      10.180  -7.300  22.763  0.00  0.00     0.012 C 
ENDBRANCH   9  48
ENDBRANCH   3   9
TORSDOF 16
ENDMDL
MODEL 3
REMARK VINA RESULT:      -6.4      2.759      8.526
REMARK  16 active torsions:
REMARK  status: ('A' for Active; 'I' for Inactive)
REMARK    1  A    between atoms: N_3  and  C_13 
REMARK    2  A    between atoms: C_6  and  C_37 
REMARK    3  A    between atoms: C_13  and  C_14 
REMARK    4  A    between atoms: C_13  and  C_17 
REMARK       I    between atoms: C_14  and  N_15 
REMARK    5  A    between atoms: N_15  and  C_16 
REMARK    6  A    between atoms: C_16  and  C_27 
REMARK    7  A    between atoms: C_16  and  C_28 
REMARK    8  A    between atoms: C_25  and  C_27 
REMARK    9  A    between atoms: C_28  and  C_29 
REMARK   10  A    between atoms: C_29  and  C_30 
REMARK   11  A    between atoms: C_29  and  O_36 
REMARK   12  A    between atoms: C_30  and  N_31 
REMARK   13  A    between atoms: C_30  and  C_37 
REMARK       I    between atoms: N_31  and  C_32 
REMARK   14  A    between atoms: C_32  and  C_33 
REMARK   15  A    between atoms: C_33  and  O_34 
REMARK   16  A    between atoms: O_34  and  C_35 
ROOT
HETATM    1  C   UNK     0      10.539   1.373  20.234  0.00  0.00     0.126 C 
HETATM    2  C   UNK     0       9.786  -0.369  21.875  0.00  0.00     0.130 C 
HETATM    3  N   UNK     0       9.846   0.683  22.956  0.00  0.00    -0.320 N 
HETATM    4  C   UNK     0      10.231   1.987  22.673  0.00  0.00     0.319 C 
HETATM    5  N   UNK     0      10.554   2.298  21.385  0.00  0.00    -0.343 N 
HETATM    6  O   UNK     0      10.289   2.847  23.535  0.00  0.00    -0.247 OA
HETATM    7  C   UNK     0       9.576   0.201  20.457  0.00  0.00     0.040 C 
HETATM    8  H   UNK     0      10.820   3.276  21.277  0.00  0.00     0.164 HD
ENDROOT
BRANCH   3   9
HETATM    9  C   UNK     0       9.491   0.323  24.373  0.00  0.00     0.184 C 
BRANCH   9  10
HETATM   10  C   UNK     0      10.353  -0.888  24.823  0.00  0.00     0.241 C 
HETATM   11  N   UNK     0       9.789  -2.091  24.493  0.00  0.00    -0.354 N 
HETATM   12  H   UNK     0       8.896  -2.000  24.009  0.00  0.00     0.162 HD
HETATM   13  O   UNK     0      11.424  -0.738  25.414  0.00  0.00    -0.271 OA
BRANCH  11  14
HETATM   14  C   UNK     0      10.383  -3.413  24.792  0.00  0.00     0.091 C 
BRANCH  14  15
HETATM   15  C   UNK     0       9.291  -4.507  24.838  0.00  0.00     0.063 C 
BRANCH  15  16
HETATM   16  C   UNK     0       9.736  -5.942  24.843  0.00  0.00    -0.056 A 
HETATM   17  C   UNK     0      10.586  -6.424  25.875  0.00  0.00     0.007 A 
HETATM   18  C   UNK     0      11.010  -7.773  25.891  0.00  0.00     0.001 A 
HETATM   19  C   UNK     0      10.586  -8.656  24.871  0.00  0.00     0.000 A 
HETATM   20  C   UNK     0       9.739  -8.183  23.840  0.00  0.00     0.001 A 
HETATM   21  C   UNK     0       9.317  -6.832  23.828  0.00  0.00     0.007 A 
ENDBRANCH  15  16
ENDBRANCH  14  15
BRANCH  14  22
HETATM   22  C   UNK     0      11.383  -3.844  23.697  0.00  0.00     0.059 C 
BRANCH  22  23
HETATM   23  C   UNK     0      12.857  -4.098  24.062  0.00  0.00     0.143 C 
BRANCH  23  24
HETATM   24  C   UNK     0      13.715  -4.875  23.030  0.00  0.00     0.117 C 
BRANCH  24  25
HETATM   25  N   UNK     0      15.141  -4.567  23.288  0.00  0.00    -0.352 N 
HETATM   26  C   UNK     0      16.067  -4.333  22.304  0.00  0.00     0.242 C 
HETATM   27  O   UNK     0      15.830  -4.343  21.091  0.00  0.00    -0.271 OA
HETATM   28  H   UNK     0      15.521  -4.511  24.233  0.00  0.00     0.163 HD
BRANCH  26  29
HETATM   29  C   UNK     0      17.493  -4.060  22.820  0.00  0.00     0.278 C 
BRANCH  29  30
HETATM   30  O   UNK     0      18.183  -5.278  23.160  0.00  0.00    -0.341 OA
BRANCH  30  31
HETATM   31  C   UNK     0      18.329  -5.485  24.545  0.00  0.00     0.081 A 
HETATM   32  C   UNK     0      17.631  -6.539  25.231  0.00  0.00    -0.028 A 
HETATM   33  C   UNK     0      17.822  -6.699  26.630  0.00  0.00     0.009 A 
HETATM   34  C   UNK     0      16.698  -7.489  24.518  0.00  0.00     0.051 C 
HETATM   35  C   UNK     0      18.685  -5.843  27.346  0.00  0.00     0.001 A 
HETATM   36  C   UNK     0      19.375  -4.809  26.682  0.00  0.00     0.009 A 
HETATM   37  C   UNK     0      19.209  -4.620  25.289  0.00  0.00    -0.028 A 
HETATM   38  C   UNK     0      19.957  -3.518  24.618  0.00  0.00     0.051 C 
ENDBRANCH  30  31
ENDBRANCH  29  30
ENDBRANCH  26  29
ENDBRANCH  24  25
BRANCH  24  39
HETATM   39  C   UNK     0      13.498  -6.410  23.175  0.00  0.00     0.066 C 
BRANCH  39  40
HETATM   40  C   UNK     0      12.659  -7.037  22.078  0.00  0.00    -0.056 A 
HETATM   41  C   UNK     0      12.697  -8.438  21.874  0.00  0.00     0.007 A 
HETATM   42  C   UNK     0      11.926  -9.046  20.852  0.00  0.00     0.001 A 
HETATM   43  C   UNK     0      11.106  -8.257  20.024  0.00  0.00     0.000 A 
HETATM   44  C   UNK     0      11.059  -6.859  20.219  0.00  0.00     0.001 A 
HETATM   45  C   UNK     0      11.829  -6.252  21.239  0.00  0.00     0.007 A 
ENDBRANCH  39  40
ENDBRANCH  24  39
ENDBRANCH  23  24
BRANCH  23  46
HETATM   46  O   UNK     0      13.440  -2.827  24.214  0.00  0.00    -0.393 OA
HETATM   47  H   UNK     0      14.350  -2.984  24.439  0.00  0.00     0.210 HD
ENDBRANCH  23  46
ENDBRANCH  22  23
ENDBRANCH  14  22
ENDBRANCH  11  14
ENDBRANCH   9  10
BRANCH   9  48
HETATM   48  C   UNK     0       7.944   0.051  24.542  0.00  0.00     0.010 C 
HETATM   49  C   UNK     0       7.571  -0.546  25.913  0.00  0.00     0.012 C 
HETATM   50  C   UNK     0       7.132   1.352  24.339  0.00  0.00     0.012 C 
ENDBRANCH   9  48
ENDBRANCH   3   9
TORSDOF 16
ENDMDL
MODEL 4
REMARK VINA RESULT:      -6.3      3.332      7.569
REMARK  16 active torsions:
REMARK  status: ('A' for Active; 'I' for Inactive)
REMARK    1  A    between atoms: N_3  and  C_13 
REMARK    2  A    between atoms: C_6  and  C_37 
REMARK    3  A    between atoms: C_13  and  C_14 
REMARK    4  A    between atoms: C_13  and  C_17 
REMARK       I    between atoms: C_14  and  N_15 
REMARK    5  A    between atoms: N_15  and  C_16 
REMARK    6  A    between atoms: C_16  and  C_27 
REMARK    7  A    between atoms: C_16  and  C_28 
REMARK    8  A    between atoms: C_25  and  C_27 
REMARK    9  A    between atoms: C_28  and  C_29 
REMARK   10  A    between atoms: C_29  and  C_30 
REMARK   11  A    between atoms: C_29  and  O_36 
REMARK   12  A    between atoms: C_30  and  N_31 
REMARK   13  A    between atoms: C_30  and  C_37 
REMARK       I    between atoms: N_31  and  C_32 
REMARK   14  A    between atoms: C_32  and  C_33 
REMARK   15  A    between atoms: C_33  and  O_34 
REMARK   16  A    between atoms: O_34  and  C_35 
ROOT
HETATM    1  C   UNK     0       7.567  -5.250  26.518  0.00  0.00     0.126 C 
HETATM    2  C   UNK     0       8.484  -4.463  24.319  0.00  0.00     0.130 C 
HETATM    3  N   UNK     0       9.780  -5.159  24.657  0.00  0.00    -0.320 N 
HETATM    4  C   UNK     0       9.938  -5.847  25.853  0.00  0.00     0.319 C 
HETATM    5  N   UNK     0       8.886  -5.883  26.719  0.00  0.00    -0.343 N 
HETATM    6  O   UNK     0      10.979  -6.411  26.143  0.00  0.00    -0.247 OA
HETATM    7  C   UNK     0       7.250  -5.055  25.031  0.00  0.00     0.040 C 
HETATM    8  H   UNK     0       9.097  -6.413  27.565  0.00  0.00     0.164 HD
ENDROOT
BRANCH   3   9
HETATM    9  C   UNK     0      10.933  -5.106  23.692  0.00  0.00     0.184 C 
BRANCH   9  10
HETATM   10  C   UNK     0      11.288  -3.623  23.400  0.00  0.00     0.241 C 
HETATM   11  N   UNK     0      11.874  -2.999  24.470  0.00  0.00    -0.354 N 
HETATM   12  H   UNK     0      11.981  -3.606  25.283  0.00  0.00     0.162 HD
HETATM   13  O   UNK     0      11.049  -3.101  22.310  0.00  0.00    -0.271 OA
BRANCH  11  14
HETATM   14  C   UNK     0      12.321  -1.589  24.483  0.00  0.00     0.091 C 
BRANCH  14  15
HETATM   15  C   UNK     0      11.537  -0.777  25.540  0.00  0.00     0.063 C 
BRANCH  15  16
HETATM   16  C   UNK     0      10.104  -0.437  25.243  0.00  0.00    -0.056 A 
HETATM   17  C   UNK     0       9.787   0.489  24.212  0.00  0.00     0.007 A 
HETATM   18  C   UNK     0       8.442   0.817  23.923  0.00  0.00     0.001 A 
HETATM   19  C   UNK     0       7.397   0.218  24.665  0.00  0.00     0.000 A 
HETATM   20  C   UNK     0       7.705  -0.706  25.692  0.00  0.00     0.001 A 
HETATM   21  C   UNK     0       9.053  -1.030  25.979  0.00  0.00     0.007 A 
ENDBRANCH  15  16
ENDBRANCH  14  15
BRANCH  14  22
HETATM   22  C   UNK     0      13.812  -1.472  24.865  0.00  0.00     0.059 C 
BRANCH  22  23
HETATM   23  C   UNK     0      14.576  -0.165  24.583  0.00  0.00     0.143 C 
BRANCH  23  24
HETATM   24  C   UNK     0      15.036   0.082  23.123  0.00  0.00     0.117 C 
BRANCH  24  25
HETATM   25  N   UNK     0      13.869  -0.112  22.230  0.00  0.00    -0.352 N 
HETATM   26  C   UNK     0      12.923   0.848  21.983  0.00  0.00     0.242 C 
HETATM   27  O   UNK     0      12.926   1.987  22.463  0.00  0.00    -0.271 OA
HETATM   28  H   UNK     0      13.703  -0.991  21.740  0.00  0.00     0.163 HD
BRANCH  26  29
HETATM   29  C   UNK     0      11.790   0.400  21.039  0.00  0.00     0.278 C 
BRANCH  29  30
HETATM   30  O   UNK     0      12.288   0.031  19.740  0.00  0.00    -0.341 OA
BRANCH  30  31
HETATM   31  C   UNK     0      11.301   0.003  18.735  0.00  0.00     0.081 A 
HETATM   32  C   UNK     0      10.732  -1.233  18.267  0.00  0.00    -0.028 A 
HETATM   33  C   UNK     0       9.738  -1.196  17.253  0.00  0.00     0.009 A 
HETATM   34  C   UNK     0      11.152  -2.575  18.817  0.00  0.00     0.051 C 
HETATM   35  C   UNK     0       9.306   0.031  16.706  0.00  0.00     0.001 A 
HETATM   36  C   UNK     0       9.856   1.247  17.160  0.00  0.00     0.009 A 
HETATM   37  C   UNK     0      10.848   1.248  18.169  0.00  0.00    -0.028 A 
HETATM   38  C   UNK     0      11.406   2.553  18.628  0.00  0.00     0.051 C 
ENDBRANCH  30  31
ENDBRANCH  29  30
ENDBRANCH  26  29
ENDBRANCH  24  25
BRANCH  24  39
HETATM   39  C   UNK     0      15.564   1.537  22.950  0.00  0.00     0.066 C 
BRANCH  39  40
HETATM   40  C   UNK     0      16.818   1.854  23.742  0.00  0.00    -0.056 A 
HETATM   41  C   UNK     0      18.078   1.403  23.280  0.00  0.00     0.007 A 
HETATM   42  C   UNK     0      19.262   1.683  24.006  0.00  0.00     0.001 A 
HETATM   43  C   UNK     0      19.197   2.420  25.204  0.00  0.00     0.000 A 
HETATM   44  C   UNK     0      17.946   2.876  25.673  0.00  0.00     0.001 A 
HETATM   45  C   UNK     0      16.764   2.596  24.949  0.00  0.00     0.007 A 
ENDBRANCH  39  40
ENDBRANCH  24  39
ENDBRANCH  23  24
BRANCH  23  46
HETATM   46  O   UNK     0      13.693   0.877  24.922  0.00  0.00    -0.393 OA
HETATM   47  H   UNK     0      13.191   1.059  24.136  0.00  0.00     0.210 HD
ENDBRANCH  23  46
ENDBRANCH  22  23
ENDBRANCH  14  22
ENDBRANCH  11  14
ENDBRANCH   9  10
BRANCH   9  48
HETATM   48  C   UNK     0      10.633  -5.921  22.371  0.00  0.00     0.010 C 
HETATM   49  C   UNK     0      11.864  -6.083  21.458  0.00  0.00     0.012 C 
HETATM   50  C   UNK     0      10.082  -7.326  22.705  0.00  0.00     0.012 C 
ENDBRANCH   9  48
ENDBRANCH   3   9
TORSDOF 16
ENDMDL
MODEL 5
REMARK VINA RESULT:      -6.2      3.573      6.482
REMARK  16 active torsions:
REMARK  status: ('A' for Active; 'I' for Inactive)
REMARK    1  A    between atoms: N_3  and  C_13 
REMARK    2  A    between atoms: C_6  and  C_37 
REMARK    3  A    between atoms: C_13  and  C_14 
REMARK    4  A    between atoms: C_13  and  C_17 
REMARK       I    between atoms: C_14  and  N_15 
REMARK    5  A    between atoms: N_15  and  C_16 
REMARK    6  A    between atoms: C_16  and  C_27 
REMARK    7  A    between atoms: C_16  and  C_28 
REMARK    8  A    between atoms: C_25  and  C_27 
REMARK    9  A    between atoms: C_28  and  C_29 
REMARK   10  A    between atoms: C_29  and  C_30 
REMARK   11  A    between atoms: C_29  and  O_36 
REMARK   12  A    between atoms: C_30  and  N_31 
REMARK   13  A    between atoms: C_30  and  C_37 
REMARK       I    between atoms: N_31  and  C_32 
REMARK   14  A    between atoms: C_32  and  C_33 
REMARK   15  A    between atoms: C_33  and  O_34 
REMARK   16  A    between atoms: O_34  and  C_35 
ROOT
HETATM    1  C   UNK     0      14.792  -6.977  32.913  0.00  0.00     0.126 C 
HETATM    2  C   UNK     0      12.890  -7.727  31.460  0.00  0.00     0.130 C 
HETATM    3  N   UNK     0      13.857  -8.626  30.729  0.00  0.00    -0.320 N 
HETATM    4  C   UNK     0      15.199  -8.679  31.081  0.00  0.00     0.319 C 
HETATM    5  N   UNK     0      15.625  -7.898  32.114  0.00  0.00    -0.343 N 
HETATM    6  O   UNK     0      15.994  -9.396  30.499  0.00  0.00    -0.247 OA
HETATM    7  C   UNK     0      13.316  -7.390  32.904  0.00  0.00     0.040 C 
HETATM    8  H   UNK     0      16.622  -8.009  32.300  0.00  0.00     0.164 HD
ENDROOT
BRANCH   3   9
HETATM    9  C   UNK     0      13.371  -9.479  29.589  0.00  0.00     0.184 C 
BRANCH   9  10
HETATM   10  C   UNK     0      13.016  -8.567  28.383  0.00  0.00     0.241 C 
HETATM   11  N   UNK     0      12.499  -9.266  27.325  0.00  0.00    -0.354 N 
HETATM   12  H   UNK     0      12.433 -10.269  27.496  0.00  0.00     0.162 HD
HETATM   13  O   UNK     0      13.197  -7.348  28.416  0.00  0.00    -0.271 OA
BRANCH  11  14
HETATM   14  C   UNK     0      12.069  -8.662  26.044  0.00  0.00     0.091 C 
BRANCH  14  15
HETATM   15  C   UNK     0      11.986  -9.736  24.934  0.00  0.00     0.063 C 
BRANCH  15  16
HETATM   16  C   UNK     0      12.785  -9.512  23.681  0.00  0.00    -0.056 A 
HETATM   17  C   UNK     0      13.900  -8.631  23.690  0.00  0.00     0.007 A 
HETATM   18  C   UNK     0      14.659  -8.413  22.518  0.00  0.00     0.001 A 
HETATM   19  C   UNK     0      14.309  -9.077  21.319  0.00  0.00     0.000 A 
HETATM   20  C   UNK     0      13.200  -9.956  21.302  0.00  0.00     0.001 A 
HETATM   21  C   UNK     0      12.442 -10.171  22.478  0.00  0.00     0.007 A 
ENDBRANCH  15  16
ENDBRANCH  14  15
BRANCH  14  22
HETATM   22  C   UNK     0      10.658  -8.045  26.155  0.00  0.00     0.059 C 
BRANCH  22  23
HETATM   23  C   UNK     0      10.481  -6.517  26.075  0.00  0.00     0.143 C 
BRANCH  23  24
HETATM   24  C   UNK     0      10.218  -5.910  24.674  0.00  0.00     0.117 C 
BRANCH  24  25
HETATM   25  N   UNK     0       9.612  -4.570  24.855  0.00  0.00    -0.352 N 
HETATM   26  C   UNK     0       8.267  -4.319  24.778  0.00  0.00     0.242 C 
HETATM   27  O   UNK     0       7.398  -5.169  24.555  0.00  0.00    -0.271 OA
HETATM   28  H   UNK     0      10.175  -3.743  25.052  0.00  0.00     0.163 HD
BRANCH  26  29
HETATM   29  C   UNK     0       7.880  -2.840  24.977  0.00  0.00     0.278 C 
BRANCH  29  30
HETATM   30  O   UNK     0       9.029  -2.019  25.261  0.00  0.00    -0.341 OA
BRANCH  30  31
HETATM   31  C   UNK     0       9.113  -0.859  24.467  0.00  0.00     0.081 A 
HETATM   32  C   UNK     0       8.427   0.354  24.823  0.00  0.00    -0.028 A 
HETATM   33  C   UNK     0       8.553   1.492  23.982  0.00  0.00     0.009 A 
HETATM   34  C   UNK     0       7.574   0.466  26.065  0.00  0.00     0.051 C 
HETATM   35  C   UNK     0       9.340   1.445  22.812  0.00  0.00     0.001 A 
HETATM   36  C   UNK     0      10.018   0.262  22.456  0.00  0.00     0.009 A 
HETATM   37  C   UNK     0       9.915  -0.892  23.270  0.00  0.00    -0.028 A 
HETATM   38  C   UNK     0      10.647  -2.126  22.865  0.00  0.00     0.051 C 
ENDBRANCH  30  31
ENDBRANCH  29  30
ENDBRANCH  26  29
ENDBRANCH  24  25
BRANCH  24  39
HETATM   39  C   UNK     0      11.548  -5.757  23.879  0.00  0.00     0.066 C 
BRANCH  39  40
HETATM   40  C   UNK     0      11.478  -6.209  22.433  0.00  0.00    -0.056 A 
HETATM   41  C   UNK     0      10.478  -7.125  22.027  0.00  0.00     0.007 A 
HETATM   42  C   UNK     0      10.397  -7.566  20.683  0.00  0.00     0.001 A 
HETATM   43  C   UNK     0      11.317  -7.092  19.729  0.00  0.00     0.000 A 
HETATM   44  C   UNK     0      12.318  -6.177  20.122  0.00  0.00     0.001 A 
HETATM   45  C   UNK     0      12.400  -5.738  21.464  0.00  0.00     0.007 A 
ENDBRANCH  39  40
ENDBRANCH  24  39
ENDBRANCH  23  24
BRANCH  23  46
HETATM   46  O   UNK     0       9.363  -6.217  26.875  0.00  0.00    -0.393 OA
HETATM   47  H   UNK     0       9.708  -6.008  27.736  0.00  0.00     0.210 HD
ENDBRANCH  23  46
ENDBRANCH  22  23
ENDBRANCH  14  22
ENDBRANCH  11  14
ENDBRANCH   9  10
BRANCH   9  48
HETATM   48  C   UNK     0      12.164 -10.403  30.016  0.00  0.00     0.010 C 
HETATM   49  C   UNK     0      12.431 -11.206  31.304  0.00  0.00     0.012 C 
HETATM   50  C   UNK     0      10.877  -9.569  30.218  0.00  0.00     0.012 C 
ENDBRANCH   9  48
ENDBRANCH   3   9
TORSDOF 16
ENDMDL
MODEL 6
REMARK VINA RESULT:      -6.2     11.264     15.556
REMARK  16 active torsions:
REMARK  status: ('A' for Active; 'I' for Inactive)
REMARK    1  A    between atoms: N_3  and  C_13 
REMARK    2  A    between atoms: C_6  and  C_37 
REMARK    3  A    between atoms: C_13  and  C_14 
REMARK    4  A    between atoms: C_13  and  C_17 
REMARK       I    between atoms: C_14  and  N_15 
REMARK    5  A    between atoms: N_15  and  C_16 
REMARK    6  A    between atoms: C_16  and  C_27 
REMARK    7  A    between atoms: C_16  and  C_28 
REMARK    8  A    between atoms: C_25  and  C_27 
REMARK    9  A    between atoms: C_28  and  C_29 
REMARK   10  A    between atoms: C_29  and  C_30 
REMARK   11  A    between atoms: C_29  and  O_36 
REMARK   12  A    between atoms: C_30  and  N_31 
REMARK   13  A    between atoms: C_30  and  C_37 
REMARK       I    between atoms: N_31  and  C_32 
REMARK   14  A    between atoms: C_32  and  C_33 
REMARK   15  A    between atoms: C_33  and  O_34 
REMARK   16  A    between atoms: O_34  and  C_35 
ROOT
HETATM    1  C   UNK     0      21.575   6.108  14.941  0.00  0.00     0.126 C 
HETATM    2  C   UNK     0      20.224   7.168  16.770  0.00  0.00     0.130 C 
HETATM    3  N   UNK     0      20.395   5.901  17.573  0.00  0.00    -0.320 N 
HETATM    4  C   UNK     0      21.110   4.821  17.073  0.00  0.00     0.319 C 
HETATM    5  N   UNK     0      21.662   4.934  15.831  0.00  0.00    -0.343 N 
HETATM    6  O   UNK     0      21.254   3.790  17.707  0.00  0.00    -0.247 OA
HETATM    7  C   UNK     0      21.335   7.403  15.726  0.00  0.00     0.040 C 
HETATM    8  H   UNK     0      22.169   4.094  15.553  0.00  0.00     0.164 HD
ENDROOT
BRANCH   3   9
HETATM    9  C   UNK     0      19.776   5.791  18.940  0.00  0.00     0.184 C 
BRANCH   9  10
HETATM   10  C   UNK     0      18.395   5.090  18.821  0.00  0.00     0.241 C 
HETATM   11  N   UNK     0      17.517   5.784  18.032  0.00  0.00    -0.354 N 
HETATM   12  H   UNK     0      17.907   6.646  17.653  0.00  0.00     0.162 HD
HETATM   13  O   UNK     0      18.157   4.025  19.393  0.00  0.00    -0.271 OA
BRANCH  11  14
HETATM   14  C   UNK     0      16.131   5.358  17.736  0.00  0.00     0.091 C 
BRANCH  14  15
HETATM   15  C   UNK     0      15.193   5.684  18.922  0.00  0.00     0.063 C 
BRANCH  15  16
HETATM   16  C   UNK     0      13.912   4.909  19.036  0.00  0.00    -0.056 A 
HETATM   17  C   UNK     0      12.660   5.582  18.997  0.00  0.00     0.007 A 
HETATM   18  C   UNK     0      11.448   4.863  19.103  0.00  0.00     0.001 A 
HETATM   19  C   UNK     0      11.475   3.456  19.250  0.00  0.00     0.000 A 
HETATM   20  C   UNK     0      12.717   2.778  19.290  0.00  0.00     0.001 A 
HETATM   21  C   UNK     0      13.928   3.502  19.183  0.00  0.00     0.007 A 
ENDBRANCH  15  16
ENDBRANCH  14  15
BRANCH  14  22
HETATM   22  C   UNK     0      15.558   6.105  16.512  0.00  0.00     0.059 C 
BRANCH  22  23
HETATM   23  C   UNK     0      16.187   5.894  15.123  0.00  0.00     0.143 C 
BRANCH  23  24
HETATM   24  C   UNK     0      16.653   7.160  14.360  0.00  0.00     0.117 C 
BRANCH  24  25
HETATM   25  N   UNK     0      16.043   7.139  13.009  0.00  0.00    -0.352 N 
HETATM   26  C   UNK     0      16.243   6.139  12.093  0.00  0.00     0.242 C 
HETATM   27  O   UNK     0      16.945   5.139  12.277  0.00  0.00    -0.271 OA
HETATM   28  H   UNK     0      15.428   7.882  12.680  0.00  0.00     0.163 HD
BRANCH  26  29
HETATM   29  C   UNK     0      15.523   6.353  10.747  0.00  0.00     0.278 C 
BRANCH  29  30
HETATM   30  O   UNK     0      16.143   5.608   9.682  0.00  0.00    -0.341 OA
BRANCH  30  31
HETATM   31  C   UNK     0      15.229   4.968   8.823  0.00  0.00     0.081 A 
HETATM   32  C   UNK     0      14.719   3.653   9.105  0.00  0.00    -0.028 A 
HETATM   33  C   UNK     0      13.798   3.060   8.200  0.00  0.00     0.009 A 
HETATM   34  C   UNK     0      15.127   2.873  10.333  0.00  0.00     0.051 C 
HETATM   35  C   UNK     0      13.379   3.745   7.040  0.00  0.00     0.001 A 
HETATM   36  C   UNK     0      13.871   5.035   6.757  0.00  0.00     0.009 A 
HETATM   37  C   UNK     0      14.791   5.656   7.635  0.00  0.00    -0.028 A 
HETATM   38  C   UNK     0      15.289   7.022   7.307  0.00  0.00     0.051 C 
ENDBRANCH  30  31
ENDBRANCH  29  30
ENDBRANCH  26  29
ENDBRANCH  24  25
BRANCH  24  39
HETATM   39  C   UNK     0      16.191   8.451  15.099  0.00  0.00     0.066 C 
BRANCH  39  40
HETATM   40  C   UNK     0      17.317   9.292  15.670  0.00  0.00    -0.056 A 
HETATM   41  C   UNK     0      18.303   9.830  14.808  0.00  0.00     0.007 A 
HETATM   42  C   UNK     0      19.367  10.614  15.319  0.00  0.00     0.001 A 
HETATM   43  C   UNK     0      19.454  10.868  16.701  0.00  0.00     0.000 A 
HETATM   44  C   UNK     0      18.476  10.338  17.570  0.00  0.00     0.001 A 
HETATM   45  C   UNK     0      17.414   9.555  17.059  0.00  0.00     0.007 A 
ENDBRANCH  39  40
ENDBRANCH  24  39
ENDBRANCH  23  24
BRANCH  23  46
HETATM   46  O   UNK     0      17.325   5.093  15.333  0.00  0.00    -0.393 OA
HETATM   47  H   UNK     0      17.869   5.572  15.948  0.00  0.00     0.210 HD
ENDBRANCH  23  46
ENDBRANCH  22  23
ENDBRANCH  14  22
ENDBRANCH  11  14
ENDBRANCH   9  10
BRANCH   9  48
HETATM   48  C   UNK     0      19.675   7.196  19.656  0.00  0.00     0.010 C 
HETATM   49  C   UNK     0      18.744   7.194  20.884  0.00  0.00     0.012 C 
HETATM   50  C   UNK     0      21.071   7.689  20.101  0.00  0.00     0.012 C 
ENDBRANCH   9  48
ENDBRANCH   3   9
TORSDOF 16
ENDMDL
MODEL 7
REMARK VINA RESULT:      -6.0      2.719      6.207
REMARK  16 active torsions:
REMARK  status: ('A' for Active; 'I' for Inactive)
REMARK    1  A    between atoms: N_3  and  C_13 
REMARK    2  A    between atoms: C_6  and  C_37 
REMARK    3  A    between atoms: C_13  and  C_14 
REMARK    4  A    between atoms: C_13  and  C_17 
REMARK       I    between atoms: C_14  and  N_15 
REMARK    5  A    between atoms: N_15  and  C_16 
REMARK    6  A    between atoms: C_16  and  C_27 
REMARK    7  A    between atoms: C_16  and  C_28 
REMARK    8  A    between atoms: C_25  and  C_27 
REMARK    9  A    between atoms: C_28  and  C_29 
REMARK   10  A    between atoms: C_29  and  C_30 
REMARK   11  A    between atoms: C_29  and  O_36 
REMARK   12  A    between atoms: C_30  and  N_31 
REMARK   13  A    between atoms: C_30  and  C_37 
REMARK       I    between atoms: N_31  and  C_32 
REMARK   14  A    between atoms: C_32  and  C_33 
REMARK   15  A    between atoms: C_33  and  O_34 
REMARK   16  A    between atoms: O_34  and  C_35 
ROOT
HETATM    1  C   UNK     0      13.688  -7.371  29.380  0.00  0.00     0.126 C 
HETATM    2  C   UNK     0      11.529  -8.400  28.622  0.00  0.00     0.130 C 
HETATM    3  N   UNK     0      12.319  -9.581  28.113  0.00  0.00    -0.320 N 
HETATM    4  C   UNK     0      13.700  -9.632  28.237  0.00  0.00     0.319 C 
HETATM    5  N   UNK     0      14.332  -8.584  28.838  0.00  0.00    -0.343 N 
HETATM    6  O   UNK     0      14.353 -10.576  27.827  0.00  0.00    -0.247 OA
HETATM    7  C   UNK     0      12.225  -7.624  29.761  0.00  0.00     0.040 C 
HETATM    8  H   UNK     0      15.343  -8.715  28.886  0.00  0.00     0.164 HD
ENDROOT
BRANCH   3   9
HETATM    9  C   UNK     0      11.606 -10.727  27.449  0.00  0.00     0.184 C 
BRANCH   9  10
HETATM   10  C   UNK     0      11.697 -10.561  25.907  0.00  0.00     0.241 C 
HETATM   11  N   UNK     0      11.341  -9.307  25.489  0.00  0.00    -0.354 N 
HETATM   12  H   UNK     0      11.072  -8.686  26.252  0.00  0.00     0.162 HD
HETATM   13  O   UNK     0      12.054 -11.485  25.175  0.00  0.00    -0.271 OA
BRANCH  11  14
HETATM   14  C   UNK     0      11.333  -8.858  24.079  0.00  0.00     0.091 C 
BRANCH  14  15
HETATM   15  C   UNK     0      11.391 -10.069  23.119  0.00  0.00     0.063 C 
BRANCH  15  16
HETATM   16  C   UNK     0      12.166  -9.914  21.841  0.00  0.00    -0.056 A 
HETATM   17  C   UNK     0      13.469 -10.469  21.722  0.00  0.00     0.007 A 
HETATM   18  C   UNK     0      14.208 -10.330  20.524  0.00  0.00     0.001 A 
HETATM   19  C   UNK     0      13.648  -9.632  19.429  0.00  0.00     0.000 A 
HETATM   20  C   UNK     0      12.350  -9.077  19.540  0.00  0.00     0.001 A 
HETATM   21  C   UNK     0      11.615  -9.218  20.741  0.00  0.00     0.007 A 
ENDBRANCH  15  16
ENDBRANCH  14  15
BRANCH  14  22
HETATM   22  C   UNK     0      10.035  -8.095  23.735  0.00  0.00     0.059 C 
BRANCH  22  23
HETATM   23  C   UNK     0       9.936  -6.585  24.017  0.00  0.00     0.143 C 
BRANCH  23  24
HETATM   24  C   UNK     0      10.836  -5.649  23.171  0.00  0.00     0.117 C 
BRANCH  24  25
HETATM   25  N   UNK     0      10.223  -4.300  23.161  0.00  0.00    -0.352 N 
HETATM   26  C   UNK     0      10.232  -3.460  22.077  0.00  0.00     0.242 C 
HETATM   27  O   UNK     0      10.743  -3.721  20.982  0.00  0.00    -0.271 OA
HETATM   28  H   UNK     0       9.750  -3.914  23.977  0.00  0.00     0.163 HD
BRANCH  26  29
HETATM   29  C   UNK     0       9.552  -2.098  22.318  0.00  0.00     0.278 C 
BRANCH  29  30
HETATM   30  O   UNK     0       9.984  -1.494  23.552  0.00  0.00    -0.341 OA
BRANCH  30  31
HETATM   31  C   UNK     0       9.042  -0.613  24.117  0.00  0.00     0.081 A 
HETATM   32  C   UNK     0       8.958   0.766  23.715  0.00  0.00    -0.028 A 
HETATM   33  C   UNK     0       7.985   1.605  24.322  0.00  0.00     0.009 A 
HETATM   34  C   UNK     0       9.869   1.359  22.666  0.00  0.00     0.051 C 
HETATM   35  C   UNK     0       7.107   1.103  25.305  0.00  0.00     0.001 A 
HETATM   36  C   UNK     0       7.179  -0.247  25.703  0.00  0.00     0.009 A 
HETATM   37  C   UNK     0       8.136  -1.112  25.121  0.00  0.00    -0.028 A 
HETATM   38  C   UNK     0       8.184  -2.535  25.564  0.00  0.00     0.051 C 
ENDBRANCH  30  31
ENDBRANCH  29  30
ENDBRANCH  26  29
ENDBRANCH  24  25
BRANCH  24  39
HETATM   39  C   UNK     0      12.262  -5.548  23.789  0.00  0.00     0.066 C 
BRANCH  39  40
HETATM   40  C   UNK     0      13.376  -6.067  22.900  0.00  0.00    -0.056 A 
HETATM   41  C   UNK     0      13.341  -5.818  21.506  0.00  0.00     0.007 A 
HETATM   42  C   UNK     0      14.368  -6.297  20.656  0.00  0.00     0.001 A 
HETATM   43  C   UNK     0      15.443  -7.031  21.192  0.00  0.00     0.000 A 
HETATM   44  C   UNK     0      15.489  -7.284  22.581  0.00  0.00     0.001 A 
HETATM   45  C   UNK     0      14.464  -6.806  23.430  0.00  0.00     0.007 A 
ENDBRANCH  39  40
ENDBRANCH  24  39
ENDBRANCH  23  24
BRANCH  23  46
HETATM   46  O   UNK     0       8.600  -6.230  23.749  0.00  0.00    -0.393 OA
HETATM   47  H   UNK     0       8.445  -6.471  22.843  0.00  0.00     0.210 HD
ENDBRANCH  23  46
ENDBRANCH  22  23
ENDBRANCH  14  22
ENDBRANCH  11  14
ENDBRANCH   9  10
BRANCH   9  48
HETATM   48  C   UNK     0      10.114 -10.864  27.949  0.00  0.00     0.010 C 
HETATM   49  C   UNK     0       9.174 -11.506  26.910  0.00  0.00     0.012 C 
HETATM   50  C   UNK     0      10.044 -11.696  29.251  0.00  0.00     0.012 C 
ENDBRANCH   9  48
ENDBRANCH   3   9
TORSDOF 16
ENDMDL
MODEL 8
REMARK VINA RESULT:      -6.0     12.711     16.670
REMARK  16 active torsions:
REMARK  status: ('A' for Active; 'I' for Inactive)
REMARK    1  A    between atoms: N_3  and  C_13 
REMARK    2  A    between atoms: C_6  and  C_37 
REMARK    3  A    between atoms: C_13  and  C_14 
REMARK    4  A    between atoms: C_13  and  C_17 
REMARK       I    between atoms: C_14  and  N_15 
REMARK    5  A    between atoms: N_15  and  C_16 
REMARK    6  A    between atoms: C_16  and  C_27 
REMARK    7  A    between atoms: C_16  and  C_28 
REMARK    8  A    between atoms: C_25  and  C_27 
REMARK    9  A    between atoms: C_28  and  C_29 
REMARK   10  A    between atoms: C_29  and  C_30 
REMARK   11  A    between atoms: C_29  and  O_36 
REMARK   12  A    between atoms: C_30  and  N_31 
REMARK   13  A    between atoms: C_30  and  C_37 
REMARK       I    between atoms: N_31  and  C_32 
REMARK   14  A    between atoms: C_32  and  C_33 
REMARK   15  A    between atoms: C_33  and  O_34 
REMARK   16  A    between atoms: O_34  and  C_35 
ROOT
HETATM    1  C   UNK     0      14.993   5.974  17.761  0.00  0.00     0.126 C 
HETATM    2  C   UNK     0      16.306   5.466  15.684  0.00  0.00     0.130 C 
HETATM    3  N   UNK     0      15.901   6.818  15.147  0.00  0.00    -0.320 N 
HETATM    4  C   UNK     0      15.093   7.673  15.884  0.00  0.00     0.319 C 
HETATM    5  N   UNK     0      14.674   7.263  17.115  0.00  0.00    -0.343 N 
HETATM    6  O   UNK     0      14.754   8.766  15.463  0.00  0.00    -0.247 OA
HETATM    7  C   UNK     0      16.298   5.375  17.224  0.00  0.00     0.040 C 
HETATM    8  H   UNK     0      14.091   7.960  17.579  0.00  0.00     0.164 HD
ENDROOT
BRANCH   3   9
HETATM    9  C   UNK     0      16.369   7.253  13.785  0.00  0.00     0.184 C 
BRANCH   9  10
HETATM   10  C   UNK     0      15.690   6.368  12.704  0.00  0.00     0.241 C 
HETATM   11  N   UNK     0      16.529   5.409  12.203  0.00  0.00    -0.354 N 
HETATM   12  H   UNK     0      17.461   5.431  12.616  0.00  0.00     0.162 HD
HETATM   13  O   UNK     0      14.519   6.545  12.363  0.00  0.00    -0.271 OA
BRANCH  11  14
HETATM   14  C   UNK     0      16.157   4.422  11.165  0.00  0.00     0.091 C 
BRANCH  14  15
HETATM   15  C   UNK     0      16.153   5.076   9.764  0.00  0.00     0.063 C 
BRANCH  15  16
HETATM   16  C   UNK     0      15.130   4.602   8.772  0.00  0.00    -0.056 A 
HETATM   17  C   UNK     0      14.603   3.285   8.861  0.00  0.00     0.007 A 
HETATM   18  C   UNK     0      13.640   2.827   7.933  0.00  0.00     0.001 A 
HETATM   19  C   UNK     0      13.192   3.686   6.902  0.00  0.00     0.000 A 
HETATM   20  C   UNK     0      13.712   4.999   6.807  0.00  0.00     0.001 A 
HETATM   21  C   UNK     0      14.676   5.453   7.738  0.00  0.00     0.007 A 
ENDBRANCH  15  16
ENDBRANCH  14  15
BRANCH  14  22
HETATM   22  C   UNK     0      17.174   3.262  11.098  0.00  0.00     0.059 C 
BRANCH  22  23
HETATM   23  C   UNK     0      16.886   1.946  11.845  0.00  0.00     0.143 C 
BRANCH  23  24
HETATM   24  C   UNK     0      17.884   1.533  12.957  0.00  0.00     0.117 C 
BRANCH  24  25
HETATM   25  N   UNK     0      18.362   0.162  12.665  0.00  0.00    -0.352 N 
HETATM   26  C   UNK     0      18.300  -0.879  13.555  0.00  0.00     0.242 C 
HETATM   27  O   UNK     0      17.837  -0.807  14.699  0.00  0.00    -0.271 OA
HETATM   28  H   UNK     0      18.773  -0.089  11.766  0.00  0.00     0.163 HD
BRANCH  26  29
HETATM   29  C   UNK     0      18.884  -2.205  13.030  0.00  0.00     0.278 C 
BRANCH  29  30
HETATM   30  O   UNK     0      19.371  -2.080  11.681  0.00  0.00    -0.341 OA
BRANCH  30  31
HETATM   31  C   UNK     0      18.868  -3.054  10.798  0.00  0.00     0.081 A 
HETATM   32  C   UNK     0      17.708  -2.811   9.983  0.00  0.00    -0.028 A 
HETATM   33  C   UNK     0      17.250  -3.833   9.109  0.00  0.00     0.009 A 
HETATM   34  C   UNK     0      16.954  -1.502  10.019  0.00  0.00     0.051 C 
HETATM   35  C   UNK     0      17.917  -5.074   9.032  0.00  0.00     0.001 A 
HETATM   36  C   UNK     0      19.056  -5.321   9.824  0.00  0.00     0.009 A 
HETATM   37  C   UNK     0      19.541  -4.325  10.707  0.00  0.00    -0.028 A 
HETATM   38  C   UNK     0      20.750  -4.618  11.528  0.00  0.00     0.051 C 
ENDBRANCH  30  31
ENDBRANCH  29  30
ENDBRANCH  26  29
ENDBRANCH  24  25
BRANCH  24  39
HETATM   39  C   UNK     0      19.108   2.497  12.986  0.00  0.00     0.066 C 
BRANCH  39  40
HETATM   40  C   UNK     0      19.386   3.128  14.336  0.00  0.00    -0.056 A 
HETATM   41  C   UNK     0      20.158   4.312  14.416  0.00  0.00     0.007 A 
HETATM   42  C   UNK     0      20.435   4.917  15.667  0.00  0.00     0.001 A 
HETATM   43  C   UNK     0      19.940   4.342  16.853  0.00  0.00     0.000 A 
HETATM   44  C   UNK     0      19.169   3.162  16.785  0.00  0.00     0.001 A 
HETATM   45  C   UNK     0      18.893   2.557  15.537  0.00  0.00     0.007 A 
ENDBRANCH  39  40
ENDBRANCH  24  39
ENDBRANCH  23  24
BRANCH  23  46
HETATM   46  O   UNK     0      15.630   2.118  12.457  0.00  0.00    -0.393 OA
HETATM   47  H   UNK     0      15.063   1.457  12.077  0.00  0.00     0.210 HD
ENDBRANCH  23  46
ENDBRANCH  22  23
ENDBRANCH  14  22
ENDBRANCH  11  14
ENDBRANCH   9  10
BRANCH   9  48
HETATM   48  C   UNK     0      17.944   7.236  13.670  0.00  0.00     0.010 C 
HETATM   49  C   UNK     0      18.473   7.907  12.387  0.00  0.00     0.012 C 
HETATM   50  C   UNK     0      18.593   7.932  14.889  0.00  0.00     0.012 C 
ENDBRANCH   9  48
ENDBRANCH   3   9
TORSDOF 16
ENDMDL
MODEL 9
REMARK VINA RESULT:      -6.0     11.205     15.596
REMARK  16 active torsions:
REMARK  status: ('A' for Active; 'I' for Inactive)
REMARK    1  A    between atoms: N_3  and  C_13 
REMARK    2  A    between atoms: C_6  and  C_37 
REMARK    3  A    between atoms: C_13  and  C_14 
REMARK    4  A    between atoms: C_13  and  C_17 
REMARK       I    between atoms: C_14  and  N_15 
REMARK    5  A    between atoms: N_15  and  C_16 
REMARK    6  A    between atoms: C_16  and  C_27 
REMARK    7  A    between atoms: C_16  and  C_28 
REMARK    8  A    between atoms: C_25  and  C_27 
REMARK    9  A    between atoms: C_28  and  C_29 
REMARK   10  A    between atoms: C_29  and  C_30 
REMARK   11  A    between atoms: C_29  and  O_36 
REMARK   12  A    between atoms: C_30  and  N_31 
REMARK   13  A    between atoms: C_30  and  C_37 
REMARK       I    between atoms: N_31  and  C_32 
REMARK   14  A    between atoms: C_32  and  C_33 
REMARK   15  A    between atoms: C_33  and  O_34 
REMARK   16  A    between atoms: O_34  and  C_35 
ROOT
HETATM    1  C   UNK     0      20.511   6.327  23.350  0.00  0.00     0.126 C 
HETATM    2  C   UNK     0      19.451   5.430  21.260  0.00  0.00     0.130 C 
HETATM    3  N   UNK     0      19.807   6.725  20.573  0.00  0.00    -0.320 N 
HETATM    4  C   UNK     0      20.470   7.741  21.248  0.00  0.00     0.319 C 
HETATM    5  N   UNK     0      20.797   7.539  22.556  0.00  0.00    -0.343 N 
HETATM    6  O   UNK     0      20.762   8.795  20.708  0.00  0.00    -0.247 OA
HETATM    7  C   UNK     0      20.357   5.087  22.461  0.00  0.00     0.040 C 
HETATM    8  H   UNK     0      21.283   8.338  22.963  0.00  0.00     0.164 HD
ENDROOT
BRANCH   3   9
HETATM    9  C   UNK     0      19.436   6.934  19.130  0.00  0.00     0.184 C 
BRANCH   9  10
HETATM   10  C   UNK     0      17.894   6.834  18.980  0.00  0.00     0.241 C 
HETATM   11  N   UNK     0      17.510   5.848  18.110  0.00  0.00    -0.354 N 
HETATM   12  H   UNK     0      18.295   5.341  17.700  0.00  0.00     0.162 HD
HETATM   13  O   UNK     0      17.132   7.582  19.595  0.00  0.00    -0.271 OA
BRANCH  11  14
HETATM   14  C   UNK     0      16.107   5.520  17.771  0.00  0.00     0.091 C 
BRANCH  14  15
HETATM   15  C   UNK     0      15.189   5.708  19.001  0.00  0.00     0.063 C 
BRANCH  15  16
HETATM   16  C   UNK     0      13.932   4.888  19.070  0.00  0.00    -0.056 A 
HETATM   17  C   UNK     0      12.660   5.522  19.021  0.00  0.00     0.007 A 
HETATM   18  C   UNK     0      11.471   4.761  19.085  0.00  0.00     0.001 A 
HETATM   19  C   UNK     0      11.541   3.353  19.197  0.00  0.00     0.000 A 
HETATM   20  C   UNK     0      12.804   2.714  19.245  0.00  0.00     0.001 A 
HETATM   21  C   UNK     0      13.992   3.480  19.182  0.00  0.00     0.007 A 
ENDBRANCH  15  16
ENDBRANCH  14  15
BRANCH  14  22
HETATM   22  C   UNK     0      15.557   6.456  16.673  0.00  0.00     0.059 C 
BRANCH  22  23
HETATM   23  C   UNK     0      15.791   6.117  15.189  0.00  0.00     0.143 C 
BRANCH  23  24
HETATM   24  C   UNK     0      16.594   7.144  14.350  0.00  0.00     0.117 C 
BRANCH  24  25
HETATM   25  N   UNK     0      16.040   7.153  12.976  0.00  0.00    -0.352 N 
HETATM   26  C   UNK     0      16.365   6.235  12.011  0.00  0.00     0.242 C 
HETATM   27  O   UNK     0      17.148   5.292  12.165  0.00  0.00    -0.271 OA
HETATM   28  H   UNK     0      15.372   7.858  12.665  0.00  0.00     0.163 HD
BRANCH  26  29
HETATM   29  C   UNK     0      15.679   6.468  10.650  0.00  0.00     0.278 C 
BRANCH  29  30
HETATM   30  O   UNK     0      16.255   5.653   9.613  0.00  0.00    -0.341 OA
BRANCH  30  31
HETATM   31  C   UNK     0      15.304   5.010   8.797  0.00  0.00     0.081 A 
HETATM   32  C   UNK     0      14.800   3.700   9.108  0.00  0.00    -0.028 A 
HETATM   33  C   UNK     0      13.840   3.105   8.247  0.00  0.00     0.009 A 
HETATM   34  C   UNK     0      15.254   2.927  10.324  0.00  0.00     0.051 C 
HETATM   35  C   UNK     0      13.377   3.782   7.099  0.00  0.00     0.001 A 
HETATM   36  C   UNK     0      13.863   5.068   6.787  0.00  0.00     0.009 A 
HETATM   37  C   UNK     0      14.821   5.692   7.622  0.00  0.00    -0.028 A 
HETATM   38  C   UNK     0      15.311   7.053   7.264  0.00  0.00     0.051 C 
ENDBRANCH  30  31
ENDBRANCH  29  30
ENDBRANCH  26  29
ENDBRANCH  24  25
BRANCH  24  39
HETATM   39  C   UNK     0      16.463   8.573  14.954  0.00  0.00     0.066 C 
BRANCH  39  40
HETATM   40  C   UNK     0      17.759   9.158  15.484  0.00  0.00    -0.056 A 
HETATM   41  C   UNK     0      18.909   9.188  14.659  0.00  0.00     0.007 A 
HETATM   42  C   UNK     0      20.131   9.725  15.133  0.00  0.00     0.001 A 
HETATM   43  C   UNK     0      20.215  10.239  16.441  0.00  0.00     0.000 A 
HETATM   44  C   UNK     0      19.074  10.214  17.273  0.00  0.00     0.001 A 
HETATM   45  C   UNK     0      17.854   9.678  16.799  0.00  0.00     0.007 A 
ENDBRANCH  39  40
ENDBRANCH  24  39
ENDBRANCH  23  24
BRANCH  23  46
HETATM   46  O   UNK     0      16.519   4.913  15.180  0.00  0.00    -0.393 OA
HETATM   47  H   UNK     0      16.685   4.717  14.265  0.00  0.00     0.210 HD
ENDBRANCH  23  46
ENDBRANCH  22  23
ENDBRANCH  14  22
ENDBRANCH  11  14
ENDBRANCH   9  10
BRANCH   9  48
HETATM   48  C   UNK     0      20.197   5.932  18.174  0.00  0.00     0.010 C 
HETATM   49  C   UNK     0      20.318   6.439  16.724  0.00  0.00     0.012 C 
HETATM   50  C   UNK     0      21.617   5.634  18.708  0.00  0.00     0.012 C 
ENDBRANCH   9  48
ENDBRANCH   3   9
TORSDOF 16
ENDMDL
MODEL 10
REMARK VINA RESULT:      -5.9      2.664      8.015
REMARK  16 active torsions:
REMARK  status: ('A' for Active; 'I' for Inactive)
REMARK    1  A    between atoms: N_3  and  C_13 
REMARK    2  A    between atoms: C_6  and  C_37 
REMARK    3  A    between atoms: C_13  and  C_14 
REMARK    4  A    between atoms: C_13  and  C_17 
REMARK       I    between atoms: C_14  and  N_15 
REMARK    5  A    between atoms: N_15  and  C_16 
REMARK    6  A    between atoms: C_16  and  C_27 
REMARK    7  A    between atoms: C_16  and  C_28 
REMARK    8  A    between atoms: C_25  and  C_27 
REMARK    9  A    between atoms: C_28  and  C_29 
REMARK   10  A    between atoms: C_29  and  C_30 
REMARK   11  A    between atoms: C_29  and  O_36 
REMARK   12  A    between atoms: C_30  and  N_31 
REMARK   13  A    between atoms: C_30  and  C_37 
REMARK       I    between atoms: N_31  and  C_32 
REMARK   14  A    between atoms: C_32  and  C_33 
REMARK   15  A    between atoms: C_33  and  O_34 
REMARK   16  A    between atoms: O_34  and  C_35 
ROOT
HETATM    1  C   UNK     0      10.601   1.506  20.450  0.00  0.00     0.126 C 
HETATM    2  C   UNK     0       9.802  -0.317  21.977  0.00  0.00     0.130 C 
HETATM    3  N   UNK     0       9.799   0.686  23.105  0.00  0.00    -0.320 N 
HETATM    4  C   UNK     0      10.177   2.005  22.897  0.00  0.00     0.319 C 
HETATM    5  N   UNK     0      10.551   2.378  21.640  0.00  0.00    -0.343 N 
HETATM    6  O   UNK     0      10.183   2.827  23.798  0.00  0.00    -0.247 OA
HETATM    7  C   UNK     0       9.647   0.313  20.577  0.00  0.00     0.040 C 
HETATM    8  H   UNK     0      10.807   3.364  21.587  0.00  0.00     0.164 HD
ENDROOT
BRANCH   3   9
HETATM    9  C   UNK     0       9.387   0.257  24.487  0.00  0.00     0.184 C 
BRANCH   9  10
HETATM   10  C   UNK     0      10.246  -0.962  24.921  0.00  0.00     0.241 C 
HETATM   11  N   UNK     0       9.806  -2.139  24.377  0.00  0.00    -0.354 N 
HETATM   12  H   UNK     0       8.988  -2.028  23.778  0.00  0.00     0.162 HD
HETATM   13  O   UNK     0      11.210  -0.839  25.678  0.00  0.00    -0.271 OA
BRANCH  11  14
HETATM   14  C   UNK     0      10.429  -3.461  24.610  0.00  0.00     0.091 C 
BRANCH  14  15
HETATM   15  C   UNK     0       9.349  -4.560  24.738  0.00  0.00     0.063 C 
BRANCH  15  16
HETATM   16  C   UNK     0       9.808  -5.987  24.831  0.00  0.00    -0.056 A 
HETATM   17  C   UNK     0       9.427  -6.928  23.837  0.00  0.00     0.007 A 
HETATM   18  C   UNK     0       9.853  -8.274  23.913  0.00  0.00     0.001 A 
HETATM   19  C   UNK     0      10.669  -8.694  24.990  0.00  0.00     0.000 A 
HETATM   20  C   UNK     0      11.053  -7.762  25.984  0.00  0.00     0.001 A 
HETATM   21  C   UNK     0      10.624  -6.416  25.903  0.00  0.00     0.007 A 
ENDBRANCH  15  16
ENDBRANCH  14  15
BRANCH  14  22
HETATM   22  C   UNK     0      11.332  -3.877  23.428  0.00  0.00     0.059 C 
BRANCH  22  23
HETATM   23  C   UNK     0      12.781  -4.325  23.691  0.00  0.00     0.143 C 
BRANCH  23  24
HETATM   24  C   UNK     0      13.463  -5.186  22.597  0.00  0.00     0.117 C 
BRANCH  24  25
HETATM   25  N   UNK     0      14.927  -4.975  22.687  0.00  0.00    -0.352 N 
HETATM   26  C   UNK     0      15.708  -5.440  23.712  0.00  0.00     0.242 C 
HETATM   27  O   UNK     0      15.296  -6.092  24.678  0.00  0.00    -0.271 OA
HETATM   28  H   UNK     0      15.445  -4.461  21.974  0.00  0.00     0.163 HD
BRANCH  26  29
HETATM   29  C   UNK     0      17.201  -5.072  23.597  0.00  0.00     0.278 C 
BRANCH  29  30
HETATM   30  O   UNK     0      17.966  -6.121  22.975  0.00  0.00    -0.341 OA
BRANCH  30  31
HETATM   31  C   UNK     0      18.079  -5.996  21.578  0.00  0.00     0.081 A 
HETATM   32  C   UNK     0      18.913  -4.992  20.972  0.00  0.00    -0.028 A 
HETATM   33  C   UNK     0      18.988  -4.917  19.555  0.00  0.00     0.009 A 
HETATM   34  C   UNK     0      19.719  -4.010  21.789  0.00  0.00     0.051 C 
HETATM   35  C   UNK     0      18.259  -5.812  18.743  0.00  0.00     0.001 A 
HETATM   36  C   UNK     0      17.441  -6.800  19.327  0.00  0.00     0.009 A 
HETATM   37  C   UNK     0      17.343  -6.904  20.735  0.00  0.00    -0.028 A 
HETATM   38  C   UNK     0      16.470  -7.963  21.320  0.00  0.00     0.051 C 
ENDBRANCH  30  31
ENDBRANCH  29  30
ENDBRANCH  26  29
ENDBRANCH  24  25
BRANCH  24  39
HETATM   39  C   UNK     0      13.159  -6.698  22.814  0.00  0.00     0.066 C 
BRANCH  39  40
HETATM   40  C   UNK     0      12.375  -7.354  21.694  0.00  0.00    -0.056 A 
HETATM   41  C   UNK     0      12.538  -8.736  21.434  0.00  0.00     0.007 A 
HETATM   42  C   UNK     0      11.820  -9.370  20.389  0.00  0.00     0.001 A 
HETATM   43  C   UNK     0      10.930  -8.625  19.593  0.00  0.00     0.000 A 
HETATM   44  C   UNK     0      10.760  -7.246  19.843  0.00  0.00     0.001 A 
HETATM   45  C   UNK     0      11.476  -6.613  20.885  0.00  0.00     0.007 A 
ENDBRANCH  39  40
ENDBRANCH  24  39
ENDBRANCH  23  24
BRANCH  23  46
HETATM   46  O   UNK     0      13.532  -3.142  23.818  0.00  0.00    -0.393 OA
HETATM   47  H   UNK     0      13.748  -2.875  22.931  0.00  0.00     0.210 HD
ENDBRANCH  23  46
ENDBRANCH  22  23
ENDBRANCH  14  22
ENDBRANCH  11  14
ENDBRANCH   9  10
BRANCH   9  48
HETATM   48  C   UNK     0       7.838  -0.040  24.575  0.00  0.00     0.010 C 
HETATM   49  C   UNK     0       7.447  -0.908  25.787  0.00  0.00     0.012 C 
HETATM   50  C   UNK     0       7.027   1.275  24.634  0.00  0.00     0.012 C 
ENDBRANCH   9  48
ENDBRANCH   3   9
TORSDOF 16
ENDMDL
