MODEL 1
REMARK VINA RESULT:      -8.5      0.000      0.000
REMARK  15 active torsions:
REMARK  status: ('A' for Active; 'I' for Inactive)
REMARK    1  A    between atoms: O_2  and  C_18 
REMARK    2  A    between atoms: O_2  and  C_22 
REMARK    3  A    between atoms: O_4  and  C_14 
REMARK    4  A    between atoms: O_5  and  C_21 
REMARK    5  A    between atoms: O_5  and  C_25 
REMARK    6  A    between atoms: O_6  and  C_15 
REMARK    7  A    between atoms: O_7  and  C_16 
REMARK    8  A    between atoms: O_8  and  C_17 
REMARK    9  A    between atoms: O_9  and  C_19 
REMARK   10  A    between atoms: O_10  and  C_20 
REMARK   11  A    between atoms: O_11  and  C_30 
REMARK   12  A    between atoms: O_12  and  C_32 
REMARK   13  A    between atoms: C_13  and  C_22 
REMARK   14  A    between atoms: C_25  and  C_26 
REMARK   15  A    between atoms: C_26  and  C_27 
ROOT
HETATM    1  O   UNK     0      10.611  -0.683  23.687  0.00  0.00    -0.348 OA
HETATM    2  C   UNK     0      10.102  -0.614  25.020  0.00  0.00     0.180 C 
HETATM    3  C   UNK     0       8.612  -0.268  24.993  0.00  0.00     0.180 C 
HETATM    4  C   UNK     0       8.370   1.031  24.224  0.00  0.00     0.183 C 
HETATM    5  C   UNK     0       9.076   1.011  22.869  0.00  0.00     0.204 C 
HETATM    6  C   UNK     0      10.532   0.568  23.007  0.00  0.00     0.291 C 
ENDROOT
BRANCH   2   7
HETATM    7  C   UNK     0      10.357  -1.966  25.680  0.00  0.00     0.205 C 
BRANCH   7   8
HETATM    8  O   UNK     0       9.376  -2.891  25.233  0.00  0.00    -0.356 OA
BRANCH   8   9
HETATM    9  C   UNK     0       9.250  -3.989  26.130  0.00  0.00     0.291 C 
HETATM   10  O   UNK     0      10.292  -4.956  25.959  0.00  0.00    -0.351 OA
HETATM   11  C   UNK     0      10.286  -5.605  24.683  0.00  0.00     0.152 C 
HETATM   12  C   UNK     0       8.959  -6.340  24.445  0.00  0.00     0.178 C 
HETATM   13  C   UNK     0      11.479  -6.558  24.663  0.00  0.00     0.042 C 
HETATM   14  C   UNK     0       7.786  -5.376  24.621  0.00  0.00     0.183 C 
HETATM   15  C   UNK     0       7.879  -4.640  25.959  0.00  0.00     0.204 C 
BRANCH  12  16
HETATM   16  O   UNK     0       8.913  -6.857  23.118  0.00  0.00    -0.390 OA
HETATM   17  H   UNK     0       9.795  -6.750  22.721  0.00  0.00     0.210 HD
ENDBRANCH  12  16
BRANCH  14  18
HETATM   18  O   UNK     0       6.564  -6.106  24.553  0.00  0.00    -0.390 OA
HETATM   19  H   UNK     0       6.458  -6.417  23.637  0.00  0.00     0.210 HD
ENDBRANCH  14  18
BRANCH  15  20
HETATM   20  O   UNK     0       7.697  -5.561  27.036  0.00  0.00    -0.388 OA
HETATM   21  H   UNK     0       7.636  -5.045  27.857  0.00  0.00     0.210 HD
ENDBRANCH  15  20
ENDBRANCH   8   9
ENDBRANCH   7   8
ENDBRANCH   2   7
BRANCH   6  22
HETATM   22  O   UNK     0      11.078   0.438  21.694  0.00  0.00    -0.358 OA
BRANCH  22  23
HETATM   23  C   UNK     0      12.312   1.130  21.577  0.00  0.00     0.175 C 
BRANCH  23  24
HETATM   24  C   UNK     0      12.933   0.847  20.214  0.00  0.00     0.065 C 
BRANCH  24  25
HETATM   25  C   UNK     0      11.894   0.665  19.136  0.00  0.00    -0.053 A 
HETATM   26  C   UNK     0      11.398   1.773  18.450  0.00  0.00     0.046 A 
HETATM   27  C   UNK     0      10.439   1.604  17.452  0.00  0.00     0.099 A 
HETATM   28  C   UNK     0       9.974   0.326  17.140  0.00  0.00     0.098 A 
HETATM   29  C   UNK     0      10.470  -0.782  17.825  0.00  0.00     0.040 A 
HETATM   30  C   UNK     0      11.430  -0.614  18.823  0.00  0.00     0.010 A 
BRANCH  27  31
HETATM   31  O   UNK     0       9.963   2.694  16.787  0.00  0.00    -0.358 OA
HETATM   32  H   UNK     0      10.695   3.113  16.302  0.00  0.00     0.217 HD
ENDBRANCH  27  31
BRANCH  28  33
HETATM   33  O   UNK     0       9.037   0.149  16.166  0.00  0.00    -0.358 OA
HETATM   34  H   UNK     0       8.168   0.022  16.584  0.00  0.00     0.217 HD
ENDBRANCH  28  33
ENDBRANCH  24  25
ENDBRANCH  23  24
ENDBRANCH  22  23
ENDBRANCH   6  22
BRANCH   3  35
HETATM   35  O   UNK     0       8.138  -0.122  26.328  0.00  0.00    -0.390 OA
HETATM   36  H   UNK     0       7.845   0.798  26.444  0.00  0.00     0.210 HD
ENDBRANCH   3  35
BRANCH   5  37
HETATM   37  O   UNK     0       9.060   2.323  22.307  0.00  0.00    -0.388 OA
HETATM   38  H   UNK     0       8.666   2.926  22.960  0.00  0.00     0.210 HD
ENDBRANCH   5  37
BRANCH   4  39
HETATM   39  O   UNK     0       6.962   1.170  24.025  0.00  0.00    -0.390 OA
HETATM   40  H   UNK     0       6.644   0.386  23.545  0.00  0.00     0.210 HD
ENDBRANCH   4  39
TORSDOF 15
ENDMDL
MODEL 2
REMARK VINA RESULT:      -8.4      2.352      7.334
REMARK  15 active torsions:
REMARK  status: ('A' for Active; 'I' for Inactive)
REMARK    1  A    between atoms: O_2  and  C_18 
REMARK    2  A    between atoms: O_2  and  C_22 
REMARK    3  A    between atoms: O_4  and  C_14 
REMARK    4  A    between atoms: O_5  and  C_21 
REMARK    5  A    between atoms: O_5  and  C_25 
REMARK    6  A    between atoms: O_6  and  C_15 
REMARK    7  A    between atoms: O_7  and  C_16 
REMARK    8  A    between atoms: O_8  and  C_17 
REMARK    9  A    between atoms: O_9  and  C_19 
REMARK   10  A    between atoms: O_10  and  C_20 
REMARK   11  A    between atoms: O_11  and  C_30 
REMARK   12  A    between atoms: O_12  and  C_32 
REMARK   13  A    between atoms: C_13  and  C_22 
REMARK   14  A    between atoms: C_25  and  C_26 
REMARK   15  A    between atoms: C_26  and  C_27 
ROOT
HETATM    1  O   UNK     0       9.563  -1.691  23.288  0.00  0.00    -0.348 OA
HETATM    2  C   UNK     0       8.860  -0.498  22.935  0.00  0.00     0.180 C 
HETATM    3  C   UNK     0       8.484   0.279  24.199  0.00  0.00     0.180 C 
HETATM    4  C   UNK     0       7.675  -0.597  25.155  0.00  0.00     0.183 C 
HETATM    5  C   UNK     0       8.356  -1.947  25.379  0.00  0.00     0.204 C 
HETATM    6  C   UNK     0       8.765  -2.590  24.055  0.00  0.00     0.291 C 
ENDROOT
BRANCH   2   7
HETATM    7  C   UNK     0       9.766   0.317  22.018  0.00  0.00     0.205 C 
BRANCH   7   8
HETATM    8  O   UNK     0       9.317   0.174  20.678  0.00  0.00    -0.356 OA
BRANCH   8   9
HETATM    9  C   UNK     0      10.316  -0.417  19.855  0.00  0.00     0.291 C 
HETATM   10  O   UNK     0      11.446   0.441  19.665  0.00  0.00    -0.351 OA
HETATM   11  C   UNK     0      11.151   1.651  18.959  0.00  0.00     0.152 C 
HETATM   12  C   UNK     0      10.585   1.351  17.564  0.00  0.00     0.178 C 
HETATM   13  C   UNK     0      12.448   2.454  18.890  0.00  0.00     0.042 C 
HETATM   14  C   UNK     0       9.375   0.424  17.676  0.00  0.00     0.183 C 
HETATM   15  C   UNK     0       9.709  -0.814  18.511  0.00  0.00     0.204 C 
BRANCH  12  16
HETATM   16  O   UNK     0      10.163   2.557  16.933  0.00  0.00    -0.390 OA
HETATM   17  H   UNK     0      10.201   2.423  15.970  0.00  0.00     0.210 HD
ENDBRANCH  12  16
BRANCH  14  18
HETATM   18  O   UNK     0       8.962   0.031  16.369  0.00  0.00    -0.390 OA
HETATM   19  H   UNK     0       8.644   0.827  15.910  0.00  0.00     0.210 HD
ENDBRANCH  14  18
BRANCH  15  20
HETATM   20  O   UNK     0      10.666  -1.622  17.823  0.00  0.00    -0.388 OA
HETATM   21  H   UNK     0      10.260  -2.492  17.669  0.00  0.00     0.210 HD
ENDBRANCH  15  20
ENDBRANCH   8   9
ENDBRANCH   7   8
ENDBRANCH   2   7
BRANCH   6  22
HETATM   22  O   UNK     0       9.515  -3.768  24.351  0.00  0.00    -0.358 OA
BRANCH  22  23
HETATM   23  C   UNK     0      10.818  -3.703  23.793  0.00  0.00     0.175 C 
BRANCH  23  24
HETATM   24  C   UNK     0      11.456  -5.088  23.814  0.00  0.00     0.065 C 
BRANCH  24  25
HETATM   25  C   UNK     0      11.168  -5.873  22.558  0.00  0.00    -0.053 A 
HETATM   26  C   UNK     0      11.460  -5.324  21.310  0.00  0.00     0.046 A 
HETATM   27  C   UNK     0      11.195  -6.051  20.149  0.00  0.00     0.099 A 
HETATM   28  C   UNK     0      10.637  -7.326  20.237  0.00  0.00     0.098 A 
HETATM   29  C   UNK     0      10.346  -7.875  21.485  0.00  0.00     0.040 A 
HETATM   30  C   UNK     0      10.611  -7.149  22.646  0.00  0.00     0.010 A 
BRANCH  27  31
HETATM   31  O   UNK     0      11.486  -5.505  18.936  0.00  0.00    -0.358 OA
HETATM   32  H   UNK     0      12.076  -6.107  18.450  0.00  0.00     0.217 HD
ENDBRANCH  27  31
BRANCH  28  33
HETATM   33  O   UNK     0      10.374  -8.046  19.110  0.00  0.00    -0.358 OA
HETATM   34  H   UNK     0       9.525  -8.507  19.220  0.00  0.00     0.217 HD
ENDBRANCH  28  33
ENDBRANCH  24  25
ENDBRANCH  23  24
ENDBRANCH  22  23
ENDBRANCH   6  22
BRANCH   3  35
HETATM   35  O   UNK     0       7.712   1.421  23.837  0.00  0.00    -0.390 OA
HETATM   36  H   UNK     0       8.254   2.213  23.996  0.00  0.00     0.210 HD
ENDBRANCH   3  35
BRANCH   5  37
HETATM   37  O   UNK     0       7.452  -2.829  26.044  0.00  0.00    -0.388 OA
HETATM   38  H   UNK     0       7.590  -2.736  27.002  0.00  0.00     0.210 HD
ENDBRANCH   5  37
BRANCH   4  39
HETATM   39  O   UNK     0       7.565   0.094  26.401  0.00  0.00    -0.390 OA
HETATM   40  H   UNK     0       7.271   1.003  26.219  0.00  0.00     0.210 HD
ENDBRANCH   4  39
TORSDOF 15
ENDMDL
MODEL 3
REMARK VINA RESULT:      -8.2      1.599      8.292
REMARK  15 active torsions:
REMARK  status: ('A' for Active; 'I' for Inactive)
REMARK    1  A    between atoms: O_2  and  C_18 
REMARK    2  A    between atoms: O_2  and  C_22 
REMARK    3  A    between atoms: O_4  and  C_14 
REMARK    4  A    between atoms: O_5  and  C_21 
REMARK    5  A    between atoms: O_5  and  C_25 
REMARK    6  A    between atoms: O_6  and  C_15 
REMARK    7  A    between atoms: O_7  and  C_16 
REMARK    8  A    between atoms: O_8  and  C_17 
REMARK    9  A    between atoms: O_9  and  C_19 
REMARK   10  A    between atoms: O_10  and  C_20 
REMARK   11  A    between atoms: O_11  and  C_30 
REMARK   12  A    between atoms: O_12  and  C_32 
REMARK   13  A    between atoms: C_13  and  C_22 
REMARK   14  A    between atoms: C_25  and  C_26 
REMARK   15  A    between atoms: C_26  and  C_27 
ROOT
HETATM    1  O   UNK     0       9.495  -1.271  23.802  0.00  0.00    -0.348 OA
HETATM    2  C   UNK     0       9.297  -0.284  22.788  0.00  0.00     0.180 C 
HETATM    3  C   UNK     0       9.087   1.089  23.429  0.00  0.00     0.180 C 
HETATM    4  C   UNK     0       7.924   1.053  24.421  0.00  0.00     0.183 C 
HETATM    5  C   UNK     0       8.059  -0.123  25.389  0.00  0.00     0.204 C 
HETATM    6  C   UNK     0       8.355  -1.424  24.645  0.00  0.00     0.291 C 
ENDROOT
BRANCH   2   7
HETATM    7  C   UNK     0      10.525  -0.303  21.882  0.00  0.00     0.205 C 
BRANCH   7   8
HETATM    8  O   UNK     0      10.107  -0.142  20.534  0.00  0.00    -0.356 OA
BRANCH   8   9
HETATM    9  C   UNK     0      11.190  -0.326  19.629  0.00  0.00     0.291 C 
HETATM   10  O   UNK     0      12.004   0.845  19.505  0.00  0.00    -0.351 OA
HETATM   11  C   UNK     0      11.326   1.973  18.940  0.00  0.00     0.152 C 
HETATM   12  C   UNK     0      10.799   1.653  17.535  0.00  0.00     0.178 C 
HETATM   13  C   UNK     0      12.323   3.130  18.927  0.00  0.00     0.042 C 
HETATM   14  C   UNK     0       9.924   0.399  17.576  0.00  0.00     0.183 C 
HETATM   15  C   UNK     0      10.654  -0.756  18.264  0.00  0.00     0.204 C 
BRANCH  12  16
HETATM   16  O   UNK     0      10.006   2.731  17.048  0.00  0.00    -0.390 OA
HETATM   17  H   UNK     0       9.653   2.477  16.177  0.00  0.00     0.210 HD
ENDBRANCH  12  16
BRANCH  14  18
HETATM   18  O   UNK     0       9.575   0.027  16.244  0.00  0.00    -0.390 OA
HETATM   19  H   UNK     0       8.952   0.694  15.908  0.00  0.00     0.210 HD
ENDBRANCH  14  18
BRANCH  15  20
HETATM   20  O   UNK     0      11.767  -1.171  17.471  0.00  0.00    -0.388 OA
HETATM   21  H   UNK     0      12.319  -1.753  18.020  0.00  0.00     0.210 HD
ENDBRANCH  15  20
ENDBRANCH   8   9
ENDBRANCH   7   8
ENDBRANCH   2   7
BRANCH   6  22
HETATM   22  O   UNK     0       8.607  -2.439  25.617  0.00  0.00    -0.358 OA
BRANCH  22  23
HETATM   23  C   UNK     0       7.732  -3.544  25.450  0.00  0.00     0.175 C 
BRANCH  23  24
HETATM   24  C   UNK     0       8.158  -4.682  26.370  0.00  0.00     0.065 C 
BRANCH  24  25
HETATM   25  C   UNK     0       9.100  -5.647  25.692  0.00  0.00    -0.053 A 
HETATM   26  C   UNK     0       8.922  -5.966  24.347  0.00  0.00     0.046 A 
HETATM   27  C   UNK     0       9.794  -6.857  23.720  0.00  0.00     0.099 A 
HETATM   28  C   UNK     0      10.842  -7.429  24.440  0.00  0.00     0.098 A 
HETATM   29  C   UNK     0      11.020  -7.110  25.786  0.00  0.00     0.040 A 
HETATM   30  C   UNK     0      10.150  -6.218  26.413  0.00  0.00     0.010 A 
BRANCH  27  31
HETATM   31  O   UNK     0       9.611  -7.160  22.405  0.00  0.00    -0.358 OA
HETATM   32  H   UNK     0       9.688  -8.123  22.288  0.00  0.00     0.217 HD
ENDBRANCH  27  31
BRANCH  28  33
HETATM   33  O   UNK     0      11.700  -8.301  23.839  0.00  0.00    -0.358 OA
HETATM   34  H   UNK     0      11.336  -8.559  22.975  0.00  0.00     0.217 HD
ENDBRANCH  28  33
ENDBRANCH  24  25
ENDBRANCH  23  24
ENDBRANCH  22  23
ENDBRANCH   6  22
BRANCH   3  35
HETATM   35  O   UNK     0       8.809   2.047  22.411  0.00  0.00    -0.390 OA
HETATM   36  H   UNK     0       9.275   2.870  22.637  0.00  0.00     0.210 HD
ENDBRANCH   3  35
BRANCH   5  37
HETATM   37  O   UNK     0       6.838  -0.287  26.109  0.00  0.00    -0.388 OA
HETATM   38  H   UNK     0       6.342   0.549  26.057  0.00  0.00     0.210 HD
ENDBRANCH   5  37
BRANCH   4  39
HETATM   39  O   UNK     0       7.932   2.278  25.157  0.00  0.00    -0.390 OA
HETATM   40  H   UNK     0       7.180   2.816  24.857  0.00  0.00     0.210 HD
ENDBRANCH   4  39
TORSDOF 15
ENDMDL
MODEL 4
REMARK VINA RESULT:      -8.1      1.374      1.780
REMARK  15 active torsions:
REMARK  status: ('A' for Active; 'I' for Inactive)
REMARK    1  A    between atoms: O_2  and  C_18 
REMARK    2  A    between atoms: O_2  and  C_22 
REMARK    3  A    between atoms: O_4  and  C_14 
REMARK    4  A    between atoms: O_5  and  C_21 
REMARK    5  A    between atoms: O_5  and  C_25 
REMARK    6  A    between atoms: O_6  and  C_15 
REMARK    7  A    between atoms: O_7  and  C_16 
REMARK    8  A    between atoms: O_8  and  C_17 
REMARK    9  A    between atoms: O_9  and  C_19 
REMARK   10  A    between atoms: O_10  and  C_20 
REMARK   11  A    between atoms: O_11  and  C_30 
REMARK   12  A    between atoms: O_12  and  C_32 
REMARK   13  A    between atoms: C_13  and  C_22 
REMARK   14  A    between atoms: C_25  and  C_26 
REMARK   15  A    between atoms: C_26  and  C_27 
ROOT
HETATM    1  O   UNK     0       9.635  -0.978  23.136  0.00  0.00    -0.348 OA
HETATM    2  C   UNK     0       9.536  -1.715  24.357  0.00  0.00     0.180 C 
HETATM    3  C   UNK     0       8.222  -1.377  25.065  0.00  0.00     0.180 C 
HETATM    4  C   UNK     0       8.102   0.130  25.297  0.00  0.00     0.183 C 
HETATM    5  C   UNK     0       8.391   0.912  24.017  0.00  0.00     0.204 C 
HETATM    6  C   UNK     0       9.679   0.431  23.350  0.00  0.00     0.291 C 
ENDROOT
BRANCH   2   7
HETATM    7  C   UNK     0       9.626  -3.197  24.009  0.00  0.00     0.205 C 
BRANCH   7   8
HETATM    8  O   UNK     0       9.933  -3.930  25.186  0.00  0.00    -0.356 OA
BRANCH   8   9
HETATM    9  C   UNK     0       9.028  -5.013  25.376  0.00  0.00     0.291 C 
HETATM   10  O   UNK     0       9.492  -5.948  26.355  0.00  0.00    -0.351 OA
HETATM   11  C   UNK     0      10.701  -6.625  25.993  0.00  0.00     0.152 C 
HETATM   12  C   UNK     0      10.524  -7.408  24.685  0.00  0.00     0.178 C 
HETATM   13  C   UNK     0      11.067  -7.537  27.161  0.00  0.00     0.042 C 
HETATM   14  C   UNK     0      10.015  -6.479  23.582  0.00  0.00     0.183 C 
HETATM   15  C   UNK     0       8.774  -5.712  24.041  0.00  0.00     0.204 C 
BRANCH  12  16
HETATM   16  O   UNK     0      11.770  -7.954  24.264  0.00  0.00    -0.390 OA
HETATM   17  H   UNK     0      12.139  -7.372  23.578  0.00  0.00     0.210 HD
ENDBRANCH  12  16
BRANCH  14  18
HETATM   18  O   UNK     0       9.706  -7.251  22.424  0.00  0.00    -0.390 OA
HETATM   19  H   UNK     0      10.537  -7.645  22.104  0.00  0.00     0.210 HD
ENDBRANCH  14  18
BRANCH  15  20
HETATM   20  O   UNK     0       7.682  -6.615  24.225  0.00  0.00    -0.388 OA
HETATM   21  H   UNK     0       7.704  -7.255  23.494  0.00  0.00     0.210 HD
ENDBRANCH  15  20
ENDBRANCH   8   9
ENDBRANCH   7   8
ENDBRANCH   2   7
BRANCH   6  22
HETATM   22  O   UNK     0       9.804   1.104  22.097  0.00  0.00    -0.358 OA
BRANCH  22  23
HETATM   23  C   UNK     0      11.132   1.557  21.884  0.00  0.00     0.175 C 
BRANCH  23  24
HETATM   24  C   UNK     0      11.844   0.624  20.912  0.00  0.00     0.065 C 
BRANCH  24  25
HETATM   25  C   UNK     0      11.105   0.485  19.604  0.00  0.00    -0.053 A 
HETATM   26  C   UNK     0      10.978   1.583  18.753  0.00  0.00     0.046 A 
HETATM   27  C   UNK     0      10.297   1.453  17.543  0.00  0.00     0.099 A 
HETATM   28  C   UNK     0       9.740   0.225  17.184  0.00  0.00     0.098 A 
HETATM   29  C   UNK     0       9.867  -0.873  18.034  0.00  0.00     0.040 A 
HETATM   30  C   UNK     0      10.549  -0.744  19.244  0.00  0.00     0.010 A 
BRANCH  27  31
HETATM   31  O   UNK     0      10.181   2.532  16.720  0.00  0.00    -0.358 OA
HETATM   32  H   UNK     0       9.527   2.334  16.028  0.00  0.00     0.217 HD
ENDBRANCH  27  31
BRANCH  28  33
HETATM   33  O   UNK     0       9.072   0.087  16.005  0.00  0.00    -0.358 OA
HETATM   34  H   UNK     0       9.536   0.594  15.317  0.00  0.00     0.217 HD
ENDBRANCH  28  33
ENDBRANCH  24  25
ENDBRANCH  23  24
ENDBRANCH  22  23
ENDBRANCH   6  22
BRANCH   3  35
HETATM   35  O   UNK     0       8.175  -2.053  26.318  0.00  0.00    -0.390 OA
HETATM   36  H   UNK     0       7.711  -2.898  26.186  0.00  0.00     0.210 HD
ENDBRANCH   3  35
BRANCH   5  37
HETATM   37  O   UNK     0       8.540   2.296  24.330  0.00  0.00    -0.388 OA
HETATM   38  H   UNK     0       7.841   2.788  23.866  0.00  0.00     0.210 HD
ENDBRANCH   5  37
BRANCH   4  39
HETATM   39  O   UNK     0       6.769   0.405  25.732  0.00  0.00    -0.390 OA
HETATM   40  H   UNK     0       6.494   1.255  25.347  0.00  0.00     0.210 HD
ENDBRANCH   4  39
TORSDOF 15
ENDMDL
MODEL 5
REMARK VINA RESULT:      -8.0      1.737      7.753
REMARK  15 active torsions:
REMARK  status: ('A' for Active; 'I' for Inactive)
REMARK    1  A    between atoms: O_2  and  C_18 
REMARK    2  A    between atoms: O_2  and  C_22 
REMARK    3  A    between atoms: O_4  and  C_14 
REMARK    4  A    between atoms: O_5  and  C_21 
REMARK    5  A    between atoms: O_5  and  C_25 
REMARK    6  A    between atoms: O_6  and  C_15 
REMARK    7  A    between atoms: O_7  and  C_16 
REMARK    8  A    between atoms: O_8  and  C_17 
REMARK    9  A    between atoms: O_9  and  C_19 
REMARK   10  A    between atoms: O_10  and  C_20 
REMARK   11  A    between atoms: O_11  and  C_30 
REMARK   12  A    between atoms: O_12  and  C_32 
REMARK   13  A    between atoms: C_13  and  C_22 
REMARK   14  A    between atoms: C_25  and  C_26 
REMARK   15  A    between atoms: C_26  and  C_27 
ROOT
HETATM    1  O   UNK     0       9.511  -1.287  23.863  0.00  0.00    -0.348 OA
HETATM    2  C   UNK     0       9.314  -0.308  22.841  0.00  0.00     0.180 C 
HETATM    3  C   UNK     0       9.073   1.064  23.474  0.00  0.00     0.180 C 
HETATM    4  C   UNK     0       7.896   1.014  24.448  0.00  0.00     0.183 C 
HETATM    5  C   UNK     0       8.034  -0.155  25.422  0.00  0.00     0.204 C 
HETATM    6  C   UNK     0       8.361  -1.455  24.689  0.00  0.00     0.291 C 
ENDROOT
BRANCH   2   7
HETATM    7  C   UNK     0      10.555  -0.312  21.954  0.00  0.00     0.205 C 
BRANCH   7   8
HETATM    8  O   UNK     0      10.167  -0.045  20.615  0.00  0.00    -0.356 OA
BRANCH   8   9
HETATM    9  C   UNK     0      11.249  -0.242  19.710  0.00  0.00     0.291 C 
HETATM   10  O   UNK     0      12.055   0.932  19.559  0.00  0.00    -0.351 OA
HETATM   11  C   UNK     0      11.368   2.042  18.971  0.00  0.00     0.152 C 
HETATM   12  C   UNK     0      10.839   1.688  17.574  0.00  0.00     0.178 C 
HETATM   13  C   UNK     0      12.357   3.205  18.930  0.00  0.00     0.042 C 
HETATM   14  C   UNK     0       9.973   0.430  17.646  0.00  0.00     0.183 C 
HETATM   15  C   UNK     0      10.712  -0.705  18.357  0.00  0.00     0.204 C 
BRANCH  12  16
HETATM   16  O   UNK     0      10.038   2.750  17.066  0.00  0.00    -0.390 OA
HETATM   17  H   UNK     0       9.917   2.607  16.111  0.00  0.00     0.210 HD
ENDBRANCH  12  16
BRANCH  14  18
HETATM   18  O   UNK     0       9.622   0.026  16.324  0.00  0.00    -0.390 OA
HETATM   19  H   UNK     0       9.238  -0.865  16.381  0.00  0.00     0.210 HD
ENDBRANCH  14  18
BRANCH  15  20
HETATM   20  O   UNK     0      11.826  -1.131  17.570  0.00  0.00    -0.388 OA
HETATM   21  H   UNK     0      12.635  -0.879  18.046  0.00  0.00     0.210 HD
ENDBRANCH  15  20
ENDBRANCH   8   9
ENDBRANCH   7   8
ENDBRANCH   2   7
BRANCH   6  22
HETATM   22  O   UNK     0       8.614  -2.462  25.669  0.00  0.00    -0.358 OA
BRANCH  22  23
HETATM   23  C   UNK     0       8.051  -3.707  25.287  0.00  0.00     0.175 C 
BRANCH  23  24
HETATM   24  C   UNK     0       8.986  -4.841  25.693  0.00  0.00     0.065 C 
BRANCH  24  25
HETATM   25  C   UNK     0       9.642  -5.499  24.504  0.00  0.00    -0.053 A 
HETATM   26  C   UNK     0      10.639  -4.827  23.797  0.00  0.00     0.046 A 
HETATM   27  C   UNK     0      11.247  -5.437  22.699  0.00  0.00     0.099 A 
HETATM   28  C   UNK     0      10.856  -6.717  22.308  0.00  0.00     0.098 A 
HETATM   29  C   UNK     0       9.859  -7.389  23.015  0.00  0.00     0.040 A 
HETATM   30  C   UNK     0       9.252  -6.780  24.113  0.00  0.00     0.010 A 
BRANCH  27  31
HETATM   31  O   UNK     0      12.221  -4.772  22.018  0.00  0.00    -0.358 OA
HETATM   32  H   UNK     0      12.105  -3.816  22.152  0.00  0.00     0.217 HD
ENDBRANCH  27  31
BRANCH  28  33
HETATM   33  O   UNK     0      11.442  -7.323  21.237  0.00  0.00    -0.358 OA
HETATM   34  H   UNK     0      11.031  -8.195  21.102  0.00  0.00     0.217 HD
ENDBRANCH  28  33
ENDBRANCH  24  25
ENDBRANCH  23  24
ENDBRANCH  22  23
ENDBRANCH   6  22
BRANCH   3  35
HETATM   35  O   UNK     0       8.796   2.013  22.447  0.00  0.00    -0.390 OA
HETATM   36  H   UNK     0       9.494   2.690  22.468  0.00  0.00     0.210 HD
ENDBRANCH   3  35
BRANCH   5  37
HETATM   37  O   UNK     0       6.804  -0.335  26.124  0.00  0.00    -0.388 OA
HETATM   38  H   UNK     0       6.086   0.009  25.567  0.00  0.00     0.210 HD
ENDBRANCH   5  37
BRANCH   4  39
HETATM   39  O   UNK     0       7.875   2.242  25.178  0.00  0.00    -0.390 OA
HETATM   40  H   UNK     0       6.954   2.554  25.219  0.00  0.00     0.210 HD
ENDBRANCH   4  39
TORSDOF 15
ENDMDL
MODEL 6
REMARK VINA RESULT:      -7.8      2.281      3.609
REMARK  15 active torsions:
REMARK  status: ('A' for Active; 'I' for Inactive)
REMARK    1  A    between atoms: O_2  and  C_18 
REMARK    2  A    between atoms: O_2  and  C_22 
REMARK    3  A    between atoms: O_4  and  C_14 
REMARK    4  A    between atoms: O_5  and  C_21 
REMARK    5  A    between atoms: O_5  and  C_25 
REMARK    6  A    between atoms: O_6  and  C_15 
REMARK    7  A    between atoms: O_7  and  C_16 
REMARK    8  A    between atoms: O_8  and  C_17 
REMARK    9  A    between atoms: O_9  and  C_19 
REMARK   10  A    between atoms: O_10  and  C_20 
REMARK   11  A    between atoms: O_11  and  C_30 
REMARK   12  A    between atoms: O_12  and  C_32 
REMARK   13  A    between atoms: C_13  and  C_22 
REMARK   14  A    between atoms: C_25  and  C_26 
REMARK   15  A    between atoms: C_26  and  C_27 
ROOT
HETATM    1  O   UNK     0       9.790  -3.700  23.657  0.00  0.00    -0.348 OA
HETATM    2  C   UNK     0       9.304  -4.295  24.861  0.00  0.00     0.180 C 
HETATM    3  C   UNK     0       8.102  -3.505  25.385  0.00  0.00     0.180 C 
HETATM    4  C   UNK     0       8.464  -2.033  25.583  0.00  0.00     0.183 C 
HETATM    5  C   UNK     0       9.151  -1.460  24.344  0.00  0.00     0.204 C 
HETATM    6  C   UNK     0      10.276  -2.374  23.859  0.00  0.00     0.291 C 
ENDROOT
BRANCH   2   7
HETATM    7  C   UNK     0       8.936  -5.740  24.544  0.00  0.00     0.205 C 
BRANCH   7   8
HETATM    8  O   UNK     0       9.337  -6.568  25.627  0.00  0.00    -0.356 OA
BRANCH   8   9
HETATM    9  C   UNK     0      10.746  -6.765  25.637  0.00  0.00     0.291 C 
HETATM   10  O   UNK     0      11.200  -7.519  24.507  0.00  0.00    -0.351 OA
HETATM   11  C   UNK     0      10.707  -8.862  24.462  0.00  0.00     0.152 C 
HETATM   12  C   UNK     0      11.128  -9.647  25.713  0.00  0.00     0.178 C 
HETATM   13  C   UNK     0      11.250  -9.493  23.182  0.00  0.00     0.042 C 
HETATM   14  C   UNK     0      10.690  -8.899  26.973  0.00  0.00     0.183 C 
HETATM   15  C   UNK     0      11.163  -7.445  26.940  0.00  0.00     0.204 C 
BRANCH  12  16
HETATM   16  O   UNK     0      10.511 -10.930  25.721  0.00  0.00    -0.390 OA
HETATM   17  H   UNK     0       9.606 -10.832  25.378  0.00  0.00     0.210 HD
ENDBRANCH  12  16
BRANCH  14  18
HETATM   18  O   UNK     0      11.225  -9.558  28.119  0.00  0.00    -0.390 OA
HETATM   19  H   UNK     0      12.012 -10.052  27.832  0.00  0.00     0.210 HD
ENDBRANCH  14  18
BRANCH  15  20
HETATM   20  O   UNK     0      12.588  -7.394  27.020  0.00  0.00    -0.388 OA
HETATM   21  H   UNK     0      12.838  -7.581  27.941  0.00  0.00     0.210 HD
ENDBRANCH  15  20
ENDBRANCH   8   9
ENDBRANCH   7   8
ENDBRANCH   2   7
BRANCH   6  22
HETATM   22  O   UNK     0      10.770  -1.848  22.627  0.00  0.00    -0.358 OA
BRANCH  22  23
HETATM   23  C   UNK     0       9.715  -1.609  21.708  0.00  0.00     0.175 C 
BRANCH  23  24
HETATM   24  C   UNK     0      10.159  -1.995  20.302  0.00  0.00     0.065 C 
BRANCH  24  25
HETATM   25  C   UNK     0      10.187  -0.814  19.364  0.00  0.00    -0.053 A 
HETATM   26  C   UNK     0       9.566  -0.898  18.118  0.00  0.00     0.046 A 
HETATM   27  C   UNK     0       9.590   0.196  17.252  0.00  0.00     0.099 A 
HETATM   28  C   UNK     0      10.236   1.372  17.631  0.00  0.00     0.098 A 
HETATM   29  C   UNK     0      10.857   1.456  18.877  0.00  0.00     0.040 A 
HETATM   30  C   UNK     0      10.833   0.363  19.744  0.00  0.00     0.010 A 
BRANCH  27  31
HETATM   31  O   UNK     0       8.978   0.102  16.038  0.00  0.00    -0.358 OA
HETATM   32  H   UNK     0       8.357  -0.646  16.054  0.00  0.00     0.217 HD
ENDBRANCH  27  31
BRANCH  28  33
HETATM   33  O   UNK     0      10.267   2.447  16.793  0.00  0.00    -0.358 OA
HETATM   34  H   UNK     0      11.133   2.481  16.354  0.00  0.00     0.217 HD
ENDBRANCH  28  33
ENDBRANCH  24  25
ENDBRANCH  23  24
ENDBRANCH  22  23
ENDBRANCH   6  22
BRANCH   3  35
HETATM   35  O   UNK     0       7.680  -4.059  26.628  0.00  0.00    -0.390 OA
HETATM   36  H   UNK     0       8.437  -4.525  27.022  0.00  0.00     0.210 HD
ENDBRANCH   3  35
BRANCH   5  37
HETATM   37  O   UNK     0       9.715  -0.187  24.659  0.00  0.00    -0.388 OA
HETATM   38  H   UNK     0       9.033   0.490  24.507  0.00  0.00     0.210 HD
ENDBRANCH   5  37
BRANCH   4  39
HETATM   39  O   UNK     0       7.257  -1.311  25.834  0.00  0.00    -0.390 OA
HETATM   40  H   UNK     0       7.371  -0.807  26.659  0.00  0.00     0.210 HD
ENDBRANCH   4  39
TORSDOF 15
ENDMDL
MODEL 7
REMARK VINA RESULT:      -7.8      1.823      7.773
REMARK  15 active torsions:
REMARK  status: ('A' for Active; 'I' for Inactive)
REMARK    1  A    between atoms: O_2  and  C_18 
REMARK    2  A    between atoms: O_2  and  C_22 
REMARK    3  A    between atoms: O_4  and  C_14 
REMARK    4  A    between atoms: O_5  and  C_21 
REMARK    5  A    between atoms: O_5  and  C_25 
REMARK    6  A    between atoms: O_6  and  C_15 
REMARK    7  A    between atoms: O_7  and  C_16 
REMARK    8  A    between atoms: O_8  and  C_17 
REMARK    9  A    between atoms: O_9  and  C_19 
REMARK   10  A    between atoms: O_10  and  C_20 
REMARK   11  A    between atoms: O_11  and  C_30 
REMARK   12  A    between atoms: O_12  and  C_32 
REMARK   13  A    between atoms: C_13  and  C_22 
REMARK   14  A    between atoms: C_25  and  C_26 
REMARK   15  A    between atoms: C_26  and  C_27 
ROOT
HETATM    1  O   UNK     0       9.513  -1.280  23.953  0.00  0.00    -0.348 OA
HETATM    2  C   UNK     0       9.466  -0.329  22.888  0.00  0.00     0.180 C 
HETATM    3  C   UNK     0       9.255   1.077  23.454  0.00  0.00     0.180 C 
HETATM    4  C   UNK     0       7.997   1.131  24.321  0.00  0.00     0.183 C 
HETATM    5  C   UNK     0       7.978  -0.009  25.339  0.00  0.00     0.204 C 
HETATM    6  C   UNK     0       8.287  -1.351  24.678  0.00  0.00     0.291 C 
ENDROOT
BRANCH   2   7
HETATM    7  C   UNK     0      10.777  -0.437  22.116  0.00  0.00     0.205 C 
BRANCH   7   8
HETATM    8  O   UNK     0      10.604   0.137  20.828  0.00  0.00    -0.356 OA
BRANCH   8   9
HETATM    9  C   UNK     0       9.572  -0.521  20.101  0.00  0.00     0.291 C 
HETATM   10  O   UNK     0       9.951  -1.837  19.684  0.00  0.00    -0.351 OA
HETATM   11  C   UNK     0      11.041  -1.868  18.757  0.00  0.00     0.152 C 
HETATM   12  C   UNK     0      10.703  -1.083  17.482  0.00  0.00     0.178 C 
HETATM   13  C   UNK     0      11.334  -3.337  18.463  0.00  0.00     0.042 C 
HETATM   14  C   UNK     0      10.273   0.340  17.840  0.00  0.00     0.183 C 
HETATM   15  C   UNK     0       9.167   0.329  18.897  0.00  0.00     0.204 C 
BRANCH  12  16
HETATM   16  O   UNK     0      11.845  -1.001  16.635  0.00  0.00    -0.390 OA
HETATM   17  H   UNK     0      12.003  -0.064  16.430  0.00  0.00     0.210 HD
ENDBRANCH  12  16
BRANCH  14  18
HETATM   18  O   UNK     0       9.813   1.001  16.664  0.00  0.00    -0.390 OA
HETATM   19  H   UNK     0      10.052   1.941  16.743  0.00  0.00     0.210 HD
ENDBRANCH  14  18
BRANCH  15  20
HETATM   20  O   UNK     0       7.974  -0.235  18.349  0.00  0.00    -0.388 OA
HETATM   21  H   UNK     0       7.798  -1.067  18.820  0.00  0.00     0.210 HD
ENDBRANCH  15  20
ENDBRANCH   8   9
ENDBRANCH   7   8
ENDBRANCH   2   7
BRANCH   6  22
HETATM   22  O   UNK     0       8.392  -2.335  25.707  0.00  0.00    -0.358 OA
BRANCH  22  23
HETATM   23  C   UNK     0       8.382  -3.648  25.169  0.00  0.00     0.175 C 
BRANCH  23  24
HETATM   24  C   UNK     0       9.005  -4.617  26.166  0.00  0.00     0.065 C 
BRANCH  24  25
HETATM   25  C   UNK     0       9.649  -5.802  25.490  0.00  0.00    -0.053 A 
HETATM   26  C   UNK     0       9.420  -6.043  24.136  0.00  0.00     0.046 A 
HETATM   27  C   UNK     0      10.018  -7.137  23.510  0.00  0.00     0.099 A 
HETATM   28  C   UNK     0      10.843  -7.992  24.240  0.00  0.00     0.098 A 
HETATM   29  C   UNK     0      11.073  -7.752  25.594  0.00  0.00     0.040 A 
HETATM   30  C   UNK     0      10.476  -6.657  26.220  0.00  0.00     0.010 A 
BRANCH  27  31
HETATM   31  O   UNK     0       9.788  -7.360  22.186  0.00  0.00    -0.358 OA
HETATM   32  H   UNK     0       9.577  -8.301  22.056  0.00  0.00     0.217 HD
ENDBRANCH  27  31
BRANCH  28  33
HETATM   33  O   UNK     0      11.433  -9.064  23.640  0.00  0.00    -0.358 OA
HETATM   34  H   UNK     0      10.909  -9.319  22.861  0.00  0.00     0.217 HD
ENDBRANCH  28  33
ENDBRANCH  24  25
ENDBRANCH  23  24
ENDBRANCH  22  23
ENDBRANCH   6  22
BRANCH   3  35
HETATM   35  O   UNK     0       9.127   2.004  22.379  0.00  0.00    -0.390 OA
HETATM   36  H   UNK     0       9.158   1.503  21.546  0.00  0.00     0.210 HD
ENDBRANCH   3  35
BRANCH   5  37
HETATM   37  O   UNK     0       6.683  -0.091  25.934  0.00  0.00    -0.388 OA
HETATM   38  H   UNK     0       6.798  -0.163  26.898  0.00  0.00     0.210 HD
ENDBRANCH   5  37
BRANCH   4  39
HETATM   39  O   UNK     0       7.987   2.384  25.009  0.00  0.00    -0.390 OA
HETATM   40  H   UNK     0       8.906   2.616  25.227  0.00  0.00     0.210 HD
ENDBRANCH   4  39
TORSDOF 15
ENDMDL
MODEL 8
REMARK VINA RESULT:      -7.7      2.848      7.655
REMARK  15 active torsions:
REMARK  status: ('A' for Active; 'I' for Inactive)
REMARK    1  A    between atoms: O_2  and  C_18 
REMARK    2  A    between atoms: O_2  and  C_22 
REMARK    3  A    between atoms: O_4  and  C_14 
REMARK    4  A    between atoms: O_5  and  C_21 
REMARK    5  A    between atoms: O_5  and  C_25 
REMARK    6  A    between atoms: O_6  and  C_15 
REMARK    7  A    between atoms: O_7  and  C_16 
REMARK    8  A    between atoms: O_8  and  C_17 
REMARK    9  A    between atoms: O_9  and  C_19 
REMARK   10  A    between atoms: O_10  and  C_20 
REMARK   11  A    between atoms: O_11  and  C_30 
REMARK   12  A    between atoms: O_12  and  C_32 
REMARK   13  A    between atoms: C_13  and  C_22 
REMARK   14  A    between atoms: C_25  and  C_26 
REMARK   15  A    between atoms: C_26  and  C_27 
ROOT
HETATM    1  O   UNK     0      10.544  -3.487  24.581  0.00  0.00    -0.348 OA
HETATM    2  C   UNK     0       9.283  -2.819  24.656  0.00  0.00     0.180 C 
HETATM    3  C   UNK     0       8.488  -3.341  25.855  0.00  0.00     0.180 C 
HETATM    4  C   UNK     0       8.324  -4.859  25.780  0.00  0.00     0.183 C 
HETATM    5  C   UNK     0       9.663  -5.547  25.516  0.00  0.00     0.204 C 
HETATM    6  C   UNK     0      10.408  -4.889  24.356  0.00  0.00     0.291 C 
ENDROOT
BRANCH   2   7
HETATM    7  C   UNK     0       9.560  -1.324  24.769  0.00  0.00     0.205 C 
BRANCH   7   8
HETATM    8  O   UNK     0      10.361  -0.918  23.668  0.00  0.00    -0.356 OA
BRANCH   8   9
HETATM    9  C   UNK     0       9.793   0.201  22.995  0.00  0.00     0.291 C 
HETATM   10  O   UNK     0       9.344  -0.126  21.676  0.00  0.00    -0.351 OA
HETATM   11  C   UNK     0      10.390  -0.517  20.780  0.00  0.00     0.152 C 
HETATM   12  C   UNK     0      11.431   0.601  20.628  0.00  0.00     0.178 C 
HETATM   13  C   UNK     0       9.728  -0.868  19.450  0.00  0.00     0.042 C 
HETATM   14  C   UNK     0      11.957   1.019  22.001  0.00  0.00     0.183 C 
HETATM   15  C   UNK     0      10.804   1.345  22.953  0.00  0.00     0.204 C 
BRANCH  12  16
HETATM   16  O   UNK     0      12.535   0.143  19.851  0.00  0.00    -0.390 OA
HETATM   17  H   UNK     0      13.190  -0.244  20.456  0.00  0.00     0.210 HD
ENDBRANCH  12  16
BRANCH  14  18
HETATM   18  O   UNK     0      12.800   2.160  21.853  0.00  0.00    -0.390 OA
HETATM   19  H   UNK     0      13.150   2.382  22.733  0.00  0.00     0.210 HD
ENDBRANCH  14  18
BRANCH  15  20
HETATM   20  O   UNK     0      10.118   2.515  22.505  0.00  0.00    -0.388 OA
HETATM   21  H   UNK     0       9.177   2.405  22.722  0.00  0.00     0.210 HD
ENDBRANCH  15  20
ENDBRANCH   8   9
ENDBRANCH   7   8
ENDBRANCH   2   7
BRANCH   6  22
HETATM   22  O   UNK     0      11.700  -5.490  24.265  0.00  0.00    -0.358 OA
BRANCH  22  23
HETATM   23  C   UNK     0      12.216  -5.407  22.946  0.00  0.00     0.175 C 
BRANCH  23  24
HETATM   24  C   UNK     0      11.118  -5.743  21.943  0.00  0.00     0.065 C 
BRANCH  24  25
HETATM   25  C   UNK     0      11.356  -7.063  21.252  0.00  0.00    -0.053 A 
HETATM   26  C   UNK     0      10.610  -7.405  20.125  0.00  0.00     0.046 A 
HETATM   27  C   UNK     0      10.832  -8.625  19.485  0.00  0.00     0.099 A 
HETATM   28  C   UNK     0      11.799  -9.503  19.975  0.00  0.00     0.098 A 
HETATM   29  C   UNK     0      12.545  -9.161  21.102  0.00  0.00     0.040 A 
HETATM   30  C   UNK     0      12.325  -7.941  21.741  0.00  0.00     0.010 A 
BRANCH  27  31
HETATM   31  O   UNK     0      10.098  -8.947  18.384  0.00  0.00    -0.358 OA
HETATM   32  H   UNK     0       9.154  -8.939  18.618  0.00  0.00     0.217 HD
ENDBRANCH  27  31
BRANCH  28  33
HETATM   33  O   UNK     0      12.025 -10.698  19.358  0.00  0.00    -0.358 OA
HETATM   34  H   UNK     0      12.929 -10.703  19.000  0.00  0.00     0.217 HD
ENDBRANCH  28  33
ENDBRANCH  24  25
ENDBRANCH  23  24
ENDBRANCH  22  23
ENDBRANCH   6  22
BRANCH   3  35
HETATM   35  O   UNK     0       7.201  -2.727  25.870  0.00  0.00    -0.390 OA
HETATM   36  H   UNK     0       7.328  -1.764  25.915  0.00  0.00     0.210 HD
ENDBRANCH   3  35
BRANCH   5  37
HETATM   37  O   UNK     0       9.434  -6.916  25.182  0.00  0.00    -0.388 OA
HETATM   38  H   UNK     0       8.576  -7.179  25.556  0.00  0.00     0.210 HD
ENDBRANCH   5  37
BRANCH   4  39
HETATM   39  O   UNK     0       7.795  -5.308  27.029  0.00  0.00    -0.390 OA
HETATM   40  H   UNK     0       7.253  -4.593  27.403  0.00  0.00     0.210 HD
ENDBRANCH   4  39
TORSDOF 15
ENDMDL
MODEL 9
REMARK VINA RESULT:      -7.6      2.823      9.725
REMARK  15 active torsions:
REMARK  status: ('A' for Active; 'I' for Inactive)
REMARK    1  A    between atoms: O_2  and  C_18 
REMARK    2  A    between atoms: O_2  and  C_22 
REMARK    3  A    between atoms: O_4  and  C_14 
REMARK    4  A    between atoms: O_5  and  C_21 
REMARK    5  A    between atoms: O_5  and  C_25 
REMARK    6  A    between atoms: O_6  and  C_15 
REMARK    7  A    between atoms: O_7  and  C_16 
REMARK    8  A    between atoms: O_8  and  C_17 
REMARK    9  A    between atoms: O_9  and  C_19 
REMARK   10  A    between atoms: O_10  and  C_20 
REMARK   11  A    between atoms: O_11  and  C_30 
REMARK   12  A    between atoms: O_12  and  C_32 
REMARK   13  A    between atoms: C_13  and  C_22 
REMARK   14  A    between atoms: C_25  and  C_26 
REMARK   15  A    between atoms: C_26  and  C_27 
ROOT
HETATM    1  O   UNK     0       9.932  -0.714  19.760  0.00  0.00    -0.348 OA
HETATM    2  C   UNK     0      10.887  -0.297  18.783  0.00  0.00     0.180 C 
HETATM    3  C   UNK     0      11.062  -1.390  17.726  0.00  0.00     0.180 C 
HETATM    4  C   UNK     0      11.455  -2.717  18.376  0.00  0.00     0.183 C 
HETATM    5  C   UNK     0      10.527  -3.057  19.541  0.00  0.00     0.204 C 
HETATM    6  C   UNK     0      10.357  -1.867  20.484  0.00  0.00     0.291 C 
ENDROOT
BRANCH   2   7
HETATM    7  C   UNK     0      10.382   1.006  18.172  0.00  0.00     0.205 C 
BRANCH   7   8
HETATM    8  O   UNK     0      11.433   1.962  18.188  0.00  0.00    -0.356 OA
BRANCH   8   9
HETATM    9  C   UNK     0      11.721   2.396  19.512  0.00  0.00     0.291 C 
HETATM   10  O   UNK     0      11.234   3.716  19.773  0.00  0.00    -0.351 OA
HETATM   11  C   UNK     0      11.852   4.736  18.980  0.00  0.00     0.152 C 
HETATM   12  C   UNK     0      13.369   4.772  19.212  0.00  0.00     0.178 C 
HETATM   13  C   UNK     0      11.185   6.057  19.355  0.00  0.00     0.042 C 
HETATM   14  C   UNK     0      13.970   3.388  18.966  0.00  0.00     0.183 C 
HETATM   15  C   UNK     0      13.225   2.317  19.765  0.00  0.00     0.204 C 
BRANCH  12  16
HETATM   16  O   UNK     0      13.985   5.689  18.313  0.00  0.00    -0.390 OA
HETATM   17  H   UNK     0      13.282   6.205  17.880  0.00  0.00     0.210 HD
ENDBRANCH  12  16
BRANCH  14  18
HETATM   18  O   UNK     0      15.347   3.401  19.338  0.00  0.00    -0.390 OA
HETATM   19  H   UNK     0      15.862   3.634  18.547  0.00  0.00     0.210 HD
ENDBRANCH  14  18
BRANCH  15  20
HETATM   20  O   UNK     0      13.442   2.513  21.164  0.00  0.00    -0.388 OA
HETATM   21  H   UNK     0      12.720   3.071  21.498  0.00  0.00     0.210 HD
ENDBRANCH  15  20
ENDBRANCH   8   9
ENDBRANCH   7   8
ENDBRANCH   2   7
BRANCH   6  22
HETATM   22  O   UNK     0       9.373  -2.214  21.459  0.00  0.00    -0.358 OA
BRANCH  22  23
HETATM   23  C   UNK     0       9.808  -1.890  22.769  0.00  0.00     0.175 C 
BRANCH  23  24
HETATM   24  C   UNK     0       8.703  -2.204  23.771  0.00  0.00     0.065 C 
BRANCH  24  25
HETATM   25  C   UNK     0       9.014  -3.421  24.607  0.00  0.00    -0.053 A 
HETATM   26  C   UNK     0       8.105  -3.858  25.570  0.00  0.00     0.046 A 
HETATM   27  C   UNK     0       8.392  -4.984  26.341  0.00  0.00     0.099 A 
HETATM   28  C   UNK     0       9.590  -5.673  26.149  0.00  0.00     0.098 A 
HETATM   29  C   UNK     0      10.499  -5.237  25.186  0.00  0.00     0.040 A 
HETATM   30  C   UNK     0      10.212  -4.111  24.414  0.00  0.00     0.010 A 
BRANCH  27  31
HETATM   31  O   UNK     0       7.495  -5.402  27.277  0.00  0.00    -0.358 OA
HETATM   32  H   UNK     0       7.817  -5.148  28.159  0.00  0.00     0.217 HD
ENDBRANCH  27  31
BRANCH  28  33
HETATM   33  O   UNK     0       9.881  -6.775  26.896  0.00  0.00    -0.358 OA
HETATM   34  H   UNK     0       9.166  -6.920  27.539  0.00  0.00     0.217 HD
ENDBRANCH  28  33
ENDBRANCH  24  25
ENDBRANCH  23  24
ENDBRANCH  22  23
ENDBRANCH   6  22
BRANCH   3  35
HETATM   35  O   UNK     0      12.077  -0.997  16.806  0.00  0.00    -0.390 OA
HETATM   36  H   UNK     0      11.781  -0.184  16.361  0.00  0.00     0.210 HD
ENDBRANCH   3  35
BRANCH   5  37
HETATM   37  O   UNK     0      11.080  -4.142  20.287  0.00  0.00    -0.388 OA
HETATM   38  H   UNK     0      10.406  -4.449  20.917  0.00  0.00     0.210 HD
ENDBRANCH   5  37
BRANCH   4  39
HETATM   39  O   UNK     0      11.365  -3.739  17.382  0.00  0.00    -0.390 OA
HETATM   40  H   UNK     0      10.587  -3.556  16.828  0.00  0.00     0.210 HD
ENDBRANCH   4  39
TORSDOF 15
ENDMDL
MODEL 10
REMARK VINA RESULT:      -7.5      3.449      6.425
REMARK  15 active torsions:
REMARK  status: ('A' for Active; 'I' for Inactive)
REMARK    1  A    between atoms: O_2  and  C_18 
REMARK    2  A    between atoms: O_2  and  C_22 
REMARK    3  A    between atoms: O_4  and  C_14 
REMARK    4  A    between atoms: O_5  and  C_21 
REMARK    5  A    between atoms: O_5  and  C_25 
REMARK    6  A    between atoms: O_6  and  C_15 
REMARK    7  A    between atoms: O_7  and  C_16 
REMARK    8  A    between atoms: O_8  and  C_17 
REMARK    9  A    between atoms: O_9  and  C_19 
REMARK   10  A    between atoms: O_10  and  C_20 
REMARK   11  A    between atoms: O_11  and  C_30 
REMARK   12  A    between atoms: O_12  and  C_32 
REMARK   13  A    between atoms: C_13  and  C_22 
REMARK   14  A    between atoms: C_25  and  C_26 
REMARK   15  A    between atoms: C_26  and  C_27 
ROOT
HETATM    1  O   UNK     0      11.373   1.459  19.768  0.00  0.00    -0.348 OA
HETATM    2  C   UNK     0      10.388   0.450  19.998  0.00  0.00     0.180 C 
HETATM    3  C   UNK     0      10.119  -0.321  18.704  0.00  0.00     0.180 C 
HETATM    4  C   UNK     0       9.707   0.630  17.580  0.00  0.00     0.183 C 
HETATM    5  C   UNK     0      10.677   1.805  17.468  0.00  0.00     0.204 C 
HETATM    6  C   UNK     0      10.939   2.443  18.831  0.00  0.00     0.291 C 
ENDROOT
BRANCH   2   7
HETATM    7  C   UNK     0      10.913  -0.462  21.102  0.00  0.00     0.205 C 
BRANCH   7   8
HETATM    8  O   UNK     0       9.995  -0.452  22.186  0.00  0.00    -0.356 OA
BRANCH   8   9
HETATM    9  C   UNK     0      10.345   0.530  23.155  0.00  0.00     0.291 C 
HETATM   10  O   UNK     0      10.678  -0.047  24.422  0.00  0.00    -0.351 OA
HETATM   11  C   UNK     0       9.591  -0.726  25.060  0.00  0.00     0.152 C 
HETATM   12  C   UNK     0       8.413   0.228  25.305  0.00  0.00     0.178 C 
HETATM   13  C   UNK     0      10.134  -1.310  26.362  0.00  0.00     0.042 C 
HETATM   14  C   UNK     0       8.001   0.900  23.995  0.00  0.00     0.183 C 
HETATM   15  C   UNK     0       9.207   1.538  23.304  0.00  0.00     0.204 C 
BRANCH  12  16
HETATM   16  O   UNK     0       7.291  -0.493  25.806  0.00  0.00    -0.390 OA
HETATM   17  H   UNK     0       7.088  -1.210  25.180  0.00  0.00     0.210 HD
ENDBRANCH  12  16
BRANCH  14  18
HETATM   18  O   UNK     0       7.016   1.894  24.268  0.00  0.00    -0.390 OA
HETATM   19  H   UNK     0       7.478   2.743  24.376  0.00  0.00     0.210 HD
ENDBRANCH  14  18
BRANCH  15  20
HETATM   20  O   UNK     0       9.693   2.632  24.083  0.00  0.00    -0.388 OA
HETATM   21  H   UNK     0      10.047   3.296  23.468  0.00  0.00     0.210 HD
ENDBRANCH  15  20
ENDBRANCH   8   9
ENDBRANCH   7   8
ENDBRANCH   2   7
BRANCH   6  22
HETATM   22  O   UNK     0      11.956   3.432  18.666  0.00  0.00    -0.358 OA
BRANCH  22  23
HETATM   23  C   UNK     0      13.209   2.969  19.145  0.00  0.00     0.175 C 
BRANCH  23  24
HETATM   24  C   UNK     0      14.005   4.138  19.714  0.00  0.00     0.065 C 
BRANCH  24  25
HETATM   25  C   UNK     0      14.858   4.815  18.669  0.00  0.00    -0.053 A 
HETATM   26  C   UNK     0      14.429   6.004  18.081  0.00  0.00     0.046 A 
HETATM   27  C   UNK     0      15.218   6.630  17.117  0.00  0.00     0.099 A 
HETATM   28  C   UNK     0      16.437   6.066  16.739  0.00  0.00     0.098 A 
HETATM   29  C   UNK     0      16.866   4.877  17.327  0.00  0.00     0.040 A 
HETATM   30  C   UNK     0      16.078   4.250  18.292  0.00  0.00     0.010 A 
BRANCH  27  31
HETATM   31  O   UNK     0      14.789   7.793  16.551  0.00  0.00    -0.358 OA
HETATM   32  H   UNK     0      13.816   7.808  16.558  0.00  0.00     0.217 HD
ENDBRANCH  27  31
BRANCH  28  33
HETATM   33  O   UNK     0      17.217   6.668  15.798  0.00  0.00    -0.358 OA
HETATM   34  H   UNK     0      17.203   6.134  14.986  0.00  0.00     0.217 HD
ENDBRANCH  28  33
ENDBRANCH  24  25
ENDBRANCH  23  24
ENDBRANCH  22  23
ENDBRANCH   6  22
BRANCH   3  35
HETATM   35  O   UNK     0       9.076  -1.267  18.928  0.00  0.00    -0.390 OA
HETATM   36  H   UNK     0       8.885  -1.709  18.083  0.00  0.00     0.210 HD
ENDBRANCH   3  35
BRANCH   5  37
HETATM   37  O   UNK     0      10.119   2.800  16.609  0.00  0.00    -0.388 OA
HETATM   38  H   UNK     0       9.462   2.369  16.035  0.00  0.00     0.210 HD
ENDBRANCH   5  37
BRANCH   4  39
HETATM   39  O   UNK     0       9.708  -0.107  16.356  0.00  0.00    -0.390 OA
HETATM   40  H   UNK     0       9.156   0.372  15.714  0.00  0.00     0.210 HD
ENDBRANCH   4  39
TORSDOF 15
ENDMDL
