MODEL 1
REMARK VINA RESULT:      -6.5      0.000      0.000
REMARK  13 active torsions:
REMARK  status: ('A' for Active; 'I' for Inactive)
REMARK    1  A    between atoms: C_5  and  N_6 
REMARK    2  A    between atoms: C_9  and  N_10 
REMARK    3  A    between atoms: N_10  and  C_11 
REMARK    4  A    between atoms: C_11  and  C_12 
REMARK    5  A    between atoms: C_12  and  C_13 
REMARK    6  A    between atoms: C_13  and  C_14 
REMARK    7  A    between atoms: C_14  and  C_15 
REMARK    8  A    between atoms: C_15  and  C_16 
REMARK    9  A    between atoms: C_16  and  N_17 
REMARK       I    between atoms: N_17  and  C_18 
REMARK   10  A    between atoms: C_18  and  C_20 
REMARK   11  A    between atoms: C_25  and  N_26 
REMARK       I    between atoms: N_26  and  C_27 
REMARK   12  A    between atoms: C_27  and  C_29 
REMARK   13  A    between atoms: C_29  and  C_30 
ROOT
HETATM    1  O   MOL     1       7.763  -4.409  26.792  1.00 -0.03    -0.273 OA
HETATM    2  C   MOL     1       8.504  -5.187  26.217  1.00 -0.41     0.224 C 
HETATM    3  C   MOL     1       8.449  -5.375  24.718  1.00 -0.27     0.106 C 
HETATM    4  C   MOL     1       9.817  -5.734  24.132  1.00 -0.23     0.044 C 
HETATM    5  C   MOL     1      10.254  -7.012  24.854  1.00 -0.30     0.180 C 
HETATM    6  C   MOL     1      10.325  -6.808  26.352  1.00 -0.49     0.247 C 
HETATM    7  O   MOL     1      11.140  -7.400  27.039  1.00 -0.12    -0.271 OA
HETATM    8  N   MOL     1       9.431  -5.931  26.862  1.00 -0.04    -0.296 N 
HETATM    9  HN  MOL     1       9.464  -5.822  27.736  1.00 -0.27     0.171 HD
ENDROOT
BRANCH   5  10
HETATM   10  N   MOL     1      11.533  -7.503  24.318  1.00  0.05    -0.337 N 
HETATM   11  C   MOL     1      12.683  -6.614  24.081  1.00 -0.25     0.138 C 
HETATM   12  C   MOL     1      13.255  -7.510  22.968  1.00 -0.27     0.070 C 
HETATM   13  C   MOL     1      14.590  -7.279  22.293  1.00 -0.20     0.011 C 
HETATM   14  C   MOL     1      13.143  -8.926  23.539  1.00 -0.40     0.112 C 
HETATM   15  C   MOL     1      15.179  -8.298  21.647  1.00 -0.28     0.025 C 
HETATM   16  C   MOL     1      14.535  -9.612  21.606  1.00 -0.47    -0.001 C 
HETATM   17  C   MOL     1      13.582  -9.913  22.488  1.00 -0.52    -0.012 C 
HETATM   18  C   MOL     1      11.719  -8.793  23.995  1.00 -0.44     0.229 C 
HETATM   19  O   MOL     1      10.891  -9.692  24.056  1.00 -0.63    -0.273 OA
BRANCH  13  20
HETATM   20  N   MOL     1      15.046  -5.997  22.398  1.00  0.04    -0.393 N 
HETATM   21  HN  MOL     1      15.379  -5.734  23.170  1.00 -0.01     0.159 HD
BRANCH  20  22
HETATM   22  C   MOL     1      15.436  -5.251  21.193  1.00 -0.24     0.119 C 
BRANCH  22  23
HETATM   23  C   MOL     1      16.776  -4.510  21.319  1.00 -0.09     0.020 C 
BRANCH  23  24
HETATM   24  C   MOL     1      16.925  -3.584  20.103  1.00 -0.19     0.002 C 
BRANCH  24  25
HETATM   25  C   MOL     1      16.158  -4.153  18.899  1.00 -0.35     0.002 C 
BRANCH  25  26
HETATM   26  C   MOL     1      15.204  -3.069  18.377  1.00 -0.42     0.020 C 
BRANCH  26  27
HETATM   27  C   MOL     1      13.989  -3.719  17.699  1.00 -0.29     0.123 C 
BRANCH  27  28
HETATM   28  N   MOL     1      13.004  -2.669  17.399  1.00 -0.04    -0.357 N 
HETATM   29  C   MOL     1      11.846  -2.613  18.094  1.00 -0.29     0.254 C 
HETATM   30  O   MOL     1      11.564  -3.411  18.984  1.00 -0.19    -0.268 OA
HETATM   31  HN  MOL     1      13.186  -2.071  16.782  1.00 -0.09     0.162 HD
BRANCH  29  32
HETATM   32  C   MOL     1      10.837  -1.560  17.786  1.00 -0.21     0.061 A 
HETATM   33  C   MOL     1      10.276  -1.465  16.528  1.00 -0.36     0.038 A 
HETATM   34  C   MOL     1       9.329  -0.512  16.254  1.00 -0.38     0.117 A 
HETATM   35  N   MOL     1       8.882   0.381  17.158  1.00 -0.12    -0.271 NA
HETATM   36  C   MOL     1       9.430   0.286  18.380  1.00 -0.27     0.146 A 
HETATM   37  C   MOL     1      10.393  -0.644  18.736  1.00 -0.14     0.068 A 
BRANCH  37  38
HETATM   38  N   MOL     1      10.916  -0.647  20.035  1.00  0.07    -0.325 N 
HETATM   39  C   MOL     1      11.683   0.317  20.583  1.00 -0.29     0.226 C 
HETATM   40  O   MOL     1      12.006   1.354  20.020  1.00 -0.10    -0.273 OA
HETATM   41  HN  MOL     1      10.722  -1.342  20.535  1.00  0.05     0.169 HD
BRANCH  39  42
HETATM   42  C   MOL     1      12.096   0.013  22.008  1.00 -0.34     0.141 C 
BRANCH  42  43
HETATM   43  C   MOL     1      10.875  -0.264  22.865  1.00 -0.21    -0.048 A 
HETATM   44  C   MOL     1      10.590  -1.550  23.269  1.00 -0.31     0.007 A 
HETATM   45  C   MOL     1       9.482  -1.800  24.047  1.00 -0.36     0.002 A 
HETATM   46  C   MOL     1       8.657  -0.765  24.424  1.00 -0.30     0.024 A 
HETATM   47  C   MOL     1       8.940   0.521  24.023  1.00 -0.25     0.034 A 
HETATM   48 CL   MOL     1       7.899   1.830  24.499  1.00 -0.85    -0.084 Cl
HETATM   49  C   MOL     1      10.049   0.771  23.244  1.00 -0.22     0.031 A 
ENDBRANCH  42  43
ENDBRANCH  39  42
ENDBRANCH  37  38
ENDBRANCH  29  32
ENDBRANCH  27  28
ENDBRANCH  26  27
ENDBRANCH  25  26
ENDBRANCH  24  25
ENDBRANCH  23  24
ENDBRANCH  22  23
ENDBRANCH  20  22
ENDBRANCH  13  20
ENDBRANCH   5  10
TORSDOF 13
ENDMDL
MODEL 2
REMARK VINA RESULT:      -6.4      3.817     10.764
REMARK  13 active torsions:
REMARK  status: ('A' for Active; 'I' for Inactive)
REMARK    1  A    between atoms: C_5  and  N_6 
REMARK    2  A    between atoms: C_9  and  N_10 
REMARK    3  A    between atoms: N_10  and  C_11 
REMARK    4  A    between atoms: C_11  and  C_12 
REMARK    5  A    between atoms: C_12  and  C_13 
REMARK    6  A    between atoms: C_13  and  C_14 
REMARK    7  A    between atoms: C_14  and  C_15 
REMARK    8  A    between atoms: C_15  and  C_16 
REMARK    9  A    between atoms: C_16  and  N_17 
REMARK       I    between atoms: N_17  and  C_18 
REMARK   10  A    between atoms: C_18  and  C_20 
REMARK   11  A    between atoms: C_25  and  N_26 
REMARK       I    between atoms: N_26  and  C_27 
REMARK   12  A    between atoms: C_27  and  C_29 
REMARK   13  A    between atoms: C_29  and  C_30 
ROOT
HETATM    1  O   MOL     1      15.126   7.065  19.487  1.00 -0.03    -0.273 OA
HETATM    2  C   MOL     1      14.357   6.142  19.280  1.00 -0.41     0.224 C 
HETATM    3  C   MOL     1      14.823   4.846  18.657  1.00 -0.27     0.106 C 
HETATM    4  C   MOL     1      14.009   3.646  19.150  1.00 -0.23     0.044 C 
HETATM    5  C   MOL     1      12.552   3.961  18.797  1.00 -0.30     0.180 C 
HETATM    6  C   MOL     1      12.090   5.250  19.441  1.00 -0.49     0.247 C 
HETATM    7  O   MOL     1      10.934   5.409  19.795  1.00 -0.12    -0.271 OA
HETATM    8  N   MOL     1      13.042   6.198  19.593  1.00 -0.04    -0.296 N 
HETATM    9  HN  MOL     1      12.771   6.953  19.957  1.00 -0.27     0.171 HD
ENDROOT
BRANCH   5  10
HETATM   10  N   MOL     1      11.673   2.837  19.155  1.00  0.05    -0.337 N 
HETATM   11  C   MOL     1      11.759   2.152  20.456  1.00 -0.25     0.138 C 
HETATM   12  C   MOL     1      11.208   0.830  19.893  1.00 -0.27     0.070 C 
HETATM   13  C   MOL     1      10.876  -0.382  20.737  1.00 -0.20     0.011 C 
HETATM   14  C   MOL     1      10.021   1.263  19.028  1.00 -0.40     0.112 C 
HETATM   15  C   MOL     1      10.047  -1.314  20.243  1.00 -0.28     0.025 C 
HETATM   16  C   MOL     1       9.471  -1.150  18.907  1.00 -0.47    -0.001 C 
HETATM   17  C   MOL     1       9.455   0.052  18.333  1.00 -0.52    -0.012 C 
HETATM   18  C   MOL     1      10.751   2.358  18.305  1.00 -0.44     0.229 C 
HETATM   19  O   MOL     1      10.543   2.733  17.160  1.00 -0.63    -0.273 OA
BRANCH  13  20
HETATM   20  N   MOL     1      11.511  -0.402  21.945  1.00  0.04    -0.393 N 
HETATM   21  HN  MOL     1      12.392  -0.373  21.955  1.00 -0.01     0.159 HD
BRANCH  20  22
HETATM   22  C   MOL     1      10.798   0.013  23.161  1.00 -0.24     0.119 C 
BRANCH  22  23
HETATM   23  C   MOL     1      10.407  -1.149  24.087  1.00 -0.09     0.020 C 
BRANCH  23  24
HETATM   24  C   MOL     1      10.928  -2.452  23.464  1.00 -0.19     0.002 C 
BRANCH  24  25
HETATM   25  C   MOL     1      10.710  -3.630  24.425  1.00 -0.35     0.002 C 
BRANCH  25  26
HETATM   26  C   MOL     1      11.546  -4.820  23.930  1.00 -0.42     0.020 C 
BRANCH  26  27
HETATM   27  C   MOL     1      10.645  -6.042  23.707  1.00 -0.29     0.123 C 
BRANCH  27  28
HETATM   28  N   MOL     1      11.067  -6.714  22.469  1.00 -0.04    -0.357 N 
HETATM   29  C   MOL     1      10.856  -8.041  22.317  1.00 -0.29     0.254 C 
HETATM   30  O   MOL     1      10.318  -8.732  23.179  1.00 -0.19    -0.268 OA
HETATM   31  HN  MOL     1      11.436  -6.242  21.827  1.00 -0.09     0.162 HD
BRANCH  29  32
HETATM   32  C   MOL     1      11.293  -8.732  21.071  1.00 -0.21     0.061 A 
HETATM   33  C   MOL     1      10.942  -8.239  19.829  1.00 -0.36     0.038 A 
HETATM   34  C   MOL     1      11.366  -8.862  18.684  1.00 -0.38     0.117 A 
HETATM   35  N   MOL     1      12.135  -9.968  18.674  1.00 -0.12    -0.271 NA
HETATM   36  C   MOL     1      12.474 -10.444  19.883  1.00 -0.27     0.146 A 
HETATM   37  C   MOL     1      12.084  -9.877  21.085  1.00 -0.14     0.068 A 
BRANCH  37  38
HETATM   38  N   MOL     1      12.476 -10.464  22.294  1.00  0.07    -0.325 N 
HETATM   39  C   MOL     1      12.093 -11.674  22.749  1.00 -0.29     0.226 C 
HETATM   40  O   MOL     1      11.363 -12.447  22.144  1.00 -0.10    -0.273 OA
HETATM   41  HN  MOL     1      13.023  -9.997  22.798  1.00  0.05     0.169 HD
BRANCH  39  42
HETATM   42  C   MOL     1      12.686 -12.019  24.100  1.00 -0.34     0.141 C 
BRANCH  42  43
HETATM   43  C   MOL     1      11.786 -11.521  25.215  1.00 -0.21    -0.048 A 
HETATM   44  C   MOL     1      10.866 -12.368  25.792  1.00 -0.31     0.007 A 
HETATM   45  C   MOL     1      10.050 -11.917  26.804  1.00 -0.36     0.002 A 
HETATM   46  C   MOL     1      10.152 -10.617  27.244  1.00 -0.30     0.024 A 
HETATM   47  C   MOL     1      11.072  -9.768  26.670  1.00 -0.25     0.034 A 
HETATM   48 CL   MOL     1      11.203  -8.124  27.224  1.00 -0.85    -0.084 Cl
HETATM   49  C   MOL     1      11.888 -10.221  25.657  1.00 -0.22     0.031 A 
ENDBRANCH  42  43
ENDBRANCH  39  42
ENDBRANCH  37  38
ENDBRANCH  29  32
ENDBRANCH  27  28
ENDBRANCH  26  27
ENDBRANCH  25  26
ENDBRANCH  24  25
ENDBRANCH  23  24
ENDBRANCH  22  23
ENDBRANCH  20  22
ENDBRANCH  13  20
ENDBRANCH   5  10
TORSDOF 13
ENDMDL
MODEL 3
REMARK VINA RESULT:      -6.3      7.275     12.721
REMARK  13 active torsions:
REMARK  status: ('A' for Active; 'I' for Inactive)
REMARK    1  A    between atoms: C_5  and  N_6 
REMARK    2  A    between atoms: C_9  and  N_10 
REMARK    3  A    between atoms: N_10  and  C_11 
REMARK    4  A    between atoms: C_11  and  C_12 
REMARK    5  A    between atoms: C_12  and  C_13 
REMARK    6  A    between atoms: C_13  and  C_14 
REMARK    7  A    between atoms: C_14  and  C_15 
REMARK    8  A    between atoms: C_15  and  C_16 
REMARK    9  A    between atoms: C_16  and  N_17 
REMARK       I    between atoms: N_17  and  C_18 
REMARK   10  A    between atoms: C_18  and  C_20 
REMARK   11  A    between atoms: C_25  and  N_26 
REMARK       I    between atoms: N_26  and  C_27 
REMARK   12  A    between atoms: C_27  and  C_29 
REMARK   13  A    between atoms: C_29  and  C_30 
ROOT
HETATM    1  O   MOL     1      20.065  -2.328  11.319  1.00 -0.03    -0.273 OA
HETATM    2  C   MOL     1      19.505  -1.266  11.106  1.00 -0.41     0.224 C 
HETATM    3  C   MOL     1      18.015  -1.102  11.301  1.00 -0.27     0.106 C 
HETATM    4  C   MOL     1      17.643   0.323  11.721  1.00 -0.23     0.044 C 
HETATM    5  C   MOL     1      18.180   1.234  10.613  1.00 -0.30     0.180 C 
HETATM    6  C   MOL     1      19.675   1.076  10.438  1.00 -0.49     0.247 C 
HETATM    7  O   MOL     1      20.380   2.010  10.095  1.00 -0.12    -0.271 OA
HETATM    8  N   MOL     1      20.162  -0.160  10.689  1.00 -0.04    -0.296 N 
HETATM    9  HN  MOL     1      21.030  -0.255  10.576  1.00 -0.27     0.171 HD
ENDROOT
BRANCH   5  10
HETATM   10  N   MOL     1      17.815   2.636  10.866  1.00  0.05    -0.337 N 
HETATM   11  C   MOL     1      17.856   3.231  12.212  1.00 -0.25     0.138 C 
HETATM   12  C   MOL     1      16.768   4.269  11.880  1.00 -0.27     0.070 C 
HETATM   13  C   MOL     1      16.346   5.386  12.811  1.00 -0.20     0.011 C 
HETATM   14  C   MOL     1      17.173   4.800  10.502  1.00 -0.40     0.112 C 
HETATM   15  C   MOL     1      15.709   6.453  12.303  1.00 -0.28     0.025 C 
HETATM   16  C   MOL     1      15.437   6.529  10.866  1.00 -0.47    -0.001 C 
HETATM   17  C   MOL     1      16.117   5.760  10.018  1.00 -0.52    -0.012 C 
HETATM   18  C   MOL     1      17.403   3.452   9.882  1.00 -0.44     0.229 C 
HETATM   19  O   MOL     1      17.240   3.159   8.705  1.00 -0.63    -0.273 OA
BRANCH  13  20
HETATM   20  N   MOL     1      16.648   5.154  14.121  1.00  0.04    -0.393 N 
HETATM   21  HN  MOL     1      16.900   4.343  14.355  1.00 -0.01     0.159 HD
BRANCH  20  22
HETATM   22  C   MOL     1      17.025   6.269  15.000  1.00 -0.24     0.119 C 
BRANCH  22  23
HETATM   23  C   MOL     1      16.066   6.491  16.181  1.00 -0.09     0.020 C 
BRANCH  23  24
HETATM   24  C   MOL     1      15.791   5.129  16.834  1.00 -0.19     0.002 C 
BRANCH  24  25
HETATM   25  C   MOL     1      15.725   5.271  18.362  1.00 -0.35     0.002 C 
BRANCH  25  26
HETATM   26  C   MOL     1      14.291   4.962  18.816  1.00 -0.42     0.020 C 
BRANCH  26  27
HETATM   27  C   MOL     1      14.208   3.531  19.367  1.00 -0.29     0.123 C 
BRANCH  27  28
HETATM   28  N   MOL     1      12.945   2.929  18.917  1.00 -0.04    -0.357 N 
HETATM   29  C   MOL     1      12.473   1.818  19.525  1.00 -0.29     0.254 C 
HETATM   30  O   MOL     1      13.057   1.271  20.457  1.00 -0.19    -0.268 OA
HETATM   31  HN  MOL     1      12.494   3.310  18.265  1.00 -0.09     0.162 HD
BRANCH  29  32
HETATM   32  C   MOL     1      11.201   1.194  19.065  1.00 -0.21     0.061 A 
HETATM   33  C   MOL     1      10.905   1.100  17.719  1.00 -0.36     0.038 A 
HETATM   34  C   MOL     1       9.745   0.502  17.297  1.00 -0.38     0.117 A 
HETATM   35  N   MOL     1       8.829  -0.025  18.130  1.00 -0.12    -0.271 NA
HETATM   36  C   MOL     1       9.119   0.069  19.438  1.00 -0.27     0.146 A 
HETATM   37  C   MOL     1      10.264   0.659  19.946  1.00 -0.14     0.068 A 
BRANCH  37  38
HETATM   38  N   MOL     1      10.464   0.723  21.330  1.00  0.07    -0.325 N 
HETATM   39  C   MOL     1      10.807  -0.307  22.130  1.00 -0.29     0.226 C 
HETATM   40  O   MOL     1      11.021  -1.447  21.744  1.00 -0.10    -0.273 OA
HETATM   41  HN  MOL     1      10.357   1.509  21.707  1.00  0.05     0.169 HD
BRANCH  39  42
HETATM   42  C   MOL     1      10.940   0.088  23.586  1.00 -0.34     0.141 C 
BRANCH  42  43
HETATM   43  C   MOL     1       9.629  -0.141  24.317  1.00 -0.21    -0.048 A 
HETATM   44  C   MOL     1       9.479  -1.232  25.144  1.00 -0.31     0.007 A 
HETATM   45  C   MOL     1       8.291  -1.438  25.807  1.00 -0.36     0.002 A 
HETATM   46  C   MOL     1       7.249  -0.553  25.646  1.00 -0.30     0.024 A 
HETATM   47  C   MOL     1       7.397   0.540  24.822  1.00 -0.25     0.034 A 
HETATM   48 CL   MOL     1       6.083   1.661  24.618  1.00 -0.85    -0.084 Cl
HETATM   49  C   MOL     1       8.587   0.746  24.158  1.00 -0.22     0.031 A 
ENDBRANCH  42  43
ENDBRANCH  39  42
ENDBRANCH  37  38
ENDBRANCH  29  32
ENDBRANCH  27  28
ENDBRANCH  26  27
ENDBRANCH  25  26
ENDBRANCH  24  25
ENDBRANCH  23  24
ENDBRANCH  22  23
ENDBRANCH  20  22
ENDBRANCH  13  20
ENDBRANCH   5  10
TORSDOF 13
ENDMDL
MODEL 4
REMARK VINA RESULT:      -6.2     10.616     14.337
REMARK  13 active torsions:
REMARK  status: ('A' for Active; 'I' for Inactive)
REMARK    1  A    between atoms: C_5  and  N_6 
REMARK    2  A    between atoms: C_9  and  N_10 
REMARK    3  A    between atoms: N_10  and  C_11 
REMARK    4  A    between atoms: C_11  and  C_12 
REMARK    5  A    between atoms: C_12  and  C_13 
REMARK    6  A    between atoms: C_13  and  C_14 
REMARK    7  A    between atoms: C_14  and  C_15 
REMARK    8  A    between atoms: C_15  and  C_16 
REMARK    9  A    between atoms: C_16  and  N_17 
REMARK       I    between atoms: N_17  and  C_18 
REMARK   10  A    between atoms: C_18  and  C_20 
REMARK   11  A    between atoms: C_25  and  N_26 
REMARK       I    between atoms: N_26  and  C_27 
REMARK   12  A    between atoms: C_27  and  C_29 
REMARK   13  A    between atoms: C_29  and  C_30 
ROOT
HETATM    1  O   MOL     1      12.792   5.193  19.772  1.00 -0.03    -0.273 OA
HETATM    2  C   MOL     1      13.865   5.496  19.280  1.00 -0.41     0.224 C 
HETATM    3  C   MOL     1      14.705   4.489  18.527  1.00 -0.27     0.106 C 
HETATM    4  C   MOL     1      15.531   5.144  17.417  1.00 -0.23     0.044 C 
HETATM    5  C   MOL     1      16.392   6.203  18.111  1.00 -0.30     0.180 C 
HETATM    6  C   MOL     1      15.541   7.217  18.845  1.00 -0.49     0.247 C 
HETATM    7  O   MOL     1      15.888   8.381  18.957  1.00 -0.12    -0.271 OA
HETATM    8  N   MOL     1      14.384   6.743  19.359  1.00 -0.04    -0.296 N 
HETATM    9  HN  MOL     1      13.895   7.330  19.797  1.00 -0.27     0.171 HD
ENDROOT
BRANCH   5  10
HETATM   10  N   MOL     1      17.295   6.855  17.150  1.00  0.05    -0.337 N 
HETATM   11  C   MOL     1      16.819   7.398  15.866  1.00 -0.25     0.138 C 
HETATM   12  C   MOL     1      18.188   7.213  15.184  1.00 -0.27     0.070 C 
HETATM   13  C   MOL     1      18.516   7.702  13.790  1.00 -0.20     0.011 C 
HETATM   14  C   MOL     1      19.190   7.731  16.219  1.00 -0.40     0.112 C 
HETATM   15  C   MOL     1      19.802   7.859  13.440  1.00 -0.28     0.025 C 
HETATM   16  C   MOL     1      20.866   7.565  14.402  1.00 -0.47    -0.001 C 
HETATM   17  C   MOL     1      20.587   7.504  15.703  1.00 -0.52    -0.012 C 
HETATM   18  C   MOL     1      18.611   6.976  17.382  1.00 -0.44     0.229 C 
HETATM   19  O   MOL     1      19.229   6.552  18.349  1.00 -0.63    -0.273 OA
BRANCH  13  20
HETATM   20  N   MOL     1      17.418   7.905  13.005  1.00  0.04    -0.393 N 
HETATM   21  HN  MOL     1      17.000   8.679  13.063  1.00 -0.01     0.159 HD
BRANCH  20  22
HETATM   22  C   MOL     1      17.229   7.114  11.781  1.00 -0.24     0.119 C 
BRANCH  22  23
HETATM   23  C   MOL     1      15.978   6.221  11.798  1.00 -0.09     0.020 C 
BRANCH  23  24
HETATM   24  C   MOL     1      15.533   5.996  10.345  1.00 -0.19     0.002 C 
BRANCH  24  25
HETATM   25  C   MOL     1      15.480   4.494  10.028  1.00 -0.35     0.002 C 
BRANCH  25  26
HETATM   26  C   MOL     1      16.664   4.150   9.113  1.00 -0.42     0.020 C 
BRANCH  26  27
HETATM   27  C   MOL     1      16.489   2.741   8.529  1.00 -0.29     0.123 C 
BRANCH  27  28
HETATM   28  N   MOL     1      16.477   1.774   9.636  1.00 -0.04    -0.357 N 
HETATM   29  C   MOL     1      17.594   1.073   9.931  1.00 -0.29     0.254 C 
HETATM   30  O   MOL     1      18.645   1.204   9.307  1.00 -0.19    -0.268 OA
HETATM   31  HN  MOL     1      15.746   1.674  10.113  1.00 -0.09     0.162 HD
BRANCH  29  32
HETATM   32  C   MOL     1      17.586   0.081  11.043  1.00 -0.21     0.061 A 
HETATM   33  C   MOL     1      17.091  -1.194  10.849  1.00 -0.36     0.038 A 
HETATM   34  C   MOL     1      17.108  -2.113  11.867  1.00 -0.38     0.117 A 
HETATM   35  N   MOL     1      17.593  -1.859  13.097  1.00 -0.12    -0.271 NA
HETATM   36  C   MOL     1      18.073  -0.619  13.281  1.00 -0.27     0.146 A 
HETATM   37  C   MOL     1      18.089   0.367  12.309  1.00 -0.14     0.068 A 
BRANCH  37  38
HETATM   38  N   MOL     1      18.595   1.638  12.609  1.00  0.07    -0.325 N 
HETATM   39  C   MOL     1      17.865   2.751  12.827  1.00 -0.29     0.226 C 
HETATM   40  O   MOL     1      16.644   2.795  12.821  1.00 -0.10    -0.273 OA
HETATM   41  HN  MOL     1      19.469   1.711  12.661  1.00  0.05     0.169 HD
BRANCH  39  42
HETATM   42  C   MOL     1      18.713   3.972  13.121  1.00 -0.34     0.141 C 
BRANCH  42  43
HETATM   43  C   MOL     1      19.418   3.817  14.456  1.00 -0.21    -0.048 A 
HETATM   44  C   MOL     1      20.791   3.888  14.525  1.00 -0.31     0.007 A 
HETATM   45  C   MOL     1      21.430   3.749  15.737  1.00 -0.36     0.002 A 
HETATM   46  C   MOL     1      20.697   3.539  16.883  1.00 -0.30     0.024 A 
HETATM   47  C   MOL     1      19.324   3.469  16.816  1.00 -0.25     0.034 A 
HETATM   48 CL   MOL     1      18.395   3.204  18.263  1.00 -0.85    -0.084 Cl
HETATM   49  C   MOL     1      18.685   3.608  15.603  1.00 -0.22     0.031 A 
ENDBRANCH  42  43
ENDBRANCH  39  42
ENDBRANCH  37  38
ENDBRANCH  29  32
ENDBRANCH  27  28
ENDBRANCH  26  27
ENDBRANCH  25  26
ENDBRANCH  24  25
ENDBRANCH  23  24
ENDBRANCH  22  23
ENDBRANCH  20  22
ENDBRANCH  13  20
ENDBRANCH   5  10
TORSDOF 13
ENDMDL
MODEL 5
REMARK VINA RESULT:      -6.0      2.965      7.668
REMARK  13 active torsions:
REMARK  status: ('A' for Active; 'I' for Inactive)
REMARK    1  A    between atoms: C_5  and  N_6 
REMARK    2  A    between atoms: C_9  and  N_10 
REMARK    3  A    between atoms: N_10  and  C_11 
REMARK    4  A    between atoms: C_11  and  C_12 
REMARK    5  A    between atoms: C_12  and  C_13 
REMARK    6  A    between atoms: C_13  and  C_14 
REMARK    7  A    between atoms: C_14  and  C_15 
REMARK    8  A    between atoms: C_15  and  C_16 
REMARK    9  A    between atoms: C_16  and  N_17 
REMARK       I    between atoms: N_17  and  C_18 
REMARK   10  A    between atoms: C_18  and  C_20 
REMARK   11  A    between atoms: C_25  and  N_26 
REMARK       I    between atoms: N_26  and  C_27 
REMARK   12  A    between atoms: C_27  and  C_29 
REMARK   13  A    between atoms: C_29  and  C_30 
ROOT
HETATM    1  O   MOL     1       8.239  -5.040  26.408  1.00 -0.03    -0.273 OA
HETATM    2  C   MOL     1       8.514  -4.132  25.644  1.00 -0.41     0.224 C 
HETATM    3  C   MOL     1       7.888  -2.762  25.781  1.00 -0.27     0.106 C 
HETATM    4  C   MOL     1       8.829  -1.651  25.306  1.00 -0.23     0.044 C 
HETATM    5  C   MOL     1       9.164  -1.985  23.850  1.00 -0.30     0.180 C 
HETATM    6  C   MOL     1       9.807  -3.349  23.726  1.00 -0.49     0.247 C 
HETATM    7  O   MOL     1      10.639  -3.587  22.868  1.00 -0.12    -0.271 OA
HETATM    8  N   MOL     1       9.396  -4.270  24.627  1.00 -0.04    -0.296 N 
HETATM    9  HN  MOL     1       9.761  -5.067  24.547  1.00 -0.27     0.171 HD
ENDROOT
BRANCH   5  10
HETATM   10  N   MOL     1      10.008  -0.938  23.254  1.00  0.05    -0.337 N 
HETATM   11  C   MOL     1       9.620  -0.213  22.032  1.00 -0.25     0.138 C 
HETATM   12  C   MOL     1      11.080   0.076  21.638  1.00 -0.27     0.070 C 
HETATM   13  C   MOL     1      11.489   0.951  20.472  1.00 -0.20     0.011 C 
HETATM   14  C   MOL     1      11.733   0.530  22.946  1.00 -0.40     0.112 C 
HETATM   15  C   MOL     1      12.729   1.465  20.446  1.00 -0.28     0.025 C 
HETATM   16  C   MOL     1      13.663   1.183  21.536  1.00 -0.47    -0.001 C 
HETATM   17  C   MOL     1      13.205   0.745  22.708  1.00 -0.52    -0.012 C 
HETATM   18  C   MOL     1      11.193  -0.594  23.783  1.00 -0.44     0.229 C 
HETATM   19  O   MOL     1      11.736  -1.098  24.757  1.00 -0.63    -0.273 OA
BRANCH  13  20
HETATM   20  N   MOL     1      10.516   1.097  19.526  1.00  0.04    -0.393 N 
HETATM   21  HN  MOL     1      10.138   1.888  19.434  1.00 -0.01     0.159 HD
BRANCH  20  22
HETATM   22  C   MOL     1      10.444   0.166  18.391  1.00 -0.24     0.119 C 
BRANCH  22  23
HETATM   23  C   MOL     1      11.135  -1.184  18.642  1.00 -0.09     0.020 C 
BRANCH  23  24
HETATM   24  C   MOL     1      11.474  -1.806  17.279  1.00 -0.19     0.002 C 
BRANCH  24  25
HETATM   25  C   MOL     1      11.830  -3.291  17.442  1.00 -0.35     0.002 C 
BRANCH  25  26
HETATM   26  C   MOL     1      11.276  -3.777  18.789  1.00 -0.42     0.020 C 
BRANCH  26  27
HETATM   27  C   MOL     1      12.056  -5.010  19.267  1.00 -0.29     0.123 C 
BRANCH  27  28
HETATM   28  N   MOL     1      11.609  -5.348  20.626  1.00 -0.04    -0.357 N 
HETATM   29  C   MOL     1      11.832  -6.587  21.120  1.00 -0.29     0.254 C 
HETATM   30  O   MOL     1      12.403  -7.466  20.479  1.00 -0.19    -0.268 OA
HETATM   31  HN  MOL     1      11.217  -4.734  21.116  1.00 -0.09     0.162 HD
BRANCH  29  32
HETATM   32  C   MOL     1      11.370  -6.942  22.491  1.00 -0.21     0.061 A 
HETATM   33  C   MOL     1      10.046  -7.255  22.732  1.00 -0.36     0.038 A 
HETATM   34  C   MOL     1       9.628  -7.607  23.990  1.00 -0.38     0.117 A 
HETATM   35  N   MOL     1      10.444  -7.673  25.059  1.00 -0.12    -0.271 NA
HETATM   36  C   MOL     1      11.730  -7.367  24.821  1.00 -0.27     0.146 A 
HETATM   37  C   MOL     1      12.231  -7.000  23.584  1.00 -0.14     0.068 A 
BRANCH  37  38
HETATM   38  N   MOL     1      13.587  -6.681  23.445  1.00  0.07    -0.325 N 
HETATM   39  C   MOL     1      14.147  -5.478  23.686  1.00 -0.29     0.226 C 
HETATM   40  O   MOL     1      13.541  -4.496  24.091  1.00 -0.10    -0.273 OA
HETATM   41  HN  MOL     1      14.118  -7.328  23.179  1.00  0.05     0.169 HD
BRANCH  39  42
HETATM   42  C   MOL     1      15.641  -5.454  23.433  1.00 -0.34     0.141 C 
BRANCH  42  43
HETATM   43  C   MOL     1      15.925  -5.183  21.968  1.00 -0.21    -0.048 A 
HETATM   44  C   MOL     1      16.423  -3.961  21.574  1.00 -0.31     0.007 A 
HETATM   45  C   MOL     1      16.681  -3.716  20.244  1.00 -0.36     0.002 A 
HETATM   46  C   MOL     1      16.444  -4.693  19.304  1.00 -0.30     0.024 A 
HETATM   47  C   MOL     1      15.948  -5.917  19.695  1.00 -0.25     0.034 A 
HETATM   48 CL   MOL     1      15.647  -7.153  18.510  1.00 -0.85    -0.084 Cl
HETATM   49  C   MOL     1      15.689  -6.161  21.027  1.00 -0.22     0.031 A 
ENDBRANCH  42  43
ENDBRANCH  39  42
ENDBRANCH  37  38
ENDBRANCH  29  32
ENDBRANCH  27  28
ENDBRANCH  26  27
ENDBRANCH  25  26
ENDBRANCH  24  25
ENDBRANCH  23  24
ENDBRANCH  22  23
ENDBRANCH  20  22
ENDBRANCH  13  20
ENDBRANCH   5  10
TORSDOF 13
ENDMDL
MODEL 6
REMARK VINA RESULT:      -6.0      3.358      9.747
REMARK  13 active torsions:
REMARK  status: ('A' for Active; 'I' for Inactive)
REMARK    1  A    between atoms: C_5  and  N_6 
REMARK    2  A    between atoms: C_9  and  N_10 
REMARK    3  A    between atoms: N_10  and  C_11 
REMARK    4  A    between atoms: C_11  and  C_12 
REMARK    5  A    between atoms: C_12  and  C_13 
REMARK    6  A    between atoms: C_13  and  C_14 
REMARK    7  A    between atoms: C_14  and  C_15 
REMARK    8  A    between atoms: C_15  and  C_16 
REMARK    9  A    between atoms: C_16  and  N_17 
REMARK       I    between atoms: N_17  and  C_18 
REMARK   10  A    between atoms: C_18  and  C_20 
REMARK   11  A    between atoms: C_25  and  N_26 
REMARK       I    between atoms: N_26  and  C_27 
REMARK   12  A    between atoms: C_27  and  C_29 
REMARK   13  A    between atoms: C_29  and  C_30 
ROOT
HETATM    1  O   MOL     1      18.745  -0.011  25.075  1.00 -0.03    -0.273 OA
HETATM    2  C   MOL     1      17.686   0.103  24.484  1.00 -0.41     0.224 C 
HETATM    3  C   MOL     1      17.052  -1.063  23.759  1.00 -0.27     0.106 C 
HETATM    4  C   MOL     1      15.523  -0.976  23.757  1.00 -0.23     0.044 C 
HETATM    5  C   MOL     1      15.185   0.363  23.095  1.00 -0.30     0.180 C 
HETATM    6  C   MOL     1      15.808   1.524  23.839  1.00 -0.49     0.247 C 
HETATM    7  O   MOL     1      15.264   2.614  23.893  1.00 -0.12    -0.271 OA
HETATM    8  N   MOL     1      16.994   1.265  24.434  1.00 -0.04    -0.296 N 
HETATM    9  HN  MOL     1      17.362   1.943  24.857  1.00 -0.27     0.171 HD
ENDROOT
BRANCH   5  10
HETATM   10  N   MOL     1      13.729   0.528  22.964  1.00  0.05    -0.337 N 
HETATM   11  C   MOL     1      12.809   0.334  24.098  1.00 -0.25     0.138 C 
HETATM   12  C   MOL     1      11.631  -0.055  23.185  1.00 -0.27     0.070 C 
HETATM   13  C   MOL     1      10.218  -0.289  23.673  1.00 -0.20     0.011 C 
HETATM   14  C   MOL     1      11.680   0.980  22.057  1.00 -0.40     0.112 C 
HETATM   15  C   MOL     1       9.205  -0.224  22.794  1.00 -0.28     0.025 C 
HETATM   16  C   MOL     1       9.473   0.075  21.387  1.00 -0.47    -0.001 C 
HETATM   17  C   MOL     1      10.628   0.638  21.034  1.00 -0.52    -0.012 C 
HETATM   18  C   MOL     1      13.153   0.848  21.795  1.00 -0.44     0.229 C 
HETATM   19  O   MOL     1      13.713   1.002  20.718  1.00 -0.63    -0.273 OA
BRANCH  13  20
HETATM   20  N   MOL     1      10.136  -0.581  25.004  1.00  0.04    -0.393 N 
HETATM   21  HN  MOL     1       9.909   0.063  25.561  1.00 -0.01     0.159 HD
BRANCH  20  22
HETATM   22  C   MOL     1       9.937  -1.969  25.443  1.00 -0.24     0.119 C 
BRANCH  22  23
HETATM   23  C   MOL     1       8.477  -2.321  25.769  1.00 -0.09     0.020 C 
BRANCH  23  24
HETATM   24  C   MOL     1       7.949  -3.242  24.659  1.00 -0.19     0.002 C 
BRANCH  24  25
HETATM   25  C   MOL     1       7.322  -4.506  25.264  1.00 -0.35     0.002 C 
BRANCH  25  26
HETATM   26  C   MOL     1       8.449  -5.382  25.830  1.00 -0.42     0.020 C 
BRANCH  26  27
HETATM   27  C   MOL     1       9.461  -5.718  24.726  1.00 -0.29     0.123 C 
BRANCH  27  28
HETATM   28  N   MOL     1       9.590  -7.180  24.639  1.00 -0.04    -0.357 N 
HETATM   29  C   MOL     1      10.712  -7.786  25.086  1.00 -0.29     0.254 C 
HETATM   30  O   MOL     1      11.654  -7.166  25.574  1.00 -0.19    -0.268 OA
HETATM   31  HN  MOL     1       8.924  -7.653  24.313  1.00 -0.09     0.162 HD
BRANCH  29  32
HETATM   32  C   MOL     1      10.856  -9.266  24.988  1.00 -0.21     0.061 A 
HETATM   33  C   MOL     1      10.202 -10.100  25.874  1.00 -0.36     0.038 A 
HETATM   34  C   MOL     1      10.315 -11.462  25.766  1.00 -0.38     0.117 A 
HETATM   35  N   MOL     1      11.047 -12.080  24.820  1.00 -0.12    -0.271 NA
HETATM   36  C   MOL     1      11.681 -11.267  23.961  1.00 -0.27     0.146 A 
HETATM   37  C   MOL     1      11.623  -9.884  24.004  1.00 -0.14     0.068 A 
BRANCH  37  38
HETATM   38  N   MOL     1      12.339  -9.124  23.071  1.00  0.07    -0.325 N 
HETATM   39  C   MOL     1      13.590  -8.646  23.231  1.00 -0.29     0.226 C 
HETATM   40  O   MOL     1      14.289  -8.840  24.215  1.00 -0.10    -0.273 OA
HETATM   41  HN  MOL     1      11.932  -8.946  22.313  1.00  0.05     0.169 HD
BRANCH  39  42
HETATM   42  C   MOL     1      14.082  -7.852  22.038  1.00 -0.34     0.141 C 
BRANCH  42  43
HETATM   43  C   MOL     1      12.961  -7.000  21.472  1.00 -0.21    -0.048 A 
HETATM   44  C   MOL     1      12.388  -7.324  20.263  1.00 -0.31     0.007 A 
HETATM   45  C   MOL     1      11.371  -6.551  19.750  1.00 -0.36     0.002 A 
HETATM   46  C   MOL     1      10.924  -5.451  20.446  1.00 -0.30     0.024 A 
HETATM   47  C   MOL     1      11.494  -5.125  21.656  1.00 -0.25     0.034 A 
HETATM   48 CL   MOL     1      10.931  -3.735  22.537  1.00 -0.85    -0.084 Cl
HETATM   49  C   MOL     1      12.512  -5.899  22.168  1.00 -0.22     0.031 A 
ENDBRANCH  42  43
ENDBRANCH  39  42
ENDBRANCH  37  38
ENDBRANCH  29  32
ENDBRANCH  27  28
ENDBRANCH  26  27
ENDBRANCH  25  26
ENDBRANCH  24  25
ENDBRANCH  23  24
ENDBRANCH  22  23
ENDBRANCH  20  22
ENDBRANCH  13  20
ENDBRANCH   5  10
TORSDOF 13
ENDMDL
MODEL 7
REMARK VINA RESULT:      -5.7     10.111     14.034
REMARK  13 active torsions:
REMARK  status: ('A' for Active; 'I' for Inactive)
REMARK    1  A    between atoms: C_5  and  N_6 
REMARK    2  A    between atoms: C_9  and  N_10 
REMARK    3  A    between atoms: N_10  and  C_11 
REMARK    4  A    between atoms: C_11  and  C_12 
REMARK    5  A    between atoms: C_12  and  C_13 
REMARK    6  A    between atoms: C_13  and  C_14 
REMARK    7  A    between atoms: C_14  and  C_15 
REMARK    8  A    between atoms: C_15  and  C_16 
REMARK    9  A    between atoms: C_16  and  N_17 
REMARK       I    between atoms: N_17  and  C_18 
REMARK   10  A    between atoms: C_18  and  C_20 
REMARK   11  A    between atoms: C_25  and  N_26 
REMARK       I    between atoms: N_26  and  C_27 
REMARK   12  A    between atoms: C_27  and  C_29 
REMARK   13  A    between atoms: C_29  and  C_30 
ROOT
HETATM    1  O   MOL     1      20.615  -2.054  14.852  1.00 -0.03    -0.273 OA
HETATM    2  C   MOL     1      20.114  -0.973  14.594  1.00 -0.41     0.224 C 
HETATM    3  C   MOL     1      20.888   0.317  14.746  1.00 -0.27     0.106 C 
HETATM    4  C   MOL     1      20.442   1.378  13.737  1.00 -0.23     0.044 C 
HETATM    5  C   MOL     1      18.943   1.577  13.978  1.00 -0.30     0.180 C 
HETATM    6  C   MOL     1      18.175   0.284  13.804  1.00 -0.49     0.247 C 
HETATM    7  O   MOL     1      17.032   0.272  13.380  1.00 -0.12    -0.271 OA
HETATM    8  N   MOL     1      18.844  -0.840  14.147  1.00 -0.04    -0.296 N 
HETATM    9  HN  MOL     1      18.393  -1.591  14.057  1.00 -0.27     0.171 HD
ENDROOT
BRANCH   5  10
HETATM   10  N   MOL     1      18.409   2.639  13.112  1.00  0.05    -0.337 N 
HETATM   11  C   MOL     1      17.684   3.804  13.648  1.00 -0.25     0.138 C 
HETATM   12  C   MOL     1      16.881   4.007  12.350  1.00 -0.27     0.070 C 
HETATM   13  C   MOL     1      15.955   5.178  12.099  1.00 -0.20     0.011 C 
HETATM   14  C   MOL     1      17.926   3.860  11.241  1.00 -0.40     0.112 C 
HETATM   15  C   MOL     1      15.623   5.487  10.835  1.00 -0.28     0.025 C 
HETATM   16  C   MOL     1      16.158   4.701   9.722  1.00 -0.47    -0.001 C 
HETATM   17  C   MOL     1      17.235   3.938   9.904  1.00 -0.52    -0.012 C 
HETATM   18  C   MOL     1      18.538   2.597  11.776  1.00 -0.44     0.229 C 
HETATM   19  O   MOL     1      19.050   1.704  11.115  1.00 -0.63    -0.273 OA
BRANCH  13  20
HETATM   20  N   MOL     1      15.522   5.792  13.238  1.00  0.04    -0.393 N 
HETATM   21  HN  MOL     1      15.285   5.288  13.920  1.00 -0.01     0.159 HD
BRANCH  20  22
HETATM   22  C   MOL     1      15.896   7.186  13.513  1.00 -0.24     0.119 C 
BRANCH  22  23
HETATM   23  C   MOL     1      17.389   7.489  13.303  1.00 -0.09     0.020 C 
BRANCH  23  24
HETATM   24  C   MOL     1      17.880   8.315  14.501  1.00 -0.19     0.002 C 
BRANCH  24  25
HETATM   25  C   MOL     1      16.921   8.158  15.690  1.00 -0.35     0.002 C 
BRANCH  25  26
HETATM   26  C   MOL     1      17.671   8.548  16.972  1.00 -0.42     0.020 C 
BRANCH  26  27
HETATM   27  C   MOL     1      16.670   8.877  18.089  1.00 -0.29     0.123 C 
BRANCH  27  28
HETATM   28  N   MOL     1      15.618   7.851  18.092  1.00 -0.04    -0.357 N 
HETATM   29  C   MOL     1      15.423   7.088  19.191  1.00 -0.29     0.254 C 
HETATM   30  O   MOL     1      16.094   7.210  20.213  1.00 -0.19    -0.268 OA
HETATM   31  HN  MOL     1      15.108   7.755  17.383  1.00 -0.09     0.162 HD
BRANCH  29  32
HETATM   32  C   MOL     1      14.367   6.037  19.197  1.00 -0.21     0.061 A 
HETATM   33  C   MOL     1      13.053   6.356  19.480  1.00 -0.36     0.038 A 
HETATM   34  C   MOL     1      12.079   5.390  19.459  1.00 -0.38     0.117 A 
HETATM   35  N   MOL     1      12.313   4.096  19.172  1.00 -0.12    -0.271 NA
HETATM   36  C   MOL     1      13.592   3.790  18.898  1.00 -0.27     0.146 A 
HETATM   37  C   MOL     1      14.633   4.703  18.901  1.00 -0.14     0.068 A 
BRANCH  37  38
HETATM   38  N   MOL     1      15.937   4.277  18.620  1.00  0.07    -0.325 N 
HETATM   39  C   MOL     1      16.590   4.443  17.451  1.00 -0.29     0.226 C 
HETATM   40  O   MOL     1      16.135   5.021  16.475  1.00 -0.10    -0.273 OA
HETATM   41  HN  MOL     1      16.366   3.868  19.268  1.00  0.05     0.169 HD
BRANCH  39  42
HETATM   42  C   MOL     1      17.990   3.863  17.463  1.00 -0.34     0.141 C 
BRANCH  42  43
HETATM   43  C   MOL     1      19.023   4.973  17.444  1.00 -0.21    -0.048 A 
HETATM   44  C   MOL     1      19.691   5.277  16.279  1.00 -0.31     0.007 A 
HETATM   45  C   MOL     1      20.628   6.286  16.262  1.00 -0.36     0.002 A 
HETATM   46  C   MOL     1      20.899   6.994  17.411  1.00 -0.30     0.024 A 
HETATM   47  C   MOL     1      20.232   6.693  18.577  1.00 -0.25     0.034 A 
HETATM   48 CL   MOL     1      20.572   7.586  20.030  1.00 -0.85    -0.084 Cl
HETATM   49  C   MOL     1      19.294   5.683  18.593  1.00 -0.22     0.031 A 
ENDBRANCH  42  43
ENDBRANCH  39  42
ENDBRANCH  37  38
ENDBRANCH  29  32
ENDBRANCH  27  28
ENDBRANCH  26  27
ENDBRANCH  25  26
ENDBRANCH  24  25
ENDBRANCH  23  24
ENDBRANCH  22  23
ENDBRANCH  20  22
ENDBRANCH  13  20
ENDBRANCH   5  10
TORSDOF 13
ENDMDL
MODEL 8
REMARK VINA RESULT:      -5.6     19.519     24.180
REMARK  13 active torsions:
REMARK  status: ('A' for Active; 'I' for Inactive)
REMARK    1  A    between atoms: C_5  and  N_6 
REMARK    2  A    between atoms: C_9  and  N_10 
REMARK    3  A    between atoms: N_10  and  C_11 
REMARK    4  A    between atoms: C_11  and  C_12 
REMARK    5  A    between atoms: C_12  and  C_13 
REMARK    6  A    between atoms: C_13  and  C_14 
REMARK    7  A    between atoms: C_14  and  C_15 
REMARK    8  A    between atoms: C_15  and  C_16 
REMARK    9  A    between atoms: C_16  and  N_17 
REMARK       I    between atoms: N_17  and  C_18 
REMARK   10  A    between atoms: C_18  and  C_20 
REMARK   11  A    between atoms: C_25  and  N_26 
REMARK       I    between atoms: N_26  and  C_27 
REMARK   12  A    between atoms: C_27  and  C_29 
REMARK   13  A    between atoms: C_29  and  C_30 
ROOT
HETATM    1  O   MOL     1     -11.198   5.507  26.486  1.00 -0.03    -0.273 OA
HETATM    2  C   MOL     1     -11.120   4.294  26.584  1.00 -0.41     0.224 C 
HETATM    3  C   MOL     1     -10.569   3.632  27.826  1.00 -0.27     0.106 C 
HETATM    4  C   MOL     1     -11.212   2.267  28.084  1.00 -0.23     0.044 C 
HETATM    5  C   MOL     1     -10.943   1.438  26.825  1.00 -0.30     0.180 C 
HETATM    6  C   MOL     1     -11.516   2.099  25.590  1.00 -0.49     0.247 C 
HETATM    7  O   MOL     1     -11.940   1.445  24.653  1.00 -0.12    -0.271 OA
HETATM    8  N   MOL     1     -11.523   3.451  25.605  1.00 -0.04    -0.296 N 
HETATM    9  HN  MOL     1     -11.846   3.837  24.882  1.00 -0.27     0.171 HD
ENDROOT
BRANCH   5  10
HETATM   10  N   MOL     1     -11.451   0.067  26.984  1.00  0.05    -0.337 N 
HETATM   11  C   MOL     1     -12.669  -0.239  27.755  1.00 -0.25     0.138 C 
HETATM   12  C   MOL     1     -12.197  -1.664  28.096  1.00 -0.27     0.070 C 
HETATM   13  C   MOL     1     -13.048  -2.692  28.812  1.00 -0.20     0.011 C 
HETATM   14  C   MOL     1     -11.651  -2.201  26.770  1.00 -0.40     0.112 C 
HETATM   15  C   MOL     1     -12.723  -3.991  28.710  1.00 -0.28     0.025 C 
HETATM   16  C   MOL     1     -11.566  -4.398  27.912  1.00 -0.47    -0.001 C 
HETATM   17  C   MOL     1     -11.059  -3.567  27.003  1.00 -0.52    -0.012 C 
HETATM   18  C   MOL     1     -10.821  -0.991  26.448  1.00 -0.44     0.229 C 
HETATM   19  O   MOL     1      -9.772  -0.980  25.820  1.00 -0.63    -0.273 OA
BRANCH  13  20
HETATM   20  N   MOL     1     -14.072  -2.153  29.534  1.00  0.04    -0.393 N 
HETATM   21  HN  MOL     1     -14.864  -2.089  29.153  1.00 -0.01     0.159 HD
BRANCH  20  22
HETATM   22  C   MOL     1     -14.015  -2.144  31.002  1.00 -0.24     0.119 C 
BRANCH  22  23
HETATM   23  C   MOL     1     -13.136  -1.029  31.590  1.00 -0.09     0.020 C 
BRANCH  23  24
HETATM   24  C   MOL     1     -11.744  -1.616  31.869  1.00 -0.19     0.002 C 
BRANCH  24  25
HETATM   25  C   MOL     1     -11.865  -3.052  32.399  1.00 -0.35     0.002 C 
BRANCH  25  26
HETATM   26  C   MOL     1     -10.453  -3.641  32.527  1.00 -0.42     0.020 C 
BRANCH  26  27
HETATM   27  C   MOL     1      -9.921  -4.045  31.145  1.00 -0.29     0.123 C 
BRANCH  27  28
HETATM   28  N   MOL     1      -8.551  -3.530  31.002  1.00 -0.04    -0.357 N 
HETATM   29  C   MOL     1      -8.296  -2.526  30.134  1.00 -0.29     0.254 C 
HETATM   30  O   MOL     1      -9.168  -2.008  29.441  1.00 -0.19    -0.268 OA
HETATM   31  HN  MOL     1      -7.910  -3.867  31.500  1.00 -0.09     0.162 HD
BRANCH  29  32
HETATM   32  C   MOL     1      -6.908  -2.008  29.974  1.00 -0.21     0.061 A 
HETATM   33  C   MOL     1      -5.919  -2.796  29.416  1.00 -0.36     0.038 A 
HETATM   34  C   MOL     1      -4.649  -2.308  29.246  1.00 -0.38     0.117 A 
HETATM   35  N   MOL     1      -4.271  -1.064  29.596  1.00 -0.12    -0.271 NA
HETATM   36  C   MOL     1      -5.235  -0.302  30.137  1.00 -0.27     0.146 A 
HETATM   37  C   MOL     1      -6.538  -0.719  30.346  1.00 -0.14     0.068 A 
BRANCH  37  38
HETATM   38  N   MOL     1      -7.465   0.149  30.937  1.00  0.07    -0.325 N 
HETATM   39  C   MOL     1      -8.055   1.205  30.340  1.00 -0.29     0.226 C 
HETATM   40  O   MOL     1      -7.879   1.534  29.176  1.00 -0.10    -0.273 OA
HETATM   41  HN  MOL     1      -7.680  -0.014  31.773  1.00  0.05     0.169 HD
BRANCH  39  42
HETATM   42  C   MOL     1      -9.006   1.951  31.253  1.00 -0.34     0.141 C 
BRANCH  42  43
HETATM   43  C   MOL     1      -8.467   3.337  31.559  1.00 -0.21    -0.048 A 
HETATM   44  C   MOL     1      -7.398   3.490  32.414  1.00 -0.31     0.007 A 
HETATM   45  C   MOL     1      -6.909   4.746  32.691  1.00 -0.36     0.002 A 
HETATM   46  C   MOL     1      -7.487   5.854  32.113  1.00 -0.30     0.024 A 
HETATM   47  C   MOL     1      -8.555   5.703  31.257  1.00 -0.25     0.034 A 
HETATM   48 CL   MOL     1      -9.287   7.101  30.526  1.00 -0.85    -0.084 Cl
HETATM   49  C   MOL     1      -9.044   4.445  30.981  1.00 -0.22     0.031 A 
ENDBRANCH  42  43
ENDBRANCH  39  42
ENDBRANCH  37  38
ENDBRANCH  29  32
ENDBRANCH  27  28
ENDBRANCH  26  27
ENDBRANCH  25  26
ENDBRANCH  24  25
ENDBRANCH  23  24
ENDBRANCH  22  23
ENDBRANCH  20  22
ENDBRANCH  13  20
ENDBRANCH   5  10
TORSDOF 13
ENDMDL
MODEL 9
REMARK VINA RESULT:      -5.6      6.911      9.789
REMARK  13 active torsions:
REMARK  status: ('A' for Active; 'I' for Inactive)
REMARK    1  A    between atoms: C_5  and  N_6 
REMARK    2  A    between atoms: C_9  and  N_10 
REMARK    3  A    between atoms: N_10  and  C_11 
REMARK    4  A    between atoms: C_11  and  C_12 
REMARK    5  A    between atoms: C_12  and  C_13 
REMARK    6  A    between atoms: C_13  and  C_14 
REMARK    7  A    between atoms: C_14  and  C_15 
REMARK    8  A    between atoms: C_15  and  C_16 
REMARK    9  A    between atoms: C_16  and  N_17 
REMARK       I    between atoms: N_17  and  C_18 
REMARK   10  A    between atoms: C_18  and  C_20 
REMARK   11  A    between atoms: C_25  and  N_26 
REMARK       I    between atoms: N_26  and  C_27 
REMARK   12  A    between atoms: C_27  and  C_29 
REMARK   13  A    between atoms: C_29  and  C_30 
ROOT
HETATM    1  O   MOL     1       7.794  -3.137  25.457  1.00 -0.03    -0.273 OA
HETATM    2  C   MOL     1       8.268  -2.421  24.593  1.00 -0.41     0.224 C 
HETATM    3  C   MOL     1       8.297  -0.916  24.737  1.00 -0.27     0.106 C 
HETATM    4  C   MOL     1       9.504  -0.293  24.029  1.00 -0.23     0.044 C 
HETATM    5  C   MOL     1       9.394  -0.727  22.564  1.00 -0.30     0.180 C 
HETATM    6  C   MOL     1       9.385  -2.234  22.430  1.00 -0.49     0.247 C 
HETATM    7  O   MOL     1       9.870  -2.792  21.460  1.00 -0.12    -0.271 OA
HETATM    8  N   MOL     1       8.809  -2.906  23.452  1.00 -0.04    -0.296 N 
HETATM    9  HN  MOL     1       8.793  -3.783  23.368  1.00 -0.27     0.171 HD
ENDROOT
BRANCH   5  10
HETATM   10  N   MOL     1      10.465  -0.122  21.758  1.00  0.05    -0.337 N 
HETATM   11  C   MOL     1      11.826   0.082  22.282  1.00 -0.25     0.138 C 
HETATM   12  C   MOL     1      12.100   1.273  21.345  1.00 -0.27     0.070 C 
HETATM   13  C   MOL     1      13.440   1.966  21.220  1.00 -0.20     0.011 C 
HETATM   14  C   MOL     1      11.575   0.801  19.986  1.00 -0.40     0.112 C 
HETATM   15  C   MOL     1      13.696   2.699  20.125  1.00 -0.28     0.025 C 
HETATM   16  C   MOL     1      12.689   2.815  19.068  1.00 -0.47    -0.001 C 
HETATM   17  C   MOL     1      11.695   1.931  18.997  1.00 -0.52    -0.012 C 
HETATM   18  C   MOL     1      10.257   0.296  20.500  1.00 -0.44     0.229 C 
HETATM   19  O   MOL     1       9.200   0.277  19.885  1.00 -0.63    -0.273 OA
BRANCH  13  20
HETATM   20  N   MOL     1      14.257   1.782  22.298  1.00  0.04    -0.393 N 
HETATM   21  HN  MOL     1      13.916   1.885  23.103  1.00 -0.01     0.159 HD
BRANCH  20  22
HETATM   22  C   MOL     1      15.480   0.978  22.168  1.00 -0.24     0.119 C 
BRANCH  22  23
HETATM   23  C   MOL     1      15.533  -0.240  23.104  1.00 -0.09     0.020 C 
BRANCH  23  24
HETATM   24  C   MOL     1      16.666  -0.015  24.116  1.00 -0.19     0.002 C 
BRANCH  24  25
HETATM   25  C   MOL     1      17.999  -0.527  23.551  1.00 -0.35     0.002 C 
BRANCH  25  26
HETATM   26  C   MOL     1      19.021   0.617  23.609  1.00 -0.42     0.020 C 
BRANCH  26  27
HETATM   27  C   MOL     1      18.997   1.413  22.296  1.00 -0.29     0.123 C 
BRANCH  27  28
HETATM   28  N   MOL     1      20.226   2.216  22.214  1.00 -0.04    -0.357 N 
HETATM   29  C   MOL     1      20.146   3.559  22.087  1.00 -0.29     0.254 C 
HETATM   30  O   MOL     1      19.076   4.160  22.037  1.00 -0.19    -0.268 OA
HETATM   31  HN  MOL     1      21.007   1.816  22.268  1.00 -0.09     0.162 HD
BRANCH  29  32
HETATM   32  C   MOL     1      21.387   4.378  21.989  1.00 -0.21     0.061 A 
HETATM   33  C   MOL     1      22.173   4.338  20.854  1.00 -0.36     0.038 A 
HETATM   34  C   MOL     1      23.300   5.112  20.756  1.00 -0.38     0.117 A 
HETATM   35  N   MOL     1      23.721   5.948  21.724  1.00 -0.12    -0.271 NA
HETATM   36  C   MOL     1      22.955   5.985  22.826  1.00 -0.27     0.146 A 
HETATM   37  C   MOL     1      21.806   5.233  23.005  1.00 -0.14     0.068 A 
BRANCH  37  38
HETATM   38  N   MOL     1      21.086   5.330  24.203  1.00  0.07    -0.325 N 
HETATM   39  C   MOL     1      20.230   6.317  24.535  1.00 -0.29     0.226 C 
HETATM   40  O   MOL     1      19.940   7.260  23.813  1.00 -0.10    -0.273 OA
HETATM   41  HN  MOL     1      21.206   4.685  24.786  1.00  0.05     0.169 HD
BRANCH  39  42
HETATM   42  C   MOL     1      19.615   6.136  25.907  1.00 -0.34     0.141 C 
BRANCH  42  43
HETATM   43  C   MOL     1      18.339   5.319  25.812  1.00 -0.21    -0.048 A 
HETATM   44  C   MOL     1      18.401   3.946  25.739  1.00 -0.31     0.007 A 
HETATM   45  C   MOL     1      17.244   3.205  25.654  1.00 -0.36     0.002 A 
HETATM   46  C   MOL     1      16.021   3.837  25.641  1.00 -0.30     0.024 A 
HETATM   47  C   MOL     1      15.956   5.210  25.716  1.00 -0.25     0.034 A 
HETATM   48 CL   MOL     1      14.412   6.010  25.700  1.00 -0.85    -0.084 Cl
HETATM   49  C   MOL     1      17.115   5.950  25.801  1.00 -0.22     0.031 A 
ENDBRANCH  42  43
ENDBRANCH  39  42
ENDBRANCH  37  38
ENDBRANCH  29  32
ENDBRANCH  27  28
ENDBRANCH  26  27
ENDBRANCH  25  26
ENDBRANCH  24  25
ENDBRANCH  23  24
ENDBRANCH  22  23
ENDBRANCH  20  22
ENDBRANCH  13  20
ENDBRANCH   5  10
TORSDOF 13
ENDMDL
MODEL 10
REMARK VINA RESULT:      -5.6     10.751     15.340
REMARK  13 active torsions:
REMARK  status: ('A' for Active; 'I' for Inactive)
REMARK    1  A    between atoms: C_5  and  N_6 
REMARK    2  A    between atoms: C_9  and  N_10 
REMARK    3  A    between atoms: N_10  and  C_11 
REMARK    4  A    between atoms: C_11  and  C_12 
REMARK    5  A    between atoms: C_12  and  C_13 
REMARK    6  A    between atoms: C_13  and  C_14 
REMARK    7  A    between atoms: C_14  and  C_15 
REMARK    8  A    between atoms: C_15  and  C_16 
REMARK    9  A    between atoms: C_16  and  N_17 
REMARK       I    between atoms: N_17  and  C_18 
REMARK   10  A    between atoms: C_18  and  C_20 
REMARK   11  A    between atoms: C_25  and  N_26 
REMARK       I    between atoms: N_26  and  C_27 
REMARK   12  A    between atoms: C_27  and  C_29 
REMARK   13  A    between atoms: C_29  and  C_30 
ROOT
HETATM    1  O   MOL     1      14.041   5.431  18.365  1.00 -0.03    -0.273 OA
HETATM    2  C   MOL     1      14.796   5.966  17.571  1.00 -0.41     0.224 C 
HETATM    3  C   MOL     1      16.135   5.360  17.218  1.00 -0.27     0.106 C 
HETATM    4  C   MOL     1      16.554   5.687  15.782  1.00 -0.23     0.044 C 
HETATM    5  C   MOL     1      16.575   7.216  15.694  1.00 -0.30     0.180 C 
HETATM    6  C   MOL     1      15.225   7.811  16.030  1.00 -0.49     0.247 C 
HETATM    7  O   MOL     1      14.831   8.839  15.505  1.00 -0.12    -0.271 OA
HETATM    8  N   MOL     1      14.498   7.126  16.942  1.00 -0.04    -0.296 N 
HETATM    9  HN  MOL     1      13.717   7.479  17.146  1.00 -0.27     0.171 HD
ENDROOT
BRANCH   5  10
HETATM   10  N   MOL     1      17.042   7.657  14.371  1.00  0.05    -0.337 N 
HETATM   11  C   MOL     1      16.395   7.222  13.122  1.00 -0.25     0.138 C 
HETATM   12  C   MOL     1      17.684   7.392  12.296  1.00 -0.27     0.070 C 
HETATM   13  C   MOL     1      17.756   7.236  10.792  1.00 -0.20     0.011 C 
HETATM   14  C   MOL     1      18.242   8.741  12.756  1.00 -0.40     0.112 C 
HETATM   15  C   MOL     1      18.788   7.783  10.129  1.00 -0.28     0.025 C 
HETATM   16  C   MOL     1      19.819   8.523  10.858  1.00 -0.47    -0.001 C 
HETATM   17  C   MOL     1      19.572   8.974  12.086  1.00 -0.52    -0.012 C 
HETATM   18  C   MOL     1      18.100   8.471  14.226  1.00 -0.44     0.229 C 
HETATM   19  O   MOL     1      18.817   8.908  15.116  1.00 -0.63    -0.273 OA
BRANCH  13  20
HETATM   20  N   MOL     1      16.735   6.500  10.264  1.00  0.04    -0.393 N 
HETATM   21  HN  MOL     1      16.167   6.900   9.724  1.00 -0.01     0.159 HD
BRANCH  20  22
HETATM   22  C   MOL     1      16.848   5.037  10.180  1.00 -0.24     0.119 C 
BRANCH  22  23
HETATM   23  C   MOL     1      15.947   4.279  11.168  1.00 -0.09     0.020 C 
BRANCH  23  24
HETATM   24  C   MOL     1      15.488   2.978  10.493  1.00 -0.19     0.002 C 
BRANCH  24  25
HETATM   25  C   MOL     1      15.798   1.771  11.390  1.00 -0.35     0.002 C 
BRANCH  25  26
HETATM   26  C   MOL     1      16.854   0.904  10.689  1.00 -0.42     0.020 C 
BRANCH  26  27
HETATM   27  C   MOL     1      16.909  -0.487  11.336  1.00 -0.29     0.123 C 
BRANCH  27  28
HETATM   28  N   MOL     1      17.403  -0.342  12.713  1.00 -0.04    -0.357 N 
HETATM   29  C   MOL     1      18.718  -0.506  12.979  1.00 -0.29     0.254 C 
HETATM   30  O   MOL     1      19.544  -0.776  12.110  1.00 -0.19    -0.268 OA
HETATM   31  HN  MOL     1      16.839  -0.129  13.353  1.00 -0.09     0.162 HD
BRANCH  29  32
HETATM   32  C   MOL     1      19.224  -0.374  14.374  1.00 -0.21     0.061 A 
HETATM   33  C   MOL     1      19.177  -1.444  15.247  1.00 -0.36     0.038 A 
HETATM   34  C   MOL     1      19.667  -1.328  16.523  1.00 -0.38     0.117 A 
HETATM   35  N   MOL     1      20.215  -0.201  17.015  1.00 -0.12    -0.271 NA
HETATM   36  C   MOL     1      20.258   0.836  16.164  1.00 -0.27     0.146 A 
HETATM   37  C   MOL     1      19.783   0.803  14.864  1.00 -0.14     0.068 A 
BRANCH  37  38
HETATM   38  N   MOL     1      19.857   1.949  14.062  1.00  0.07    -0.325 N 
HETATM   39  C   MOL     1      18.835   2.777  13.767  1.00 -0.29     0.226 C 
HETATM   40  O   MOL     1      17.694   2.655  14.191  1.00 -0.10    -0.273 OA
HETATM   41  HN  MOL     1      20.644   2.142  13.724  1.00  0.05     0.169 HD
BRANCH  39  42
HETATM   42  C   MOL     1      19.239   3.926  12.866  1.00 -0.34     0.141 C 
BRANCH  42  43
HETATM   43  C   MOL     1      20.067   4.937  13.637  1.00 -0.21    -0.048 A 
HETATM   44  C   MOL     1      21.068   5.639  13.004  1.00 -0.31     0.007 A 
HETATM   45  C   MOL     1      21.818   6.558  13.704  1.00 -0.36     0.002 A 
HETATM   46  C   MOL     1      21.568   6.777  15.040  1.00 -0.30     0.024 A 
HETATM   47  C   MOL     1      20.566   6.077  15.675  1.00 -0.25     0.034 A 
HETATM   48 CL   MOL     1      20.249   6.352  17.363  1.00 -0.85    -0.084 Cl
HETATM   49  C   MOL     1      19.817   5.158  14.973  1.00 -0.22     0.031 A 
ENDBRANCH  42  43
ENDBRANCH  39  42
ENDBRANCH  37  38
ENDBRANCH  29  32
ENDBRANCH  27  28
ENDBRANCH  26  27
ENDBRANCH  25  26
ENDBRANCH  24  25
ENDBRANCH  23  24
ENDBRANCH  22  23
ENDBRANCH  20  22
ENDBRANCH  13  20
ENDBRANCH   5  10
TORSDOF 13
ENDMDL
