MODEL 1
REMARK VINA RESULT:      -8.6      0.000      0.000
REMARK  15 active torsions:
REMARK  status: ('A' for Active; 'I' for Inactive)
REMARK    1  A    between atoms: O_2  and  C_18 
REMARK    2  A    between atoms: O_2  and  C_22 
REMARK    3  A    between atoms: O_4  and  C_14 
REMARK    4  A    between atoms: O_5  and  C_21 
REMARK    5  A    between atoms: O_5  and  C_25 
REMARK    6  A    between atoms: O_6  and  C_15 
REMARK    7  A    between atoms: O_7  and  C_16 
REMARK    8  A    between atoms: O_8  and  C_17 
REMARK    9  A    between atoms: O_9  and  C_19 
REMARK   10  A    between atoms: O_10  and  C_20 
REMARK   11  A    between atoms: O_11  and  C_30 
REMARK   12  A    between atoms: O_12  and  C_32 
REMARK   13  A    between atoms: C_13  and  C_22 
REMARK   14  A    between atoms: C_25  and  C_26 
REMARK   15  A    between atoms: C_26  and  C_27 
ROOT
HETATM    1  O   UNK     0       9.828  -0.618  24.171  0.00  0.00    -0.348 OA
HETATM    2  C   UNK     0       8.879  -0.956  25.183  0.00  0.00     0.180 C 
HETATM    3  C   UNK     0       7.630  -0.083  25.040  0.00  0.00     0.180 C 
HETATM    4  C   UNK     0       7.997   1.400  25.078  0.00  0.00     0.183 C 
HETATM    5  C   UNK     0       9.143   1.711  24.115  0.00  0.00     0.204 C 
HETATM    6  C   UNK     0      10.297   0.724  24.287  0.00  0.00     0.291 C 
ENDROOT
BRANCH   2   7
HETATM    7  C   UNK     0       8.553  -2.439  25.031  0.00  0.00     0.205 C 
BRANCH   7   8
HETATM    8  O   UNK     0       9.763  -3.164  24.867  0.00  0.00    -0.356 OA
BRANCH   8   9
HETATM    9  C   UNK     0       9.837  -4.263  25.768  0.00  0.00     0.291 C 
HETATM   10  O   UNK     0      10.912  -5.155  25.455  0.00  0.00    -0.351 OA
HETATM   11  C   UNK     0      10.780  -5.811  24.189  0.00  0.00     0.152 C 
HETATM   12  C   UNK     0       9.488  -6.639  24.130  0.00  0.00     0.178 C 
HETATM   13  C   UNK     0      12.024  -6.677  24.005  0.00  0.00     0.042 C 
HETATM   14  C   UNK     0       8.285  -5.758  24.467  0.00  0.00     0.183 C 
HETATM   15  C   UNK     0       8.505  -5.009  25.782  0.00  0.00     0.204 C 
BRANCH  12  16
HETATM   16  O   UNK     0       9.300  -7.166  22.820  0.00  0.00    -0.390 OA
HETATM   17  H   UNK     0       9.865  -6.662  22.208  0.00  0.00     0.210 HD
ENDBRANCH  12  16
BRANCH  14  18
HETATM   18  O   UNK     0       7.119  -6.574  24.562  0.00  0.00    -0.390 OA
HETATM   19  H   UNK     0       6.352  -6.016  24.342  0.00  0.00     0.210 HD
ENDBRANCH  14  18
BRANCH  15  20
HETATM   20  O   UNK     0       8.536  -5.935  26.871  0.00  0.00    -0.388 OA
HETATM   21  H   UNK     0       7.648  -6.321  26.954  0.00  0.00     0.210 HD
ENDBRANCH  15  20
ENDBRANCH   8   9
ENDBRANCH   7   8
ENDBRANCH   2   7
BRANCH   6  22
HETATM   22  O   UNK     0      11.259   0.989  23.265  0.00  0.00    -0.358 OA
BRANCH  22  23
HETATM   23  C   UNK     0      10.648   1.057  21.987  0.00  0.00     0.175 C 
BRANCH  23  24
HETATM   24  C   UNK     0      11.502   0.311  20.968  0.00  0.00     0.065 C 
BRANCH  24  25
HETATM   25  C   UNK     0      10.843   0.234  19.613  0.00  0.00    -0.053 A 
HETATM   26  C   UNK     0      10.803   1.360  18.791  0.00  0.00     0.046 A 
HETATM   27  C   UNK     0      10.195   1.287  17.538  0.00  0.00     0.099 A 
HETATM   28  C   UNK     0       9.627   0.089  17.106  0.00  0.00     0.098 A 
HETATM   29  C   UNK     0       9.667  -1.037  17.928  0.00  0.00     0.040 A 
HETATM   30  C   UNK     0      10.275  -0.966  19.181  0.00  0.00     0.010 A 
BRANCH  27  31
HETATM   31  O   UNK     0      10.164   2.393  16.743  0.00  0.00    -0.358 OA
HETATM   32  H   UNK     0      10.769   3.062  17.108  0.00  0.00     0.217 HD
ENDBRANCH  27  31
BRANCH  28  33
HETATM   33  O   UNK     0       9.031   0.005  15.883  0.00  0.00    -0.358 OA
HETATM   34  H   UNK     0       9.409  -0.747  15.397  0.00  0.00     0.217 HD
ENDBRANCH  28  33
ENDBRANCH  24  25
ENDBRANCH  23  24
ENDBRANCH  22  23
ENDBRANCH   6  22
BRANCH   3  35
HETATM   35  O   UNK     0       6.728  -0.374  26.104  0.00  0.00    -0.390 OA
HETATM   36  H   UNK     0       6.983   0.169  26.870  0.00  0.00     0.210 HD
ENDBRANCH   3  35
BRANCH   5  37
HETATM   37  O   UNK     0       9.637   3.025  24.375  0.00  0.00    -0.388 OA
HETATM   38  H   UNK     0      10.156   3.310  23.603  0.00  0.00     0.210 HD
ENDBRANCH   5  37
BRANCH   4  39
HETATM   39  O   UNK     0       6.842   2.151  24.700  0.00  0.00    -0.390 OA
HETATM   40  H   UNK     0       6.743   2.890  25.325  0.00  0.00     0.210 HD
ENDBRANCH   4  39
TORSDOF 15
ENDMDL
MODEL 2
REMARK VINA RESULT:      -8.2      1.759      7.436
REMARK  15 active torsions:
REMARK  status: ('A' for Active; 'I' for Inactive)
REMARK    1  A    between atoms: O_2  and  C_18 
REMARK    2  A    between atoms: O_2  and  C_22 
REMARK    3  A    between atoms: O_4  and  C_14 
REMARK    4  A    between atoms: O_5  and  C_21 
REMARK    5  A    between atoms: O_5  and  C_25 
REMARK    6  A    between atoms: O_6  and  C_15 
REMARK    7  A    between atoms: O_7  and  C_16 
REMARK    8  A    between atoms: O_8  and  C_17 
REMARK    9  A    between atoms: O_9  and  C_19 
REMARK   10  A    between atoms: O_10  and  C_20 
REMARK   11  A    between atoms: O_11  and  C_30 
REMARK   12  A    between atoms: O_12  and  C_32 
REMARK   13  A    between atoms: C_13  and  C_22 
REMARK   14  A    between atoms: C_25  and  C_26 
REMARK   15  A    between atoms: C_26  and  C_27 
ROOT
HETATM    1  O   UNK     0       9.534  -1.293  23.806  0.00  0.00    -0.348 OA
HETATM    2  C   UNK     0       9.324  -0.305  22.795  0.00  0.00     0.180 C 
HETATM    3  C   UNK     0       9.092   1.062  23.442  0.00  0.00     0.180 C 
HETATM    4  C   UNK     0       7.929   1.005  24.433  0.00  0.00     0.183 C 
HETATM    5  C   UNK     0       8.080  -0.172  25.395  0.00  0.00     0.204 C 
HETATM    6  C   UNK     0       8.395  -1.466  24.647  0.00  0.00     0.291 C 
ENDROOT
BRANCH   2   7
HETATM    7  C   UNK     0      10.552  -0.302  21.892  0.00  0.00     0.205 C 
BRANCH   7   8
HETATM    8  O   UNK     0      10.136  -0.112  20.547  0.00  0.00    -0.356 OA
BRANCH   8   9
HETATM    9  C   UNK     0      11.215  -0.298  19.637  0.00  0.00     0.291 C 
HETATM   10  O   UNK     0      12.027   0.874  19.505  0.00  0.00    -0.351 OA
HETATM   11  C   UNK     0      11.345   1.999  18.939  0.00  0.00     0.152 C 
HETATM   12  C   UNK     0      10.812   1.672  17.537  0.00  0.00     0.178 C 
HETATM   13  C   UNK     0      12.339   3.157  18.917  0.00  0.00     0.042 C 
HETATM   14  C   UNK     0       9.940   0.417  17.587  0.00  0.00     0.183 C 
HETATM   15  C   UNK     0      10.674  -0.734  18.277  0.00  0.00     0.204 C 
BRANCH  12  16
HETATM   16  O   UNK     0      10.015   2.747  17.049  0.00  0.00    -0.390 OA
HETATM   17  H   UNK     0      10.195   2.850  16.099  0.00  0.00     0.210 HD
ENDBRANCH  12  16
BRANCH  14  18
HETATM   18  O   UNK     0       9.585   0.039  16.259  0.00  0.00    -0.390 OA
HETATM   19  H   UNK     0      10.228   0.450  15.655  0.00  0.00     0.210 HD
ENDBRANCH  14  18
BRANCH  15  20
HETATM   20  O   UNK     0      11.785  -1.151  17.480  0.00  0.00    -0.388 OA
HETATM   21  H   UNK     0      11.468  -1.258  16.568  0.00  0.00     0.210 HD
ENDBRANCH  15  20
ENDBRANCH   8   9
ENDBRANCH   7   8
ENDBRANCH   2   7
BRANCH   6  22
HETATM   22  O   UNK     0       8.662  -2.482  25.615  0.00  0.00    -0.358 OA
BRANCH  22  23
HETATM   23  C   UNK     0       9.896  -3.131  25.356  0.00  0.00     0.175 C 
BRANCH  23  24
HETATM   24  C   UNK     0       9.745  -4.631  25.575  0.00  0.00     0.065 C 
BRANCH  24  25
HETATM   25  C   UNK     0      10.065  -5.428  24.335  0.00  0.00    -0.053 A 
HETATM   26  C   UNK     0      10.849  -4.867  23.328  0.00  0.00     0.046 A 
HETATM   27  C   UNK     0      11.146  -5.605  22.182  0.00  0.00     0.099 A 
HETATM   28  C   UNK     0      10.658  -6.904  22.043  0.00  0.00     0.098 A 
HETATM   29  C   UNK     0       9.874  -7.466  23.050  0.00  0.00     0.040 A 
HETATM   30  C   UNK     0       9.577  -6.729  24.196  0.00  0.00     0.010 A 
BRANCH  27  31
HETATM   31  O   UNK     0      11.915  -5.047  21.206  0.00  0.00    -0.358 OA
HETATM   32  H   UNK     0      12.846  -5.280  21.364  0.00  0.00     0.217 HD
ENDBRANCH  27  31
BRANCH  28  33
HETATM   33  O   UNK     0      10.942  -7.635  20.928  0.00  0.00    -0.358 OA
HETATM   34  H   UNK     0      10.363  -8.416  20.906  0.00  0.00     0.217 HD
ENDBRANCH  28  33
ENDBRANCH  24  25
ENDBRANCH  23  24
ENDBRANCH  22  23
ENDBRANCH   6  22
BRANCH   3  35
HETATM   35  O   UNK     0       8.801   2.020  22.428  0.00  0.00    -0.390 OA
HETATM   36  H   UNK     0       8.297   2.745  22.835  0.00  0.00     0.210 HD
ENDBRANCH   3  35
BRANCH   5  37
HETATM   37  O   UNK     0       6.860  -0.358  26.113  0.00  0.00    -0.388 OA
HETATM   38  H   UNK     0       7.049  -0.254  27.062  0.00  0.00     0.210 HD
ENDBRANCH   5  37
BRANCH   4  39
HETATM   39  O   UNK     0       7.918   2.227  25.173  0.00  0.00    -0.390 OA
HETATM   40  H   UNK     0       7.073   2.678  25.002  0.00  0.00     0.210 HD
ENDBRANCH   4  39
TORSDOF 15
ENDMDL
MODEL 3
REMARK VINA RESULT:      -8.0      1.860      8.244
REMARK  15 active torsions:
REMARK  status: ('A' for Active; 'I' for Inactive)
REMARK    1  A    between atoms: O_2  and  C_18 
REMARK    2  A    between atoms: O_2  and  C_22 
REMARK    3  A    between atoms: O_4  and  C_14 
REMARK    4  A    between atoms: O_5  and  C_21 
REMARK    5  A    between atoms: O_5  and  C_25 
REMARK    6  A    between atoms: O_6  and  C_15 
REMARK    7  A    between atoms: O_7  and  C_16 
REMARK    8  A    between atoms: O_8  and  C_17 
REMARK    9  A    between atoms: O_9  and  C_19 
REMARK   10  A    between atoms: O_10  and  C_20 
REMARK   11  A    between atoms: O_11  and  C_30 
REMARK   12  A    between atoms: O_12  and  C_32 
REMARK   13  A    between atoms: C_13  and  C_22 
REMARK   14  A    between atoms: C_25  and  C_26 
REMARK   15  A    between atoms: C_26  and  C_27 
ROOT
HETATM    1  O   UNK     0       9.435  -1.804  23.266  0.00  0.00    -0.348 OA
HETATM    2  C   UNK     0       8.870  -0.539  22.915  0.00  0.00     0.180 C 
HETATM    3  C   UNK     0       8.573   0.269  24.180  0.00  0.00     0.180 C 
HETATM    4  C   UNK     0       7.666  -0.517  25.127  0.00  0.00     0.183 C 
HETATM    5  C   UNK     0       8.193  -1.935  25.348  0.00  0.00     0.204 C 
HETATM    6  C   UNK     0       8.538  -2.613  24.023  0.00  0.00     0.291 C 
ENDROOT
BRANCH   2   7
HETATM    7  C   UNK     0       9.866   0.175  22.008  0.00  0.00     0.205 C 
BRANCH   7   8
HETATM    8  O   UNK     0       9.407   0.100  20.666  0.00  0.00    -0.356 OA
BRANCH   8   9
HETATM    9  C   UNK     0      10.395  -0.462  19.809  0.00  0.00     0.291 C 
HETATM   10  O   UNK     0      11.511   0.414  19.615  0.00  0.00    -0.351 OA
HETATM   11  C   UNK     0      11.188   1.636  18.943  0.00  0.00     0.152 C 
HETATM   12  C   UNK     0      10.595   1.361  17.553  0.00  0.00     0.178 C 
HETATM   13  C   UNK     0      12.474   2.455  18.865  0.00  0.00     0.042 C 
HETATM   14  C   UNK     0       9.398   0.418  17.670  0.00  0.00     0.183 C 
HETATM   15  C   UNK     0       9.763  -0.835  18.469  0.00  0.00     0.204 C 
BRANCH  12  16
HETATM   16  O   UNK     0      10.147   2.576  16.959  0.00  0.00    -0.390 OA
HETATM   17  H   UNK     0      10.067   3.244  17.662  0.00  0.00     0.210 HD
ENDBRANCH  12  16
BRANCH  14  18
HETATM   18  O   UNK     0       8.962   0.050  16.364  0.00  0.00    -0.390 OA
HETATM   19  H   UNK     0       8.350  -0.700  16.459  0.00  0.00     0.210 HD
ENDBRANCH  14  18
BRANCH  15  20
HETATM   20  O   UNK     0      10.713  -1.616  17.743  0.00  0.00    -0.388 OA
HETATM   21  H   UNK     0      11.215  -1.012  17.171  0.00  0.00     0.210 HD
ENDBRANCH  15  20
ENDBRANCH   8   9
ENDBRANCH   7   8
ENDBRANCH   2   7
BRANCH   6  22
HETATM   22  O   UNK     0       9.152  -3.868  24.318  0.00  0.00    -0.358 OA
BRANCH  22  23
HETATM   23  C   UNK     0      10.529  -3.709  24.620  0.00  0.00     0.175 C 
BRANCH  23  24
HETATM   24  C   UNK     0      11.350  -4.718  23.824  0.00  0.00     0.065 C 
BRANCH  24  25
HETATM   25  C   UNK     0      11.003  -6.144  24.172  0.00  0.00    -0.053 A 
HETATM   26  C   UNK     0      10.909  -6.533  25.508  0.00  0.00     0.046 A 
HETATM   27  C   UNK     0      10.586  -7.852  25.829  0.00  0.00     0.099 A 
HETATM   28  C   UNK     0      10.358  -8.781  24.815  0.00  0.00     0.098 A 
HETATM   29  C   UNK     0      10.452  -8.392  23.479  0.00  0.00     0.040 A 
HETATM   30  C   UNK     0      10.774  -7.074  23.157  0.00  0.00     0.010 A 
BRANCH  27  31
HETATM   31  O   UNK     0      10.495  -8.219  27.138  0.00  0.00    -0.358 OA
HETATM   32  H   UNK     0       9.949  -7.569  27.612  0.00  0.00     0.217 HD
ENDBRANCH  27  31
BRANCH  28  33
HETATM   33  O   UNK     0      10.042 -10.072  25.116  0.00  0.00    -0.358 OA
HETATM   34  H   UNK     0       9.407 -10.404  24.458  0.00  0.00     0.217 HD
ENDBRANCH  28  33
ENDBRANCH  24  25
ENDBRANCH  23  24
ENDBRANCH  22  23
ENDBRANCH   6  22
BRANCH   3  35
HETATM   35  O   UNK     0       7.934   1.490  23.820  0.00  0.00    -0.390 OA
HETATM   36  H   UNK     0       7.178   1.622  24.418  0.00  0.00     0.210 HD
ENDBRANCH   3  35
BRANCH   5  37
HETATM   37  O   UNK     0       7.193  -2.716  26.003  0.00  0.00    -0.388 OA
HETATM   38  H   UNK     0       7.526  -2.954  26.885  0.00  0.00     0.210 HD
ENDBRANCH   5  37
BRANCH   4  39
HETATM   39  O   UNK     0       7.624   0.175  26.376  0.00  0.00    -0.390 OA
HETATM   40  H   UNK     0       8.450   0.680  26.470  0.00  0.00     0.210 HD
ENDBRANCH   4  39
TORSDOF 15
ENDMDL
MODEL 4
REMARK VINA RESULT:      -7.8      1.830      7.535
REMARK  15 active torsions:
REMARK  status: ('A' for Active; 'I' for Inactive)
REMARK    1  A    between atoms: O_2  and  C_18 
REMARK    2  A    between atoms: O_2  and  C_22 
REMARK    3  A    between atoms: O_4  and  C_14 
REMARK    4  A    between atoms: O_5  and  C_21 
REMARK    5  A    between atoms: O_5  and  C_25 
REMARK    6  A    between atoms: O_6  and  C_15 
REMARK    7  A    between atoms: O_7  and  C_16 
REMARK    8  A    between atoms: O_8  and  C_17 
REMARK    9  A    between atoms: O_9  and  C_19 
REMARK   10  A    between atoms: O_10  and  C_20 
REMARK   11  A    between atoms: O_11  and  C_30 
REMARK   12  A    between atoms: O_12  and  C_32 
REMARK   13  A    between atoms: C_13  and  C_22 
REMARK   14  A    between atoms: C_25  and  C_26 
REMARK   15  A    between atoms: C_26  and  C_27 
ROOT
HETATM    1  O   UNK     0       9.522  -1.336  23.966  0.00  0.00    -0.348 OA
HETATM    2  C   UNK     0       9.432  -0.372  22.915  0.00  0.00     0.180 C 
HETATM    3  C   UNK     0       9.195   1.021  23.505  0.00  0.00     0.180 C 
HETATM    4  C   UNK     0       7.952   1.030  24.394  0.00  0.00     0.183 C 
HETATM    5  C   UNK     0       7.980  -0.123  25.396  0.00  0.00     0.204 C 
HETATM    6  C   UNK     0       8.312  -1.448  24.711  0.00  0.00     0.291 C 
ENDROOT
BRANCH   2   7
HETATM    7  C   UNK     0      10.732  -0.435  22.119  0.00  0.00     0.205 C 
BRANCH   7   8
HETATM    8  O   UNK     0      10.528   0.173  20.852  0.00  0.00    -0.356 OA
BRANCH   8   9
HETATM    9  C   UNK     0       9.514  -0.496  20.111  0.00  0.00     0.291 C 
HETATM   10  O   UNK     0       9.912  -1.809  19.702  0.00  0.00    -0.351 OA
HETATM   11  C   UNK     0      11.016  -1.830  18.790  0.00  0.00     0.152 C 
HETATM   12  C   UNK     0      10.688  -1.050  17.509  0.00  0.00     0.178 C 
HETATM   13  C   UNK     0      11.329  -3.297  18.503  0.00  0.00     0.042 C 
HETATM   14  C   UNK     0      10.238   0.369  17.859  0.00  0.00     0.183 C 
HETATM   15  C   UNK     0       9.117   0.347  18.900  0.00  0.00     0.204 C 
BRANCH  12  16
HETATM   16  O   UNK     0      11.841  -0.958  16.679  0.00  0.00    -0.390 OA
HETATM   17  H   UNK     0      12.619  -0.848  17.253  0.00  0.00     0.210 HD
ENDBRANCH  12  16
BRANCH  14  18
HETATM   18  O   UNK     0       9.788   1.024  16.675  0.00  0.00    -0.390 OA
HETATM   19  H   UNK     0       8.987   0.563  16.372  0.00  0.00     0.210 HD
ENDBRANCH  14  18
BRANCH  15  20
HETATM   20  O   UNK     0       7.939  -0.229  18.336  0.00  0.00    -0.388 OA
HETATM   21  H   UNK     0       7.893   0.047  17.405  0.00  0.00     0.210 HD
ENDBRANCH  15  20
ENDBRANCH   8   9
ENDBRANCH   7   8
ENDBRANCH   2   7
BRANCH   6  22
HETATM   22  O   UNK     0       8.460  -2.443  25.724  0.00  0.00    -0.358 OA
BRANCH  22  23
HETATM   23  C   UNK     0       8.476  -3.748  25.168  0.00  0.00     0.175 C 
BRANCH  23  24
HETATM   24  C   UNK     0       9.161  -4.710  26.132  0.00  0.00     0.065 C 
BRANCH  24  25
HETATM   25  C   UNK     0       9.766  -5.898  25.425  0.00  0.00    -0.053 A 
HETATM   26  C   UNK     0       9.516  -6.105  24.069  0.00  0.00     0.046 A 
HETATM   27  C   UNK     0      10.078  -7.202  23.416  0.00  0.00     0.099 A 
HETATM   28  C   UNK     0      10.889  -8.093  24.120  0.00  0.00     0.098 A 
HETATM   29  C   UNK     0      11.139  -7.886  25.476  0.00  0.00     0.040 A 
HETATM   30  C   UNK     0      10.578  -6.788  26.130  0.00  0.00     0.010 A 
BRANCH  27  31
HETATM   31  O   UNK     0       9.828  -7.393  22.091  0.00  0.00    -0.358 OA
HETATM   32  H   UNK     0       9.738  -8.347  21.920  0.00  0.00     0.217 HD
ENDBRANCH  27  31
BRANCH  28  33
HETATM   33  O   UNK     0      11.443  -9.169  23.493  0.00  0.00    -0.358 OA
HETATM   34  H   UNK     0      10.920  -9.376  22.699  0.00  0.00     0.217 HD
ENDBRANCH  28  33
ENDBRANCH  24  25
ENDBRANCH  23  24
ENDBRANCH  22  23
ENDBRANCH   6  22
BRANCH   3  35
HETATM   35  O   UNK     0       9.025   1.958  22.445  0.00  0.00    -0.390 OA
HETATM   36  H   UNK     0       9.859   2.004  21.947  0.00  0.00     0.210 HD
ENDBRANCH   3  35
BRANCH   5  37
HETATM   37  O   UNK     0       6.698  -0.247  26.012  0.00  0.00    -0.388 OA
HETATM   38  H   UNK     0       6.767   0.090  26.922  0.00  0.00     0.210 HD
ENDBRANCH   5  37
BRANCH   4  39
HETATM   39  O   UNK     0       7.922   2.273  25.099  0.00  0.00    -0.390 OA
HETATM   40  H   UNK     0       7.208   2.230  25.758  0.00  0.00     0.210 HD
ENDBRANCH   4  39
TORSDOF 15
ENDMDL
MODEL 5
REMARK VINA RESULT:      -7.7      1.915      8.311
REMARK  15 active torsions:
REMARK  status: ('A' for Active; 'I' for Inactive)
REMARK    1  A    between atoms: O_2  and  C_18 
REMARK    2  A    between atoms: O_2  and  C_22 
REMARK    3  A    between atoms: O_4  and  C_14 
REMARK    4  A    between atoms: O_5  and  C_21 
REMARK    5  A    between atoms: O_5  and  C_25 
REMARK    6  A    between atoms: O_6  and  C_15 
REMARK    7  A    between atoms: O_7  and  C_16 
REMARK    8  A    between atoms: O_8  and  C_17 
REMARK    9  A    between atoms: O_9  and  C_19 
REMARK   10  A    between atoms: O_10  and  C_20 
REMARK   11  A    between atoms: O_11  and  C_30 
REMARK   12  A    between atoms: O_12  and  C_32 
REMARK   13  A    between atoms: C_13  and  C_22 
REMARK   14  A    between atoms: C_25  and  C_26 
REMARK   15  A    between atoms: C_26  and  C_27 
ROOT
HETATM    1  O   UNK     0       9.709  -1.201  24.075  0.00  0.00    -0.348 OA
HETATM    2  C   UNK     0       9.471  -0.268  23.018  0.00  0.00     0.180 C 
HETATM    3  C   UNK     0       9.075   1.090  23.601  0.00  0.00     0.180 C 
HETATM    4  C   UNK     0       7.863   0.953  24.523  0.00  0.00     0.183 C 
HETATM    5  C   UNK     0       8.062  -0.175  25.534  0.00  0.00     0.204 C 
HETATM    6  C   UNK     0       8.541  -1.456  24.852  0.00  0.00     0.291 C 
ENDROOT
BRANCH   2   7
HETATM    7  C   UNK     0      10.748  -0.177  22.189  0.00  0.00     0.205 C 
BRANCH   7   8
HETATM    8  O   UNK     0      10.455   0.474  20.960  0.00  0.00    -0.356 OA
BRANCH   8   9
HETATM    9  C   UNK     0      11.324   0.037  19.921  0.00  0.00     0.291 C 
HETATM   10  O   UNK     0      12.675   0.465  20.122  0.00  0.00    -0.351 OA
HETATM   11  C   UNK     0      12.852   1.886  20.087  0.00  0.00     0.152 C 
HETATM   12  C   UNK     0      12.403   2.464  18.738  0.00  0.00     0.178 C 
HETATM   13  C   UNK     0      14.329   2.157  20.363  0.00  0.00     0.042 C 
HETATM   14  C   UNK     0      10.964   2.041  18.438  0.00  0.00     0.183 C 
HETATM   15  C   UNK     0      10.799   0.526  18.571  0.00  0.00     0.204 C 
BRANCH  12  16
HETATM   16  O   UNK     0      12.449   3.888  18.771  0.00  0.00    -0.390 OA
HETATM   17  H   UNK     0      11.699   4.201  19.305  0.00  0.00     0.210 HD
ENDBRANCH  12  16
BRANCH  14  18
HETATM   18  O   UNK     0      10.620   2.452  17.117  0.00  0.00    -0.390 OA
HETATM   19  H   UNK     0       9.744   2.082  16.913  0.00  0.00     0.210 HD
ENDBRANCH  14  18
BRANCH  15  20
HETATM   20  O   UNK     0      11.545  -0.137  17.549  0.00  0.00    -0.388 OA
HETATM   21  H   UNK     0      11.359  -1.089  17.620  0.00  0.00     0.210 HD
ENDBRANCH  15  20
ENDBRANCH   8   9
ENDBRANCH   7   8
ENDBRANCH   2   7
BRANCH   6  22
HETATM   22  O   UNK     0       8.840  -2.411  25.870  0.00  0.00    -0.358 OA
BRANCH  22  23
HETATM   23  C   UNK     0       8.082  -3.599  25.701  0.00  0.00     0.175 C 
BRANCH  23  24
HETATM   24  C   UNK     0       8.571  -4.349  24.467  0.00  0.00     0.065 C 
BRANCH  24  25
HETATM   25  C   UNK     0       9.352  -5.591  24.822  0.00  0.00    -0.053 A 
HETATM   26  C   UNK     0       9.503  -6.611  23.884  0.00  0.00     0.046 A 
HETATM   27  C   UNK     0      10.227  -7.758  24.211  0.00  0.00     0.099 A 
HETATM   28  C   UNK     0      10.798  -7.884  25.477  0.00  0.00     0.098 A 
HETATM   29  C   UNK     0      10.646  -6.864  26.415  0.00  0.00     0.040 A 
HETATM   30  C   UNK     0       9.924  -5.717  26.089  0.00  0.00     0.010 A 
BRANCH  27  31
HETATM   31  O   UNK     0      10.370  -8.747  23.286  0.00  0.00    -0.358 OA
HETATM   32  H   UNK     0       9.523  -8.874  22.825  0.00  0.00     0.217 HD
ENDBRANCH  27  31
BRANCH  28  33
HETATM   33  O   UNK     0      11.507  -9.000  25.809  0.00  0.00    -0.358 OA
HETATM   34  H   UNK     0      10.909  -9.641  26.230  0.00  0.00     0.217 HD
ENDBRANCH  28  33
ENDBRANCH  24  25
ENDBRANCH  23  24
ENDBRANCH  22  23
ENDBRANCH   6  22
BRANCH   3  35
HETATM   35  O   UNK     0       8.760   1.985  22.538  0.00  0.00    -0.390 OA
HETATM   36  H   UNK     0       8.739   2.887  22.900  0.00  0.00     0.210 HD
ENDBRANCH   3  35
BRANCH   5  37
HETATM   37  O   UNK     0       6.822  -0.453  26.185  0.00  0.00    -0.388 OA
HETATM   38  H   UNK     0       6.831  -1.384  26.466  0.00  0.00     0.210 HD
ENDBRANCH   5  37
BRANCH   4  39
HETATM   39  O   UNK     0       7.693   2.190  25.217  0.00  0.00    -0.390 OA
HETATM   40  H   UNK     0       7.760   2.014  26.171  0.00  0.00     0.210 HD
ENDBRANCH   4  39
TORSDOF 15
ENDMDL
MODEL 6
REMARK VINA RESULT:      -7.7      1.398      1.799
REMARK  15 active torsions:
REMARK  status: ('A' for Active; 'I' for Inactive)
REMARK    1  A    between atoms: O_2  and  C_18 
REMARK    2  A    between atoms: O_2  and  C_22 
REMARK    3  A    between atoms: O_4  and  C_14 
REMARK    4  A    between atoms: O_5  and  C_21 
REMARK    5  A    between atoms: O_5  and  C_25 
REMARK    6  A    between atoms: O_6  and  C_15 
REMARK    7  A    between atoms: O_7  and  C_16 
REMARK    8  A    between atoms: O_8  and  C_17 
REMARK    9  A    between atoms: O_9  and  C_19 
REMARK   10  A    between atoms: O_10  and  C_20 
REMARK   11  A    between atoms: O_11  and  C_30 
REMARK   12  A    between atoms: O_12  and  C_32 
REMARK   13  A    between atoms: C_13  and  C_22 
REMARK   14  A    between atoms: C_25  and  C_26 
REMARK   15  A    between atoms: C_26  and  C_27 
ROOT
HETATM    1  O   UNK     0      10.720  -0.553  23.231  0.00  0.00    -0.348 OA
HETATM    2  C   UNK     0      10.588  -0.856  24.621  0.00  0.00     0.180 C 
HETATM    3  C   UNK     0       9.122  -0.731  25.044  0.00  0.00     0.180 C 
HETATM    4  C   UNK     0       8.576   0.657  24.710  0.00  0.00     0.183 C 
HETATM    5  C   UNK     0       8.888   1.040  23.263  0.00  0.00     0.204 C 
HETATM    6  C   UNK     0      10.358   0.792  22.927  0.00  0.00     0.291 C 
ENDROOT
BRANCH   2   7
HETATM    7  C   UNK     0      11.121  -2.268  24.837  0.00  0.00     0.205 C 
BRANCH   7   8
HETATM    8  O   UNK     0      10.070  -3.198  24.615  0.00  0.00    -0.356 OA
BRANCH   8   9
HETATM    9  C   UNK     0      10.068  -4.226  25.600  0.00  0.00     0.291 C 
HETATM   10  O   UNK     0      11.059  -5.228  25.346  0.00  0.00    -0.351 OA
HETATM   11  C   UNK     0      10.848  -5.967  24.138  0.00  0.00     0.152 C 
HETATM   12  C   UNK     0       9.491  -6.684  24.160  0.00  0.00     0.178 C 
HETATM   13  C   UNK     0      12.011  -6.948  24.009  0.00  0.00     0.042 C 
HETATM   14  C   UNK     0       8.372  -5.681  24.440  0.00  0.00     0.183 C 
HETATM   15  C   UNK     0       8.678  -4.852  25.689  0.00  0.00     0.204 C 
BRANCH  12  16
HETATM   16  O   UNK     0       9.235  -7.294  22.898  0.00  0.00    -0.390 OA
HETATM   17  H   UNK     0       9.876  -6.940  22.257  0.00  0.00     0.210 HD
ENDBRANCH  12  16
BRANCH  14  18
HETATM   18  O   UNK     0       7.144  -6.384  24.613  0.00  0.00    -0.390 OA
HETATM   19  H   UNK     0       7.227  -7.237  24.153  0.00  0.00     0.210 HD
ENDBRANCH  14  18
BRANCH  15  20
HETATM   20  O   UNK     0       8.651  -5.689  26.847  0.00  0.00    -0.388 OA
HETATM   21  H   UNK     0       9.307  -5.342  27.475  0.00  0.00     0.210 HD
ENDBRANCH  15  20
ENDBRANCH   8   9
ENDBRANCH   7   8
ENDBRANCH   2   7
BRANCH   6  22
HETATM   22  O   UNK     0      10.537   1.036  21.532  0.00  0.00    -0.358 OA
BRANCH  22  23
HETATM   23  C   UNK     0      11.670   0.346  21.028  0.00  0.00     0.175 C 
BRANCH  23  24
HETATM   24  C   UNK     0      11.939   0.778  19.592  0.00  0.00     0.065 C 
BRANCH  24  25
HETATM   25  C   UNK     0      11.139  -0.020  18.592  0.00  0.00    -0.053 A 
HETATM   26  C   UNK     0      11.618  -1.246  18.133  0.00  0.00     0.046 A 
HETATM   27  C   UNK     0      10.876  -1.984  17.211  0.00  0.00     0.099 A 
HETATM   28  C   UNK     0       9.656  -1.495  16.747  0.00  0.00     0.098 A 
HETATM   29  C   UNK     0       9.176  -0.269  17.205  0.00  0.00     0.040 A 
HETATM   30  C   UNK     0       9.916   0.469  18.128  0.00  0.00     0.010 A 
BRANCH  27  31
HETATM   31  O   UNK     0      11.354  -3.182  16.772  0.00  0.00    -0.358 OA
HETATM   32  H   UNK     0      11.336  -3.193  15.799  0.00  0.00     0.217 HD
ENDBRANCH  27  31
BRANCH  28  33
HETATM   33  O   UNK     0       8.922  -2.207  15.845  0.00  0.00    -0.358 OA
HETATM   34  H   UNK     0       8.190  -1.653  15.525  0.00  0.00     0.217 HD
ENDBRANCH  28  33
ENDBRANCH  24  25
ENDBRANCH  23  24
ENDBRANCH  22  23
ENDBRANCH   6  22
BRANCH   3  35
HETATM   35  O   UNK     0       9.017  -0.954  26.448  0.00  0.00    -0.390 OA
HETATM   36  H   UNK     0       9.244  -0.124  26.902  0.00  0.00     0.210 HD
ENDBRANCH   3  35
BRANCH   5  37
HETATM   37  O   UNK     0       8.613   2.427  23.071  0.00  0.00    -0.388 OA
HETATM   38  H   UNK     0       8.206   2.535  22.194  0.00  0.00     0.210 HD
ENDBRANCH   5  37
BRANCH   4  39
HETATM   39  O   UNK     0       7.160   0.632  24.901  0.00  0.00    -0.390 OA
HETATM   40  H   UNK     0       6.885  -0.294  25.010  0.00  0.00     0.210 HD
ENDBRANCH   4  39
TORSDOF 15
ENDMDL
MODEL 7
REMARK VINA RESULT:      -7.7      3.602      7.030
REMARK  15 active torsions:
REMARK  status: ('A' for Active; 'I' for Inactive)
REMARK    1  A    between atoms: O_2  and  C_18 
REMARK    2  A    between atoms: O_2  and  C_22 
REMARK    3  A    between atoms: O_4  and  C_14 
REMARK    4  A    between atoms: O_5  and  C_21 
REMARK    5  A    between atoms: O_5  and  C_25 
REMARK    6  A    between atoms: O_6  and  C_15 
REMARK    7  A    between atoms: O_7  and  C_16 
REMARK    8  A    between atoms: O_8  and  C_17 
REMARK    9  A    between atoms: O_9  and  C_19 
REMARK   10  A    between atoms: O_10  and  C_20 
REMARK   11  A    between atoms: O_11  and  C_30 
REMARK   12  A    between atoms: O_12  and  C_32 
REMARK   13  A    between atoms: C_13  and  C_22 
REMARK   14  A    between atoms: C_25  and  C_26 
REMARK   15  A    between atoms: C_26  and  C_27 
ROOT
HETATM    1  O   UNK     0      10.936   1.010  19.841  0.00  0.00    -0.348 OA
HETATM    2  C   UNK     0       9.905   0.022  19.786  0.00  0.00     0.180 C 
HETATM    3  C   UNK     0       9.801  -0.545  18.369  0.00  0.00     0.180 C 
HETATM    4  C   UNK     0       9.572   0.573  17.351  0.00  0.00     0.183 C 
HETATM    5  C   UNK     0      10.575   1.709  17.544  0.00  0.00     0.204 C 
HETATM    6  C   UNK     0      10.659   2.135  19.009  0.00  0.00     0.291 C 
ENDROOT
BRANCH   2   7
HETATM    7  C   UNK     0      10.250  -1.059  20.804  0.00  0.00     0.205 C 
BRANCH   7   8
HETATM    8  O   UNK     0       9.368  -0.949  21.913  0.00  0.00    -0.356 OA
BRANCH   8   9
HETATM    9  C   UNK     0      10.084  -0.796  23.134  0.00  0.00     0.291 C 
HETATM   10  O   UNK     0       9.273  -1.071  24.281  0.00  0.00    -0.351 OA
HETATM   11  C   UNK     0       8.179  -0.164  24.456  0.00  0.00     0.152 C 
HETATM   12  C   UNK     0       8.678   1.280  24.605  0.00  0.00     0.178 C 
HETATM   13  C   UNK     0       7.406  -0.631  25.687  0.00  0.00     0.042 C 
HETATM   14  C   UNK     0       9.568   1.652  23.419  0.00  0.00     0.183 C 
HETATM   15  C   UNK     0      10.671   0.612  23.214  0.00  0.00     0.204 C 
BRANCH  12  16
HETATM   16  O   UNK     0       7.576   2.183  24.633  0.00  0.00    -0.390 OA
HETATM   17  H   UNK     0       7.858   2.990  25.097  0.00  0.00     0.210 HD
ENDBRANCH  12  16
BRANCH  14  18
HETATM   18  O   UNK     0      10.148   2.934  23.652  0.00  0.00    -0.390 OA
HETATM   19  H   UNK     0       9.486   3.476  24.115  0.00  0.00     0.210 HD
ENDBRANCH  14  18
BRANCH  15  20
HETATM   20  O   UNK     0      11.580   0.642  24.315  0.00  0.00    -0.388 OA
HETATM   21  H   UNK     0      12.389   0.178  24.042  0.00  0.00     0.210 HD
ENDBRANCH  15  20
ENDBRANCH   8   9
ENDBRANCH   7   8
ENDBRANCH   2   7
BRANCH   6  22
HETATM   22  O   UNK     0      11.711   3.093  19.129  0.00  0.00    -0.358 OA
BRANCH  22  23
HETATM   23  C   UNK     0      12.985   2.470  19.074  0.00  0.00     0.175 C 
BRANCH  23  24
HETATM   24  C   UNK     0      13.999   3.303  19.850  0.00  0.00     0.065 C 
BRANCH  24  25
HETATM   25  C   UNK     0      14.860   4.150  18.946  0.00  0.00    -0.053 A 
HETATM   26  C   UNK     0      14.350   5.324  18.395  0.00  0.00     0.046 A 
HETATM   27  C   UNK     0      15.148   6.107  17.561  0.00  0.00     0.099 A 
HETATM   28  C   UNK     0      16.455   5.715  17.277  0.00  0.00     0.098 A 
HETATM   29  C   UNK     0      16.966   4.540  17.828  0.00  0.00     0.040 A 
HETATM   30  C   UNK     0      16.169   3.757  18.663  0.00  0.00     0.010 A 
BRANCH  27  31
HETATM   31  O   UNK     0      14.638   7.254  17.030  0.00  0.00    -0.358 OA
HETATM   32  H   UNK     0      14.398   7.858  17.753  0.00  0.00     0.217 HD
ENDBRANCH  27  31
BRANCH  28  33
HETATM   33  O   UNK     0      17.244   6.472  16.463  0.00  0.00    -0.358 OA
HETATM   34  H   UNK     0      16.698   7.156  16.040  0.00  0.00     0.217 HD
ENDBRANCH  28  33
ENDBRANCH  24  25
ENDBRANCH  23  24
ENDBRANCH  22  23
ENDBRANCH   6  22
BRANCH   3  35
HETATM   35  O   UNK     0       8.716  -1.467  18.309  0.00  0.00    -0.390 OA
HETATM   36  H   UNK     0       8.635  -1.892  19.180  0.00  0.00     0.210 HD
ENDBRANCH   3  35
BRANCH   5  37
HETATM   37  O   UNK     0      10.165   2.839  16.773  0.00  0.00    -0.388 OA
HETATM   38  H   UNK     0       9.698   2.513  15.985  0.00  0.00     0.210 HD
ENDBRANCH   5  37
BRANCH   4  39
HETATM   39  O   UNK     0       9.726   0.018  16.043  0.00  0.00    -0.390 OA
HETATM   40  H   UNK     0      10.110   0.701  15.468  0.00  0.00     0.210 HD
ENDBRANCH   4  39
TORSDOF 15
ENDMDL
MODEL 8
REMARK VINA RESULT:      -7.6      3.048      6.818
REMARK  15 active torsions:
REMARK  status: ('A' for Active; 'I' for Inactive)
REMARK    1  A    between atoms: O_2  and  C_18 
REMARK    2  A    between atoms: O_2  and  C_22 
REMARK    3  A    between atoms: O_4  and  C_14 
REMARK    4  A    between atoms: O_5  and  C_21 
REMARK    5  A    between atoms: O_5  and  C_25 
REMARK    6  A    between atoms: O_6  and  C_15 
REMARK    7  A    between atoms: O_7  and  C_16 
REMARK    8  A    between atoms: O_8  and  C_17 
REMARK    9  A    between atoms: O_9  and  C_19 
REMARK   10  A    between atoms: O_10  and  C_20 
REMARK   11  A    between atoms: O_11  and  C_30 
REMARK   12  A    between atoms: O_12  and  C_32 
REMARK   13  A    between atoms: C_13  and  C_22 
REMARK   14  A    between atoms: C_25  and  C_26 
REMARK   15  A    between atoms: C_26  and  C_27 
ROOT
HETATM    1  O   UNK     0      10.852  -1.610  19.394  0.00  0.00    -0.348 OA
HETATM    2  C   UNK     0      10.820  -2.493  18.271  0.00  0.00     0.180 C 
HETATM    3  C   UNK     0      10.595  -1.693  16.985  0.00  0.00     0.180 C 
HETATM    4  C   UNK     0       9.322  -0.852  17.084  0.00  0.00     0.183 C 
HETATM    5  C   UNK     0       9.290  -0.050  18.384  0.00  0.00     0.204 C 
HETATM    6  C   UNK     0       9.614  -0.930  19.590  0.00  0.00     0.291 C 
ENDROOT
BRANCH   2   7
HETATM    7  C   UNK     0      12.144  -3.249  18.242  0.00  0.00     0.205 C 
BRANCH   7   8
HETATM    8  O   UNK     0      11.892  -4.631  18.452  0.00  0.00    -0.356 OA
BRANCH   8   9
HETATM    9  C   UNK     0      11.715  -4.923  19.834  0.00  0.00     0.291 C 
HETATM   10  O   UNK     0      12.955  -5.182  20.501  0.00  0.00    -0.351 OA
HETATM   11  C   UNK     0      13.640  -6.348  20.032  0.00  0.00     0.152 C 
HETATM   12  C   UNK     0      12.775  -7.604  20.206  0.00  0.00     0.178 C 
HETATM   13  C   UNK     0      14.948  -6.441  20.815  0.00  0.00     0.042 C 
HETATM   14  C   UNK     0      11.419  -7.405  19.529  0.00  0.00     0.183 C 
HETATM   15  C   UNK     0      10.760  -6.105  19.993  0.00  0.00     0.204 C 
BRANCH  12  16
HETATM   16  O   UNK     0      13.410  -8.728  19.604  0.00  0.00    -0.390 OA
HETATM   17  H   UNK     0      13.071  -9.533  20.033  0.00  0.00     0.210 HD
ENDBRANCH  12  16
BRANCH  14  18
HETATM   18  O   UNK     0      10.574  -8.513  19.834  0.00  0.00    -0.390 OA
HETATM   19  H   UNK     0       9.899  -8.568  19.137  0.00  0.00     0.210 HD
ENDBRANCH  14  18
BRANCH  15  20
HETATM   20  O   UNK     0      10.414  -6.201  21.376  0.00  0.00    -0.388 OA
HETATM   21  H   UNK     0       9.662  -5.605  21.533  0.00  0.00     0.210 HD
ENDBRANCH  15  20
ENDBRANCH   8   9
ENDBRANCH   7   8
ENDBRANCH   2   7
BRANCH   6  22
HETATM   22  O   UNK     0       9.704  -0.087  20.739  0.00  0.00    -0.358 OA
BRANCH  22  23
HETATM   23  C   UNK     0      10.742  -0.510  21.609  0.00  0.00     0.175 C 
BRANCH  23  24
HETATM   24  C   UNK     0      10.461  -0.016  23.024  0.00  0.00     0.065 C 
BRANCH  24  25
HETATM   25  C   UNK     0       9.517  -0.924  23.773  0.00  0.00    -0.053 A 
HETATM   26  C   UNK     0       8.587  -0.384  24.661  0.00  0.00     0.046 A 
HETATM   27  C   UNK     0       7.713  -1.223  25.352  0.00  0.00     0.099 A 
HETATM   28  C   UNK     0       7.770  -2.603  25.155  0.00  0.00     0.098 A 
HETATM   29  C   UNK     0       8.700  -3.143  24.267  0.00  0.00     0.040 A 
HETATM   30  C   UNK     0       9.573  -2.304  23.575  0.00  0.00     0.010 A 
BRANCH  27  31
HETATM   31  O   UNK     0       6.808  -0.684  26.215  0.00  0.00    -0.358 OA
HETATM   32  H   UNK     0       7.285  -0.218  26.924  0.00  0.00     0.217 HD
ENDBRANCH  27  31
BRANCH  28  33
HETATM   33  O   UNK     0       6.922  -3.434  25.824  0.00  0.00    -0.358 OA
HETATM   34  H   UNK     0       7.132  -3.403  26.773  0.00  0.00     0.217 HD
ENDBRANCH  28  33
ENDBRANCH  24  25
ENDBRANCH  23  24
ENDBRANCH  22  23
ENDBRANCH   6  22
BRANCH   3  35
HETATM   35  O   UNK     0      10.483  -2.592  15.885  0.00  0.00    -0.390 OA
HETATM   36  H   UNK     0       9.850  -3.289  16.130  0.00  0.00     0.210 HD
ENDBRANCH   3  35
BRANCH   5  37
HETATM   37  O   UNK     0       7.985   0.499  18.570  0.00  0.00    -0.388 OA
HETATM   38  H   UNK     0       7.854   1.198  17.905  0.00  0.00     0.210 HD
ENDBRANCH   5  37
BRANCH   4  39
HETATM   39  O   UNK     0       9.297   0.043  15.971  0.00  0.00    -0.390 OA
HETATM   40  H   UNK     0       8.968   0.904  16.282  0.00  0.00     0.210 HD
ENDBRANCH   4  39
TORSDOF 15
ENDMDL
MODEL 9
REMARK VINA RESULT:      -7.6      2.549      7.627
REMARK  15 active torsions:
REMARK  status: ('A' for Active; 'I' for Inactive)
REMARK    1  A    between atoms: O_2  and  C_18 
REMARK    2  A    between atoms: O_2  and  C_22 
REMARK    3  A    between atoms: O_4  and  C_14 
REMARK    4  A    between atoms: O_5  and  C_21 
REMARK    5  A    between atoms: O_5  and  C_25 
REMARK    6  A    between atoms: O_6  and  C_15 
REMARK    7  A    between atoms: O_7  and  C_16 
REMARK    8  A    between atoms: O_8  and  C_17 
REMARK    9  A    between atoms: O_9  and  C_19 
REMARK   10  A    between atoms: O_10  and  C_20 
REMARK   11  A    between atoms: O_11  and  C_30 
REMARK   12  A    between atoms: O_12  and  C_32 
REMARK   13  A    between atoms: C_13  and  C_22 
REMARK   14  A    between atoms: C_25  and  C_26 
REMARK   15  A    between atoms: C_26  and  C_27 
ROOT
HETATM    1  O   UNK     0      10.451  -3.576  24.518  0.00  0.00    -0.348 OA
HETATM    2  C   UNK     0       9.118  -3.063  24.482  0.00  0.00     0.180 C 
HETATM    3  C   UNK     0       8.359  -3.494  25.739  0.00  0.00     0.180 C 
HETATM    4  C   UNK     0       8.379  -5.015  25.891  0.00  0.00     0.183 C 
HETATM    5  C   UNK     0       9.797  -5.567  25.745  0.00  0.00     0.204 C 
HETATM    6  C   UNK     0      10.488  -5.001  24.505  0.00  0.00     0.291 C 
ENDROOT
BRANCH   2   7
HETATM    7  C   UNK     0       9.212  -1.545  24.372  0.00  0.00     0.205 C 
BRANCH   7   8
HETATM    8  O   UNK     0       9.566  -1.199  23.040  0.00  0.00    -0.356 OA
BRANCH   8   9
HETATM    9  C   UNK     0       9.549   0.211  22.847  0.00  0.00     0.291 C 
HETATM   10  O   UNK     0       9.516   0.572  21.462  0.00  0.00    -0.351 OA
HETATM   11  C   UNK     0      10.679   0.180  20.725  0.00  0.00     0.152 C 
HETATM   12  C   UNK     0      11.946   0.816  21.316  0.00  0.00     0.178 C 
HETATM   13  C   UNK     0      10.450   0.601  19.275  0.00  0.00     0.042 C 
HETATM   14  C   UNK     0      12.052   0.487  22.805  0.00  0.00     0.183 C 
HETATM   15  C   UNK     0      10.757   0.841  23.538  0.00  0.00     0.204 C 
BRANCH  12  16
HETATM   16  O   UNK     0      13.104   0.303  20.664  0.00  0.00    -0.390 OA
HETATM   17  H   UNK     0      13.864   0.852  20.925  0.00  0.00     0.210 HD
ENDBRANCH  12  16
BRANCH  14  18
HETATM   18  O   UNK     0      13.142   1.213  23.369  0.00  0.00    -0.390 OA
HETATM   19  H   UNK     0      13.138   2.102  22.974  0.00  0.00     0.210 HD
ENDBRANCH  14  18
BRANCH  15  20
HETATM   20  O   UNK     0      10.568   2.257  23.538  0.00  0.00    -0.388 OA
HETATM   21  H   UNK     0       9.991   2.477  24.289  0.00  0.00     0.210 HD
ENDBRANCH  15  20
ENDBRANCH   8   9
ENDBRANCH   7   8
ENDBRANCH   2   7
BRANCH   6  22
HETATM   22  O   UNK     0      11.845  -5.448  24.516  0.00  0.00    -0.358 OA
BRANCH  22  23
HETATM   23  C   UNK     0      12.353  -5.586  23.199  0.00  0.00     0.175 C 
BRANCH  23  24
HETATM   24  C   UNK     0      12.713  -7.044  22.936  0.00  0.00     0.065 C 
BRANCH  24  25
HETATM   25  C   UNK     0      12.037  -7.588  21.702  0.00  0.00    -0.053 A 
HETATM   26  C   UNK     0      12.270  -8.903  21.301  0.00  0.00     0.046 A 
HETATM   27  C   UNK     0      11.644  -9.407  20.161  0.00  0.00     0.099 A 
HETATM   28  C   UNK     0      10.785  -8.595  19.421  0.00  0.00     0.098 A 
HETATM   29  C   UNK     0      10.551  -7.280  19.822  0.00  0.00     0.040 A 
HETATM   30  C   UNK     0      11.176  -6.776  20.962  0.00  0.00     0.010 A 
BRANCH  27  31
HETATM   31  O   UNK     0      11.878 -10.694  19.781  0.00  0.00    -0.358 OA
HETATM   32  H   UNK     0      11.027 -11.137  19.621  0.00  0.00     0.217 HD
ENDBRANCH  27  31
BRANCH  28  33
HETATM   33  O   UNK     0      10.167  -9.075  18.305  0.00  0.00    -0.358 OA
HETATM   34  H   UNK     0       9.204  -9.006  18.422  0.00  0.00     0.217 HD
ENDBRANCH  28  33
ENDBRANCH  24  25
ENDBRANCH  23  24
ENDBRANCH  22  23
ENDBRANCH   6  22
BRANCH   3  35
HETATM   35  O   UNK     0       7.009  -3.047  25.651  0.00  0.00    -0.390 OA
HETATM   36  H   UNK     0       6.915  -2.262  26.217  0.00  0.00     0.210 HD
ENDBRANCH   3  35
BRANCH   5  37
HETATM   37  O   UNK     0       9.742  -6.988  25.617  0.00  0.00    -0.388 OA
HETATM   38  H   UNK     0      10.156  -7.378  26.406  0.00  0.00     0.210 HD
ENDBRANCH   5  37
BRANCH   4  39
HETATM   39  O   UNK     0       7.875  -5.337  27.189  0.00  0.00    -0.390 OA
HETATM   40  H   UNK     0       7.751  -4.506  27.680  0.00  0.00     0.210 HD
ENDBRANCH   4  39
TORSDOF 15
ENDMDL
MODEL 10
REMARK VINA RESULT:      -7.4      2.611      7.835
REMARK  15 active torsions:
REMARK  status: ('A' for Active; 'I' for Inactive)
REMARK    1  A    between atoms: O_2  and  C_18 
REMARK    2  A    between atoms: O_2  and  C_22 
REMARK    3  A    between atoms: O_4  and  C_14 
REMARK    4  A    between atoms: O_5  and  C_21 
REMARK    5  A    between atoms: O_5  and  C_25 
REMARK    6  A    between atoms: O_6  and  C_15 
REMARK    7  A    between atoms: O_7  and  C_16 
REMARK    8  A    between atoms: O_8  and  C_17 
REMARK    9  A    between atoms: O_9  and  C_19 
REMARK   10  A    between atoms: O_10  and  C_20 
REMARK   11  A    between atoms: O_11  and  C_30 
REMARK   12  A    between atoms: O_12  and  C_32 
REMARK   13  A    between atoms: C_13  and  C_22 
REMARK   14  A    between atoms: C_25  and  C_26 
REMARK   15  A    between atoms: C_26  and  C_27 
ROOT
HETATM    1  O   UNK     0      11.916   1.164  20.690  0.00  0.00    -0.348 OA
HETATM    2  C   UNK     0      11.752   2.337  19.891  0.00  0.00     0.180 C 
HETATM    3  C   UNK     0      13.078   2.698  19.218  0.00  0.00     0.180 C 
HETATM    4  C   UNK     0      14.187   2.868  20.257  0.00  0.00     0.183 C 
HETATM    5  C   UNK     0      14.228   1.682  21.219  0.00  0.00     0.204 C 
HETATM    6  C   UNK     0      12.837   1.356  21.761  0.00  0.00     0.291 C 
ENDROOT
BRANCH   2   7
HETATM    7  C   UNK     0      10.659   2.048  18.868  0.00  0.00     0.205 C 
BRANCH   7   8
HETATM    8  O   UNK     0      11.025   0.903  18.110  0.00  0.00    -0.356 OA
BRANCH   8   9
HETATM    9  C   UNK     0       9.901   0.068  17.853  0.00  0.00     0.291 C 
HETATM   10  O   UNK     0       9.604  -0.802  18.951  0.00  0.00    -0.351 OA
HETATM   11  C   UNK     0      10.632  -1.757  19.237  0.00  0.00     0.152 C 
HETATM   12  C   UNK     0      10.901  -2.657  18.022  0.00  0.00     0.178 C 
HETATM   13  C   UNK     0      10.168  -2.559  20.451  0.00  0.00     0.042 C 
HETATM   14  C   UNK     0      11.217  -1.801  16.795  0.00  0.00     0.183 C 
HETATM   15  C   UNK     0      10.139  -0.738  16.577  0.00  0.00     0.204 C 
BRANCH  12  16
HETATM   16  O   UNK     0      12.020  -3.502  18.274  0.00  0.00    -0.390 OA
HETATM   17  H   UNK     0      12.529  -3.119  19.009  0.00  0.00     0.210 HD
ENDBRANCH  12  16
BRANCH  14  18
HETATM   18  O   UNK     0      11.307  -2.642  15.648  0.00  0.00    -0.390 OA
HETATM   19  H   UNK     0      12.249  -2.726  15.419  0.00  0.00     0.210 HD
ENDBRANCH  14  18
BRANCH  15  20
HETATM   20  O   UNK     0       8.904  -1.361  16.220  0.00  0.00    -0.388 OA
HETATM   21  H   UNK     0       9.094  -2.014  15.526  0.00  0.00     0.210 HD
ENDBRANCH  15  20
ENDBRANCH   8   9
ENDBRANCH   7   8
ENDBRANCH   2   7
BRANCH   6  22
HETATM   22  O   UNK     0      12.935   0.159  22.534  0.00  0.00    -0.358 OA
BRANCH  22  23
HETATM   23  C   UNK     0      11.652  -0.370  22.831  0.00  0.00     0.175 C 
BRANCH  23  24
HETATM   24  C   UNK     0      11.301  -0.082  24.286  0.00  0.00     0.065 C 
BRANCH  24  25
HETATM   25  C   UNK     0      10.234  -1.008  24.814  0.00  0.00    -0.053 A 
HETATM   26  C   UNK     0       9.006  -0.494  25.229  0.00  0.00     0.046 A 
HETATM   27  C   UNK     0       8.019  -1.351  25.715  0.00  0.00     0.099 A 
HETATM   28  C   UNK     0       8.260  -2.723  25.787  0.00  0.00     0.098 A 
HETATM   29  C   UNK     0       9.488  -3.237  25.372  0.00  0.00     0.040 A 
HETATM   30  C   UNK     0      10.475  -2.381  24.885  0.00  0.00     0.010 A 
BRANCH  27  31
HETATM   31  O   UNK     0       6.822  -0.837  26.115  0.00  0.00    -0.358 OA
HETATM   32  H   UNK     0       6.817  -0.766  27.085  0.00  0.00     0.217 HD
ENDBRANCH  27  31
BRANCH  28  33
HETATM   33  O   UNK     0       7.303  -3.570  26.260  0.00  0.00    -0.358 OA
HETATM   34  H   UNK     0       7.642  -4.019  27.054  0.00  0.00     0.217 HD
ENDBRANCH  28  33
ENDBRANCH  24  25
ENDBRANCH  23  24
ENDBRANCH  22  23
ENDBRANCH   6  22
BRANCH   3  35
HETATM   35  O   UNK     0      12.921   3.914  18.492  0.00  0.00    -0.390 OA
HETATM   36  H   UNK     0      12.463   3.710  17.659  0.00  0.00     0.210 HD
ENDBRANCH   3  35
BRANCH   5  37
HETATM   37  O   UNK     0      15.075   1.997  22.324  0.00  0.00    -0.388 OA
HETATM   38  H   UNK     0      15.646   1.228  22.496  0.00  0.00     0.210 HD
ENDBRANCH   5  37
BRANCH   4  39
HETATM   39  O   UNK     0      15.432   2.961  19.562  0.00  0.00    -0.390 OA
HETATM   40  H   UNK     0      15.766   2.059  19.417  0.00  0.00     0.210 HD
ENDBRANCH   4  39
TORSDOF 15
ENDMDL
