MODEL 1
REMARK VINA RESULT:      -6.7      0.000      0.000
REMARK  4 active torsions:
REMARK  status: ('A' for Active; 'I' for Inactive)
REMARK    1  A    between atoms: O_2  and  C_9 
REMARK    2  A    between atoms: O_3  and  C_11 
REMARK    3  A    between atoms: O_4  and  C_14 
REMARK    4  A    between atoms: C_8  and  C_13 
ROOT
HETATM    1  O   UNK     0       9.790  -0.035  21.357  0.00  0.00    -0.306 OA
HETATM    2  O   UNK     0      13.028   1.978  22.793  0.00  0.00    -0.287 OA
HETATM    3  C   UNK     0      11.625   1.505  20.952  0.00  0.00     0.084 A 
HETATM    4  C   UNK     0      10.508   0.789  20.526  0.00  0.00     0.129 A 
HETATM    5  C   UNK     0      10.202  -0.164  22.675  0.00  0.00     0.090 A 
HETATM    6  C   UNK     0      10.073   0.894  19.204  0.00  0.00     0.136 A 
HETATM    7  C   UNK     0      12.058   1.377  22.351  0.00  0.00     0.190 A 
HETATM    8  C   UNK     0      12.317   2.329  20.062  0.00  0.00     0.085 A 
HETATM    9  C   UNK     0      11.255   0.477  23.203  0.00  0.00     0.094 A 
HETATM   10  C   UNK     0      10.762   1.716  18.311  0.00  0.00     0.104 A 
HETATM   11  C   UNK     0      11.881   2.432  18.740  0.00  0.00     0.077 A 
ENDROOT
BRANCH   5  12
HETATM   12  C   UNK     0       9.357  -1.069  23.481  0.00  0.00    -0.002 A 
HETATM   13  C   UNK     0       9.323  -2.436  23.197  0.00  0.00     0.014 A 
HETATM   14  C   UNK     0       8.526  -3.291  23.958  0.00  0.00     0.001 A 
HETATM   15  C   UNK     0       7.761  -2.780  25.007  0.00  0.00     0.000 A 
HETATM   16  C   UNK     0       7.792  -1.416  25.294  0.00  0.00     0.001 A 
HETATM   17  C   UNK     0       8.589  -0.561  24.532  0.00  0.00     0.014 A 
ENDBRANCH   5  12
BRANCH   6  18
HETATM   18  O   UNK     0       8.981   0.197  18.780  0.00  0.00    -0.351 OA
HETATM   19  C   UNK     0       9.223  -0.993  18.032  0.00  0.00     0.210 C 
ENDBRANCH   6  18
BRANCH   8  20
HETATM   20  O   UNK     0      13.413   3.049  20.429  0.00  0.00    -0.360 OA
HETATM   21  H   UNK     0      13.150   3.849  20.908  0.00  0.00     0.217 HD
ENDBRANCH   8  20
BRANCH  10  22
HETATM   22  O   UNK     0      10.352   1.829  17.018  0.00  0.00    -0.358 OA
HETATM   23  H   UNK     0      11.078   1.556  16.430  0.00  0.00     0.217 HD
ENDBRANCH  10  22
TORSDOF 4
ENDMDL
MODEL 2
REMARK VINA RESULT:      -6.6      2.453      6.498
REMARK  4 active torsions:
REMARK  status: ('A' for Active; 'I' for Inactive)
REMARK    1  A    between atoms: O_2  and  C_9 
REMARK    2  A    between atoms: O_3  and  C_11 
REMARK    3  A    between atoms: O_4  and  C_14 
REMARK    4  A    between atoms: C_8  and  C_13 
ROOT
HETATM    1  O   UNK     0       9.264  -0.255  22.059  0.00  0.00    -0.306 OA
HETATM    2  O   UNK     0      10.484  -4.113  22.540  0.00  0.00    -0.287 OA
HETATM    3  C   UNK     0       9.483  -2.199  23.499  0.00  0.00     0.084 A 
HETATM    4  C   UNK     0       9.089  -0.883  23.267  0.00  0.00     0.129 A 
HETATM    5  C   UNK     0       9.868  -0.961  21.030  0.00  0.00     0.090 A 
HETATM    6  C   UNK     0       8.484  -0.145  24.285  0.00  0.00     0.136 A 
HETATM    7  C   UNK     0      10.115  -2.954  22.407  0.00  0.00     0.190 A 
HETATM    8  C   UNK     0       9.279  -2.788  24.749  0.00  0.00     0.085 A 
HETATM    9  C   UNK     0      10.284  -2.233  21.129  0.00  0.00     0.094 A 
HETATM   10  C   UNK     0       8.278  -0.729  25.536  0.00  0.00     0.104 A 
HETATM   11  C   UNK     0       8.674  -2.048  25.767  0.00  0.00     0.077 A 
ENDROOT
BRANCH   5  12
HETATM   12  C   UNK     0      10.003  -0.194  19.775  0.00  0.00    -0.002 A 
HETATM   13  C   UNK     0       9.191  -0.494  18.678  0.00  0.00     0.014 A 
HETATM   14  C   UNK     0       9.317   0.230  17.494  0.00  0.00     0.001 A 
HETATM   15  C   UNK     0      10.256   1.258  17.401  0.00  0.00     0.000 A 
HETATM   16  C   UNK     0      11.069   1.560  18.493  0.00  0.00     0.001 A 
HETATM   17  C   UNK     0      10.942   0.835  19.679  0.00  0.00     0.014 A 
ENDBRANCH   5  12
BRANCH   6  18
HETATM   18  O   UNK     0       8.094   1.143  24.066  0.00  0.00    -0.351 OA
HETATM   19  C   UNK     0       9.095   2.151  24.189  0.00  0.00     0.210 C 
ENDBRANCH   6  18
BRANCH   8  20
HETATM   20  O   UNK     0       9.646  -4.069  25.025  0.00  0.00    -0.360 OA
HETATM   21  H   UNK     0      10.140  -4.449  24.284  0.00  0.00     0.217 HD
ENDBRANCH   8  20
BRANCH  10  22
HETATM   22  O   UNK     0       7.690  -0.023  26.541  0.00  0.00    -0.358 OA
HETATM   23  H   UNK     0       7.722   0.925  26.323  0.00  0.00     0.217 HD
ENDBRANCH  10  22
TORSDOF 4
ENDMDL
MODEL 3
REMARK VINA RESULT:      -6.6      2.181      5.785
REMARK  4 active torsions:
REMARK  status: ('A' for Active; 'I' for Inactive)
REMARK    1  A    between atoms: O_2  and  C_9 
REMARK    2  A    between atoms: O_3  and  C_11 
REMARK    3  A    between atoms: O_4  and  C_14 
REMARK    4  A    between atoms: C_8  and  C_13 
ROOT
HETATM    1  O   UNK     0       9.713  -1.116  21.094  0.00  0.00    -0.306 OA
HETATM    2  O   UNK     0      10.088   2.865  21.871  0.00  0.00    -0.287 OA
HETATM    3  C   UNK     0       9.655   0.698  22.708  0.00  0.00     0.084 A 
HETATM    4  C   UNK     0       9.542  -0.650  22.374  0.00  0.00     0.129 A 
HETATM    5  C   UNK     0      10.002  -0.203  20.092  0.00  0.00     0.090 A 
HETATM    6  C   UNK     0       9.246  -1.591  23.360  0.00  0.00     0.136 A 
HETATM    7  C   UNK     0       9.971   1.668  21.649  0.00  0.00     0.190 A 
HETATM    8  C   UNK     0       9.472   1.117  24.028  0.00  0.00     0.085 A 
HETATM    9  C   UNK     0      10.142   1.117  20.290  0.00  0.00     0.094 A 
HETATM   10  C   UNK     0       9.062  -1.178  24.680  0.00  0.00     0.104 A 
HETATM   11  C   UNK     0       9.176   0.173  25.013  0.00  0.00     0.077 A 
ENDROOT
BRANCH   5  12
HETATM   12  C   UNK     0      10.170  -0.812  18.756  0.00  0.00    -0.002 A 
HETATM   13  C   UNK     0      11.350  -1.487  18.436  0.00  0.00     0.014 A 
HETATM   14  C   UNK     0      11.509  -2.062  17.177  0.00  0.00     0.001 A 
HETATM   15  C   UNK     0      10.488  -1.964  16.231  0.00  0.00     0.000 A 
HETATM   16  C   UNK     0       9.308  -1.291  16.547  0.00  0.00     0.001 A 
HETATM   17  C   UNK     0       9.149  -0.716  17.808  0.00  0.00     0.014 A 
ENDBRANCH   5  12
BRANCH   6  18
HETATM   18  O   UNK     0       9.135  -2.912  23.041  0.00  0.00    -0.351 OA
HETATM   19  C   UNK     0      10.316  -3.704  23.143  0.00  0.00     0.210 C 
ENDBRANCH   6  18
BRANCH   8  20
HETATM   20  O   UNK     0       9.573   2.421  24.405  0.00  0.00    -0.360 OA
HETATM   21  H   UNK     0       9.282   2.533  25.323  0.00  0.00     0.217 HD
ENDBRANCH   8  20
BRANCH  10  22
HETATM   22  O   UNK     0       8.772  -2.084  25.655  0.00  0.00    -0.358 OA
HETATM   23  H   UNK     0       7.881  -2.443  25.499  0.00  0.00     0.217 HD
ENDBRANCH  10  22
TORSDOF 4
ENDMDL
MODEL 4
REMARK VINA RESULT:      -6.5      3.111      5.098
REMARK  4 active torsions:
REMARK  status: ('A' for Active; 'I' for Inactive)
REMARK    1  A    between atoms: O_2  and  C_9 
REMARK    2  A    between atoms: O_3  and  C_11 
REMARK    3  A    between atoms: O_4  and  C_14 
REMARK    4  A    between atoms: C_8  and  C_13 
ROOT
HETATM    1  O   UNK     0      10.270  -1.867  24.289  0.00  0.00    -0.306 OA
HETATM    2  O   UNK     0       6.865  -0.388  25.969  0.00  0.00    -0.287 OA
HETATM    3  C   UNK     0       8.784   0.021  24.653  0.00  0.00     0.084 A 
HETATM    4  C   UNK     0       9.933  -0.549  24.106  0.00  0.00     0.129 A 
HETATM    5  C   UNK     0       9.433  -2.661  25.058  0.00  0.00     0.090 A 
HETATM    6  C   UNK     0      10.796   0.227  23.333  0.00  0.00     0.136 A 
HETATM    7  C   UNK     0       7.890  -0.821  25.461  0.00  0.00     0.190 A 
HETATM    8  C   UNK     0       8.491   1.368  24.433  0.00  0.00     0.085 A 
HETATM    9  C   UNK     0       8.299  -2.231  25.631  0.00  0.00     0.094 A 
HETATM   10  C   UNK     0      10.507   1.575  23.111  0.00  0.00     0.104 A 
HETATM   11  C   UNK     0       9.357   2.143  23.660  0.00  0.00     0.077 A 
ENDROOT
BRANCH   5  12
HETATM   12  C   UNK     0       9.886  -4.061  25.186  0.00  0.00    -0.002 A 
HETATM   13  C   UNK     0      10.849  -4.570  24.311  0.00  0.00     0.014 A 
HETATM   14  C   UNK     0      11.277  -5.891  24.431  0.00  0.00     0.001 A 
HETATM   15  C   UNK     0      10.744  -6.709  25.428  0.00  0.00     0.000 A 
HETATM   16  C   UNK     0       9.783  -6.205  26.304  0.00  0.00     0.001 A 
HETATM   17  C   UNK     0       9.355  -4.883  26.183  0.00  0.00     0.014 A 
ENDBRANCH   5  12
BRANCH   6  18
HETATM   18  O   UNK     0      11.922  -0.323  22.794  0.00  0.00    -0.351 OA
HETATM   19  C   UNK     0      13.122  -0.220  23.558  0.00  0.00     0.210 C 
ENDBRANCH   6  18
BRANCH   8  20
HETATM   20  O   UNK     0       7.382   1.971  24.945  0.00  0.00    -0.360 OA
HETATM   21  H   UNK     0       6.929   2.486  24.261  0.00  0.00     0.217 HD
ENDBRANCH   8  20
BRANCH  10  22
HETATM   22  O   UNK     0      11.340   2.346  22.359  0.00  0.00    -0.358 OA
HETATM   23  H   UNK     0      11.847   1.774  21.757  0.00  0.00     0.217 HD
ENDBRANCH  10  22
TORSDOF 4
ENDMDL
MODEL 5
REMARK VINA RESULT:      -6.2      1.363      3.382
REMARK  4 active torsions:
REMARK  status: ('A' for Active; 'I' for Inactive)
REMARK    1  A    between atoms: O_2  and  C_9 
REMARK    2  A    between atoms: O_3  and  C_11 
REMARK    3  A    between atoms: O_4  and  C_14 
REMARK    4  A    between atoms: C_8  and  C_13 
ROOT
HETATM    1  O   UNK     0      11.107  -0.147  22.129  0.00  0.00    -0.306 OA
HETATM    2  O   UNK     0       9.393  -1.205  18.588  0.00  0.00    -0.287 OA
HETATM    3  C   UNK     0      10.797   0.290  19.760  0.00  0.00     0.084 A 
HETATM    4  C   UNK     0      11.352   0.596  21.002  0.00  0.00     0.129 A 
HETATM    5  C   UNK     0      10.264  -1.243  22.027  0.00  0.00     0.090 A 
HETATM    6  C   UNK     0      12.198   1.697  21.136  0.00  0.00     0.136 A 
HETATM    7  C   UNK     0       9.911  -0.877  19.647  0.00  0.00     0.190 A 
HETATM    8  C   UNK     0      11.083   1.081  18.645  0.00  0.00     0.085 A 
HETATM    9  C   UNK     0       9.677  -1.642  20.889  0.00  0.00     0.094 A 
HETATM   10  C   UNK     0      12.486   2.491  20.025  0.00  0.00     0.104 A 
HETATM   11  C   UNK     0      11.929   2.183  18.782  0.00  0.00     0.077 A 
ENDROOT
BRANCH   5  12
HETATM   12  C   UNK     0      10.074  -1.974  23.297  0.00  0.00    -0.002 A 
HETATM   13  C   UNK     0      10.573  -3.270  23.444  0.00  0.00     0.014 A 
HETATM   14  C   UNK     0      10.395  -3.959  24.642  0.00  0.00     0.001 A 
HETATM   15  C   UNK     0       9.716  -3.354  25.700  0.00  0.00     0.000 A 
HETATM   16  C   UNK     0       9.216  -2.060  25.559  0.00  0.00     0.001 A 
HETATM   17  C   UNK     0       9.395  -1.370  24.359  0.00  0.00     0.014 A 
ENDBRANCH   5  12
BRANCH   6  18
HETATM   18  O   UNK     0      12.745   2.002  22.347  0.00  0.00    -0.351 OA
HETATM   19  C   UNK     0      14.042   1.477  22.622  0.00  0.00     0.210 C 
ENDBRANCH   6  18
BRANCH   8  20
HETATM   20  O   UNK     0      10.567   0.824  17.411  0.00  0.00    -0.360 OA
HETATM   21  H   UNK     0      11.051   0.102  16.984  0.00  0.00     0.217 HD
ENDBRANCH   8  20
BRANCH  10  22
HETATM   22  O   UNK     0      13.309   3.569  20.139  0.00  0.00    -0.358 OA
HETATM   23  H   UNK     0      13.492   3.730  21.081  0.00  0.00     0.217 HD
ENDBRANCH  10  22
TORSDOF 4
ENDMDL
MODEL 6
REMARK VINA RESULT:      -6.2      3.965      7.528
REMARK  4 active torsions:
REMARK  status: ('A' for Active; 'I' for Inactive)
REMARK    1  A    between atoms: O_2  and  C_9 
REMARK    2  A    between atoms: O_3  and  C_11 
REMARK    3  A    between atoms: O_4  and  C_14 
REMARK    4  A    between atoms: C_8  and  C_13 
ROOT
HETATM    1  O   UNK     0      10.417  -3.368  23.267  0.00  0.00    -0.306 OA
HETATM    2  O   UNK     0       7.205  -3.362  25.774  0.00  0.00    -0.287 OA
HETATM    3  C   UNK     0       9.234  -4.387  25.128  0.00  0.00     0.084 A 
HETATM    4  C   UNK     0      10.306  -4.331  24.239  0.00  0.00     0.129 A 
HETATM    5  C   UNK     0       9.413  -2.418  23.162  0.00  0.00     0.090 A 
HETATM    6  C   UNK     0      11.328  -5.277  24.317  0.00  0.00     0.136 A 
HETATM    7  C   UNK     0       8.173  -3.375  25.026  0.00  0.00     0.190 A 
HETATM    8  C   UNK     0       9.174  -5.389  26.099  0.00  0.00     0.085 A 
HETATM    9  C   UNK     0       8.337  -2.363  23.962  0.00  0.00     0.094 A 
HETATM   10  C   UNK     0      11.272  -6.281  25.285  0.00  0.00     0.104 A 
HETATM   11  C   UNK     0      10.197  -6.336  26.174  0.00  0.00     0.077 A 
ENDROOT
BRANCH   5  12
HETATM   12  C   UNK     0       9.635  -1.428  22.088  0.00  0.00    -0.002 A 
HETATM   13  C   UNK     0       9.892  -1.854  20.783  0.00  0.00     0.014 A 
HETATM   14  C   UNK     0      10.100  -0.921  19.769  0.00  0.00     0.001 A 
HETATM   15  C   UNK     0      10.052   0.444  20.056  0.00  0.00     0.000 A 
HETATM   16  C   UNK     0       9.795   0.874  21.358  0.00  0.00     0.001 A 
HETATM   17  C   UNK     0       9.587  -0.061  22.372  0.00  0.00     0.014 A 
ENDBRANCH   5  12
BRANCH   6  18
HETATM   18  O   UNK     0      12.380  -5.229  23.451  0.00  0.00    -0.351 OA
HETATM   19  C   UNK     0      12.252  -5.962  22.235  0.00  0.00     0.210 C 
ENDBRANCH   6  18
BRANCH   8  20
HETATM   20  O   UNK     0       8.149  -5.487  26.990  0.00  0.00    -0.360 OA
HETATM   21  H   UNK     0       8.141  -4.722  27.585  0.00  0.00     0.217 HD
ENDBRANCH   8  20
BRANCH  10  22
HETATM   22  O   UNK     0      12.260  -7.214  25.373  0.00  0.00    -0.358 OA
HETATM   23  H   UNK     0      12.896  -6.938  26.057  0.00  0.00     0.217 HD
ENDBRANCH  10  22
TORSDOF 4
ENDMDL
MODEL 7
REMARK VINA RESULT:      -6.2      5.256      6.793
REMARK  4 active torsions:
REMARK  status: ('A' for Active; 'I' for Inactive)
REMARK    1  A    between atoms: O_2  and  C_9 
REMARK    2  A    between atoms: O_3  and  C_11 
REMARK    3  A    between atoms: O_4  and  C_14 
REMARK    4  A    between atoms: C_8  and  C_13 
ROOT
HETATM    1  O   UNK     0       9.872  -4.472  23.394  0.00  0.00    -0.306 OA
HETATM    2  O   UNK     0      13.256  -2.534  24.574  0.00  0.00    -0.287 OA
HETATM    3  C   UNK     0      10.902  -2.701  24.699  0.00  0.00     0.084 A 
HETATM    4  C   UNK     0       9.786  -3.408  24.257  0.00  0.00     0.129 A 
HETATM    5  C   UNK     0      11.125  -4.852  22.938  0.00  0.00     0.090 A 
HETATM    6  C   UNK     0       8.512  -3.045  24.694  0.00  0.00     0.136 A 
HETATM    7  C   UNK     0      12.233  -3.108  24.225  0.00  0.00     0.190 A 
HETATM    8  C   UNK     0      10.755  -1.627  25.579  0.00  0.00     0.085 A 
HETATM    9  C   UNK     0      12.272  -4.255  23.296  0.00  0.00     0.094 A 
HETATM   10  C   UNK     0       8.359  -1.972  25.573  0.00  0.00     0.104 A 
HETATM   11  C   UNK     0       9.479  -1.264  26.014  0.00  0.00     0.077 A 
ENDROOT
BRANCH   5  12
HETATM   12  C   UNK     0      11.104  -6.009  22.020  0.00  0.00    -0.002 A 
HETATM   13  C   UNK     0      11.060  -7.309  22.530  0.00  0.00     0.014 A 
HETATM   14  C   UNK     0      11.040  -8.401  21.664  0.00  0.00     0.001 A 
HETATM   15  C   UNK     0      11.062  -8.198  20.284  0.00  0.00     0.000 A 
HETATM   16  C   UNK     0      11.105  -6.902  19.771  0.00  0.00     0.001 A 
HETATM   17  C   UNK     0      11.126  -5.809  20.637  0.00  0.00     0.014 A 
ENDBRANCH   5  12
BRANCH   6  18
HETATM   18  O   UNK     0       7.414  -3.733  24.266  0.00  0.00    -0.351 OA
HETATM   19  C   UNK     0       7.109  -4.950  24.943  0.00  0.00     0.210 C 
ENDBRANCH   6  18
BRANCH   8  20
HETATM   20  O   UNK     0      11.814  -0.905  26.040  0.00  0.00    -0.360 OA
HETATM   21  H   UNK     0      11.541  -0.327  26.768  0.00  0.00     0.217 HD
ENDBRANCH   8  20
BRANCH  10  22
HETATM   22  O   UNK     0       7.123  -1.604  26.008  0.00  0.00    -0.358 OA
HETATM   23  H   UNK     0       7.115  -1.605  26.981  0.00  0.00     0.217 HD
ENDBRANCH  10  22
TORSDOF 4
ENDMDL
MODEL 8
REMARK VINA RESULT:      -6.2      4.035      6.926
REMARK  4 active torsions:
REMARK  status: ('A' for Active; 'I' for Inactive)
REMARK    1  A    between atoms: O_2  and  C_9 
REMARK    2  A    between atoms: O_3  and  C_11 
REMARK    3  A    between atoms: O_4  and  C_14 
REMARK    4  A    between atoms: C_8  and  C_13 
ROOT
HETATM    1  O   UNK     0       9.311  -2.880  24.550  0.00  0.00    -0.306 OA
HETATM    2  O   UNK     0      10.772  -3.368  20.778  0.00  0.00    -0.287 OA
HETATM    3  C   UNK     0      10.351  -4.325  22.897  0.00  0.00     0.084 A 
HETATM    4  C   UNK     0       9.834  -4.091  24.170  0.00  0.00     0.129 A 
HETATM    5  C   UNK     0       9.305  -1.845  23.628  0.00  0.00     0.090 A 
HETATM    6  C   UNK     0       9.832  -5.111  25.121  0.00  0.00     0.136 A 
HETATM    7  C   UNK     0      10.337  -3.232  21.914  0.00  0.00     0.190 A 
HETATM    8  C   UNK     0      10.871  -5.578  22.565  0.00  0.00     0.085 A 
HETATM    9  C   UNK     0       9.766  -1.949  22.372  0.00  0.00     0.094 A 
HETATM   10  C   UNK     0      10.351  -6.365  24.794  0.00  0.00     0.104 A 
HETATM   11  C   UNK     0      10.869  -6.598  23.518  0.00  0.00     0.077 A 
ENDROOT
BRANCH   5  12
HETATM   12  C   UNK     0       8.715  -0.591  24.138  0.00  0.00    -0.002 A 
HETATM   13  C   UNK     0       9.109   0.638  23.604  0.00  0.00     0.014 A 
HETATM   14  C   UNK     0       8.552   1.823  24.085  0.00  0.00     0.001 A 
HETATM   15  C   UNK     0       7.599   1.782  25.102  0.00  0.00     0.000 A 
HETATM   16  C   UNK     0       7.202   0.557  25.638  0.00  0.00     0.001 A 
HETATM   17  C   UNK     0       7.760  -0.628  25.157  0.00  0.00     0.014 A 
ENDBRANCH   5  12
BRANCH   6  18
HETATM   18  O   UNK     0       9.328  -4.891  26.369  0.00  0.00    -0.351 OA
HETATM   19  C   UNK     0       7.919  -5.039  26.532  0.00  0.00     0.210 C 
ENDBRANCH   6  18
BRANCH   8  20
HETATM   20  O   UNK     0      11.386  -5.856  21.336  0.00  0.00    -0.360 OA
HETATM   21  H   UNK     0      12.316  -6.117  21.408  0.00  0.00     0.217 HD
ENDBRANCH   8  20
BRANCH  10  22
HETATM   22  O   UNK     0      10.358  -7.372  25.711  0.00  0.00    -0.358 OA
HETATM   23  H   UNK     0       9.756  -8.076  25.414  0.00  0.00     0.217 HD
ENDBRANCH  10  22
TORSDOF 4
ENDMDL
MODEL 9
REMARK VINA RESULT:      -6.1      2.912      6.637
REMARK  4 active torsions:
REMARK  status: ('A' for Active; 'I' for Inactive)
REMARK    1  A    between atoms: O_2  and  C_9 
REMARK    2  A    between atoms: O_3  and  C_11 
REMARK    3  A    between atoms: O_4  and  C_14 
REMARK    4  A    between atoms: C_8  and  C_13 
ROOT
HETATM    1  O   UNK     0      10.097  -2.320  21.960  0.00  0.00    -0.306 OA
HETATM    2  O   UNK     0       8.589   0.515  24.468  0.00  0.00    -0.287 OA
HETATM    3  C   UNK     0       9.305  -1.718  24.177  0.00  0.00     0.084 A 
HETATM    4  C   UNK     0       9.822  -2.638  23.267  0.00  0.00     0.129 A 
HETATM    5  C   UNK     0       9.840  -1.028  21.528  0.00  0.00     0.090 A 
HETATM    6  C   UNK     0      10.085  -3.947  23.671  0.00  0.00     0.136 A 
HETATM    7  C   UNK     0       9.040  -0.344  23.724  0.00  0.00     0.190 A 
HETATM    8  C   UNK     0       9.045  -2.097  25.495  0.00  0.00     0.085 A 
HETATM    9  C   UNK     0       9.350  -0.053  22.309  0.00  0.00     0.094 A 
HETATM   10  C   UNK     0       9.827  -4.331  24.988  0.00  0.00     0.104 A 
HETATM   11  C   UNK     0       9.308  -3.408  25.898  0.00  0.00     0.077 A 
ENDROOT
BRANCH   5  12
HETATM   12  C   UNK     0      10.176  -0.792  20.109  0.00  0.00    -0.002 A 
HETATM   13  C   UNK     0      10.253   0.511  19.613  0.00  0.00     0.014 A 
HETATM   14  C   UNK     0      10.571   0.734  18.274  0.00  0.00     0.001 A 
HETATM   15  C   UNK     0      10.813  -0.346  17.426  0.00  0.00     0.000 A 
HETATM   16  C   UNK     0      10.738  -1.649  17.917  0.00  0.00     0.001 A 
HETATM   17  C   UNK     0      10.419  -1.872  19.257  0.00  0.00     0.014 A 
ENDBRANCH   5  12
BRANCH   6  18
HETATM   18  O   UNK     0      10.592  -4.853  22.788  0.00  0.00    -0.351 OA
HETATM   19  C   UNK     0      12.003  -5.060  22.810  0.00  0.00     0.210 C 
ENDBRANCH   6  18
BRANCH   8  20
HETATM   20  O   UNK     0       8.541  -1.236  26.421  0.00  0.00    -0.360 OA
HETATM   21  H   UNK     0       8.195  -0.439  25.992  0.00  0.00     0.217 HD
ENDBRANCH   8  20
BRANCH  10  22
HETATM   22  O   UNK     0      10.077  -5.605  25.399  0.00  0.00    -0.358 OA
HETATM   23  H   UNK     0       9.343  -5.907  25.962  0.00  0.00     0.217 HD
ENDBRANCH  10  22
TORSDOF 4
ENDMDL
MODEL 10
REMARK VINA RESULT:      -6.1      3.247      6.006
REMARK  4 active torsions:
REMARK  status: ('A' for Active; 'I' for Inactive)
REMARK    1  A    between atoms: O_2  and  C_9 
REMARK    2  A    between atoms: O_3  and  C_11 
REMARK    3  A    between atoms: O_4  and  C_14 
REMARK    4  A    between atoms: C_8  and  C_13 
ROOT
HETATM    1  O   UNK     0      10.035  -2.514  23.279  0.00  0.00    -0.306 OA
HETATM    2  O   UNK     0       7.322  -3.544  26.139  0.00  0.00    -0.287 OA
HETATM    3  C   UNK     0       8.260  -1.842  24.794  0.00  0.00     0.084 A 
HETATM    4  C   UNK     0       9.208  -1.558  23.813  0.00  0.00     0.129 A 
HETATM    5  C   UNK     0       9.925  -3.816  23.743  0.00  0.00     0.090 A 
HETATM    6  C   UNK     0       9.346  -0.256  23.331  0.00  0.00     0.136 A 
HETATM    7  C   UNK     0       8.134  -3.223  25.282  0.00  0.00     0.190 A 
HETATM    8  C   UNK     0       7.444  -0.829  25.302  0.00  0.00     0.085 A 
HETATM    9  C   UNK     0       9.048  -4.214  24.677  0.00  0.00     0.094 A 
HETATM   10  C   UNK     0       8.533   0.760  23.836  0.00  0.00     0.104 A 
HETATM   11  C   UNK     0       7.584   0.474  24.819  0.00  0.00     0.077 A 
ENDROOT
BRANCH   5  12
HETATM   12  C   UNK     0      10.857  -4.764  23.097  0.00  0.00    -0.002 A 
HETATM   13  C   UNK     0      10.969  -4.800  21.706  0.00  0.00     0.014 A 
HETATM   14  C   UNK     0      11.849  -5.693  21.096  0.00  0.00     0.001 A 
HETATM   15  C   UNK     0      12.620  -6.554  21.876  0.00  0.00     0.000 A 
HETATM   16  C   UNK     0      12.511  -6.522  23.266  0.00  0.00     0.001 A 
HETATM   17  C   UNK     0      11.631  -5.628  23.876  0.00  0.00     0.014 A 
ENDBRANCH   5  12
BRANCH   6  18
HETATM   18  O   UNK     0      10.271   0.029  22.371  0.00  0.00    -0.351 OA
HETATM   19  C   UNK     0       9.836  -0.035  21.014  0.00  0.00     0.210 C 
ENDBRANCH   6  18
BRANCH   8  20
HETATM   20  O   UNK     0       6.503  -1.055  26.259  0.00  0.00    -0.360 OA
HETATM   21  H   UNK     0       5.751  -1.541  25.890  0.00  0.00     0.217 HD
ENDBRANCH   8  20
BRANCH  10  22
HETATM   22  O   UNK     0       8.656   2.036  23.377  0.00  0.00    -0.358 OA
HETATM   23  H   UNK     0       8.240   2.099  22.499  0.00  0.00     0.217 HD
ENDBRANCH  10  22
TORSDOF 4
ENDMDL
