MODEL 1
REMARK VINA RESULT:      -6.2      0.000      0.000
REMARK  7 active torsions:
REMARK  status: ('A' for Active; 'I' for Inactive)
REMARK    1  A    between atoms: O_2  and  C_10 
REMARK    2  A    between atoms: O_3  and  C_11 
REMARK    3  A    between atoms: O_4  and  C_14 
REMARK    4  A    between atoms: O_6  and  N_9 
REMARK    5  A    between atoms: N_7  and  C_12 
REMARK    6  A    between atoms: N_9  and  C_18 
REMARK    7  A    between atoms: C_13  and  C_14 
ROOT
HETATM    1  O   UNK     0      11.218  -1.443  22.321  0.00  0.00    -0.353 OA
HETATM    2  C   UNK     0      10.336   0.569  23.209  0.00  0.00     0.198 C 
HETATM    3  C   UNK     0      10.381  -0.468  24.311  0.00  0.00     0.182 C 
HETATM    4  C   UNK     0      11.296  -0.014  22.188  0.00  0.00     0.264 C 
HETATM    5  C   UNK     0      10.486  -1.767  23.523  0.00  0.00     0.179 C 
ENDROOT
BRANCH   4   6
HETATM    6  N   UNK     0      10.953   0.348  20.843  0.00  0.00    -0.278 N 
HETATM    7  C   UNK     0      10.165  -0.518  20.101  0.00  0.00     0.102 A 
HETATM    8  C   UNK     0       9.797  -0.262  18.847  0.00  0.00     0.070 A 
HETATM    9  C   UNK     0      10.279   1.017  18.265  0.00  0.00     0.153 A 
HETATM   10  N   UNK     0      11.024   1.844  18.951  0.00  0.00    -0.174 NA
HETATM   11  C   UNK     0      11.394   1.561  20.255  0.00  0.00     0.352 A 
HETATM   12  O   UNK     0      12.094   2.353  20.887  0.00  0.00    -0.244 OA
BRANCH   9  13
HETATM   13  N   UNK     0       9.923   1.319  16.971  0.00  0.00    -0.251 N 
HETATM   14  H   UNK     0       9.492   0.695  16.299  0.00  0.00     0.196 HD
BRANCH  13  15
HETATM   15  O   UNK     0      10.104   2.632  16.648  0.00  0.00    -0.288 OA
HETATM   16  H   UNK     0      11.051   2.754  16.825  0.00  0.00     0.244 HD
ENDBRANCH  13  15
ENDBRANCH   9  13
ENDBRANCH   4   6
BRANCH   5  17
HETATM   17  C   UNK     0       9.132  -2.334  23.115  0.00  0.00     0.198 C 
BRANCH  17  18
HETATM   18  O   UNK     0       9.304  -3.121  21.950  0.00  0.00    -0.398 OA
HETATM   19  H   UNK     0       9.893  -2.626  21.355  0.00  0.00     0.209 HD
ENDBRANCH  17  18
ENDBRANCH   5  17
BRANCH   2  20
HETATM   20  O   UNK     0      10.732   1.848  23.660  0.00  0.00    -0.388 OA
HETATM   21  H   UNK     0      11.401   2.182  23.039  0.00  0.00     0.210 HD
ENDBRANCH   2  20
BRANCH   3  22
HETATM   22  O   UNK     0      11.576  -0.322  25.079  0.00  0.00    -0.390 OA
HETATM   23  H   UNK     0      12.068   0.450  24.756  0.00  0.00     0.210 HD
ENDBRANCH   3  22
TORSDOF 7
ENDMDL
MODEL 2
REMARK VINA RESULT:      -6.2      2.657      3.152
REMARK  7 active torsions:
REMARK  status: ('A' for Active; 'I' for Inactive)
REMARK    1  A    between atoms: O_2  and  C_10 
REMARK    2  A    between atoms: O_3  and  C_11 
REMARK    3  A    between atoms: O_4  and  C_14 
REMARK    4  A    between atoms: O_6  and  N_9 
REMARK    5  A    between atoms: N_7  and  C_12 
REMARK    6  A    between atoms: N_9  and  C_18 
REMARK    7  A    between atoms: C_13  and  C_14 
ROOT
HETATM    1  O   UNK     0       9.649  -0.323  25.056  0.00  0.00    -0.353 OA
HETATM    2  C   UNK     0       7.574   0.566  24.337  0.00  0.00     0.198 C 
HETATM    3  C   UNK     0       7.418   0.056  25.754  0.00  0.00     0.182 C 
HETATM    4  C   UNK     0       9.082   0.692  24.212  0.00  0.00     0.264 C 
HETATM    5  C   UNK     0       8.611  -0.881  25.889  0.00  0.00     0.179 C 
ENDROOT
BRANCH   4   6
HETATM    6  N   UNK     0       9.540   0.490  22.867  0.00  0.00    -0.278 N 
HETATM    7  C   UNK     0       9.530  -0.795  22.347  0.00  0.00     0.102 A 
HETATM    8  C   UNK     0       9.934  -1.075  21.110  0.00  0.00     0.070 A 
HETATM    9  C   UNK     0      10.408   0.074  20.295  0.00  0.00     0.153 A 
HETATM   10  N   UNK     0      10.425   1.291  20.770  0.00  0.00    -0.174 NA
HETATM   11  C   UNK     0       9.998   1.562  22.059  0.00  0.00     0.352 A 
HETATM   12  O   UNK     0      10.018   2.715  22.490  0.00  0.00    -0.244 OA
BRANCH   9  13
HETATM   13  N   UNK     0      10.837  -0.173  19.011  0.00  0.00    -0.251 N 
HETATM   14  H   UNK     0      10.332   0.021  18.154  0.00  0.00     0.196 HD
BRANCH  13  15
HETATM   15  O   UNK     0      12.120  -0.634  18.944  0.00  0.00    -0.288 OA
HETATM   16  H   UNK     0      12.421  -0.525  19.862  0.00  0.00     0.244 HD
ENDBRANCH  13  15
ENDBRANCH   9  13
ENDBRANCH   4   6
BRANCH   5  17
HETATM   17  C   UNK     0       8.322  -2.296  25.403  0.00  0.00     0.198 C 
BRANCH  17  18
HETATM   18  O   UNK     0       7.076  -2.711  25.932  0.00  0.00    -0.398 OA
HETATM   19  H   UNK     0       6.757  -3.441  25.374  0.00  0.00     0.209 HD
ENDBRANCH  17  18
ENDBRANCH   5  17
BRANCH   2  20
HETATM   20  O   UNK     0       6.907   1.795  24.133  0.00  0.00    -0.388 OA
HETATM   21  H   UNK     0       6.066   1.599  23.686  0.00  0.00     0.210 HD
ENDBRANCH   2  20
BRANCH   3  22
HETATM   22  O   UNK     0       7.590   1.124  26.686  0.00  0.00    -0.390 OA
HETATM   23  H   UNK     0       8.452   1.545  26.531  0.00  0.00     0.210 HD
ENDBRANCH   3  22
TORSDOF 7
ENDMDL
MODEL 3
REMARK VINA RESULT:      -6.1      3.709      6.833
REMARK  7 active torsions:
REMARK  status: ('A' for Active; 'I' for Inactive)
REMARK    1  A    between atoms: O_2  and  C_10 
REMARK    2  A    between atoms: O_3  and  C_11 
REMARK    3  A    between atoms: O_4  and  C_14 
REMARK    4  A    between atoms: O_6  and  N_9 
REMARK    5  A    between atoms: N_7  and  C_12 
REMARK    6  A    between atoms: N_9  and  C_18 
REMARK    7  A    between atoms: C_13  and  C_14 
ROOT
HETATM    1  O   UNK     0      10.863  -0.877  23.653  0.00  0.00    -0.353 OA
HETATM    2  C   UNK     0       9.608  -1.894  21.920  0.00  0.00     0.198 C 
HETATM    3  C   UNK     0       9.919  -0.467  21.520  0.00  0.00     0.182 C 
HETATM    4  C   UNK     0      10.628  -2.143  23.016  0.00  0.00     0.264 C 
HETATM    5  C   UNK     0      10.267   0.171  22.858  0.00  0.00     0.179 C 
ENDROOT
BRANCH   4   6
HETATM    6  N   UNK     0      10.160  -3.080  23.998  0.00  0.00    -0.278 N 
HETATM    7  C   UNK     0       8.860  -2.960  24.465  0.00  0.00     0.102 A 
HETATM    8  C   UNK     0       8.343  -3.785  25.374  0.00  0.00     0.070 A 
HETATM    9  C   UNK     0       9.238  -4.859  25.876  0.00  0.00     0.153 A 
HETATM   10  N   UNK     0      10.466  -4.986  25.446  0.00  0.00    -0.174 NA
HETATM   11  C   UNK     0      10.985  -4.119  24.499  0.00  0.00     0.352 A 
HETATM   12  O   UNK     0      12.143  -4.254  24.104  0.00  0.00    -0.244 OA
BRANCH   9  13
HETATM   13  N   UNK     0       8.742  -5.732  26.817  0.00  0.00    -0.251 N 
HETATM   14  H   UNK     0       9.238  -6.501  27.253  0.00  0.00     0.196 HD
BRANCH  13  15
HETATM   15  O   UNK     0       7.483  -5.419  27.240  0.00  0.00    -0.288 OA
HETATM   16  H   UNK     0       7.171  -4.837  26.527  0.00  0.00     0.244 HD
ENDBRANCH  13  15
ENDBRANCH   9  13
ENDBRANCH   4   6
BRANCH   5  17
HETATM   17  C   UNK     0       9.051   0.701  23.607  0.00  0.00     0.198 C 
BRANCH  17  18
HETATM   18  O   UNK     0       8.683   1.948  23.046  0.00  0.00    -0.398 OA
HETATM   19  H   UNK     0       8.894   2.631  23.705  0.00  0.00     0.209 HD
ENDBRANCH  17  18
ENDBRANCH   5  17
BRANCH   2  20
HETATM   20  O   UNK     0       9.739  -2.794  20.839  0.00  0.00    -0.388 OA
HETATM   21  H   UNK     0      10.599  -3.237  20.931  0.00  0.00     0.210 HD
ENDBRANCH   2  20
BRANCH   3  22
HETATM   22  O   UNK     0      11.085  -0.427  20.697  0.00  0.00    -0.390 OA
HETATM   23  H   UNK     0      11.871  -0.353  21.264  0.00  0.00     0.210 HD
ENDBRANCH   3  22
TORSDOF 7
ENDMDL
MODEL 4
REMARK VINA RESULT:      -6.0      1.653      2.664
REMARK  7 active torsions:
REMARK  status: ('A' for Active; 'I' for Inactive)
REMARK    1  A    between atoms: O_2  and  C_10 
REMARK    2  A    between atoms: O_3  and  C_11 
REMARK    3  A    between atoms: O_4  and  C_14 
REMARK    4  A    between atoms: O_6  and  N_9 
REMARK    5  A    between atoms: N_7  and  C_12 
REMARK    6  A    between atoms: N_9  and  C_18 
REMARK    7  A    between atoms: C_13  and  C_14 
ROOT
HETATM    1  O   UNK     0       9.493  -0.120  22.853  0.00  0.00    -0.353 OA
HETATM    2  C   UNK     0      11.818   0.339  22.827  0.00  0.00     0.198 C 
HETATM    3  C   UNK     0      11.337   0.357  24.262  0.00  0.00     0.182 C 
HETATM    4  C   UNK     0      10.699  -0.414  22.129  0.00  0.00     0.264 C 
HETATM    5  C   UNK     0       9.834   0.537  24.093  0.00  0.00     0.179 C 
ENDROOT
BRANCH   4   6
HETATM    6  N   UNK     0      10.533  -0.008  20.763  0.00  0.00    -0.278 N 
HETATM    7  C   UNK     0      10.938   1.265  20.393  0.00  0.00     0.102 A 
HETATM    8  C   UNK     0      10.823   1.725  19.149  0.00  0.00     0.070 A 
HETATM    9  C   UNK     0      10.229   0.794  18.154  0.00  0.00     0.153 A 
HETATM   10  N   UNK     0       9.843  -0.409  18.485  0.00  0.00    -0.174 NA
HETATM   11  C   UNK     0       9.972  -0.869  19.785  0.00  0.00     0.352 A 
HETATM   12  O   UNK     0       9.605  -2.007  20.080  0.00  0.00    -0.244 OA
BRANCH   9  13
HETATM   13  N   UNK     0      10.091   1.231  16.856  0.00  0.00    -0.251 N 
HETATM   14  H   UNK     0       9.900   0.661  16.041  0.00  0.00     0.196 HD
BRANCH  13  15
HETATM   15  O   UNK     0      10.130   2.590  16.732  0.00  0.00    -0.288 OA
HETATM   16  H   UNK     0      10.589   2.701  15.883  0.00  0.00     0.244 HD
ENDBRANCH  13  15
ENDBRANCH   9  13
ENDBRANCH   4   6
BRANCH   5  17
HETATM   17  C   UNK     0       9.412   1.997  23.986  0.00  0.00     0.198 C 
BRANCH  17  18
HETATM   18  O   UNK     0       8.043   2.047  23.626  0.00  0.00    -0.398 OA
HETATM   19  H   UNK     0       7.990   2.491  22.762  0.00  0.00     0.209 HD
ENDBRANCH  17  18
ENDBRANCH   5  17
BRANCH   2  20
HETATM   20  O   UNK     0      13.071  -0.299  22.689  0.00  0.00    -0.388 OA
HETATM   21  H   UNK     0      13.026  -1.140  23.175  0.00  0.00     0.210 HD
ENDBRANCH   2  20
BRANCH   3  22
HETATM   22  O   UNK     0      11.560  -0.913  24.875  0.00  0.00    -0.390 OA
HETATM   23  H   UNK     0      12.396  -1.281  24.545  0.00  0.00     0.210 HD
ENDBRANCH   3  22
TORSDOF 7
ENDMDL
MODEL 5
REMARK VINA RESULT:      -6.0      2.649      5.593
REMARK  7 active torsions:
REMARK  status: ('A' for Active; 'I' for Inactive)
REMARK    1  A    between atoms: O_2  and  C_10 
REMARK    2  A    between atoms: O_3  and  C_11 
REMARK    3  A    between atoms: O_4  and  C_14 
REMARK    4  A    between atoms: O_6  and  N_9 
REMARK    5  A    between atoms: N_7  and  C_12 
REMARK    6  A    between atoms: N_9  and  C_18 
REMARK    7  A    between atoms: C_13  and  C_14 
ROOT
HETATM    1  O   UNK     0      10.350  -2.242  18.653  0.00  0.00    -0.353 OA
HETATM    2  C   UNK     0       9.933  -0.345  17.297  0.00  0.00     0.198 C 
HETATM    3  C   UNK     0      10.148  -1.544  16.399  0.00  0.00     0.182 C 
HETATM    4  C   UNK     0       9.626  -1.000  18.631  0.00  0.00     0.264 C 
HETATM    5  C   UNK     0      10.858  -2.517  17.330  0.00  0.00     0.179 C 
ENDROOT
BRANCH   4   6
HETATM    6  N   UNK     0      10.043  -0.198  19.746  0.00  0.00    -0.278 N 
HETATM    7  C   UNK     0      10.661   1.018  19.496  0.00  0.00     0.102 A 
HETATM    8  C   UNK     0      11.078   1.827  20.468  0.00  0.00     0.070 A 
HETATM    9  C   UNK     0      10.849   1.359  21.860  0.00  0.00     0.153 A 
HETATM   10  N   UNK     0      10.269   0.216  22.112  0.00  0.00    -0.174 NA
HETATM   11  C   UNK     0       9.840  -0.610  21.087  0.00  0.00     0.352 A 
HETATM   12  O   UNK     0       9.293  -1.684  21.344  0.00  0.00    -0.244 OA
BRANCH   9  13
HETATM   13  N   UNK     0      11.267   2.165  22.894  0.00  0.00    -0.251 N 
HETATM   14  H   UNK     0      12.222   2.319  23.195  0.00  0.00     0.196 HD
BRANCH  13  15
HETATM   15  O   UNK     0      10.258   2.879  23.471  0.00  0.00    -0.288 OA
HETATM   16  H   UNK     0      10.573   3.792  23.369  0.00  0.00     0.244 HD
ENDBRANCH  13  15
ENDBRANCH   9  13
ENDBRANCH   4   6
BRANCH   5  17
HETATM   17  C   UNK     0      12.370  -2.330  17.355  0.00  0.00     0.198 C 
BRANCH  17  18
HETATM   18  O   UNK     0      12.816  -2.074  16.036  0.00  0.00    -0.398 OA
HETATM   19  H   UNK     0      13.415  -2.800  15.790  0.00  0.00     0.209 HD
ENDBRANCH  17  18
ENDBRANCH   5  17
BRANCH   2  20
HETATM   20  O   UNK     0       8.881   0.484  16.843  0.00  0.00    -0.388 OA
HETATM   21  H   UNK     0       9.277   1.315  16.534  0.00  0.00     0.210 HD
ENDBRANCH   2  20
BRANCH   3  22
HETATM   22  O   UNK     0       8.893  -2.121  16.035  0.00  0.00    -0.390 OA
HETATM   23  H   UNK     0       8.228  -1.878  16.700  0.00  0.00     0.210 HD
ENDBRANCH   3  22
TORSDOF 7
ENDMDL
MODEL 6
REMARK VINA RESULT:      -6.0      3.526      5.330
REMARK  7 active torsions:
REMARK  status: ('A' for Active; 'I' for Inactive)
REMARK    1  A    between atoms: O_2  and  C_10 
REMARK    2  A    between atoms: O_3  and  C_11 
REMARK    3  A    between atoms: O_4  and  C_14 
REMARK    4  A    between atoms: O_6  and  N_9 
REMARK    5  A    between atoms: N_7  and  C_12 
REMARK    6  A    between atoms: N_9  and  C_18 
REMARK    7  A    between atoms: C_13  and  C_14 
ROOT
HETATM    1  O   UNK     0      10.324  -3.461  25.490  0.00  0.00    -0.353 OA
HETATM    2  C   UNK     0       7.984  -3.715  25.225  0.00  0.00     0.198 C 
HETATM    3  C   UNK     0       8.586  -5.069  25.537  0.00  0.00     0.182 C 
HETATM    4  C   UNK     0       9.079  -2.769  25.683  0.00  0.00     0.264 C 
HETATM    5  C   UNK     0      10.055  -4.849  25.201  0.00  0.00     0.179 C 
ENDROOT
BRANCH   4   6
HETATM    6  N   UNK     0       9.102  -1.549  24.928  0.00  0.00    -0.278 N 
HETATM    7  C   UNK     0      10.009  -1.427  23.887  0.00  0.00     0.102 A 
HETATM    8  C   UNK     0      10.098  -0.333  23.134  0.00  0.00     0.070 A 
HETATM    9  C   UNK     0       9.165   0.775  23.466  0.00  0.00     0.153 A 
HETATM   10  N   UNK     0       8.305   0.677  24.444  0.00  0.00    -0.174 NA
HETATM   11  C   UNK     0       8.226  -0.471  25.215  0.00  0.00     0.352 A 
HETATM   12  O   UNK     0       7.407  -0.548  26.132  0.00  0.00    -0.244 OA
BRANCH   9  13
HETATM   13  N   UNK     0       9.227   1.925  22.712  0.00  0.00    -0.251 N 
HETATM   14  H   UNK     0       8.579   2.211  21.988  0.00  0.00     0.196 HD
BRANCH  13  15
HETATM   15  O   UNK     0      10.227   2.772  23.092  0.00  0.00    -0.288 OA
HETATM   16  H   UNK     0      10.327   3.332  22.304  0.00  0.00     0.244 HD
ENDBRANCH  13  15
ENDBRANCH   9  13
ENDBRANCH   4   6
BRANCH   5  17
HETATM   17  C   UNK     0      10.380  -5.101  23.734  0.00  0.00     0.198 C 
BRANCH  17  18
HETATM   18  O   UNK     0       9.653  -6.234  23.297  0.00  0.00    -0.398 OA
HETATM   19  H   UNK     0       9.390  -6.730  24.092  0.00  0.00     0.209 HD
ENDBRANCH  17  18
ENDBRANCH   5  17
BRANCH   2  20
HETATM   20  O   UNK     0       6.762  -3.502  25.903  0.00  0.00    -0.388 OA
HETATM   21  H   UNK     0       6.942  -3.566  26.856  0.00  0.00     0.210 HD
ENDBRANCH   2  20
BRANCH   3  22
HETATM   22  O   UNK     0       8.491  -5.342  26.935  0.00  0.00    -0.390 OA
HETATM   23  H   UNK     0       9.245  -4.933  27.390  0.00  0.00     0.210 HD
ENDBRANCH   3  22
TORSDOF 7
ENDMDL
MODEL 7
REMARK VINA RESULT:      -6.0      2.751      5.289
REMARK  7 active torsions:
REMARK  status: ('A' for Active; 'I' for Inactive)
REMARK    1  A    between atoms: O_2  and  C_10 
REMARK    2  A    between atoms: O_3  and  C_11 
REMARK    3  A    between atoms: O_4  and  C_14 
REMARK    4  A    between atoms: O_6  and  N_9 
REMARK    5  A    between atoms: N_7  and  C_12 
REMARK    6  A    between atoms: N_9  and  C_18 
REMARK    7  A    between atoms: C_13  and  C_14 
ROOT
HETATM    1  O   UNK     0      10.002  -0.629  19.368  0.00  0.00    -0.353 OA
HETATM    2  C   UNK     0      10.841   0.937  17.801  0.00  0.00     0.198 C 
HETATM    3  C   UNK     0      10.031  -0.105  17.058  0.00  0.00     0.182 C 
HETATM    4  C   UNK     0      10.355   0.756  19.227  0.00  0.00     0.264 C 
HETATM    5  C   UNK     0       9.983  -1.248  18.063  0.00  0.00     0.179 C 
ENDROOT
BRANCH   4   6
HETATM    6  N   UNK     0      11.363   1.081  20.196  0.00  0.00    -0.278 N 
HETATM    7  C   UNK     0      12.690   0.821  19.888  0.00  0.00     0.102 A 
HETATM    8  C   UNK     0      13.690   1.092  20.724  0.00  0.00     0.070 A 
HETATM    9  C   UNK     0      13.314   1.695  22.029  0.00  0.00     0.153 A 
HETATM   10  N   UNK     0      12.068   1.946  22.335  0.00  0.00    -0.174 NA
HETATM   11  C   UNK     0      11.043   1.659  21.451  0.00  0.00     0.352 A 
HETATM   12  O   UNK     0       9.874   1.905  21.754  0.00  0.00    -0.244 OA
BRANCH   9  13
HETATM   13  N   UNK     0      14.318   1.988  22.924  0.00  0.00    -0.251 N 
HETATM   14  H   UNK     0      15.017   1.349  23.282  0.00  0.00     0.196 HD
BRANCH  13  15
HETATM   15  O   UNK     0      14.386   3.311  23.252  0.00  0.00    -0.288 OA
HETATM   16  H   UNK     0      14.867   3.682  22.493  0.00  0.00     0.244 HD
ENDBRANCH  13  15
ENDBRANCH   9  13
ENDBRANCH   4   6
BRANCH   5  17
HETATM   17  C   UNK     0      11.181  -2.185  17.966  0.00  0.00     0.198 C 
BRANCH  17  18
HETATM   18  O   UNK     0      11.125  -2.862  16.723  0.00  0.00    -0.398 OA
HETATM   19  H   UNK     0      10.390  -3.497  16.776  0.00  0.00     0.209 HD
ENDBRANCH  17  18
ENDBRANCH   5  17
BRANCH   2  20
HETATM   20  O   UNK     0      10.615   2.242  17.310  0.00  0.00    -0.388 OA
HETATM   21  H   UNK     0       9.765   2.234  16.839  0.00  0.00     0.210 HD
ENDBRANCH   2  20
BRANCH   3  22
HETATM   22  O   UNK     0       8.695   0.359  16.857  0.00  0.00    -0.390 OA
HETATM   23  H   UNK     0       8.289   0.541  17.720  0.00  0.00     0.210 HD
ENDBRANCH   3  22
TORSDOF 7
ENDMDL
MODEL 8
REMARK VINA RESULT:      -5.8      3.846      5.671
REMARK  7 active torsions:
REMARK  status: ('A' for Active; 'I' for Inactive)
REMARK    1  A    between atoms: O_2  and  C_10 
REMARK    2  A    between atoms: O_3  and  C_11 
REMARK    3  A    between atoms: O_4  and  C_14 
REMARK    4  A    between atoms: O_6  and  N_9 
REMARK    5  A    between atoms: N_7  and  C_12 
REMARK    6  A    between atoms: N_9  and  C_18 
REMARK    7  A    between atoms: C_13  and  C_14 
ROOT
HETATM    1  O   UNK     0       7.981  -4.017  24.359  0.00  0.00    -0.353 OA
HETATM    2  C   UNK     0      10.312  -3.717  24.061  0.00  0.00     0.198 C 
HETATM    3  C   UNK     0      10.044  -5.180  24.347  0.00  0.00     0.182 C 
HETATM    4  C   UNK     0       8.939  -3.221  23.643  0.00  0.00     0.264 C 
HETATM    5  C   UNK     0       8.658  -5.133  24.975  0.00  0.00     0.179 C 
ENDROOT
BRANCH   4   6
HETATM    6  N   UNK     0       8.733  -1.839  23.967  0.00  0.00    -0.278 N 
HETATM    7  C   UNK     0       8.056  -1.523  25.135  0.00  0.00     0.102 A 
HETATM    8  C   UNK     0       7.822  -0.269  25.515  0.00  0.00     0.070 A 
HETATM    9  C   UNK     0       8.326   0.800  24.613  0.00  0.00     0.153 A 
HETATM   10  N   UNK     0       8.965   0.519  23.509  0.00  0.00    -0.174 NA
HETATM   11  C   UNK     0       9.201  -0.792  23.132  0.00  0.00     0.352 A 
HETATM   12  O   UNK     0       9.808  -1.038  22.088  0.00  0.00    -0.244 OA
BRANCH   9  13
HETATM   13  N   UNK     0       8.102   2.110  24.969  0.00  0.00    -0.251 N 
HETATM   14  H   UNK     0       8.754   2.881  24.885  0.00  0.00     0.196 HD
BRANCH  13  15
HETATM   15  O   UNK     0       6.823   2.353  25.377  0.00  0.00    -0.288 OA
HETATM   16  H   UNK     0       6.565   3.092  24.802  0.00  0.00     0.244 HD
ENDBRANCH  13  15
ENDBRANCH   9  13
ENDBRANCH   4   6
BRANCH   5  17
HETATM   17  C   UNK     0       8.688  -4.897  26.480  0.00  0.00     0.198 C 
BRANCH  17  18
HETATM   18  O   UNK     0       7.531  -5.482  27.052  0.00  0.00    -0.398 OA
HETATM   19  H   UNK     0       7.123  -6.038  26.366  0.00  0.00     0.209 HD
ENDBRANCH  17  18
ENDBRANCH   5  17
BRANCH   2  20
HETATM   20  O   UNK     0      11.286  -3.537  23.053  0.00  0.00    -0.388 OA
HETATM   21  H   UNK     0      11.981  -4.201  23.196  0.00  0.00     0.210 HD
ENDBRANCH   2  20
BRANCH   3  22
HETATM   22  O   UNK     0       9.949  -5.913  23.126  0.00  0.00    -0.390 OA
HETATM   23  H   UNK     0      10.723  -5.712  22.574  0.00  0.00     0.210 HD
ENDBRANCH   3  22
TORSDOF 7
ENDMDL
MODEL 9
REMARK VINA RESULT:      -5.8      3.364      5.185
REMARK  7 active torsions:
REMARK  status: ('A' for Active; 'I' for Inactive)
REMARK    1  A    between atoms: O_2  and  C_10 
REMARK    2  A    between atoms: O_3  and  C_11 
REMARK    3  A    between atoms: O_4  and  C_14 
REMARK    4  A    between atoms: O_6  and  N_9 
REMARK    5  A    between atoms: N_7  and  C_12 
REMARK    6  A    between atoms: N_9  and  C_18 
REMARK    7  A    between atoms: C_13  and  C_14 
ROOT
HETATM    1  O   UNK     0      10.026  -4.384  25.693  0.00  0.00    -0.353 OA
HETATM    2  C   UNK     0       7.813  -3.619  25.337  0.00  0.00     0.198 C 
HETATM    3  C   UNK     0       7.755  -5.019  25.911  0.00  0.00     0.182 C 
HETATM    4  C   UNK     0       9.226  -3.191  25.692  0.00  0.00     0.264 C 
HETATM    5  C   UNK     0       9.159  -5.537  25.630  0.00  0.00     0.179 C 
ENDROOT
BRANCH   4   6
HETATM    6  N   UNK     0       9.772  -2.264  24.742  0.00  0.00    -0.278 N 
HETATM    7  C   UNK     0       9.454  -2.419  23.402  0.00  0.00     0.102 A 
HETATM    8  C   UNK     0       9.914  -1.605  22.454  0.00  0.00     0.070 A 
HETATM    9  C   UNK     0      10.802  -0.502  22.904  0.00  0.00     0.153 A 
HETATM   10  N   UNK     0      11.113  -0.343  24.163  0.00  0.00    -0.174 NA
HETATM   11  C   UNK     0      10.622  -1.198  25.135  0.00  0.00     0.352 A 
HETATM   12  O   UNK     0      10.923  -1.032  26.318  0.00  0.00    -0.244 OA
BRANCH   9  13
HETATM   13  N   UNK     0      11.301   0.360  21.955  0.00  0.00    -0.251 N 
HETATM   14  H   UNK     0      11.582   1.323  22.098  0.00  0.00     0.196 HD
BRANCH  13  15
HETATM   15  O   UNK     0      11.508  -0.227  20.740  0.00  0.00    -0.288 OA
HETATM   16  H   UNK     0      10.601  -0.312  20.402  0.00  0.00     0.244 HD
ENDBRANCH  13  15
ENDBRANCH   9  13
ENDBRANCH   4   6
BRANCH   5  17
HETATM   17  C   UNK     0       9.304  -6.164  24.250  0.00  0.00     0.198 C 
BRANCH  17  18
HETATM   18  O   UNK     0       8.068  -6.754  23.889  0.00  0.00    -0.398 OA
HETATM   19  H   UNK     0       8.265  -7.468  23.258  0.00  0.00     0.209 HD
ENDBRANCH  17  18
ENDBRANCH   5  17
BRANCH   2  20
HETATM   20  O   UNK     0       6.831  -2.770  25.896  0.00  0.00    -0.388 OA
HETATM   21  H   UNK     0       6.373  -3.271  26.591  0.00  0.00     0.210 HD
ENDBRANCH   2  20
BRANCH   3  22
HETATM   22  O   UNK     0       7.581  -4.967  27.327  0.00  0.00    -0.390 OA
HETATM   23  H   UNK     0       6.693  -5.290  27.550  0.00  0.00     0.210 HD
ENDBRANCH   3  22
TORSDOF 7
ENDMDL
MODEL 10
REMARK VINA RESULT:      -5.7      2.266      5.518
REMARK  7 active torsions:
REMARK  status: ('A' for Active; 'I' for Inactive)
REMARK    1  A    between atoms: O_2  and  C_10 
REMARK    2  A    between atoms: O_3  and  C_11 
REMARK    3  A    between atoms: O_4  and  C_14 
REMARK    4  A    between atoms: O_6  and  N_9 
REMARK    5  A    between atoms: N_7  and  C_12 
REMARK    6  A    between atoms: N_9  and  C_18 
REMARK    7  A    between atoms: C_13  and  C_14 
ROOT
HETATM    1  O   UNK     0       8.867   0.114  18.522  0.00  0.00    -0.353 OA
HETATM    2  C   UNK     0      10.936   1.232  18.808  0.00  0.00     0.198 C 
HETATM    3  C   UNK     0      10.613   1.180  17.330  0.00  0.00     0.182 C 
HETATM    4  C   UNK     0       9.580   0.963  19.436  0.00  0.00     0.264 C 
HETATM    5  C   UNK     0       9.579   0.065  17.267  0.00  0.00     0.179 C 
ENDROOT
BRANCH   4   6
HETATM    6  N   UNK     0       9.685   0.298  20.704  0.00  0.00    -0.278 N 
HETATM    7  C   UNK     0       9.733  -1.087  20.727  0.00  0.00     0.102 A 
HETATM    8  C   UNK     0       9.832  -1.785  21.857  0.00  0.00     0.070 A 
HETATM    9  C   UNK     0       9.887  -0.999  23.116  0.00  0.00     0.153 A 
HETATM   10  N   UNK     0       9.842   0.307  23.112  0.00  0.00    -0.174 NA
HETATM   11  C   UNK     0       9.742   1.015  21.926  0.00  0.00     0.352 A 
HETATM   12  O   UNK     0       9.703   2.246  21.941  0.00  0.00    -0.244 OA
BRANCH   9  13
HETATM   13  N   UNK     0       9.987  -1.683  24.306  0.00  0.00    -0.251 N 
HETATM   14  H   UNK     0      10.819  -1.795  24.874  0.00  0.00     0.196 HD
BRANCH  13  15
HETATM   15  O   UNK     0       8.791  -2.153  24.766  0.00  0.00    -0.288 OA
HETATM   16  H   UNK     0       9.047  -3.005  25.157  0.00  0.00     0.244 HD
ENDBRANCH  13  15
ENDBRANCH   9  13
ENDBRANCH   4   6
BRANCH   5  17
HETATM   17  C   UNK     0      10.197  -1.321  17.128  0.00  0.00     0.198 C 
BRANCH  17  18
HETATM   18  O   UNK     0       9.488  -2.034  16.131  0.00  0.00    -0.398 OA
HETATM   19  H   UNK     0      10.034  -2.021  15.326  0.00  0.00     0.209 HD
ENDBRANCH  17  18
ENDBRANCH   5  17
BRANCH   2  20
HETATM   20  O   UNK     0      11.478   2.478  19.196  0.00  0.00    -0.388 OA
HETATM   21  H   UNK     0      10.902   2.844  19.889  0.00  0.00     0.210 HD
ENDBRANCH   2  20
BRANCH   3  22
HETATM   22  O   UNK     0       9.978   2.392  16.920  0.00  0.00    -0.390 OA
HETATM   23  H   UNK     0      10.534   3.145  17.180  0.00  0.00     0.210 HD
ENDBRANCH   3  22
TORSDOF 7
ENDMDL
