MODEL 1
REMARK VINA RESULT:      -8.8      0.000      0.000
REMARK  10 active torsions:
REMARK  status: ('A' for Active; 'I' for Inactive)
REMARK    1  A    between atoms: O_2  and  C_15 
REMARK    2  A    between atoms: O_2  and  C_18 
REMARK    3  A    between atoms: O_3  and  C_12 
REMARK    4  A    between atoms: O_4  and  C_13 
REMARK    5  A    between atoms: O_5  and  C_14 
REMARK    6  A    between atoms: O_6  and  C_17 
REMARK    7  A    between atoms: O_9  and  C_20 
REMARK    8  A    between atoms: O_10  and  C_23 
REMARK    9  A    between atoms: C_16  and  C_17 
REMARK   10  A    between atoms: C_25  and  C_27 
ROOT
HETATM    1  O   UNK     0      11.312  -1.671  19.004  0.00  0.00    -0.340 OA
HETATM    2  C   UNK     0       9.580  -1.066  16.793  0.00  0.00     0.183 C 
HETATM    3  C   UNK     0       9.596  -0.230  18.073  0.00  0.00     0.205 C 
HETATM    4  C   UNK     0      10.884  -1.844  16.618  0.00  0.00     0.189 C 
HETATM    5  C   UNK     0      10.051  -1.063  19.272  0.00  0.00     0.299 C 
HETATM    6  C   UNK     0      11.256  -2.572  17.904  0.00  0.00     0.253 C 
ENDROOT
BRANCH   5   7
HETATM    7  O   UNK     0      10.165  -0.191  20.397  0.00  0.00    -0.315 OA
BRANCH   7   8
HETATM    8  C   UNK     0       9.890  -0.730  21.619  0.00  0.00     0.110 A 
HETATM    9  C   UNK     0      10.127  -2.088  21.836  0.00  0.00     0.078 A 
HETATM   10  C   UNK     0       9.850  -2.650  23.083  0.00  0.00     0.096 A 
HETATM   11  O   UNK     0      10.103  -3.989  23.236  0.00  0.00    -0.309 OA
HETATM   12  C   UNK     0       9.336  -1.855  24.106  0.00  0.00     0.084 A 
HETATM   13  C   UNK     0       9.844  -4.573  24.466  0.00  0.00     0.090 A 
HETATM   14  C   UNK     0       9.344  -3.916  25.525  0.00  0.00     0.094 A 
HETATM   15  C   UNK     0       9.051  -2.473  25.409  0.00  0.00     0.190 A 
HETATM   16  O   UNK     0       8.598  -1.837  26.351  0.00  0.00    -0.287 OA
HETATM   17  C   UNK     0       9.098  -0.495  23.892  0.00  0.00     0.118 A 
HETATM   18  C   UNK     0       9.376   0.064  22.645  0.00  0.00     0.134 A 
BRANCH  13  19
HETATM   19  C   UNK     0      10.147  -6.018  24.521  0.00  0.00    -0.002 A 
HETATM   20  C   UNK     0      10.671  -6.581  25.687  0.00  0.00     0.014 A 
HETATM   21  C   UNK     0      10.956  -7.946  25.739  0.00  0.00     0.001 A 
HETATM   22  C   UNK     0      10.719  -8.751  24.625  0.00  0.00     0.000 A 
HETATM   23  C   UNK     0      10.197  -8.192  23.458  0.00  0.00     0.001 A 
HETATM   24  C   UNK     0       9.911  -6.827  23.407  0.00  0.00     0.014 A 
ENDBRANCH  13  19
BRANCH  17  25
HETATM   25  O   UNK     0       8.597   0.313  24.869  0.00  0.00    -0.357 OA
HETATM   26  H   UNK     0       8.511   1.225  24.553  0.00  0.00     0.217 HD
ENDBRANCH  17  25
BRANCH  18  27
HETATM   27  O   UNK     0       9.147   1.391  22.424  0.00  0.00    -0.356 OA
HETATM   28  H   UNK     0       8.260   1.610  22.759  0.00  0.00     0.218 HD
ENDBRANCH  18  27
ENDBRANCH   7   8
ENDBRANCH   5   7
BRANCH   6  29
HETATM   29  C   UNK     0      12.648  -3.111  17.831  0.00  0.00     0.172 C 
HETATM   30  O   UNK     0      13.104  -3.978  18.561  0.00  0.00    -0.648 OA
BRANCH  29  31
HETATM   31  O   UNK     0      13.345  -2.503  16.840  0.00  0.00    -0.774 OA
HETATM   32  H   UNK     0      13.920  -1.786  17.183  0.00  0.00     0.167 HD
ENDBRANCH  29  31
ENDBRANCH   6  29
BRANCH   3  33
HETATM   33  O   UNK     0       8.280   0.255  18.338  0.00  0.00    -0.388 OA
HETATM   34  H   UNK     0       7.801   0.287  17.493  0.00  0.00     0.210 HD
ENDBRANCH   3  33
BRANCH   4  35
HETATM   35  O   UNK     0      10.718  -2.806  15.579  0.00  0.00    -0.390 OA
HETATM   36  H   UNK     0      11.535  -3.331  15.521  0.00  0.00     0.210 HD
ENDBRANCH   4  35
BRANCH   2  37
HETATM   37  O   UNK     0       9.423  -0.205  15.664  0.00  0.00    -0.390 OA
HETATM   38  H   UNK     0       8.507  -0.293  15.351  0.00  0.00     0.210 HD
ENDBRANCH   2  37
TORSDOF 10
ENDMDL
MODEL 2
REMARK VINA RESULT:      -8.3      1.672      2.553
REMARK  10 active torsions:
REMARK  status: ('A' for Active; 'I' for Inactive)
REMARK    1  A    between atoms: O_2  and  C_15 
REMARK    2  A    between atoms: O_2  and  C_18 
REMARK    3  A    between atoms: O_3  and  C_12 
REMARK    4  A    between atoms: O_4  and  C_13 
REMARK    5  A    between atoms: O_5  and  C_14 
REMARK    6  A    between atoms: O_6  and  C_17 
REMARK    7  A    between atoms: O_9  and  C_20 
REMARK    8  A    between atoms: O_10  and  C_23 
REMARK    9  A    between atoms: C_16  and  C_17 
REMARK   10  A    between atoms: C_25  and  C_27 
ROOT
HETATM    1  O   UNK     0      10.756  -0.294  19.204  0.00  0.00    -0.340 OA
HETATM    2  C   UNK     0      11.001   2.561  18.990  0.00  0.00     0.183 C 
HETATM    3  C   UNK     0      11.553   1.779  20.182  0.00  0.00     0.205 C 
HETATM    4  C   UNK     0      10.830   1.663  17.764  0.00  0.00     0.189 C 
HETATM    5  C   UNK     0      10.775   0.481  20.400  0.00  0.00     0.299 C 
HETATM    6  C   UNK     0      10.100   0.377  18.134  0.00  0.00     0.253 C 
ENDROOT
BRANCH   5   7
HETATM    7  O   UNK     0      11.424  -0.252  21.440  0.00  0.00    -0.315 OA
BRANCH   7   8
HETATM    8  C   UNK     0      10.615  -0.916  22.315  0.00  0.00     0.110 A 
HETATM    9  C   UNK     0      10.872  -2.257  22.600  0.00  0.00     0.078 A 
HETATM   10  C   UNK     0      10.051  -2.946  23.495  0.00  0.00     0.096 A 
HETATM   11  O   UNK     0      10.353  -4.262  23.736  0.00  0.00    -0.309 OA
HETATM   12  C   UNK     0       8.979  -2.293  24.099  0.00  0.00     0.084 A 
HETATM   13  C   UNK     0       9.559  -4.969  24.626  0.00  0.00     0.090 A 
HETATM   14  C   UNK     0       8.497  -4.455  25.265  0.00  0.00     0.094 A 
HETATM   15  C   UNK     0       8.129  -3.043  25.037  0.00  0.00     0.190 A 
HETATM   16  O   UNK     0       7.169  -2.534  25.601  0.00  0.00    -0.287 OA
HETATM   17  C   UNK     0       8.718  -0.950  23.816  0.00  0.00     0.118 A 
HETATM   18  C   UNK     0       9.541  -0.264  22.922  0.00  0.00     0.134 A 
BRANCH  13  19
HETATM   19  C   UNK     0       9.969  -6.377  24.807  0.00  0.00    -0.002 A 
HETATM   20  C   UNK     0      10.601  -6.776  25.988  0.00  0.00     0.014 A 
HETATM   21  C   UNK     0      10.987  -8.106  26.160  0.00  0.00     0.001 A 
HETATM   22  C   UNK     0      10.742  -9.040  25.153  0.00  0.00     0.000 A 
HETATM   23  C   UNK     0      10.111  -8.644  23.973  0.00  0.00     0.001 A 
HETATM   24  C   UNK     0       9.725  -7.315  23.802  0.00  0.00     0.014 A 
ENDBRANCH  13  19
BRANCH  17  25
HETATM   25  O   UNK     0       7.679  -0.279  24.388  0.00  0.00    -0.357 OA
HETATM   26  H   UNK     0       7.094   0.092  23.711  0.00  0.00     0.217 HD
ENDBRANCH  17  25
BRANCH  18  27
HETATM   27  O   UNK     0       9.296   1.048  22.637  0.00  0.00    -0.356 OA
HETATM   28  H   UNK     0       9.764   1.277  21.815  0.00  0.00     0.218 HD
ENDBRANCH  18  27
ENDBRANCH   7   8
ENDBRANCH   5   7
BRANCH   6  29
HETATM   29  C   UNK     0      10.162  -0.614  17.018  0.00  0.00     0.172 C 
HETATM   30  O   UNK     0      10.847  -1.626  17.015  0.00  0.00    -0.648 OA
BRANCH  29  31
HETATM   31  O   UNK     0       9.354  -0.236  15.997  0.00  0.00    -0.774 OA
HETATM   32  H   UNK     0       9.773  -0.385  15.123  0.00  0.00     0.167 HD
ENDBRANCH  29  31
ENDBRANCH   6  29
BRANCH   3  33
HETATM   33  O   UNK     0      11.439   2.573  21.363  0.00  0.00    -0.388 OA
HETATM   34  H   UNK     0      11.803   3.452  21.164  0.00  0.00     0.210 HD
ENDBRANCH   3  33
BRANCH   4  35
HETATM   35  O   UNK     0      10.065   2.356  16.781  0.00  0.00    -0.390 OA
HETATM   36  H   UNK     0      10.670   2.641  16.074  0.00  0.00     0.210 HD
ENDBRANCH   4  35
BRANCH   2  37
HETATM   37  O   UNK     0      11.908   3.609  18.646  0.00  0.00    -0.390 OA
HETATM   38  H   UNK     0      12.798   3.331  18.921  0.00  0.00     0.210 HD
ENDBRANCH   2  37
TORSDOF 10
ENDMDL
MODEL 3
REMARK VINA RESULT:      -7.9      8.122     12.229
REMARK  10 active torsions:
REMARK  status: ('A' for Active; 'I' for Inactive)
REMARK    1  A    between atoms: O_2  and  C_15 
REMARK    2  A    between atoms: O_2  and  C_18 
REMARK    3  A    between atoms: O_3  and  C_12 
REMARK    4  A    between atoms: O_4  and  C_13 
REMARK    5  A    between atoms: O_5  and  C_14 
REMARK    6  A    between atoms: O_6  and  C_17 
REMARK    7  A    between atoms: O_9  and  C_20 
REMARK    8  A    between atoms: O_10  and  C_23 
REMARK    9  A    between atoms: C_16  and  C_17 
REMARK   10  A    between atoms: C_25  and  C_27 
ROOT
HETATM    1  O   UNK     0      11.739   3.061  18.679  0.00  0.00    -0.340 OA
HETATM    2  C   UNK     0      13.027   1.075  20.308  0.00  0.00     0.183 C 
HETATM    3  C   UNK     0      13.108   2.570  20.622  0.00  0.00     0.205 C 
HETATM    4  C   UNK     0      11.814   0.753  19.436  0.00  0.00     0.189 C 
HETATM    5  C   UNK     0      12.945   3.410  19.355  0.00  0.00     0.299 C 
HETATM    6  C   UNK     0      11.733   1.705  18.248  0.00  0.00     0.253 C 
ENDROOT
BRANCH   5   7
HETATM    7  O   UNK     0      12.900   4.785  19.741  0.00  0.00    -0.315 OA
BRANCH   7   8
HETATM    8  C   UNK     0      13.869   5.595  19.226  0.00  0.00     0.110 A 
HETATM    9  C   UNK     0      14.129   5.565  17.856  0.00  0.00     0.078 A 
HETATM   10  C   UNK     0      15.118   6.391  17.319  0.00  0.00     0.096 A 
HETATM   11  O   UNK     0      15.328   6.317  15.966  0.00  0.00    -0.309 OA
HETATM   12  C   UNK     0      15.842   7.241  18.152  0.00  0.00     0.084 A 
HETATM   13  C   UNK     0      16.300   7.131  15.403  0.00  0.00     0.090 A 
HETATM   14  C   UNK     0      17.065   7.985  16.099  0.00  0.00     0.094 A 
HETATM   15  C   UNK     0      16.880   8.099  17.560  0.00  0.00     0.190 A 
HETATM   16  O   UNK     0      17.556   8.867  18.232  0.00  0.00    -0.287 OA
HETATM   17  C   UNK     0      15.585   7.274  19.525  0.00  0.00     0.118 A 
HETATM   18  C   UNK     0      14.596   6.448  20.059  0.00  0.00     0.134 A 
BRANCH  13  19
HETATM   19  C   UNK     0      16.447   6.968  13.943  0.00  0.00    -0.002 A 
HETATM   20  C   UNK     0      17.662   7.270  13.322  0.00  0.00     0.014 A 
HETATM   21  C   UNK     0      17.800   7.116  11.942  0.00  0.00     0.001 A 
HETATM   22  C   UNK     0      16.726   6.658  11.180  0.00  0.00     0.000 A 
HETATM   23  C   UNK     0      15.512   6.355  11.796  0.00  0.00     0.001 A 
HETATM   24  C   UNK     0      15.373   6.510  13.176  0.00  0.00     0.014 A 
ENDBRANCH  13  19
BRANCH  17  25
HETATM   25  O   UNK     0      16.273   8.093  20.370  0.00  0.00    -0.357 OA
HETATM   26  H   UNK     0      16.578   8.888  19.907  0.00  0.00     0.217 HD
ENDBRANCH  17  25
BRANCH  18  27
HETATM   27  O   UNK     0      14.336   6.471  21.398  0.00  0.00    -0.356 OA
HETATM   28  H   UNK     0      13.966   7.342  21.625  0.00  0.00     0.218 HD
ENDBRANCH  18  27
ENDBRANCH   7   8
ENDBRANCH   5   7
BRANCH   6  29
HETATM   29  C   UNK     0      10.421   1.573  17.545  0.00  0.00     0.172 C 
HETATM   30  O   UNK     0       9.672   0.612  17.632  0.00  0.00    -0.648 OA
BRANCH  29  31
HETATM   31  O   UNK     0      10.171   2.670  16.790  0.00  0.00    -0.774 OA
HETATM   32  H   UNK     0      10.501   3.491  17.214  0.00  0.00     0.167 HD
ENDBRANCH  29  31
ENDBRANCH   6  29
BRANCH   3  33
HETATM   33  O   UNK     0      14.381   2.866  21.195  0.00  0.00    -0.388 OA
HETATM   34  H   UNK     0      14.934   3.256  20.498  0.00  0.00     0.210 HD
ENDBRANCH   3  33
BRANCH   4  35
HETATM   35  O   UNK     0      11.933  -0.581  18.945  0.00  0.00    -0.390 OA
HETATM   36  H   UNK     0      12.130  -0.536  17.994  0.00  0.00     0.210 HD
ENDBRANCH   4  35
BRANCH   2  37
HETATM   37  O   UNK     0      12.905   0.339  21.526  0.00  0.00    -0.390 OA
HETATM   38  H   UNK     0      13.018  -0.603  21.313  0.00  0.00     0.210 HD
ENDBRANCH   2  37
TORSDOF 10
ENDMDL
MODEL 4
REMARK VINA RESULT:      -7.8      3.477      7.747
REMARK  10 active torsions:
REMARK  status: ('A' for Active; 'I' for Inactive)
REMARK    1  A    between atoms: O_2  and  C_15 
REMARK    2  A    between atoms: O_2  and  C_18 
REMARK    3  A    between atoms: O_3  and  C_12 
REMARK    4  A    between atoms: O_4  and  C_13 
REMARK    5  A    between atoms: O_5  and  C_14 
REMARK    6  A    between atoms: O_6  and  C_17 
REMARK    7  A    between atoms: O_9  and  C_20 
REMARK    8  A    between atoms: O_10  and  C_23 
REMARK    9  A    between atoms: C_16  and  C_17 
REMARK   10  A    between atoms: C_25  and  C_27 
ROOT
HETATM    1  O   UNK     0      10.671  -5.579  23.830  0.00  0.00    -0.340 OA
HETATM    2  C   UNK     0      10.689  -6.908  26.377  0.00  0.00     0.183 C 
HETATM    3  C   UNK     0       9.486  -6.104  25.881  0.00  0.00     0.205 C 
HETATM    4  C   UNK     0      11.576  -7.358  25.217  0.00  0.00     0.189 C 
HETATM    5  C   UNK     0       9.917  -5.014  24.899  0.00  0.00     0.299 C 
HETATM    6  C   UNK     0      11.873  -6.193  24.280  0.00  0.00     0.253 C 
ENDROOT
BRANCH   5   7
HETATM    7  O   UNK     0       8.738  -4.395  24.384  0.00  0.00    -0.315 OA
BRANCH   7   8
HETATM    8  C   UNK     0       8.733  -3.032  24.341  0.00  0.00     0.110 A 
HETATM    9  C   UNK     0       9.576  -2.373  23.447  0.00  0.00     0.078 A 
HETATM   10  C   UNK     0       9.579  -0.978  23.394  0.00  0.00     0.096 A 
HETATM   11  O   UNK     0      10.430  -0.386  22.497  0.00  0.00    -0.309 OA
HETATM   12  C   UNK     0       8.740  -0.249  24.235  0.00  0.00     0.084 A 
HETATM   13  C   UNK     0      10.448   0.998  22.417  0.00  0.00     0.090 A 
HETATM   14  C   UNK     0       9.693   1.808  23.175  0.00  0.00     0.094 A 
HETATM   15  C   UNK     0       8.764   1.220  24.161  0.00  0.00     0.190 A 
HETATM   16  O   UNK     0       8.056   1.923  24.870  0.00  0.00    -0.287 OA
HETATM   17  C   UNK     0       7.893  -0.905  25.132  0.00  0.00     0.118 A 
HETATM   18  C   UNK     0       7.893  -2.299  25.181  0.00  0.00     0.134 A 
BRANCH  13  19
HETATM   19  C   UNK     0      11.402   1.530  21.423  0.00  0.00    -0.002 A 
HETATM   20  C   UNK     0      12.759   1.204  21.508  0.00  0.00     0.014 A 
HETATM   21  C   UNK     0      13.659   1.705  20.567  0.00  0.00     0.001 A 
HETATM   22  C   UNK     0      13.207   2.532  19.539  0.00  0.00     0.000 A 
HETATM   23  C   UNK     0      11.854   2.859  19.452  0.00  0.00     0.001 A 
HETATM   24  C   UNK     0      10.953   2.358  20.392  0.00  0.00     0.014 A 
ENDBRANCH  13  19
BRANCH  17  25
HETATM   25  O   UNK     0       7.059  -0.225  25.968  0.00  0.00    -0.357 OA
HETATM   26  H   UNK     0       6.785   0.617  25.573  0.00  0.00     0.217 HD
ENDBRANCH  17  25
BRANCH  18  27
HETATM   27  O   UNK     0       7.071  -2.952  26.054  0.00  0.00    -0.356 OA
HETATM   28  H   UNK     0       7.511  -2.993  26.920  0.00  0.00     0.218 HD
ENDBRANCH  18  27
ENDBRANCH   7   8
ENDBRANCH   5   7
BRANCH   6  29
HETATM   29  C   UNK     0      12.509  -6.671  23.016  0.00  0.00     0.172 C 
HETATM   30  O   UNK     0      12.880  -7.817  22.806  0.00  0.00    -0.648 OA
BRANCH  29  31
HETATM   31  O   UNK     0      12.624  -5.657  22.124  0.00  0.00    -0.774 OA
HETATM   32  H   UNK     0      11.877  -5.641  21.488  0.00  0.00     0.167 HD
ENDBRANCH  29  31
ENDBRANCH   6  29
BRANCH   3  33
HETATM   33  O   UNK     0       8.845  -5.478  26.992  0.00  0.00    -0.388 OA
HETATM   34  H   UNK     0       8.984  -4.520  26.912  0.00  0.00     0.210 HD
ENDBRANCH   3  33
BRANCH   4  35
HETATM   35  O   UNK     0      12.808  -7.854  25.736  0.00  0.00    -0.390 OA
HETATM   36  H   UNK     0      13.439  -7.923  24.999  0.00  0.00     0.210 HD
ENDBRANCH   4  35
BRANCH   2  37
HETATM   37  O   UNK     0      10.231  -8.075  27.063  0.00  0.00    -0.390 OA
HETATM   38  H   UNK     0      10.131  -8.783  26.405  0.00  0.00     0.210 HD
ENDBRANCH   2  37
TORSDOF 10
ENDMDL
MODEL 5
REMARK VINA RESULT:      -7.8      3.328      5.485
REMARK  10 active torsions:
REMARK  status: ('A' for Active; 'I' for Inactive)
REMARK    1  A    between atoms: O_2  and  C_15 
REMARK    2  A    between atoms: O_2  and  C_18 
REMARK    3  A    between atoms: O_3  and  C_12 
REMARK    4  A    between atoms: O_4  and  C_13 
REMARK    5  A    between atoms: O_5  and  C_14 
REMARK    6  A    between atoms: O_6  and  C_17 
REMARK    7  A    between atoms: O_9  and  C_20 
REMARK    8  A    between atoms: O_10  and  C_23 
REMARK    9  A    between atoms: C_16  and  C_17 
REMARK   10  A    between atoms: C_25  and  C_27 
ROOT
HETATM    1  O   UNK     0       9.826   0.282  24.802  0.00  0.00    -0.340 OA
HETATM    2  C   UNK     0      10.928   0.581  22.165  0.00  0.00     0.183 C 
HETATM    3  C   UNK     0      11.352  -0.546  23.107  0.00  0.00     0.205 C 
HETATM    4  C   UNK     0       9.555   1.137  22.542  0.00  0.00     0.189 C 
HETATM    5  C   UNK     0      11.166  -0.144  24.570  0.00  0.00     0.299 C 
HETATM    6  C   UNK     0       9.483   1.432  24.036  0.00  0.00     0.253 C 
ENDROOT
BRANCH   5   7
HETATM    7  O   UNK     0      11.457  -1.283  25.381  0.00  0.00    -0.315 OA
BRANCH   7   8
HETATM    8  C   UNK     0      10.658  -2.375  25.208  0.00  0.00     0.110 A 
HETATM    9  C   UNK     0      11.096  -3.422  24.397  0.00  0.00     0.078 A 
HETATM   10  C   UNK     0      10.286  -4.544  24.215  0.00  0.00     0.096 A 
HETATM   11  O   UNK     0      10.770  -5.540  23.406  0.00  0.00    -0.309 OA
HETATM   12  C   UNK     0       9.044  -4.615  24.842  0.00  0.00     0.084 A 
HETATM   13  C   UNK     0       9.990  -6.671  23.212  0.00  0.00     0.090 A 
HETATM   14  C   UNK     0       8.777  -6.854  23.755  0.00  0.00     0.094 A 
HETATM   15  C   UNK     0       8.210  -5.808  24.631  0.00  0.00     0.190 A 
HETATM   16  O   UNK     0       7.108  -5.937  25.148  0.00  0.00    -0.287 OA
HETATM   17  C   UNK     0       8.601  -3.569  25.655  0.00  0.00     0.118 A 
HETATM   18  C   UNK     0       9.413  -2.449  25.836  0.00  0.00     0.134 A 
BRANCH  13  19
HETATM   19  C   UNK     0      10.603  -7.677  22.322  0.00  0.00    -0.002 A 
HETATM   20  C   UNK     0      10.501  -7.542  20.934  0.00  0.00     0.014 A 
HETATM   21  C   UNK     0      11.082  -8.492  20.094  0.00  0.00     0.001 A 
HETATM   22  C   UNK     0      11.766  -9.579  20.636  0.00  0.00     0.000 A 
HETATM   23  C   UNK     0      11.869  -9.718  22.021  0.00  0.00     0.001 A 
HETATM   24  C   UNK     0      11.289  -8.767  22.861  0.00  0.00     0.014 A 
ENDBRANCH  13  19
BRANCH  17  25
HETATM   25  O   UNK     0       7.393  -3.604  26.284  0.00  0.00    -0.357 OA
HETATM   26  H   UNK     0       6.787  -2.950  25.904  0.00  0.00     0.217 HD
ENDBRANCH  17  25
BRANCH  18  27
HETATM   27  O   UNK     0       8.992  -1.420  26.628  0.00  0.00    -0.356 OA
HETATM   28  H   UNK     0       9.768  -1.034  27.069  0.00  0.00     0.218 HD
ENDBRANCH  18  27
ENDBRANCH   7   8
ENDBRANCH   5   7
BRANCH   6  29
HETATM   29  C   UNK     0       8.079   1.720  24.458  0.00  0.00     0.172 C 
HETATM   30  O   UNK     0       7.759   2.484  25.356  0.00  0.00    -0.648 OA
BRANCH  29  31
HETATM   31  O   UNK     0       7.199   1.012  23.708  0.00  0.00    -0.774 OA
HETATM   32  H   UNK     0       7.651   0.469  23.027  0.00  0.00     0.167 HD
ENDBRANCH  29  31
ENDBRANCH   6  29
BRANCH   3  33
HETATM   33  O   UNK     0      12.732  -0.846  22.896  0.00  0.00    -0.388 OA
HETATM   34  H   UNK     0      13.247  -0.328  23.537  0.00  0.00     0.210 HD
ENDBRANCH   3  33
BRANCH   4  35
HETATM   35  O   UNK     0       9.329   2.349  21.825  0.00  0.00    -0.390 OA
HETATM   36  H   UNK     0      10.182   2.655  21.474  0.00  0.00     0.210 HD
ENDBRANCH   4  35
BRANCH   2  37
HETATM   37  O   UNK     0      10.851   0.082  20.829  0.00  0.00    -0.390 OA
HETATM   38  H   UNK     0      10.616  -0.859  20.879  0.00  0.00     0.210 HD
ENDBRANCH   2  37
TORSDOF 10
ENDMDL
MODEL 6
REMARK VINA RESULT:      -7.7      2.449      6.974
REMARK  10 active torsions:
REMARK  status: ('A' for Active; 'I' for Inactive)
REMARK    1  A    between atoms: O_2  and  C_15 
REMARK    2  A    between atoms: O_2  and  C_18 
REMARK    3  A    between atoms: O_3  and  C_12 
REMARK    4  A    between atoms: O_4  and  C_13 
REMARK    5  A    between atoms: O_5  and  C_14 
REMARK    6  A    between atoms: O_6  and  C_17 
REMARK    7  A    between atoms: O_9  and  C_20 
REMARK    8  A    between atoms: O_10  and  C_23 
REMARK    9  A    between atoms: C_16  and  C_17 
REMARK   10  A    between atoms: C_25  and  C_27 
ROOT
HETATM    1  O   UNK     0      10.218  -3.419  24.714  0.00  0.00    -0.340 OA
HETATM    2  C   UNK     0       8.947  -5.996  24.654  0.00  0.00     0.183 C 
HETATM    3  C   UNK     0       8.160  -4.699  24.846  0.00  0.00     0.205 C 
HETATM    4  C   UNK     0      10.296  -5.736  23.984  0.00  0.00     0.189 C 
HETATM    5  C   UNK     0       9.030  -3.613  25.479  0.00  0.00     0.299 C 
HETATM    6  C   UNK     0      11.028  -4.588  24.669  0.00  0.00     0.253 C 
ENDROOT
BRANCH   5   7
HETATM    7  O   UNK     0       8.273  -2.402  25.507  0.00  0.00    -0.315 OA
BRANCH   7   8
HETATM    8  C   UNK     0       8.632  -1.436  24.614  0.00  0.00     0.110 A 
HETATM    9  C   UNK     0       8.894  -1.791  23.291  0.00  0.00     0.078 A 
HETATM   10  C   UNK     0       9.262  -0.810  22.369  0.00  0.00     0.096 A 
HETATM   11  O   UNK     0       9.507  -1.220  21.083  0.00  0.00    -0.309 OA
HETATM   12  C   UNK     0       9.367   0.519  22.773  0.00  0.00     0.084 A 
HETATM   13  C   UNK     0       9.868  -0.266  20.144  0.00  0.00     0.090 A 
HETATM   14  C   UNK     0      10.008   1.042  20.410  0.00  0.00     0.094 A 
HETATM   15  C   UNK     0       9.758   1.533  21.780  0.00  0.00     0.190 A 
HETATM   16  O   UNK     0       9.873   2.717  22.065  0.00  0.00    -0.287 OA
HETATM   17  C   UNK     0       9.105   0.879  24.097  0.00  0.00     0.118 A 
HETATM   18  C   UNK     0       8.738  -0.104  25.016  0.00  0.00     0.134 A 
BRANCH  13  19
HETATM   19  C   UNK     0      10.112  -0.815  18.794  0.00  0.00    -0.002 A 
HETATM   20  C   UNK     0       9.113  -0.752  17.819  0.00  0.00     0.014 A 
HETATM   21  C   UNK     0       9.345  -1.270  16.545  0.00  0.00     0.001 A 
HETATM   22  C   UNK     0      10.576  -1.851  16.241  0.00  0.00     0.000 A 
HETATM   23  C   UNK     0      11.575  -1.915  17.211  0.00  0.00     0.001 A 
HETATM   24  C   UNK     0      11.343  -1.398  18.486  0.00  0.00     0.014 A 
ENDBRANCH  13  19
BRANCH  17  25
HETATM   25  O   UNK     0       9.198   2.169  24.527  0.00  0.00    -0.357 OA
HETATM   26  H   UNK     0      10.118   2.399  24.731  0.00  0.00     0.217 HD
ENDBRANCH  17  25
BRANCH  18  27
HETATM   27  O   UNK     0       8.480   0.235  26.312  0.00  0.00    -0.356 OA
HETATM   28  H   UNK     0       9.026   1.008  26.543  0.00  0.00     0.218 HD
ENDBRANCH  18  27
ENDBRANCH   7   8
ENDBRANCH   5   7
BRANCH   6  29
HETATM   29  C   UNK     0      12.212  -4.154  23.867  0.00  0.00     0.172 C 
HETATM   30  O   UNK     0      13.186  -3.567  24.314  0.00  0.00    -0.648 OA
BRANCH  29  31
HETATM   31  O   UNK     0      12.060  -4.498  22.565  0.00  0.00    -0.774 OA
HETATM   32  H   UNK     0      12.557  -3.900  21.967  0.00  0.00     0.167 HD
ENDBRANCH  29  31
ENDBRANCH   6  29
BRANCH   3  33
HETATM   33  O   UNK     0       7.049  -4.942  25.709  0.00  0.00    -0.388 OA
HETATM   34  H   UNK     0       7.283  -5.686  26.288  0.00  0.00     0.210 HD
ENDBRANCH   3  33
BRANCH   4  35
HETATM   35  O   UNK     0      11.098  -6.912  24.078  0.00  0.00    -0.390 OA
HETATM   36  H   UNK     0      11.573  -7.020  23.236  0.00  0.00     0.210 HD
ENDBRANCH   4  35
BRANCH   2  37
HETATM   37  O   UNK     0       8.203  -6.886  23.821  0.00  0.00    -0.390 OA
HETATM   38  H   UNK     0       8.356  -7.789  24.144  0.00  0.00     0.210 HD
ENDBRANCH   2  37
TORSDOF 10
ENDMDL
MODEL 7
REMARK VINA RESULT:      -7.6      2.482      3.360
REMARK  10 active torsions:
REMARK  status: ('A' for Active; 'I' for Inactive)
REMARK    1  A    between atoms: O_2  and  C_15 
REMARK    2  A    between atoms: O_2  and  C_18 
REMARK    3  A    between atoms: O_3  and  C_12 
REMARK    4  A    between atoms: O_4  and  C_13 
REMARK    5  A    between atoms: O_5  and  C_14 
REMARK    6  A    between atoms: O_6  and  C_17 
REMARK    7  A    between atoms: O_9  and  C_20 
REMARK    8  A    between atoms: O_10  and  C_23 
REMARK    9  A    between atoms: C_16  and  C_17 
REMARK   10  A    between atoms: C_25  and  C_27 
ROOT
HETATM    1  O   UNK     0      11.987   0.603  21.176  0.00  0.00    -0.340 OA
HETATM    2  C   UNK     0      12.391   2.425  18.991  0.00  0.00     0.183 C 
HETATM    3  C   UNK     0      11.084   1.656  19.185  0.00  0.00     0.205 C 
HETATM    4  C   UNK     0      13.172   2.536  20.300  0.00  0.00     0.189 C 
HETATM    5  C   UNK     0      11.318   0.349  19.943  0.00  0.00     0.299 C 
HETATM    6  C   UNK     0      13.274   1.178  20.985  0.00  0.00     0.253 C 
ENDROOT
BRANCH   5   7
HETATM    7  O   UNK     0      10.046  -0.247  20.198  0.00  0.00    -0.315 OA
BRANCH   7   8
HETATM    8  C   UNK     0       9.835  -0.721  21.459  0.00  0.00     0.110 A 
HETATM    9  C   UNK     0      10.054  -2.073  21.727  0.00  0.00     0.078 A 
HETATM   10  C   UNK     0       9.842  -2.568  23.015  0.00  0.00     0.096 A 
HETATM   11  O   UNK     0      10.072  -3.905  23.217  0.00  0.00    -0.309 OA
HETATM   12  C   UNK     0       9.413  -1.713  24.027  0.00  0.00     0.084 A 
HETATM   13  C   UNK     0       9.877  -4.424  24.488  0.00  0.00     0.090 A 
HETATM   14  C   UNK     0       9.462  -3.705  25.542  0.00  0.00     0.094 A 
HETATM   15  C   UNK     0       9.196  -2.262  25.375  0.00  0.00     0.190 A 
HETATM   16  O   UNK     0       8.818  -1.570  26.311  0.00  0.00    -0.287 OA
HETATM   17  C   UNK     0       9.194  -0.359  23.764  0.00  0.00     0.118 A 
HETATM   18  C   UNK     0       9.406   0.134  22.476  0.00  0.00     0.134 A 
BRANCH  13  19
HETATM   19  C   UNK     0      10.150  -5.872  24.593  0.00  0.00    -0.002 A 
HETATM   20  C   UNK     0      10.678  -6.402  25.773  0.00  0.00     0.014 A 
HETATM   21  C   UNK     0      10.934  -7.770  25.872  0.00  0.00     0.001 A 
HETATM   22  C   UNK     0      10.662  -8.612  24.794  0.00  0.00     0.000 A 
HETATM   23  C   UNK     0      10.134  -8.085  23.614  0.00  0.00     0.001 A 
HETATM   24  C   UNK     0       9.879  -6.718  23.515  0.00  0.00     0.014 A 
ENDBRANCH  13  19
BRANCH  17  25
HETATM   25  O   UNK     0       8.774   0.507  24.730  0.00  0.00    -0.357 OA
HETATM   26  H   UNK     0       9.462   1.161  24.929  0.00  0.00     0.217 HD
ENDBRANCH  17  25
BRANCH  18  27
HETATM   27  O   UNK     0       9.195   1.455  22.206  0.00  0.00    -0.356 OA
HETATM   28  H   UNK     0       9.381   1.610  21.263  0.00  0.00     0.218 HD
ENDBRANCH  18  27
ENDBRANCH   7   8
ENDBRANCH   5   7
BRANCH   6  29
HETATM   29  C   UNK     0      13.797   1.319  22.377  0.00  0.00     0.172 C 
HETATM   30  O   UNK     0      13.992   0.393  23.151  0.00  0.00    -0.648 OA
BRANCH  29  31
HETATM   31  O   UNK     0      14.026   2.622  22.673  0.00  0.00    -0.774 OA
HETATM   32  H   UNK     0      14.905   2.921  22.355  0.00  0.00     0.167 HD
ENDBRANCH  29  31
ENDBRANCH   6  29
BRANCH   3  33
HETATM   33  O   UNK     0      10.526   1.340  17.909  0.00  0.00    -0.388 OA
HETATM   34  H   UNK     0      10.873   0.472  17.643  0.00  0.00     0.210 HD
ENDBRANCH   3  33
BRANCH   4  35
HETATM   35  O   UNK     0      14.489   3.007  20.019  0.00  0.00    -0.390 OA
HETATM   36  H   UNK     0      15.088   2.241  20.012  0.00  0.00     0.210 HD
ENDBRANCH   4  35
BRANCH   2  37
HETATM   37  O   UNK     0      12.102   3.748  18.535  0.00  0.00    -0.390 OA
HETATM   38  H   UNK     0      12.948   4.182  18.337  0.00  0.00     0.210 HD
ENDBRANCH   2  37
TORSDOF 10
ENDMDL
MODEL 8
REMARK VINA RESULT:      -7.5      2.071      3.324
REMARK  10 active torsions:
REMARK  status: ('A' for Active; 'I' for Inactive)
REMARK    1  A    between atoms: O_2  and  C_15 
REMARK    2  A    between atoms: O_2  and  C_18 
REMARK    3  A    between atoms: O_3  and  C_12 
REMARK    4  A    between atoms: O_4  and  C_13 
REMARK    5  A    between atoms: O_5  and  C_14 
REMARK    6  A    between atoms: O_6  and  C_17 
REMARK    7  A    between atoms: O_9  and  C_20 
REMARK    8  A    between atoms: O_10  and  C_23 
REMARK    9  A    between atoms: C_16  and  C_17 
REMARK   10  A    between atoms: C_25  and  C_27 
ROOT
HETATM    1  O   UNK     0      10.835  -0.364  21.522  0.00  0.00    -0.340 OA
HETATM    2  C   UNK     0      12.736   1.395  20.277  0.00  0.00     0.183 C 
HETATM    3  C   UNK     0      12.811   1.024  21.758  0.00  0.00     0.205 C 
HETATM    4  C   UNK     0      11.942   0.358  19.482  0.00  0.00     0.189 C 
HETATM    5  C   UNK     0      11.431   0.664  22.309  0.00  0.00     0.299 C 
HETATM    6  C   UNK     0      10.622   0.041  20.175  0.00  0.00     0.253 C 
ENDROOT
BRANCH   5   7
HETATM    7  O   UNK     0      11.598   0.208  23.652  0.00  0.00    -0.315 OA
BRANCH   7   8
HETATM    8  C   UNK     0      10.717  -0.737  24.090  0.00  0.00     0.110 A 
HETATM    9  C   UNK     0      11.093  -2.080  24.080  0.00  0.00     0.078 A 
HETATM   10  C   UNK     0      10.200  -3.055  24.526  0.00  0.00     0.096 A 
HETATM   11  O   UNK     0      10.626  -4.358  24.491  0.00  0.00    -0.309 OA
HETATM   12  C   UNK     0       8.935  -2.684  24.980  0.00  0.00     0.084 A 
HETATM   13  C   UNK     0       9.761  -5.347  24.936  0.00  0.00     0.090 A 
HETATM   14  C   UNK     0       8.519  -5.118  25.389  0.00  0.00     0.094 A 
HETATM   15  C   UNK     0       8.012  -3.732  25.443  0.00  0.00     0.190 A 
HETATM   16  O   UNK     0       6.887  -3.479  25.852  0.00  0.00    -0.287 OA
HETATM   17  C   UNK     0       8.555  -1.340  24.992  0.00  0.00     0.118 A 
HETATM   18  C   UNK     0       9.450  -0.368  24.545  0.00  0.00     0.134 A 
BRANCH  13  19
HETATM   19  C   UNK     0      10.318  -6.713  24.851  0.00  0.00    -0.002 A 
HETATM   20  C   UNK     0      10.057  -7.508  23.732  0.00  0.00     0.014 A 
HETATM   21  C   UNK     0      10.584  -8.798  23.652  0.00  0.00     0.001 A 
HETATM   22  C   UNK     0      11.373  -9.295  24.689  0.00  0.00     0.000 A 
HETATM   23  C   UNK     0      11.636  -8.504  25.807  0.00  0.00     0.001 A 
HETATM   24  C   UNK     0      11.109  -7.214  25.887  0.00  0.00     0.014 A 
ENDBRANCH  13  19
BRANCH  17  25
HETATM   25  O   UNK     0       7.327  -0.940  25.429  0.00  0.00    -0.357 OA
HETATM   26  H   UNK     0       7.249  -1.052  26.389  0.00  0.00     0.217 HD
ENDBRANCH  17  25
BRANCH  18  27
HETATM   27  O   UNK     0       9.090   0.948  24.552  0.00  0.00    -0.356 OA
HETATM   28  H   UNK     0       9.374   1.350  23.712  0.00  0.00     0.218 HD
ENDBRANCH  18  27
ENDBRANCH   7   8
ENDBRANCH   5   7
BRANCH   6  29
HETATM   29  C   UNK     0       9.966  -1.151  19.557  0.00  0.00     0.172 C 
HETATM   30  O   UNK     0       9.286  -1.131  18.542  0.00  0.00    -0.648 OA
BRANCH  29  31
HETATM   31  O   UNK     0      10.225  -2.268  20.281  0.00  0.00    -0.774 OA
HETATM   32  H   UNK     0       9.495  -2.482  20.899  0.00  0.00     0.167 HD
ENDBRANCH  29  31
ENDBRANCH   6  29
BRANCH   3  33
HETATM   33  O   UNK     0      13.313   2.137  22.500  0.00  0.00    -0.388 OA
HETATM   34  H   UNK     0      13.389   1.861  23.429  0.00  0.00     0.210 HD
ENDBRANCH   3  33
BRANCH   4  35
HETATM   35  O   UNK     0      11.664   0.878  18.184  0.00  0.00    -0.390 OA
HETATM   36  H   UNK     0      11.486   1.830  18.272  0.00  0.00     0.210 HD
ENDBRANCH   4  35
BRANCH   2  37
HETATM   37  O   UNK     0      14.055   1.454  19.733  0.00  0.00    -0.390 OA
HETATM   38  H   UNK     0      13.984   1.785  18.823  0.00  0.00     0.210 HD
ENDBRANCH   2  37
TORSDOF 10
ENDMDL
MODEL 9
REMARK VINA RESULT:      -7.3      3.678      6.304
REMARK  10 active torsions:
REMARK  status: ('A' for Active; 'I' for Inactive)
REMARK    1  A    between atoms: O_2  and  C_15 
REMARK    2  A    between atoms: O_2  and  C_18 
REMARK    3  A    between atoms: O_3  and  C_12 
REMARK    4  A    between atoms: O_4  and  C_13 
REMARK    5  A    between atoms: O_5  and  C_14 
REMARK    6  A    between atoms: O_6  and  C_17 
REMARK    7  A    between atoms: O_9  and  C_20 
REMARK    8  A    between atoms: O_10  and  C_23 
REMARK    9  A    between atoms: C_16  and  C_17 
REMARK   10  A    between atoms: C_25  and  C_27 
ROOT
HETATM    1  O   UNK     0       9.611  -0.870  24.272  0.00  0.00    -0.340 OA
HETATM    2  C   UNK     0       7.537   1.056  24.767  0.00  0.00     0.183 C 
HETATM    3  C   UNK     0       7.755  -0.161  25.666  0.00  0.00     0.205 C 
HETATM    4  C   UNK     0       8.801   1.404  23.981  0.00  0.00     0.189 C 
HETATM    5  C   UNK     0       8.405  -1.309  24.893  0.00  0.00     0.299 C 
HETATM    6  C   UNK     0       9.383   0.161  23.318  0.00  0.00     0.253 C 
ENDROOT
BRANCH   5   7
HETATM    7  O   UNK     0       8.695  -2.356  25.820  0.00  0.00    -0.315 OA
BRANCH   7   8
HETATM    8  C   UNK     0       9.135  -3.535  25.293  0.00  0.00     0.110 A 
HETATM    9  C   UNK     0      10.498  -3.711  25.057  0.00  0.00     0.078 A 
HETATM   10  C   UNK     0      10.959  -4.914  24.518  0.00  0.00     0.096 A 
HETATM   11  O   UNK     0      12.309  -5.028  24.308  0.00  0.00    -0.309 OA
HETATM   12  C   UNK     0      10.057  -5.932  24.217  0.00  0.00     0.084 A 
HETATM   13  C   UNK     0      12.797  -6.214  23.780  0.00  0.00     0.090 A 
HETATM   14  C   UNK     0      12.031  -7.264  23.445  0.00  0.00     0.094 A 
HETATM   15  C   UNK     0      10.570  -7.188  23.648  0.00  0.00     0.190 A 
HETATM   16  O   UNK     0       9.835  -8.123  23.357  0.00  0.00    -0.287 OA
HETATM   17  C   UNK     0       8.691  -5.759  24.452  0.00  0.00     0.118 A 
HETATM   18  C   UNK     0       8.233  -4.556  24.991  0.00  0.00     0.134 A 
BRANCH  13  19
HETATM   19  C   UNK     0      14.262  -6.230  23.591  0.00  0.00    -0.002 A 
HETATM   20  C   UNK     0      14.931  -5.066  23.201  0.00  0.00     0.014 A 
HETATM   21  C   UNK     0      16.315  -5.081  23.023  0.00  0.00     0.001 A 
HETATM   22  C   UNK     0      17.034  -6.257  23.235  0.00  0.00     0.000 A 
HETATM   23  C   UNK     0      16.369  -7.420  23.625  0.00  0.00     0.001 A 
HETATM   24  C   UNK     0      14.985  -7.406  23.802  0.00  0.00     0.014 A 
ENDBRANCH  13  19
BRANCH  17  25
HETATM   25  O   UNK     0       7.780  -6.733  24.170  0.00  0.00    -0.357 OA
HETATM   26  H   UNK     0       7.725  -6.887  23.214  0.00  0.00     0.217 HD
ENDBRANCH  17  25
BRANCH  18  27
HETATM   27  O   UNK     0       6.901  -4.375  25.224  0.00  0.00    -0.356 OA
HETATM   28  H   UNK     0       6.401  -4.866  24.549  0.00  0.00     0.218 HD
ENDBRANCH  18  27
ENDBRANCH   7   8
ENDBRANCH   5   7
BRANCH   6  29
HETATM   29  C   UNK     0      10.748   0.435  22.775  0.00  0.00     0.172 C 
HETATM   30  O   UNK     0      11.341  -0.276  21.977  0.00  0.00    -0.648 OA
BRANCH  29  31
HETATM   31  O   UNK     0      11.247   1.584  23.291  0.00  0.00    -0.774 OA
HETATM   32  H   UNK     0      11.625   1.450  24.187  0.00  0.00     0.167 HD
ENDBRANCH  29  31
ENDBRANCH   6  29
BRANCH   3  33
HETATM   33  O   UNK     0       6.496  -0.614  26.164  0.00  0.00    -0.388 OA
HETATM   34  H   UNK     0       6.658  -1.416  26.689  0.00  0.00     0.210 HD
ENDBRANCH   3  33
BRANCH   4  35
HETATM   35  O   UNK     0       8.475   2.353  22.969  0.00  0.00    -0.390 OA
HETATM   36  H   UNK     0       8.006   1.886  22.257  0.00  0.00     0.210 HD
ENDBRANCH   4  35
BRANCH   2  37
HETATM   37  O   UNK     0       7.191   2.186  25.571  0.00  0.00    -0.390 OA
HETATM   38  H   UNK     0       7.927   2.818  25.523  0.00  0.00     0.210 HD
ENDBRANCH   2  37
TORSDOF 10
ENDMDL
MODEL 10
REMARK VINA RESULT:      -7.3      2.827      3.870
REMARK  10 active torsions:
REMARK  status: ('A' for Active; 'I' for Inactive)
REMARK    1  A    between atoms: O_2  and  C_15 
REMARK    2  A    between atoms: O_2  and  C_18 
REMARK    3  A    between atoms: O_3  and  C_12 
REMARK    4  A    between atoms: O_4  and  C_13 
REMARK    5  A    between atoms: O_5  and  C_14 
REMARK    6  A    between atoms: O_6  and  C_17 
REMARK    7  A    between atoms: O_9  and  C_20 
REMARK    8  A    between atoms: O_10  and  C_23 
REMARK    9  A    between atoms: C_16  and  C_17 
REMARK   10  A    between atoms: C_25  and  C_27 
ROOT
HETATM    1  O   UNK     0      11.845   0.926  22.798  0.00  0.00    -0.340 OA
HETATM    2  C   UNK     0      11.452   1.187  19.964  0.00  0.00     0.183 C 
HETATM    3  C   UNK     0      10.286   1.033  20.942  0.00  0.00     0.205 C 
HETATM    4  C   UNK     0      12.703   1.715  20.665  0.00  0.00     0.189 C 
HETATM    5  C   UNK     0      10.718   0.286  22.204  0.00  0.00     0.299 C 
HETATM    6  C   UNK     0      12.981   0.928  21.940  0.00  0.00     0.253 C 
ENDROOT
BRANCH   5   7
HETATM    7  O   UNK     0       9.621   0.295  23.118  0.00  0.00    -0.315 OA
BRANCH   7   8
HETATM    8  C   UNK     0       9.260  -0.907  23.650  0.00  0.00     0.110 A 
HETATM    9  C   UNK     0       9.936  -2.061  23.254  0.00  0.00     0.078 A 
HETATM   10  C   UNK     0       9.574  -3.297  23.793  0.00  0.00     0.096 A 
HETATM   11  O   UNK     0      10.274  -4.396  23.364  0.00  0.00    -0.309 OA
HETATM   12  C   UNK     0       8.540  -3.374  24.724  0.00  0.00     0.084 A 
HETATM   13  C   UNK     0       9.942  -5.636  23.888  0.00  0.00     0.090 A 
HETATM   14  C   UNK     0       8.964  -5.840  24.784  0.00  0.00     0.094 A 
HETATM   15  C   UNK     0       8.179  -4.690  25.274  0.00  0.00     0.190 A 
HETATM   16  O   UNK     0       7.280  -4.832  26.093  0.00  0.00    -0.287 OA
HETATM   17  C   UNK     0       7.861  -2.221  25.124  0.00  0.00     0.118 A 
HETATM   18  C   UNK     0       8.225  -0.988  24.583  0.00  0.00     0.134 A 
BRANCH  13  19
HETATM   19  C   UNK     0      10.753  -6.749  23.355  0.00  0.00    -0.002 A 
HETATM   20  C   UNK     0      10.353  -8.072  23.564  0.00  0.00     0.014 A 
HETATM   21  C   UNK     0      11.119  -9.123  23.060  0.00  0.00     0.001 A 
HETATM   22  C   UNK     0      12.287  -8.856  22.346  0.00  0.00     0.000 A 
HETATM   23  C   UNK     0      12.690  -7.537  22.136  0.00  0.00     0.001 A 
HETATM   24  C   UNK     0      11.924  -6.486  22.640  0.00  0.00     0.014 A 
ENDBRANCH  13  19
BRANCH  17  25
HETATM   25  O   UNK     0       6.845  -2.259  26.032  0.00  0.00    -0.357 OA
HETATM   26  H   UNK     0       6.922  -1.529  26.665  0.00  0.00     0.217 HD
ENDBRANCH  17  25
BRANCH  18  27
HETATM   27  O   UNK     0       7.568   0.146  24.966  0.00  0.00    -0.356 OA
HETATM   28  H   UNK     0       6.825   0.293  24.355  0.00  0.00     0.218 HD
ENDBRANCH  18  27
ENDBRANCH   7   8
ENDBRANCH   5   7
BRANCH   6  29
HETATM   29  C   UNK     0      14.032   1.597  22.764  0.00  0.00     0.172 C 
HETATM   30  O   UNK     0      14.307   2.787  22.720  0.00  0.00    -0.648 OA
BRANCH  29  31
HETATM   31  O   UNK     0      14.650   0.701  23.572  0.00  0.00    -0.774 OA
HETATM   32  H   UNK     0      15.597   0.592  23.343  0.00  0.00     0.167 HD
ENDBRANCH  29  31
ENDBRANCH   6  29
BRANCH   3  33
HETATM   33  O   UNK     0       9.239   0.290  20.318  0.00  0.00    -0.388 OA
HETATM   34  H   UNK     0       8.695   0.916  19.811  0.00  0.00     0.210 HD
ENDBRANCH   3  33
BRANCH   4  35
HETATM   35  O   UNK     0      13.821   1.579  19.790  0.00  0.00    -0.390 OA
HETATM   36  H   UNK     0      13.572   0.968  19.076  0.00  0.00     0.210 HD
ENDBRANCH   4  35
BRANCH   2  37
HETATM   37  O   UNK     0      11.094   2.115  18.938  0.00  0.00    -0.390 OA
HETATM   38  H   UNK     0      11.554   2.950  19.124  0.00  0.00     0.210 HD
ENDBRANCH   2  37
TORSDOF 10
ENDMDL
