MODEL 1
REMARK VINA RESULT:     -11.3      0.000      0.000
REMARK  8 active torsions:
REMARK  status: ('A' for Active; 'I' for Inactive)
REMARK    1  A    between atoms: O_1  and  C_33 
REMARK    2  A    between atoms: O_1  and  C_49 
REMARK    3  A    between atoms: O_8  and  C_53 
REMARK    4  A    between atoms: O_12  and  C_56 
REMARK    5  A    between atoms: O_13  and  C_57 
REMARK    6  A    between atoms: O_14  and  C_59 
REMARK    7  A    between atoms: C_52  and  C_55 
REMARK    8  A    between atoms: C_58  and  C_60 
ROOT
HETATM    1  O   MOL     1       9.835  -6.905  25.449  1.00  0.00     0.000 OA
ENDROOT
BRANCH   1   2
HETATM    2  C   MOL     1       9.769  -5.948  25.164  1.00  0.00     0.007 C 
HETATM    3  C   MOL     1       9.181  -5.247  25.751  1.00  0.00    -0.058 C 
HETATM    4  C   MOL     1       9.538  -4.107  25.779  1.00  0.00    -0.007 C 
HETATM    5  C   MOL     1       8.530  -5.065  26.487  1.00  0.00     0.027 C 
HETATM    6  C   MOL     1       8.876  -5.992  26.343  1.00  0.00    -0.005 C 
HETATM    7  C   MOL     1       9.692  -3.859  24.637  1.00  0.00    -0.037 A 
HETATM    8  C   MOL     1       8.558  -3.536  26.000  1.00  0.00     0.006 C 
HETATM    9  C   MOL     1      10.071  -2.747  24.727  1.00  0.00     0.013 A 
HETATM   10  C   MOL     1      10.362  -4.522  24.100  1.00  0.00     0.014 C 
HETATM   11  C   MOL     1       9.519  -3.699  23.278  1.00  0.00     0.081 C 
HETATM   12  C   MOL     1      10.243  -2.511  23.647  1.00  0.00    -0.024 A 
HETATM   13  C   MOL     1       9.077  -2.212  24.895  1.00  0.00    -0.033 A 
HETATM   14  C   MOL     1       9.128  -1.227  24.701  1.00  0.00    -0.030 A 
HETATM   15  C   MOL     1       8.537  -2.531  25.726  1.00  0.00     0.011 C 
HETATM   16  C   MOL     1       7.711  -2.045  24.983  1.00  0.00     0.044 C 
HETATM   17  C   MOL     1       9.641  -0.907  23.902  1.00  0.00    -0.018 A 
HETATM   18  C   MOL     1       9.245   0.003  23.312  1.00  0.00    -0.002 C 
HETATM   19  C   MOL     1      10.217  -1.544  23.391  1.00  0.00    -0.036 C 
HETATM   20  C   MOL     1       8.484  -0.584  25.211  1.00  0.00     0.041 A 
HETATM   21  C   MOL     1       8.988   0.757  24.120  1.00  0.00    -0.059 C 
HETATM   22  C   MOL     1      10.230   0.429  22.788  1.00  0.00     0.003 C 
HETATM   23  C   MOL     1       8.452   0.423  24.951  1.00  0.00     0.009 C 
HETATM   24  C   MOL     1       8.993   1.816  23.880  1.00  0.00     0.014 C 
HETATM   25  C   MOL     1       7.693   1.224  24.034  1.00  0.00     0.028 C 
HETATM   26  C   MOL     1       9.590   2.173  23.048  1.00  0.00     0.253 A 
HETATM   27  C   MOL     1      10.251   1.484  22.530  1.00  0.00     0.003 A 
HETATM   28  O   MOL     1      10.182   3.145  22.040  1.00  0.00    -0.382 OA
HETATM   29  C   MOL     1      11.623   1.472  22.388  1.00  0.00     0.044 C 
HETATM   30  C   MOL     1      10.523   2.215  21.902  1.00  0.00     0.080 A 
HETATM   31  O   MOL     1      11.174   2.026  21.167  1.00  0.00     0.000 OA
HETATM   32  C   MOL     1       9.212  -1.044  26.065  1.00  0.00     0.025 C 
HETATM   33  C   MOL     1      10.401  -5.574  24.365  1.00  0.00    -0.012 C 
HETATM   34  O   MOL     1      10.820  -3.149  23.136  1.00  0.00     0.000 OA
ENDBRANCH   1   2
BRANCH   1  35
HETATM   35  C   MOL     1      10.569  -7.485  25.092  1.00  0.00    -0.027 A 
HETATM   36  O   MOL     1      10.720  -7.543  24.103  1.00  0.00     0.000 OA
HETATM   37  C   MOL     1      11.385  -8.195  23.735  1.00  0.00     0.096 A 
HETATM   38  C   MOL     1      11.967  -8.717  24.365  1.00  0.00     0.133 A 
HETATM   39  C   MOL     1      11.713  -8.767  25.336  1.00  0.00     0.055 A 
HETATM   40  O   MOL     1      11.571 -10.040  25.847  1.00  0.00     0.000 OA
HETATM   41  C   MOL     1      11.082  -8.079  25.711  1.00  0.00     0.007 A 
HETATM   42  H   MOL     1      12.694  -9.707  25.737  1.00  0.00     0.000 HD
HETATM   43  O   MOL     1      12.074  -9.303  26.944  1.00  0.00     0.000 OA
HETATM   44  C   MOL     1      11.341  -8.723  27.302  1.00  0.00     0.057 A 
HETATM   45  C   MOL     1      12.554  -9.932  27.558  1.00  0.00     0.071 C 
HETATM   46  O   MOL     1      10.862  -8.093  26.687  1.00  0.00     0.000 OA
HETATM   47  C   MOL     1      11.224  -8.629  28.295  1.00  0.00     0.154 A 
HETATM   48  C   MOL     1      11.669  -9.295  28.903  1.00  0.00     0.211 A 
HETATM   49  C   MOL     1      12.437  -9.839  28.552  1.00  0.00     0.146 C 
BRANCH  37  50
HETATM   50  C   MOL     1      10.916  -8.896  22.644  1.00  0.00     0.297 C 
HETATM   51  O   MOL     1      12.226  -8.532  22.258  1.00  0.00    -0.188 OA
HETATM   52  O   MOL     1      10.802  -7.547  22.237  1.00  0.00    -0.188 OA
ENDBRANCH  37  50
BRANCH  38  53
HETATM   53  O   MOL     1      13.321  -8.654  24.111  1.00  0.00    -0.395 OA
HETATM   54  H   MOL     1      12.831  -7.598  24.278  1.00  0.00     0.210 HD
ENDBRANCH  38  53
BRANCH  47  55
HETATM   55  O   MOL     1      11.180  -7.334  28.767  1.00  0.00    -0.393 OA
HETATM   56  H   MOL     1      10.191  -7.936  28.973  1.00  0.00     0.210 HD
ENDBRANCH  47  55
BRANCH  48  57
HETATM   57  O   MOL     1      10.828  -9.952  29.777  1.00  0.00    -0.392 OA
HETATM   58  H   MOL     1      10.834 -10.421  28.698  1.00  0.00     0.210 HD
ENDBRANCH  48  57
BRANCH  49  59
HETATM   59  O   MOL     1      13.605  -9.753  29.280  1.00  0.00    -0.399 OA
HETATM   60  H   MOL     1      13.354  -8.769  28.688  1.00  0.00     0.209 HD
ENDBRANCH  49  59
BRANCH  45  61
HETATM   61  C   MOL     1      12.598 -11.228  27.086  1.00  0.00     0.292 C 
HETATM   62  O   MOL     1      13.266 -11.311  28.329  1.00  0.00    -0.188 OA
HETATM   63  O   MOL     1      13.899 -10.740  26.821  1.00  0.00    -0.188 OA
ENDBRANCH  45  61
ENDBRANCH   1  35
TORSDOF 8
ENDMDL
MODEL 2
REMARK VINA RESULT:     -11.2      4.862      9.803
REMARK  8 active torsions:
REMARK  status: ('A' for Active; 'I' for Inactive)
REMARK    1  A    between atoms: O_1  and  C_33 
REMARK    2  A    between atoms: O_1  and  C_49 
REMARK    3  A    between atoms: O_8  and  C_53 
REMARK    4  A    between atoms: O_12  and  C_56 
REMARK    5  A    between atoms: O_13  and  C_57 
REMARK    6  A    between atoms: O_14  and  C_59 
REMARK    7  A    between atoms: C_52  and  C_55 
REMARK    8  A    between atoms: C_58  and  C_60 
ROOT
HETATM    1  O   MOL     1      15.026   1.167  22.648  1.00  0.00     0.000 OA
ENDROOT
BRANCH   1   2
HETATM    2  C   MOL     1      14.255   0.650  23.022  1.00  0.00     0.007 C 
HETATM    3  C   MOL     1      13.237   0.927  22.762  1.00  0.00    -0.058 C 
HETATM    4  C   MOL     1      12.419   0.058  22.708  1.00  0.00    -0.007 C 
HETATM    5  C   MOL     1      12.593   1.565  22.338  1.00  0.00     0.027 C 
HETATM    6  C   MOL     1      13.578   1.722  22.259  1.00  0.00    -0.005 C 
HETATM    7  C   MOL     1      12.579  -0.508  23.728  1.00  0.00    -0.037 A 
HETATM    8  C   MOL     1      11.432   0.621  22.918  1.00  0.00     0.006 C 
HETATM    9  C   MOL     1      11.779  -1.364  23.606  1.00  0.00     0.013 A 
HETATM   10  C   MOL     1      13.589  -0.858  23.916  1.00  0.00     0.014 C 
HETATM   11  C   MOL     1      12.724  -0.823  25.063  1.00  0.00     0.081 C 
HETATM   12  C   MOL     1      11.940  -1.921  24.562  1.00  0.00    -0.024 A 
HETATM   13  C   MOL     1      10.830  -0.786  23.868  1.00  0.00    -0.033 A 
HETATM   14  C   MOL     1      10.065  -1.387  24.118  1.00  0.00    -0.030 A 
HETATM   15  C   MOL     1      10.638   0.045  23.270  1.00  0.00     0.011 C 
HETATM   16  C   MOL     1      10.048   0.262  24.307  1.00  0.00     0.044 C 
HETATM   17  C   MOL     1      10.234  -2.188  24.695  1.00  0.00    -0.018 A 
HETATM   18  C   MOL     1       9.436  -2.497  25.470  1.00  0.00    -0.002 C 
HETATM   19  C   MOL     1      11.173  -2.468  24.896  1.00  0.00    -0.036 C 
HETATM   20  C   MOL     1       9.091  -1.056  23.943  1.00  0.00     0.041 A 
HETATM   21  C   MOL     1       8.463  -2.455  24.886  1.00  0.00    -0.059 C 
HETATM   22  C   MOL     1       9.656  -3.661  25.628  1.00  0.00     0.003 C 
HETATM   23  C   MOL     1       8.287  -1.620  24.287  1.00  0.00     0.009 C 
HETATM   24  C   MOL     1       7.626  -3.070  25.203  1.00  0.00     0.014 C 
HETATM   25  C   MOL     1       7.504  -1.668  25.489  1.00  0.00     0.028 C 
HETATM   26  C   MOL     1       7.812  -3.968  25.784  1.00  0.00     0.253 A 
HETATM   27  C   MOL     1       8.834  -4.292  25.955  1.00  0.00     0.003 A 
HETATM   28  O   MOL     1       7.517  -5.226  26.585  1.00  0.00    -0.382 OA
HETATM   29  C   MOL     1       9.501  -5.439  25.577  1.00  0.00     0.044 C 
HETATM   30  C   MOL     1       8.500  -5.062  26.501  1.00  0.00     0.080 A 
HETATM   31  O   MOL     1       9.149  -5.695  26.923  1.00  0.00     0.000 OA
HETATM   32  C   MOL     1       9.585  -1.176  22.842  1.00  0.00     0.025 C 
HETATM   33  C   MOL     1      14.433  -0.276  23.561  1.00  0.00    -0.012 C 
HETATM   34  O   MOL     1      12.880  -2.202  24.763  1.00  0.00     0.000 OA
ENDBRANCH   1   2
BRANCH   1  35
HETATM   35  C   MOL     1      15.817   1.375  23.223  1.00  0.00    -0.027 A 
HETATM   36  O   MOL     1      15.678   1.712  24.157  1.00  0.00     0.000 OA
HETATM   37  C   MOL     1      16.461   2.015  24.703  1.00  0.00     0.096 A 
HETATM   38  C   MOL     1      17.392   1.887  24.347  1.00  0.00     0.133 A 
HETATM   39  C   MOL     1      17.517   1.694  23.368  1.00  0.00     0.055 A 
HETATM   40  O   MOL     1      18.350   2.563  22.695  1.00  0.00     0.000 OA
HETATM   41  C   MOL     1      16.739   1.343  22.837  1.00  0.00     0.007 A 
HETATM   42  H   MOL     1      18.931   1.772  23.344  1.00  0.00     0.000 HD
HETATM   43  O   MOL     1      18.577   1.325  22.048  1.00  0.00     0.000 OA
HETATM   44  C   MOL     1      17.786   1.116  21.472  1.00  0.00     0.057 A 
HETATM   45  C   MOL     1      19.494   1.340  21.646  1.00  0.00     0.071 C 
HETATM   46  O   MOL     1      16.869   1.102  21.874  1.00  0.00     0.000 OA
HETATM   47  C   MOL     1      17.929   0.733  20.554  1.00  0.00     0.154 A 
HETATM   48  C   MOL     1      18.842   0.795  20.137  1.00  0.00     0.211 A 
HETATM   49  C   MOL     1      19.638   0.956  20.728  1.00  0.00     0.146 C 
BRANCH  37  50
HETATM   50  C   MOL     1      16.238   3.205  25.364  1.00  0.00     0.297 C 
HETATM   51  O   MOL     1      16.634   2.326  26.399  1.00  0.00    -0.188 OA
HETATM   52  O   MOL     1      15.077   2.450  25.651  1.00  0.00    -0.188 OA
ENDBRANCH  37  50
BRANCH  38  53
HETATM   53  O   MOL     1      18.267   1.242  25.195  1.00  0.00    -0.395 OA
HETATM   54  H   MOL     1      17.828   0.540  24.359  1.00  0.00     0.210 HD
ENDBRANCH  38  53
BRANCH  47  55
HETATM   55  O   MOL     1      17.231  -0.424  20.280  1.00  0.00    -0.393 OA
HETATM   56  H   MOL     1      18.380  -0.606  20.452  1.00  0.00     0.210 HD
ENDBRANCH  47  55
BRANCH  48  57
HETATM   57  O   MOL     1      18.888   1.408  18.902  1.00  0.00    -0.392 OA
HETATM   58  H   MOL     1      18.621   0.263  18.842  1.00  0.00     0.210 HD
ENDBRANCH  48  57
BRANCH  49  59
HETATM   59  O   MOL     1      20.648   0.022  20.628  1.00  0.00    -0.399 OA
HETATM   60  H   MOL     1      20.910   0.914  21.349  1.00  0.00     0.209 HD
ENDBRANCH  49  59
BRANCH  45  61
HETATM   61  C   MOL     1      20.193   2.497  21.921  1.00  0.00     0.292 C 
HETATM   62  O   MOL     1      21.091   1.758  21.116  1.00  0.00    -0.188 OA
HETATM   63  O   MOL     1      20.766   1.553  22.805  1.00  0.00    -0.188 OA
ENDBRANCH  45  61
ENDBRANCH   1  35
TORSDOF 8
ENDMDL
MODEL 3
REMARK VINA RESULT:     -10.9      2.978      9.835
REMARK  8 active torsions:
REMARK  status: ('A' for Active; 'I' for Inactive)
REMARK    1  A    between atoms: O_1  and  C_33 
REMARK    2  A    between atoms: O_1  and  C_49 
REMARK    3  A    between atoms: O_8  and  C_53 
REMARK    4  A    between atoms: O_12  and  C_56 
REMARK    5  A    between atoms: O_13  and  C_57 
REMARK    6  A    between atoms: O_14  and  C_59 
REMARK    7  A    between atoms: C_52  and  C_55 
REMARK    8  A    between atoms: C_58  and  C_60 
ROOT
HETATM    1  O   MOL     1       9.897  -1.661  22.680  1.00  0.00     0.000 OA
ENDROOT
BRANCH   1   2
HETATM    2  C   MOL     1      10.128  -2.629  22.794  1.00  0.00     0.007 C 
HETATM    3  C   MOL     1       9.616  -3.225  23.544  1.00  0.00    -0.058 C 
HETATM    4  C   MOL     1       9.452  -4.387  23.316  1.00  0.00    -0.007 C 
HETATM    5  C   MOL     1       8.999  -3.289  24.329  1.00  0.00     0.027 C 
HETATM    6  C   MOL     1       9.136  -2.411  23.870  1.00  0.00    -0.005 C 
HETATM    7  C   MOL     1      10.529  -4.737  22.992  1.00  0.00    -0.037 A 
HETATM    8  C   MOL     1       9.378  -4.848  24.373  1.00  0.00     0.006 C 
HETATM    9  C   MOL     1      10.303  -5.868  22.750  1.00  0.00     0.013 A 
HETATM   10  C   MOL     1      10.976  -4.182  22.174  1.00  0.00     0.014 C 
HETATM   11  C   MOL     1      11.884  -4.990  22.940  1.00  0.00     0.081 C 
HETATM   12  C   MOL     1      11.316  -6.204  22.418  1.00  0.00    -0.024 A 
HETATM   13  C   MOL     1      10.285  -6.297  23.807  1.00  0.00    -0.033 A 
HETATM   14  C   MOL     1      10.404  -7.294  23.826  1.00  0.00    -0.030 A 
HETATM   15  C   MOL     1       9.587  -5.866  24.449  1.00  0.00     0.011 C 
HETATM   16  C   MOL     1      10.435  -6.333  25.178  1.00  0.00     0.044 C 
HETATM   17  C   MOL     1      11.075  -7.722  23.217  1.00  0.00    -0.018 A 
HETATM   18  C   MOL     1      11.669  -8.637  23.595  1.00  0.00    -0.002 C 
HETATM   19  C   MOL     1      11.512  -7.182  22.498  1.00  0.00    -0.036 C 
HETATM   20  C   MOL     1       9.980  -7.834  24.611  1.00  0.00     0.041 A 
HETATM   21  C   MOL     1      10.875  -9.298  24.065  1.00  0.00    -0.059 C 
HETATM   22  C   MOL     1      11.978  -9.191  22.582  1.00  0.00     0.003 C 
HETATM   23  C   MOL     1      10.179  -8.852  24.700  1.00  0.00     0.009 C 
HETATM   24  C   MOL     1      11.044 -10.370  24.127  1.00  0.00     0.014 C 
HETATM   25  C   MOL     1      11.166  -9.653  25.365  1.00  0.00     0.028 C 
HETATM   26  C   MOL     1      11.731 -10.844  23.433  1.00  0.00     0.253 A 
HETATM   27  C   MOL     1      12.162 -10.261  22.624  1.00  0.00     0.003 A 
HETATM   28  O   MOL     1      12.551 -11.942  22.777  1.00  0.00    -0.382 OA
HETATM   29  C   MOL     1      12.053 -10.383  21.255  1.00  0.00     0.044 C 
HETATM   30  C   MOL     1      12.683 -11.061  22.324  1.00  0.00     0.080 A 
HETATM   31  O   MOL     1      13.298 -10.990  21.538  1.00  0.00     0.000 OA
HETATM   32  C   MOL     1       9.039  -7.375  24.000  1.00  0.00     0.025 C 
HETATM   33  C   MOL     1      10.774  -3.121  22.074  1.00  0.00    -0.012 C 
HETATM   34  O   MOL     1      11.753  -5.664  21.698  1.00  0.00     0.000 OA
ENDBRANCH   1   2
BRANCH   1  35
HETATM   35  C   MOL     1      10.622  -0.984  22.551  1.00  0.00    -0.027 A 
HETATM   36  O   MOL     1      11.209  -0.731  23.322  1.00  0.00     0.000 OA
HETATM   37  C   MOL     1      11.870   0.015  23.225  1.00  0.00     0.096 A 
HETATM   38  C   MOL     1      12.008   0.440  22.325  1.00  0.00     0.133 A 
HETATM   39  C   MOL     1      11.324   0.290  21.605  1.00  0.00     0.055 A 
HETATM   40  O   MOL     1      10.782   1.433  21.056  1.00  0.00     0.000 OA
HETATM   41  C   MOL     1      10.695  -0.491  21.684  1.00  0.00     0.007 A 
HETATM   42  H   MOL     1      11.859   1.190  20.651  1.00  0.00     0.000 HD
HETATM   43  O   MOL     1      10.810   0.530  19.967  1.00  0.00     0.000 OA
HETATM   44  C   MOL     1      10.084  -0.148  20.097  1.00  0.00     0.057 A 
HETATM   45  C   MOL     1      10.851   1.058  19.117  1.00  0.00     0.071 C 
HETATM   46  O   MOL     1      10.044  -0.675  20.947  1.00  0.00     0.000 OA
HETATM   47  C   MOL     1       9.529  -0.435  19.309  1.00  0.00     0.154 A 
HETATM   48  C   MOL     1       9.538   0.127  18.476  1.00  0.00     0.211 A 
HETATM   49  C   MOL     1      10.296   0.771  18.330  1.00  0.00     0.146 C 
BRANCH  37  50
HETATM   50  C   MOL     1      11.874   0.884  24.297  1.00  0.00     0.297 C 
HETATM   51  O   MOL     1      13.214   0.439  24.233  1.00  0.00    -0.188 OA
HETATM   52  O   MOL     1      11.852  -0.390  24.910  1.00  0.00    -0.188 OA
ENDBRANCH  37  50
BRANCH  38  53
HETATM   53  O   MOL     1      13.317   0.503  21.895  1.00  0.00    -0.395 OA
HETATM   54  H   MOL     1      13.050  -0.515  22.420  1.00  0.00     0.210 HD
ENDBRANCH  38  53
BRANCH  47  55
HETATM   55  O   MOL     1       9.452  -1.797  19.105  1.00  0.00    -0.393 OA
HETATM   56  H   MOL     1       8.568  -1.374  19.755  1.00  0.00     0.210 HD
ENDBRANCH  47  55
BRANCH  48  57
HETATM   57  O   MOL     1       8.303   0.558  18.040  1.00  0.00    -0.392 OA
HETATM   58  H   MOL     1       9.196   1.008  17.420  1.00  0.00     0.210 HD
ENDBRANCH  48  57
BRANCH  49  59
HETATM   59  O   MOL     1      10.985   0.614  17.145  1.00  0.00    -0.399 OA
HETATM   60  H   MOL     1      10.554   1.699  17.292  1.00  0.00     0.209 HD
ENDBRANCH  49  59
BRANCH  45  61
HETATM   61  C   MOL     1      10.929   2.420  19.322  1.00  0.00     0.292 C 
HETATM   62  O   MOL     1      10.928   2.302  17.913  1.00  0.00    -0.188 OA
HETATM   63  O   MOL     1      12.258   2.063  18.997  1.00  0.00    -0.188 OA
ENDBRANCH  45  61
ENDBRANCH   1  35
TORSDOF 8
ENDMDL
MODEL 4
REMARK VINA RESULT:     -10.2      9.177     14.880
REMARK  8 active torsions:
REMARK  status: ('A' for Active; 'I' for Inactive)
REMARK    1  A    between atoms: O_1  and  C_33 
REMARK    2  A    between atoms: O_1  and  C_49 
REMARK    3  A    between atoms: O_8  and  C_53 
REMARK    4  A    between atoms: O_12  and  C_56 
REMARK    5  A    between atoms: O_13  and  C_57 
REMARK    6  A    between atoms: O_14  and  C_59 
REMARK    7  A    between atoms: C_52  and  C_55 
REMARK    8  A    between atoms: C_58  and  C_60 
ROOT
HETATM    1  O   MOL     1      14.853   5.475  19.186  1.00  0.00     0.000 OA
ENDROOT
BRANCH   1   2
HETATM    2  C   MOL     1      15.273   5.845  18.356  1.00  0.00     0.007 C 
HETATM    3  C   MOL     1      15.826   6.780  18.398  1.00  0.00    -0.058 C 
HETATM    4  C   MOL     1      16.745   6.917  17.648  1.00  0.00    -0.007 C 
HETATM    5  C   MOL     1      16.105   7.601  18.896  1.00  0.00     0.027 C 
HETATM    6  C   MOL     1      15.567   6.895  19.357  1.00  0.00    -0.005 C 
HETATM    7  C   MOL     1      16.276   6.614  16.611  1.00  0.00    -0.037 A 
HETATM    8  C   MOL     1      16.814   8.065  17.533  1.00  0.00     0.006 C 
HETATM    9  C   MOL     1      17.225   6.735  15.923  1.00  0.00     0.013 A 
HETATM   10  C   MOL     1      15.815   5.633  16.573  1.00  0.00     0.014 C 
HETATM   11  C   MOL     1      15.471   6.517  15.495  1.00  0.00     0.081 C 
HETATM   12  C   MOL     1      16.795   6.426  14.938  1.00  0.00    -0.024 A 
HETATM   13  C   MOL     1      17.232   7.869  15.793  1.00  0.00    -0.033 A 
HETATM   14  C   MOL     1      17.777   8.167  15.003  1.00  0.00    -0.030 A 
HETATM   15  C   MOL     1      17.292   8.417  16.677  1.00  0.00     0.011 C 
HETATM   16  C   MOL     1      16.784   9.171  15.875  1.00  0.00     0.044 C 
HETATM   17  C   MOL     1      17.726   7.653  14.146  1.00  0.00    -0.018 A 
HETATM   18  C   MOL     1      17.780   8.227  13.145  1.00  0.00    -0.002 C 
HETATM   19  C   MOL     1      17.256   6.771  14.120  1.00  0.00    -0.036 C 
HETATM   20  C   MOL     1      18.221   9.111  15.030  1.00  0.00     0.041 A 
HETATM   21  C   MOL     1      18.652   8.939  13.290  1.00  0.00    -0.059 C 
HETATM   22  C   MOL     1      18.178   7.397  12.383  1.00  0.00     0.003 C 
HETATM   23  C   MOL     1      18.704   9.476  14.183  1.00  0.00     0.009 C 
HETATM   24  C   MOL     1      19.197   9.296  12.421  1.00  0.00     0.014 C 
HETATM   25  C   MOL     1      18.324  10.255  13.039  1.00  0.00     0.028 C 
HETATM   26  C   MOL     1      19.187   8.713  11.506  1.00  0.00     0.253 A 
HETATM   27  C   MOL     1      18.716   7.734  11.502  1.00  0.00     0.003 A 
HETATM   28  O   MOL     1      19.468   8.336  10.061  1.00  0.00    -0.382 OA
HETATM   29  C   MOL     1      19.235   6.475  11.278  1.00  0.00     0.044 C 
HETATM   30  C   MOL     1      18.930   7.635  10.529  1.00  0.00     0.080 A 
HETATM   31  O   MOL     1      18.648   6.811  10.036  1.00  0.00     0.000 OA
HETATM   32  C   MOL     1      18.771   8.479  15.907  1.00  0.00     0.025 C 
HETATM   33  C   MOL     1      15.310   5.245  17.452  1.00  0.00    -0.012 C 
HETATM   34  O   MOL     1      16.324   5.543  14.913  1.00  0.00     0.000 OA
ENDBRANCH   1   2
BRANCH   1  35
HETATM   35  C   MOL     1      14.021   4.923  19.124  1.00  0.00    -0.027 A 
HETATM   36  O   MOL     1      13.163   5.348  18.826  1.00  0.00     0.000 OA
HETATM   37  C   MOL     1      12.308   4.828  18.856  1.00  0.00     0.096 A 
HETATM   38  C   MOL     1      12.332   3.851  19.091  1.00  0.00     0.133 A 
HETATM   39  C   MOL     1      13.155   3.474  19.527  1.00  0.00     0.055 A 
HETATM   40  O   MOL     1      12.947   2.832  20.730  1.00  0.00     0.000 OA
HETATM   41  C   MOL     1      14.022   3.978  19.451  1.00  0.00     0.007 A 
HETATM   42  H   MOL     1      12.645   2.181  19.799  1.00  0.00     0.000 HD
HETATM   43  O   MOL     1      14.014   2.104  20.152  1.00  0.00     0.000 OA
HETATM   44  C   MOL     1      14.847   2.656  20.214  1.00  0.00     0.057 A 
HETATM   45  C   MOL     1      14.004   1.175  20.526  1.00  0.00     0.071 C 
HETATM   46  O   MOL     1      14.855   3.585  19.841  1.00  0.00     0.000 OA
HETATM   47  C   MOL     1      15.714   2.215  20.466  1.00  0.00     0.154 A 
HETATM   48  C   MOL     1      15.693   1.302  20.885  1.00  0.00     0.211 A 
HETATM   49  C   MOL     1      14.871   0.734  20.777  1.00  0.00     0.146 C 
BRANCH  37  50
HETATM   50  C   MOL     1      11.254   5.540  19.388  1.00  0.00     0.297 C 
HETATM   51  O   MOL     1      10.790   5.184  18.100  1.00  0.00    -0.188 OA
HETATM   52  O   MOL     1      11.871   6.471  18.521  1.00  0.00    -0.188 OA
ENDBRANCH  37  50
BRANCH  38  53
HETATM   53  O   MOL     1      11.697   3.012  18.200  1.00  0.00    -0.395 OA
HETATM   54  H   MOL     1      12.865   2.875  18.215  1.00  0.00     0.210 HD
ENDBRANCH  38  53
BRANCH  47  55
HETATM   55  O   MOL     1      16.767   2.448  19.606  1.00  0.00    -0.393 OA
HETATM   56  H   MOL     1      16.109   1.524  19.294  1.00  0.00     0.210 HD
ENDBRANCH  47  55
BRANCH  48  57
HETATM   57  O   MOL     1      16.329   1.196  22.105  1.00  0.00    -0.392 OA
HETATM   58  H   MOL     1      17.074   1.324  21.202  1.00  0.00     0.210 HD
ENDBRANCH  48  57
BRANCH  49  59
HETATM   59  O   MOL     1      15.082  -0.514  20.229  1.00  0.00    -0.399 OA
HETATM   60  H   MOL     1      16.077   0.030  20.540  1.00  0.00     0.209 HD
ENDBRANCH  49  59
BRANCH  45  61
HETATM   61  C   MOL     1      12.950   0.943  21.385  1.00  0.00     0.292 C 
HETATM   62  O   MOL     1      13.741  -0.222  21.517  1.00  0.00    -0.188 OA
HETATM   63  O   MOL     1      12.623   0.163  20.251  1.00  0.00    -0.188 OA
ENDBRANCH  45  61
ENDBRANCH   1  35
TORSDOF 8
ENDMDL
MODEL 5
REMARK VINA RESULT:      -9.9      2.786      9.653
REMARK  8 active torsions:
REMARK  status: ('A' for Active; 'I' for Inactive)
REMARK    1  A    between atoms: O_1  and  C_33 
REMARK    2  A    between atoms: O_1  and  C_49 
REMARK    3  A    between atoms: O_8  and  C_53 
REMARK    4  A    between atoms: O_12  and  C_56 
REMARK    5  A    between atoms: O_13  and  C_57 
REMARK    6  A    between atoms: O_14  and  C_59 
REMARK    7  A    between atoms: C_52  and  C_55 
REMARK    8  A    between atoms: C_58  and  C_60 
ROOT
HETATM    1  O   MOL     1      10.194  -2.973  22.843  1.00  0.00     0.000 OA
ENDROOT
BRANCH   1   2
HETATM    2  C   MOL     1      10.584  -3.887  22.726  1.00  0.00     0.007 C 
HETATM    3  C   MOL     1      10.715  -4.299  21.729  1.00  0.00    -0.058 C 
HETATM    4  C   MOL     1      11.632  -5.044  21.550  1.00  0.00    -0.007 C 
HETATM    5  C   MOL     1      10.557  -4.250  20.743  1.00  0.00     0.027 C 
HETATM    6  C   MOL     1      10.258  -3.502  21.335  1.00  0.00    -0.005 C 
HETATM    7  C   MOL     1      11.518  -5.808  22.438  1.00  0.00    -0.037 A 
HETATM    8  C   MOL     1      11.272  -5.684  20.658  1.00  0.00     0.006 C 
HETATM    9  C   MOL     1      12.456  -6.491  22.233  1.00  0.00     0.013 A 
HETATM   10  C   MOL     1      11.487  -5.372  23.432  1.00  0.00     0.014 C 
HETATM   11  C   MOL     1      11.035  -6.733  23.341  1.00  0.00     0.081 C 
HETATM   12  C   MOL     1      12.369  -7.207  23.087  1.00  0.00    -0.024 A 
HETATM   13  C   MOL     1      12.048  -7.137  21.385  1.00  0.00    -0.033 A 
HETATM   14  C   MOL     1      12.573  -7.985  21.255  1.00  0.00    -0.030 A 
HETATM   15  C   MOL     1      11.727  -6.615  20.543  1.00  0.00     0.011 C 
HETATM   16  C   MOL     1      11.126  -7.666  20.507  1.00  0.00     0.044 C 
HETATM   17  C   MOL     1      12.884  -8.499  22.056  1.00  0.00    -0.018 A 
HETATM   18  C   MOL     1      12.898  -9.653  22.008  1.00  0.00    -0.002 C 
HETATM   19  C   MOL     1      12.805  -8.099  22.969  1.00  0.00    -0.036 C 
HETATM   20  C   MOL     1      12.604  -8.412  20.304  1.00  0.00     0.041 A 
HETATM   21  C   MOL     1      13.383  -9.876  21.006  1.00  0.00    -0.059 C 
HETATM   22  C   MOL     1      13.719  -9.944  22.825  1.00  0.00     0.003 C 
HETATM   23  C   MOL     1      13.057  -9.340  20.173  1.00  0.00     0.009 C 
HETATM   24  C   MOL     1      13.899 -10.821  20.864  1.00  0.00     0.014 C 
HETATM   25  C   MOL     1      12.625 -10.708  20.210  1.00  0.00     0.028 C 
HETATM   26  C   MOL     1      14.285 -11.355  21.726  1.00  0.00     0.253 A 
HETATM   27  C   MOL     1      14.239 -10.891  22.707  1.00  0.00     0.003 A 
HETATM   28  O   MOL     1      14.952 -12.460  22.528  1.00  0.00    -0.382 OA
HETATM   29  C   MOL     1      15.235 -10.508  23.581  1.00  0.00     0.044 C 
HETATM   30  C   MOL     1      14.650 -11.708  23.114  1.00  0.00     0.080 A 
HETATM   31  O   MOL     1      14.805 -11.751  24.101  1.00  0.00     0.000 OA
HETATM   32  C   MOL     1      13.182  -7.352  20.192  1.00  0.00     0.025 C 
HETATM   33  C   MOL     1      11.017  -4.405  23.577  1.00  0.00    -0.012 C 
HETATM   34  O   MOL     1      12.289  -6.806  24.001  1.00  0.00     0.000 OA
ENDBRANCH   1   2
BRANCH   1  35
HETATM   35  C   MOL     1       9.571  -2.786  23.603  1.00  0.00    -0.027 A 
HETATM   36  O   MOL     1       9.112  -3.546  24.068  1.00  0.00     0.000 OA
HETATM   37  C   MOL     1       8.414  -3.362  24.762  1.00  0.00     0.096 A 
HETATM   38  C   MOL     1       8.249  -2.416  25.058  1.00  0.00     0.133 A 
HETATM   39  C   MOL     1       8.595  -1.661  24.494  1.00  0.00     0.055 A 
HETATM   40  O   MOL     1       7.650  -0.742  24.088  1.00  0.00     0.000 OA
HETATM   41  C   MOL     1       9.331  -1.843  23.832  1.00  0.00     0.007 A 
HETATM   42  H   MOL     1       7.984  -0.601  25.207  1.00  0.00     0.000 HD
HETATM   43  O   MOL     1       8.815   0.043  24.258  1.00  0.00     0.000 OA
HETATM   44  C   MOL     1       9.438  -0.144  23.498  1.00  0.00     0.057 A 
HETATM   45  C   MOL     1       8.538   0.985  24.455  1.00  0.00     0.071 C 
HETATM   46  O   MOL     1       9.714  -1.086  23.302  1.00  0.00     0.000 OA
HETATM   47  C   MOL     1       9.934   0.617  23.067  1.00  0.00     0.154 A 
HETATM   48  C   MOL     1       9.620   1.558  23.230  1.00  0.00     0.211 A 
HETATM   49  C   MOL     1       9.034   1.745  24.024  1.00  0.00     0.146 C 
BRANCH  37  50
HETATM   50  C   MOL     1       7.287  -4.145  24.624  1.00  0.00     0.297 C 
HETATM   51  O   MOL     1       7.422  -4.011  26.026  1.00  0.00    -0.188 OA
HETATM   52  O   MOL     1       8.291  -5.078  24.973  1.00  0.00    -0.188 OA
ENDBRANCH  37  50
BRANCH  38  53
HETATM   53  O   MOL     1       8.294  -2.206  26.421  1.00  0.00    -0.395 OA
HETATM   54  H   MOL     1       7.855  -3.258  26.128  1.00  0.00     0.210 HD
ENDBRANCH  38  53
BRANCH  47  55
HETATM   55  O   MOL     1      11.301   0.456  22.974  1.00  0.00    -0.393 OA
HETATM   56  H   MOL     1      10.986   1.444  23.532  1.00  0.00     0.210 HD
ENDBRANCH  47  55
BRANCH  48  57
HETATM   57  O   MOL     1       9.335   2.291  22.097  1.00  0.00    -0.392 OA
HETATM   58  H   MOL     1      10.054   1.383  21.893  1.00  0.00     0.210 HD
ENDBRANCH  48  57
BRANCH  49  59
HETATM   59  O   MOL     1       9.500   2.713  24.889  1.00  0.00    -0.399 OA
HETATM   60  H   MOL     1       8.367   2.448  25.057  1.00  0.00     0.209 HD
ENDBRANCH  49  59
BRANCH  45  61
HETATM   61  C   MOL     1       7.171   1.145  24.548  1.00  0.00     0.292 C 
HETATM   62  O   MOL     1       7.674   2.413  24.921  1.00  0.00    -0.188 OA
HETATM   63  O   MOL     1       7.572   0.984  25.894  1.00  0.00    -0.188 OA
ENDBRANCH  45  61
ENDBRANCH   1  35
TORSDOF 8
ENDMDL
MODEL 6
REMARK VINA RESULT:      -9.7     13.618     17.490
REMARK  8 active torsions:
REMARK  status: ('A' for Active; 'I' for Inactive)
REMARK    1  A    between atoms: O_1  and  C_33 
REMARK    2  A    between atoms: O_1  and  C_49 
REMARK    3  A    between atoms: O_8  and  C_53 
REMARK    4  A    between atoms: O_12  and  C_56 
REMARK    5  A    between atoms: O_13  and  C_57 
REMARK    6  A    between atoms: O_14  and  C_59 
REMARK    7  A    between atoms: C_52  and  C_55 
REMARK    8  A    between atoms: C_58  and  C_60 
ROOT
HETATM    1  O   MOL     1      -4.536  -4.432  31.875  1.00  0.00     0.000 OA
ENDROOT
BRANCH   1   2
HETATM    2  C   MOL     1      -3.871  -5.176  31.961  1.00  0.00     0.007 C 
HETATM    3  C   MOL     1      -4.189  -6.207  31.836  1.00  0.00    -0.058 C 
HETATM    4  C   MOL     1      -3.403  -6.982  31.379  1.00  0.00    -0.007 C 
HETATM    5  C   MOL     1      -4.919  -6.883  31.736  1.00  0.00     0.027 C 
HETATM    6  C   MOL     1      -5.140  -5.908  31.754  1.00  0.00    -0.005 C 
HETATM    7  C   MOL     1      -2.444  -6.789  32.036  1.00  0.00    -0.037 A 
HETATM    8  C   MOL     1      -3.763  -7.994  31.804  1.00  0.00     0.006 C 
HETATM    9  C   MOL     1      -1.701  -7.548  31.525  1.00  0.00     0.013 A 
HETATM   10  C   MOL     1      -2.093  -5.763  32.063  1.00  0.00     0.014 C 
HETATM   11  C   MOL     1      -1.565  -6.623  33.085  1.00  0.00     0.081 C 
HETATM   12  C   MOL     1      -0.779  -7.355  32.127  1.00  0.00    -0.024 A 
HETATM   13  C   MOL     1      -2.053  -8.522  32.003  1.00  0.00    -0.033 A 
HETATM   14  C   MOL     1      -1.370  -9.256  31.940  1.00  0.00    -0.030 A 
HETATM   15  C   MOL     1      -3.055  -8.758  31.843  1.00  0.00     0.011 C 
HETATM   16  C   MOL     1      -2.751  -9.353  32.854  1.00  0.00     0.044 C 
HETATM   17  C   MOL     1      -0.403  -9.045  32.095  1.00  0.00    -0.018 A 
HETATM   18  C   MOL     1       0.260  -9.824  32.631  1.00  0.00    -0.002 C 
HETATM   19  C   MOL     1      -0.105  -8.093  32.164  1.00  0.00    -0.036 C 
HETATM   20  C   MOL     1      -1.700 -10.246  31.916  1.00  0.00     0.041 A 
HETATM   21  C   MOL     1       0.002 -10.800  32.112  1.00  0.00    -0.059 C 
HETATM   22  C   MOL     1       1.358  -9.547  32.249  1.00  0.00     0.003 C 
HETATM   23  C   MOL     1      -1.005 -11.020  31.953  1.00  0.00     0.009 C 
HETATM   24  C   MOL     1       0.732 -11.604  32.101  1.00  0.00     0.014 C 
HETATM   25  C   MOL     1      -0.382 -11.793  32.989  1.00  0.00     0.028 C 
HETATM   26  C   MOL     1       1.786 -11.373  32.215  1.00  0.00     0.253 A 
HETATM   27  C   MOL     1       2.105 -10.335  32.240  1.00  0.00     0.003 A 
HETATM   28  O   MOL     1       3.282 -11.602  32.354  1.00  0.00    -0.382 OA
HETATM   29  C   MOL     1       2.925  -9.614  31.395  1.00  0.00     0.044 C 
HETATM   30  C   MOL     1       3.053 -10.629  32.372  1.00  0.00     0.080 A 
HETATM   31  O   MOL     1       3.778  -9.948  32.472  1.00  0.00     0.000 OA
HETATM   32  C   MOL     1      -2.114  -9.751  30.890  1.00  0.00     0.025 C 
HETATM   33  C   MOL     1      -2.810  -4.950  32.025  1.00  0.00    -0.012 C 
HETATM   34  O   MOL     1      -0.480  -6.402  32.196  1.00  0.00     0.000 OA
ENDBRANCH   1   2
BRANCH   1  35
HETATM   35  C   MOL     1      -4.284  -3.500  32.136  1.00  0.00    -0.027 A 
HETATM   36  O   MOL     1      -3.861  -3.330  33.029  1.00  0.00     0.000 OA
HETATM   37  C   MOL     1      -3.697  -2.392  33.336  1.00  0.00     0.096 A 
HETATM   38  C   MOL     1      -3.866  -1.628  32.705  1.00  0.00     0.133 A 
HETATM   39  C   MOL     1      -4.420  -1.789  31.883  1.00  0.00     0.055 A 
HETATM   40  O   MOL     1      -5.518  -0.966  31.738  1.00  0.00     0.000 OA
HETATM   41  C   MOL     1      -4.541  -2.731  31.551  1.00  0.00     0.007 A 
HETATM   42  H   MOL     1      -4.505  -0.443  31.451  1.00  0.00     0.000 HD
HETATM   43  O   MOL     1      -5.100  -1.189  30.405  1.00  0.00     0.000 OA
HETATM   44  C   MOL     1      -5.353  -2.122  30.144  1.00  0.00     0.057 A 
HETATM   45  C   MOL     1      -5.402  -0.417  29.844  1.00  0.00     0.071 C 
HETATM   46  O   MOL     1      -5.051  -2.894  30.706  1.00  0.00     0.000 OA
HETATM   47  C   MOL     1      -5.731  -2.294  29.229  1.00  0.00     0.154 A 
HETATM   48  C   MOL     1      -6.077  -1.519  28.691  1.00  0.00     0.211 A 
HETATM   49  C   MOL     1      -5.780  -0.589  28.929  1.00  0.00     0.146 C 
BRANCH  37  50
HETATM   50  C   MOL     1      -4.071  -2.172  34.645  1.00  0.00     0.297 C 
HETATM   51  O   MOL     1      -2.722  -1.748  34.616  1.00  0.00    -0.188 OA
HETATM   52  O   MOL     1      -3.322  -3.370  34.717  1.00  0.00    -0.188 OA
ENDBRANCH  37  50
BRANCH  38  53
HETATM   53  O   MOL     1      -2.817  -0.746  32.549  1.00  0.00    -0.395 OA
HETATM   54  H   MOL     1      -3.224  -1.168  31.529  1.00  0.00     0.210 HD
ENDBRANCH  38  53
BRANCH  47  55
HETATM   55  O   MOL     1      -5.099  -3.283  28.504  1.00  0.00    -0.393 OA
HETATM   56  H   MOL     1      -4.441  -2.318  28.644  1.00  0.00     0.210 HD
ENDBRANCH  47  55
BRANCH  48  57
HETATM   57  O   MOL     1      -7.383  -1.632  28.262  1.00  0.00    -0.392 OA
HETATM   58  H   MOL     1      -7.287  -1.186  29.347  1.00  0.00     0.210 HD
ENDBRANCH  48  57
BRANCH  49  59
HETATM   59  O   MOL     1      -5.197   0.127  27.904  1.00  0.00    -0.399 OA
HETATM   60  H   MOL     1      -5.765  -0.835  27.534  1.00  0.00     0.209 HD
ENDBRANCH  49  59
BRANCH  45  61
HETATM   61  C   MOL     1      -6.033   0.573  30.569  1.00  0.00     0.292 C 
HETATM   62  O   MOL     1      -6.155   1.020  29.233  1.00  0.00    -0.188 OA
HETATM   63  O   MOL     1      -4.773   1.141  30.271  1.00  0.00    -0.188 OA
ENDBRANCH  45  61
ENDBRANCH   1  35
TORSDOF 8
ENDMDL
MODEL 7
REMARK VINA RESULT:      -9.3     15.335     19.591
REMARK  8 active torsions:
REMARK  status: ('A' for Active; 'I' for Inactive)
REMARK    1  A    between atoms: O_1  and  C_33 
REMARK    2  A    between atoms: O_1  and  C_49 
REMARK    3  A    between atoms: O_8  and  C_53 
REMARK    4  A    between atoms: O_12  and  C_56 
REMARK    5  A    between atoms: O_13  and  C_57 
REMARK    6  A    between atoms: O_14  and  C_59 
REMARK    7  A    between atoms: C_52  and  C_55 
REMARK    8  A    between atoms: C_58  and  C_60 
ROOT
HETATM    1  O   MOL     1      16.333   7.898  15.339  1.00  0.00     0.000 OA
ENDROOT
BRANCH   1   2
HETATM    2  C   MOL     1      16.547   7.289  14.574  1.00  0.00     0.007 C 
HETATM    3  C   MOL     1      15.784   7.053  13.838  1.00  0.00    -0.058 C 
HETATM    4  C   MOL     1      16.138   6.846  12.716  1.00  0.00    -0.007 C 
HETATM    5  C   MOL     1      14.831   7.084  13.535  1.00  0.00     0.027 C 
HETATM    6  C   MOL     1      15.107   7.561  14.370  1.00  0.00    -0.005 C 
HETATM    7  C   MOL     1      17.006   6.064  12.862  1.00  0.00    -0.037 A 
HETATM    8  C   MOL     1      15.297   6.170  12.301  1.00  0.00     0.006 C 
HETATM    9  C   MOL     1      17.336   5.924  11.739  1.00  0.00     0.013 A 
HETATM   10  C   MOL     1      17.805   6.369  13.531  1.00  0.00     0.014 C 
HETATM   11  C   MOL     1      17.757   4.966  13.227  1.00  0.00     0.081 C 
HETATM   12  C   MOL     1      18.177   5.199  11.870  1.00  0.00    -0.024 A 
HETATM   13  C   MOL     1      16.516   5.217  11.379  1.00  0.00    -0.033 A 
HETATM   14  C   MOL     1      16.763   4.730  10.535  1.00  0.00    -0.030 A 
HETATM   15  C   MOL     1      15.543   5.577  11.481  1.00  0.00     0.011 C 
HETATM   16  C   MOL     1      15.429   4.370  11.455  1.00  0.00     0.044 C 
HETATM   17  C   MOL     1      17.693   4.375  10.426  1.00  0.00    -0.018 A 
HETATM   18  C   MOL     1      17.848   3.372   9.875  1.00  0.00    -0.002 C 
HETATM   19  C   MOL     1      18.405   4.630  11.080  1.00  0.00    -0.036 C 
HETATM   20  C   MOL     1      16.001   4.431   9.889  1.00  0.00     0.041 A 
HETATM   21  C   MOL     1      17.200   3.471   8.948  1.00  0.00    -0.059 C 
HETATM   22  C   MOL     1      18.972   3.454   9.481  1.00  0.00     0.003 C 
HETATM   23  C   MOL     1      16.231   3.839   9.064  1.00  0.00     0.009 C 
HETATM   24  C   MOL     1      17.449   2.895   8.062  1.00  0.00     0.014 C 
HETATM   25  C   MOL     1      16.307   2.431   8.798  1.00  0.00     0.028 C 
HETATM   26  C   MOL     1      18.469   2.555   7.914  1.00  0.00     0.253 A 
HETATM   27  C   MOL     1      19.245   2.878   8.602  1.00  0.00     0.003 A 
HETATM   28  O   MOL     1      19.650   1.851   7.266  1.00  0.00    -0.382 OA
HETATM   29  C   MOL     1      20.384   3.631   8.402  1.00  0.00     0.044 C 
HETATM   30  C   MOL     1      19.918   2.330   8.102  1.00  0.00     0.080 A 
HETATM   31  O   MOL     1      20.869   2.303   8.410  1.00  0.00     0.000 OA
HETATM   32  C   MOL     1      15.972   5.643   9.870  1.00  0.00     0.025 C 
HETATM   33  C   MOL     1      17.574   6.986  14.393  1.00  0.00    -0.012 C 
HETATM   34  O   MOL     1      18.890   5.455  12.525  1.00  0.00     0.000 OA
ENDBRANCH   1   2
BRANCH   1  35
HETATM   35  C   MOL     1      16.957   7.965  16.118  1.00  0.00    -0.027 A 
HETATM   36  O   MOL     1      17.049   7.191  16.749  1.00  0.00     0.000 OA
HETATM   37  C   MOL     1      17.595   7.286  17.583  1.00  0.00     0.096 A 
HETATM   38  C   MOL     1      18.127   8.125  17.733  1.00  0.00     0.133 A 
HETATM   39  C   MOL     1      17.917   8.940  17.185  1.00  0.00     0.055 A 
HETATM   40  O   MOL     1      17.620  10.078  17.907  1.00  0.00     0.000 OA
HETATM   41  C   MOL     1      17.410   8.832  16.323  1.00  0.00     0.007 A 
HETATM   42  H   MOL     1      18.772   9.844  17.862  1.00  0.00     0.000 HD
HETATM   43  O   MOL     1      18.278  10.581  16.760  1.00  0.00     0.000 OA
HETATM   44  C   MOL     1      17.653  10.515  15.980  1.00  0.00     0.057 A 
HETATM   45  C   MOL     1      18.692  11.463  16.991  1.00  0.00     0.071 C 
HETATM   46  O   MOL     1      17.240   9.633  15.749  1.00  0.00     0.000 OA
HETATM   47  C   MOL     1      17.601  11.274  15.323  1.00  0.00     0.154 A 
HETATM   48  C   MOL     1      17.975  12.170  15.582  1.00  0.00     0.211 A 
HETATM   49  C   MOL     1      18.639  12.222  16.335  1.00  0.00     0.146 C 
BRANCH  37  50
HETATM   50  C   MOL     1      16.976   6.768  18.702  1.00  0.00     0.297 C 
HETATM   51  O   MOL     1      18.160   6.001  18.599  1.00  0.00    -0.188 OA
HETATM   52  O   MOL     1      16.691   5.812  17.700  1.00  0.00    -0.188 OA
ENDBRANCH  37  50
BRANCH  38  53
HETATM   53  O   MOL     1      19.462   7.935  18.024  1.00  0.00    -0.395 OA
HETATM   54  H   MOL     1      18.812   8.184  18.972  1.00  0.00     0.210 HD
ENDBRANCH  38  53
BRANCH  47  55
HETATM   55  O   MOL     1      17.766  10.924  13.999  1.00  0.00    -0.393 OA
HETATM   56  H   MOL     1      18.611  10.500  14.700  1.00  0.00     0.210 HD
ENDBRANCH  47  55
BRANCH  48  57
HETATM   57  O   MOL     1      17.094  13.227  15.496  1.00  0.00    -0.392 OA
HETATM   58  H   MOL     1      16.574  12.179  15.374  1.00  0.00     0.210 HD
ENDBRANCH  48  57
BRANCH  49  59
HETATM   59  O   MOL     1      19.843  12.819  16.023  1.00  0.00    -0.399 OA
HETATM   60  H   MOL     1      19.467  13.072  17.108  1.00  0.00     0.209 HD
ENDBRANCH  49  59
BRANCH  45  61
HETATM   61  C   MOL     1      18.527  11.813  18.316  1.00  0.00     0.292 C 
HETATM   62  O   MOL     1      19.207  12.925  17.767  1.00  0.00    -0.188 OA
HETATM   63  O   MOL     1      19.879  11.404  18.253  1.00  0.00    -0.188 OA
ENDBRANCH  45  61
ENDBRANCH   1  35
TORSDOF 8
ENDMDL
MODEL 8
REMARK VINA RESULT:      -9.1      6.671     10.034
REMARK  8 active torsions:
REMARK  status: ('A' for Active; 'I' for Inactive)
REMARK    1  A    between atoms: O_1  and  C_33 
REMARK    2  A    between atoms: O_1  and  C_49 
REMARK    3  A    between atoms: O_8  and  C_53 
REMARK    4  A    between atoms: O_12  and  C_56 
REMARK    5  A    between atoms: O_13  and  C_57 
REMARK    6  A    between atoms: O_14  and  C_59 
REMARK    7  A    between atoms: C_52  and  C_55 
REMARK    8  A    between atoms: C_58  and  C_60 
ROOT
HETATM    1  O   MOL     1      16.394   1.157  25.675  1.00  0.00     0.000 OA
ENDROOT
BRANCH   1   2
HETATM    2  C   MOL     1      15.688   0.985  24.986  1.00  0.00     0.007 C 
HETATM    3  C   MOL     1      14.712   0.619  25.289  1.00  0.00    -0.058 C 
HETATM    4  C   MOL     1      13.766   0.948  24.638  1.00  0.00    -0.007 C 
HETATM    5  C   MOL     1      14.103   0.251  25.993  1.00  0.00     0.027 C 
HETATM    6  C   MOL     1      15.029   0.541  26.234  1.00  0.00    -0.005 C 
HETATM    7  C   MOL     1      14.115   0.706  23.540  1.00  0.00    -0.037 A 
HETATM    8  C   MOL     1      13.013   0.091  24.826  1.00  0.00     0.006 C 
HETATM    9  C   MOL     1      13.168   1.077  22.945  1.00  0.00     0.013 A 
HETATM   10  C   MOL     1      15.049   1.166  23.232  1.00  0.00     0.014 C 
HETATM   11  C   MOL     1      14.592   0.084  22.405  1.00  0.00     0.081 C 
HETATM   12  C   MOL     1      13.501   0.872  21.898  1.00  0.00    -0.024 A 
HETATM   13  C   MOL     1      12.470   0.190  23.112  1.00  0.00    -0.033 A 
HETATM   14  C   MOL     1      11.715   0.158  22.449  1.00  0.00    -0.030 A 
HETATM   15  C   MOL     1      12.268  -0.035  24.109  1.00  0.00     0.011 C 
HETATM   16  C   MOL     1      12.069  -1.069  23.508  1.00  0.00     0.044 C 
HETATM   17  C   MOL     1      11.896   0.368  21.486  1.00  0.00    -0.018 A 
HETATM   18  C   MOL     1      11.324  -0.216  20.670  1.00  0.00    -0.002 C 
HETATM   19  C   MOL     1      12.780   0.748  21.215  1.00  0.00    -0.036 C 
HETATM   20  C   MOL     1      10.816  -0.285  22.736  1.00  0.00     0.041 A 
HETATM   21  C   MOL     1      10.248  -0.197  21.029  1.00  0.00    -0.059 C 
HETATM   22  C   MOL     1      11.356   0.530  19.737  1.00  0.00     0.003 C 
HETATM   23  C   MOL     1      10.061  -0.417  22.031  1.00  0.00     0.009 C 
HETATM   24  C   MOL     1       9.444  -0.288  20.304  1.00  0.00     0.014 C 
HETATM   25  C   MOL     1       9.682  -1.452  21.112  1.00  0.00     0.028 C 
HETATM   26  C   MOL     1       9.622  -0.010  19.270  1.00  0.00     0.253 A 
HETATM   27  C   MOL     1      10.567   0.448  18.995  1.00  0.00     0.003 A 
HETATM   28  O   MOL     1       9.348   0.194  17.790  1.00  0.00    -0.382 OA
HETATM   29  C   MOL     1      10.859   1.692  18.476  1.00  0.00     0.044 C 
HETATM   30  C   MOL     1      10.273   0.482  18.039  1.00  0.00     0.080 A 
HETATM   31  O   MOL     1      10.886   0.851  17.340  1.00  0.00     0.000 OA
HETATM   32  C   MOL     1      10.924   0.694  23.443  1.00  0.00     0.025 C 
HETATM   33  C   MOL     1      15.841   1.306  23.960  1.00  0.00    -0.012 C 
HETATM   34  O   MOL     1      14.386   1.253  21.627  1.00  0.00     0.000 OA
ENDBRANCH   1   2
BRANCH   1  35
HETATM   35  C   MOL     1      17.347   0.918  25.487  1.00  0.00    -0.027 A 
HETATM   36  O   MOL     1      17.617  -0.046  25.434  1.00  0.00     0.000 OA
HETATM   37  C   MOL     1      18.584  -0.293  25.345  1.00  0.00     0.096 A 
HETATM   38  C   MOL     1      19.268   0.431  25.209  1.00  0.00     0.133 A 
HETATM   39  C   MOL     1      19.018   1.383  25.411  1.00  0.00     0.055 A 
HETATM   40  O   MOL     1      19.833   2.031  26.314  1.00  0.00     0.000 OA
HETATM   41  C   MOL     1      18.044   1.634  25.450  1.00  0.00     0.007 A 
HETATM   42  H   MOL     1      20.303   1.952  25.239  1.00  0.00     0.000 HD
HETATM   43  O   MOL     1      19.445   3.063  25.427  1.00  0.00     0.000 OA
HETATM   44  C   MOL     1      18.491   3.302  25.615  1.00  0.00     0.057 A 
HETATM   45  C   MOL     1      20.148   3.775  25.440  1.00  0.00     0.071 C 
HETATM   46  O   MOL     1      17.788   2.589  25.602  1.00  0.00     0.000 OA
HETATM   47  C   MOL     1      18.216   4.269  25.618  1.00  0.00     0.154 A 
HETATM   48  C   MOL     1      18.925   4.978  25.681  1.00  0.00     0.211 A 
HETATM   49  C   MOL     1      19.873   4.742  25.443  1.00  0.00     0.146 C 
BRANCH  37  50
HETATM   50  C   MOL     1      18.965  -1.320  26.183  1.00  0.00     0.297 C 
HETATM   51  O   MOL     1      19.216  -1.841  24.892  1.00  0.00    -0.188 OA
HETATM   52  O   MOL     1      17.696  -1.734  25.716  1.00  0.00    -0.188 OA
ENDBRANCH  37  50
BRANCH  38  53
HETATM   53  O   MOL     1      20.110   0.255  24.131  1.00  0.00    -0.395 OA
HETATM   54  H   MOL     1      18.972   0.128  23.858  1.00  0.00     0.210 HD
ENDBRANCH  38  53
BRANCH  47  55
HETATM   55  O   MOL     1      17.137   4.580  24.817  1.00  0.00    -0.393 OA
HETATM   56  H   MOL     1      16.906   4.681  25.966  1.00  0.00     0.210 HD
ENDBRANCH  47  55
BRANCH  48  57
HETATM   57  O   MOL     1      18.781   5.870  26.723  1.00  0.00    -0.392 OA
HETATM   58  H   MOL     1      19.206   4.826  27.061  1.00  0.00     0.210 HD
ENDBRANCH  48  57
BRANCH  49  59
HETATM   59  O   MOL     1      20.451   5.525  24.467  1.00  0.00    -0.399 OA
HETATM   60  H   MOL     1      20.101   6.139  25.407  1.00  0.00     0.209 HD
ENDBRANCH  49  59
BRANCH  45  61
HETATM   61  C   MOL     1      21.227   3.464  26.241  1.00  0.00     0.292 C 
HETATM   62  O   MOL     1      21.545   4.752  25.753  1.00  0.00    -0.188 OA
HETATM   63  O   MOL     1      21.716   3.235  24.934  1.00  0.00    -0.188 OA
ENDBRANCH  45  61
ENDBRANCH   1  35
TORSDOF 8
ENDMDL
MODEL 9
REMARK VINA RESULT:      -9.1      4.798      8.346
REMARK  8 active torsions:
REMARK  status: ('A' for Active; 'I' for Inactive)
REMARK    1  A    between atoms: O_1  and  C_33 
REMARK    2  A    between atoms: O_1  and  C_49 
REMARK    3  A    between atoms: O_8  and  C_53 
REMARK    4  A    between atoms: O_12  and  C_56 
REMARK    5  A    between atoms: O_13  and  C_57 
REMARK    6  A    between atoms: O_14  and  C_59 
REMARK    7  A    between atoms: C_52  and  C_55 
REMARK    8  A    between atoms: C_58  and  C_60 
ROOT
HETATM    1  O   MOL     1      11.929  -0.513  25.107  1.00  0.00     0.000 OA
ENDROOT
BRANCH   1   2
HETATM    2  C   MOL     1      12.777  -0.225  24.658  1.00  0.00     0.007 C 
HETATM    3  C   MOL     1      13.608   0.141  25.254  1.00  0.00    -0.058 C 
HETATM    4  C   MOL     1      14.714  -0.061  24.850  1.00  0.00    -0.007 C 
HETATM    5  C   MOL     1      13.980   0.442  26.132  1.00  0.00     0.027 C 
HETATM    6  C   MOL     1      13.048   0.084  26.080  1.00  0.00    -0.005 C 
HETATM    7  C   MOL     1      14.650   0.305  23.733  1.00  0.00    -0.037 A 
HETATM    8  C   MOL     1      15.324   0.796  25.330  1.00  0.00     0.006 C 
HETATM    9  C   MOL     1      15.745   0.053  23.380  1.00  0.00     0.013 A 
HETATM   10  C   MOL     1      13.867  -0.152  23.135  1.00  0.00     0.014 C 
HETATM   11  C   MOL     1      14.443   1.046  22.588  1.00  0.00     0.081 C 
HETATM   12  C   MOL     1      15.686   0.376  22.311  1.00  0.00    -0.024 A 
HETATM   13  C   MOL     1      16.306   0.940  23.827  1.00  0.00    -0.033 A 
HETATM   14  C   MOL     1      17.204   1.089  23.401  1.00  0.00    -0.030 A 
HETATM   15  C   MOL     1      16.220   1.044  24.860  1.00  0.00     0.011 C 
HETATM   16  C   MOL     1      16.491   2.154  24.455  1.00  0.00     0.044 C 
HETATM   17  C   MOL     1      17.300   0.996  22.408  1.00  0.00    -0.018 A 
HETATM   18  C   MOL     1      18.020   1.704  21.848  1.00  0.00    -0.002 C 
HETATM   19  C   MOL     1      16.549   0.617  21.867  1.00  0.00    -0.036 C 
HETATM   20  C   MOL     1      17.960   1.530  23.968  1.00  0.00     0.041 A 
HETATM   21  C   MOL     1      18.963   1.685  22.480  1.00  0.00    -0.059 C 
HETATM   22  C   MOL     1      18.292   1.083  20.864  1.00  0.00     0.003 C 
HETATM   23  C   MOL     1      18.862   1.783  23.514  1.00  0.00     0.009 C 
HETATM   24  C   MOL     1      19.920   1.902  22.015  1.00  0.00     0.014 C 
HETATM   25  C   MOL     1      19.390   2.942  22.853  1.00  0.00     0.028 C 
HETATM   26  C   MOL     1      20.042   1.752  20.948  1.00  0.00     0.253 A 
HETATM   27  C   MOL     1      19.240   1.293  20.377  1.00  0.00     0.003 A 
HETATM   28  O   MOL     1      20.711   1.750  19.583  1.00  0.00    -0.382 OA
HETATM   29  C   MOL     1      19.190   0.114  19.663  1.00  0.00     0.044 C 
HETATM   30  C   MOL     1      19.777   1.394  19.539  1.00  0.00     0.080 A 
HETATM   31  O   MOL     1      19.400   1.091  18.663  1.00  0.00     0.000 OA
HETATM   32  C   MOL     1      17.744   0.465  24.505  1.00  0.00     0.025 C 
HETATM   33  C   MOL     1      12.924  -0.418  23.600  1.00  0.00    -0.012 C 
HETATM   34  O   MOL     1      14.935  -0.005  21.769  1.00  0.00     0.000 OA
ENDBRANCH   1   2
BRANCH   1  35
HETATM   35  C   MOL     1      11.057  -0.444  24.622  1.00  0.00    -0.027 A 
HETATM   36  O   MOL     1      10.734   0.450  24.304  1.00  0.00     0.000 OA
HETATM   37  C   MOL     1       9.819   0.542  23.908  1.00  0.00     0.096 A 
HETATM   38  C   MOL     1       9.268  -0.281  23.740  1.00  0.00     0.133 A 
HETATM   39  C   MOL     1       9.528  -1.142  24.190  1.00  0.00     0.055 A 
HETATM   40  O   MOL     1       8.540  -1.734  24.950  1.00  0.00     0.000 OA
HETATM   41  C   MOL     1      10.464  -1.245  24.543  1.00  0.00     0.007 A 
HETATM   42  H   MOL     1       8.402  -1.905  23.794  1.00  0.00     0.000 HD
HETATM   43  O   MOL     1       9.258  -2.837  24.429  1.00  0.00     0.000 OA
HETATM   44  C   MOL     1      10.131  -2.907  24.914  1.00  0.00     0.057 A 
HETATM   45  C   MOL     1       8.644  -3.628  24.394  1.00  0.00     0.071 C 
HETATM   46  O   MOL     1      10.744  -2.116  24.948  1.00  0.00     0.000 OA
HETATM   47  C   MOL     1      10.474  -3.811  25.187  1.00  0.00     0.154 A 
HETATM   48  C   MOL     1       9.839  -4.591  25.196  1.00  0.00     0.211 A 
HETATM   49  C   MOL     1       8.987  -4.532  24.667  1.00  0.00     0.146 C 
BRANCH  37  50
HETATM   50  C   MOL     1       9.123   1.633  24.385  1.00  0.00     0.297 C 
HETATM   51  O   MOL     1       9.042   1.783  22.981  1.00  0.00    -0.188 OA
HETATM   52  O   MOL     1      10.374   2.180  24.014  1.00  0.00    -0.188 OA
ENDBRANCH  37  50
BRANCH  38  53
HETATM   53  O   MOL     1       8.768  -0.410  22.461  1.00  0.00    -0.395 OA
HETATM   54  H   MOL     1       8.740  -1.414  23.073  1.00  0.00     0.210 HD
ENDBRANCH  38  53
BRANCH  47  55
HETATM   55  O   MOL     1      11.762  -4.101  24.789  1.00  0.00    -0.393 OA
HETATM   56  H   MOL     1      11.600  -2.964  25.044  1.00  0.00     0.210 HD
ENDBRANCH  47  55
BRANCH  48  57
HETATM   57  O   MOL     1       9.746  -5.264  26.396  1.00  0.00    -0.392 OA
HETATM   58  H   MOL     1       9.772  -5.980  25.463  1.00  0.00     0.210 HD
ENDBRANCH  48  57
BRANCH  49  59
HETATM   59  O   MOL     1       8.789  -5.542  23.750  1.00  0.00    -0.399 OA
HETATM   60  H   MOL     1       7.932  -5.470  24.552  1.00  0.00     0.209 HD
ENDBRANCH  49  59
BRANCH  45  61
HETATM   61  C   MOL     1       7.355  -3.337  24.791  1.00  0.00     0.292 C 
HETATM   62  O   MOL     1       7.330  -4.739  24.602  1.00  0.00    -0.188 OA
HETATM   63  O   MOL     1       7.235  -3.503  23.392  1.00  0.00    -0.188 OA
ENDBRANCH  45  61
ENDBRANCH   1  35
TORSDOF 8
ENDMDL
MODEL 10
REMARK VINA RESULT:      -9.0     14.452     17.959
REMARK  8 active torsions:
REMARK  status: ('A' for Active; 'I' for Inactive)
REMARK    1  A    between atoms: O_1  and  C_33 
REMARK    2  A    between atoms: O_1  and  C_49 
REMARK    3  A    between atoms: O_8  and  C_53 
REMARK    4  A    between atoms: O_12  and  C_56 
REMARK    5  A    between atoms: O_13  and  C_57 
REMARK    6  A    between atoms: O_14  and  C_59 
REMARK    7  A    between atoms: C_52  and  C_55 
REMARK    8  A    between atoms: C_58  and  C_60 
ROOT
HETATM    1  O   MOL     1      17.659   7.509  16.186  1.00  0.00     0.000 OA
ENDROOT
BRANCH   1   2
HETATM    2  C   MOL     1      17.473   6.911  15.406  1.00  0.00     0.007 C 
HETATM    3  C   MOL     1      16.892   7.280  14.565  1.00  0.00    -0.058 C 
HETATM    4  C   MOL     1      17.142   6.845  13.481  1.00  0.00    -0.007 C 
HETATM    5  C   MOL     1      16.313   7.984  14.153  1.00  0.00     0.027 C 
HETATM    6  C   MOL     1      16.725   8.138  15.051  1.00  0.00    -0.005 C 
HETATM    7  C   MOL     1      17.143   5.682  13.666  1.00  0.00    -0.037 A 
HETATM    8  C   MOL     1      16.143   6.978  12.914  1.00  0.00     0.006 C 
HETATM    9  C   MOL     1      17.424   5.310  12.584  1.00  0.00     0.013 A 
HETATM   10  C   MOL     1      17.807   5.332  14.450  1.00  0.00     0.014 C 
HETATM   11  C   MOL     1      16.804   4.394  14.028  1.00  0.00     0.081 C 
HETATM   12  C   MOL     1      17.451   4.205  12.757  1.00  0.00    -0.024 A 
HETATM   13  C   MOL     1      16.410   5.409  12.071  1.00  0.00    -0.033 A 
HETATM   14  C   MOL     1      16.347   4.868  11.226  1.00  0.00    -0.030 A 
HETATM   15  C   MOL     1      15.998   6.366  12.083  1.00  0.00     0.011 C 
HETATM   16  C   MOL     1      15.053   5.620  11.945  1.00  0.00     0.044 C 
HETATM   17  C   MOL     1      16.735   3.945  11.202  1.00  0.00    -0.018 A 
HETATM   18  C   MOL     1      16.192   3.127  10.593  1.00  0.00    -0.002 C 
HETATM   19  C   MOL     1      17.307   3.624  11.956  1.00  0.00    -0.036 C 
HETATM   20  C   MOL     1      15.708   5.196  10.470  1.00  0.00     0.041 A 
HETATM   21  C   MOL     1      15.959   3.636   9.606  1.00  0.00    -0.059 C 
HETATM   22  C   MOL     1      17.069   2.354  10.347  1.00  0.00     0.003 C 
HETATM   23  C   MOL     1      15.553   4.597   9.633  1.00  0.00     0.009 C 
HETATM   24  C   MOL     1      15.838   3.031   8.712  1.00  0.00     0.014 C 
HETATM   25  C   MOL     1      14.624   3.567   9.264  1.00  0.00     0.028 C 
HETATM   26  C   MOL     1      16.302   2.052   8.662  1.00  0.00     0.253 A 
HETATM   27  C   MOL     1      16.962   1.731   9.463  1.00  0.00     0.003 A 
HETATM   28  O   MOL     1      16.684   0.690   8.106  1.00  0.00    -0.382 OA
HETATM   29  C   MOL     1      18.305   1.415   9.465  1.00  0.00     0.044 C 
HETATM   30  C   MOL     1      17.092   0.851   9.004  1.00  0.00     0.080 A 
HETATM   31  O   MOL     1      17.671   0.151   9.422  1.00  0.00     0.000 OA
HETATM   32  C   MOL     1      16.566   6.048  10.547  1.00  0.00     0.025 C 
HETATM   33  C   MOL     1      17.974   5.951  15.326  1.00  0.00    -0.012 C 
HETATM   34  O   MOL     1      18.024   3.884  13.512  1.00  0.00     0.000 OA
ENDBRANCH   1   2
BRANCH   1  35
HETATM   35  C   MOL     1      17.653   7.139  17.116  1.00  0.00    -0.027 A 
HETATM   36  O   MOL     1      16.820   6.717  17.478  1.00  0.00     0.000 OA
HETATM   37  C   MOL     1      16.776   6.434  18.437  1.00  0.00     0.096 A 
HETATM   38  C   MOL     1      17.603   6.485  19.006  1.00  0.00     0.133 A 
HETATM   39  C   MOL     1      18.379   7.038  18.689  1.00  0.00     0.055 A 
HETATM   40  O   MOL     1      18.810   8.011  19.566  1.00  0.00     0.000 OA
HETATM   41  C   MOL     1      18.443   7.278  17.714  1.00  0.00     0.007 A 
HETATM   42  H   MOL     1      19.172   6.931  19.857  1.00  0.00     0.000 HD
HETATM   43  O   MOL     1      20.002   7.599  18.925  1.00  0.00     0.000 OA
HETATM   44  C   MOL     1      20.009   7.970  17.995  1.00  0.00     0.057 A 
HETATM   45  C   MOL     1      20.773   7.782  19.538  1.00  0.00     0.071 C 
HETATM   46  O   MOL     1      19.238   7.787  17.383  1.00  0.00     0.000 OA
HETATM   47  C   MOL     1      20.861   8.348  17.619  1.00  0.00     0.154 A 
HETATM   48  C   MOL     1      21.612   8.574  18.247  1.00  0.00     0.211 A 
HETATM   49  C   MOL     1      21.625   8.160  19.162  1.00  0.00     0.146 C 
BRANCH  37  50
HETATM   50  C   MOL     1      15.603   6.802  19.063  1.00  0.00     0.297 C 
HETATM   51  O   MOL     1      15.598   5.392  19.164  1.00  0.00    -0.188 OA
HETATM   52  O   MOL     1      15.169   6.358  17.792  1.00  0.00    -0.188 OA
ENDBRANCH  37  50
BRANCH  38  53
HETATM   53  O   MOL     1      17.936   5.323  19.671  1.00  0.00    -0.395 OA
HETATM   54  H   MOL     1      17.594   6.189  20.391  1.00  0.00     0.210 HD
ENDBRANCH  38  53
BRANCH  47  55
HETATM   55  O   MOL     1      21.244   7.840  16.395  1.00  0.00    -0.393 OA
HETATM   56  H   MOL     1      21.308   9.014  16.451  1.00  0.00     0.210 HD
ENDBRANCH  47  55
BRANCH  48  57
HETATM   57  O   MOL     1      22.068   9.874  18.179  1.00  0.00    -0.392 OA
HETATM   58  H   MOL     1      22.801   9.155  18.752  1.00  0.00     0.210 HD
ENDBRANCH  48  57
BRANCH  49  59
HETATM   59  O   MOL     1      22.772   7.464  19.481  1.00  0.00    -0.399 OA
HETATM   60  H   MOL     1      22.475   7.374  18.346  1.00  0.00     0.209 HD
ENDBRANCH  49  59
BRANCH  45  61
HETATM   61  C   MOL     1      20.389   8.289  20.762  1.00  0.00     0.292 C 
HETATM   62  O   MOL     1      21.800   8.253  20.852  1.00  0.00    -0.188 OA
HETATM   63  O   MOL     1      20.691   6.937  21.050  1.00  0.00    -0.188 OA
ENDBRANCH  45  61
ENDBRANCH   1  35
TORSDOF 8
ENDMDL
