MODEL 1
REMARK VINA RESULT:      -7.8      0.000      0.000
REMARK  10 active torsions:
REMARK  status: ('A' for Active; 'I' for Inactive)
REMARK    1  A    between atoms: O_2  and  C_15 
REMARK    2  A    between atoms: O_2  and  C_18 
REMARK    3  A    between atoms: O_3  and  C_12 
REMARK    4  A    between atoms: O_4  and  C_13 
REMARK    5  A    between atoms: O_5  and  C_14 
REMARK    6  A    between atoms: O_6  and  C_17 
REMARK    7  A    between atoms: O_9  and  C_19 
REMARK    8  A    between atoms: O_10  and  C_23 
REMARK    9  A    between atoms: C_16  and  C_17 
REMARK   10  A    between atoms: C_25  and  C_27 
ROOT
HETATM    1  O   UNK     0      10.628   0.074  21.231  0.00  0.00    -0.340 OA
HETATM    2  C   UNK     0      12.339   2.029  20.004  0.00  0.00     0.183 C 
HETATM    3  C   UNK     0      12.630   1.437  21.384  0.00  0.00     0.205 C 
HETATM    4  C   UNK     0      11.427   1.115  19.186  0.00  0.00     0.189 C 
HETATM    5  C   UNK     0      11.344   0.977  22.071  0.00  0.00     0.299 C 
HETATM    6  C   UNK     0      10.222   0.677  20.009  0.00  0.00     0.253 C 
ENDROOT
BRANCH   5   7
HETATM    7  O   UNK     0      11.703   0.323  23.287  0.00  0.00    -0.315 OA
BRANCH   7   8
HETATM    8  C   UNK     0      10.792  -0.552  23.803  0.00  0.00     0.111 A 
HETATM    9  C   UNK     0      11.090  -1.912  23.896  0.00  0.00     0.137 A 
HETATM   10  C   UNK     0      10.147  -2.793  24.427  0.00  0.00     0.129 A 
HETATM   11  O   UNK     0      10.496  -4.118  24.493  0.00  0.00    -0.306 OA
HETATM   12  C   UNK     0       8.913  -2.313  24.862  0.00  0.00     0.084 A 
HETATM   13  C   UNK     0       9.583  -5.016  25.023  0.00  0.00     0.090 A 
HETATM   14  C   UNK     0       8.361  -4.679  25.468  0.00  0.00     0.094 A 
HETATM   15  C   UNK     0       7.938  -3.265  25.416  0.00  0.00     0.190 A 
HETATM   16  O   UNK     0       6.836  -2.914  25.815  0.00  0.00    -0.287 OA
HETATM   17  C   UNK     0       8.612  -0.953  24.771  0.00  0.00     0.085 A 
HETATM   18  C   UNK     0       9.556  -0.074  24.239  0.00  0.00     0.077 A 
BRANCH   9  19
HETATM   19  O   UNK     0      12.301  -2.374  23.468  0.00  0.00    -0.351 OA
HETATM   20  C   UNK     0      13.415  -2.162  24.331  0.00  0.00     0.210 C 
ENDBRANCH   9  19
BRANCH  13  21
HETATM   21  C   UNK     0      10.057  -6.414  25.040  0.00  0.00    -0.002 A 
HETATM   22  C   UNK     0       9.811  -7.253  23.950  0.00  0.00     0.014 A 
HETATM   23  C   UNK     0      10.260  -8.574  23.966  0.00  0.00     0.001 A 
HETATM   24  C   UNK     0      10.955  -9.061  25.072  0.00  0.00     0.000 A 
HETATM   25  C   UNK     0      11.203  -8.227  26.163  0.00  0.00     0.001 A 
HETATM   26  C   UNK     0      10.754  -6.905  26.147  0.00  0.00     0.014 A 
ENDBRANCH  13  21
BRANCH  17  27
HETATM   27  O   UNK     0       7.420  -0.436  25.181  0.00  0.00    -0.360 OA
HETATM   28  H   UNK     0       7.528   0.045  26.015  0.00  0.00     0.217 HD
ENDBRANCH  17  27
ENDBRANCH   7   8
ENDBRANCH   5   7
BRANCH   6  29
HETATM   29  C   UNK     0       9.471  -0.415  19.319  0.00  0.00     0.172 C 
HETATM   30  O   UNK     0       9.625  -1.610  19.524  0.00  0.00    -0.648 OA
BRANCH  29  31
HETATM   31  O   UNK     0       8.592   0.098  18.425  0.00  0.00    -0.774 OA
HETATM   32  H   UNK     0       7.670  -0.181  18.614  0.00  0.00     0.167 HD
ENDBRANCH  29  31
ENDBRANCH   6  29
BRANCH   3  33
HETATM   33  O   UNK     0      13.245   2.428  22.204  0.00  0.00    -0.388 OA
HETATM   34  H   UNK     0      12.834   2.380  23.084  0.00  0.00     0.210 HD
ENDBRANCH   3  33
BRANCH   4  35
HETATM   35  O   UNK     0      10.965   1.824  18.037  0.00  0.00    -0.390 OA
HETATM   36  H   UNK     0      10.372   2.533  18.339  0.00  0.00     0.210 HD
ENDBRANCH   4  35
BRANCH   2  37
HETATM   37  O   UNK     0      13.564   2.189  19.287  0.00  0.00    -0.390 OA
HETATM   38  H   UNK     0      13.591   1.510  18.592  0.00  0.00     0.210 HD
ENDBRANCH   2  37
TORSDOF 10
ENDMDL
MODEL 2
REMARK VINA RESULT:      -7.4      4.134      7.724
REMARK  10 active torsions:
REMARK  status: ('A' for Active; 'I' for Inactive)
REMARK    1  A    between atoms: O_2  and  C_15 
REMARK    2  A    between atoms: O_2  and  C_18 
REMARK    3  A    between atoms: O_3  and  C_12 
REMARK    4  A    between atoms: O_4  and  C_13 
REMARK    5  A    between atoms: O_5  and  C_14 
REMARK    6  A    between atoms: O_6  and  C_17 
REMARK    7  A    between atoms: O_9  and  C_19 
REMARK    8  A    between atoms: O_10  and  C_23 
REMARK    9  A    between atoms: C_16  and  C_17 
REMARK   10  A    between atoms: C_25  and  C_27 
ROOT
HETATM    1  O   UNK     0      15.483   3.737  24.596  0.00  0.00    -0.340 OA
HETATM    2  C   UNK     0      17.962   4.469  25.852  0.00  0.00     0.183 C 
HETATM    3  C   UNK     0      17.780   3.146  25.108  0.00  0.00     0.205 C 
HETATM    4  C   UNK     0      16.941   5.511  25.394  0.00  0.00     0.189 C 
HETATM    5  C   UNK     0      16.317   2.703  25.114  0.00  0.00     0.299 C 
HETATM    6  C   UNK     0      15.536   4.921  25.382  0.00  0.00     0.253 C 
ENDROOT
BRANCH   5   7
HETATM    7  O   UNK     0      16.205   1.539  24.298  0.00  0.00    -0.315 OA
BRANCH   7   8
HETATM    8  C   UNK     0      14.951   1.026  24.133  0.00  0.00     0.111 A 
HETATM    9  C   UNK     0      14.322   1.079  22.889  0.00  0.00     0.137 A 
HETATM   10  C   UNK     0      13.040   0.549  22.737  0.00  0.00     0.129 A 
HETATM   11  O   UNK     0      12.473   0.630  21.491  0.00  0.00    -0.306 OA
HETATM   12  C   UNK     0      12.393  -0.031  23.826  0.00  0.00     0.084 A 
HETATM   13  C   UNK     0      11.202   0.106  21.308  0.00  0.00     0.090 A 
HETATM   14  C   UNK     0      10.475  -0.470  22.279  0.00  0.00     0.094 A 
HETATM   15  C   UNK     0      11.041  -0.581  23.638  0.00  0.00     0.190 A 
HETATM   16  O   UNK     0      10.414  -1.102  24.551  0.00  0.00    -0.287 OA
HETATM   17  C   UNK     0      13.020  -0.086  25.073  0.00  0.00     0.085 A 
HETATM   18  C   UNK     0      14.301   0.445  25.222  0.00  0.00     0.077 A 
BRANCH   9  19
HETATM   19  O   UNK     0      14.962   1.648  21.826  0.00  0.00    -0.351 OA
HETATM   20  C   UNK     0      15.763   0.789  21.018  0.00  0.00     0.210 C 
ENDBRANCH   9  19
BRANCH  13  21
HETATM   21  C   UNK     0      10.684   0.253  19.933  0.00  0.00    -0.002 A 
HETATM   22  C   UNK     0      11.192   1.249  19.094  0.00  0.00     0.014 A 
HETATM   23  C   UNK     0      10.703   1.386  17.795  0.00  0.00     0.001 A 
HETATM   24  C   UNK     0       9.706   0.530  17.330  0.00  0.00     0.000 A 
HETATM   25  C   UNK     0       9.196  -0.465  18.164  0.00  0.00     0.001 A 
HETATM   26  C   UNK     0       9.685  -0.604  19.464  0.00  0.00     0.014 A 
ENDBRANCH  13  21
BRANCH  17  27
HETATM   27  O   UNK     0      12.429  -0.642  26.168  0.00  0.00    -0.360 OA
HETATM   28  H   UNK     0      12.979  -0.511  26.954  0.00  0.00     0.217 HD
ENDBRANCH  17  27
ENDBRANCH   7   8
ENDBRANCH   5   7
BRANCH   6  29
HETATM   29  C   UNK     0      14.577   5.836  24.692  0.00  0.00     0.172 C 
HETATM   30  O   UNK     0      14.542   6.036  23.487  0.00  0.00    -0.648 OA
BRANCH  29  31
HETATM   31  O   UNK     0      13.746   6.423  25.587  0.00  0.00    -0.774 OA
HETATM   32  H   UNK     0      13.114   5.782  25.978  0.00  0.00     0.167 HD
ENDBRANCH  29  31
ENDBRANCH   6  29
BRANCH   3  33
HETATM   33  O   UNK     0      18.556   2.133  25.747  0.00  0.00    -0.388 OA
HETATM   34  H   UNK     0      18.813   1.486  25.068  0.00  0.00     0.210 HD
ENDBRANCH   3  33
BRANCH   4  35
HETATM   35  O   UNK     0      16.965   6.617  26.296  0.00  0.00    -0.390 OA
HETATM   36  H   UNK     0      17.701   6.482  26.917  0.00  0.00     0.210 HD
ENDBRANCH   4  35
BRANCH   2  37
HETATM   37  O   UNK     0      19.268   4.986  25.592  0.00  0.00    -0.390 OA
HETATM   38  H   UNK     0      19.212   5.956  25.617  0.00  0.00     0.210 HD
ENDBRANCH   2  37
TORSDOF 10
ENDMDL
MODEL 3
REMARK VINA RESULT:      -7.3      2.470      5.229
REMARK  10 active torsions:
REMARK  status: ('A' for Active; 'I' for Inactive)
REMARK    1  A    between atoms: O_2  and  C_15 
REMARK    2  A    between atoms: O_2  and  C_18 
REMARK    3  A    between atoms: O_3  and  C_12 
REMARK    4  A    between atoms: O_4  and  C_13 
REMARK    5  A    between atoms: O_5  and  C_14 
REMARK    6  A    between atoms: O_6  and  C_17 
REMARK    7  A    between atoms: O_9  and  C_19 
REMARK    8  A    between atoms: O_10  and  C_23 
REMARK    9  A    between atoms: C_16  and  C_17 
REMARK   10  A    between atoms: C_25  and  C_27 
ROOT
HETATM    1  O   UNK     0      10.181  -0.509  23.750  0.00  0.00    -0.340 OA
HETATM    2  C   UNK     0       7.725  -0.198  25.208  0.00  0.00     0.183 C 
HETATM    3  C   UNK     0       8.702  -1.342  25.484  0.00  0.00     0.205 C 
HETATM    4  C   UNK     0       8.422   0.979  24.524  0.00  0.00     0.189 C 
HETATM    5  C   UNK     0       9.527  -1.677  24.241  0.00  0.00     0.299 C 
HETATM    6  C   UNK     0       9.261   0.499  23.347  0.00  0.00     0.253 C 
ENDROOT
BRANCH   5   7
HETATM    7  O   UNK     0      10.498  -2.655  24.608  0.00  0.00    -0.315 OA
BRANCH   7   8
HETATM    8  C   UNK     0      10.639  -3.721  23.768  0.00  0.00     0.111 A 
HETATM    9  C   UNK     0      10.681  -5.021  24.274  0.00  0.00     0.137 A 
HETATM   10  C   UNK     0      10.825  -6.101  23.401  0.00  0.00     0.129 A 
HETATM   11  O   UNK     0      10.860  -7.354  23.956  0.00  0.00    -0.306 OA
HETATM   12  C   UNK     0      10.927  -5.878  22.029  0.00  0.00     0.084 A 
HETATM   13  C   UNK     0      10.995  -8.446  23.113  0.00  0.00     0.090 A 
HETATM   14  C   UNK     0      11.110  -8.362  21.778  0.00  0.00     0.094 A 
HETATM   15  C   UNK     0      11.080  -7.034  21.132  0.00  0.00     0.190 A 
HETATM   16  O   UNK     0      11.177  -6.912  19.919  0.00  0.00    -0.287 OA
HETATM   17  C   UNK     0      10.886  -4.578  21.519  0.00  0.00     0.085 A 
HETATM   18  C   UNK     0      10.742  -3.501  22.394  0.00  0.00     0.077 A 
BRANCH   9  19
HETATM   19  O   UNK     0      10.580  -5.231  25.618  0.00  0.00    -0.351 OA
HETATM   20  C   UNK     0       9.281  -5.518  26.132  0.00  0.00     0.210 C 
ENDBRANCH   9  19
BRANCH  13  21
HETATM   21  C   UNK     0      11.028  -9.745  23.815  0.00  0.00    -0.002 A 
HETATM   22  C   UNK     0      11.775 -10.806  23.295  0.00  0.00     0.014 A 
HETATM   23  C   UNK     0      11.807 -12.032  23.958  0.00  0.00     0.001 A 
HETATM   24  C   UNK     0      11.092 -12.204  25.143  0.00  0.00     0.000 A 
HETATM   25  C   UNK     0      10.345 -11.148  25.665  0.00  0.00     0.001 A 
HETATM   26  C   UNK     0      10.313  -9.920  25.002  0.00  0.00     0.014 A 
ENDBRANCH  13  21
BRANCH  17  27
HETATM   27  O   UNK     0      10.983  -4.309  20.187  0.00  0.00    -0.360 OA
HETATM   28  H   UNK     0      11.851  -3.934  19.978  0.00  0.00     0.217 HD
ENDBRANCH  17  27
ENDBRANCH   7   8
ENDBRANCH   5   7
BRANCH   6  29
HETATM   29  C   UNK     0      10.147   1.591  22.840  0.00  0.00     0.172 C 
HETATM   30  O   UNK     0      11.323   1.736  23.140  0.00  0.00    -0.648 OA
BRANCH  29  31
HETATM   31  O   UNK     0       9.467   2.409  22.001  0.00  0.00    -0.774 OA
HETATM   32  H   UNK     0       9.369   2.018  21.107  0.00  0.00     0.167 HD
ENDBRANCH  29  31
ENDBRANCH   6  29
BRANCH   3  33
HETATM   33  O   UNK     0       7.972  -2.507  25.863  0.00  0.00    -0.388 OA
HETATM   34  H   UNK     0       8.325  -3.256  25.353  0.00  0.00     0.210 HD
ENDBRANCH   3  33
BRANCH   4  35
HETATM   35  O   UNK     0       7.435   1.889  24.042  0.00  0.00    -0.390 OA
HETATM   36  H   UNK     0       6.899   1.428  23.376  0.00  0.00     0.210 HD
ENDBRANCH   4  35
BRANCH   2  37
HETATM   37  O   UNK     0       7.178   0.269  26.442  0.00  0.00    -0.390 OA
HETATM   38  H   UNK     0       7.570   1.138  26.630  0.00  0.00     0.210 HD
ENDBRANCH   2  37
TORSDOF 10
ENDMDL
MODEL 4
REMARK VINA RESULT:      -7.2      2.797      4.767
REMARK  10 active torsions:
REMARK  status: ('A' for Active; 'I' for Inactive)
REMARK    1  A    between atoms: O_2  and  C_15 
REMARK    2  A    between atoms: O_2  and  C_18 
REMARK    3  A    between atoms: O_3  and  C_12 
REMARK    4  A    between atoms: O_4  and  C_13 
REMARK    5  A    between atoms: O_5  and  C_14 
REMARK    6  A    between atoms: O_6  and  C_17 
REMARK    7  A    between atoms: O_9  and  C_19 
REMARK    8  A    between atoms: O_10  and  C_23 
REMARK    9  A    between atoms: C_16  and  C_17 
REMARK   10  A    between atoms: C_25  and  C_27 
ROOT
HETATM    1  O   UNK     0       8.432  -0.766  24.226  0.00  0.00    -0.340 OA
HETATM    2  C   UNK     0      10.185   0.773  22.549  0.00  0.00     0.183 C 
HETATM    3  C   UNK     0       9.815  -0.677  22.234  0.00  0.00     0.205 C 
HETATM    4  C   UNK     0       9.149   1.427  23.464  0.00  0.00     0.189 C 
HETATM    5  C   UNK     0       9.459  -1.446  23.507  0.00  0.00     0.299 C 
HETATM    6  C   UNK     0       8.836   0.529  24.654  0.00  0.00     0.253 C 
ENDROOT
BRANCH   5   7
HETATM    7  O   UNK     0       9.003  -2.742  23.125  0.00  0.00    -0.315 OA
BRANCH   7   8
HETATM    8  C   UNK     0       9.489  -3.797  23.841  0.00  0.00     0.111 A 
HETATM    9  C   UNK     0      10.616  -4.492  23.402  0.00  0.00     0.137 A 
HETATM   10  C   UNK     0      11.101  -5.569  24.146  0.00  0.00     0.129 A 
HETATM   11  O   UNK     0      12.211  -6.213  23.665  0.00  0.00    -0.306 OA
HETATM   12  C   UNK     0      10.459  -5.946  25.324  0.00  0.00     0.084 A 
HETATM   13  C   UNK     0      12.720  -7.282  24.387  0.00  0.00     0.090 A 
HETATM   14  C   UNK     0      12.188  -7.744  25.529  0.00  0.00     0.094 A 
HETATM   15  C   UNK     0      10.990  -7.085  26.088  0.00  0.00     0.190 A 
HETATM   16  O   UNK     0      10.476  -7.471  27.129  0.00  0.00    -0.287 OA
HETATM   17  C   UNK     0       9.330  -5.252  25.767  0.00  0.00     0.085 A 
HETATM   18  C   UNK     0       8.848  -4.177  25.021  0.00  0.00     0.077 A 
BRANCH   9  19
HETATM   19  O   UNK     0      11.240  -4.117  22.247  0.00  0.00    -0.351 OA
HETATM   20  C   UNK     0      10.926  -4.860  21.072  0.00  0.00     0.210 C 
ENDBRANCH   9  19
BRANCH  13  21
HETATM   21  C   UNK     0      13.911  -7.907  23.776  0.00  0.00    -0.002 A 
HETATM   22  C   UNK     0      14.125  -7.812  22.398  0.00  0.00     0.014 A 
HETATM   23  C   UNK     0      15.250  -8.401  21.822  0.00  0.00     0.001 A 
HETATM   24  C   UNK     0      16.165  -9.087  22.620  0.00  0.00     0.000 A 
HETATM   25  C   UNK     0      15.954  -9.184  23.996  0.00  0.00     0.001 A 
HETATM   26  C   UNK     0      14.829  -8.595  24.573  0.00  0.00     0.014 A 
ENDBRANCH  13  21
BRANCH  17  27
HETATM   27  O   UNK     0       8.667  -5.583  26.911  0.00  0.00    -0.360 OA
HETATM   28  H   UNK     0       9.214  -6.159  27.465  0.00  0.00     0.217 HD
ENDBRANCH  17  27
ENDBRANCH   7   8
ENDBRANCH   5   7
BRANCH   6  29
HETATM   29  C   UNK     0       7.645   1.030  25.404  0.00  0.00     0.172 C 
HETATM   30  O   UNK     0       7.224   2.178  25.366  0.00  0.00    -0.648 OA
BRANCH  29  31
HETATM   31  O   UNK     0       7.091   0.039  26.143  0.00  0.00    -0.774 OA
HETATM   32  H   UNK     0       6.976  -0.786  25.624  0.00  0.00     0.167 HD
ENDBRANCH  29  31
ENDBRANCH   6  29
BRANCH   3  33
HETATM   33  O   UNK     0      10.926  -1.325  21.617  0.00  0.00    -0.388 OA
HETATM   34  H   UNK     0      10.750  -1.367  20.662  0.00  0.00     0.210 HD
ENDBRANCH   3  33
BRANCH   4  35
HETATM   35  O   UNK     0       9.669   2.664  23.948  0.00  0.00    -0.390 OA
HETATM   36  H   UNK     0       9.002   3.354  23.790  0.00  0.00     0.210 HD
ENDBRANCH   4  35
BRANCH   2  37
HETATM   37  O   UNK     0      10.240   1.524  21.335  0.00  0.00    -0.390 OA
HETATM   38  H   UNK     0      10.013   0.924  20.605  0.00  0.00     0.210 HD
ENDBRANCH   2  37
TORSDOF 10
ENDMDL
MODEL 5
REMARK VINA RESULT:      -6.9      3.753      6.452
REMARK  10 active torsions:
REMARK  status: ('A' for Active; 'I' for Inactive)
REMARK    1  A    between atoms: O_2  and  C_15 
REMARK    2  A    between atoms: O_2  and  C_18 
REMARK    3  A    between atoms: O_3  and  C_12 
REMARK    4  A    between atoms: O_4  and  C_13 
REMARK    5  A    between atoms: O_5  and  C_14 
REMARK    6  A    between atoms: O_6  and  C_17 
REMARK    7  A    between atoms: O_9  and  C_19 
REMARK    8  A    between atoms: O_10  and  C_23 
REMARK    9  A    between atoms: C_16  and  C_17 
REMARK   10  A    between atoms: C_25  and  C_27 
ROOT
HETATM    1  O   UNK     0      15.556   3.514  24.321  0.00  0.00    -0.340 OA
HETATM    2  C   UNK     0      17.637   2.441  25.987  0.00  0.00     0.183 C 
HETATM    3  C   UNK     0      17.211   1.775  24.678  0.00  0.00     0.205 C 
HETATM    4  C   UNK     0      17.255   3.921  26.010  0.00  0.00     0.189 C 
HETATM    5  C   UNK     0      15.756   2.102  24.338  0.00  0.00     0.299 C 
HETATM    6  C   UNK     0      15.804   4.112  25.587  0.00  0.00     0.253 C 
ENDROOT
BRANCH   5   7
HETATM    7  O   UNK     0      15.472   1.559  23.050  0.00  0.00    -0.315 OA
BRANCH   7   8
HETATM    8  C   UNK     0      14.171   1.236  22.796  0.00  0.00     0.111 A 
HETATM    9  C   UNK     0      13.555   0.187  23.480  0.00  0.00     0.137 A 
HETATM   10  C   UNK     0      12.223  -0.130  23.209  0.00  0.00     0.129 A 
HETATM   11  O   UNK     0      11.673  -1.170  23.912  0.00  0.00    -0.306 OA
HETATM   12  C   UNK     0      11.514   0.599  22.257  0.00  0.00     0.084 A 
HETATM   13  C   UNK     0      10.349  -1.505  23.669  0.00  0.00     0.090 A 
HETATM   14  C   UNK     0       9.564  -0.884  22.774  0.00  0.00     0.094 A 
HETATM   15  C   UNK     0      10.112   0.242  21.990  0.00  0.00     0.190 A 
HETATM   16  O   UNK     0       9.430   0.838  21.167  0.00  0.00    -0.287 OA
HETATM   17  C   UNK     0      12.127   1.649  21.570  0.00  0.00     0.085 A 
HETATM   18  C   UNK     0      13.458   1.965  21.843  0.00  0.00     0.077 A 
BRANCH   9  19
HETATM   19  O   UNK     0      14.256  -0.522  24.411  0.00  0.00    -0.351 OA
HETATM   20  C   UNK     0      13.990  -0.232  25.781  0.00  0.00     0.210 C 
ENDBRANCH   9  19
BRANCH  13  21
HETATM   21  C   UNK     0       9.859  -2.641  24.474  0.00  0.00    -0.002 A 
HETATM   22  C   UNK     0      10.650  -3.783  24.631  0.00  0.00     0.014 A 
HETATM   23  C   UNK     0      10.187  -4.857  25.393  0.00  0.00     0.001 A 
HETATM   24  C   UNK     0       8.934  -4.793  26.000  0.00  0.00     0.000 A 
HETATM   25  C   UNK     0       8.141  -3.655  25.846  0.00  0.00     0.001 A 
HETATM   26  C   UNK     0       8.604  -2.581  25.084  0.00  0.00     0.014 A 
ENDBRANCH  13  21
BRANCH  17  27
HETATM   27  O   UNK     0      11.476   2.391  20.631  0.00  0.00    -0.360 OA
HETATM   28  H   UNK     0      11.756   2.132  19.740  0.00  0.00     0.217 HD
ENDBRANCH  17  27
ENDBRANCH   7   8
ENDBRANCH   5   7
BRANCH   6  29
HETATM   29  C   UNK     0      15.500   5.556  25.352  0.00  0.00     0.172 C 
HETATM   30  O   UNK     0      15.412   6.084  24.253  0.00  0.00    -0.648 OA
BRANCH  29  31
HETATM   31  O   UNK     0      15.337   6.210  26.527  0.00  0.00    -0.774 OA
HETATM   32  H   UNK     0      15.890   7.019  26.577  0.00  0.00     0.167 HD
ENDBRANCH  29  31
ENDBRANCH   6  29
BRANCH   3  33
HETATM   33  O   UNK     0      17.333   0.360  24.805  0.00  0.00    -0.388 OA
HETATM   34  H   UNK     0      16.442  -0.022  24.725  0.00  0.00     0.210 HD
ENDBRANCH   3  33
BRANCH   4  35
HETATM   35  O   UNK     0      17.416   4.424  27.335  0.00  0.00    -0.390 OA
HETATM   36  H   UNK     0      17.905   3.762  27.852  0.00  0.00     0.210 HD
ENDBRANCH   4  35
BRANCH   2  37
HETATM   37  O   UNK     0      19.055   2.347  26.129  0.00  0.00    -0.390 OA
HETATM   38  H   UNK     0      19.295   2.763  26.974  0.00  0.00     0.210 HD
ENDBRANCH   2  37
TORSDOF 10
ENDMDL
MODEL 6
REMARK VINA RESULT:      -6.8      3.791      7.464
REMARK  10 active torsions:
REMARK  status: ('A' for Active; 'I' for Inactive)
REMARK    1  A    between atoms: O_2  and  C_15 
REMARK    2  A    between atoms: O_2  and  C_18 
REMARK    3  A    between atoms: O_3  and  C_12 
REMARK    4  A    between atoms: O_4  and  C_13 
REMARK    5  A    between atoms: O_5  and  C_14 
REMARK    6  A    between atoms: O_6  and  C_17 
REMARK    7  A    between atoms: O_9  and  C_19 
REMARK    8  A    between atoms: O_10  and  C_23 
REMARK    9  A    between atoms: C_16  and  C_17 
REMARK   10  A    between atoms: C_25  and  C_27 
ROOT
HETATM    1  O   UNK     0      15.762   3.318  24.160  0.00  0.00    -0.340 OA
HETATM    2  C   UNK     0      17.746   2.460  26.053  0.00  0.00     0.183 C 
HETATM    3  C   UNK     0      17.493   1.719  24.740  0.00  0.00     0.205 C 
HETATM    4  C   UNK     0      17.263   3.909  25.978  0.00  0.00     0.189 C 
HETATM    5  C   UNK     0      16.057   1.926  24.255  0.00  0.00     0.299 C 
HETATM    6  C   UNK     0      15.848   3.978  25.418  0.00  0.00     0.253 C 
ENDROOT
BRANCH   5   7
HETATM    7  O   UNK     0      15.933   1.319  22.971  0.00  0.00    -0.315 OA
BRANCH   7   8
HETATM    8  C   UNK     0      14.682   1.284  22.429  0.00  0.00     0.111 A 
HETATM    9  C   UNK     0      13.577   0.957  23.217  0.00  0.00     0.137 A 
HETATM   10  C   UNK     0      12.303   0.926  22.647  0.00  0.00     0.129 A 
HETATM   11  O   UNK     0      11.257   0.598  23.470  0.00  0.00    -0.306 OA
HETATM   12  C   UNK     0      12.138   1.221  21.295  0.00  0.00     0.084 A 
HETATM   13  C   UNK     0       9.979   0.566  22.934  0.00  0.00     0.090 A 
HETATM   14  C   UNK     0       9.692   0.823  21.648  0.00  0.00     0.094 A 
HETATM   15  C   UNK     0      10.785   1.180  20.720  0.00  0.00     0.190 A 
HETATM   16  O   UNK     0      10.567   1.426  19.541  0.00  0.00    -0.287 OA
HETATM   17  C   UNK     0      13.241   1.549  20.503  0.00  0.00     0.085 A 
HETATM   18  C   UNK     0      14.513   1.579  21.075  0.00  0.00     0.077 A 
BRANCH   9  19
HETATM   19  O   UNK     0      13.747   0.669  24.540  0.00  0.00    -0.351 OA
HETATM   20  C   UNK     0      13.858  -0.707  24.893  0.00  0.00     0.210 C 
ENDBRANCH   9  19
BRANCH  13  21
HETATM   21  C   UNK     0       8.930   0.196  23.905  0.00  0.00    -0.002 A 
HETATM   22  C   UNK     0       7.966   1.132  24.289  0.00  0.00     0.014 A 
HETATM   23  C   UNK     0       6.974   0.781  25.204  0.00  0.00     0.001 A 
HETATM   24  C   UNK     0       6.942  -0.506  25.740  0.00  0.00     0.000 A 
HETATM   25  C   UNK     0       7.903  -1.444  25.360  0.00  0.00     0.001 A 
HETATM   26  C   UNK     0       8.895  -1.093  24.443  0.00  0.00     0.014 A 
ENDBRANCH  13  21
BRANCH  17  27
HETATM   27  O   UNK     0      13.132   1.844  19.178  0.00  0.00    -0.360 OA
HETATM   28  H   UNK     0      12.622   1.160  18.718  0.00  0.00     0.217 HD
ENDBRANCH  17  27
ENDBRANCH   7   8
ENDBRANCH   5   7
BRANCH   6  29
HETATM   29  C   UNK     0      15.468   5.386  25.095  0.00  0.00     0.172 C 
HETATM   30  O   UNK     0      15.984   6.382  25.583  0.00  0.00    -0.648 OA
BRANCH  29  31
HETATM   31  O   UNK     0      14.465   5.416  24.185  0.00  0.00    -0.774 OA
HETATM   32  H   UNK     0      14.647   6.048  23.457  0.00  0.00     0.167 HD
ENDBRANCH  29  31
ENDBRANCH   6  29
BRANCH   3  33
HETATM   33  O   UNK     0      17.700   0.321  24.937  0.00  0.00    -0.388 OA
HETATM   34  H   UNK     0      17.505   0.123  25.869  0.00  0.00     0.210 HD
ENDBRANCH   3  33
BRANCH   4  35
HETATM   35  O   UNK     0      17.264   4.469  27.290  0.00  0.00    -0.390 OA
HETATM   36  H   UNK     0      18.187   4.551  27.583  0.00  0.00     0.210 HD
ENDBRANCH   4  35
BRANCH   2  37
HETATM   37  O   UNK     0      19.148   2.475  26.327  0.00  0.00    -0.390 OA
HETATM   38  H   UNK     0      19.279   2.938  27.172  0.00  0.00     0.210 HD
ENDBRANCH   2  37
TORSDOF 10
ENDMDL
MODEL 7
REMARK VINA RESULT:      -6.8      3.248      9.255
REMARK  10 active torsions:
REMARK  status: ('A' for Active; 'I' for Inactive)
REMARK    1  A    between atoms: O_2  and  C_15 
REMARK    2  A    between atoms: O_2  and  C_18 
REMARK    3  A    between atoms: O_3  and  C_12 
REMARK    4  A    between atoms: O_4  and  C_13 
REMARK    5  A    between atoms: O_5  and  C_14 
REMARK    6  A    between atoms: O_6  and  C_17 
REMARK    7  A    between atoms: O_9  and  C_19 
REMARK    8  A    between atoms: O_10  and  C_23 
REMARK    9  A    between atoms: C_16  and  C_17 
REMARK   10  A    between atoms: C_25  and  C_27 
ROOT
HETATM    1  O   UNK     0      11.996  -7.406  27.181  0.00  0.00    -0.340 OA
HETATM    2  C   UNK     0      10.940 -10.073  27.020  0.00  0.00     0.183 C 
HETATM    3  C   UNK     0      10.957  -9.125  25.820  0.00  0.00     0.205 C 
HETATM    4  C   UNK     0      11.981  -9.671  28.064  0.00  0.00     0.189 C 
HETATM    5  C   UNK     0      10.931  -7.664  26.269  0.00  0.00     0.299 C 
HETATM    6  C   UNK     0      11.891  -8.181  28.370  0.00  0.00     0.253 C 
ENDROOT
BRANCH   5   7
HETATM    7  O   UNK     0      11.079  -6.845  25.111  0.00  0.00    -0.315 OA
BRANCH   7   8
HETATM    8  C   UNK     0      10.348  -5.693  25.079  0.00  0.00     0.111 A 
HETATM    9  C   UNK     0      10.631  -4.700  24.140  0.00  0.00     0.137 A 
HETATM   10  C   UNK     0       9.873  -3.528  24.120  0.00  0.00     0.129 A 
HETATM   11  O   UNK     0      10.198  -2.589  23.175  0.00  0.00    -0.306 OA
HETATM   12  C   UNK     0       8.839  -3.353  25.037  0.00  0.00     0.084 A 
HETATM   13  C   UNK     0       9.458  -1.418  23.127  0.00  0.00     0.090 A 
HETATM   14  C   UNK     0       8.444  -1.128  23.959  0.00  0.00     0.094 A 
HETATM   15  C   UNK     0       8.057  -2.107  24.995  0.00  0.00     0.190 A 
HETATM   16  O   UNK     0       7.137  -1.886  25.770  0.00  0.00    -0.287 OA
HETATM   17  C   UNK     0       8.553  -4.344  25.978  0.00  0.00     0.085 A 
HETATM   18  C   UNK     0       9.312  -5.514  25.996  0.00  0.00     0.077 A 
BRANCH   9  19
HETATM   19  O   UNK     0      11.646  -4.879  23.246  0.00  0.00    -0.351 OA
HETATM   20  C   UNK     0      11.302  -5.443  21.982  0.00  0.00     0.210 C 
ENDBRANCH   9  19
BRANCH  13  21
HETATM   21  C   UNK     0       9.896  -0.474  22.079  0.00  0.00    -0.002 A 
HETATM   22  C   UNK     0      10.149   0.863  22.398  0.00  0.00     0.014 A 
HETATM   23  C   UNK     0      10.563   1.753  21.408  0.00  0.00     0.001 A 
HETATM   24  C   UNK     0      10.725   1.312  20.095  0.00  0.00     0.000 A 
HETATM   25  C   UNK     0      10.473  -0.022  19.772  0.00  0.00     0.001 A 
HETATM   26  C   UNK     0      10.059  -0.914  20.762  0.00  0.00     0.014 A 
ENDBRANCH  13  21
BRANCH  17  27
HETATM   27  O   UNK     0       7.553  -4.219  26.895  0.00  0.00    -0.360 OA
HETATM   28  H   UNK     0       6.891  -4.916  26.773  0.00  0.00     0.217 HD
ENDBRANCH  17  27
ENDBRANCH   7   8
ENDBRANCH   5   7
BRANCH   6  29
HETATM   29  C   UNK     0      13.063  -7.729  29.180  0.00  0.00     0.172 C 
HETATM   30  O   UNK     0      13.965  -7.012  28.770  0.00  0.00    -0.648 OA
BRANCH  29  31
HETATM   31  O   UNK     0      12.996  -8.225  30.439  0.00  0.00    -0.774 OA
HETATM   32  H   UNK     0      12.298  -7.785  30.971  0.00  0.00     0.167 HD
ENDBRANCH  29  31
ENDBRANCH   6  29
BRANCH   3  33
HETATM   33  O   UNK     0       9.806  -9.365  25.011  0.00  0.00    -0.388 OA
HETATM   34  H   UNK     0       9.764 -10.319  24.833  0.00  0.00     0.210 HD
ENDBRANCH   3  33
BRANCH   4  35
HETATM   35  O   UNK     0      11.743 -10.400  29.267  0.00  0.00    -0.390 OA
HETATM   36  H   UNK     0      11.767  -9.773  30.010  0.00  0.00     0.210 HD
ENDBRANCH   4  35
BRANCH   2  37
HETATM   37  O   UNK     0      11.242 -11.399  26.583  0.00  0.00    -0.390 OA
HETATM   38  H   UNK     0      12.137 -11.616  26.892  0.00  0.00     0.210 HD
ENDBRANCH   2  37
TORSDOF 10
ENDMDL
MODEL 8
REMARK VINA RESULT:      -6.7     12.219     15.220
REMARK  10 active torsions:
REMARK  status: ('A' for Active; 'I' for Inactive)
REMARK    1  A    between atoms: O_2  and  C_15 
REMARK    2  A    between atoms: O_2  and  C_18 
REMARK    3  A    between atoms: O_3  and  C_12 
REMARK    4  A    between atoms: O_4  and  C_13 
REMARK    5  A    between atoms: O_5  and  C_14 
REMARK    6  A    between atoms: O_6  and  C_17 
REMARK    7  A    between atoms: O_9  and  C_19 
REMARK    8  A    between atoms: O_10  and  C_23 
REMARK    9  A    between atoms: C_16  and  C_17 
REMARK   10  A    between atoms: C_25  and  C_27 
ROOT
HETATM    1  O   UNK     0      18.029   6.581  16.454  0.00  0.00    -0.340 OA
HETATM    2  C   UNK     0      15.982   8.567  16.101  0.00  0.00     0.183 C 
HETATM    3  C   UNK     0      16.801   8.018  14.932  0.00  0.00     0.205 C 
HETATM    4  C   UNK     0      15.986   7.602  17.287  0.00  0.00     0.189 C 
HETATM    5  C   UNK     0      18.173   7.529  15.399  0.00  0.00     0.299 C 
HETATM    6  C   UNK     0      17.404   7.141  17.603  0.00  0.00     0.253 C 
ENDROOT
BRANCH   5   7
HETATM    7  O   UNK     0      18.823   6.916  14.287  0.00  0.00    -0.315 OA
BRANCH   7   8
HETATM    8  C   UNK     0      18.242   5.789  13.784  0.00  0.00     0.111 A 
HETATM    9  C   UNK     0      17.512   5.837  12.596  0.00  0.00     0.137 A 
HETATM   10  C   UNK     0      16.925   4.674  12.095  0.00  0.00     0.129 A 
HETATM   11  O   UNK     0      16.219   4.784  10.925  0.00  0.00    -0.306 OA
HETATM   12  C   UNK     0      17.070   3.470  12.781  0.00  0.00     0.084 A 
HETATM   13  C   UNK     0      15.630   3.644  10.399  0.00  0.00     0.090 A 
HETATM   14  C   UNK     0      15.692   2.429  10.969  0.00  0.00     0.094 A 
HETATM   15  C   UNK     0      16.439   2.260  12.231  0.00  0.00     0.190 A 
HETATM   16  O   UNK     0      16.524   1.170  12.782  0.00  0.00    -0.287 OA
HETATM   17  C   UNK     0      17.800   3.418  13.970  0.00  0.00     0.085 A 
HETATM   18  C   UNK     0      18.386   4.581  14.469  0.00  0.00     0.077 A 
BRANCH   9  19
HETATM   19  O   UNK     0      17.375   7.020  11.930  0.00  0.00    -0.351 OA
HETATM   20  C   UNK     0      18.392   7.353  10.989  0.00  0.00     0.210 C 
ENDBRANCH   9  19
BRANCH  13  21
HETATM   21  C   UNK     0      14.890   3.875   9.142  0.00  0.00    -0.002 A 
HETATM   22  C   UNK     0      14.107   2.858   8.591  0.00  0.00     0.014 A 
HETATM   23  C   UNK     0      13.407   3.077   7.405  0.00  0.00     0.001 A 
HETATM   24  C   UNK     0      13.487   4.313   6.765  0.00  0.00     0.000 A 
HETATM   25  C   UNK     0      14.269   5.332   7.312  0.00  0.00     0.001 A 
HETATM   26  C   UNK     0      14.969   5.113   8.499  0.00  0.00     0.014 A 
ENDBRANCH  13  21
BRANCH  17  27
HETATM   27  O   UNK     0      17.969   2.265  14.678  0.00  0.00    -0.360 OA
HETATM   28  H   UNK     0      18.410   2.446  15.521  0.00  0.00     0.217 HD
ENDBRANCH  17  27
ENDBRANCH   7   8
ENDBRANCH   5   7
BRANCH   6  29
HETATM   29  C   UNK     0      17.394   6.007  18.577  0.00  0.00     0.172 C 
HETATM   30  O   UNK     0      17.451   4.823  18.275  0.00  0.00    -0.648 OA
BRANCH  29  31
HETATM   31  O   UNK     0      17.307   6.467  19.848  0.00  0.00    -0.774 OA
HETATM   32  H   UNK     0      16.420   6.837  20.045  0.00  0.00     0.167 HD
ENDBRANCH  29  31
ENDBRANCH   6  29
BRANCH   3  33
HETATM   33  O   UNK     0      16.998   9.049  13.967  0.00  0.00    -0.388 OA
HETATM   34  H   UNK     0      16.188   9.586  13.938  0.00  0.00     0.210 HD
ENDBRANCH   3  33
BRANCH   4  35
HETATM   35  O   UNK     0      15.455   8.267  18.432  0.00  0.00    -0.390 OA
HETATM   36  H   UNK     0      14.716   8.826  18.140  0.00  0.00     0.210 HD
ENDBRANCH   4  35
BRANCH   2  37
HETATM   37  O   UNK     0      14.627   8.753  15.688  0.00  0.00    -0.390 OA
HETATM   38  H   UNK     0      14.515   9.691  15.458  0.00  0.00     0.210 HD
ENDBRANCH   2  37
TORSDOF 10
ENDMDL
MODEL 9
REMARK VINA RESULT:      -6.7     11.057     14.870
REMARK  10 active torsions:
REMARK  status: ('A' for Active; 'I' for Inactive)
REMARK    1  A    between atoms: O_2  and  C_15 
REMARK    2  A    between atoms: O_2  and  C_18 
REMARK    3  A    between atoms: O_3  and  C_12 
REMARK    4  A    between atoms: O_4  and  C_13 
REMARK    5  A    between atoms: O_5  and  C_14 
REMARK    6  A    between atoms: O_6  and  C_17 
REMARK    7  A    between atoms: O_9  and  C_19 
REMARK    8  A    between atoms: O_10  and  C_23 
REMARK    9  A    between atoms: C_16  and  C_17 
REMARK   10  A    between atoms: C_25  and  C_27 
ROOT
HETATM    1  O   UNK     0      16.226   6.648  17.289  0.00  0.00    -0.340 OA
HETATM    2  C   UNK     0      18.521   7.530  18.775  0.00  0.00     0.183 C 
HETATM    3  C   UNK     0      18.441   7.639  17.252  0.00  0.00     0.205 C 
HETATM    4  C   UNK     0      17.130   7.437  19.403  0.00  0.00     0.189 C 
HETATM    5  C   UNK     0      17.508   6.576  16.670  0.00  0.00     0.299 C 
HETATM    6  C   UNK     0      16.284   6.391  18.687  0.00  0.00     0.253 C 
ENDROOT
BRANCH   5   7
HETATM    7  O   UNK     0      17.382   6.820  15.270  0.00  0.00    -0.315 OA
BRANCH   7   8
HETATM    8  C   UNK     0      17.284   5.724  14.464  0.00  0.00     0.111 A 
HETATM    9  C   UNK     0      16.600   5.795  13.250  0.00  0.00     0.137 A 
HETATM   10  C   UNK     0      16.510   4.664  12.437  0.00  0.00     0.129 A 
HETATM   11  O   UNK     0      15.826   4.795  11.256  0.00  0.00    -0.306 OA
HETATM   12  C   UNK     0      17.102   3.469  12.840  0.00  0.00     0.084 A 
HETATM   13  C   UNK     0      15.726   3.690  10.425  0.00  0.00     0.090 A 
HETATM   14  C   UNK     0      16.245   2.484  10.704  0.00  0.00     0.094 A 
HETATM   15  C   UNK     0      16.990   2.292  11.964  0.00  0.00     0.190 A 
HETATM   16  O   UNK     0      17.484   1.211  12.256  0.00  0.00    -0.287 OA
HETATM   17  C   UNK     0      17.787   3.393  14.054  0.00  0.00     0.085 A 
HETATM   18  C   UNK     0      17.876   4.525  14.865  0.00  0.00     0.077 A 
BRANCH   9  19
HETATM   19  O   UNK     0      16.024   6.969  12.862  0.00  0.00    -0.351 OA
HETATM   20  C   UNK     0      14.691   7.212  13.305  0.00  0.00     0.210 C 
ENDBRANCH   9  19
BRANCH  13  21
HETATM   21  C   UNK     0      14.963   3.939   9.185  0.00  0.00    -0.002 A 
HETATM   22  C   UNK     0      15.027   5.188   8.559  0.00  0.00     0.014 A 
HETATM   23  C   UNK     0      14.308   5.422   7.388  0.00  0.00     0.001 A 
HETATM   24  C   UNK     0      13.522   4.411   6.837  0.00  0.00     0.000 A 
HETATM   25  C   UNK     0      13.455   3.163   7.459  0.00  0.00     0.001 A 
HETATM   26  C   UNK     0      14.174   2.928   8.631  0.00  0.00     0.014 A 
ENDBRANCH  13  21
BRANCH  17  27
HETATM   27  O   UNK     0      18.382   2.248  14.492  0.00  0.00    -0.360 OA
HETATM   28  H   UNK     0      17.850   1.475  14.251  0.00  0.00     0.217 HD
ENDBRANCH  17  27
ENDBRANCH   7   8
ENDBRANCH   5   7
BRANCH   6  29
HETATM   29  C   UNK     0      14.854   6.476  19.113  0.00  0.00     0.172 C 
HETATM   30  O   UNK     0      14.004   5.627  18.887  0.00  0.00    -0.648 OA
BRANCH  29  31
HETATM   31  O   UNK     0      14.621   7.629  19.783  0.00  0.00    -0.774 OA
HETATM   32  H   UNK     0      15.380   7.883  20.352  0.00  0.00     0.167 HD
ENDBRANCH  29  31
ENDBRANCH   6  29
BRANCH   3  33
HETATM   33  O   UNK     0      19.740   7.449  16.694  0.00  0.00    -0.388 OA
HETATM   34  H   UNK     0      19.626   7.110  15.790  0.00  0.00     0.210 HD
ENDBRANCH   3  33
BRANCH   4  35
HETATM   35  O   UNK     0      17.260   7.061  20.773  0.00  0.00    -0.390 OA
HETATM   36  H   UNK     0      16.522   7.458  21.265  0.00  0.00     0.210 HD
ENDBRANCH   4  35
BRANCH   2  37
HETATM   37  O   UNK     0      19.167   8.691  19.302  0.00  0.00    -0.390 OA
HETATM   38  H   UNK     0      18.683   9.470  18.981  0.00  0.00     0.210 HD
ENDBRANCH   2  37
TORSDOF 10
ENDMDL
MODEL 10
REMARK VINA RESULT:      -6.4      4.852      6.603
REMARK  10 active torsions:
REMARK  status: ('A' for Active; 'I' for Inactive)
REMARK    1  A    between atoms: O_2  and  C_15 
REMARK    2  A    between atoms: O_2  and  C_18 
REMARK    3  A    between atoms: O_3  and  C_12 
REMARK    4  A    between atoms: O_4  and  C_13 
REMARK    5  A    between atoms: O_5  and  C_14 
REMARK    6  A    between atoms: O_6  and  C_17 
REMARK    7  A    between atoms: O_9  and  C_19 
REMARK    8  A    between atoms: O_10  and  C_23 
REMARK    9  A    between atoms: C_16  and  C_17 
REMARK   10  A    between atoms: C_25  and  C_27 
ROOT
HETATM    1  O   UNK     0      12.038  -0.524  18.825  0.00  0.00    -0.340 OA
HETATM    2  C   UNK     0      10.291   1.515  17.802  0.00  0.00     0.183 C 
HETATM    3  C   UNK     0      11.599   1.844  18.524  0.00  0.00     0.205 C 
HETATM    4  C   UNK     0      10.309   0.096  17.234  0.00  0.00     0.189 C 
HETATM    5  C   UNK     0      11.987   0.731  19.499  0.00  0.00     0.299 C 
HETATM    6  C   UNK     0      10.777  -0.901  18.285  0.00  0.00     0.253 C 
ENDROOT
BRANCH   5   7
HETATM    7  O   UNK     0      13.272   1.044  20.035  0.00  0.00    -0.315 OA
BRANCH   7   8
HETATM    8  C   UNK     0      13.446   0.830  21.371  0.00  0.00     0.111 A 
HETATM    9  C   UNK     0      14.727   0.679  21.903  0.00  0.00     0.137 A 
HETATM   10  C   UNK     0      14.888   0.462  23.273  0.00  0.00     0.129 A 
HETATM   11  O   UNK     0      16.170   0.321  23.737  0.00  0.00    -0.306 OA
HETATM   12  C   UNK     0      13.770   0.395  24.103  0.00  0.00     0.084 A 
HETATM   13  C   UNK     0      16.361   0.111  25.094  0.00  0.00     0.090 A 
HETATM   14  C   UNK     0      15.368   0.020  25.993  0.00  0.00     0.094 A 
HETATM   15  C   UNK     0      13.969   0.163  25.542  0.00  0.00     0.190 A 
HETATM   16  O   UNK     0      13.034   0.092  26.328  0.00  0.00    -0.287 OA
HETATM   17  C   UNK     0      12.487   0.546  23.573  0.00  0.00     0.085 A 
HETATM   18  C   UNK     0      12.329   0.763  22.204  0.00  0.00     0.077 A 
BRANCH   9  19
HETATM   19  O   UNK     0      15.816   0.746  21.084  0.00  0.00    -0.351 OA
HETATM   20  C   UNK     0      16.313  -0.486  20.568  0.00  0.00     0.210 C 
ENDBRANCH   9  19
BRANCH  13  21
HETATM   21  C   UNK     0      17.778  -0.034  25.486  0.00  0.00    -0.002 A 
HETATM   22  C   UNK     0      18.682   1.005  25.247  0.00  0.00     0.014 A 
HETATM   23  C   UNK     0      20.019   0.869  25.618  0.00  0.00     0.001 A 
HETATM   24  C   UNK     0      20.459  -0.305  26.228  0.00  0.00     0.000 A 
HETATM   25  C   UNK     0      19.559  -1.345  26.468  0.00  0.00     0.001 A 
HETATM   26  C   UNK     0      18.221  -1.209  26.097  0.00  0.00     0.014 A 
ENDBRANCH  13  21
BRANCH  17  27
HETATM   27  O   UNK     0      11.364   0.488  24.343  0.00  0.00    -0.360 OA
HETATM   28  H   UNK     0      11.209   1.337  24.783  0.00  0.00     0.217 HD
ENDBRANCH  17  27
ENDBRANCH   7   8
ENDBRANCH   5   7
BRANCH   6  29
HETATM   29  C   UNK     0      11.050  -2.237  17.673  0.00  0.00     0.172 C 
HETATM   30  O   UNK     0      11.521  -3.197  18.266  0.00  0.00    -0.648 OA
BRANCH  29  31
HETATM   31  O   UNK     0      10.709  -2.242  16.362  0.00  0.00    -0.774 OA
HETATM   32  H   UNK     0      11.167  -2.954  15.866  0.00  0.00     0.167 HD
ENDBRANCH  29  31
ENDBRANCH   6  29
BRANCH   3  33
HETATM   33  O   UNK     0      11.440   3.052  19.266  0.00  0.00    -0.388 OA
HETATM   34  H   UNK     0      12.179   3.640  19.034  0.00  0.00     0.210 HD
ENDBRANCH   3  33
BRANCH   4  35
HETATM   35  O   UNK     0       8.990  -0.258  16.821  0.00  0.00    -0.390 OA
HETATM   36  H   UNK     0       8.373   0.011  17.522  0.00  0.00     0.210 HD
ENDBRANCH   4  35
BRANCH   2  37
HETATM   37  O   UNK     0      10.106   2.425  16.717  0.00  0.00    -0.390 OA
HETATM   38  H   UNK     0      10.971   2.564  16.297  0.00  0.00     0.210 HD
ENDBRANCH   2  37
TORSDOF 10
ENDMDL
