REMARK  20 active torsions:
REMARK  status: ('A' for Active; 'I' for Inactive)
REMARK    1  A    between atoms: C_3  and  C_7 
REMARK    2  A    between atoms: C_7  and  C_8 
REMARK    3  A    between atoms: C_8  and  N_9 
REMARK    4  A    between atoms: C_8  and  C_10 
REMARK    5  A    between atoms: C_10  and  O_11 
REMARK    6  A    between atoms: C_10  and  C_12 
REMARK    7  A    between atoms: C_12  and  C_13 
REMARK    8  A    between atoms: C_13  and  C_14 
REMARK    9  A    between atoms: C_13  and  N_21 
REMARK   10  A    between atoms: C_14  and  C_15 
REMARK   11  A    between atoms: N_21  and  P_22 
REMARK   12  A    between atoms: P_22  and  O_23 
REMARK   13  A    between atoms: P_22  and  O_24 
REMARK   14  A    between atoms: O_23  and  C_26 
REMARK   15  A    between atoms: O_24  and  C_27 
REMARK   16  A    between atoms: C_26  and  C_33 
REMARK   17  A    between atoms: C_35  and  C_40 
REMARK   18  A    between atoms: C_36  and  O_39 
REMARK   19  A    between atoms: C_37  and  O_38 
REMARK   20  A    between atoms: C_50  and  N_51 
ROOT
HETATM    1  C   MOL     1      17.355   5.351  26.143  1.00 -0.25     0.001 A 
HETATM    2  C   MOL     1      16.085   5.882  26.145  1.00 -0.30     0.007 A 
HETATM    3  C   MOL     1      15.039   5.183  26.707  1.00 -0.25    -0.056 A 
HETATM    4  C   MOL     1      15.275   3.946  27.268  1.00 -0.33     0.007 A 
HETATM    5  C   MOL     1      16.544   3.413  27.266  1.00 -0.34     0.001 A 
HETATM    6  C   MOL     1      17.584   4.116  26.703  1.00 -0.27     0.000 A 
ENDROOT
BRANCH   3   7
HETATM    7  C   MOL     1      13.636   5.773  26.711  1.00 -0.43     0.074 C 
BRANCH   7   8
HETATM    8  C   MOL     1      13.064   6.110  25.316  1.00 -0.43     0.216 C 
BRANCH   8   9
HETATM    9  N   MOL     1      12.299   7.404  25.398  1.00  0.05    -0.072 N 
HETATM   10  H   MOL     1      11.412   7.264  25.541  1.00 -0.64     0.274 HD
HETATM   11  H   MOL     1      12.598   7.928  26.080  1.00 -0.76     0.274 HD
HETATM   12  H   MOL     1      12.377   7.901  24.642  1.00 -0.15     0.274 HD
ENDBRANCH   8   9
BRANCH   8  13
HETATM   13  C   MOL     1      12.163   4.955  24.821  1.00 -0.29     0.150 C 
BRANCH  13  14
HETATM   14  O   MOL     1      11.136   4.682  25.791  1.00  0.06    -0.393 OA
HETATM   15  H   MOL     1      10.616   5.513  26.015  1.00 -0.27     0.210 HD
ENDBRANCH  13  14
BRANCH  13  16
HETATM   16  C   MOL     1      12.983   3.670  24.575  1.00 -0.14     0.054 C 
BRANCH  16  17
HETATM   17  C   MOL     1      12.566   2.969  23.263  1.00 -0.12     0.073 C 
BRANCH  17  18
HETATM   18  C   MOL     1      13.368   3.565  22.084  1.00 -0.13     0.058 C 
BRANCH  18  19
HETATM   19  C   MOL     1      12.585   4.477  21.152  1.00 -0.16    -0.057 A 
HETATM   20  C   MOL     1      12.333   4.092  19.853  1.00 -0.21     0.007 A 
HETATM   21  C   MOL     1      11.627   4.918  19.007  1.00 -0.25     0.001 A 
HETATM   22  C   MOL     1      11.171   6.135  19.457  1.00 -0.37     0.000 A 
HETATM   23  C   MOL     1      11.420   6.525  20.754  1.00 -0.40     0.001 A 
HETATM   24  C   MOL     1      12.125   5.697  21.598  1.00 -0.21     0.007 A 
ENDBRANCH  18  19
ENDBRANCH  17  18
BRANCH  17  25
HETATM   25  N   MOL     1      12.840   1.529  23.363  1.00  0.15    -0.221 NA
HETATM   26  H   MOL     1      13.529   1.350  24.105  1.00  0.32     0.134 HD
BRANCH  25  27
HETATM   27  P   MOL     1      11.609   0.681  23.563  1.00  0.09     0.413 P 
HETATM   28  O   MOL     1      11.602   0.034  24.923  1.00  0.07    -0.239 OA
BRANCH  27  29
HETATM   29  O   MOL     1      11.478  -0.439  22.417  1.00  0.12    -0.299 OA
BRANCH  29  30
HETATM   30  C   MOL     1      11.289  -1.808  22.804  1.00 -0.20     0.214 C 
BRANCH  30  31
HETATM   31  C   MOL     1      12.073  -2.729  21.855  1.00 -0.04     0.180 C 
HETATM   32  O   MOL     1      12.470  -2.035  20.660  1.00  0.26    -0.347 OA
HETATM   33  C   MOL     1      12.464  -2.934  19.535  1.00 -0.04     0.222 C 
HETATM   34  C   MOL     1      11.977  -4.298  20.079  1.00 -0.10     0.205 C 
HETATM   35  C   MOL     1      13.838  -3.051  19.030  1.00 -0.21     0.107 C 
HETATM   36  C   MOL     1      11.258  -3.943  21.387  1.00 -0.06     0.182 C 
HETATM   37  N   MOL     1      14.902  -3.142  18.640  1.00  0.07    -0.193 NA
BRANCH  33  38
HETATM   38  C   MOL     1      11.565  -2.271  18.497  1.00 -0.19     0.088 A 
HETATM   39  N   MOL     1      11.132  -0.998  18.660  1.00 -0.03    -0.229 N 
HETATM   40  C   MOL     1      10.365  -0.739  17.568  1.00 -0.22     0.104 A 
HETATM   41  N   MOL     1      11.319  -0.055  19.630  1.00  0.23    -0.160 NA
HETATM   42  C   MOL     1      10.311  -1.813  16.739  1.00 -0.37     0.038 A 
HETATM   43  C   MOL     1       9.771   0.546  17.470  1.00 -0.44     0.151 A 
HETATM   44  C   MOL     1      11.089  -2.801  17.349  1.00 -0.17     0.034 A 
HETATM   45  N   MOL     1       9.945   1.482  18.413  1.00 -0.19    -0.221 NA
HETATM   46  C   MOL     1      10.735   1.109  19.471  1.00 -0.33     0.258 A 
BRANCH  43  47
HETATM   47  N   MOL     1       8.986   0.881  16.392  1.00 -0.25    -0.382 N 
HETATM   48  H   MOL     1       8.626   1.683  16.346  1.00 -0.27     0.157 HD
HETATM   49  H   MOL     1       8.842   0.299  15.747  1.00 -0.19     0.157 HD
ENDBRANCH  43  47
ENDBRANCH  33  38
BRANCH  34  50
HETATM   50  O   MOL     1      11.116  -5.002  19.170  1.00  0.41    -0.388 OA
HETATM   51  H   MOL     1      11.633  -5.379  18.394  1.00 -0.42     0.210 HD
ENDBRANCH  34  50
BRANCH  36  52
HETATM   52  O   MOL     1       9.893  -3.595  21.108  1.00  0.07    -0.390 OA
HETATM   53  H   MOL     1       9.306  -4.412  21.079  1.00 -0.09     0.210 HD
ENDBRANCH  36  52
ENDBRANCH  30  31
ENDBRANCH  29  30
ENDBRANCH  27  29
BRANCH  27  54
HETATM   54  O   MOL     1      10.280   1.571  23.354  1.00  0.13    -0.260 OA
BRANCH  54  55
HETATM   55  C   MOL     1       9.114   1.307  24.017  1.00 -0.29     0.080 A 
HETATM   56  C   MOL     1       8.546   0.046  24.020  1.00 -0.28     0.037 A 
HETATM   57  C   MOL     1       7.374  -0.188  24.700  1.00 -0.40     0.003 A 
HETATM   58  C   MOL     1       6.759   0.835  25.385  1.00 -0.35     0.000 A 
HETATM   59  C   MOL     1       7.317   2.093  25.387  1.00 -0.47     0.003 A 
HETATM   60  C   MOL     1       8.487   2.328  24.705  1.00 -0.37     0.037 A 
ENDBRANCH  54  55
ENDBRANCH  27  54
ENDBRANCH  25  27
ENDBRANCH  17  25
ENDBRANCH  16  17
ENDBRANCH  13  16
ENDBRANCH   8  13
ENDBRANCH   7   8
ENDBRANCH   3   7
TORSDOF 20
