Site2_Forsythoside_D
  xed2sdf_05210316543D
 
 62 64  0  0  1  0  0  0  0  0999 V2000
  -56.4959  -20.1829   -5.8293 O   0  0  0  0  0  0  0  0  0  0  0  0
  -56.2609  -17.3899   -7.3313 O   0  0  0  0  0  0  0  0  0  0  0  0
  -57.4029  -15.6709   -8.4543 O   0  0  0  0  0  0  0  0  0  0  0  0
  -54.5699  -20.7069   -8.9753 O   0  0  0  0  0  0  0  0  0  0  0  0
  -56.5659  -21.5129   -3.7833 O   0  0  0  0  0  0  0  0  0  0  0  0
  -54.3919  -23.2759   -7.7423 O   0  0  0  0  0  0  0  0  0  0  0  0
  -54.8409  -23.3739   -4.9053 O   0  0  0  0  0  0  0  0  0  0  0  0
  -58.8989  -14.9939   -6.1803 O   0  0  0  0  0  0  0  0  0  0  0  0
  -56.6929  -13.9929   -4.6983 O   0  0  0  0  0  0  0  0  0  0  0  0
  -55.0979  -13.1369   -7.0053 O   0  0  0  0  0  0  0  0  0  0  0  0
  -55.7709  -18.1969    0.6437 O   0  0  0  0  0  0  0  0  0  0  0  0
  -57.2419  -19.7019    2.4187 O   0  0  0  0  0  0  0  0  0  0  0  0
  -55.6909  -19.8109   -6.9703 C   0  0  0  0  0  0  0  0  0  0  0  0
  -55.3849  -21.0479   -7.8423 C   0  0  0  0  0  0  0  0  0  0  0  0
  -54.6569  -22.0919   -6.9773 C   0  0  0  0  0  0  0  0  0  0  0  0
  -55.5199  -22.4339   -5.7503 C   0  0  0  0  0  0  0  0  0  0  0  0
  -57.6869  -15.7529   -6.0583 C   0  0  0  0  0  0  0  0  0  0  0  0
  -57.4679  -16.5879   -7.3413 C   0  0  0  0  0  0  0  0  0  0  0  0
  -56.4899  -14.8009   -5.8683 C   0  0  0  0  0  0  0  0  0  0  0  0
  -56.2999  -13.9149   -7.1193 C   0  0  0  0  0  0  0  0  0  0  0  0
  -55.8389  -21.1439   -4.9693 C   0  0  0  0  0  0  0  0  0  0  0  0
  -56.4189  -18.7429   -7.8123 C   0  0  0  0  0  0  0  0  0  0  0  0
  -56.2559  -14.7959   -8.3873 C   0  0  0  0  0  0  0  0  0  0  0  0
  -56.2159  -13.8969   -9.6323 C   0  0  0  0  0  0  0  0  0  0  0  0
  -57.9709  -21.2279   -3.8783 C   0  0  0  0  0  0  0  0  0  0  0  0
  -58.2789  -19.9179   -3.1293 C   0  0  0  0  0  0  0  0  0  0  0  0
  -58.0569  -19.8879   -1.6253 C   0  0  0  0  0  0  0  0  0  0  0  0
  -57.0469  -19.0739   -1.1573 C   0  0  0  0  0  0  0  0  0  0  0  0
  -58.7969  -20.6289   -0.7293 C   0  0  0  0  0  0  0  0  0  0  0  0
  -56.7719  -19.0039    0.1897 C   0  0  0  0  0  0  0  0  0  0  0  0
  -58.5279  -20.5659    0.6207 C   0  0  0  0  0  0  0  0  0  0  0  0
  -57.5139  -19.7579    1.0847 C   0  0  0  0  0  0  0  0  0  0  0  0
  -54.8279  -19.4319   -6.6363 H   0  0  0  0  0  0  0  0  0  0  0  0
  -56.2469  -21.4169   -8.1903 H   0  0  0  0  0  0  0  0  0  0  0  0
  -53.7849  -21.7119   -6.6703 H   0  0  0  0  0  0  0  0  0  0  0  0
  -56.3749  -22.8519   -6.0573 H   0  0  0  0  0  0  0  0  0  0  0  0
  -57.7609  -16.3599   -5.2673 H   0  0  0  0  0  0  0  0  0  0  0  0
  -58.2299  -17.2319   -7.4093 H   0  0  0  0  0  0  0  0  0  0  0  0
  -55.6579  -15.3419   -5.7443 H   0  0  0  0  0  0  0  0  0  0  0  0
  -57.0749  -13.2869   -7.1903 H   0  0  0  0  0  0  0  0  0  0  0  0
  -55.0109  -20.6719   -4.6653 H   0  0  0  0  0  0  0  0  0  0  0  0
  -55.4329  -15.3639   -8.3503 H   0  0  0  0  0  0  0  0  0  0  0  0
  -53.7039  -21.2179   -8.9723 H   0  0  0  0  0  0  0  0  0  0  0  0
  -53.6749  -23.8359   -7.3133 H   0  0  0  0  0  0  0  0  0  0  0  0
  -55.4789  -24.0519   -4.5253 H   0  0  0  0  0  0  0  0  0  0  0  0
  -59.3759  -14.9209   -5.2983 H   0  0  0  0  0  0  0  0  0  0  0  0
  -55.9219  -13.3659   -4.5453 H   0  0  0  0  0  0  0  0  0  0  0  0
  -55.0219  -12.7089   -6.0983 H   0  0  0  0  0  0  0  0  0  0  0  0
  -56.0459  -17.7049    1.4777 H   0  0  0  0  0  0  0  0  0  0  0  0
  -57.4739  -18.8019    2.8047 H   0  0  0  0  0  0  0  0  0  0  0  0
  -56.0659  -18.7859   -8.7483 H   0  0  0  0  0  0  0  0  0  0  0  0
  -57.3939  -18.9529   -7.7553 H   0  0  0  0  0  0  0  0  0  0  0  0
  -56.2279  -12.9399   -9.3443 H   0  0  0  0  0  0  0  0  0  0  0  0
  -55.3839  -14.0809  -10.1563 H   0  0  0  0  0  0  0  0  0  0  0  0
  -57.0109  -14.0849  -10.2093 H   0  0  0  0  0  0  0  0  0  0  0  0
  -58.4939  -21.9779   -3.4733 H   0  0  0  0  0  0  0  0  0  0  0  0
  -58.2269  -21.1289   -4.8403 H   0  0  0  0  0  0  0  0  0  0  0  0
  -59.2409  -19.6979   -3.2943 H   0  0  0  0  0  0  0  0  0  0  0  0
  -57.6179  -19.2609   -3.4913 H   0  0  0  0  0  0  0  0  0  0  0  0
  -56.5099  -18.5299   -1.8023 H   0  0  0  0  0  0  0  0  0  0  0  0
  -59.5359  -21.2159   -1.0603 H   0  0  0  0  0  0  0  0  0  0  0  0
  -59.0679  -21.1089    1.2637 H   0  0  0  0  0  0  0  0  0  0  0  0
  1 13  1  0
  1 21  1  0
  2 22  1  0
  3 18  1  0
  3 23  1  0
  5 25  1  0
 11 30  1  0
 12 32  1  0
 13 14  1  0
 13 22  1  0
 14  4  1  0
 14 15  1  0
 15  6  1  0
 15 16  1  0
 16  7  1  0
 16 21  1  0
 17  8  1  0
 17 18  1  0
 17 19  1  0
 18  2  1  0
 19  9  1  0
 19 20  1  0
 20 10  1  0
 20 23  1  0
 21  5  1  0
 23 24  1  0
 25 26  1  0
 26 27  1  0
 27 28  2  0
 27 29  1  0
 28 30  1  0
 29 31  2  0
 30 32  2  0
 31 32  1  0
  4 43  1  0
  6 44  1  0
  7 45  1  0
  8 46  1  0
  9 47  1  0
 10 48  1  0
 11 49  1  0
 12 50  1  0
 13 33  1  0
 14 34  1  0
 15 35  1  0
 16 36  1  0
 17 37  1  0
 18 38  1  0
 19 39  1  0
 20 40  1  0
 21 41  1  0
 22 51  1  0
 22 52  1  0
 23 42  1  0
 24 53  1  0
 24 54  1  0
 24 55  1  0
 25 56  1  0
 25 57  1  0
 26 58  1  0
 26 59  1  0
 28 60  1  0
 29 61  1  0
 31 62  1  0
M  END
>  <LF dG>
-6.42

>  <LF VSscore>
-13.113

>  <LF Rank Score>
-11.396

>  <LF LE>
-0.201

>  <LF Structure Name>
C:\Users\Odara\AppData\Local\Temp\LeadFinder_6000_1\Ligand_1.sdf

>  <LF SDF id>
0

>  <LF Pose rank>
0

>  <LF version>
2001 1, 19 January 2019

>  <PUBCHEM_COMPOUND_CID>
69634125

>  <PUBCHEM_COMPOUND_CANONICALIZED>
1

>  <PUBCHEM_CACTVS_COMPLEXITY>
581

>  <PUBCHEM_CACTVS_HBOND_ACCEPTOR>
12

>  <PUBCHEM_CACTVS_HBOND_DONOR>
8

>  <PUBCHEM_CACTVS_ROTATABLE_BOND>
7

>  <PUBCHEM_CACTVS_SUBSKEYS>
AAADceB4PAAAAAAAAAAAAAAAAAAAAAAAAAA0SIAAAAAAAAABAAAAGgAACAAADBSwmAMyDoAABgCAAiBCAAACAAAgIAAIiAAGiIgZNiKCERKicAElwBEPmAfA4LwOIAABAAAAQABAAAIAAACAAAAAAAAAAA==

>  <PUBCHEM_IUPAC_OPENEYE_NAME>
(2R,3R,4R,5R,6S)-2-[[(2R,3S,4S,5R,6R)-6-[2-(3,4-dihydroxyphenyl)ethoxy]-3,4,5-trihydroxy-tetrahydropyran-2-yl]methoxy]-6-methyl-tetrahydropyran-3,4,5-triol

>  <PUBCHEM_IUPAC_CAS_NAME>
(2R,3R,4R,5R,6S)-2-[[(2R,3S,4S,5R,6R)-6-[2-(3,4-dihydroxyphenyl)ethoxy]-3,4,5-trihydroxy-2-oxanyl]methoxy]-6-methyloxane-3,4,5-triol

>  <PUBCHEM_IUPAC_NAME_MARKUP>
(2<I>R</I>,3<I>R</I>,4<I>R</I>,5<I>R</I>,6<I>S</I>)-2-[[(2<I>R</I>,3<I>S</I>,4<I>S</I>,5<I>R</I>,6<I>R</I>)-6-[2-(3,4-dihydroxyphenyl)ethoxy]-3,4,5-trihydroxyoxan-2-yl]methoxy]-6-methyloxane-3,4,5-tri

>  <PUBCHEM_IUPAC_NAME>
(2R,3R,4R,5R,6S)-2-[[(2R,3S,4S,5R,6R)-6-[2-(3,4-dihydroxyphenyl)ethoxy]-3,4,5-trihydroxyoxan-2-yl]methoxy]-6-methyloxane-3,4,5-triol

>  <PUBCHEM_IUPAC_SYSTEMATIC_NAME>
(2R,3R,4R,5R,6S)-2-[[(2R,3S,4S,5R,6R)-6-[2-[3,4-bis(oxidanyl)phenyl]ethoxy]-3,4,5-tris(oxidanyl)oxan-2-yl]methoxy]-6-methyl-oxane-3,4,5-triol

>  <PUBCHEM_IUPAC_TRADITIONAL_NAME>
(2R,3R,4R,5R,6S)-2-[[(2R,3S,4S,5R,6R)-6-[2-(3,4-dihydroxyphenyl)ethoxy]-3,4,5-trihydroxy-tetrahydropyran-2-yl]methoxy]-6-methyl-tetrahydropyran-3,4,5-triol

>  <PUBCHEM_IUPAC_INCHI>
InChI=1S/C20H30O12/c1-8-13(23)15(25)17(27)20(31-8)30-7-12-14(24)16(26)18(28)19(32-12)29-5-4-9-2-3-10(21)11(22)6-9/h2-3,6,8,12-28H,4-5,7H2,1H3/t8-,12+,13-,14+,15+,16-,17+,18+,19+,20+/m0/s1

>  <PUBCHEM_IUPAC_INCHIKEY>
QIMGUQIHCNDUKU-OJJLXHDHSA-N

>  <PUBCHEM_XLOGP3_AA>
-2.5

>  <PUBCHEM_EXACT_MASS>
462.173726

>  <PUBCHEM_MOLECULAR_FORMULA>
C20H30O12

>  <PUBCHEM_MOLECULAR_WEIGHT>
462.4

>  <PUBCHEM_OPENEYE_CAN_SMILES>
CC1C(C(C(C(O1)OCC2C(C(C(C(O2)OCCC3=CC(=C(C=C3)O)O)O)O)O)O)O)O

>  <PUBCHEM_OPENEYE_ISO_SMILES>
C[C@H]1[C@@H]([C@H]([C@H]([C@@H](O1)OC[C@@H]2[C@H]([C@@H]([C@H]([C@@H](O2)OCCC3=CC(=C(C=C3)O)O)O)O)O)O)O)O

>  <PUBCHEM_CACTVS_TPSA>
199

>  <PUBCHEM_MONOISOTOPIC_WEIGHT>
462.173726

>  <PUBCHEM_TOTAL_CHARGE>
0

>  <PUBCHEM_HEAVY_ATOM_COUNT>
32

>  <PUBCHEM_ATOM_DEF_STEREO_COUNT>
10

>  <PUBCHEM_ATOM_UDEF_STEREO_COUNT>
0

>  <PUBCHEM_BOND_DEF_STEREO_COUNT>
0

>  <PUBCHEM_BOND_UDEF_STEREO_COUNT>
0

>  <PUBCHEM_ISOTOPIC_ATOM_COUNT>
0

>  <PUBCHEM_COMPONENT_COUNT>
1

>  <PUBCHEM_CACTVS_TAUTO_COUNT>
-1

>  <PUBCHEM_COORDINATE_TYPE>
1
5
255

>  <PUBCHEM_BONDANNOTATIONS>
20  10  5
13  22  5
18  2  5
23  24  6
27  28  8
27  29  8
28  30  8
29  31  8
30  32  8
31  32  8
14  4  6
21  5  5
15  6  5
16  7  6
17  8  6
19  9  6

>  <Preferred Pose_cresset>
true

>  <Favorite_cresset>
false

>  <MW_cresset>
462.4

>  <#Atoms_cresset>
32

>  <SlogP_cresset>
-0.4

>  <TPSA_cresset>
198.8

>  <Flexibility_cresset>
15.9

>  <#RB_cresset>
15

>  <Rof5_cresset>
2

>  <Filename_cresset>
Forsythoside E no water site 2.sdf

>  <Confs_cresset>
0

>  <Poses_cresset>
10

>  <_cresset_fieldpoints>
    -5     -54.402618     -16.985996      -7.107088     -6.7900
    -5     -55.257786     -20.142002     -10.670364    -11.4554
    -5     -55.769951     -21.784891      -2.063328    -12.6066
    -5     -59.140213     -14.634840      -8.045755    -17.9404
    -5     -53.673599     -13.016898      -8.279057    -11.4413
    -5     -55.370300     -23.697052      -9.333458    -11.2466
    -5     -53.665871     -22.757366      -3.525578    -10.5230
    -5     -54.074524     -19.032398       0.347114     -8.8944
    -5     -57.652050     -14.396402      -3.091911     -8.1551
    -5     -56.016205     -21.087532       2.911108     -8.5195
    -5     -59.950027     -17.802650      -0.551682     -2.1411
    -6     -59.819153     -16.159370      -3.907524      8.0107
    -6     -57.188705     -24.819790      -4.785976      8.7606
    -6     -52.054478     -21.823208      -8.212198      9.1247
    -6     -51.895103     -23.131542      -7.288211      8.3949
    -6     -60.785408     -21.909649      -2.738667      3.6898
    -6     -57.082962     -16.977757       2.911220     16.0611
    -6     -54.591141     -12.153530      -4.393420     16.2641
    -6     -52.848343     -19.986235      -5.708668      4.6401
    -7     -58.632530     -21.316442      -7.253913     -2.7563
    -7     -59.427246     -14.104595      -8.401808     -2.5321
    -7     -56.665203     -24.145248      -8.461546     -1.6245
    -7     -54.428467     -23.082542     -10.156984     -1.5458
    -7     -53.198158     -18.718605      -8.778099     -1.9648
    -7     -55.033554     -25.471638      -6.448924     -1.5903
    -7     -52.428734     -23.060902      -9.148644     -1.3904
    -7     -52.732224     -22.147888      -4.152301     -1.6415
    -7     -52.644768     -19.816431      -5.327087     -1.8339
    -7     -52.497330     -23.770737      -5.225697     -1.5000
    -7     -55.751408     -17.887897      -4.428580     -4.0417
    -7     -61.177177     -21.592783      -2.945028     -1.7652
    -7     -59.250778     -19.029251      -5.986660     -2.9515
    -7     -58.476585     -16.600861      -2.855571     -2.3234
    -7     -53.235031     -14.848967      -6.905730     -1.8689
    -7     -55.391319     -10.921551      -7.855885     -1.5394
    -7     -58.800999     -12.664860      -5.192780     -1.9192
    -7     -55.031967     -18.875446       3.163812     -1.4973
    -7     -53.940765     -16.881912      -6.863505     -2.8567
    -7     -55.507797     -16.059719      -0.639544     -1.2558
    -7     -59.136860     -20.096310       3.984075     -1.2416
    -7     -57.127754     -17.029871     -10.561108     -2.1918
    -7     -56.091209     -20.318489     -10.874813     -1.4993
    -7     -55.619232     -22.159090      -1.712345     -2.8745
    -7     -57.686035     -24.409481      -4.229591     -1.7045
    -7     -59.929363     -17.379177      -0.250647     -1.8346
    -8     -55.273422     -21.308140      -6.539586      5.1992
    -8     -56.617943     -15.082219      -6.875761      4.7318
    -8     -56.073944     -19.879961      -7.839523      4.2697
    -8     -57.544048     -18.160221      -7.780101      2.1866
    -8     -56.255669     -13.917983      -8.585035      4.4851
    -8     -57.819607     -19.840469      -0.319312      6.9242

$$$$
W_Site2_Forsythoside_D
  xed2sdf_05210316543D
 
 62 64  0  0  1  0  0  0  0  0999 V2000
  -59.9274  -19.9439   -2.0861 O   0  0  0  0  0  0  0  0  0  0  0  0
  -62.2914  -22.0859   -1.3871 O   0  0  0  0  0  0  0  0  0  0  0  0
  -61.2904  -24.0799   -0.6451 O   0  0  0  0  0  0  0  0  0  0  0  0
  -63.5944  -19.3759   -1.7451 O   0  0  0  0  0  0  0  0  0  0  0  0
  -58.2674  -18.7639   -3.4331 O   0  0  0  0  0  0  0  0  0  0  0  0
  -62.9914  -17.9129   -4.1221 O   0  0  0  0  0  0  0  0  0  0  0  0
  -60.2494  -17.1349   -4.4921 O   0  0  0  0  0  0  0  0  0  0  0  0
  -63.7264  -25.4699   -0.6631 O   0  0  0  0  0  0  0  0  0  0  0  0
  -64.0314  -25.4349   -3.4871 O   0  0  0  0  0  0  0  0  0  0  0  0
  -61.1724  -25.3649   -4.1331 O   0  0  0  0  0  0  0  0  0  0  0  0
  -54.6334  -24.2729   -6.1471 O   0  0  0  0  0  0  0  0  0  0  0  0
  -53.6754  -22.6989   -8.1921 O   0  0  0  0  0  0  0  0  0  0  0  0
  -61.1944  -19.8249   -1.4011 C   0  0  0  0  0  0  0  0  0  0  0  0
  -62.3264  -19.5159   -2.4051 C   0  0  0  0  0  0  0  0  0  0  0  0
  -61.9814  -18.2129   -3.1471 C   0  0  0  0  0  0  0  0  0  0  0  0
  -60.6104  -18.3559   -3.8301 C   0  0  0  0  0  0  0  0  0  0  0  0
  -63.5744  -24.2509   -1.4081 C   0  0  0  0  0  0  0  0  0  0  0  0
  -62.5324  -23.3459   -0.7111 C   0  0  0  0  0  0  0  0  0  0  0  0
  -63.0904  -24.5669   -2.8371 C   0  0  0  0  0  0  0  0  0  0  0  0
  -61.6864  -25.2099   -2.8011 C   0  0  0  0  0  0  0  0  0  0  0  0
  -59.5484  -18.7299   -2.7771 C   0  0  0  0  0  0  0  0  0  0  0  0
  -61.5124  -21.1279   -0.6371 C   0  0  0  0  0  0  0  0  0  0  0  0
  -60.7314  -24.3439   -1.9501 C   0  0  0  0  0  0  0  0  0  0  0  0
  -59.3834  -25.0659   -1.8001 C   0  0  0  0  0  0  0  0  0  0  0  0
  -58.0294  -19.9989   -4.1271 C   0  0  0  0  0  0  0  0  0  0  0  0
  -56.5714  -20.4409   -3.9001 C   0  0  0  0  0  0  0  0  0  0  0  0
  -55.8004  -20.9939   -5.0891 C   0  0  0  0  0  0  0  0  0  0  0  0
  -55.5664  -22.3529   -5.1051 C   0  0  0  0  0  0  0  0  0  0  0  0
  -55.3294  -20.2139   -6.1231 C   0  0  0  0  0  0  0  0  0  0  0  0
  -54.8614  -22.9289   -6.1391 C   0  0  0  0  0  0  0  0  0  0  0  0
  -54.6214  -20.7819   -7.1601 C   0  0  0  0  0  0  0  0  0  0  0  0
  -54.3824  -22.1379   -7.1711 C   0  0  0  0  0  0  0  0  0  0  0  0
  -61.1284  -19.0709   -0.7481 H   0  0  0  0  0  0  0  0  0  0  0  0
  -62.4024  -20.2779   -3.0481 H   0  0  0  0  0  0  0  0  0  0  0  0
  -61.9444  -17.4609   -2.4891 H   0  0  0  0  0  0  0  0  0  0  0  0
  -60.6614  -19.0809   -4.5171 H   0  0  0  0  0  0  0  0  0  0  0  0
  -64.4574  -23.7819   -1.4501 H   0  0  0  0  0  0  0  0  0  0  0  0
  -62.8974  -23.1139    0.1909 H   0  0  0  0  0  0  0  0  0  0  0  0
  -63.0274  -23.7149   -3.3561 H   0  0  0  0  0  0  0  0  0  0  0  0
  -61.7564  -26.1159   -2.3841 H   0  0  0  0  0  0  0  0  0  0  0  0
  -59.4814  -18.0469   -2.0491 H   0  0  0  0  0  0  0  0  0  0  0  0
  -60.5994  -23.4689   -2.4161 H   0  0  0  0  0  0  0  0  0  0  0  0
  -63.9864  -20.2719   -1.5091 H   0  0  0  0  0  0  0  0  0  0  0  0
  -62.6494  -18.0519   -5.0581 H   0  0  0  0  0  0  0  0  0  0  0  0
  -60.5984  -17.1139   -5.4351 H   0  0  0  0  0  0  0  0  0  0  0  0
  -63.7994  -26.2649   -1.2751 H   0  0  0  0  0  0  0  0  0  0  0  0
  -64.4964  -24.9709   -4.2481 H   0  0  0  0  0  0  0  0  0  0  0  0
  -60.3094  -25.8809   -4.1371 H   0  0  0  0  0  0  0  0  0  0  0  0
  -53.6764  -24.4819   -6.3741 H   0  0  0  0  0  0  0  0  0  0  0  0
  -53.1324  -23.4849   -7.8771 H   0  0  0  0  0  0  0  0  0  0  0  0
  -60.6484  -21.5589   -0.3781 H   0  0  0  0  0  0  0  0  0  0  0  0
  -62.0684  -20.8639    0.1509 H   0  0  0  0  0  0  0  0  0  0  0  0
  -59.4254  -25.9379   -2.2881 H   0  0  0  0  0  0  0  0  0  0  0  0
  -58.6524  -24.5009   -2.1831 H   0  0  0  0  0  0  0  0  0  0  0  0
  -59.1954  -25.2299   -0.8321 H   0  0  0  0  0  0  0  0  0  0  0  0
  -58.1934  -19.8719   -5.1051 H   0  0  0  0  0  0  0  0  0  0  0  0
  -58.6484  -20.7029   -3.7781 H   0  0  0  0  0  0  0  0  0  0  0  0
  -56.5794  -21.1469   -3.1921 H   0  0  0  0  0  0  0  0  0  0  0  0
  -56.0894  -19.5969   -3.6621 H   0  0  0  0  0  0  0  0  0  0  0  0
  -55.9114  -22.9239   -4.3601 H   0  0  0  0  0  0  0  0  0  0  0  0
  -55.5024  -19.2289   -6.1211 H   0  0  0  0  0  0  0  0  0  0  0  0
  -54.2804  -20.2089   -7.9051 H   0  0  0  0  0  0  0  0  0  0  0  0
  1 13  1  0
  1 21  1  0
  2 22  1  0
  3 18  1  0
  3 23  1  0
  5 25  1  0
 11 30  1  0
 12 32  1  0
 13 14  1  0
 13 22  1  0
 14  4  1  0
 14 15  1  0
 15  6  1  0
 15 16  1  0
 16  7  1  0
 16 21  1  0
 17  8  1  0
 17 18  1  0
 17 19  1  0
 18  2  1  0
 19  9  1  0
 19 20  1  0
 20 10  1  0
 20 23  1  0
 21  5  1  0
 23 24  1  0
 25 26  1  0
 26 27  1  0
 27 28  2  0
 27 29  1  0
 28 30  1  0
 29 31  2  0
 30 32  2  0
 31 32  1  0
  4 43  1  0
  6 44  1  0
  7 45  1  0
  8 46  1  0
  9 47  1  0
 10 48  1  0
 11 49  1  0
 12 50  1  0
 13 33  1  0
 14 34  1  0
 15 35  1  0
 16 36  1  0
 17 37  1  0
 18 38  1  0
 19 39  1  0
 20 40  1  0
 21 41  1  0
 22 51  1  0
 22 52  1  0
 23 42  1  0
 24 53  1  0
 24 54  1  0
 24 55  1  0
 25 56  1  0
 25 57  1  0
 26 58  1  0
 26 59  1  0
 28 60  1  0
 29 61  1  0
 31 62  1  0
M  END
>  <LF dG>
-5.855

>  <LF VSscore>
-13.166

>  <LF Rank Score>
-10.677

>  <LF LE>
-0.183

>  <LF Structure Name>
C:\Users\Odara\AppData\Local\Temp\LeadFinder_5292_1\Ligand_1.sdf

>  <LF SDF id>
0

>  <LF Pose rank>
0

>  <LF version>
2001 1, 19 January 2019

>  <PUBCHEM_COMPOUND_CID>
69634125

>  <PUBCHEM_COMPOUND_CANONICALIZED>
1

>  <PUBCHEM_CACTVS_COMPLEXITY>
581

>  <PUBCHEM_CACTVS_HBOND_ACCEPTOR>
12

>  <PUBCHEM_CACTVS_HBOND_DONOR>
8

>  <PUBCHEM_CACTVS_ROTATABLE_BOND>
7

>  <PUBCHEM_CACTVS_SUBSKEYS>
AAADceB4PAAAAAAAAAAAAAAAAAAAAAAAAAA0SIAAAAAAAAABAAAAGgAACAAADBSwmAMyDoAABgCAAiBCAAACAAAgIAAIiAAGiIgZNiKCERKicAElwBEPmAfA4LwOIAABAAAAQABAAAIAAACAAAAAAAAAAA==

>  <PUBCHEM_IUPAC_OPENEYE_NAME>
(2R,3R,4R,5R,6S)-2-[[(2R,3S,4S,5R,6R)-6-[2-(3,4-dihydroxyphenyl)ethoxy]-3,4,5-trihydroxy-tetrahydropyran-2-yl]methoxy]-6-methyl-tetrahydropyran-3,4,5-triol

>  <PUBCHEM_IUPAC_CAS_NAME>
(2R,3R,4R,5R,6S)-2-[[(2R,3S,4S,5R,6R)-6-[2-(3,4-dihydroxyphenyl)ethoxy]-3,4,5-trihydroxy-2-oxanyl]methoxy]-6-methyloxane-3,4,5-triol

>  <PUBCHEM_IUPAC_NAME_MARKUP>
(2<I>R</I>,3<I>R</I>,4<I>R</I>,5<I>R</I>,6<I>S</I>)-2-[[(2<I>R</I>,3<I>S</I>,4<I>S</I>,5<I>R</I>,6<I>R</I>)-6-[2-(3,4-dihydroxyphenyl)ethoxy]-3,4,5-trihydroxyoxan-2-yl]methoxy]-6-methyloxane-3,4,5-tri

>  <PUBCHEM_IUPAC_NAME>
(2R,3R,4R,5R,6S)-2-[[(2R,3S,4S,5R,6R)-6-[2-(3,4-dihydroxyphenyl)ethoxy]-3,4,5-trihydroxyoxan-2-yl]methoxy]-6-methyloxane-3,4,5-triol

>  <PUBCHEM_IUPAC_SYSTEMATIC_NAME>
(2R,3R,4R,5R,6S)-2-[[(2R,3S,4S,5R,6R)-6-[2-[3,4-bis(oxidanyl)phenyl]ethoxy]-3,4,5-tris(oxidanyl)oxan-2-yl]methoxy]-6-methyl-oxane-3,4,5-triol

>  <PUBCHEM_IUPAC_TRADITIONAL_NAME>
(2R,3R,4R,5R,6S)-2-[[(2R,3S,4S,5R,6R)-6-[2-(3,4-dihydroxyphenyl)ethoxy]-3,4,5-trihydroxy-tetrahydropyran-2-yl]methoxy]-6-methyl-tetrahydropyran-3,4,5-triol

>  <PUBCHEM_IUPAC_INCHI>
InChI=1S/C20H30O12/c1-8-13(23)15(25)17(27)20(31-8)30-7-12-14(24)16(26)18(28)19(32-12)29-5-4-9-2-3-10(21)11(22)6-9/h2-3,6,8,12-28H,4-5,7H2,1H3/t8-,12+,13-,14+,15+,16-,17+,18+,19+,20+/m0/s1

>  <PUBCHEM_IUPAC_INCHIKEY>
QIMGUQIHCNDUKU-OJJLXHDHSA-N

>  <PUBCHEM_XLOGP3_AA>
-2.5

>  <PUBCHEM_EXACT_MASS>
462.173726

>  <PUBCHEM_MOLECULAR_FORMULA>
C20H30O12

>  <PUBCHEM_MOLECULAR_WEIGHT>
462.4

>  <PUBCHEM_OPENEYE_CAN_SMILES>
CC1C(C(C(C(O1)OCC2C(C(C(C(O2)OCCC3=CC(=C(C=C3)O)O)O)O)O)O)O)O

>  <PUBCHEM_OPENEYE_ISO_SMILES>
C[C@H]1[C@@H]([C@H]([C@H]([C@@H](O1)OC[C@@H]2[C@H]([C@@H]([C@H]([C@@H](O2)OCCC3=CC(=C(C=C3)O)O)O)O)O)O)O)O

>  <PUBCHEM_CACTVS_TPSA>
199

>  <PUBCHEM_MONOISOTOPIC_WEIGHT>
462.173726

>  <PUBCHEM_TOTAL_CHARGE>
0

>  <PUBCHEM_HEAVY_ATOM_COUNT>
32

>  <PUBCHEM_ATOM_DEF_STEREO_COUNT>
10

>  <PUBCHEM_ATOM_UDEF_STEREO_COUNT>
0

>  <PUBCHEM_BOND_DEF_STEREO_COUNT>
0

>  <PUBCHEM_BOND_UDEF_STEREO_COUNT>
0

>  <PUBCHEM_ISOTOPIC_ATOM_COUNT>
0

>  <PUBCHEM_COMPONENT_COUNT>
1

>  <PUBCHEM_CACTVS_TAUTO_COUNT>
-1

>  <PUBCHEM_COORDINATE_TYPE>
1
5
255

>  <PUBCHEM_BONDANNOTATIONS>
20  10  5
13  22  5
18  2  5
23  24  6
27  28  8
27  29  8
28  30  8
29  31  8
30  32  8
31  32  8
14  4  6
21  5  5
15  6  5
16  7  6
17  8  6
19  9  6

>  <Preferred Pose_cresset>
true

>  <Favorite_cresset>
false

>  <MW_cresset>
462.4

>  <#Atoms_cresset>
32

>  <SlogP_cresset>
-0.4

>  <TPSA_cresset>
198.8

>  <Flexibility_cresset>
15.9

>  <#RB_cresset>
15

>  <Rof5_cresset>
2

>  <Filename_cresset>
Forsythoside E with water site 2.sdf

>  <Confs_cresset>
0

>  <Poses_cresset>
10

>  <_cresset_fieldpoints>
    -5     -58.421078     -20.749130      -1.222135     -6.4497
    -5     -62.185143     -25.669952       0.453416    -14.3654
    -5     -64.474503     -18.164726      -2.937918    -20.1919
    -5     -58.352180     -16.993608      -4.280952    -15.8588
    -5     -62.679924     -26.263535      -4.898544    -12.2042
    -5     -56.184807     -25.264477      -6.672099     -7.0440
    -5     -54.521339     -22.560482      -9.904190     -7.7146
    -5     -52.884377     -20.558060      -4.384153     -2.8051
    -6     -61.072891     -19.331383       1.640054      3.1337
    -6     -58.265846     -23.144241      -3.886001      3.8083
    -6     -61.578190     -18.269499      -6.584608     17.4420
    -6     -65.033203     -23.189144      -4.652523      9.3652
    -6     -63.006119     -27.979492      -1.583767      5.5691
    -6     -58.938942     -27.148924      -4.109150      9.1198
    -6     -65.058998     -21.630543      -0.691904      8.7955
    -6     -52.012436     -24.727142      -7.073478     16.6673
    -6     -60.456383     -17.054188      -0.251667      3.0025
    -6     -56.700470     -23.400204      -2.478383      3.8915
    -6     -54.744896     -17.790239      -7.927072      1.8896
    -7     -58.418678     -21.901779      -1.497804     -3.6444
    -7     -61.729225     -26.430099       0.331374     -2.6257
    -7     -59.846821     -23.494873       1.189081     -2.1754
    -7     -64.626297     -21.647343      -3.128192     -2.5796
    -7     -63.630211     -18.668182       0.517910     -1.8851
    -7     -65.885872     -26.341129      -2.283385     -1.5570
    -7     -65.113373     -19.229303      -3.816001     -1.5260
    -7     -62.605213     -20.433498      -5.622391     -1.8693
    -7     -60.124889     -15.396185      -2.634150     -1.6125
    -7     -63.835815     -27.784378      -2.965022     -1.6149
    -7     -62.948524     -26.247053      -5.616175     -1.5512
    -7     -58.324043     -21.734394      -7.083288     -2.2724
    -7     -58.844147     -23.193392      -4.511735     -3.2476
    -7     -60.325661     -28.084278      -3.494161     -1.4489
    -7     -54.441986     -25.283752      -8.487444     -1.4989
    -7     -60.884506     -21.862873      -4.228424     -4.0010
    -7     -52.481525     -20.992783      -4.290792     -1.8328
    -7     -51.537575     -23.487202      -6.092852     -1.3803
    -7     -51.258629     -21.976406      -8.080050     -1.1939
    -7     -60.798882     -16.535938      -0.374453     -1.7879
    -7     -62.301094     -15.648596      -5.013021     -1.6122
    -7     -64.789413     -21.251286       0.252663     -1.9957
    -7     -57.891872     -17.164215      -5.399441     -2.3786
    -7     -56.419167     -23.309280      -1.920989     -2.0071
    -8     -61.773422     -20.029564      -1.167776      3.8560
    -8     -61.212830     -18.819954      -2.670774      5.1874
    -8     -55.122681     -21.518265      -6.099965      6.9318
    -8     -60.338852     -25.122471      -2.258695      4.5935
    -8     -62.297676     -24.330784      -2.181516      4.7546

$$$$
Site2_Lopinavir_D
  xed2sdf_05210316543D
 
 94 97  0  0  1  0  0  0  0  0999 V2000
  -62.8164  -25.0148   -3.9222 O   0  0  0  0  0  0  0  0  0  0  0  0
  -57.6194  -21.5438   -2.3162 O   0  0  0  0  0  0  0  0  0  0  0  0
  -54.6104  -20.1178   -4.9242 O   0  0  0  0  0  0  0  0  0  0  0  0
  -62.6764  -23.7948    0.0098 O   0  0  0  0  0  0  0  0  0  0  0  0
  -65.3374  -24.3488    0.3298 O   0  0  0  0  0  0  0  0  0  0  0  0
  -56.4624  -21.3408   -5.3452 N   0  0  0  0  0  0  0  0  0  0  0  0
  -59.2644  -21.6868   -3.8792 N   0  0  0  0  0  0  0  0  0  0  0  0
  -62.5584  -25.3908   -1.6152 N   0  0  0  0  0  0  0  0  0  0  0  0
  -54.4204  -21.7658   -6.4232 N   0  0  0  0  0  0  0  0  0  0  0  0
  -60.0844  -22.5918   -3.0602 C   0  0  0  0  0  0  0  0  0  0  0  0
  -57.2804  -20.4908   -4.4562 C   0  0  0  0  0  0  0  0  0  0  0  0
  -61.2374  -23.1638   -3.9112 C   0  0  0  0  0  0  0  0  0  0  0  0
  -61.4684  -24.6538   -3.5842 C   0  0  0  0  0  0  0  0  0  0  0  0
  -58.2544  -19.5158   -5.1622 C   0  0  0  0  0  0  0  0  0  0  0  0
  -61.2364  -24.9628   -2.0922 C   0  0  0  0  0  0  0  0  0  0  0  0
  -60.6244  -21.8138   -1.8432 C   0  0  0  0  0  0  0  0  0  0  0  0
  -58.0624  -21.2888   -3.4282 C   0  0  0  0  0  0  0  0  0  0  0  0
  -57.1124  -22.4768   -6.0262 C   0  0  0  0  0  0  0  0  0  0  0  0
  -56.0924  -23.5658   -6.3732 C   0  0  0  0  0  0  0  0  0  0  0  0
  -60.2014  -26.0948   -1.8882 C   0  0  0  0  0  0  0  0  0  0  0  0
  -55.1514  -21.0418   -5.5412 C   0  0  0  0  0  0  0  0  0  0  0  0
  -58.4014  -18.1868   -4.4012 C   0  0  0  0  0  0  0  0  0  0  0  0
  -57.8414  -19.1958   -6.6102 C   0  0  0  0  0  0  0  0  0  0  0  0
  -54.9944  -22.8808   -7.1912 C   0  0  0  0  0  0  0  0  0  0  0  0
  -61.1644  -20.4268   -2.1572 C   0  0  0  0  0  0  0  0  0  0  0  0
  -59.4584  -26.1648   -0.5592 C   0  0  0  0  0  0  0  0  0  0  0  0
  -63.1454  -24.7498   -0.5932 C   0  0  0  0  0  0  0  0  0  0  0  0
  -62.3034  -20.2748   -2.9172 C   0  0  0  0  0  0  0  0  0  0  0  0
  -60.5124  -19.3118   -1.6802 C   0  0  0  0  0  0  0  0  0  0  0  0
  -59.7234  -27.2378    0.2618 C   0  0  0  0  0  0  0  0  0  0  0  0
  -58.5424  -25.2168   -0.1522 C   0  0  0  0  0  0  0  0  0  0  0  0
  -64.4864  -25.3538   -0.2552 C   0  0  0  0  0  0  0  0  0  0  0  0
  -62.7854  -19.0168   -3.2002 C   0  0  0  0  0  0  0  0  0  0  0  0
  -60.9944  -18.0528   -1.9602 C   0  0  0  0  0  0  0  0  0  0  0  0
  -62.1314  -17.9048   -2.7212 C   0  0  0  0  0  0  0  0  0  0  0  0
  -59.0884  -27.3638    1.4758 C   0  0  0  0  0  0  0  0  0  0  0  0
  -57.9064  -25.3388    1.0618 C   0  0  0  0  0  0  0  0  0  0  0  0
  -58.1784  -26.4128    1.8778 C   0  0  0  0  0  0  0  0  0  0  0  0
  -66.6574  -24.5378    0.2178 C   0  0  0  0  0  0  0  0  0  0  0  0
  -67.2944  -24.3258   -0.9992 C   0  0  0  0  0  0  0  0  0  0  0  0
  -67.4044  -24.9608    1.3108 C   0  0  0  0  0  0  0  0  0  0  0  0
  -68.6514  -24.5208   -1.1072 C   0  0  0  0  0  0  0  0  0  0  0  0
  -68.7604  -25.1508    1.1838 C   0  0  0  0  0  0  0  0  0  0  0  0
  -66.5574  -23.8708   -2.2492 C   0  0  0  0  0  0  0  0  0  0  0  0
  -66.7994  -25.2278    2.6798 C   0  0  0  0  0  0  0  0  0  0  0  0
  -69.3864  -24.9308   -0.0202 C   0  0  0  0  0  0  0  0  0  0  0  0
  -59.5314  -23.3578   -2.7322 H   0  0  0  0  0  0  0  0  0  0  0  0
  -56.5824  -19.9348   -4.0052 H   0  0  0  0  0  0  0  0  0  0  0  0
  -60.8104  -25.1838   -4.1202 H   0  0  0  0  0  0  0  0  0  0  0  0
  -60.8694  -24.1728   -1.6012 H   0  0  0  0  0  0  0  0  0  0  0  0
  -63.3134  -24.2378   -4.3242 H   0  0  0  0  0  0  0  0  0  0  0  0
  -59.5624  -21.4298   -4.6662 H   0  0  0  0  0  0  0  0  0  0  0  0
  -62.9654  -26.0648   -2.0092 H   0  0  0  0  0  0  0  0  0  0  0  0
  -53.5764  -21.5498   -6.5522 H   0  0  0  0  0  0  0  0  0  0  0  0
  -61.0094  -23.0688   -4.8802 H   0  0  0  0  0  0  0  0  0  0  0  0
  -62.0734  -22.6558   -3.7032 H   0  0  0  0  0  0  0  0  0  0  0  0
  -59.1304  -19.9978   -5.1732 H   0  0  0  0  0  0  0  0  0  0  0  0
  -59.8834  -21.7188   -1.1792 H   0  0  0  0  0  0  0  0  0  0  0  0
  -61.3994  -22.3418   -1.4952 H   0  0  0  0  0  0  0  0  0  0  0  0
  -57.5454  -22.1518   -6.8662 H   0  0  0  0  0  0  0  0  0  0  0  0
  -57.7964  -22.8678   -5.4102 H   0  0  0  0  0  0  0  0  0  0  0  0
  -56.5254  -24.2908   -6.9092 H   0  0  0  0  0  0  0  0  0  0  0  0
  -55.7184  -23.9888   -5.5482 H   0  0  0  0  0  0  0  0  0  0  0  0
  -59.5144  -26.0038   -2.6092 H   0  0  0  0  0  0  0  0  0  0  0  0
  -60.7464  -26.9328   -1.9082 H   0  0  0  0  0  0  0  0  0  0  0  0
  -58.1954  -17.4308   -5.0232 H   0  0  0  0  0  0  0  0  0  0  0  0
  -59.3364  -18.0948   -4.0592 H   0  0  0  0  0  0  0  0  0  0  0  0
  -57.7684  -18.1698   -3.6282 H   0  0  0  0  0  0  0  0  0  0  0  0
  -57.7654  -18.2048   -6.7152 H   0  0  0  0  0  0  0  0  0  0  0  0
  -56.9604  -19.6248   -6.8122 H   0  0  0  0  0  0  0  0  0  0  0  0
  -58.5284  -19.5518   -7.2422 H   0  0  0  0  0  0  0  0  0  0  0  0
  -54.2754  -23.5428   -7.4052 H   0  0  0  0  0  0  0  0  0  0  0  0
  -55.3884  -22.5278   -8.0392 H   0  0  0  0  0  0  0  0  0  0  0  0
  -62.7814  -21.0808   -3.2662 H   0  0  0  0  0  0  0  0  0  0  0  0
  -59.6854  -19.4158   -1.1282 H   0  0  0  0  0  0  0  0  0  0  0  0
  -60.3844  -27.9308   -0.0262 H   0  0  0  0  0  0  0  0  0  0  0  0
  -58.3404  -24.4358   -0.7432 H   0  0  0  0  0  0  0  0  0  0  0  0
  -64.9124  -25.7088   -1.0872 H   0  0  0  0  0  0  0  0  0  0  0  0
  -64.3574  -26.0998    0.3978 H   0  0  0  0  0  0  0  0  0  0  0  0
  -63.6114  -18.9108   -3.7542 H   0  0  0  0  0  0  0  0  0  0  0  0
  -60.5184  -17.2458   -1.6102 H   0  0  0  0  0  0  0  0  0  0  0  0
  -62.4814  -16.9918   -2.9262 H   0  0  0  0  0  0  0  0  0  0  0  0
  -59.2874  -28.1458    2.0658 H   0  0  0  0  0  0  0  0  0  0  0  0
  -57.2454  -24.6458    1.3518 H   0  0  0  0  0  0  0  0  0  0  0  0
  -57.7164  -26.5018    2.7598 H   0  0  0  0  0  0  0  0  0  0  0  0
  -69.1074  -24.3618   -1.9832 H   0  0  0  0  0  0  0  0  0  0  0  0
  -69.2954  -25.4498    1.9738 H   0  0  0  0  0  0  0  0  0  0  0  0
  -67.2124  -23.7788   -2.9982 H   0  0  0  0  0  0  0  0  0  0  0  0
  -66.1144  -22.9908   -2.0782 H   0  0  0  0  0  0  0  0  0  0  0  0
  -65.8584  -24.5448   -2.4912 H   0  0  0  0  0  0  0  0  0  0  0  0
  -67.5244  -25.5158    3.3058 H   0  0  0  0  0  0  0  0  0  0  0  0
  -66.1104  -25.9488    2.6098 H   0  0  0  0  0  0  0  0  0  0  0  0
  -66.3654  -24.3958    3.0258 H   0  0  0  0  0  0  0  0  0  0  0  0
  -70.3734  -25.0698   -0.1052 H   0  0  0  0  0  0  0  0  0  0  0  0
  2 17  2  0
  3 21  2  0
  4 27  2  0
  5 32  1  0
  5 39  1  0
  6 11  1  0
  6 18  1  0
  6 21  1  0
  7 17  1  0
  8 27  1  0
  9 21  1  0
  9 24  1  0
 10  7  1  0
 10 12  1  0
 10 16  1  0
 11 14  1  0
 11 17  1  0
 12 13  1  0
 13  1  1  0
 13 15  1  0
 14 22  1  0
 14 23  1  0
 15  8  1  0
 15 20  1  0
 16 25  1  0
 18 19  1  0
 19 24  1  0
 20 26  1  0
 25 28  2  0
 25 29  1  0
 26 30  2  0
 26 31  1  0
 27 32  1  0
 28 33  1  0
 29 34  2  0
 30 36  1  0
 31 37  2  0
 33 35  2  0
 34 35  1  0
 36 38  2  0
 37 38  1  0
 39 40  2  0
 39 41  1  0
 40 42  1  0
 40 44  1  0
 41 43  2  0
 41 45  1  0
 42 46  2  0
 43 46  1  0
  1 51  1  0
  7 52  1  0
  8 53  1  0
  9 54  1  0
 10 47  1  0
 11 48  1  0
 12 55  1  0
 12 56  1  0
 13 49  1  0
 14 57  1  0
 15 50  1  0
 16 58  1  0
 16 59  1  0
 18 60  1  0
 18 61  1  0
 19 62  1  0
 19 63  1  0
 20 64  1  0
 20 65  1  0
 22 66  1  0
 22 67  1  0
 22 68  1  0
 23 69  1  0
 23 70  1  0
 23 71  1  0
 24 72  1  0
 24 73  1  0
 28 74  1  0
 29 75  1  0
 30 76  1  0
 31 77  1  0
 32 78  1  0
 32 79  1  0
 33 80  1  0
 34 81  1  0
 35 82  1  0
 36 83  1  0
 37 84  1  0
 38 85  1  0
 42 86  1  0
 43 87  1  0
 44 88  1  0
 44 89  1  0
 44 90  1  0
 45 91  1  0
 45 92  1  0
 45 93  1  0
 46 94  1  0
M  END
>  <LF dG>
-11.993

>  <LF VSscore>
-13.706

>  <LF Rank Score>
-15.545

>  <LF LE>
-0.261

>  <LF Structure Name>
C:\Users\Odara\AppData\Local\Temp\LeadFinder_612_1\Ligand_1.sdf

>  <LF SDF id>
0

>  <LF Pose rank>
0

>  <LF version>
2001 1, 19 January 2019

>  <PUBCHEM_COMPOUND_CID>
92727

>  <PUBCHEM_COMPOUND_CANONICALIZED>
1

>  <PUBCHEM_CACTVS_COMPLEXITY>
940

>  <PUBCHEM_CACTVS_HBOND_ACCEPTOR>
5

>  <PUBCHEM_CACTVS_HBOND_DONOR>
4

>  <PUBCHEM_CACTVS_ROTATABLE_BOND>
15

>  <PUBCHEM_CACTVS_SUBSKEYS>
AAADcfB/uAAAAAAAAAAAAAAAAAAAAAAAAAA8YMEAAAAAAAABUAAAHgAQCAAADTzhmAYzBoPABgCIAiFSEAICCAAgIAAIiIHMCIiOdjKE8T+XeCCu1hOYqAeQwPAOAAACAAAIAAAAAAQAABAAAAAAAAAAAA==

>  <PUBCHEM_IUPAC_OPENEYE_NAME>
(2S)-N-[(1S,3S,4S)-1-benzyl-4-[[2-(2,6-dimethylphenoxy)acetyl]amino]-3-hydroxy-5-phenyl-pentyl]-3-methyl-2-(2-oxohexahydropyrimidin-1-yl)butanamide

>  <PUBCHEM_IUPAC_CAS_NAME>
(2S)-N-[(2S,4S,5S)-5-[[2-(2,6-dimethylphenoxy)-1-oxoethyl]amino]-4-hydroxy-1,6-diphenylhexan-2-yl]-3-methyl-2-(2-oxo-1,3-diazinan-1-yl)butanamide

>  <PUBCHEM_IUPAC_NAME_MARKUP>
(2<I>S</I>)-<I>N</I>-[(2<I>S</I>,4<I>S</I>,5<I>S</I>)-5-[[2-(2,6-dimethylphenoxy)acetyl]amino]-4-hydroxy-1,6-diphenylhexan-2-yl]-3-methyl-2-(2-oxo-1,3-diazinan-1-yl)butanamide

>  <PUBCHEM_IUPAC_NAME>
(2S)-N-[(2S,4S,5S)-5-[[2-(2,6-dimethylphenoxy)acetyl]amino]-4-hydroxy-1,6-diphenylhexan-2-yl]-3-methyl-2-(2-oxo-1,3-diazinan-1-yl)butanamide

>  <PUBCHEM_IUPAC_SYSTEMATIC_NAME>
(2S)-N-[(2S,4S,5S)-5-[2-(2,6-dimethylphenoxy)ethanoylamino]-4-oxidanyl-1,6-diphenyl-hexan-2-yl]-3-methyl-2-(2-oxidanylidene-1,3-diazinan-1-yl)butanamide

>  <PUBCHEM_IUPAC_TRADITIONAL_NAME>
(2S)-N-[(1S,3S,4S)-1-benzyl-4-[[2-(2,6-dimethylphenoxy)acetyl]amino]-3-hydroxy-5-phenyl-pentyl]-2-(2-ketohexahydropyrimidin-1-yl)-3-methyl-butyramide

>  <PUBCHEM_IUPAC_INCHI>
InChI=1S/C37H48N4O5/c1-25(2)34(41-20-12-19-38-37(41)45)36(44)39-30(21-28-15-7-5-8-16-28)23-32(42)31(22-29-17-9-6-10-18-29)40-33(43)24-46-35-26(3)13-11-14-27(35)4/h5-11,13-18,25,30-32,34,42H,12,19-24H2

>  <PUBCHEM_IUPAC_INCHIKEY>
KJHKTHWMRKYKJE-SUGCFTRWSA-N

>  <PUBCHEM_XLOGP3_AA>
5.9

>  <PUBCHEM_EXACT_MASS>
628.362471

>  <PUBCHEM_MOLECULAR_FORMULA>
C37H48N4O5

>  <PUBCHEM_MOLECULAR_WEIGHT>
628.8

>  <PUBCHEM_OPENEYE_CAN_SMILES>
CC1=C(C(=CC=C1)C)OCC(=O)NC(CC2=CC=CC=C2)C(CC(CC3=CC=CC=C3)NC(=O)C(C(C)C)N4CCCNC4=O)O

>  <PUBCHEM_OPENEYE_ISO_SMILES>
CC1=C(C(=CC=C1)C)OCC(=O)N[C@@H](CC2=CC=CC=C2)[C@H](C[C@H](CC3=CC=CC=C3)NC(=O)[C@H](C(C)C)N4CCCNC4=O)O

>  <PUBCHEM_CACTVS_TPSA>
120

>  <PUBCHEM_MONOISOTOPIC_WEIGHT>
628.362471

>  <PUBCHEM_TOTAL_CHARGE>
0

>  <PUBCHEM_HEAVY_ATOM_COUNT>
46

>  <PUBCHEM_ATOM_DEF_STEREO_COUNT>
4

>  <PUBCHEM_ATOM_UDEF_STEREO_COUNT>
0

>  <PUBCHEM_BOND_DEF_STEREO_COUNT>
0

>  <PUBCHEM_BOND_UDEF_STEREO_COUNT>
0

>  <PUBCHEM_ISOTOPIC_ATOM_COUNT>
0

>  <PUBCHEM_COMPONENT_COUNT>
1

>  <PUBCHEM_CACTVS_TAUTO_COUNT>
-1

>  <PUBCHEM_COORDINATE_TYPE>
1
5
255

>  <PUBCHEM_BONDANNOTATIONS>
13  1  6
11  17  5
25  28  8
25  29  8
26  30  8
26  31  8
28  33  8
29  34  8
30  36  8
31  37  8
33  35  8
34  35  8
36  38  8
37  38  8
39  40  8
39  41  8
40  42  8
41  43  8
42  46  8
43  46  8
10  7  6
15  8  5

>  <Preferred Pose_cresset>
true

>  <Favorite_cresset>
false

>  <MW_cresset>
628.8

>  <#Atoms_cresset>
46

>  <SlogP_cresset>
4.7

>  <TPSA_cresset>
120

>  <Flexibility_cresset>
16.1

>  <#RB_cresset>
16

>  <Rof5_cresset>
1

>  <Filename_cresset>
Lopinavir no water site 2.sdf

>  <Tags_cresset>
Docking...

>  <Confs_cresset>
0

>  <Poses_cresset>
10

>  <_cresset_fieldpoints>
    -5     -63.124931     -26.741508      -4.687881     -8.0604
    -5     -54.106396     -18.885172      -3.756738    -18.0998
    -5     -55.932007     -21.203541      -1.789796    -17.6903
    -5     -53.292027     -19.109526      -4.343865    -18.0896
    -5     -63.690666     -22.910213       1.181069    -21.0124
    -5     -56.664482     -27.695303      -0.513802     -4.0651
    -5     -68.049622     -27.583223      -0.526012     -2.5441
    -6     -52.071404     -22.125134      -7.617442      4.9120
    -6     -59.991318     -21.780540      -6.498775     11.8249
    -6     -58.732384     -24.874935      -4.861578      7.8231
    -6     -57.722157     -23.302826      -8.840121      5.6608
    -6     -64.078262     -22.501961      -4.580303     12.7826
    -6     -63.965096     -27.677467      -1.750889      7.8977
    -6     -69.318283     -24.043726      -4.073774      3.2025
    -6     -69.821808     -26.201963       3.862538      2.6961
    -7     -66.852448     -27.698036      -0.711035     -2.5135
    -7     -57.324951     -24.303242      -3.208838     -4.0672
    -7     -62.755257     -24.487690      -6.538662     -1.4474
    -7     -62.436092     -27.678490      -3.871430     -2.0003
    -7     -64.698349     -26.365202      -3.717159     -2.5354
    -7     -57.240036     -19.348701      -1.335300     -2.8230
    -7     -57.705803     -21.993664      -0.056851     -2.6940
    -7     -54.911812     -19.811941      -8.267078     -2.1749
    -7     -55.237576     -17.864204      -5.221253     -2.5092
    -7     -60.190666     -21.701996      -6.972065     -3.0295
    -7     -62.786346     -28.091263      -0.579212     -2.7221
    -7     -57.116409     -21.029247      -9.158176     -2.0194
    -7     -57.799294     -20.803370      -0.152471     -2.4094
    -7     -64.554291     -22.396545      -4.217295     -2.7627
    -7     -64.059052     -22.035906      -0.884832     -4.0643
    -7     -61.393951     -20.528717      -6.045982     -3.3363
    -7     -58.132622     -28.562040       4.509615     -0.9683
    -7     -56.582664     -27.921370      -1.050166     -1.8415
    -7     -61.287308     -24.493767       1.725777     -3.1791
    -7     -55.908852     -24.689650       3.727924     -0.9693
    -7     -60.739357     -23.228247       1.032285     -3.4618
    -7     -63.674019     -23.880512       2.436918     -2.3624
    -7     -71.720245     -24.673002      -2.496735     -1.0024
    -7     -68.233673     -21.626747       0.925782     -1.9938
    -7     -71.759811     -24.325880       2.377793     -0.9999
    -7     -71.915558     -25.969494       2.030618     -1.0028
    -8     -60.882122     -23.656090      -2.907765      6.1459
    -8     -61.268394     -21.606655      -2.704737      5.7734
    -8     -57.957832     -19.119354      -5.218689      5.8826
    -8     -68.055145     -24.744347       0.094286      7.0745
    -8     -64.001083     -25.841879      -0.539735      2.8381
    -8     -56.225281     -23.087477      -6.762739      4.9535
    -8     -61.636826     -19.170399      -2.446602      7.2360
    -8     -67.405121     -24.322182      -1.137259      5.4887
    -8     -58.819664     -26.288586       0.655950      7.1940

$$$$
W_Site2_Lopinavir_D
  xed2sdf_05210316543D
 
 94 97  0  0  1  0  0  0  0  0999 V2000
  -61.9010  -23.6416   -3.5764 O   0  0  0  0  0  0  0  0  0  0  0  0
  -61.9860  -23.9826    2.1476 O   0  0  0  0  0  0  0  0  0  0  0  0
  -65.1750  -26.1126    4.8216 O   0  0  0  0  0  0  0  0  0  0  0  0
  -58.3130  -22.1626   -1.6554 O   0  0  0  0  0  0  0  0  0  0  0  0
  -56.9260  -21.1276   -3.7024 O   0  0  0  0  0  0  0  0  0  0  0  0
  -64.8090  -25.6206    2.6476 N   0  0  0  0  0  0  0  0  0  0  0  0
  -62.4640  -25.5756    0.5976 N   0  0  0  0  0  0  0  0  0  0  0  0
  -60.2970  -21.9666   -2.7624 N   0  0  0  0  0  0  0  0  0  0  0  0
  -66.9710  -25.6906    3.5596 N   0  0  0  0  0  0  0  0  0  0  0  0
  -61.8190  -24.8306   -0.4944 C   0  0  0  0  0  0  0  0  0  0  0  0
  -63.3570  -25.8546    2.7926 C   0  0  0  0  0  0  0  0  0  0  0  0
  -62.8940  -24.2636   -1.4444 C   0  0  0  0  0  0  0  0  0  0  0  0
  -62.3140  -23.1206   -2.3034 C   0  0  0  0  0  0  0  0  0  0  0  0
  -62.8990  -27.3316    2.7016 C   0  0  0  0  0  0  0  0  0  0  0  0
  -61.1020  -22.4476   -1.6304 C   0  0  0  0  0  0  0  0  0  0  0  0
  -60.8560  -25.7736   -1.2434 C   0  0  0  0  0  0  0  0  0  0  0  0
  -62.5240  -25.0336    1.8256 C   0  0  0  0  0  0  0  0  0  0  0  0
  -65.3270  -25.2106    1.3286 C   0  0  0  0  0  0  0  0  0  0  0  0
  -66.6410  -24.4376    1.4716 C   0  0  0  0  0  0  0  0  0  0  0  0
  -61.5230  -21.2606   -0.7304 C   0  0  0  0  0  0  0  0  0  0  0  0
  -65.6310  -25.8186    3.7116 C   0  0  0  0  0  0  0  0  0  0  0  0
  -62.0030  -27.7386    3.8846 C   0  0  0  0  0  0  0  0  0  0  0  0
  -64.0740  -28.3226    2.6276 C   0  0  0  0  0  0  0  0  0  0  0  0
  -67.5860  -25.3396    2.2706 C   0  0  0  0  0  0  0  0  0  0  0  0
  -59.7710  -26.4006   -0.3814 C   0  0  0  0  0  0  0  0  0  0  0  0
  -61.6820  -19.8886   -1.3724 C   0  0  0  0  0  0  0  0  0  0  0  0
  -58.9640  -21.8716   -2.6484 C   0  0  0  0  0  0  0  0  0  0  0  0
  -59.1930  -25.6856    0.6446 C   0  0  0  0  0  0  0  0  0  0  0  0
  -59.3610  -27.6926   -0.6244 C   0  0  0  0  0  0  0  0  0  0  0  0
  -62.8390  -19.6476   -2.0794 C   0  0  0  0  0  0  0  0  0  0  0  0
  -60.7350  -18.8906   -1.2744 C   0  0  0  0  0  0  0  0  0  0  0  0
  -58.3340  -21.3476   -3.9154 C   0  0  0  0  0  0  0  0  0  0  0  0
  -58.2100  -26.2576    1.4206 C   0  0  0  0  0  0  0  0  0  0  0  0
  -58.3800  -28.2666    0.1516 C   0  0  0  0  0  0  0  0  0  0  0  0
  -57.8030  -27.5486    1.1746 C   0  0  0  0  0  0  0  0  0  0  0  0
  -63.0490  -18.4296   -2.6834 C   0  0  0  0  0  0  0  0  0  0  0  0
  -60.9400  -17.6716   -1.8784 C   0  0  0  0  0  0  0  0  0  0  0  0
  -62.0980  -17.4396   -2.5844 C   0  0  0  0  0  0  0  0  0  0  0  0
  -56.2040  -20.7706   -4.7714 C   0  0  0  0  0  0  0  0  0  0  0  0
  -56.2920  -19.4796   -5.2774 C   0  0  0  0  0  0  0  0  0  0  0  0
  -55.3480  -21.6816   -5.3794 C   0  0  0  0  0  0  0  0  0  0  0  0
  -55.5480  -19.1196   -6.3764 C   0  0  0  0  0  0  0  0  0  0  0  0
  -54.6120  -21.3036   -6.4784 C   0  0  0  0  0  0  0  0  0  0  0  0
  -57.1950  -18.4156   -4.6714 C   0  0  0  0  0  0  0  0  0  0  0  0
  -55.1740  -23.1126   -4.8974 C   0  0  0  0  0  0  0  0  0  0  0  0
  -54.7100  -20.0266   -6.9794 C   0  0  0  0  0  0  0  0  0  0  0  0
  -61.2950  -24.0626   -0.1264 H   0  0  0  0  0  0  0  0  0  0  0  0
  -63.1950  -25.5536    3.7326 H   0  0  0  0  0  0  0  0  0  0  0  0
  -63.0330  -22.4346   -2.4134 H   0  0  0  0  0  0  0  0  0  0  0  0
  -60.6110  -23.0786   -1.0304 H   0  0  0  0  0  0  0  0  0  0  0  0
  -62.6020  -23.4876   -4.2804 H   0  0  0  0  0  0  0  0  0  0  0  0
  -62.8200  -26.3626    0.4286 H   0  0  0  0  0  0  0  0  0  0  0  0
  -60.6950  -21.7496   -3.5174 H   0  0  0  0  0  0  0  0  0  0  0  0
  -67.4920  -25.8386    4.2536 H   0  0  0  0  0  0  0  0  0  0  0  0
  -63.6610  -23.9156   -0.9044 H   0  0  0  0  0  0  0  0  0  0  0  0
  -63.2050  -24.9956   -2.0514 H   0  0  0  0  0  0  0  0  0  0  0  0
  -62.3770  -27.3816    1.8496 H   0  0  0  0  0  0  0  0  0  0  0  0
  -60.4130  -25.2516   -1.9724 H   0  0  0  0  0  0  0  0  0  0  0  0
  -61.4140  -26.5296   -1.5844 H   0  0  0  0  0  0  0  0  0  0  0  0
  -65.4820  -26.0246    0.7696 H   0  0  0  0  0  0  0  0  0  0  0  0
  -64.6530  -24.6136    0.8936 H   0  0  0  0  0  0  0  0  0  0  0  0
  -67.0280  -24.2396    0.5706 H   0  0  0  0  0  0  0  0  0  0  0  0
  -66.5000  -23.5616    1.9336 H   0  0  0  0  0  0  0  0  0  0  0  0
  -60.8340  -21.1756   -0.0104 H   0  0  0  0  0  0  0  0  0  0  0  0
  -62.4450  -21.4976   -0.4264 H   0  0  0  0  0  0  0  0  0  0  0  0
  -62.3930  -28.5466    4.3256 H   0  0  0  0  0  0  0  0  0  0  0  0
  -61.0820  -27.9456    3.5546 H   0  0  0  0  0  0  0  0  0  0  0  0
  -61.9520  -26.9866    4.5416 H   0  0  0  0  0  0  0  0  0  0  0  0
  -63.9800  -28.9946    3.3626 H   0  0  0  0  0  0  0  0  0  0  0  0
  -64.9380  -27.8296    2.7306 H   0  0  0  0  0  0  0  0  0  0  0  0
  -64.0670  -28.7866    1.7416 H   0  0  0  0  0  0  0  0  0  0  0  0
  -68.4490  -24.8596    2.4326 H   0  0  0  0  0  0  0  0  0  0  0  0
  -67.7590  -26.1756    1.7506 H   0  0  0  0  0  0  0  0  0  0  0  0
  -59.4880  -24.7476    0.8266 H   0  0  0  0  0  0  0  0  0  0  0  0
  -59.7770  -28.2156   -1.3684 H   0  0  0  0  0  0  0  0  0  0  0  0
  -63.5330  -20.3636   -2.1534 H   0  0  0  0  0  0  0  0  0  0  0  0
  -59.8930  -19.0546   -0.7604 H   0  0  0  0  0  0  0  0  0  0  0  0
  -58.4600  -22.0126   -4.6524 H   0  0  0  0  0  0  0  0  0  0  0  0
  -58.7700  -20.4836   -4.1684 H   0  0  0  0  0  0  0  0  0  0  0  0
  -57.7920  -25.7346    2.1636 H   0  0  0  0  0  0  0  0  0  0  0  0
  -58.0860  -29.2056   -0.0274 H   0  0  0  0  0  0  0  0  0  0  0  0
  -57.0900  -27.9646    1.7376 H   0  0  0  0  0  0  0  0  0  0  0  0
  -63.8920  -18.2626   -3.1944 H   0  0  0  0  0  0  0  0  0  0  0  0
  -60.2480  -16.9536   -1.8054 H   0  0  0  0  0  0  0  0  0  0  0  0
  -62.2490  -16.5546   -3.0244 H   0  0  0  0  0  0  0  0  0  0  0  0
  -55.6180  -18.1896   -6.7404 H   0  0  0  0  0  0  0  0  0  0  0  0
  -54.0010  -21.9626   -6.9164 H   0  0  0  0  0  0  0  0  0  0  0  0
  -57.1010  -17.5706   -5.1984 H   0  0  0  0  0  0  0  0  0  0  0  0
  -58.1450  -18.7246   -4.6974 H   0  0  0  0  0  0  0  0  0  0  0  0
  -56.9310  -18.2516   -3.7204 H   0  0  0  0  0  0  0  0  0  0  0  0
  -54.5160  -23.5786   -5.4884 H   0  0  0  0  0  0  0  0  0  0  0  0
  -54.8400  -23.1136   -3.9544 H   0  0  0  0  0  0  0  0  0  0  0  0
  -56.0540  -23.5886   -4.9314 H   0  0  0  0  0  0  0  0  0  0  0  0
  -54.1720  -19.7586   -7.7784 H   0  0  0  0  0  0  0  0  0  0  0  0
  2 17  2  0
  3 21  2  0
  4 27  2  0
  5 32  1  0
  5 39  1  0
  6 11  1  0
  6 18  1  0
  6 21  1  0
  7 17  1  0
  8 27  1  0
  9 21  1  0
  9 24  1  0
 10  7  1  0
 10 12  1  0
 10 16  1  0
 11 14  1  0
 11 17  1  0
 12 13  1  0
 13  1  1  0
 13 15  1  0
 14 22  1  0
 14 23  1  0
 15  8  1  0
 15 20  1  0
 16 25  1  0
 18 19  1  0
 19 24  1  0
 20 26  1  0
 25 28  2  0
 25 29  1  0
 26 30  2  0
 26 31  1  0
 27 32  1  0
 28 33  1  0
 29 34  2  0
 30 36  1  0
 31 37  2  0
 33 35  2  0
 34 35  1  0
 36 38  2  0
 37 38  1  0
 39 40  2  0
 39 41  1  0
 40 42  1  0
 40 44  1  0
 41 43  2  0
 41 45  1  0
 42 46  2  0
 43 46  1  0
  1 51  1  0
  7 52  1  0
  8 53  1  0
  9 54  1  0
 10 47  1  0
 11 48  1  0
 12 55  1  0
 12 56  1  0
 13 49  1  0
 14 57  1  0
 15 50  1  0
 16 58  1  0
 16 59  1  0
 18 60  1  0
 18 61  1  0
 19 62  1  0
 19 63  1  0
 20 64  1  0
 20 65  1  0
 22 66  1  0
 22 67  1  0
 22 68  1  0
 23 69  1  0
 23 70  1  0
 23 71  1  0
 24 72  1  0
 24 73  1  0
 28 74  1  0
 29 75  1  0
 30 76  1  0
 31 77  1  0
 32 78  1  0
 32 79  1  0
 33 80  1  0
 34 81  1  0
 35 82  1  0
 36 83  1  0
 37 84  1  0
 38 85  1  0
 42 86  1  0
 43 87  1  0
 44 88  1  0
 44 89  1  0
 44 90  1  0
 45 91  1  0
 45 92  1  0
 45 93  1  0
 46 94  1  0
M  END
>  <LF dG>
-11.326

>  <LF VSscore>
-13.708

>  <LF Rank Score>
-15.733

>  <LF LE>
-0.246

>  <LF Structure Name>
C:\Users\Odara\AppData\Local\Temp\LeadFinder_14448_1\Ligand_1.sdf

>  <LF SDF id>
0

>  <LF Pose rank>
0

>  <LF version>
2001 1, 19 January 2019

>  <PUBCHEM_COMPOUND_CID>
92727

>  <PUBCHEM_COMPOUND_CANONICALIZED>
1

>  <PUBCHEM_CACTVS_COMPLEXITY>
940

>  <PUBCHEM_CACTVS_HBOND_ACCEPTOR>
5

>  <PUBCHEM_CACTVS_HBOND_DONOR>
4

>  <PUBCHEM_CACTVS_ROTATABLE_BOND>
15

>  <PUBCHEM_CACTVS_SUBSKEYS>
AAADcfB/uAAAAAAAAAAAAAAAAAAAAAAAAAA8YMEAAAAAAAABUAAAHgAQCAAADTzhmAYzBoPABgCIAiFSEAICCAAgIAAIiIHMCIiOdjKE8T+XeCCu1hOYqAeQwPAOAAACAAAIAAAAAAQAABAAAAAAAAAAAA==

>  <PUBCHEM_IUPAC_OPENEYE_NAME>
(2S)-N-[(1S,3S,4S)-1-benzyl-4-[[2-(2,6-dimethylphenoxy)acetyl]amino]-3-hydroxy-5-phenyl-pentyl]-3-methyl-2-(2-oxohexahydropyrimidin-1-yl)butanamide

>  <PUBCHEM_IUPAC_CAS_NAME>
(2S)-N-[(2S,4S,5S)-5-[[2-(2,6-dimethylphenoxy)-1-oxoethyl]amino]-4-hydroxy-1,6-diphenylhexan-2-yl]-3-methyl-2-(2-oxo-1,3-diazinan-1-yl)butanamide

>  <PUBCHEM_IUPAC_NAME_MARKUP>
(2<I>S</I>)-<I>N</I>-[(2<I>S</I>,4<I>S</I>,5<I>S</I>)-5-[[2-(2,6-dimethylphenoxy)acetyl]amino]-4-hydroxy-1,6-diphenylhexan-2-yl]-3-methyl-2-(2-oxo-1,3-diazinan-1-yl)butanamide

>  <PUBCHEM_IUPAC_NAME>
(2S)-N-[(2S,4S,5S)-5-[[2-(2,6-dimethylphenoxy)acetyl]amino]-4-hydroxy-1,6-diphenylhexan-2-yl]-3-methyl-2-(2-oxo-1,3-diazinan-1-yl)butanamide

>  <PUBCHEM_IUPAC_SYSTEMATIC_NAME>
(2S)-N-[(2S,4S,5S)-5-[2-(2,6-dimethylphenoxy)ethanoylamino]-4-oxidanyl-1,6-diphenyl-hexan-2-yl]-3-methyl-2-(2-oxidanylidene-1,3-diazinan-1-yl)butanamide

>  <PUBCHEM_IUPAC_TRADITIONAL_NAME>
(2S)-N-[(1S,3S,4S)-1-benzyl-4-[[2-(2,6-dimethylphenoxy)acetyl]amino]-3-hydroxy-5-phenyl-pentyl]-2-(2-ketohexahydropyrimidin-1-yl)-3-methyl-butyramide

>  <PUBCHEM_IUPAC_INCHI>
InChI=1S/C37H48N4O5/c1-25(2)34(41-20-12-19-38-37(41)45)36(44)39-30(21-28-15-7-5-8-16-28)23-32(42)31(22-29-17-9-6-10-18-29)40-33(43)24-46-35-26(3)13-11-14-27(35)4/h5-11,13-18,25,30-32,34,42H,12,19-24H2

>  <PUBCHEM_IUPAC_INCHIKEY>
KJHKTHWMRKYKJE-SUGCFTRWSA-N

>  <PUBCHEM_XLOGP3_AA>
5.9

>  <PUBCHEM_EXACT_MASS>
628.362471

>  <PUBCHEM_MOLECULAR_FORMULA>
C37H48N4O5

>  <PUBCHEM_MOLECULAR_WEIGHT>
628.8

>  <PUBCHEM_OPENEYE_CAN_SMILES>
CC1=C(C(=CC=C1)C)OCC(=O)NC(CC2=CC=CC=C2)C(CC(CC3=CC=CC=C3)NC(=O)C(C(C)C)N4CCCNC4=O)O

>  <PUBCHEM_OPENEYE_ISO_SMILES>
CC1=C(C(=CC=C1)C)OCC(=O)N[C@@H](CC2=CC=CC=C2)[C@H](C[C@H](CC3=CC=CC=C3)NC(=O)[C@H](C(C)C)N4CCCNC4=O)O

>  <PUBCHEM_CACTVS_TPSA>
120

>  <PUBCHEM_MONOISOTOPIC_WEIGHT>
628.362471

>  <PUBCHEM_TOTAL_CHARGE>
0

>  <PUBCHEM_HEAVY_ATOM_COUNT>
46

>  <PUBCHEM_ATOM_DEF_STEREO_COUNT>
4

>  <PUBCHEM_ATOM_UDEF_STEREO_COUNT>
0

>  <PUBCHEM_BOND_DEF_STEREO_COUNT>
0

>  <PUBCHEM_BOND_UDEF_STEREO_COUNT>
0

>  <PUBCHEM_ISOTOPIC_ATOM_COUNT>
0

>  <PUBCHEM_COMPONENT_COUNT>
1

>  <PUBCHEM_CACTVS_TAUTO_COUNT>
-1

>  <PUBCHEM_COORDINATE_TYPE>
1
5
255

>  <PUBCHEM_BONDANNOTATIONS>
13  1  6
11  17  5
25  28  8
25  29  8
26  30  8
26  31  8
28  33  8
29  34  8
30  36  8
31  37  8
33  35  8
34  35  8
36  38  8
37  38  8
39  40  8
39  41  8
40  42  8
41  43  8
42  46  8
43  46  8
10  7  6
15  8  5

>  <Preferred Pose_cresset>
true

>  <Favorite_cresset>
false

>  <MW_cresset>
628.8

>  <#Atoms_cresset>
46

>  <SlogP_cresset>
4.7

>  <TPSA_cresset>
120

>  <Flexibility_cresset>
16.1

>  <#RB_cresset>
16

>  <Rof5_cresset>
1

>  <Filename_cresset>
Lopinavir with water site 2.sdf

>  <Confs_cresset>
0

>  <Poses_cresset>
10

>  <_cresset_fieldpoints>
    -5     -60.022388     -23.977600      -3.732092    -12.9664
    -5     -61.978516     -23.071016       3.677269    -16.2462
    -5     -64.210480     -26.538750       6.238692    -18.0107
    -5     -65.156693     -26.500050       6.535800    -17.9406
    -5     -56.550575     -21.940304      -1.637162    -21.9577
    -5     -60.427887     -29.442974       1.790255     -2.0260
    -5     -62.998947     -17.750702       0.475790     -3.9984
    -5     -57.288643     -21.246231      -7.958592     -2.6963
    -6     -69.371674     -25.845234       4.687368      5.0180
    -6     -64.061401     -27.376484      -0.617998     10.4969
    -6     -65.739670     -24.971516      -1.485410      7.6616
    -6     -64.926704     -21.967266      -1.425183      8.1082
    -6     -58.547951     -16.136007      -2.983880      2.8757
    -6     -53.053490     -23.747915      -7.482356      2.5588
    -6     -64.057533     -22.253338      -4.430674     12.1346
    -6     -56.375610     -16.250019      -7.090219      2.9008
    -7     -62.607044     -21.210064      -4.931630     -2.5923
    -7     -61.849083     -25.877666      -4.270068     -2.2998
    -7     -57.847382     -24.507986      -2.426528     -3.5346
    -7     -59.719139     -24.335190      -4.165062     -3.3463
    -7     -58.241272     -21.359779      -7.309830     -2.5039
    -7     -64.617310     -28.098148       5.833232     -2.1807
    -7     -63.432823     -25.859852       6.311683     -1.8375
    -7     -67.314377     -28.384327       3.425368     -2.1287
    -7     -58.280861     -20.718872       0.127939     -2.5632
    -7     -58.695381     -22.442284       0.632469     -3.1360
    -7     -64.242355     -27.405727      -1.096661     -2.9163
    -7     -62.516022     -28.655464      -0.420631     -3.1945
    -7     -63.719429     -22.372658       1.476846     -3.6823
    -7     -63.292633     -17.855949       0.840880     -1.8384
    -7     -66.683487     -28.286726       0.740891     -2.1007
    -7     -65.973267     -25.092022      -1.824711     -2.0849
    -7     -67.367798     -26.641479      -0.935477     -1.5323
    -7     -64.256027     -22.153423       0.984102     -3.3378
    -7     -61.259312     -29.672729       1.237327     -2.7548
    -7     -60.281090     -24.949162       3.720151     -2.9675
    -7     -60.088203     -22.717573       1.819377     -3.1618
    -7     -64.409988     -15.963291      -4.584460     -0.9700
    -7     -57.487259     -19.524214      -1.457328     -3.2153
    -7     -64.849808     -21.943794       0.042219     -3.2966
    -7     -60.873215     -19.561680      -4.967534     -3.2512
    -7     -53.226807     -19.538139      -3.706950     -1.9928
    -7     -52.511780     -21.561325      -9.098902     -1.0028
    -7     -54.263985     -17.172230      -8.804250     -1.0025
    -8     -61.911156     -23.635098      -1.226168      6.0343
    -8     -61.889606     -18.668324      -1.977214      7.1979
    -8     -63.045227     -27.545189       3.127741      5.8283
    -8     -66.619560     -25.067778       1.411023      4.9569
    -8     -55.440838     -20.389454      -5.902615      7.0738
    -8     -59.057465     -21.405626      -3.967176      2.8403
    -8     -60.326538     -25.488319      -0.363701      5.6726
    -8     -58.793686     -26.974079       0.396735      7.2050
    -8     -56.300488     -19.319792      -5.374118      5.4864

$$$$
Site2_DAR_D
  xed2sdf_05210316543D
 
 82 86  0  0  1  0  0  0  0  0999 V2000
  -53.6809  -24.5811   -9.9799 O   0  0  0  0  0  0  0  0  0  0  0  0
  -54.1859  -23.7951   -9.1969 C   0  0  0  0  0  0  0  0  0  0  0  0
  -55.4529  -24.1271   -8.4429 C   0  0  0  0  0  0  0  0  0  0  0  0
  -56.3259  -22.8851   -8.2499 C   0  0  0  0  0  0  0  0  0  0  0  0
  -55.4659  -21.8921   -7.4629 C   0  0  0  0  0  0  0  0  0  0  0  0
  -56.2779  -20.6891   -7.2249 N   0  0  0  0  0  0  0  0  0  0  0  0
  -56.7259  -20.2451   -5.8929 C   0  0  0  0  0  0  0  0  0  0  0  0
  -56.8959  -18.7681   -6.2889 C   0  0  0  0  0  0  0  0  0  0  0  0
  -57.6759  -17.7901   -5.4409 C   0  0  0  0  0  0  0  0  0  0  0  0
  -57.8159  -18.1871   -4.1469 N   0  0  0  0  0  0  0  0  0  0  0  0
  -59.0959  -18.7371   -3.6919 C   0  0  0  0  0  0  0  0  0  0  0  0
  -58.7749  -19.2981   -2.2979 C   0  0  0  0  0  0  0  0  0  0  0  0
  -57.5859  -20.2701   -2.3679 C   0  0  0  0  0  0  0  0  0  0  0  0
  -58.0089  -21.6931   -1.9579 C   0  0  0  0  0  0  0  0  0  0  0  0
  -59.3039  -21.6931   -1.1209 C   0  0  0  0  0  0  0  0  0  0  0  0
  -59.0489  -22.3191    0.2601 C   0  0  0  0  0  0  0  0  0  0  0  0
  -58.6639  -23.7281    0.0851 N   0  0  0  0  0  0  0  0  0  0  0  0
  -59.4409  -24.7151    0.5751 C   0  0  0  0  0  0  0  0  0  0  0  0
  -60.4569  -24.5301    1.2431 O   0  0  0  0  0  0  0  0  0  0  0  0
  -59.0419  -26.1211    0.3291 C   0  0  0  0  0  0  0  0  0  0  0  0
  -57.9079  -26.6171    0.9361 C   0  0  0  0  0  0  0  0  0  0  0  0
  -57.5119  -27.9071    0.6981 C   0  0  0  0  0  0  0  0  0  0  0  0
  -58.1749  -28.7571   -0.1119 N   0  0  0  0  0  0  0  0  0  0  0  0
  -59.2869  -28.2641   -0.6839 C   0  0  0  0  0  0  0  0  0  0  0  0
  -59.7589  -26.9761   -0.4989 C   0  0  0  0  0  0  0  0  0  0  0  0
  -60.9549  -26.5551   -1.0979 N   0  0  0  0  0  0  0  0  0  0  0  0
  -61.0969  -25.6161   -2.0549 C   0  0  0  0  0  0  0  0  0  0  0  0
  -60.2049  -24.8711   -2.4339 O   0  0  0  0  0  0  0  0  0  0  0  0
  -62.5119  -25.5931   -2.6039 C   0  0  0  0  0  0  0  0  0  0  0  0
  -63.6689  -25.2541   -1.6739 C   0  0  0  0  0  0  0  0  0  0  0  0
  -63.5649  -25.2241   -0.2999 C   0  0  0  0  0  0  0  0  0  0  0  0
  -64.6559  -24.9061    0.4761 C   0  0  0  0  0  0  0  0  0  0  0  0
  -65.8609  -24.6101   -0.1179 C   0  0  0  0  0  0  0  0  0  0  0  0
  -65.9709  -24.6311   -1.4899 C   0  0  0  0  0  0  0  0  0  0  0  0
  -67.4889  -24.2491   -2.2459 Cl  0  0  0  0  0  0  0  0  0  0  0  0
  -64.8769  -24.9511   -2.2629 C   0  0  0  0  0  0  0  0  0  0  0  0
  -58.1509  -16.6661   -5.9989 C   0  0  0  0  0  0  0  0  0  0  0  0
  -57.9289  -16.4171   -7.4229 C   0  0  0  0  0  0  0  0  0  0  0  0
  -57.6379  -17.4381   -8.2279 C   0  0  0  0  0  0  0  0  0  0  0  0
  -57.5349  -18.8371   -7.6789 C   0  0  0  0  0  0  0  0  0  0  0  0
  -56.6469  -19.9051   -8.2479 C   0  0  0  0  0  0  0  0  0  0  0  0
  -56.3349  -20.0371   -9.4239 O   0  0  0  0  0  0  0  0  0  0  0  0
  -54.1509  -21.5881   -8.1539 C   0  0  0  0  0  0  0  0  0  0  0  0
  -53.5819  -20.5201   -8.0089 O   0  0  0  0  0  0  0  0  0  0  0  0
  -53.6629  -22.5751   -8.9389 N   0  0  0  0  0  0  0  0  0  0  0  0
  -55.2129  -24.5011   -7.5469 H   0  0  0  0  0  0  0  0  0  0  0  0
  -55.9719  -24.7951   -8.9749 H   0  0  0  0  0  0  0  0  0  0  0  0
  -57.1539  -23.1151   -7.7379 H   0  0  0  0  0  0  0  0  0  0  0  0
  -56.6209  -22.5031   -9.1249 H   0  0  0  0  0  0  0  0  0  0  0  0
  -55.1989  -22.2921   -6.5869 H   0  0  0  0  0  0  0  0  0  0  0  0
  -56.0359  -20.3831   -5.1819 H   0  0  0  0  0  0  0  0  0  0  0  0
  -57.5139  -20.7101   -5.4899 H   0  0  0  0  0  0  0  0  0  0  0  0
  -55.9839  -18.3701   -6.1909 H   0  0  0  0  0  0  0  0  0  0  0  0
  -57.2589  -17.8651   -3.5449 H   0  0  0  0  0  0  0  0  0  0  0  0
  -59.4139  -19.4601   -4.3059 H   0  0  0  0  0  0  0  0  0  0  0  0
  -59.8279  -18.0561   -3.6759 H   0  0  0  0  0  0  0  0  0  0  0  0
  -59.5759  -19.7801   -1.9429 H   0  0  0  0  0  0  0  0  0  0  0  0
  -58.5339  -18.5391   -1.6919 H   0  0  0  0  0  0  0  0  0  0  0  0
  -56.8639  -19.9511   -1.7539 H   0  0  0  0  0  0  0  0  0  0  0  0
  -57.2539  -20.2991   -3.3109 H   0  0  0  0  0  0  0  0  0  0  0  0
  -57.2749  -22.1071   -1.4199 H   0  0  0  0  0  0  0  0  0  0  0  0
  -58.1819  -22.2171   -2.7919 H   0  0  0  0  0  0  0  0  0  0  0  0
  -60.0079  -22.2181   -1.5999 H   0  0  0  0  0  0  0  0  0  0  0  0
  -59.6099  -20.7491   -0.9969 H   0  0  0  0  0  0  0  0  0  0  0  0
  -59.8799  -22.2631    0.8131 H   0  0  0  0  0  0  0  0  0  0  0  0
  -58.3139  -21.8251    0.7231 H   0  0  0  0  0  0  0  0  0  0  0  0
  -57.9239  -23.9261   -0.3509 H   0  0  0  0  0  0  0  0  0  0  0  0
  -57.3739  -26.0351    1.5501 H   0  0  0  0  0  0  0  0  0  0  0  0
  -56.6829  -28.2371    1.1491 H   0  0  0  0  0  0  0  0  0  0  0  0
  -59.8089  -28.8691   -1.2859 H   0  0  0  0  0  0  0  0  0  0  0  0
  -61.6889  -26.9631   -0.8319 H   0  0  0  0  0  0  0  0  0  0  0  0
  -62.6949  -26.5021   -2.9799 H   0  0  0  0  0  0  0  0  0  0  0  0
  -62.5019  -24.8321   -3.2519 H   0  0  0  0  0  0  0  0  0  0  0  0
  -62.6899  -25.4351    0.1361 H   0  0  0  0  0  0  0  0  0  0  0  0
  -64.5729  -24.8901    1.4731 H   0  0  0  0  0  0  0  0  0  0  0  0
  -66.6539  -24.3811    0.4461 H   0  0  0  0  0  0  0  0  0  0  0  0
  -64.9599  -24.9651   -3.2589 H   0  0  0  0  0  0  0  0  0  0  0  0
  -58.6539  -16.0031   -5.4439 H   0  0  0  0  0  0  0  0  0  0  0  0
  -57.9939  -15.4881   -7.7899 H   0  0  0  0  0  0  0  0  0  0  0  0
  -57.4869  -17.2741   -9.2029 H   0  0  0  0  0  0  0  0  0  0  0  0
  -58.4849  -19.1021   -7.8439 H   0  0  0  0  0  0  0  0  0  0  0  0
  -52.9029  -22.3951   -9.3449 H   0  0  0  0  0  0  0  0  0  0  0  0
  1  2  2  0
  2  3  1  0
  2 45  1  0
  3  4  1  0
  4  5  1  0
  5  6  1  0
  5 43  1  0
  6  7  1  0
  6 41  1  0
  7  8  1  0
  8  9  1  0
  8 40  1  0
  9 10  1  0
  9 37  2  0
 10 11  1  0
 11 12  1  0
 12 13  1  0
 13 14  1  0
 14 15  1  0
 15 16  1  0
 16 17  1  0
 17 18  1  0
 18 19  2  0
 18 20  1  0
 20 21  2  0
 20 25  1  0
 21 22  1  0
 22 23  2  0
 23 24  1  0
 24 25  2  0
 25 26  1  0
 26 27  1  0
 27 28  2  0
 27 29  1  0
 29 30  1  0
 30 31  2  0
 30 36  1  0
 31 32  1  0
 32 33  2  0
 33 34  1  0
 34 35  1  0
 34 36  2  0
 37 38  1  0
 38 39  2  0
 39 40  1  0
 40 41  1  0
 41 42  2  0
 43 44  2  0
 43 45  1  0
  3 46  1  0
  3 47  1  0
  4 48  1  0
  4 49  1  0
  5 50  1  0
  7 51  1  0
  7 52  1  0
  8 53  1  0
 10 54  1  0
 11 55  1  0
 11 56  1  0
 12 57  1  0
 12 58  1  0
 13 59  1  0
 13 60  1  0
 14 61  1  0
 14 62  1  0
 15 63  1  0
 15 64  1  0
 16 65  1  0
 16 66  1  0
 17 67  1  0
 21 68  1  0
 22 69  1  0
 24 70  1  0
 26 71  1  0
 29 72  1  0
 29 73  1  0
 31 74  1  0
 32 75  1  0
 33 76  1  0
 36 77  1  0
 37 78  1  0
 38 79  1  0
 39 80  1  0
 40 81  1  0
 45 82  1  0
M  END
>  <LF dG>
-11.787

>  <LF VSscore>
-13.134

>  <LF Rank Score>
-5.151

>  <LF LE>
-0.262

>  <LF Structure Name>
C:\Users\Odara\AppData\Local\Temp\LeadFinder_8048_1\Ligand_1.sdf

>  <LF SDF id>
0

>  <LF Pose rank>
0

>  <LF version>
2001 1, 19 January 2019

>  <Preferred Pose_cresset>
true

>  <Favorite_cresset>
false

>  <MW_cresset>
633.1

>  <#Atoms_cresset>
45

>  <SlogP_cresset>
2.9

>  <TPSA_cresset>
149.6

>  <Flexibility_cresset>
10.4

>  <#RB_cresset>
13

>  <Rof5_cresset>
2

>  <Filename_cresset>
dar no water site 2.sdf

>  <Confs_cresset>
0

>  <Poses_cresset>
10

>  <_cresset_fieldpoints>
    -5     -56.561775     -19.057743     -10.853673    -17.5877
    -5     -53.900063     -26.218988     -10.745300    -13.6641
    -5     -54.517471     -19.435656      -9.416877    -18.0890
    -5     -60.265617     -17.217621      -7.452115     -4.8511
    -5     -60.090462     -23.624268      -3.708980    -12.6588
    -5     -61.755257     -23.538540       2.240539    -12.6937
    -5     -61.394035     -25.540968       2.570181    -12.9695
    -5     -57.535660     -30.535484      -0.416605    -10.1445
    -5     -58.434174     -24.784346      -2.706155    -11.9803
    -5     -69.357407     -23.503819      -0.554132     -1.4174
    -5     -66.490433     -27.577757      -0.780094     -1.4941
    -5     -67.551674     -24.062271      -4.885695     -1.1159
    -6     -51.057251     -22.230957      -9.826431      4.8618
    -6     -53.767315     -23.722548      -6.037424      7.0499
    -6     -62.670174     -28.472038      -1.482372     10.5327
    -6     -59.638840     -20.830536      -6.187392      4.2222
    -6     -56.102722     -22.748985      -4.652543      7.4772
    -6     -55.947422     -17.594460      -2.176645     10.3844
    -6     -59.427628     -21.594736      -5.215094      4.1297
    -6     -57.864441     -19.457924       0.691731      4.3671
    -6     -56.061630     -24.149450      -0.736496      7.2468
    -6     -61.687508     -20.237087      -2.901818      2.6518
    -6     -55.407539     -26.310375       2.356504      4.0197
    -6     -64.009155     -25.858967      -4.994134      5.1865
    -6     -66.784058     -24.390305       2.700976      2.6750
    -7     -52.768448     -23.666386      -6.495542     -2.0132
    -7     -57.042770     -23.275362      -4.875966     -2.8129
    -7     -53.880741     -26.881962      -9.145876     -1.1356
    -7     -59.259865     -21.600857      -7.284455     -2.5870
    -7     -59.691902     -21.927671      -4.796295     -2.7889
    -7     -54.944557     -18.710892      -3.542907     -2.5571
    -7     -59.868195     -20.858646      -6.430692     -2.4529
    -7     -58.407997     -15.724329      -2.857955     -1.9951
    -7     -55.356873     -16.303024      -4.561573     -1.8710
    -7     -56.537025     -23.663788       1.799295     -2.1590
    -7     -53.603210     -19.478939      -5.903786     -2.3362
    -7     -57.780762     -19.270016       0.806374     -2.1875
    -7     -56.115723     -20.568420       0.632011     -1.8130
    -7     -57.907410     -24.934673      -2.603789     -3.2620
    -7     -61.791573     -26.591221       2.120224     -2.6777
    -7     -62.373623     -28.927135      -2.139093     -2.1830
    -7     -66.631439     -24.206951       3.154296     -0.9782
    -7     -63.508583     -28.571472      -1.300929     -2.2156
    -7     -65.056870     -28.195597      -0.983961     -1.9494
    -7     -62.412842     -22.259674      -0.658765     -2.9217
    -7     -60.533760     -23.024311      -3.927796     -2.7468
    -7     -54.279621     -18.264942      -8.260566     -2.5860
    -7     -60.574066     -18.272635      -6.536909     -2.6086
    -7     -58.312271     -19.474522     -10.741606     -1.6570
    -7     -55.072662     -21.370522     -10.950212     -2.5780
    -8     -55.502090     -23.065357      -8.058519      5.5624
    -8     -58.547920     -20.690573      -1.895949      6.4496
    -8     -57.609009     -17.711895      -6.873564      7.0879
    -8     -58.693787     -27.020599       0.219631      5.3628
    -8     -64.763603     -24.931866      -0.897812      7.1925
    -8     -66.162689     -24.579515      -1.591889      5.6108

$$$$
W_Site2_DAR_D
  xed2sdf_05210316543D
 
 82 86  0  0  1  0  0  0  0  0999 V2000
  -59.5281  -22.5862   -4.2351 O   0  0  0  0  0  0  0  0  0  0  0  0
  -60.5991  -23.0252   -3.8531 C   0  0  0  0  0  0  0  0  0  0  0  0
  -61.8191  -22.1432   -3.7191 C   0  0  0  0  0  0  0  0  0  0  0  0
  -62.6851  -22.5692   -2.5321 C   0  0  0  0  0  0  0  0  0  0  0  0
  -63.0891  -24.0202   -2.8121 C   0  0  0  0  0  0  0  0  0  0  0  0
  -63.9521  -24.4632   -1.7081 N   0  0  0  0  0  0  0  0  0  0  0  0
  -63.4501  -24.9542   -0.4121 C   0  0  0  0  0  0  0  0  0  0  0  0
  -64.7321  -24.6172    0.3709 C   0  0  0  0  0  0  0  0  0  0  0  0
  -65.0141  -25.1882    1.7399 C   0  0  0  0  0  0  0  0  0  0  0  0
  -63.9001  -25.6332    2.3819 N   0  0  0  0  0  0  0  0  0  0  0  0
  -62.9491  -24.6662    2.9379 C   0  0  0  0  0  0  0  0  0  0  0  0
  -61.5821  -25.1992    2.4799 C   0  0  0  0  0  0  0  0  0  0  0  0
  -60.5361  -24.0732    2.4789 C   0  0  0  0  0  0  0  0  0  0  0  0
  -60.7651  -23.1062    1.3009 C   0  0  0  0  0  0  0  0  0  0  0  0
  -59.6121  -22.0932    1.1529 C   0  0  0  0  0  0  0  0  0  0  0  0
  -59.1671  -22.0002   -0.3161 C   0  0  0  0  0  0  0  0  0  0  0  0
  -60.1141  -21.1502   -1.0531 N   0  0  0  0  0  0  0  0  0  0  0  0
  -59.9191  -19.8182   -1.1301 C   0  0  0  0  0  0  0  0  0  0  0  0
  -59.0131  -19.2162   -0.5561 O   0  0  0  0  0  0  0  0  0  0  0  0
  -60.8691  -19.0072   -1.9271 C   0  0  0  0  0  0  0  0  0  0  0  0
  -62.1801  -18.9032   -1.5151 C   0  0  0  0  0  0  0  0  0  0  0  0
  -63.0761  -18.1782   -2.2561 C   0  0  0  0  0  0  0  0  0  0  0  0
  -62.7571  -17.5332   -3.3971 N   0  0  0  0  0  0  0  0  0  0  0  0
  -61.4711  -17.6312   -3.7781 C   0  0  0  0  0  0  0  0  0  0  0  0
  -60.5011  -18.3402   -3.0901 C   0  0  0  0  0  0  0  0  0  0  0  0
  -59.1711  -18.3532   -3.5321 N   0  0  0  0  0  0  0  0  0  0  0  0
  -58.6741  -19.0202   -4.5941 C   0  0  0  0  0  0  0  0  0  0  0  0
  -59.2941  -19.8492   -5.2441 O   0  0  0  0  0  0  0  0  0  0  0  0
  -57.2391  -18.6152   -4.8811 C   0  0  0  0  0  0  0  0  0  0  0  0
  -56.2741  -19.6422   -5.4561 C   0  0  0  0  0  0  0  0  0  0  0  0
  -55.6601  -19.5142   -6.6841 C   0  0  0  0  0  0  0  0  0  0  0  0
  -54.7961  -20.4832   -7.1381 C   0  0  0  0  0  0  0  0  0  0  0  0
  -54.5341  -21.5892   -6.3631 C   0  0  0  0  0  0  0  0  0  0  0  0
  -55.1361  -21.7202   -5.1321 C   0  0  0  0  0  0  0  0  0  0  0  0
  -54.8011  -23.1112   -4.1441 Cl  0  0  0  0  0  0  0  0  0  0  0  0
  -56.0021  -20.7492   -4.6831 C   0  0  0  0  0  0  0  0  0  0  0  0
  -66.2771  -25.2192    2.1939 C   0  0  0  0  0  0  0  0  0  0  0  0
  -67.3611  -24.7202    1.3469 C   0  0  0  0  0  0  0  0  0  0  0  0
  -67.1741  -24.6282    0.0309 C   0  0  0  0  0  0  0  0  0  0  0  0
  -65.8571  -25.0302   -0.5821 C   0  0  0  0  0  0  0  0  0  0  0  0
  -65.2871  -24.4242   -1.8311 C   0  0  0  0  0  0  0  0  0  0  0  0
  -65.9231  -23.9922   -2.7831 O   0  0  0  0  0  0  0  0  0  0  0  0
  -61.8901  -24.9242   -3.0231 C   0  0  0  0  0  0  0  0  0  0  0  0
  -61.9291  -26.1132   -2.7561 O   0  0  0  0  0  0  0  0  0  0  0  0
  -60.7861  -24.3232   -3.5221 N   0  0  0  0  0  0  0  0  0  0  0  0
  -62.3601  -22.2032   -4.5581 H   0  0  0  0  0  0  0  0  0  0  0  0
  -61.5141  -21.2042   -3.5651 H   0  0  0  0  0  0  0  0  0  0  0  0
  -63.4951  -21.9862   -2.4631 H   0  0  0  0  0  0  0  0  0  0  0  0
  -62.1911  -22.4852   -1.6671 H   0  0  0  0  0  0  0  0  0  0  0  0
  -63.5941  -24.0722   -3.6731 H   0  0  0  0  0  0  0  0  0  0  0  0
  -62.6481  -24.4522   -0.0881 H   0  0  0  0  0  0  0  0  0  0  0  0
  -63.1181  -25.8962   -0.3711 H   0  0  0  0  0  0  0  0  0  0  0  0
  -64.6331  -23.6532    0.6189 H   0  0  0  0  0  0  0  0  0  0  0  0
  -63.6211  -26.4542    2.2229 H   0  0  0  0  0  0  0  0  0  0  0  0
  -63.0081  -24.6382    3.9359 H   0  0  0  0  0  0  0  0  0  0  0  0
  -63.1221  -23.7312    2.6309 H   0  0  0  0  0  0  0  0  0  0  0  0
  -61.6661  -25.5752    1.5569 H   0  0  0  0  0  0  0  0  0  0  0  0
  -61.2851  -25.9132    3.1149 H   0  0  0  0  0  0  0  0  0  0  0  0
  -59.6231  -24.4732    2.4029 H   0  0  0  0  0  0  0  0  0  0  0  0
  -60.6221  -23.5582    3.3319 H   0  0  0  0  0  0  0  0  0  0  0  0
  -61.6191  -22.6082    1.4509 H   0  0  0  0  0  0  0  0  0  0  0  0
  -60.8081  -23.6482    0.4609 H   0  0  0  0  0  0  0  0  0  0  0  0
  -58.8401  -22.3852    1.7169 H   0  0  0  0  0  0  0  0  0  0  0  0
  -59.9301  -21.1932    1.4519 H   0  0  0  0  0  0  0  0  0  0  0  0
  -59.1491  -22.9152   -0.7201 H   0  0  0  0  0  0  0  0  0  0  0  0
  -58.2501  -21.6042   -0.3661 H   0  0  0  0  0  0  0  0  0  0  0  0
  -60.8081  -21.5172   -1.4531 H   0  0  0  0  0  0  0  0  0  0  0  0
  -62.4771  -19.3572   -0.6751 H   0  0  0  0  0  0  0  0  0  0  0  0
  -64.0211  -18.1252   -1.9331 H   0  0  0  0  0  0  0  0  0  0  0  0
  -61.1971  -17.1592   -4.6161 H   0  0  0  0  0  0  0  0  0  0  0  0
  -58.6041  -17.8572   -3.0761 H   0  0  0  0  0  0  0  0  0  0  0  0
  -56.8481  -18.2952   -4.0181 H   0  0  0  0  0  0  0  0  0  0  0  0
  -57.3271  -17.9402   -5.6131 H   0  0  0  0  0  0  0  0  0  0  0  0
  -55.8451  -18.7102   -7.2501 H   0  0  0  0  0  0  0  0  0  0  0  0
  -54.3581  -20.3852   -8.0311 H   0  0  0  0  0  0  0  0  0  0  0  0
  -53.9071  -22.2952   -6.6921 H   0  0  0  0  0  0  0  0  0  0  0  0
  -56.4371  -20.8472   -3.7881 H   0  0  0  0  0  0  0  0  0  0  0  0
  -66.4751  -25.5802    3.1049 H   0  0  0  0  0  0  0  0  0  0  0  0
  -68.2351  -24.4512    1.7519 H   0  0  0  0  0  0  0  0  0  0  0  0
  -67.9111  -24.2902   -0.5541 H   0  0  0  0  0  0  0  0  0  0  0  0
  -66.1001  -25.9792   -0.7801 H   0  0  0  0  0  0  0  0  0  0  0  0
  -60.0891  -24.8482   -3.6381 H   0  0  0  0  0  0  0  0  0  0  0  0
  1  2  2  0
  2  3  1  0
  2 45  1  0
  3  4  1  0
  4  5  1  0
  5  6  1  0
  5 43  1  0
  6  7  1  0
  6 41  1  0
  7  8  1  0
  8  9  1  0
  8 40  1  0
  9 10  1  0
  9 37  2  0
 10 11  1  0
 11 12  1  0
 12 13  1  0
 13 14  1  0
 14 15  1  0
 15 16  1  0
 16 17  1  0
 17 18  1  0
 18 19  2  0
 18 20  1  0
 20 21  2  0
 20 25  1  0
 21 22  1  0
 22 23  2  0
 23 24  1  0
 24 25  2  0
 25 26  1  0
 26 27  1  0
 27 28  2  0
 27 29  1  0
 29 30  1  0
 30 31  2  0
 30 36  1  0
 31 32  1  0
 32 33  2  0
 33 34  1  0
 34 35  1  0
 34 36  2  0
 37 38  1  0
 38 39  2  0
 39 40  1  0
 40 41  1  0
 41 42  2  0
 43 44  2  0
 43 45  1  0
  3 46  1  0
  3 47  1  0
  4 48  1  0
  4 49  1  0
  5 50  1  0
  7 51  1  0
  7 52  1  0
  8 53  1  0
 10 54  1  0
 11 55  1  0
 11 56  1  0
 12 57  1  0
 12 58  1  0
 13 59  1  0
 13 60  1  0
 14 61  1  0
 14 62  1  0
 15 63  1  0
 15 64  1  0
 16 65  1  0
 16 66  1  0
 17 67  1  0
 21 68  1  0
 22 69  1  0
 24 70  1  0
 26 71  1  0
 29 72  1  0
 29 73  1  0
 31 74  1  0
 32 75  1  0
 33 76  1  0
 36 77  1  0
 37 78  1  0
 38 79  1  0
 39 80  1  0
 40 81  1  0
 45 82  1  0
M  END
>  <LF dG>
-11.815

>  <LF VSscore>
-13.717

>  <LF Rank Score>
-6.162

>  <LF LE>
-0.263

>  <LF Structure Name>
C:\Users\Odara\AppData\Local\Temp\LeadFinder_2448_1\Ligand_1.sdf

>  <LF SDF id>
0

>  <LF Pose rank>
0

>  <LF version>
2001 1, 19 January 2019

>  <Preferred Pose_cresset>
true

>  <Favorite_cresset>
false

>  <MW_cresset>
633.1

>  <#Atoms_cresset>
45

>  <SlogP_cresset>
2.9

>  <TPSA_cresset>
149.6

>  <Flexibility_cresset>
10.4

>  <#RB_cresset>
13

>  <Rof5_cresset>
2

>  <Filename_cresset>
dar with water site 2.sdf

>  <Confs_cresset>
0

>  <Poses_cresset>
10

>  <_cresset_fieldpoints>
    -5     -64.067459     -16.594616      -4.428939    -10.4527
    -5     -67.639969     -23.898243      -3.127637    -16.7302
    -5     -58.557442     -17.570936       0.310280    -12.2893
    -5     -57.715317     -18.817249       0.793406    -12.2025
    -5     -52.993027     -19.458912      -4.649340     -2.5139
    -5     -58.845192     -21.591688      -5.721571    -26.7398
    -5     -66.359787     -22.673195       2.441549     -3.7253
    -5     -67.792007     -27.105026       0.904265     -4.4878
    -5     -63.571159     -26.995060      -2.581004    -13.4360
    -6     -60.058342     -24.843662      -1.171951      7.1246
    -6     -62.593788     -24.205542      -5.620158      5.0914
    -6     -62.965500     -21.316919       0.025554      9.0949
    -6     -62.707634     -27.856789       1.294874     10.5442
    -6     -61.198303     -25.144398       5.553707      2.7878
    -6     -56.366173     -16.525187      -6.988474      4.4009
    -6     -57.467239     -16.322309      -3.209191      9.9136
    -6     -52.806908     -21.862015      -8.909622      2.6190
    -6     -68.777618     -25.047894       4.024710      1.0955
    -7     -58.687263     -21.856428      -6.299294     -3.0113
    -7     -57.664433     -23.029907      -2.943762     -3.2456
    -7     -63.836517     -19.984234      -4.845360     -2.1849
    -7     -61.445320     -20.025194      -6.073538     -2.4254
    -7     -65.439514     -22.130049      -4.212322     -2.1233
    -7     -60.155640     -25.563282      -0.852174     -3.6745
    -7     -64.733185     -26.842930       4.571670     -1.8392
    -7     -62.258968     -27.980947       0.755933     -1.8961
    -7     -64.180786     -27.121895      -2.679809     -2.5907
    -7     -60.961906     -24.792049       5.723152     -1.4806
    -7     -62.227470     -21.412964       3.683193     -2.0799
    -7     -57.013008     -19.674150      -1.775117     -3.4618
    -7     -57.618172     -19.565666       1.449276     -1.7093
    -7     -60.905815     -18.903385       1.555192     -2.2381
    -7     -56.111336     -22.090515      -1.634545     -2.1381
    -7     -63.457146     -21.439194       0.312328     -4.0790
    -7     -58.713741     -16.701756      -0.753140     -1.8707
    -7     -64.225754     -15.732952      -4.296478     -1.0278
    -7     -63.770847     -15.179630      -3.613139     -1.0291
    -7     -58.808243     -15.799429      -4.751285     -2.0693
    -7     -59.933594     -17.890774      -6.888968     -1.9556
    -7     -54.891487     -18.253708      -9.715559     -0.9946
    -7     -52.672241     -22.259846      -9.111399     -0.9769
    -7     -53.086838     -18.953451      -4.371919     -1.8706
    -7     -67.959892     -25.352831      -3.030777     -1.5648
    -7     -65.460457     -22.344412       2.681538     -2.4023
    -7     -64.848450     -27.946522       0.569793     -2.4157
    -7     -62.097008     -24.574085      -5.997954     -2.0177
    -8     -66.042648     -24.883074       0.780775      7.0882
    -8     -60.208969     -23.121723       1.710546      5.7472
    -8     -61.436069     -24.099350       2.110404      6.0226
    -8     -62.349773     -22.982731      -3.191890      5.6187
    -8     -61.571457     -18.539469      -2.393198      5.4044
    -8     -59.886765     -22.657860       0.800943      5.4675
    -8     -55.401684     -20.613934      -5.905172      7.1852
    -8     -55.094872     -21.899212      -5.001419      5.6071

$$$$
Site2_Disulfiram_D
  xed2sdf_05210316543D
 
 36 35  0  0  0  0  0  0  0  0999 V2000
  -61.8487  -24.5079    3.0003 S   0  0  0  0  0  0  0  0  0  0  0  0
  -60.6927  -25.9859    2.2283 S   0  0  0  0  0  0  0  0  0  0  0  0
  -64.1897  -24.4139    1.1153 S   0  0  0  0  0  0  0  0  0  0  0  0
  -58.9367  -23.5439    2.2573 S   0  0  0  0  0  0  0  0  0  0  0  0
  -64.1317  -25.8259    3.4353 N   0  0  0  0  0  0  0  0  0  0  0  0
  -58.4507  -25.7779    0.7893 N   0  0  0  0  0  0  0  0  0  0  0  0
  -63.7977  -27.2589    3.5073 C   0  0  0  0  0  0  0  0  0  0  0  0
  -65.4527  -25.4409    3.9573 C   0  0  0  0  0  0  0  0  0  0  0  0
  -58.1757  -27.2179    0.9283 C   0  0  0  0  0  0  0  0  0  0  0  0
  -57.4927  -25.0059   -0.0177 C   0  0  0  0  0  0  0  0  0  0  0  0
  -63.0647  -27.6099    4.8133 C   0  0  0  0  0  0  0  0  0  0  0  0
  -66.5617  -26.0669    3.0973 C   0  0  0  0  0  0  0  0  0  0  0  0
  -58.5367  -27.9869   -0.3537 C   0  0  0  0  0  0  0  0  0  0  0  0
  -58.2357  -24.2929   -1.1587 C   0  0  0  0  0  0  0  0  0  0  0  0
  -63.4757  -24.9989    2.5673 C   0  0  0  0  0  0  0  0  0  0  0  0
  -59.2577  -25.1339    1.6843 C   0  0  0  0  0  0  0  0  0  0  0  0
  -63.2127  -27.4959    2.7313 H   0  0  0  0  0  0  0  0  0  0  0  0
  -64.6517  -27.7789    3.4823 H   0  0  0  0  0  0  0  0  0  0  0  0
  -65.5397  -24.4449    3.9393 H   0  0  0  0  0  0  0  0  0  0  0  0
  -65.5427  -25.7699    4.8973 H   0  0  0  0  0  0  0  0  0  0  0  0
  -58.7127  -27.5809    1.6903 H   0  0  0  0  0  0  0  0  0  0  0  0
  -57.1977  -27.3359    1.0993 H   0  0  0  0  0  0  0  0  0  0  0  0
  -56.8047  -25.6219   -0.3997 H   0  0  0  0  0  0  0  0  0  0  0  0
  -57.0447  -24.3249    0.5613 H   0  0  0  0  0  0  0  0  0  0  0  0
  -62.9607  -26.7799    5.3613 H   0  0  0  0  0  0  0  0  0  0  0  0
  -63.5927  -28.2879    5.3263 H   0  0  0  0  0  0  0  0  0  0  0  0
  -62.1647  -27.9909    4.6033 H   0  0  0  0  0  0  0  0  0  0  0  0
  -66.1427  -26.6039    2.3663 H   0  0  0  0  0  0  0  0  0  0  0  0
  -67.1347  -26.6599    3.6643 H   0  0  0  0  0  0  0  0  0  0  0  0
  -67.1307  -25.3449    2.7033 H   0  0  0  0  0  0  0  0  0  0  0  0
  -58.8897  -27.3419   -1.0317 H   0  0  0  0  0  0  0  0  0  0  0  0
  -57.7227  -28.4429   -0.7147 H   0  0  0  0  0  0  0  0  0  0  0  0
  -59.2317  -28.6759   -0.1487 H   0  0  0  0  0  0  0  0  0  0  0  0
  -59.2097  -24.5129   -1.0997 H   0  0  0  0  0  0  0  0  0  0  0  0
  -58.1077  -23.3039   -1.0797 H   0  0  0  0  0  0  0  0  0  0  0  0
  -57.8737  -24.5989   -2.0397 H   0  0  0  0  0  0  0  0  0  0  0  0
  1  2  1  0
  1 15  1  0
  2 16  1  0
  3 15  2  0
  4 16  2  0
  5  7  1  0
  5  8  1  0
  5 15  1  0
  6  9  1  0
  6 10  1  0
  6 16  1  0
  7 11  1  0
  8 12  1  0
  9 13  1  0
 10 14  1  0
  7 17  1  0
  7 18  1  0
  8 19  1  0
  8 20  1  0
  9 21  1  0
  9 22  1  0
 10 23  1  0
 10 24  1  0
 11 25  1  0
 11 26  1  0
 11 27  1  0
 12 28  1  0
 12 29  1  0
 12 30  1  0
 13 31  1  0
 13 32  1  0
 13 33  1  0
 14 34  1  0
 14 35  1  0
 14 36  1  0
M  END
>  <LF dG>
-8.333

>  <LF VSscore>
-7.5

>  <LF Rank Score>
-3.375

>  <LF LE>
-0.521

>  <LF Structure Name>
C:\Users\Odara\AppData\Local\Temp\LeadFinder_9356_1\Ligand_1.sdf

>  <LF SDF id>
0

>  <LF Pose rank>
0

>  <LF version>
2001 1, 19 January 2019

>  <PUBCHEM_COMPOUND_CID>
3117

>  <PUBCHEM_COMPOUND_CANONICALIZED>
1

>  <PUBCHEM_CACTVS_COMPLEXITY>
201

>  <PUBCHEM_CACTVS_HBOND_ACCEPTOR>
4

>  <PUBCHEM_CACTVS_HBOND_DONOR>
0

>  <PUBCHEM_CACTVS_ROTATABLE_BOND>
7

>  <PUBCHEM_CACTVS_SUBSKEYS>
AAADceBzAABwAAAAAAAAAAAAAAAAAAAAAAAAAAAAAAAAAAAAAAAAHAQAAAAAAADBAAQCAAMAAAAEAAAAAAAAAAAAAAgAAAAIAAAAAAAAAAAAAAAAAACAAAAAAAAAAAAAAAAAAAAAAAAAAAAAAAAAAAAAAA==

>  <PUBCHEM_IUPAC_OPENEYE_NAME>
diethylcarbamothioylsulfanyl N,N-diethylcarbamodithioate

>  <PUBCHEM_IUPAC_CAS_NAME>
N,N-diethylcarbamodithioic acid [[diethylamino(sulfanylidene)methyl]thio] ester

>  <PUBCHEM_IUPAC_NAME_MARKUP>
diethylcarbamothioylsulfanyl <I>N</I>,<I>N</I>-diethylcarbamodithioate

>  <PUBCHEM_IUPAC_NAME>
diethylcarbamothioylsulfanyl N,N-diethylcarbamodithioate

>  <PUBCHEM_IUPAC_SYSTEMATIC_NAME>
diethylcarbamothioylsulfanyl N,N-diethylcarbamodithioate

>  <PUBCHEM_IUPAC_TRADITIONAL_NAME>
N,N-diethylcarbamodithioic acid (diethylthiocarbamoylthio) ester

>  <PUBCHEM_IUPAC_INCHI>
InChI=1S/C10H20N2S4/c1-5-11(6-2)9(13)15-16-10(14)12(7-3)8-4/h5-8H2,1-4H3

>  <PUBCHEM_IUPAC_INCHIKEY>
AUZONCFQVSMFAP-UHFFFAOYSA-N

>  <PUBCHEM_XLOGP3>
3.9

>  <PUBCHEM_EXACT_MASS>
296.050933

>  <PUBCHEM_MOLECULAR_FORMULA>
C10H20N2S4

>  <PUBCHEM_MOLECULAR_WEIGHT>
296.5

>  <PUBCHEM_OPENEYE_CAN_SMILES>
CCN(CC)C(=S)SSC(=S)N(CC)CC

>  <PUBCHEM_OPENEYE_ISO_SMILES>
CCN(CC)C(=S)SSC(=S)N(CC)CC

>  <PUBCHEM_CACTVS_TPSA>
121

>  <PUBCHEM_MONOISOTOPIC_WEIGHT>
296.050933

>  <PUBCHEM_TOTAL_CHARGE>
0

>  <PUBCHEM_HEAVY_ATOM_COUNT>
16

>  <PUBCHEM_ATOM_DEF_STEREO_COUNT>
0

>  <PUBCHEM_ATOM_UDEF_STEREO_COUNT>
0

>  <PUBCHEM_BOND_DEF_STEREO_COUNT>
0

>  <PUBCHEM_BOND_UDEF_STEREO_COUNT>
0

>  <PUBCHEM_ISOTOPIC_ATOM_COUNT>
0

>  <PUBCHEM_COMPONENT_COUNT>
1

>  <PUBCHEM_CACTVS_TAUTO_COUNT>
-1

>  <PUBCHEM_COORDINATE_TYPE>
1
5
255

>  <Preferred Pose_cresset>
true

>  <Favorite_cresset>
false

>  <MW_cresset>
296.5

>  <#Atoms_cresset>
16

>  <SlogP_cresset>
3.6

>  <TPSA_cresset>
6.5

>  <Flexibility_cresset>
7.5

>  <#RB_cresset>
9

>  <Rof5_cresset>
0

>  <Filename_cresset>
Disulfiram no water site 2.sdf

>  <Tags_cresset>
Docking...

>  <Confs_cresset>
0

>  <Poses_cresset>
10

>  <_cresset_fieldpoints>
    -5     -60.429474     -21.715508       3.464255     -5.0475
    -5     -62.013466     -22.913324       0.331662     -5.2053
    -6     -66.151810     -28.176086       5.470368      3.2759
    -6     -60.751457     -29.000353       2.384589      3.2662
    -6     -55.360413     -27.441967      -0.502031      3.1577
    -7     -63.230240     -24.268784       5.859477     -2.2151
    -7     -64.154861     -22.255329       3.669879     -1.9063
    -7     -61.296471     -23.562967      -0.034809     -3.0725
    -7     -57.903885     -26.228931       4.040565     -2.1404
    -7     -60.203690     -25.992043       5.371462     -2.0871
    -7     -62.750351     -27.180710       0.191733     -2.4255
    -7     -64.585480     -27.511900       0.442428     -2.0893
    -7     -55.181252     -27.570667      -0.716563     -1.5174
    -7     -59.399582     -25.448307       5.042803     -1.9834
    -7     -66.664673     -22.696762       2.340777     -1.5690
    -7     -55.480873     -27.399044      -1.579828     -1.4769
    -7     -56.567917     -25.572598       3.144286     -2.1556
    -7     -56.615028     -26.876194      -2.724813     -1.7354
    -7     -66.267654     -28.287357       5.634110     -1.9268
    -7     -68.092430     -25.295212       5.940126     -1.0550
    -7     -61.034401     -29.088024       2.132746     -2.3187
    -7     -59.531071     -28.187984       4.191238     -1.8443
    -7     -56.809769     -21.680489       0.583533     -1.4826
    -7     -61.293571     -25.901346      -0.776845     -2.9157
    -8     -60.581413     -24.855007       2.410506      5.6848
    -8     -61.679123     -25.324841       2.452090      5.4763
    -8     -62.901398     -24.513462       2.032238      4.8793
    -8     -66.293488     -25.738029       3.586704      4.4432
    -8     -57.694645     -24.450930      -0.779066      4.4224
    -8     -63.335011     -27.736719       4.205692      4.4380
    -8     -58.295162     -27.911741       0.267245      4.4243

$$$$
W_Site2_Disulfiram_D
  xed2sdf_05210316543D
 
 36 35  0  0  0  0  0  0  0  0999 V2000
  -58.5763  -18.0279   -4.0810 S   0  0  0  0  0  0  0  0  0  0  0  0
  -58.2063  -19.7529   -5.0840 S   0  0  0  0  0  0  0  0  0  0  0  0
  -58.3843  -18.9779   -1.2340 S   0  0  0  0  0  0  0  0  0  0  0  0
  -56.8363  -18.2419   -7.2940 S   0  0  0  0  0  0  0  0  0  0  0  0
  -60.7083  -18.6879   -2.6120 N   0  0  0  0  0  0  0  0  0  0  0  0
  -55.6173  -20.0469   -5.6710 N   0  0  0  0  0  0  0  0  0  0  0  0
  -61.5323  -17.9109   -1.6690 C   0  0  0  0  0  0  0  0  0  0  0  0
  -61.3413  -19.8799   -3.1980 C   0  0  0  0  0  0  0  0  0  0  0  0
  -55.4873  -20.6989   -4.3570 C   0  0  0  0  0  0  0  0  0  0  0  0
  -54.3613  -19.7439   -6.3770 C   0  0  0  0  0  0  0  0  0  0  0  0
  -61.9243  -16.5409   -2.2490 C   0  0  0  0  0  0  0  0  0  0  0  0
  -62.4993  -19.4629   -4.1190 C   0  0  0  0  0  0  0  0  0  0  0  0
  -55.1753  -22.1979   -4.5000 C   0  0  0  0  0  0  0  0  0  0  0  0
  -54.1163  -20.7969   -7.4690 C   0  0  0  0  0  0  0  0  0  0  0  0
  -59.3453  -18.5769   -2.6030 C   0  0  0  0  0  0  0  0  0  0  0  0
  -56.7623  -19.3809   -6.0080 C   0  0  0  0  0  0  0  0  0  0  0  0
  -61.0173  -17.7729   -0.8240 H   0  0  0  0  0  0  0  0  0  0  0  0
  -62.3723  -18.4259   -1.4950 H   0  0  0  0  0  0  0  0  0  0  0  0
  -61.6913  -20.4649   -2.4660 H   0  0  0  0  0  0  0  0  0  0  0  0
  -60.6633  -20.3819   -3.7340 H   0  0  0  0  0  0  0  0  0  0  0  0
  -56.3433  -20.5889   -3.8520 H   0  0  0  0  0  0  0  0  0  0  0  0
  -54.7303  -20.2679   -3.8660 H   0  0  0  0  0  0  0  0  0  0  0  0
  -53.6023  -19.7529   -5.7270 H   0  0  0  0  0  0  0  0  0  0  0  0
  -54.4273  -18.8399   -6.7980 H   0  0  0  0  0  0  0  0  0  0  0  0
  -61.5343  -16.4509   -3.1650 H   0  0  0  0  0  0  0  0  0  0  0  0
  -62.9213  -16.4679   -2.2980 H   0  0  0  0  0  0  0  0  0  0  0  0
  -61.5743  -15.8139   -1.6590 H   0  0  0  0  0  0  0  0  0  0  0  0
  -62.5713  -18.4649   -4.1190 H   0  0  0  0  0  0  0  0  0  0  0  0
  -62.3263  -19.7889   -5.0480 H   0  0  0  0  0  0  0  0  0  0  0  0
  -63.3543  -19.8629   -3.7880 H   0  0  0  0  0  0  0  0  0  0  0  0
  -55.1233  -22.4289   -5.4710 H   0  0  0  0  0  0  0  0  0  0  0  0
  -54.3023  -22.4049   -4.0570 H   0  0  0  0  0  0  0  0  0  0  0  0
  -55.8973  -22.7349   -4.0630 H   0  0  0  0  0  0  0  0  0  0  0  0
  -54.8673  -21.4569   -7.4600 H   0  0  0  0  0  0  0  0  0  0  0  0
  -54.0713  -20.3509   -8.3640 H   0  0  0  0  0  0  0  0  0  0  0  0
  -53.2513  -21.2669   -7.2960 H   0  0  0  0  0  0  0  0  0  0  0  0
  1  2  1  0
  1 15  1  0
  2 16  1  0
  3 15  2  0
  4 16  2  0
  5  7  1  0
  5  8  1  0
  5 15  1  0
  6  9  1  0
  6 10  1  0
  6 16  1  0
  7 11  1  0
  8 12  1  0
  9 13  1  0
 10 14  1  0
  7 17  1  0
  7 18  1  0
  8 19  1  0
  8 20  1  0
  9 21  1  0
  9 22  1  0
 10 23  1  0
 10 24  1  0
 11 25  1  0
 11 26  1  0
 11 27  1  0
 12 28  1  0
 12 29  1  0
 12 30  1  0
 13 31  1  0
 13 32  1  0
 13 33  1  0
 14 34  1  0
 14 35  1  0
 14 36  1  0
M  END
>  <LF dG>
-8.52

>  <LF VSscore>
-7.687

>  <LF Rank Score>
-3.304

>  <LF LE>
-0.533

>  <LF Structure Name>
C:\Users\Odara\AppData\Local\Temp\LeadFinder_8656_1\Ligand_1.sdf

>  <LF SDF id>
0

>  <LF Pose rank>
0

>  <LF version>
2001 1, 19 January 2019

>  <PUBCHEM_COMPOUND_CID>
3117

>  <PUBCHEM_COMPOUND_CANONICALIZED>
1

>  <PUBCHEM_CACTVS_COMPLEXITY>
201

>  <PUBCHEM_CACTVS_HBOND_ACCEPTOR>
4

>  <PUBCHEM_CACTVS_HBOND_DONOR>
0

>  <PUBCHEM_CACTVS_ROTATABLE_BOND>
7

>  <PUBCHEM_CACTVS_SUBSKEYS>
AAADceBzAABwAAAAAAAAAAAAAAAAAAAAAAAAAAAAAAAAAAAAAAAAHAQAAAAAAADBAAQCAAMAAAAEAAAAAAAAAAAAAAgAAAAIAAAAAAAAAAAAAAAAAACAAAAAAAAAAAAAAAAAAAAAAAAAAAAAAAAAAAAAAA==

>  <PUBCHEM_IUPAC_OPENEYE_NAME>
diethylcarbamothioylsulfanyl N,N-diethylcarbamodithioate

>  <PUBCHEM_IUPAC_CAS_NAME>
N,N-diethylcarbamodithioic acid [[diethylamino(sulfanylidene)methyl]thio] ester

>  <PUBCHEM_IUPAC_NAME_MARKUP>
diethylcarbamothioylsulfanyl <I>N</I>,<I>N</I>-diethylcarbamodithioate

>  <PUBCHEM_IUPAC_NAME>
diethylcarbamothioylsulfanyl N,N-diethylcarbamodithioate

>  <PUBCHEM_IUPAC_SYSTEMATIC_NAME>
diethylcarbamothioylsulfanyl N,N-diethylcarbamodithioate

>  <PUBCHEM_IUPAC_TRADITIONAL_NAME>
N,N-diethylcarbamodithioic acid (diethylthiocarbamoylthio) ester

>  <PUBCHEM_IUPAC_INCHI>
InChI=1S/C10H20N2S4/c1-5-11(6-2)9(13)15-16-10(14)12(7-3)8-4/h5-8H2,1-4H3

>  <PUBCHEM_IUPAC_INCHIKEY>
AUZONCFQVSMFAP-UHFFFAOYSA-N

>  <PUBCHEM_XLOGP3>
3.9

>  <PUBCHEM_EXACT_MASS>
296.050933

>  <PUBCHEM_MOLECULAR_FORMULA>
C10H20N2S4

>  <PUBCHEM_MOLECULAR_WEIGHT>
296.5

>  <PUBCHEM_OPENEYE_CAN_SMILES>
CCN(CC)C(=S)SSC(=S)N(CC)CC

>  <PUBCHEM_OPENEYE_ISO_SMILES>
CCN(CC)C(=S)SSC(=S)N(CC)CC

>  <PUBCHEM_CACTVS_TPSA>
121

>  <PUBCHEM_MONOISOTOPIC_WEIGHT>
296.050933

>  <PUBCHEM_TOTAL_CHARGE>
0

>  <PUBCHEM_HEAVY_ATOM_COUNT>
16

>  <PUBCHEM_ATOM_DEF_STEREO_COUNT>
0

>  <PUBCHEM_ATOM_UDEF_STEREO_COUNT>
0

>  <PUBCHEM_BOND_DEF_STEREO_COUNT>
0

>  <PUBCHEM_BOND_UDEF_STEREO_COUNT>
0

>  <PUBCHEM_ISOTOPIC_ATOM_COUNT>
0

>  <PUBCHEM_COMPONENT_COUNT>
1

>  <PUBCHEM_CACTVS_TAUTO_COUNT>
-1

>  <PUBCHEM_COORDINATE_TYPE>
1
5
255

>  <Preferred Pose_cresset>
true

>  <Favorite_cresset>
false

>  <MW_cresset>
296.5

>  <#Atoms_cresset>
16

>  <SlogP_cresset>
3.6

>  <TPSA_cresset>
6.5

>  <Flexibility_cresset>
7.5

>  <#RB_cresset>
9

>  <Rof5_cresset>
0

>  <Filename_cresset>
Disulfiram with water site 2.sdf

>  <Confs_cresset>
0

>  <Poses_cresset>
10

>  <_cresset_fieldpoints>
    -5     -56.809578     -19.259953       0.904655     -4.0601
    -5     -59.040024     -16.791885      -7.442427     -4.4316
    -6     -64.636810     -18.483763      -2.058912      2.9899
    -6     -60.743736     -22.063885      -5.320666      2.1854
    -6     -57.397934     -22.514299      -6.673565      1.6153
    -6     -59.044540     -22.135761      -3.403648      2.3424
    -6     -63.950287     -20.108372      -1.355470      3.0269
    -6     -59.099663     -15.515302      -2.041271      1.1841
    -6     -52.239983     -20.978153      -4.324099      3.0011
    -7     -55.399467     -17.490025      -4.194213     -2.8802
    -7     -58.823112     -15.736025      -1.683377     -2.2420
    -7     -58.467430     -21.824816      -2.756932     -2.8551
    -7     -57.287132     -22.093231      -7.090182     -2.7042
    -7     -61.039810     -17.105042      -5.736468     -2.3600
    -7     -60.656036     -21.526951      -6.152046     -1.6674
    -7     -60.919655     -20.552078       0.048013     -1.8953
    -7     -60.670547     -18.098419      -6.446154     -2.3735
    -7     -64.126053     -20.262674      -1.246054     -1.5336
    -7     -64.895798     -18.273037      -2.233621     -1.7098
    -7     -51.945599     -21.592903      -4.916460     -1.8007
    -7     -54.219795     -17.843693      -9.249857     -1.4749
    -8     -58.540169     -19.041477      -4.136468      5.4830
    -8     -57.956673     -18.810078      -4.867946      5.4936
    -8     -62.103378     -19.882446      -3.794128      4.4299
    -8     -61.930851     -17.041054      -1.805111      4.4313
    -8     -55.284279     -21.623226      -4.168673      4.4393
    -8     -53.972450     -20.246006      -7.103831      4.4248
    -8     -58.431435     -18.582418      -2.778474      4.9055

$$$$
W_Site2_Diammonium_D
  xed2sdf_05210316543D
 
117123  0  0  1  0  0  0  0  0999 V2000
  -57.3841  -20.6305   -8.9217 O   0  0  0  0  0  0  0  0  0  0  0  0
  -55.7483  -23.0081   -3.7050 O   0  0  0  0  0  0  0  0  0  0  0  0
  -55.5604  -21.1954  -10.3609 O   0  0  0  0  0  0  0  0  0  0  0  0
  -57.8760  -27.3864    0.7225 O   0  5  0  0  0  0  0  0  0  0  0  0
  -57.4532  -25.2844    1.5002 O   0  0  0  0  0  0  0  0  0  0  0  0
  -57.0725  -18.8618  -11.2676 O   0  0  0  0  0  0  0  0  0  0  0  0
  -57.6709  -19.9920  -13.8101 O   0  0  0  0  0  0  0  0  0  0  0  0
  -55.3818  -21.8064  -14.0208 O   0  0  0  0  0  0  0  0  0  0  0  0
  -59.1939  -17.8435  -10.8097 O   0  0  0  0  0  0  0  0  0  0  0  0
  -53.2178  -22.9550  -12.4334 O   0  5  0  0  0  0  0  0  0  0  0  0
  -52.8695  -21.2349  -10.9783 O   0  0  0  0  0  0  0  0  0  0  0  0
  -56.3422  -16.3947  -10.7757 O   0  0  0  0  0  0  0  0  0  0  0  0
  -57.9451  -14.1809  -12.2749 O   0  0  0  0  0  0  0  0  0  0  0  0
  -60.7177  -14.7043  -11.9745 O   0  0  0  0  0  0  0  0  0  0  0  0
  -62.2822  -18.2381  -11.6258 O   0  5  0  0  0  0  0  0  0  0  0  0
  -60.8389  -18.0349  -13.3828 O   0  0  0  0  0  0  0  0  0  0  0  0
  -58.6779  -20.9126   -3.4527 C   0  0  0  0  0  0  0  0  0  0  0  0
  -56.7273  -20.7379   -5.3036 C   0  0  0  0  0  0  0  0  0  0  0  0
  -57.6203  -21.6183   -4.3614 C   0  0  0  0  0  0  0  0  0  0  0  0
  -59.5997  -22.0161   -2.7967 C   0  0  0  0  0  0  0  0  0  0  0  0
  -57.6466  -19.7184   -6.0574 C   0  0  0  0  0  0  0  0  0  0  0  0
  -59.4761  -19.8821   -4.2953 C   0  0  0  0  0  0  0  0  0  0  0  0
  -56.9761  -18.8985   -7.2114 C   0  0  0  0  0  0  0  0  0  0  0  0
  -58.5822  -18.9208   -5.1115 C   0  0  0  0  0  0  0  0  0  0  0  0
  -58.7145  -22.9016   -1.9281 C   0  0  0  0  0  0  0  0  0  0  0  0
  -59.1888  -23.5195   -0.6237 C   0  0  0  0  0  0  0  0  0  0  0  0
  -60.3332  -22.7696    0.1098 C   0  0  0  0  0  0  0  0  0  0  0  0
  -60.7950  -21.3762   -2.0264 C   0  0  0  0  0  0  0  0  0  0  0  0
  -56.1029  -21.6665   -6.3854 C   0  0  0  0  0  0  0  0  0  0  0  0
  -61.3872  -22.2460   -0.8964 C   0  0  0  0  0  0  0  0  0  0  0  0
  -56.3512  -19.8949   -8.2264 C   0  0  0  0  0  0  0  0  0  0  0  0
  -56.8843  -22.6267   -3.5003 C   0  0  0  0  0  0  0  0  0  0  0  0
  -57.9646  -20.1303   -2.3121 C   0  0  0  0  0  0  0  0  0  0  0  0
  -55.4115  -20.9189   -7.5514 C   0  0  0  0  0  0  0  0  0  0  0  0
  -55.5655  -20.1051   -4.4888 C   0  0  0  0  0  0  0  0  0  0  0  0
  -60.1967  -23.0373   -3.8030 C   0  0  0  0  0  0  0  0  0  0  0  0
  -57.4429  -23.1478   -2.2696 C   0  0  0  0  0  0  0  0  0  0  0  0
  -59.5620  -25.0020   -0.8351 C   0  0  0  0  0  0  0  0  0  0  0  0
  -61.0627  -23.7088    1.1119 C   0  0  0  0  0  0  0  0  0  0  0  0
  -59.5934  -25.7371    0.5298 C   0  0  0  0  0  0  0  0  0  0  0  0
  -58.0303  -18.0637   -7.9741 C   0  0  0  0  0  0  0  0  0  0  0  0
  -55.9191  -17.8666   -6.7505 C   0  0  0  0  0  0  0  0  0  0  0  0
  -60.1472  -24.8275    1.6565 C   0  0  0  0  0  0  0  0  0  0  0  0
  -59.7263  -21.5914    0.9012 C   0  0  0  0  0  0  0  0  0  0  0  0
  -60.4764  -26.9902    0.3826 C   0  0  0  0  0  0  0  0  0  0  0  0
  -58.2010  -26.1670    0.9483 C   0  0  0  0  0  0  0  0  0  0  0  0
  -56.9981  -21.0989  -10.2356 C   0  0  0  0  0  0  0  0  0  0  0  0
  -57.5615  -20.2127  -11.3686 C   0  0  0  0  0  0  0  0  0  0  0  0
  -57.1913  -20.8172  -12.7384 C   0  0  0  0  0  0  0  0  0  0  0  0
  -55.1112  -21.7799  -11.6052 C   0  0  0  0  0  0  0  0  0  0  0  0
  -55.6691  -21.0414  -12.8414 C   0  0  0  0  0  0  0  0  0  0  0  0
  -58.0459  -17.8851  -11.6876 C   0  0  0  0  0  0  0  0  0  0  0  0
  -53.6180  -22.0000  -11.6804 C   0  0  0  0  0  0  0  0  0  0  0  0
  -57.3686  -16.4998  -11.7732 C   0  0  0  0  0  0  0  0  0  0  0  0
  -58.3914  -15.3592  -11.5883 C   0  0  0  0  0  0  0  0  0  0  0  0
  -60.2684  -17.0144  -11.3083 C   0  0  0  0  0  0  0  0  0  0  0  0
  -59.7796  -15.7831  -12.0997 C   0  0  0  0  0  0  0  0  0  0  0  0
  -61.2028  -17.8210  -12.1740 C   0  0  0  0  0  0  0  0  0  0  0  0
  -58.1231  -22.0813   -5.0914 H   0  0  0  0  0  0  0  0  0  0  0  0
  -58.2644  -20.2982   -6.5887 H   0  0  0  0  0  0  0  0  0  0  0  0
  -58.4048  -23.4361   -0.0087 H   0  0  0  0  0  0  0  0  0  0  0  0
  -55.8187  -19.3396   -8.8653 H   0  0  0  0  0  0  0  0  0  0  0  0
  -57.3966  -22.0109  -10.3318 H   0  0  0  0  0  0  0  0  0  0  0  0
  -58.5569  -20.1835  -11.2794 H   0  0  0  0  0  0  0  0  0  0  0  0
  -57.6388  -21.7077  -12.8190 H   0  0  0  0  0  0  0  0  0  0  0  0
  -55.5055  -22.6988  -11.6179 H   0  0  0  0  0  0  0  0  0  0  0  0
  -55.2287  -20.1448  -12.8881 H   0  0  0  0  0  0  0  0  0  0  0  0
  -58.3877  -18.1506  -12.5890 H   0  0  0  0  0  0  0  0  0  0  0  0
  -56.9647  -16.4110  -12.6835 H   0  0  0  0  0  0  0  0  0  0  0  0
  -58.4670  -15.1566  -10.6120 H   0  0  0  0  0  0  0  0  0  0  0  0
  -60.7481  -16.6757  -10.4990 H   0  0  0  0  0  0  0  0  0  0  0  0
  -59.7089  -16.0211  -13.0685 H   0  0  0  0  0  0  0  0  0  0  0  0
  -58.6601  -19.8335  -13.7389 H   0  0  0  0  0  0  0  0  0  0  0  0
  -55.5216  -22.7897  -13.8620 H   0  0  0  0  0  0  0  0  0  0  0  0
  -56.7185  -16.0881   -9.8944 H   0  0  0  0  0  0  0  0  0  0  0  0
  -58.5958  -13.4222  -12.1614 H   0  0  0  0  0  0  0  0  0  0  0  0
  -61.6642  -15.0282  -12.0811 H   0  0  0  0  0  0  0  0  0  0  0  0
  -60.0447  -19.3396   -3.6773 H   0  0  0  0  0  0  0  0  0  0  0  0
  -60.0204  -20.4020   -4.9535 H   0  0  0  0  0  0  0  0  0  0  0  0
  -59.1600  -18.3119   -5.6549 H   0  0  0  0  0  0  0  0  0  0  0  0
  -58.0219  -18.3868   -4.4785 H   0  0  0  0  0  0  0  0  0  0  0  0
  -61.5220  -21.1832   -2.6855 H   0  0  0  0  0  0  0  0  0  0  0  0
  -60.4335  -20.5556   -1.5840 H   0  0  0  0  0  0  0  0  0  0  0  0
  -56.8299  -22.2384   -6.7654 H   0  0  0  0  0  0  0  0  0  0  0  0
  -55.3902  -22.1974   -5.9271 H   0  0  0  0  0  0  0  0  0  0  0  0
  -62.0592  -21.7006   -0.3953 H   0  0  0  0  0  0  0  0  0  0  0  0
  -61.7957  -23.0478   -1.3325 H   0  0  0  0  0  0  0  0  0  0  0  0
  -58.1885  -19.1592   -2.3937 H   0  0  0  0  0  0  0  0  0  0  0  0
  -58.2710  -20.4734   -1.4242 H   0  0  0  0  0  0  0  0  0  0  0  0
  -56.9750  -20.2558   -2.3853 H   0  0  0  0  0  0  0  0  0  0  0  0
  -55.1155  -21.5870   -8.2340 H   0  0  0  0  0  0  0  0  0  0  0  0
  -54.6324  -20.4172   -7.1754 H   0  0  0  0  0  0  0  0  0  0  0  0
  -54.6948  -20.4411   -4.8483 H   0  0  0  0  0  0  0  0  0  0  0  0
  -55.6007  -19.1089   -4.5679 H   0  0  0  0  0  0  0  0  0  0  0  0
  -55.6532  -20.3585   -3.5253 H   0  0  0  0  0  0  0  0  0  0  0  0
  -61.1927  -23.0372   -3.7142 H   0  0  0  0  0  0  0  0  0  0  0  0
  -59.9415  -22.7814   -4.7355 H   0  0  0  0  0  0  0  0  0  0  0  0
  -59.8401  -23.9508   -3.6070 H   0  0  0  0  0  0  0  0  0  0  0  0
  -56.8696  -23.7003   -1.6646 H   0  0  0  0  0  0  0  0  0  0  0  0
  -58.8861  -25.4339   -1.4322 H   0  0  0  0  0  0  0  0  0  0  0  0
  -60.4664  -25.0567   -1.2586 H   0  0  0  0  0  0  0  0  0  0  0  0
  -61.8435  -24.1281    0.6490 H   0  0  0  0  0  0  0  0  0  0  0  0
  -61.3523  -23.1521    1.8906 H   0  0  0  0  0  0  0  0  0  0  0  0
  -57.7533  -17.1029   -7.9655 H   0  0  0  0  0  0  0  0  0  0  0  0
  -58.0981  -18.3862   -8.9182 H   0  0  0  0  0  0  0  0  0  0  0  0
  -58.9218  -18.1620   -7.5319 H   0  0  0  0  0  0  0  0  0  0  0  0
  -56.1945  -16.9572   -7.0622 H   0  0  0  0  0  0  0  0  0  0  0  0
  -55.8518  -17.8746   -5.7527 H   0  0  0  0  0  0  0  0  0  0  0  0
  -55.0279  -18.1010   -7.1386 H   0  0  0  0  0  0  0  0  0  0  0  0
  -60.6700  -25.3885    2.2981 H   0  0  0  0  0  0  0  0  0  0  0  0
  -59.3676  -24.3919    2.1063 H   0  0  0  0  0  0  0  0  0  0  0  0
  -59.9420  -21.7051    1.8711 H   0  0  0  0  0  0  0  0  0  0  0  0
  -58.7341  -21.5761    0.7764 H   0  0  0  0  0  0  0  0  0  0  0  0
  -60.1095  -20.7296    0.5687 H   0  0  0  0  0  0  0  0  0  0  0  0
  -59.9305  -27.8003    0.5965 H   0  0  0  0  0  0  0  0  0  0  0  0
  -61.2529  -26.9321    1.0103 H   0  0  0  0  0  0  0  0  0  0  0  0
  -60.8195  -27.0521   -0.5548 H   0  0  0  0  0  0  0  0  0  0  0  0
  2 32  2  0
  3 47  1  0
  3 50  1  0
  4 46  1  0
  5 46  2  0
  9 52  1  0
  9 56  1  0
 10 53  1  0
 11 53  2  0
 15 58  1  0
 16 58  2  0
 17 19  1  0
 17 20  1  0
 17 22  1  0
 17 33  1  0
 18 19  1  0
 18 21  1  0
 18 29  1  0
 18 35  1  0
 19 32  1  0
 20 25  1  0
 20 28  1  0
 20 36  1  0
 21 23  1  0
 21 24  1  0
 22 24  1  0
 23 31  1  0
 23 41  1  0
 23 42  1  0
 25 26  1  0
 25 37  2  0
 26 27  1  0
 26 38  1  0
 27 30  1  0
 27 39  1  0
 27 44  1  0
 28 30  1  0
 29 34  1  0
 31  1  1  0
 31 34  1  0
 32 37  1  0
 38 40  1  0
 39 43  1  0
 40 43  1  0
 40 45  1  0
 40 46  1  0
 47  1  1  0
 47 48  1  0
 48  6  1  0
 48 49  1  0
 49  7  1  0
 49 51  1  0
 50 51  1  0
 50 53  1  0
 51  8  1  0
 52  6  1  0
 52 54  1  0
 54 12  1  0
 54 55  1  0
 55 13  1  0
 55 57  1  0
 56 57  1  0
 56 58  1  0
 57 14  1  0
  7 73  1  0
  8 74  1  0
 12 75  1  0
 13 76  1  0
 14 77  1  0
 19 59  1  0
 21 60  1  0
 22 78  1  0
 22 79  1  0
 24 80  1  0
 24 81  1  0
 26 61  1  0
 28 82  1  0
 28 83  1  0
 29 84  1  0
 29 85  1  0
 30 86  1  0
 30 87  1  0
 31 62  1  0
 33 88  1  0
 33 89  1  0
 33 90  1  0
 34 91  1  0
 34 92  1  0
 35 93  1  0
 35 94  1  0
 35 95  1  0
 36 96  1  0
 36 97  1  0
 36 98  1  0
 37 99  1  0
 38100  1  0
 38101  1  0
 39102  1  0
 39103  1  0
 41104  1  0
 41105  1  0
 41106  1  0
 42107  1  0
 42108  1  0
 42109  1  0
 43110  1  0
 43111  1  0
 44112  1  0
 44113  1  0
 44114  1  0
 45115  1  0
 45116  1  0
 45117  1  0
 47 63  1  0
 48 64  1  0
 49 65  1  0
 50 66  1  0
 51 67  1  0
 52 68  1  0
 54 69  1  0
 55 70  1  0
 56 71  1  0
 57 72  1  0
M  CHG  3   4  -1  10  -1  15  -1
M  END
>  <LF dG>
-9.072

>  <LF VSscore>
-13.3

>  <LF Rank Score>
-7.372

>  <LF LE>
-0.156

>  <LF Structure Name>
C:\Users\Odara\AppData\Local\Temp\LeadFinder_9920_1\Ligand_1.sdf

>  <LF SDF id>
0

>  <LF Pose rank>
0

>  <LF version>
2001 1, 19 January 2019

>  <PUBCHEM_COMPOUND_CID>
656656

>  <PUBCHEM_COMPOUND_CANONICALIZED>
1

>  <PUBCHEM_CACTVS_COMPLEXITY>
1730

>  <PUBCHEM_CACTVS_HBOND_ACCEPTOR>
18

>  <PUBCHEM_CACTVS_HBOND_DONOR>
10

>  <PUBCHEM_CACTVS_ROTATABLE_BOND>
7

>  <PUBCHEM_CACTVS_SUBSKEYS>
AAADcfB/PgAAAAAAAAAAAAAAAAAAAAAAAAA0aMGCAAAAAADAAAAAGgAQCAAADxSwgAMCCAAABgCIAqDSCAIAAAAgAAAACAFAAEgREBYAAQQiQAAFoAAPAQPK7PzPgAAAAAAAAADAAAYAADAAAAAAAAAAAA==

>  <PUBCHEM_IUPAC_OPENEYE_NAME>
(2S,3S,4S,5R,6R)-6-[(2S,3R,4S,5S,6S)-2-[[(3S,4aR,6aR,6bS,8aS,11S,12aR,14aR,14bS)-11-carboxy-4,4,6a,6b,8a,11,14b-heptamethyl-14-oxo-2,3,4a,5,6,7,8,9,10,12,12a,14a-dodecahydro-1H-picen-3-yl]oxy]-6-carbo

>  <PUBCHEM_IUPAC_CAS_NAME>
(2S,3S,4S,5R,6R)-6-[[(2S,3R,4S,5S,6S)-2-[[(3S,4aR,6aR,6bS,8aS,11S,12aR,14aR,14bS)-11-carboxy-4,4,6a,6b,8a,11,14b-heptamethyl-14-oxo-2,3,4a,5,6,7,8,9,10,12,12a,14a-dodecahydro-1H-picen-3-yl]oxy]-6-carb

>  <PUBCHEM_IUPAC_NAME_MARKUP>
(2<I>S</I>,3<I>S</I>,4<I>S</I>,5<I>R</I>,6<I>R</I>)-6-[(2<I>S</I>,3<I>R</I>,4<I>S</I>,5<I>S</I>,6<I>S</I>)-2-[[(3<I>S</I>,4<I>a</I><I>R</I>,6<I>a</I><I>R</I>,6<I>b</I><I>S</I>,8<I>a</I><I>S</I>,11<I>S

>  <PUBCHEM_IUPAC_NAME>
(2S,3S,4S,5R,6R)-6-[(2S,3R,4S,5S,6S)-2-[[(3S,4aR,6aR,6bS,8aS,11S,12aR,14aR,14bS)-11-carboxy-4,4,6a,6b,8a,11,14b-heptamethyl-14-oxo-2,3,4a,5,6,7,8,9,10,12,12a,14a-dodecahydro-1H-picen-3-yl]oxy]-6-carbo

>  <PUBCHEM_IUPAC_SYSTEMATIC_NAME>
(2S,3S,4S,5R,6R)-6-[(2S,3R,4S,5S,6S)-2-[[(3S,4aR,6aR,6bS,8aS,11S,12aR,14aR,14bS)-11-carboxy-4,4,6a,6b,8a,11,14b-heptamethyl-14-oxidanylidene-2,3,4a,5,6,7,8,9,10,12,12a,14a-dodecahydro-1H-picen-3-yl]ox

>  <PUBCHEM_IUPAC_TRADITIONAL_NAME>
(2S,3S,4S,5R,6R)-6-[(2S,3R,4S,5S,6S)-2-[[(3S,4aR,6aR,6bS,8aS,11S,12aR,14aR,14bS)-11-carboxy-14-keto-4,4,6a,6b,8a,11,14b-heptamethyl-2,3,4a,5,6,7,8,9,10,12,12a,14a-dodecahydro-1H-picen-3-yl]oxy]-6-carb

>  <PUBCHEM_IUPAC_INCHI>
InChI=1S/C42H62O16.2H3N/c1-37(2)21-8-11-42(7)31(20(43)16-18-19-17-39(4,36(53)54)13-12-38(19,3)14-15-41(18,42)6)40(21,5)10-9-22(37)55-35-30(26(47)25(46)29(57-35)33(51)52)58-34-27(48)23(44)24(45)28(56-3

>  <PUBCHEM_IUPAC_INCHIKEY>
SPPIIOPGDLITJE-VLQRKCJKSA-N

>  <PUBCHEM_EXACT_MASS>
856.456884

>  <PUBCHEM_MOLECULAR_FORMULA>
C42H68N2O16

>  <PUBCHEM_MOLECULAR_WEIGHT>
857

>  <PUBCHEM_OPENEYE_CAN_SMILES>
CC1(C2CCC3(C(C2(CCC1OC4C(C(C(C(O4)C(=O)O)O)O)OC5C(C(C(C(O5)C(=O)O)O)O)O)C)C(=O)C=C6C3(CCC7(C6CC(CC7)(C)C(=O)O)C)C)C)C.N.N

>  <PUBCHEM_OPENEYE_ISO_SMILES>
C[C@]12CC[C@](C[C@H]1C3=CC(=O)[C@@H]4[C@]5(CC[C@@H](C([C@@H]5CC[C@]4([C@@]3(CC2)C)C)(C)C)O[C@@H]6[C@@H]([C@H]([C@@H]([C@H](O6)C(=O)O)O)O)O[C@H]7[C@@H]([C@H]([C@@H]([C@H](O7)C(=O)O)O)O)O)C)(C)C(=O)O.N.

>  <PUBCHEM_CACTVS_TPSA>
269

>  <PUBCHEM_MONOISOTOPIC_WEIGHT>
856.456884

>  <PUBCHEM_TOTAL_CHARGE>
0

>  <PUBCHEM_HEAVY_ATOM_COUNT>
60

>  <PUBCHEM_ATOM_DEF_STEREO_COUNT>
19

>  <PUBCHEM_ATOM_UDEF_STEREO_COUNT>
0

>  <PUBCHEM_BOND_DEF_STEREO_COUNT>
0

>  <PUBCHEM_BOND_UDEF_STEREO_COUNT>
0

>  <PUBCHEM_ISOTOPIC_ATOM_COUNT>
0

>  <PUBCHEM_COMPONENT_COUNT>
3

>  <PUBCHEM_CACTVS_TAUTO_COUNT>
-1

>  <PUBCHEM_COORDINATE_TYPE>
1
5
255

>  <PUBCHEM_BONDANNOTATIONS>
33  1  5
49  1  6
56  12  6
57  13  5
59  14  6
19  35  5
20  37  5
21  61  6
22  38  6
23  62  6
28  67  5
29  46  5
42  47  6
52  55  5
58  60  5
50  6  6
54  6  5
51  7  5
53  8  6

>  <Favorite_cresset>
false

>  <MW_cresset>
819.9

>  <#Atoms_cresset>
58

>  <SlogP_cresset>
4.1

>  <TPSA_cresset>
275.5

>  <Flexibility_cresset>
17.3

>  <#RB_cresset>
12

>  <Rof5_cresset>
2

>  <Filename_cresset>
drag.34_408.sdf

>  <Confs_cresset>
0

>  <Poses_cresset>
0

$$$$
Site2_Diammonium_D
  xed2sdf_05210316543D
 
117123  0  0  1  0  0  0  0  0999 V2000
  -57.4575  -20.6100   -8.9054 O   0  0  0  0  0  0  0  0  0  0  0  0
  -55.7718  -23.0323   -3.7253 O   0  0  0  0  0  0  0  0  0  0  0  0
  -55.7073  -21.1064  -10.4567 O   0  0  0  0  0  0  0  0  0  0  0  0
  -57.8927  -27.3956    0.7228 O   0  5  0  0  0  0  0  0  0  0  0  0
  -57.4240  -25.3023    1.4974 O   0  0  0  0  0  0  0  0  0  0  0  0
  -57.2037  -18.6862  -11.1333 O   0  0  0  0  0  0  0  0  0  0  0  0
  -57.9307  -19.6224  -13.7207 O   0  0  0  0  0  0  0  0  0  0  0  0
  -55.6925  -21.4606  -14.1546 O   0  0  0  0  0  0  0  0  0  0  0  0
  -59.3096  -17.6190  -10.7176 O   0  0  0  0  0  0  0  0  0  0  0  0
  -53.4925  -22.7916  -12.7090 O   0  5  0  0  0  0  0  0  0  0  0  0
  -53.0438  -21.1211  -11.2239 O   0  0  0  0  0  0  0  0  0  0  0  0
  -56.4193  -16.2618  -10.5260 O   0  0  0  0  0  0  0  0  0  0  0  0
  -57.8973  -13.9480  -12.0023 O   0  0  0  0  0  0  0  0  0  0  0  0
  -60.6936  -14.3948  -11.8236 O   0  0  0  0  0  0  0  0  0  0  0  0
  -62.3003  -18.0226  -11.6271 O   0  5  0  0  0  0  0  0  0  0  0  0
  -60.9342  -17.5344  -13.3897 O   0  0  0  0  0  0  0  0  0  0  0  0
  -58.6647  -20.8938   -3.4168 C   0  0  0  0  0  0  0  0  0  0  0  0
  -56.7426  -20.7413   -5.2992 C   0  0  0  0  0  0  0  0  0  0  0  0
  -57.6331  -21.6118   -4.3454 C   0  0  0  0  0  0  0  0  0  0  0  0
  -59.5921  -21.9858   -2.7496 C   0  0  0  0  0  0  0  0  0  0  0  0
  -57.6588  -19.7052   -6.0339 C   0  0  0  0  0  0  0  0  0  0  0  0
  -59.4611  -19.8481   -4.2423 C   0  0  0  0  0  0  0  0  0  0  0  0
  -56.9951  -18.8911   -7.1959 C   0  0  0  0  0  0  0  0  0  0  0  0
  -58.5664  -18.8973   -5.0697 C   0  0  0  0  0  0  0  0  0  0  0  0
  -58.7062  -22.8879   -1.8990 C   0  0  0  0  0  0  0  0  0  0  0  0
  -59.1681  -23.5036   -0.5892 C   0  0  0  0  0  0  0  0  0  0  0  0
  -60.2888  -22.7394    0.1660 C   0  0  0  0  0  0  0  0  0  0  0  0
  -60.7647  -21.3310   -1.9572 C   0  0  0  0  0  0  0  0  0  0  0  0
  -56.1504  -21.6751   -6.3945 C   0  0  0  0  0  0  0  0  0  0  0  0
  -61.3512  -22.1960   -0.8207 C   0  0  0  0  0  0  0  0  0  0  0  0
  -56.4022  -19.8928   -8.2247 C   0  0  0  0  0  0  0  0  0  0  0  0
  -56.8984  -22.6346   -3.5004 C   0  0  0  0  0  0  0  0  0  0  0  0
  -57.9208  -20.1267   -2.2853 C   0  0  0  0  0  0  0  0  0  0  0  0
  -55.4671  -20.9334   -7.5692 C   0  0  0  0  0  0  0  0  0  0  0  0
  -55.5580  -20.1294   -4.5015 C   0  0  0  0  0  0  0  0  0  0  0  0
  -60.2211  -22.9940   -3.7495 C   0  0  0  0  0  0  0  0  0  0  0  0
  -57.4444  -23.1519   -2.2624 C   0  0  0  0  0  0  0  0  0  0  0  0
  -59.5673  -24.9795   -0.7997 C   0  0  0  0  0  0  0  0  0  0  0  0
  -61.0158  -23.6714    1.1766 C   0  0  0  0  0  0  0  0  0  0  0  0
  -59.5872  -25.7194    0.5628 C   0  0  0  0  0  0  0  0  0  0  0  0
  -58.0490  -18.0374   -7.9379 C   0  0  0  0  0  0  0  0  0  0  0  0
  -55.9151  -17.8771   -6.7489 C   0  0  0  0  0  0  0  0  0  0  0  0
  -60.1084  -24.8059    1.7019 C   0  0  0  0  0  0  0  0  0  0  0  0
  -59.6511  -21.5736    0.9514 C   0  0  0  0  0  0  0  0  0  0  0  0
  -60.4914  -26.9584    0.4258 C   0  0  0  0  0  0  0  0  0  0  0  0
  -58.1947  -26.1718    0.9566 C   0  0  0  0  0  0  0  0  0  0  0  0
  -57.1362  -20.9917  -10.2640 C   0  0  0  0  0  0  0  0  0  0  0  0
  -57.7260  -20.0171  -11.3075 C   0  0  0  0  0  0  0  0  0  0  0  0
  -57.4257  -20.5303  -12.7306 C   0  0  0  0  0  0  0  0  0  0  0  0
  -55.3225  -21.6100  -11.7568 C   0  0  0  0  0  0  0  0  0  0  0  0
  -55.9143  -20.7756  -12.9135 C   0  0  0  0  0  0  0  0  0  0  0  0
  -58.1309  -17.6656  -11.5534 C   0  0  0  0  0  0  0  0  0  0  0  0
  -53.8388  -21.8526  -11.9105 C   0  0  0  0  0  0  0  0  0  0  0  0
  -57.4097  -16.2999  -11.5638 C   0  0  0  0  0  0  0  0  0  0  0  0
  -58.4043  -15.1352  -11.3757 C   0  0  0  0  0  0  0  0  0  0  0  0
  -60.3391  -16.7398  -11.2251 C   0  0  0  0  0  0  0  0  0  0  0  0
  -59.7841  -15.4974  -11.9530 C   0  0  0  0  0  0  0  0  0  0  0  0
  -61.2637  -17.4860  -12.1533 C   0  0  0  0  0  0  0  0  0  0  0  0
  -58.1549  -22.0643   -5.0686 H   0  0  0  0  0  0  0  0  0  0  0  0
  -58.2940  -20.2736   -6.5569 H   0  0  0  0  0  0  0  0  0  0  0  0
  -58.3729  -23.4345    0.0130 H   0  0  0  0  0  0  0  0  0  0  0  0
  -55.8720  -19.3431   -8.8703 H   0  0  0  0  0  0  0  0  0  0  0  0
  -57.5583  -21.8869  -10.4066 H   0  0  0  0  0  0  0  0  0  0  0  0
  -58.7160  -19.9754  -11.1742 H   0  0  0  0  0  0  0  0  0  0  0  0
  -57.8956  -21.4042  -12.8540 H   0  0  0  0  0  0  0  0  0  0  0  0
  -55.7370  -22.5180  -11.8168 H   0  0  0  0  0  0  0  0  0  0  0  0
  -55.4566  -19.8864  -12.9163 H   0  0  0  0  0  0  0  0  0  0  0  0
  -58.4459  -17.8885  -12.4758 H   0  0  0  0  0  0  0  0  0  0  0  0
  -56.9690  -16.1920  -12.4547 H   0  0  0  0  0  0  0  0  0  0  0  0
  -58.5109  -14.9646  -10.3961 H   0  0  0  0  0  0  0  0  0  0  0  0
  -60.8390  -16.4148  -10.4224 H   0  0  0  0  0  0  0  0  0  0  0  0
  -59.6838  -15.7034  -12.9264 H   0  0  0  0  0  0  0  0  0  0  0  0
  -58.9176  -19.4707  -13.6125 H   0  0  0  0  0  0  0  0  0  0  0  0
  -55.8220  -22.4529  -14.0528 H   0  0  0  0  0  0  0  0  0  0  0  0
  -56.8231  -15.9935   -9.6444 H   0  0  0  0  0  0  0  0  0  0  0  0
  -58.4983  -13.1593  -11.8334 H   0  0  0  0  0  0  0  0  0  0  0  0
  -61.6388  -14.6748  -12.0243 H   0  0  0  0  0  0  0  0  0  0  0  0
  -60.0111  -19.2995   -3.6129 H   0  0  0  0  0  0  0  0  0  0  0  0
  -60.0240  -20.3572   -4.8932 H   0  0  0  0  0  0  0  0  0  0  0  0
  -59.1438  -18.2775   -5.6012 H   0  0  0  0  0  0  0  0  0  0  0  0
  -57.9876  -18.3742   -4.4441 H   0  0  0  0  0  0  0  0  0  0  0  0
  -61.4996  -21.1245   -2.6034 H   0  0  0  0  0  0  0  0  0  0  0  0
  -60.3836  -20.5176   -1.5178 H   0  0  0  0  0  0  0  0  0  0  0  0
  -56.8922  -22.2345   -6.7645 H   0  0  0  0  0  0  0  0  0  0  0  0
  -55.4383  -22.2185   -5.9501 H   0  0  0  0  0  0  0  0  0  0  0  0
  -62.0066  -21.6426   -0.3065 H   0  0  0  0  0  0  0  0  0  0  0  0
  -61.7790  -22.9899   -1.2528 H   0  0  0  0  0  0  0  0  0  0  0  0
  -58.1314  -19.1521   -2.3596 H   0  0  0  0  0  0  0  0  0  0  0  0
  -58.2177  -20.4687   -1.3938 H   0  0  0  0  0  0  0  0  0  0  0  0
  -56.9346  -20.2671   -2.3754 H   0  0  0  0  0  0  0  0  0  0  0  0
  -55.1926  -21.6033   -8.2589 H   0  0  0  0  0  0  0  0  0  0  0  0
  -54.6744  -20.4452   -7.2043 H   0  0  0  0  0  0  0  0  0  0  0  0
  -54.6987  -20.4770   -4.8766 H   0  0  0  0  0  0  0  0  0  0  0  0
  -55.5795  -19.1324   -4.5764 H   0  0  0  0  0  0  0  0  0  0  0  0
  -55.6336  -20.3851   -3.5375 H   0  0  0  0  0  0  0  0  0  0  0  0
  -61.2155  -22.9792   -3.6442 H   0  0  0  0  0  0  0  0  0  0  0  0
  -59.9776  -22.7383   -4.6852 H   0  0  0  0  0  0  0  0  0  0  0  0
  -59.8752  -23.9135   -3.5628 H   0  0  0  0  0  0  0  0  0  0  0  0
  -56.8696  -23.7153   -1.6691 H   0  0  0  0  0  0  0  0  0  0  0  0
  -58.9079  -25.4192   -1.4095 H   0  0  0  0  0  0  0  0  0  0  0  0
  -60.4792  -25.0189   -1.2083 H   0  0  0  0  0  0  0  0  0  0  0  0
  -61.8103  -24.0771    0.7252 H   0  0  0  0  0  0  0  0  0  0  0  0
  -61.2840  -23.1134    1.9621 H   0  0  0  0  0  0  0  0  0  0  0  0
  -57.7574  -17.0810   -7.9304 H   0  0  0  0  0  0  0  0  0  0  0  0
  -58.1373  -18.3553   -8.8820 H   0  0  0  0  0  0  0  0  0  0  0  0
  -58.9344  -18.1241   -7.4813 H   0  0  0  0  0  0  0  0  0  0  0  0
  -56.1818  -16.9623   -7.0526 H   0  0  0  0  0  0  0  0  0  0  0  0
  -55.8314  -17.8899   -5.7524 H   0  0  0  0  0  0  0  0  0  0  0  0
  -55.0341  -18.1233   -7.1526 H   0  0  0  0  0  0  0  0  0  0  0  0
  -60.6289  -25.3614    2.3501 H   0  0  0  0  0  0  0  0  0  0  0  0
  -59.3150  -24.3838    2.1402 H   0  0  0  0  0  0  0  0  0  0  0  0
  -59.8524  -21.6878    1.9243 H   0  0  0  0  0  0  0  0  0  0  0  0
  -58.6609  -21.5728    0.8102 H   0  0  0  0  0  0  0  0  0  0  0  0
  -60.0267  -20.7049    0.6285 H   0  0  0  0  0  0  0  0  0  0  0  0
  -59.9543  -27.7774    0.6277 H   0  0  0  0  0  0  0  0  0  0  0  0
  -61.2564  -26.8910    1.0665 H   0  0  0  0  0  0  0  0  0  0  0  0
  -60.8509  -27.0115   -0.5060 H   0  0  0  0  0  0  0  0  0  0  0  0
  2 32  2  0
  3 47  1  0
  3 50  1  0
  4 46  1  0
  5 46  2  0
  9 52  1  0
  9 56  1  0
 10 53  1  0
 11 53  2  0
 15 58  1  0
 16 58  2  0
 17 19  1  0
 17 20  1  0
 17 22  1  0
 17 33  1  0
 18 19  1  0
 18 21  1  0
 18 29  1  0
 18 35  1  0
 19 32  1  0
 20 25  1  0
 20 28  1  0
 20 36  1  0
 21 23  1  0
 21 24  1  0
 22 24  1  0
 23 31  1  0
 23 41  1  0
 23 42  1  0
 25 26  1  0
 25 37  2  0
 26 27  1  0
 26 38  1  0
 27 30  1  0
 27 39  1  0
 27 44  1  0
 28 30  1  0
 29 34  1  0
 31  1  1  0
 31 34  1  0
 32 37  1  0
 38 40  1  0
 39 43  1  0
 40 43  1  0
 40 45  1  0
 40 46  1  0
 47  1  1  0
 47 48  1  0
 48  6  1  0
 48 49  1  0
 49  7  1  0
 49 51  1  0
 50 51  1  0
 50 53  1  0
 51  8  1  0
 52  6  1  0
 52 54  1  0
 54 12  1  0
 54 55  1  0
 55 13  1  0
 55 57  1  0
 56 57  1  0
 56 58  1  0
 57 14  1  0
  7 73  1  0
  8 74  1  0
 12 75  1  0
 13 76  1  0
 14 77  1  0
 19 59  1  0
 21 60  1  0
 22 78  1  0
 22 79  1  0
 24 80  1  0
 24 81  1  0
 26 61  1  0
 28 82  1  0
 28 83  1  0
 29 84  1  0
 29 85  1  0
 30 86  1  0
 30 87  1  0
 31 62  1  0
 33 88  1  0
 33 89  1  0
 33 90  1  0
 34 91  1  0
 34 92  1  0
 35 93  1  0
 35 94  1  0
 35 95  1  0
 36 96  1  0
 36 97  1  0
 36 98  1  0
 37 99  1  0
 38100  1  0
 38101  1  0
 39102  1  0
 39103  1  0
 41104  1  0
 41105  1  0
 41106  1  0
 42107  1  0
 42108  1  0
 42109  1  0
 43110  1  0
 43111  1  0
 44112  1  0
 44113  1  0
 44114  1  0
 45115  1  0
 45116  1  0
 45117  1  0
 47 63  1  0
 48 64  1  0
 49 65  1  0
 50 66  1  0
 51 67  1  0
 52 68  1  0
 54 69  1  0
 55 70  1  0
 56 71  1  0
 57 72  1  0
M  CHG  3   4  -1  10  -1  15  -1
M  END
>  <LF dG>
-8.662

>  <LF VSscore>
-13.343

>  <LF Rank Score>
-7.355

>  <LF LE>
-0.149

>  <LF Structure Name>
C:\Users\Odara\AppData\Local\Temp\LeadFinder_9008_1\Ligand_1.sdf

>  <LF SDF id>
0

>  <LF Pose rank>
0

>  <LF version>
2001 1, 19 January 2019

>  <PUBCHEM_COMPOUND_CID>
656656

>  <PUBCHEM_COMPOUND_CANONICALIZED>
1

>  <PUBCHEM_CACTVS_COMPLEXITY>
1730

>  <PUBCHEM_CACTVS_HBOND_ACCEPTOR>
18

>  <PUBCHEM_CACTVS_HBOND_DONOR>
10

>  <PUBCHEM_CACTVS_ROTATABLE_BOND>
7

>  <PUBCHEM_CACTVS_SUBSKEYS>
AAADcfB/PgAAAAAAAAAAAAAAAAAAAAAAAAA0aMGCAAAAAADAAAAAGgAQCAAADxSwgAMCCAAABgCIAqDSCAIAAAAgAAAACAFAAEgREBYAAQQiQAAFoAAPAQPK7PzPgAAAAAAAAADAAAYAADAAAAAAAAAAAA==

>  <PUBCHEM_IUPAC_OPENEYE_NAME>
(2S,3S,4S,5R,6R)-6-[(2S,3R,4S,5S,6S)-2-[[(3S,4aR,6aR,6bS,8aS,11S,12aR,14aR,14bS)-11-carboxy-4,4,6a,6b,8a,11,14b-heptamethyl-14-oxo-2,3,4a,5,6,7,8,9,10,12,12a,14a-dodecahydro-1H-picen-3-yl]oxy]-6-carbo

>  <PUBCHEM_IUPAC_CAS_NAME>
(2S,3S,4S,5R,6R)-6-[[(2S,3R,4S,5S,6S)-2-[[(3S,4aR,6aR,6bS,8aS,11S,12aR,14aR,14bS)-11-carboxy-4,4,6a,6b,8a,11,14b-heptamethyl-14-oxo-2,3,4a,5,6,7,8,9,10,12,12a,14a-dodecahydro-1H-picen-3-yl]oxy]-6-carb

>  <PUBCHEM_IUPAC_NAME_MARKUP>
(2<I>S</I>,3<I>S</I>,4<I>S</I>,5<I>R</I>,6<I>R</I>)-6-[(2<I>S</I>,3<I>R</I>,4<I>S</I>,5<I>S</I>,6<I>S</I>)-2-[[(3<I>S</I>,4<I>a</I><I>R</I>,6<I>a</I><I>R</I>,6<I>b</I><I>S</I>,8<I>a</I><I>S</I>,11<I>S

>  <PUBCHEM_IUPAC_NAME>
(2S,3S,4S,5R,6R)-6-[(2S,3R,4S,5S,6S)-2-[[(3S,4aR,6aR,6bS,8aS,11S,12aR,14aR,14bS)-11-carboxy-4,4,6a,6b,8a,11,14b-heptamethyl-14-oxo-2,3,4a,5,6,7,8,9,10,12,12a,14a-dodecahydro-1H-picen-3-yl]oxy]-6-carbo

>  <PUBCHEM_IUPAC_SYSTEMATIC_NAME>
(2S,3S,4S,5R,6R)-6-[(2S,3R,4S,5S,6S)-2-[[(3S,4aR,6aR,6bS,8aS,11S,12aR,14aR,14bS)-11-carboxy-4,4,6a,6b,8a,11,14b-heptamethyl-14-oxidanylidene-2,3,4a,5,6,7,8,9,10,12,12a,14a-dodecahydro-1H-picen-3-yl]ox

>  <PUBCHEM_IUPAC_TRADITIONAL_NAME>
(2S,3S,4S,5R,6R)-6-[(2S,3R,4S,5S,6S)-2-[[(3S,4aR,6aR,6bS,8aS,11S,12aR,14aR,14bS)-11-carboxy-14-keto-4,4,6a,6b,8a,11,14b-heptamethyl-2,3,4a,5,6,7,8,9,10,12,12a,14a-dodecahydro-1H-picen-3-yl]oxy]-6-carb

>  <PUBCHEM_IUPAC_INCHI>
InChI=1S/C42H62O16.2H3N/c1-37(2)21-8-11-42(7)31(20(43)16-18-19-17-39(4,36(53)54)13-12-38(19,3)14-15-41(18,42)6)40(21,5)10-9-22(37)55-35-30(26(47)25(46)29(57-35)33(51)52)58-34-27(48)23(44)24(45)28(56-3

>  <PUBCHEM_IUPAC_INCHIKEY>
SPPIIOPGDLITJE-VLQRKCJKSA-N

>  <PUBCHEM_EXACT_MASS>
856.456884

>  <PUBCHEM_MOLECULAR_FORMULA>
C42H68N2O16

>  <PUBCHEM_MOLECULAR_WEIGHT>
857

>  <PUBCHEM_OPENEYE_CAN_SMILES>
CC1(C2CCC3(C(C2(CCC1OC4C(C(C(C(O4)C(=O)O)O)O)OC5C(C(C(C(O5)C(=O)O)O)O)O)C)C(=O)C=C6C3(CCC7(C6CC(CC7)(C)C(=O)O)C)C)C)C.N.N

>  <PUBCHEM_OPENEYE_ISO_SMILES>
C[C@]12CC[C@](C[C@H]1C3=CC(=O)[C@@H]4[C@]5(CC[C@@H](C([C@@H]5CC[C@]4([C@@]3(CC2)C)C)(C)C)O[C@@H]6[C@@H]([C@H]([C@@H]([C@H](O6)C(=O)O)O)O)O[C@H]7[C@@H]([C@H]([C@@H]([C@H](O7)C(=O)O)O)O)O)C)(C)C(=O)O.N.

>  <PUBCHEM_CACTVS_TPSA>
269

>  <PUBCHEM_MONOISOTOPIC_WEIGHT>
856.456884

>  <PUBCHEM_TOTAL_CHARGE>
0

>  <PUBCHEM_HEAVY_ATOM_COUNT>
60

>  <PUBCHEM_ATOM_DEF_STEREO_COUNT>
19

>  <PUBCHEM_ATOM_UDEF_STEREO_COUNT>
0

>  <PUBCHEM_BOND_DEF_STEREO_COUNT>
0

>  <PUBCHEM_BOND_UDEF_STEREO_COUNT>
0

>  <PUBCHEM_ISOTOPIC_ATOM_COUNT>
0

>  <PUBCHEM_COMPONENT_COUNT>
3

>  <PUBCHEM_CACTVS_TAUTO_COUNT>
-1

>  <PUBCHEM_COORDINATE_TYPE>
1
5
255

>  <PUBCHEM_BONDANNOTATIONS>
33  1  5
49  1  6
56  12  6
57  13  5
59  14  6
19  35  5
20  37  5
21  61  6
22  38  6
23  62  6
28  67  5
29  46  5
42  47  6
52  55  5
58  60  5
50  6  6
54  6  5
51  7  5
53  8  6

>  <Favorite_cresset>
false

>  <MW_cresset>
819.9

>  <#Atoms_cresset>
58

>  <SlogP_cresset>
4.1

>  <TPSA_cresset>
275.5

>  <Flexibility_cresset>
17.3

>  <#RB_cresset>
12

>  <Rof5_cresset>
2

>  <Filename_cresset>
drag.37_878.sdf

>  <Confs_cresset>
0

>  <Poses_cresset>
0

$$$$
Site2_Baicalein_D
  xed2sdf_05210316543D
 
 30 32  0  0  0  0  0  0  0  0999 V2000
  -58.4792  -20.6032   -0.9904 O   0  0  0  0  0  0  0  0  0  0  0  0
  -57.7062  -20.3732    3.7836 O   0  0  0  0  0  0  0  0  0  0  0  0
  -55.7702  -18.5442    3.3416 O   0  0  0  0  0  0  0  0  0  0  0  0
  -55.1752  -17.7442    0.7816 O   0  0  0  0  0  0  0  0  0  0  0  0
  -59.5822  -21.9762    2.6456 O   0  0  0  0  0  0  0  0  0  0  0  0
  -58.1552  -20.5432    1.4186 C   0  0  0  0  0  0  0  0  0  0  0  0
  -57.8442  -20.1302    0.1186 C   0  0  0  0  0  0  0  0  0  0  0  0
  -59.5092  -21.4932   -0.8234 C   0  0  0  0  0  0  0  0  0  0  0  0
  -57.4432  -20.0022    2.5016 C   0  0  0  0  0  0  0  0  0  0  0  0
  -59.2202  -21.5192    1.5626 C   0  0  0  0  0  0  0  0  0  0  0  0
  -59.8902  -21.9692    0.3966 C   0  0  0  0  0  0  0  0  0  0  0  0
  -60.2082  -21.9352   -2.0584 C   0  0  0  0  0  0  0  0  0  0  0  0
  -56.8432  -19.1952   -0.0734 C   0  0  0  0  0  0  0  0  0  0  0  0
  -56.4562  -19.0722    2.2836 C   0  0  0  0  0  0  0  0  0  0  0  0
  -56.1522  -18.6652    0.9906 C   0  0  0  0  0  0  0  0  0  0  0  0
  -61.2812  -21.2422   -2.6024 C   0  0  0  0  0  0  0  0  0  0  0  0
  -59.7692  -23.0822   -2.7024 C   0  0  0  0  0  0  0  0  0  0  0  0
  -61.8922  -21.6862   -3.7504 C   0  0  0  0  0  0  0  0  0  0  0  0
  -60.3822  -23.5252   -3.8484 C   0  0  0  0  0  0  0  0  0  0  0  0
  -61.4452  -22.8282   -4.3754 C   0  0  0  0  0  0  0  0  0  0  0  0
  -57.0492  -21.0502    4.1246 H   0  0  0  0  0  0  0  0  0  0  0  0
  -56.3222  -17.8642    3.8356 H   0  0  0  0  0  0  0  0  0  0  0  0
  -54.2612  -18.1352    0.9366 H   0  0  0  0  0  0  0  0  0  0  0  0
  -60.6372  -22.6302    0.4686 H   0  0  0  0  0  0  0  0  0  0  0  0
  -56.6172  -18.9002   -1.0014 H   0  0  0  0  0  0  0  0  0  0  0  0
  -61.6122  -20.4122   -2.1554 H   0  0  0  0  0  0  0  0  0  0  0  0
  -58.9962  -23.5942   -2.3264 H   0  0  0  0  0  0  0  0  0  0  0  0
  -62.6642  -21.1782   -4.1314 H   0  0  0  0  0  0  0  0  0  0  0  0
  -60.0562  -24.3552   -4.3014 H   0  0  0  0  0  0  0  0  0  0  0  0
  -61.8912  -23.1492   -5.2104 H   0  0  0  0  0  0  0  0  0  0  0  0
  1  7  1  0
  1  8  1  0
  2  9  1  0
  3 14  1  0
  4 15  1  0
  5 10  2  0
  6  7  2  0
  6  9  1  0
  6 10  1  0
  7 13  1  0
  8 11  2  0
  8 12  1  0
  9 14  2  0
 10 11  1  0
 12 16  2  0
 12 17  1  0
 13 15  2  0
 14 15  1  0
 16 18  1  0
 17 19  2  0
 18 20  2  0
 19 20  1  0
  2 21  1  0
  3 22  1  0
  4 23  1  0
 11 24  1  0
 13 25  1  0
 16 26  1  0
 17 27  1  0
 18 28  1  0
 19 29  1  0
 20 30  1  0
M  END
>  <LF dG>
-7.1

>  <LF VSscore>
-9.49

>  <LF Rank Score>
-11.875

>  <LF LE>
-0.355

>  <LF Structure Name>
C:\Users\Odara\AppData\Local\Temp\LeadFinder_7868_1\Ligand_1.sdf

>  <LF SDF id>
0

>  <LF Pose rank>
0

>  <LF version>
2001 1, 19 January 2019

>  <PUBCHEM_COMPOUND_CID>
5281605

>  <PUBCHEM_COMPOUND_CANONICALIZED>
1

>  <PUBCHEM_CACTVS_COMPLEXITY>
413

>  <PUBCHEM_CACTVS_HBOND_ACCEPTOR>
5

>  <PUBCHEM_CACTVS_HBOND_DONOR>
3

>  <PUBCHEM_CACTVS_ROTATABLE_BOND>
1

>  <PUBCHEM_CACTVS_SUBSKEYS>
AAADccBwOAAAAAAAAAAAAAAAAAAAAAAAAAAwYIAAAAAAAACBQAAAGgAACAAADASAmAAwBoAABgCIAqBSAAACCAAkIAAIiAEGiMgNJzaGNRqCeWGl4BUJuQfK7LzOIQABCAAIQABCAAIQABCAAAAAAAAAAA==

>  <PUBCHEM_IUPAC_OPENEYE_NAME>
5,6,7-trihydroxy-2-phenyl-chromen-4-one

>  <PUBCHEM_IUPAC_CAS_NAME>
5,6,7-trihydroxy-2-phenyl-1-benzopyran-4-one

>  <PUBCHEM_IUPAC_NAME_MARKUP>
5,6,7-trihydroxy-2-phenylchromen-4-one

>  <PUBCHEM_IUPAC_NAME>
5,6,7-trihydroxy-2-phenylchromen-4-one

>  <PUBCHEM_IUPAC_SYSTEMATIC_NAME>
5,6,7-tris(oxidanyl)-2-phenyl-chromen-4-one

>  <PUBCHEM_IUPAC_TRADITIONAL_NAME>
5,6,7-trihydroxy-2-phenyl-chromone

>  <PUBCHEM_IUPAC_INCHI>
InChI=1S/C15H10O5/c16-9-6-11(8-4-2-1-3-5-8)20-12-7-10(17)14(18)15(19)13(9)12/h1-7,17-19H

>  <PUBCHEM_IUPAC_INCHIKEY>
FXNFHKRTJBSTCS-UHFFFAOYSA-N

>  <PUBCHEM_XLOGP3>
1.7

>  <PUBCHEM_EXACT_MASS>
270.052823

>  <PUBCHEM_MOLECULAR_FORMULA>
C15H10O5

>  <PUBCHEM_MOLECULAR_WEIGHT>
270.24

>  <PUBCHEM_OPENEYE_CAN_SMILES>
C1=CC=C(C=C1)C2=CC(=O)C3=C(O2)C=C(C(=C3O)O)O

>  <PUBCHEM_OPENEYE_ISO_SMILES>
C1=CC=C(C=C1)C2=CC(=O)C3=C(O2)C=C(C(=C3O)O)O

>  <PUBCHEM_CACTVS_TPSA>
87

>  <PUBCHEM_MONOISOTOPIC_WEIGHT>
270.052823

>  <PUBCHEM_TOTAL_CHARGE>
0

>  <PUBCHEM_HEAVY_ATOM_COUNT>
20

>  <PUBCHEM_ATOM_DEF_STEREO_COUNT>
0

>  <PUBCHEM_ATOM_UDEF_STEREO_COUNT>
0

>  <PUBCHEM_BOND_DEF_STEREO_COUNT>
0

>  <PUBCHEM_BOND_UDEF_STEREO_COUNT>
0

>  <PUBCHEM_ISOTOPIC_ATOM_COUNT>
0

>  <PUBCHEM_COMPONENT_COUNT>
1

>  <PUBCHEM_CACTVS_TAUTO_COUNT>
-1

>  <PUBCHEM_COORDINATE_TYPE>
1
5
255

>  <PUBCHEM_BONDANNOTATIONS>
1  7  8
1  8  8
10  11  8
12  16  8
12  17  8
13  15  8
14  15  8
16  18  8
17  19  8
18  20  8
19  20  8
6  10  8
6  7  8
6  9  8
7  13  8
8  11  8
9  14  8

>  <Preferred Pose_cresset>
true

>  <Favorite_cresset>
false

>  <MW_cresset>
270.2

>  <#Atoms_cresset>
20

>  <SlogP_cresset>
2.3

>  <TPSA_cresset>
87

>  <Flexibility_cresset>
1.7

>  <#RB_cresset>
4

>  <Rof5_cresset>
0

>  <Filename_cresset>
Baicalein no water site 2.sdf

>  <Confs_cresset>
0

>  <Poses_cresset>
10

>  <_cresset_fieldpoints>
    -5     -58.922501     -20.720783      -4.677581     -2.8396
    -5     -60.871006     -22.996096       3.576738    -15.9358
    -5     -59.444782     -20.998287       4.285446    -21.0083
    -5     -55.671471     -15.909033       0.556348     -7.4554
    -5     -58.108990     -20.162640      -2.964324     -3.6028
    -5     -62.856880     -24.084373      -1.890355     -2.2372
    -6     -52.668491     -19.062283       0.725715      7.9866
    -6     -61.267319     -19.097366      -0.549328      2.9675
    -6     -57.448586     -23.587597      -0.882295      3.3215
    -6     -63.371178     -19.132484      -2.874427      2.9437
    -6     -55.577965     -22.156384       4.564936      6.7367
    -6     -57.037914     -16.413666       4.755935      7.2331
    -6     -58.048656     -25.465839      -3.084810      3.0446
    -6     -61.068535     -25.188004      -6.290120      2.7818
    -6     -63.765564     -21.912621      -6.133567      2.7680
    -7     -57.921631     -19.990742      -3.300542     -2.4592
    -7     -61.039459     -19.106915       0.118312     -2.6116
    -7     -59.152840     -21.701084       5.058867     -1.5506
    -7     -56.356651     -19.376312       5.656517     -1.5577
    -7     -59.588600     -17.453320       1.347808     -1.8258
    -7     -57.443329     -23.252560       3.368762     -1.7673
    -7     -60.230835     -20.111034       4.237823     -1.6393
    -7     -55.188030     -22.173447       0.920912     -1.8161
    -7     -54.022514     -17.761330      -1.428494     -1.2465
    -7     -57.259243     -23.401676      -0.345311     -2.6062
    -7     -54.226181     -16.650822       2.882063     -1.5025
    -7     -63.657249     -18.869408      -2.985601     -0.9873
    -7     -57.992142     -25.894127      -3.281882     -0.9920
    -7     -64.017776     -21.892006      -6.393003     -0.9674
    -7     -61.159515     -25.410326      -6.566033     -0.9672
    -7     -62.561741     -23.961834      -0.884942     -2.0533
    -8     -57.170853     -19.619574       1.178640      6.5997
    -8     -58.927452     -21.129642       0.597986      5.0079
    -8     -60.830624     -22.386105      -3.220264      7.1513

$$$$
W_Site2_Baicalein_D
  xed2sdf_05210316543D
 
 30 32  0  0  0  0  0  0  0  0999 V2000
  -58.0553  -23.7269   -0.0889 O   0  0  0  0  0  0  0  0  0  0  0  0
  -60.6433  -26.3569    3.0471 O   0  0  0  0  0  0  0  0  0  0  0  0
  -59.3823  -28.5759    2.1621 O   0  0  0  0  0  0  0  0  0  0  0  0
  -57.4853  -28.3979    0.1841 O   0  0  0  0  0  0  0  0  0  0  0  0
  -60.8903  -23.6639    2.7891 O   0  0  0  0  0  0  0  0  0  0  0  0
  -59.3943  -24.9769    1.5111 C   0  0  0  0  0  0  0  0  0  0  0  0
  -58.4243  -24.8959    0.5051 C   0  0  0  0  0  0  0  0  0  0  0  0
  -58.6763  -22.5679    0.3041 C   0  0  0  0  0  0  0  0  0  0  0  0
  -59.7093  -26.2289    2.0661 C   0  0  0  0  0  0  0  0  0  0  0  0
  -60.0253  -23.7339    1.9171 C   0  0  0  0  0  0  0  0  0  0  0  0
  -59.6333  -22.5329    1.2741 C   0  0  0  0  0  0  0  0  0  0  0  0
  -58.2553  -21.3249   -0.3919 C   0  0  0  0  0  0  0  0  0  0  0  0
  -57.7973  -26.0509    0.0771 C   0  0  0  0  0  0  0  0  0  0  0  0
  -59.0713  -27.3599    1.6211 C   0  0  0  0  0  0  0  0  0  0  0  0
  -58.1113  -27.2749    0.6221 C   0  0  0  0  0  0  0  0  0  0  0  0
  -58.5053  -21.0899   -1.7379 C   0  0  0  0  0  0  0  0  0  0  0  0
  -57.5833  -20.3509    0.3301 C   0  0  0  0  0  0  0  0  0  0  0  0
  -58.0933  -19.9239   -2.3359 C   0  0  0  0  0  0  0  0  0  0  0  0
  -57.1703  -19.1849   -0.2679 C   0  0  0  0  0  0  0  0  0  0  0  0
  -57.4243  -18.9689   -1.6039 C   0  0  0  0  0  0  0  0  0  0  0  0
  -60.3673  -27.0179    3.7491 H   0  0  0  0  0  0  0  0  0  0  0  0
  -59.9763  -29.1099    1.5501 H   0  0  0  0  0  0  0  0  0  0  0  0
  -57.2323  -28.3249   -0.7869 H   0  0  0  0  0  0  0  0  0  0  0  0
  -60.0573  -21.6639    1.5311 H   0  0  0  0  0  0  0  0  0  0  0  0
  -57.1033  -25.9969   -0.6409 H   0  0  0  0  0  0  0  0  0  0  0  0
  -58.9913  -21.7779   -2.2769 H   0  0  0  0  0  0  0  0  0  0  0  0
  -57.3953  -20.4989    1.3011 H   0  0  0  0  0  0  0  0  0  0  0  0
  -58.2793  -19.7679   -3.3059 H   0  0  0  0  0  0  0  0  0  0  0  0
  -56.6853  -18.4929    0.2671 H   0  0  0  0  0  0  0  0  0  0  0  0
  -57.1233  -18.1219   -2.0409 H   0  0  0  0  0  0  0  0  0  0  0  0
  1  7  1  0
  1  8  1  0
  2  9  1  0
  3 14  1  0
  4 15  1  0
  5 10  2  0
  6  7  2  0
  6  9  1  0
  6 10  1  0
  7 13  1  0
  8 11  2  0
  8 12  1  0
  9 14  2  0
 10 11  1  0
 12 16  2  0
 12 17  1  0
 13 15  2  0
 14 15  1  0
 16 18  1  0
 17 19  2  0
 18 20  2  0
 19 20  1  0
  2 21  1  0
  3 22  1  0
  4 23  1  0
 11 24  1  0
 13 25  1  0
 16 26  1  0
 17 27  1  0
 18 28  1  0
 19 29  1  0
 20 30  1  0
M  END
>  <LF dG>
-6.512

>  <LF VSscore>
-8.335

>  <LF Rank Score>
-11.259

>  <LF LE>
-0.326

>  <LF Structure Name>
C:\Users\Odara\AppData\Local\Temp\LeadFinder_3136_1\Ligand_1.sdf

>  <LF SDF id>
0

>  <LF Pose rank>
0

>  <LF version>
2001 1, 19 January 2019

>  <PUBCHEM_COMPOUND_CID>
5281605

>  <PUBCHEM_COMPOUND_CANONICALIZED>
1

>  <PUBCHEM_CACTVS_COMPLEXITY>
413

>  <PUBCHEM_CACTVS_HBOND_ACCEPTOR>
5

>  <PUBCHEM_CACTVS_HBOND_DONOR>
3

>  <PUBCHEM_CACTVS_ROTATABLE_BOND>
1

>  <PUBCHEM_CACTVS_SUBSKEYS>
AAADccBwOAAAAAAAAAAAAAAAAAAAAAAAAAAwYIAAAAAAAACBQAAAGgAACAAADASAmAAwBoAABgCIAqBSAAACCAAkIAAIiAEGiMgNJzaGNRqCeWGl4BUJuQfK7LzOIQABCAAIQABCAAIQABCAAAAAAAAAAA==

>  <PUBCHEM_IUPAC_OPENEYE_NAME>
5,6,7-trihydroxy-2-phenyl-chromen-4-one

>  <PUBCHEM_IUPAC_CAS_NAME>
5,6,7-trihydroxy-2-phenyl-1-benzopyran-4-one

>  <PUBCHEM_IUPAC_NAME_MARKUP>
5,6,7-trihydroxy-2-phenylchromen-4-one

>  <PUBCHEM_IUPAC_NAME>
5,6,7-trihydroxy-2-phenylchromen-4-one

>  <PUBCHEM_IUPAC_SYSTEMATIC_NAME>
5,6,7-tris(oxidanyl)-2-phenyl-chromen-4-one

>  <PUBCHEM_IUPAC_TRADITIONAL_NAME>
5,6,7-trihydroxy-2-phenyl-chromone

>  <PUBCHEM_IUPAC_INCHI>
InChI=1S/C15H10O5/c16-9-6-11(8-4-2-1-3-5-8)20-12-7-10(17)14(18)15(19)13(9)12/h1-7,17-19H

>  <PUBCHEM_IUPAC_INCHIKEY>
FXNFHKRTJBSTCS-UHFFFAOYSA-N

>  <PUBCHEM_XLOGP3>
1.7

>  <PUBCHEM_EXACT_MASS>
270.052823

>  <PUBCHEM_MOLECULAR_FORMULA>
C15H10O5

>  <PUBCHEM_MOLECULAR_WEIGHT>
270.24

>  <PUBCHEM_OPENEYE_CAN_SMILES>
C1=CC=C(C=C1)C2=CC(=O)C3=C(O2)C=C(C(=C3O)O)O

>  <PUBCHEM_OPENEYE_ISO_SMILES>
C1=CC=C(C=C1)C2=CC(=O)C3=C(O2)C=C(C(=C3O)O)O

>  <PUBCHEM_CACTVS_TPSA>
87

>  <PUBCHEM_MONOISOTOPIC_WEIGHT>
270.052823

>  <PUBCHEM_TOTAL_CHARGE>
0

>  <PUBCHEM_HEAVY_ATOM_COUNT>
20

>  <PUBCHEM_ATOM_DEF_STEREO_COUNT>
0

>  <PUBCHEM_ATOM_UDEF_STEREO_COUNT>
0

>  <PUBCHEM_BOND_DEF_STEREO_COUNT>
0

>  <PUBCHEM_BOND_UDEF_STEREO_COUNT>
0

>  <PUBCHEM_ISOTOPIC_ATOM_COUNT>
0

>  <PUBCHEM_COMPONENT_COUNT>
1

>  <PUBCHEM_CACTVS_TAUTO_COUNT>
-1

>  <PUBCHEM_COORDINATE_TYPE>
1
5
255

>  <PUBCHEM_BONDANNOTATIONS>
1  7  8
1  8  8
10  11  8
12  16  8
12  17  8
13  15  8
14  15  8
16  18  8
17  19  8
18  20  8
19  20  8
6  10  8
6  7  8
6  9  8
7  13  8
8  11  8
9  14  8

>  <Preferred Pose_cresset>
true

>  <Favorite_cresset>
false

>  <MW_cresset>
270.2

>  <#Atoms_cresset>
20

>  <SlogP_cresset>
2.3

>  <TPSA_cresset>
87

>  <Flexibility_cresset>
1.7

>  <#RB_cresset>
4

>  <Rof5_cresset>
0

>  <Filename_cresset>
Baicalein with water site 2.sdf

>  <Confs_cresset>
0

>  <Poses_cresset>
10

>  <_cresset_fieldpoints>
    -5     -56.174305     -23.280273      -0.908855     -2.9582
    -5     -61.934090     -25.033836       3.545479    -23.0753
    -5     -57.326523     -29.597404       1.668642     -9.2899
    -5     -60.344536     -18.659489      -0.481216     -2.3153
    -5     -55.313599     -21.421692      -1.672368     -2.6470
    -6     -56.648010     -27.443989      -2.308249     10.8048
    -6     -59.888771     -23.670116      -2.425208      3.2981
    -6     -60.276886     -28.023735       5.375581      5.6455
    -6     -61.069008     -29.930302       0.301955      8.0520
    -6     -56.992558     -21.828772       2.814863      2.8212
    -6     -59.536011     -21.842648      -4.411123      3.0973
    -6     -56.321350     -19.045517       2.684540      2.9814
    -6     -57.606125     -17.798595      -4.435570      2.8032
    -6     -55.942249     -16.444584      -0.749496      2.7827
    -6     -56.409973     -16.351925      -2.783800      2.6785
    -7     -62.830315     -25.212021       2.241407     -1.6311
    -7     -60.169563     -24.794327       4.964467     -1.7392
    -7     -61.782143     -28.727474       3.051659     -1.5263
    -7     -60.865150     -23.633158      -1.383807     -2.5822
    -7     -58.222672     -30.603783       1.053949     -1.4265
    -7     -56.530495     -25.406422       3.324912     -1.8092
    -7     -61.103451     -26.228733      -1.170553     -1.8230
    -7     -59.188446     -28.153542      -2.316296     -1.2084
    -7     -54.975113     -27.964270      -0.315718     -1.2318
    -7     -55.869911     -23.405796      -1.172103     -2.4292
    -7     -60.892406     -19.448624       0.211771     -2.0374
    -7     -57.534500     -17.524437      -4.674277     -0.9675
    -7     -59.251671     -21.775383      -4.956654     -0.9898
    -7     -56.930439     -22.803268       2.701468     -2.5948
    -7     -59.643967     -19.425426       2.653141     -1.4881
    -7     -55.757896     -16.133430      -0.752919     -0.9671
    -8     -57.841003     -20.141996      -0.996179      7.1518
    -8     -58.746098     -26.096619       1.056173      6.5997
    -8     -59.269314     -23.764931       1.143219      5.0067

$$$$
W_Site2_Baicalin_D
  xed2sdf_05210316543D
 
 49 52  0  0  1  0  0  0  0  0999 V2000
  -61.0856  -23.6085    0.2484 O   0  0  0  0  0  0  0  0  0  0  0  0
  -61.8646  -23.2445   -2.0816 O   0  0  0  0  0  0  0  0  0  0  0  0
  -60.1626  -27.6365   -0.7006 O   0  0  0  0  0  0  0  0  0  0  0  0
  -61.6866  -26.0065   -2.5396 O   0  0  0  0  0  0  0  0  0  0  0  0
  -60.2236  -26.7555    2.0574 O   0  0  0  0  0  0  0  0  0  0  0  0
  -61.0856  -23.0985    3.2404 O   0  5  0  0  0  0  0  0  0  0  0  0
  -59.2116  -24.3635    2.9314 O   0  0  0  0  0  0  0  0  0  0  0  0
  -57.9756  -21.8015   -4.2556 O   0  0  0  0  0  0  0  0  0  0  0  0
  -62.0776  -20.8185   -0.7076 O   0  0  0  0  0  0  0  0  0  0  0  0
  -60.2086  -18.8895   -1.1496 O   0  0  0  0  0  0  0  0  0  0  0  0
  -58.0536  -18.2065   -2.3956 O   0  0  0  0  0  0  0  0  0  0  0  0
  -60.8956  -26.4755   -0.2786 C   0  0  0  0  0  0  0  0  0  0  0  0
  -60.9716  -25.4505   -1.4256 C   0  0  0  0  0  0  0  0  0  0  0  0
  -60.2276  -25.8365    0.9544 C   0  0  0  0  0  0  0  0  0  0  0  0
  -61.6656  -24.1475   -0.9666 C   0  0  0  0  0  0  0  0  0  0  0  0
  -60.9746  -24.5475    1.3474 C   0  0  0  0  0  0  0  0  0  0  0  0
  -60.3806  -23.9565    2.6034 C   0  0  0  0  0  0  0  0  0  0  0  0
  -60.9646  -22.2745   -2.2556 C   0  0  0  0  0  0  0  0  0  0  0  0
  -59.9156  -22.4925   -3.1226 C   0  0  0  0  0  0  0  0  0  0  0  0
  -61.0576  -21.0535   -1.5876 C   0  0  0  0  0  0  0  0  0  0  0  0
  -58.9646  -21.5195   -3.3656 C   0  0  0  0  0  0  0  0  0  0  0  0
  -59.0636  -20.2995   -2.6976 C   0  0  0  0  0  0  0  0  0  0  0  0
  -60.1166  -20.0775   -1.8046 C   0  0  0  0  0  0  0  0  0  0  0  0
  -58.0546  -19.2965   -2.9676 C   0  0  0  0  0  0  0  0  0  0  0  0
  -57.0576  -20.8195   -4.5396 C   0  0  0  0  0  0  0  0  0  0  0  0
  -57.0556  -19.5985   -3.9286 C   0  0  0  0  0  0  0  0  0  0  0  0
  -56.0456  -21.1615   -5.5726 C   0  0  0  0  0  0  0  0  0  0  0  0
  -55.1146  -20.1955   -5.9226 C   0  0  0  0  0  0  0  0  0  0  0  0
  -55.9816  -22.3975   -6.2016 C   0  0  0  0  0  0  0  0  0  0  0  0
  -54.1506  -20.4505   -6.8666 C   0  0  0  0  0  0  0  0  0  0  0  0
  -55.0176  -22.6525   -7.1466 C   0  0  0  0  0  0  0  0  0  0  0  0
  -54.0996  -21.6815   -7.4806 C   0  0  0  0  0  0  0  0  0  0  0  0
  -61.8226  -26.7575   -0.0306 H   0  0  0  0  0  0  0  0  0  0  0  0
  -60.0366  -25.2305   -1.7036 H   0  0  0  0  0  0  0  0  0  0  0  0
  -59.2806  -25.6115    0.7224 H   0  0  0  0  0  0  0  0  0  0  0  0
  -62.5986  -24.3465   -0.6666 H   0  0  0  0  0  0  0  0  0  0  0  0
  -61.9216  -24.7865    1.5614 H   0  0  0  0  0  0  0  0  0  0  0  0
  -60.4296  -28.4505   -0.1726 H   0  0  0  0  0  0  0  0  0  0  0  0
  -61.0606  -26.4525   -3.1886 H   0  0  0  0  0  0  0  0  0  0  0  0
  -60.3876  -27.6985    1.7504 H   0  0  0  0  0  0  0  0  0  0  0  0
  -62.9486  -21.1785   -1.0526 H   0  0  0  0  0  0  0  0  0  0  0  0
  -60.6376  -18.1845   -1.7256 H   0  0  0  0  0  0  0  0  0  0  0  0
  -59.8396  -23.3755   -3.5856 H   0  0  0  0  0  0  0  0  0  0  0  0
  -56.3546  -18.9225   -4.1556 H   0  0  0  0  0  0  0  0  0  0  0  0
  -55.1456  -19.2985   -5.4816 H   0  0  0  0  0  0  0  0  0  0  0  0
  -56.6436  -23.1075   -5.9656 H   0  0  0  0  0  0  0  0  0  0  0  0
  -53.4856  -19.7435   -7.1076 H   0  0  0  0  0  0  0  0  0  0  0  0
  -54.9816  -23.5465   -7.5926 H   0  0  0  0  0  0  0  0  0  0  0  0
  -53.3986  -21.8705   -8.1686 H   0  0  0  0  0  0  0  0  0  0  0  0
  1 15  1  0
  1 16  1  0
  2 18  1  0
  6 17  1  0
  7 17  2  0
  8 21  1  0
  8 25  1  0
  9 20  1  0
 10 23  1  0
 11 24  2  0
 12  3  1  0
 12 13  1  0
 12 14  1  0
 13  4  1  0
 13 15  1  0
 14  5  1  0
 14 16  1  0
 15  2  1  0
 16 17  1  0
 18 19  2  0
 18 20  1  0
 19 21  1  0
 20 23  2  0
 21 22  2  0
 22 23  1  0
 22 24  1  0
 24 26  1  0
 25 26  2  0
 25 27  1  0
 27 28  2  0
 27 29  1  0
 28 30  1  0
 29 31  2  0
 30 32  2  0
 31 32  1  0
  3 38  1  0
  4 39  1  0
  5 40  1  0
  9 41  1  0
 10 42  1  0
 12 33  1  0
 13 34  1  0
 14 35  1  0
 15 36  1  0
 16 37  1  0
 19 43  1  0
 26 44  1  0
 28 45  1  0
 29 46  1  0
 30 47  1  0
 31 48  1  0
 32 49  1  0
M  CHG  1   6  -1
M  END
>  <LF dG>
-8.66

>  <LF VSscore>
-12.398

>  <LF Rank Score>
-12.806

>  <LF LE>
-0.271

>  <LF Structure Name>
C:\Users\Odara\AppData\Local\Temp\LeadFinder_12944_1\Ligand_1.sdf

>  <LF SDF id>
0

>  <LF Pose rank>
0

>  <LF version>
2001 1, 19 January 2019

>  <PUBCHEM_COMPOUND_CID>
64982

>  <PUBCHEM_COMPOUND_CANONICALIZED>
1

>  <PUBCHEM_CACTVS_COMPLEXITY>
748

>  <PUBCHEM_CACTVS_HBOND_ACCEPTOR>
11

>  <PUBCHEM_CACTVS_HBOND_DONOR>
6

>  <PUBCHEM_CACTVS_ROTATABLE_BOND>
4

>  <PUBCHEM_CACTVS_SUBSKEYS>
AAADceB4PAAAAAAAAAAAAAAAAAAAAAAAAAA0YIEAAAAAAACBQAAAGgAACAAADBSwmAMwDoAABgCIAqDSCAICCAAkIAAIiAFGiMgdNzaGNR6ieWOl4BUPuQfK7LzOIQABCAAIQABCAAIQABCAAAAAAAAAAA==

>  <PUBCHEM_IUPAC_OPENEYE_NAME>
(2S,3S,4S,5R,6S)-6-(5,6-dihydroxy-4-oxo-2-phenyl-chromen-7-yl)oxy-3,4,5-trihydroxy-tetrahydropyran-2-carboxylic acid

>  <PUBCHEM_IUPAC_CAS_NAME>
(2S,3S,4S,5R,6S)-6-[(5,6-dihydroxy-4-oxo-2-phenyl-1-benzopyran-7-yl)oxy]-3,4,5-trihydroxy-2-oxanecarboxylic acid

>  <PUBCHEM_IUPAC_NAME_MARKUP>
(2<I>S</I>,3<I>S</I>,4<I>S</I>,5<I>R</I>,6<I>S</I>)-6-(5,6-dihydroxy-4-oxo-2-phenylchromen-7-yl)oxy-3,4,5-trihydroxyoxane-2-carboxylic acid

>  <PUBCHEM_IUPAC_NAME>
(2S,3S,4S,5R,6S)-6-(5,6-dihydroxy-4-oxo-2-phenylchromen-7-yl)oxy-3,4,5-trihydroxyoxane-2-carboxylic acid

>  <PUBCHEM_IUPAC_SYSTEMATIC_NAME>
(2S,3S,4S,5R,6S)-6-[5,6-bis(oxidanyl)-4-oxidanylidene-2-phenyl-chromen-7-yl]oxy-3,4,5-tris(oxidanyl)oxane-2-carboxylic acid

>  <PUBCHEM_IUPAC_TRADITIONAL_NAME>
(2S,3S,4S,5R,6S)-6-(5,6-dihydroxy-4-keto-2-phenyl-chromen-7-yl)oxy-3,4,5-trihydroxy-tetrahydropyran-2-carboxylic acid

>  <PUBCHEM_IUPAC_INCHI>
InChI=1S/C21H18O11/c22-9-6-10(8-4-2-1-3-5-8)30-11-7-12(14(23)15(24)13(9)11)31-21-18(27)16(25)17(26)19(32-21)20(28)29/h1-7,16-19,21,23-27H,(H,28,29)/t16-,17-,18+,19-,21+/m0/s1

>  <PUBCHEM_IUPAC_INCHIKEY>
IKIIZLYTISPENI-ZFORQUDYSA-N

>  <PUBCHEM_XLOGP3_AA>
1.1

>  <PUBCHEM_EXACT_MASS>
446.084911

>  <PUBCHEM_MOLECULAR_FORMULA>
C21H18O11

>  <PUBCHEM_MOLECULAR_WEIGHT>
446.4

>  <PUBCHEM_OPENEYE_CAN_SMILES>
C1=CC=C(C=C1)C2=CC(=O)C3=C(C(=C(C=C3O2)OC4C(C(C(C(O4)C(=O)O)O)O)O)O)O

>  <PUBCHEM_OPENEYE_ISO_SMILES>
C1=CC=C(C=C1)C2=CC(=O)C3=C(C(=C(C=C3O2)O[C@H]4[C@@H]([C@H]([C@@H]([C@H](O4)C(=O)O)O)O)O)O)O

>  <PUBCHEM_CACTVS_TPSA>
183

>  <PUBCHEM_MONOISOTOPIC_WEIGHT>
446.084911

>  <PUBCHEM_TOTAL_CHARGE>
0

>  <PUBCHEM_HEAVY_ATOM_COUNT>
32

>  <PUBCHEM_ATOM_DEF_STEREO_COUNT>
5

>  <PUBCHEM_ATOM_UDEF_STEREO_COUNT>
0

>  <PUBCHEM_BOND_DEF_STEREO_COUNT>
0

>  <PUBCHEM_BOND_UDEF_STEREO_COUNT>
0

>  <PUBCHEM_ISOTOPIC_ATOM_COUNT>
0

>  <PUBCHEM_COMPONENT_COUNT>
1

>  <PUBCHEM_CACTVS_TAUTO_COUNT>
-1

>  <PUBCHEM_COORDINATE_TYPE>
1
5
255

>  <PUBCHEM_BONDANNOTATIONS>
16  17  5
18  19  8
18  20  8
19  21  8
15  2  5
20  23  8
21  22  8
22  23  8
22  24  8
24  26  8
25  26  8
27  28  8
27  29  8
28  30  8
29  31  8
12  3  5
30  32  8
31  32  8
13  4  6
14  5  6
8  21  8
8  25  8

>  <Preferred Pose_cresset>
true

>  <Favorite_cresset>
false

>  <MW_cresset>
445.4

>  <#Atoms_cresset>
32

>  <SlogP_cresset>
1.1

>  <TPSA_cresset>
186

>  <Flexibility_cresset>
7.6

>  <#RB_cresset>
9

>  <Rof5_cresset>
1

>  <Filename_cresset>
docking analysis at site 2 with water without other.sdf

>  <Confs_cresset>
0

>  <Poses_cresset>
10

>  <_cresset_fieldpoints>
    -5     -58.598328     -18.032181      -0.569037    -21.7321
    -5     -63.127739     -24.998688      -3.294434    -12.0662
    -5     -58.420082     -27.600033      -1.493278     -8.3871
    -5     -58.902611     -26.210491       3.331662    -15.9536
    -5     -58.865349     -23.425249       4.494230    -12.7572
    -5     -59.922150     -22.655930       4.653366    -12.5871
    -5     -61.271439     -19.451315       0.526718    -14.1122
    -5     -61.440010     -21.691776       0.918714    -15.3297
    -5     -56.784950     -20.510223      -8.722910     -2.5355
    -5     -59.131950     -21.349987      -6.595083     -1.1594
    -5     -53.221809     -22.444729      -4.496476     -2.6610
    -6     -64.688927     -21.638971      -1.521512      7.2787
    -6     -61.396057     -29.164700       1.155693     17.5199
    -6     -63.660027     -25.881714       0.811226      5.7468
    -6     -61.974377     -17.584309      -2.957728      6.1541
    -6     -59.305969     -19.786671      -6.018362      1.6185
    -6     -51.791264     -20.127739      -8.748747      2.7311
    -6     -53.383324     -24.109335      -9.230722      2.7499
    -6     -59.571533     -25.601643      -4.039371      9.7462
    -6     -54.796326     -17.426722      -4.987354      3.6625
    -7     -58.531517     -23.085535      -0.105978     -3.6363
    -7     -62.028786     -24.695656      -4.496525     -2.2729
    -7     -62.630470     -27.243965       2.567190     -1.8102
    -7     -61.589012     -28.610252      -2.509039     -1.5868
    -7     -64.126419     -25.897682       0.743493     -1.8055
    -7     -58.324722     -28.391376       0.823094     -1.6114
    -7     -58.899296     -27.487530      -2.781187     -1.5562
    -7     -58.991951     -25.584911      -4.075516     -1.9064
    -7     -64.028580     -26.424698      -1.699936     -1.6879
    -7     -61.601429     -20.013035      -4.984525     -1.8642
    -7     -57.824196     -26.639277      -1.347138     -1.7028
    -7     -59.690254     -26.356606       4.295692     -1.5574
    -7     -63.081398     -24.454964       3.936997     -1.1912
    -7     -59.038174     -22.620747       4.827190     -0.8467
    -7     -62.608147     -21.893799       1.314865     -2.6969
    -7     -62.567955     -18.393576      -0.253425     -1.4639
    -7     -64.497688     -22.631847      -1.799107     -1.7349
    -7     -60.107033     -17.314407      -3.863365     -1.7913
    -7     -58.000458     -18.473015       0.123055     -1.6529
    -7     -55.911320     -21.842171      -2.067997     -2.3974
    -7     -53.252129     -22.429213      -4.033121     -1.7861
    -7     -51.510117     -20.056419      -8.964687     -0.9670
    -7     -59.197441     -19.669184      -6.165784     -2.4377
    -7     -56.386261     -23.426004      -2.989180     -2.3877
    -7     -53.186760     -24.224590      -9.537987     -0.9677
    -7     -52.851738     -19.673548      -9.903207     -0.9560
    -7     -57.231812     -20.285831      -8.674505     -1.7862
    -8     -59.983353     -21.290131      -2.494763      6.6034
    -8     -60.993404     -25.418789      -0.048336      5.1260
    -8     -55.067802     -21.421333      -6.529518      7.1520
    -8     -58.064686     -20.251648      -3.475955      5.0274
    -8     -56.143242     -20.176933      -5.007798      5.5751

$$$$
Site2_Baicalin_D
  xed2sdf_05210316543D
 
 49 52  0  0  1  0  0  0  0  0999 V2000
  -57.7953  -19.6511   -0.8030 O   0  0  0  0  0  0  0  0  0  0  0  0
  -59.5363  -20.4911   -2.3620 O   0  0  0  0  0  0  0  0  0  0  0  0
  -59.3303  -22.1611    2.2490 O   0  0  0  0  0  0  0  0  0  0  0  0
  -60.8013  -21.7701   -0.2080 O   0  0  0  0  0  0  0  0  0  0  0  0
  -57.4303  -20.0721    2.8860 O   0  0  0  0  0  0  0  0  0  0  0  0
  -55.0913  -19.5071    0.5000 O   0  5  0  0  0  0  0  0  0  0  0  0
  -56.0153  -17.5201    1.1380 O   0  0  0  0  0  0  0  0  0  0  0  0
  -56.7003  -21.7681   -5.8640 O   0  0  0  0  0  0  0  0  0  0  0  0
  -59.0863  -17.7841   -2.8960 O   0  0  0  0  0  0  0  0  0  0  0  0
  -57.4313  -17.1051   -4.9480 O   0  0  0  0  0  0  0  0  0  0  0  0
  -55.8823  -17.9251   -6.8420 O   0  0  0  0  0  0  0  0  0  0  0  0
  -59.1333  -21.0161    1.4060 C   0  0  0  0  0  0  0  0  0  0  0  0
  -59.4283  -21.3811   -0.0620 C   0  0  0  0  0  0  0  0  0  0  0  0
  -57.6913  -20.4921    1.5390 C   0  0  0  0  0  0  0  0  0  0  0  0
  -59.1233  -20.1941   -1.0050 C   0  0  0  0  0  0  0  0  0  0  0  0
  -57.4683  -19.3141    0.5690 C   0  0  0  0  0  0  0  0  0  0  0  0
  -56.0843  -18.7391    0.7480 C   0  0  0  0  0  0  0  0  0  0  0  0
  -58.7223  -20.1111   -3.3490 C   0  0  0  0  0  0  0  0  0  0  0  0
  -58.0943  -21.0801   -4.1010 C   0  0  0  0  0  0  0  0  0  0  0  0
  -58.4923  -18.7661   -3.6380 C   0  0  0  0  0  0  0  0  0  0  0  0
  -57.2603  -20.7531   -5.1520 C   0  0  0  0  0  0  0  0  0  0  0  0
  -57.0353  -19.4071   -5.4390 C   0  0  0  0  0  0  0  0  0  0  0  0
  -57.6563  -18.4171   -4.6700 C   0  0  0  0  0  0  0  0  0  0  0  0
  -56.1553  -19.0881   -6.5450 C   0  0  0  0  0  0  0  0  0  0  0  0
  -55.9113  -21.4481   -6.9420 C   0  0  0  0  0  0  0  0  0  0  0  0
  -55.6143  -20.1631   -7.2960 C   0  0  0  0  0  0  0  0  0  0  0  0
  -55.3873  -22.5981   -7.7230 C   0  0  0  0  0  0  0  0  0  0  0  0
  -54.5673  -22.3341   -8.8090 C   0  0  0  0  0  0  0  0  0  0  0  0
  -55.6733  -23.9231   -7.4190 C   0  0  0  0  0  0  0  0  0  0  0  0
  -54.0473  -23.3541   -9.5680 C   0  0  0  0  0  0  0  0  0  0  0  0
  -55.1533  -24.9421   -8.1790 C   0  0  0  0  0  0  0  0  0  0  0  0
  -54.3393  -24.6621   -9.2540 C   0  0  0  0  0  0  0  0  0  0  0  0
  -59.7643  -20.2951    1.6960 H   0  0  0  0  0  0  0  0  0  0  0  0
  -58.8343  -22.1451   -0.3130 H   0  0  0  0  0  0  0  0  0  0  0  0
  -57.0603  -21.2321    1.3080 H   0  0  0  0  0  0  0  0  0  0  0  0
  -59.6943  -19.4121   -0.7600 H   0  0  0  0  0  0  0  0  0  0  0  0
  -58.1153  -18.5881    0.8020 H   0  0  0  0  0  0  0  0  0  0  0  0
  -58.5743  -22.2681    2.9040 H   0  0  0  0  0  0  0  0  0  0  0  0
  -60.9923  -22.0951   -1.1420 H   0  0  0  0  0  0  0  0  0  0  0  0
  -57.6573  -19.0991    3.0180 H   0  0  0  0  0  0  0  0  0  0  0  0
  -59.2153  -16.9451   -3.4330 H   0  0  0  0  0  0  0  0  0  0  0  0
  -58.0993  -16.5111   -4.4850 H   0  0  0  0  0  0  0  0  0  0  0  0
  -58.2463  -22.0441   -3.8800 H   0  0  0  0  0  0  0  0  0  0  0  0
  -55.0203  -19.9811   -8.0790 H   0  0  0  0  0  0  0  0  0  0  0  0
  -54.3513  -21.3871   -9.0440 H   0  0  0  0  0  0  0  0  0  0  0  0
  -56.2633  -24.1361   -6.6410 H   0  0  0  0  0  0  0  0  0  0  0  0
  -53.4573  -23.1471  -10.3480 H   0  0  0  0  0  0  0  0  0  0  0  0
  -55.3663  -25.8921   -7.9510 H   0  0  0  0  0  0  0  0  0  0  0  0
  -53.9613  -25.4071   -9.8040 H   0  0  0  0  0  0  0  0  0  0  0  0
  1 15  1  0
  1 16  1  0
  2 18  1  0
  6 17  1  0
  7 17  2  0
  8 21  1  0
  8 25  1  0
  9 20  1  0
 10 23  1  0
 11 24  2  0
 12  3  1  0
 12 13  1  0
 12 14  1  0
 13  4  1  0
 13 15  1  0
 14  5  1  0
 14 16  1  0
 15  2  1  0
 16 17  1  0
 18 19  2  0
 18 20  1  0
 19 21  1  0
 20 23  2  0
 21 22  2  0
 22 23  1  0
 22 24  1  0
 24 26  1  0
 25 26  2  0
 25 27  1  0
 27 28  2  0
 27 29  1  0
 28 30  1  0
 29 31  2  0
 30 32  2  0
 31 32  1  0
  3 38  1  0
  4 39  1  0
  5 40  1  0
  9 41  1  0
 10 42  1  0
 12 33  1  0
 13 34  1  0
 14 35  1  0
 15 36  1  0
 16 37  1  0
 19 43  1  0
 26 44  1  0
 28 45  1  0
 29 46  1  0
 30 47  1  0
 31 48  1  0
 32 49  1  0
M  CHG  1   6  -1
M  END
>  <LF dG>
-8.227

>  <LF VSscore>
-11.736

>  <LF Rank Score>
-11.958

>  <LF LE>
-0.257

>  <LF Structure Name>
C:\Users\Odara\AppData\Local\Temp\LeadFinder_1164_1\Ligand_1.sdf

>  <LF SDF id>
0

>  <LF Pose rank>
0

>  <LF version>
2001 1, 19 January 2019

>  <PUBCHEM_COMPOUND_CID>
64982

>  <PUBCHEM_COMPOUND_CANONICALIZED>
1

>  <PUBCHEM_CACTVS_COMPLEXITY>
748

>  <PUBCHEM_CACTVS_HBOND_ACCEPTOR>
11

>  <PUBCHEM_CACTVS_HBOND_DONOR>
6

>  <PUBCHEM_CACTVS_ROTATABLE_BOND>
4

>  <PUBCHEM_CACTVS_SUBSKEYS>
AAADceB4PAAAAAAAAAAAAAAAAAAAAAAAAAA0YIEAAAAAAACBQAAAGgAACAAADBSwmAMwDoAABgCIAqDSCAICCAAkIAAIiAFGiMgdNzaGNR6ieWOl4BUPuQfK7LzOIQABCAAIQABCAAIQABCAAAAAAAAAAA==

>  <PUBCHEM_IUPAC_OPENEYE_NAME>
(2S,3S,4S,5R,6S)-6-(5,6-dihydroxy-4-oxo-2-phenyl-chromen-7-yl)oxy-3,4,5-trihydroxy-tetrahydropyran-2-carboxylic acid

>  <PUBCHEM_IUPAC_CAS_NAME>
(2S,3S,4S,5R,6S)-6-[(5,6-dihydroxy-4-oxo-2-phenyl-1-benzopyran-7-yl)oxy]-3,4,5-trihydroxy-2-oxanecarboxylic acid

>  <PUBCHEM_IUPAC_NAME_MARKUP>
(2<I>S</I>,3<I>S</I>,4<I>S</I>,5<I>R</I>,6<I>S</I>)-6-(5,6-dihydroxy-4-oxo-2-phenylchromen-7-yl)oxy-3,4,5-trihydroxyoxane-2-carboxylic acid

>  <PUBCHEM_IUPAC_NAME>
(2S,3S,4S,5R,6S)-6-(5,6-dihydroxy-4-oxo-2-phenylchromen-7-yl)oxy-3,4,5-trihydroxyoxane-2-carboxylic acid

>  <PUBCHEM_IUPAC_SYSTEMATIC_NAME>
(2S,3S,4S,5R,6S)-6-[5,6-bis(oxidanyl)-4-oxidanylidene-2-phenyl-chromen-7-yl]oxy-3,4,5-tris(oxidanyl)oxane-2-carboxylic acid

>  <PUBCHEM_IUPAC_TRADITIONAL_NAME>
(2S,3S,4S,5R,6S)-6-(5,6-dihydroxy-4-keto-2-phenyl-chromen-7-yl)oxy-3,4,5-trihydroxy-tetrahydropyran-2-carboxylic acid

>  <PUBCHEM_IUPAC_INCHI>
InChI=1S/C21H18O11/c22-9-6-10(8-4-2-1-3-5-8)30-11-7-12(14(23)15(24)13(9)11)31-21-18(27)16(25)17(26)19(32-21)20(28)29/h1-7,16-19,21,23-27H,(H,28,29)/t16-,17-,18+,19-,21+/m0/s1

>  <PUBCHEM_IUPAC_INCHIKEY>
IKIIZLYTISPENI-ZFORQUDYSA-N

>  <PUBCHEM_XLOGP3_AA>
1.1

>  <PUBCHEM_EXACT_MASS>
446.084911

>  <PUBCHEM_MOLECULAR_FORMULA>
C21H18O11

>  <PUBCHEM_MOLECULAR_WEIGHT>
446.4

>  <PUBCHEM_OPENEYE_CAN_SMILES>
C1=CC=C(C=C1)C2=CC(=O)C3=C(C(=C(C=C3O2)OC4C(C(C(C(O4)C(=O)O)O)O)O)O)O

>  <PUBCHEM_OPENEYE_ISO_SMILES>
C1=CC=C(C=C1)C2=CC(=O)C3=C(C(=C(C=C3O2)O[C@H]4[C@@H]([C@H]([C@@H]([C@H](O4)C(=O)O)O)O)O)O)O

>  <PUBCHEM_CACTVS_TPSA>
183

>  <PUBCHEM_MONOISOTOPIC_WEIGHT>
446.084911

>  <PUBCHEM_TOTAL_CHARGE>
0

>  <PUBCHEM_HEAVY_ATOM_COUNT>
32

>  <PUBCHEM_ATOM_DEF_STEREO_COUNT>
5

>  <PUBCHEM_ATOM_UDEF_STEREO_COUNT>
0

>  <PUBCHEM_BOND_DEF_STEREO_COUNT>
0

>  <PUBCHEM_BOND_UDEF_STEREO_COUNT>
0

>  <PUBCHEM_ISOTOPIC_ATOM_COUNT>
0

>  <PUBCHEM_COMPONENT_COUNT>
1

>  <PUBCHEM_CACTVS_TAUTO_COUNT>
-1

>  <PUBCHEM_COORDINATE_TYPE>
1
5
255

>  <PUBCHEM_BONDANNOTATIONS>
16  17  5
18  19  8
18  20  8
19  21  8
15  2  5
20  23  8
21  22  8
22  23  8
22  24  8
24  26  8
25  26  8
27  28  8
27  29  8
28  30  8
29  31  8
12  3  5
30  32  8
31  32  8
13  4  6
14  5  6
8  21  8
8  25  8

>  <Preferred Pose_cresset>
true

>  <Favorite_cresset>
false

>  <MW_cresset>
445.4

>  <#Atoms_cresset>
32

>  <SlogP_cresset>
1.1

>  <TPSA_cresset>
186

>  <Flexibility_cresset>
7.6

>  <#RB_cresset>
9

>  <Rof5_cresset>
1

>  <Filename_cresset>
docking analysis at site 2 without water without other.sdf

>  <Confs_cresset>
0

>  <Poses_cresset>
10

>  <_cresset_fieldpoints>
    -5     -60.902611     -18.195324      -2.398502     -3.8723
    -5     -60.987183     -22.699404       1.456191    -20.3196
    -5     -55.865875     -20.722424       3.778386     -9.7006
    -5     -54.112534     -17.307289       1.153752    -10.9135
    -5     -53.587395     -18.448000       0.806506    -11.3307
    -5     -55.467354     -20.742855      -0.912839     -8.8897
    -5     -56.150101     -19.960400      -1.732328     -9.3494
    -5     -56.030022     -16.290527      -5.966393    -22.4640
    -5     -57.182163     -23.640938     -10.272217     -2.6264
    -5     -57.725483     -17.556343      -1.516993     -6.2440
    -5     -52.512905     -23.823338      -6.749675     -2.7662
    -6     -59.506783     -15.331703      -4.139593     16.0626
    -6     -57.080605     -23.380932       3.349422      5.3189
    -6     -59.175896     -18.017673       2.591519     11.0407
    -6     -58.557663     -21.220459      -8.040119      1.1782
    -6     -56.837776     -23.076736      -0.244188      2.3356
    -6     -53.662399     -19.794151      -9.969694      3.5179
    -6     -54.492718     -27.707756      -9.261953      2.6897
    -6     -52.526573     -24.882854     -11.704445      2.6981
    -6     -57.710464     -24.167086      -4.835158      3.4516
    -6     -60.183754     -23.224924      -2.459387      8.0299
    -7     -62.217266     -20.242878      -1.786741     -1.9297
    -7     -59.827469     -23.443035      -2.532141     -2.1379
    -7     -57.653099     -23.904518       1.420299     -1.7314
    -7     -61.175373     -23.624947       1.430933     -1.4135
    -7     -59.055775     -20.603268       4.579842     -1.5832
    -7     -54.516193     -22.362835      -4.456580     -2.3428
    -7     -55.949528     -21.085506      -1.538509     -3.3198
    -7     -62.183495     -19.750805       0.219989     -1.7361
    -7     -56.742058     -21.957230       4.234269     -1.2705
    -7     -60.588390     -17.901306       1.125426     -1.8649
    -7     -55.670475     -20.215065      -1.931774     -3.3335
    -7     -59.629791     -17.930923       2.794523     -1.7275
    -7     -55.340687     -19.116344       3.556546     -1.5678
    -7     -57.607819     -16.764751      -1.268702     -2.4819
    -7     -57.704433     -16.863747       2.771952     -1.5620
    -7     -58.453072     -20.933353      -8.288530     -2.4353
    -7     -60.207836     -16.507595      -5.531908     -1.4152
    -7     -61.455357     -18.193716      -2.285989     -1.9646
    -7     -60.237694     -19.821667      -6.600001     -1.8568
    -7     -54.881439     -16.685656      -4.854465     -1.6570
    -7     -57.973270     -16.553818      -7.334053     -1.7018
    -7     -57.002151     -26.458714      -5.682480     -1.0125
    -7     -57.544174     -23.314438     -10.294042     -1.7873
    -7     -53.941338     -21.056614      -4.831400     -2.3883
    -7     -52.348801     -25.036411     -11.982325     -0.9668
    -7     -52.350250     -23.549500      -6.431495     -1.7846
    -7     -54.442528     -28.058418      -9.330996     -0.9677
    -8     -58.639656     -20.467709       0.611897      5.1232
    -8     -57.861233     -19.779917      -4.416008      6.5992
    -8     -54.860054     -23.631447      -8.490219      7.1515
    -8     -55.200012     -21.492908      -7.920135      5.5759
    -8     -56.404083     -20.109562      -6.284248      5.0247

$$$$
Site2_Wogonin_D
  xed2sdf_05210316543D
 
 33 35  0  0  0  0  0  0  0  0999 V2000
  -61.2291  -22.6930    0.0074 O   0  0  0  0  0  0  0  0  0  0  0  0
  -60.7035  -23.0973    2.6211 O   0  0  0  0  0  0  0  0  0  0  0  0
  -60.9754  -27.4811   -0.6580 O   0  0  0  0  0  0  0  0  0  0  0  0
  -60.3120  -25.6129    3.6159 O   0  0  0  0  0  0  0  0  0  0  0  0
  -61.4809  -25.7162   -2.6583 O   0  0  0  0  0  0  0  0  0  0  0  0
  -61.1221  -25.0846   -0.4064 C   0  0  0  0  0  0  0  0  0  0  0  0
  -61.0538  -23.9730    0.4411 C   0  0  0  0  0  0  0  0  0  0  0  0
  -61.5268  -22.4815   -1.3147 C   0  0  0  0  0  0  0  0  0  0  0  0
  -60.7879  -24.1567    1.7921 C   0  0  0  0  0  0  0  0  0  0  0  0
  -61.4063  -24.8300   -1.8081 C   0  0  0  0  0  0  0  0  0  0  0  0
  -60.9175  -26.3699    0.1232 C   0  0  0  0  0  0  0  0  0  0  0  0
  -61.6157  -23.4917   -2.2259 C   0  0  0  0  0  0  0  0  0  0  0  0
  -61.7539  -21.0691   -1.7177 C   0  0  0  0  0  0  0  0  0  0  0  0
  -60.5818  -25.4266    2.2959 C   0  0  0  0  0  0  0  0  0  0  0  0
  -60.6513  -26.5263    1.4574 C   0  0  0  0  0  0  0  0  0  0  0  0
  -62.1193  -20.8063   -3.0297 C   0  0  0  0  0  0  0  0  0  0  0  0
  -61.6166  -19.9979   -0.8451 C   0  0  0  0  0  0  0  0  0  0  0  0
  -62.3392  -19.5203   -3.4579 C   0  0  0  0  0  0  0  0  0  0  0  0
  -61.8370  -18.7116   -1.2741 C   0  0  0  0  0  0  0  0  0  0  0  0
  -62.1983  -18.4697   -2.5801 C   0  0  0  0  0  0  0  0  0  0  0  0
  -59.4283  -22.4312    2.7197 C   0  0  0  0  0  0  0  0  0  0  0  0
  -60.9799  -28.3257   -0.1178 H   0  0  0  0  0  0  0  0  0  0  0  0
  -59.9564  -26.5352    3.7995 H   0  0  0  0  0  0  0  0  0  0  0  0
  -61.8273  -23.2901   -3.1821 H   0  0  0  0  0  0  0  0  0  0  0  0
  -60.5055  -27.4429    1.8294 H   0  0  0  0  0  0  0  0  0  0  0  0
  -62.2243  -21.5647   -3.6731 H   0  0  0  0  0  0  0  0  0  0  0  0
  -61.3546  -20.1645    0.1055 H   0  0  0  0  0  0  0  0  0  0  0  0
  -62.6017  -19.3472   -4.4072 H   0  0  0  0  0  0  0  0  0  0  0  0
  -61.7345  -17.9488   -0.6357 H   0  0  0  0  0  0  0  0  0  0  0  0
  -62.3578  -17.5326   -2.8906 H   0  0  0  0  0  0  0  0  0  0  0  0
  -58.7734  -22.8914    2.1204 H   0  0  0  0  0  0  0  0  0  0  0  0
  -59.5244  -21.4750    2.4427 H   0  0  0  0  0  0  0  0  0  0  0  0
  -59.1031  -22.4650    3.6647 H   0  0  0  0  0  0  0  0  0  0  0  0
  1  7  1  0
  1  8  1  0
  2  9  1  0
  2 21  1  0
  3 11  1  0
  4 14  1  0
  5 10  2  0
  6  7  2  0
  6 10  1  0
  6 11  1  0
  7  9  1  0
  8 12  2  0
  8 13  1  0
  9 14  2  0
 10 12  1  0
 11 15  2  0
 13 16  2  0
 13 17  1  0
 14 15  1  0
 16 18  1  0
 17 19  2  0
 18 20  2  0
 19 20  1  0
  3 22  1  0
  4 23  1  0
 12 24  1  0
 15 25  1  0
 16 26  1  0
 17 27  1  0
 18 28  1  0
 19 29  1  0
 20 30  1  0
 21 31  1  0
 21 32  1  0
 21 33  1  0
M  END
>  <LF dG>
-6.577

>  <LF VSscore>
-8.35

>  <LF Rank Score>
-10.651

>  <LF LE>
-0.313

>  <LF Structure Name>
C:\Users\Odara\AppData\Local\Temp\LeadFinder_4652_1\Ligand_1.sdf

>  <LF SDF id>
0

>  <LF Pose rank>
0

>  <LF version>
2001 1, 19 January 2019

>  <PUBCHEM_COMPOUND_CID>
5281703

>  <PUBCHEM_COMPOUND_CANONICALIZED>
1

>  <PUBCHEM_CACTVS_COMPLEXITY>
426

>  <PUBCHEM_CACTVS_HBOND_ACCEPTOR>
5

>  <PUBCHEM_CACTVS_HBOND_DONOR>
2

>  <PUBCHEM_CACTVS_ROTATABLE_BOND>
2

>  <PUBCHEM_CACTVS_SUBSKEYS>
AAADccB4OAAAAAAAAAAAAAAAAAAAAAAAAAAwYIAAAAAAAACBQAAAGgAACAAADASAmAIyBoAABgCIAqBSAAACCAAkIAAIiAEGiMgNJzaGNRqCeWOl4BULuQfK7LzOIQABCAAIQABCAAIQABCAAAAAAAAAAA==

>  <PUBCHEM_IUPAC_OPENEYE_NAME>
5,7-dihydroxy-8-methoxy-2-phenyl-chromen-4-one

>  <PUBCHEM_IUPAC_CAS_NAME>
5,7-dihydroxy-8-methoxy-2-phenyl-1-benzopyran-4-one

>  <PUBCHEM_IUPAC_NAME_MARKUP>
5,7-dihydroxy-8-methoxy-2-phenylchromen-4-one

>  <PUBCHEM_IUPAC_NAME>
5,7-dihydroxy-8-methoxy-2-phenylchromen-4-one

>  <PUBCHEM_IUPAC_SYSTEMATIC_NAME>
8-methoxy-5,7-bis(oxidanyl)-2-phenyl-chromen-4-one

>  <PUBCHEM_IUPAC_TRADITIONAL_NAME>
5,7-dihydroxy-8-methoxy-2-phenyl-chromone

>  <PUBCHEM_IUPAC_INCHI>
InChI=1S/C16H12O5/c1-20-15-12(19)7-10(17)14-11(18)8-13(21-16(14)15)9-5-3-2-4-6-9/h2-8,17,19H,1H3

>  <PUBCHEM_IUPAC_INCHIKEY>
XLTFNNCXVBYBSX-UHFFFAOYSA-N

>  <PUBCHEM_XLOGP3_AA>
3

>  <PUBCHEM_EXACT_MASS>
284.068473

>  <PUBCHEM_MOLECULAR_FORMULA>
C16H12O5

>  <PUBCHEM_MOLECULAR_WEIGHT>
284.26

>  <PUBCHEM_OPENEYE_CAN_SMILES>
COC1=C(C=C(C2=C1OC(=CC2=O)C3=CC=CC=C3)O)O

>  <PUBCHEM_OPENEYE_ISO_SMILES>
COC1=C(C=C(C2=C1OC(=CC2=O)C3=CC=CC=C3)O)O

>  <PUBCHEM_CACTVS_TPSA>
76

>  <PUBCHEM_MONOISOTOPIC_WEIGHT>
284.068473

>  <PUBCHEM_TOTAL_CHARGE>
0

>  <PUBCHEM_HEAVY_ATOM_COUNT>
21

>  <PUBCHEM_ATOM_DEF_STEREO_COUNT>
0

>  <PUBCHEM_ATOM_UDEF_STEREO_COUNT>
0

>  <PUBCHEM_BOND_DEF_STEREO_COUNT>
0

>  <PUBCHEM_BOND_UDEF_STEREO_COUNT>
0

>  <PUBCHEM_ISOTOPIC_ATOM_COUNT>
0

>  <PUBCHEM_COMPONENT_COUNT>
1

>  <PUBCHEM_CACTVS_TAUTO_COUNT>
-1

>  <PUBCHEM_COORDINATE_TYPE>
1
5
255

>  <PUBCHEM_BONDANNOTATIONS>
1  7  8
1  8  8
10  12  8
11  15  8
13  16  8
13  17  8
14  15  8
16  18  8
17  19  8
18  20  8
19  20  8
6  10  8
6  11  8
6  7  8
7  9  8
8  12  8
9  14  8

>  <Favorite_cresset>
false

>  <MW_cresset>
284.3

>  <#Atoms_cresset>
21

>  <SlogP_cresset>
2.6

>  <TPSA_cresset>
76

>  <Flexibility_cresset>
1.7

>  <#RB_cresset>
4

>  <Rof5_cresset>
0

>  <Filename_cresset>
drag.36_633.sdf

>  <Confs_cresset>
0

>  <Poses_cresset>
0

$$$$
W_Site2_Wogonin_D
  xed2sdf_05210316543D
 
 33 35  0  0  0  0  0  0  0  0999 V2000
  -62.7871  -25.6719    0.4658 O   0  0  0  0  0  0  0  0  0  0  0  0
  -64.6218  -24.9464    2.3040 O   0  0  0  0  0  0  0  0  0  0  0  0
  -65.8752  -24.2729   -2.9892 O   0  0  0  0  0  0  0  0  0  0  0  0
  -67.0391  -23.9093    1.5615 O   0  0  0  0  0  0  0  0  0  0  0  0
  -63.4198  -25.3095   -3.5062 O   0  0  0  0  0  0  0  0  0  0  0  0
  -64.2794  -24.9880   -1.3253 C   0  0  0  0  0  0  0  0  0  0  0  0
  -63.9688  -25.1519    0.0294 C   0  0  0  0  0  0  0  0  0  0  0  0
  -61.8368  -26.0151   -0.4619 C   0  0  0  0  0  0  0  0  0  0  0  0
  -64.8969  -24.7823    0.9948 C   0  0  0  0  0  0  0  0  0  0  0  0
  -63.2683  -25.3898   -2.2879 C   0  0  0  0  0  0  0  0  0  0  0  0
  -65.5272  -24.4536   -1.6876 C   0  0  0  0  0  0  0  0  0  0  0  0
  -62.0358  -25.8977   -1.8056 C   0  0  0  0  0  0  0  0  0  0  0  0
  -60.5515  -26.5312    0.0762 C   0  0  0  0  0  0  0  0  0  0  0  0
  -66.1224  -24.2651    0.6219 C   0  0  0  0  0  0  0  0  0  0  0  0
  -66.4284  -24.1013   -0.7185 C   0  0  0  0  0  0  0  0  0  0  0  0
  -59.5938  -26.9838   -0.8193 C   0  0  0  0  0  0  0  0  0  0  0  0
  -60.2617  -26.5844    1.4330 C   0  0  0  0  0  0  0  0  0  0  0  0
  -58.3893  -27.4741   -0.3779 C   0  0  0  0  0  0  0  0  0  0  0  0
  -59.0564  -27.0746    1.8739 C   0  0  0  0  0  0  0  0  0  0  0  0
  -58.1185  -27.5204    0.9707 C   0  0  0  0  0  0  0  0  0  0  0  0
  -65.0281  -26.1867    2.9174 C   0  0  0  0  0  0  0  0  0  0  0  0
  -65.2225  -23.6918   -3.4799 H   0  0  0  0  0  0  0  0  0  0  0  0
  -66.9854  -22.9311    1.7867 H   0  0  0  0  0  0  0  0  0  0  0  0
  -61.3176  -26.1682   -2.4464 H   0  0  0  0  0  0  0  0  0  0  0  0
  -67.3156  -23.7221   -0.9814 H   0  0  0  0  0  0  0  0  0  0  0  0
  -59.7833  -26.9529   -1.8007 H   0  0  0  0  0  0  0  0  0  0  0  0
  -60.9372  -26.2625    2.0962 H   0  0  0  0  0  0  0  0  0  0  0  0
  -57.7093  -27.7972   -1.0361 H   0  0  0  0  0  0  0  0  0  0  0  0
  -58.8600  -27.1077    2.8538 H   0  0  0  0  0  0  0  0  0  0  0  0
  -57.2416  -27.8771    1.2935 H   0  0  0  0  0  0  0  0  0  0  0  0
  -65.4754  -26.7587    2.2299 H   0  0  0  0  0  0  0  0  0  0  0  0
  -64.2272  -26.6617    3.2815 H   0  0  0  0  0  0  0  0  0  0  0  0
  -65.6639  -25.9993    3.6663 H   0  0  0  0  0  0  0  0  0  0  0  0
  1  7  1  0
  1  8  1  0
  2  9  1  0
  2 21  1  0
  3 11  1  0
  4 14  1  0
  5 10  2  0
  6  7  2  0
  6 10  1  0
  6 11  1  0
  7  9  1  0
  8 12  2  0
  8 13  1  0
  9 14  2  0
 10 12  1  0
 11 15  2  0
 13 16  2  0
 13 17  1  0
 14 15  1  0
 16 18  1  0
 17 19  2  0
 18 20  2  0
 19 20  1  0
  3 22  1  0
  4 23  1  0
 12 24  1  0
 15 25  1  0
 16 26  1  0
 17 27  1  0
 18 28  1  0
 19 29  1  0
 20 30  1  0
 21 31  1  0
 21 32  1  0
 21 33  1  0
M  END
>  <LF dG>
-7.544

>  <LF VSscore>
-8.798

>  <LF Rank Score>
-11.338

>  <LF LE>
-0.359

>  <LF Structure Name>
C:\Users\Odara\AppData\Local\Temp\LeadFinder_6400_1\Ligand_1.sdf

>  <LF SDF id>
0

>  <LF Pose rank>
0

>  <LF version>
2001 1, 19 January 2019

>  <PUBCHEM_COMPOUND_CID>
5281703

>  <PUBCHEM_COMPOUND_CANONICALIZED>
1

>  <PUBCHEM_CACTVS_COMPLEXITY>
426

>  <PUBCHEM_CACTVS_HBOND_ACCEPTOR>
5

>  <PUBCHEM_CACTVS_HBOND_DONOR>
2

>  <PUBCHEM_CACTVS_ROTATABLE_BOND>
2

>  <PUBCHEM_CACTVS_SUBSKEYS>
AAADccB4OAAAAAAAAAAAAAAAAAAAAAAAAAAwYIAAAAAAAACBQAAAGgAACAAADASAmAIyBoAABgCIAqBSAAACCAAkIAAIiAEGiMgNJzaGNRqCeWOl4BULuQfK7LzOIQABCAAIQABCAAIQABCAAAAAAAAAAA==

>  <PUBCHEM_IUPAC_OPENEYE_NAME>
5,7-dihydroxy-8-methoxy-2-phenyl-chromen-4-one

>  <PUBCHEM_IUPAC_CAS_NAME>
5,7-dihydroxy-8-methoxy-2-phenyl-1-benzopyran-4-one

>  <PUBCHEM_IUPAC_NAME_MARKUP>
5,7-dihydroxy-8-methoxy-2-phenylchromen-4-one

>  <PUBCHEM_IUPAC_NAME>
5,7-dihydroxy-8-methoxy-2-phenylchromen-4-one

>  <PUBCHEM_IUPAC_SYSTEMATIC_NAME>
8-methoxy-5,7-bis(oxidanyl)-2-phenyl-chromen-4-one

>  <PUBCHEM_IUPAC_TRADITIONAL_NAME>
5,7-dihydroxy-8-methoxy-2-phenyl-chromone

>  <PUBCHEM_IUPAC_INCHI>
InChI=1S/C16H12O5/c1-20-15-12(19)7-10(17)14-11(18)8-13(21-16(14)15)9-5-3-2-4-6-9/h2-8,17,19H,1H3

>  <PUBCHEM_IUPAC_INCHIKEY>
XLTFNNCXVBYBSX-UHFFFAOYSA-N

>  <PUBCHEM_XLOGP3_AA>
3

>  <PUBCHEM_EXACT_MASS>
284.068473

>  <PUBCHEM_MOLECULAR_FORMULA>
C16H12O5

>  <PUBCHEM_MOLECULAR_WEIGHT>
284.26

>  <PUBCHEM_OPENEYE_CAN_SMILES>
COC1=C(C=C(C2=C1OC(=CC2=O)C3=CC=CC=C3)O)O

>  <PUBCHEM_OPENEYE_ISO_SMILES>
COC1=C(C=C(C2=C1OC(=CC2=O)C3=CC=CC=C3)O)O

>  <PUBCHEM_CACTVS_TPSA>
76

>  <PUBCHEM_MONOISOTOPIC_WEIGHT>
284.068473

>  <PUBCHEM_TOTAL_CHARGE>
0

>  <PUBCHEM_HEAVY_ATOM_COUNT>
21

>  <PUBCHEM_ATOM_DEF_STEREO_COUNT>
0

>  <PUBCHEM_ATOM_UDEF_STEREO_COUNT>
0

>  <PUBCHEM_BOND_DEF_STEREO_COUNT>
0

>  <PUBCHEM_BOND_UDEF_STEREO_COUNT>
0

>  <PUBCHEM_ISOTOPIC_ATOM_COUNT>
0

>  <PUBCHEM_COMPONENT_COUNT>
1

>  <PUBCHEM_CACTVS_TAUTO_COUNT>
-1

>  <PUBCHEM_COORDINATE_TYPE>
1
5
255

>  <PUBCHEM_BONDANNOTATIONS>
1  7  8
1  8  8
10  12  8
11  15  8
13  16  8
13  17  8
14  15  8
16  18  8
17  19  8
18  20  8
19  20  8
6  10  8
6  11  8
6  7  8
7  9  8
8  12  8
9  14  8

>  <Favorite_cresset>
false

>  <MW_cresset>
284.3

>  <#Atoms_cresset>
21

>  <SlogP_cresset>
2.6

>  <TPSA_cresset>
76

>  <Flexibility_cresset>
1.7

>  <#RB_cresset>
4

>  <Rof5_cresset>
0

>  <Filename_cresset>
drag.33_510.sdf

>  <Confs_cresset>
0

>  <Poses_cresset>
0

$$$$
Site2_Wogonoside_D
  xed2sdf_05210316543D
 
 52 55  0  0  1  0  0  0  0  0999 V2000
  -57.6548  -21.0399   -3.1768 O   0  0  0  0  0  0  0  0  0  0  0  0
  -59.3768  -22.3799   -2.0738 O   0  0  0  0  0  0  0  0  0  0  0  0
  -59.8348  -17.5519   -2.3668 O   0  0  0  0  0  0  0  0  0  0  0  0
  -61.0038  -20.1289   -1.8808 O   0  0  0  0  0  0  0  0  0  0  0  0
  -57.6828  -17.4829   -4.2658 O   0  0  0  0  0  0  0  0  0  0  0  0
  -55.1468  -20.4469   -3.5218 O   0  5  0  0  0  0  0  0  0  0  0  0
  -55.5758  -19.3819   -5.4938 O   0  0  0  0  0  0  0  0  0  0  0  0
  -63.5638  -24.2049   -0.9578 O   0  0  0  0  0  0  0  0  0  0  0  0
  -61.4128  -22.6569   -0.3688 O   0  0  0  0  0  0  0  0  0  0  0  0
  -61.4888  -25.3449   -5.1388 O   0  0  0  0  0  0  0  0  0  0  0  0
  -63.7508  -26.3159   -4.4048 O   0  0  0  0  0  0  0  0  0  0  0  0
  -59.3728  -18.7319   -3.0398 C   0  0  0  0  0  0  0  0  0  0  0  0
  -59.6048  -19.9719   -2.1588 C   0  0  0  0  0  0  0  0  0  0  0  0
  -57.8778  -18.5999   -3.3858 C   0  0  0  0  0  0  0  0  0  0  0  0
  -59.0578  -21.2209   -2.8798 C   0  0  0  0  0  0  0  0  0  0  0  0
  -57.4038  -19.9139   -4.0458 C   0  0  0  0  0  0  0  0  0  0  0  0
  -55.9308  -19.9129   -4.3828 C   0  0  0  0  0  0  0  0  0  0  0  0
  -60.3948  -23.1779   -2.4248 C   0  0  0  0  0  0  0  0  0  0  0  0
  -61.4468  -23.3279   -1.5388 C   0  0  0  0  0  0  0  0  0  0  0  0
  -60.4238  -23.8619   -3.6368 C   0  0  0  0  0  0  0  0  0  0  0  0
  -62.5378  -24.1299   -1.8518 C   0  0  0  0  0  0  0  0  0  0  0  0
  -62.5468  -24.8159   -3.0658 C   0  0  0  0  0  0  0  0  0  0  0  0
  -61.4778  -24.6769   -3.9558 C   0  0  0  0  0  0  0  0  0  0  0  0
  -63.6868  -25.6569   -3.3678 C   0  0  0  0  0  0  0  0  0  0  0  0
  -64.6558  -24.9729   -1.2768 C   0  0  0  0  0  0  0  0  0  0  0  0
  -64.7478  -25.6989   -2.4288 C   0  0  0  0  0  0  0  0  0  0  0  0
  -65.7648  -24.9739   -0.2868 C   0  0  0  0  0  0  0  0  0  0  0  0
  -60.6948  -23.2629    0.7252 C   0  0  0  0  0  0  0  0  0  0  0  0
  -65.6008  -24.2629    0.8922 C   0  0  0  0  0  0  0  0  0  0  0  0
  -66.9618  -25.6479   -0.4868 C   0  0  0  0  0  0  0  0  0  0  0  0
  -66.5948  -24.2229    1.8392 C   0  0  0  0  0  0  0  0  0  0  0  0
  -67.9568  -25.6079    0.4612 C   0  0  0  0  0  0  0  0  0  0  0  0
  -67.7768  -24.8959    1.6242 C   0  0  0  0  0  0  0  0  0  0  0  0
  -59.8898  -18.8369   -3.8898 H   0  0  0  0  0  0  0  0  0  0  0  0
  -59.1228  -19.8559   -1.2908 H   0  0  0  0  0  0  0  0  0  0  0  0
  -57.3418  -18.4399   -2.5578 H   0  0  0  0  0  0  0  0  0  0  0  0
  -59.4888  -21.3679   -3.7698 H   0  0  0  0  0  0  0  0  0  0  0  0
  -57.9258  -19.9889   -4.8948 H   0  0  0  0  0  0  0  0  0  0  0  0
  -59.6338  -16.7239   -2.9008 H   0  0  0  0  0  0  0  0  0  0  0  0
  -61.4808  -20.5829   -2.6418 H   0  0  0  0  0  0  0  0  0  0  0  0
  -58.2648  -16.7039   -4.0088 H   0  0  0  0  0  0  0  0  0  0  0  0
  -60.9758  -26.2079   -5.0788 H   0  0  0  0  0  0  0  0  0  0  0  0
  -59.6668  -23.7579   -4.2808 H   0  0  0  0  0  0  0  0  0  0  0  0
  -65.5578  -26.2569   -2.6098 H   0  0  0  0  0  0  0  0  0  0  0  0
  -60.3148  -24.1369    0.4212 H   0  0  0  0  0  0  0  0  0  0  0  0
  -59.9548  -22.6589    1.0192 H   0  0  0  0  0  0  0  0  0  0  0  0
  -61.3168  -23.4149    1.4932 H   0  0  0  0  0  0  0  0  0  0  0  0
  -64.7458  -23.7719    1.0552 H   0  0  0  0  0  0  0  0  0  0  0  0
  -67.1028  -26.1689   -1.3288 H   0  0  0  0  0  0  0  0  0  0  0  0
  -66.4608  -23.7049    2.6832 H   0  0  0  0  0  0  0  0  0  0  0  0
  -68.8138  -26.0979    0.3042 H   0  0  0  0  0  0  0  0  0  0  0  0
  -68.5018  -24.8669    2.3122 H   0  0  0  0  0  0  0  0  0  0  0  0
  1 15  1  0
  1 16  1  0
  2 18  1  0
  6 17  1  0
  7 17  2  0
  8 21  1  0
  8 25  1  0
  9 19  1  0
  9 28  1  0
 10 23  1  0
 11 24  2  0
 12  3  1  0
 12 13  1  0
 12 14  1  0
 13  4  1  0
 13 15  1  0
 14  5  1  0
 14 16  1  0
 15  2  1  0
 16 17  1  0
 18 19  2  0
 18 20  1  0
 19 21  1  0
 20 23  2  0
 21 22  2  0
 22 23  1  0
 22 24  1  0
 24 26  1  0
 25 26  2  0
 25 27  1  0
 27 29  2  0
 27 30  1  0
 29 31  1  0
 30 32  2  0
 31 33  2  0
 32 33  1  0
  3 39  1  0
  4 40  1  0
  5 41  1  0
 10 42  1  0
 12 34  1  0
 13 35  1  0
 14 36  1  0
 15 37  1  0
 16 38  1  0
 20 43  1  0
 26 44  1  0
 28 45  1  0
 28 46  1  0
 28 47  1  0
 29 48  1  0
 30 49  1  0
 31 50  1  0
 32 51  1  0
 33 52  1  0
M  CHG  1   6  -1
M  END
>  <LF dG>
-8.199

>  <LF VSscore>
-11.696

>  <LF Rank Score>
-12.093

>  <LF LE>
-0.248

>  <LF Structure Name>
C:\Users\Odara\AppData\Local\Temp\LeadFinder_944_1\Ligand_1.sdf

>  <LF SDF id>
0

>  <LF Pose rank>
0

>  <LF version>
2001 1, 19 January 2019

>  <PUBCHEM_COMPOUND_CID>
3084961

>  <PUBCHEM_COMPOUND_CANONICALIZED>
1

>  <PUBCHEM_CACTVS_COMPLEXITY>
763

>  <PUBCHEM_CACTVS_HBOND_ACCEPTOR>
11

>  <PUBCHEM_CACTVS_HBOND_DONOR>
5

>  <PUBCHEM_CACTVS_ROTATABLE_BOND>
5

>  <PUBCHEM_CACTVS_SUBSKEYS>
AAADceB4PAAAAAAAAAAAAAAAAAAAAAAAAAA0YIEAAAAAAACBQAAAGgAACAAADBSwmAMyDoAABgCIAqDSCAICCAAkIAAIiAFGiMgdNzaGNR6ieWKl4BUPuQfK7LzOIQABCAAIQABCAAIQABCAAAAAAAAAAA==

>  <PUBCHEM_IUPAC_OPENEYE_NAME>
(2S,3S,4S,5R,6S)-3,4,5-trihydroxy-6-(5-hydroxy-8-methoxy-4-oxo-2-phenyl-chromen-7-yl)oxy-tetrahydropyran-2-carboxylic acid

>  <PUBCHEM_IUPAC_CAS_NAME>
(2S,3S,4S,5R,6S)-3,4,5-trihydroxy-6-[(5-hydroxy-8-methoxy-4-oxo-2-phenyl-1-benzopyran-7-yl)oxy]-2-oxanecarboxylic acid

>  <PUBCHEM_IUPAC_NAME_MARKUP>
(2<I>S</I>,3<I>S</I>,4<I>S</I>,5<I>R</I>,6<I>S</I>)-3,4,5-trihydroxy-6-(5-hydroxy-8-methoxy-4-oxo-2-phenylchromen-7-yl)oxyoxane-2-carboxylic acid

>  <PUBCHEM_IUPAC_NAME>
(2S,3S,4S,5R,6S)-3,4,5-trihydroxy-6-(5-hydroxy-8-methoxy-4-oxo-2-phenylchromen-7-yl)oxyoxane-2-carboxylic acid

>  <PUBCHEM_IUPAC_SYSTEMATIC_NAME>
(2S,3S,4S,5R,6S)-6-(8-methoxy-5-oxidanyl-4-oxidanylidene-2-phenyl-chromen-7-yl)oxy-3,4,5-tris(oxidanyl)oxane-2-carboxylic acid

>  <PUBCHEM_IUPAC_TRADITIONAL_NAME>
(2S,3S,4S,5R,6S)-3,4,5-trihydroxy-6-(5-hydroxy-4-keto-8-methoxy-2-phenyl-chromen-7-yl)oxy-tetrahydropyran-2-carboxylic acid

>  <PUBCHEM_IUPAC_INCHI>
InChI=1S/C22H20O11/c1-30-18-13(32-22-17(27)15(25)16(26)20(33-22)21(28)29)8-11(24)14-10(23)7-12(31-19(14)18)9-5-3-2-4-6-9/h2-8,15-17,20,22,24-27H,1H3,(H,28,29)/t15-,16-,17+,20-,22+/m0/s1

>  <PUBCHEM_IUPAC_INCHIKEY>
LNOHXHDWGCMVCO-NTKSAMNMSA-N

>  <PUBCHEM_XLOGP3_AA>
1.4

>  <PUBCHEM_EXACT_MASS>
460.100561

>  <PUBCHEM_MOLECULAR_FORMULA>
C22H20O11

>  <PUBCHEM_MOLECULAR_WEIGHT>
460.4

>  <PUBCHEM_OPENEYE_CAN_SMILES>
COC1=C(C=C(C2=C1OC(=CC2=O)C3=CC=CC=C3)O)OC4C(C(C(C(O4)C(=O)O)O)O)O

>  <PUBCHEM_OPENEYE_ISO_SMILES>
COC1=C(C=C(C2=C1OC(=CC2=O)C3=CC=CC=C3)O)O[C@H]4[C@@H]([C@H]([C@@H]([C@H](O4)C(=O)O)O)O)O

>  <PUBCHEM_CACTVS_TPSA>
172

>  <PUBCHEM_MONOISOTOPIC_WEIGHT>
460.100561

>  <PUBCHEM_TOTAL_CHARGE>
0

>  <PUBCHEM_HEAVY_ATOM_COUNT>
33

>  <PUBCHEM_ATOM_DEF_STEREO_COUNT>
5

>  <PUBCHEM_ATOM_UDEF_STEREO_COUNT>
0

>  <PUBCHEM_BOND_DEF_STEREO_COUNT>
0

>  <PUBCHEM_BOND_UDEF_STEREO_COUNT>
0

>  <PUBCHEM_ISOTOPIC_ATOM_COUNT>
0

>  <PUBCHEM_COMPONENT_COUNT>
1

>  <PUBCHEM_CACTVS_TAUTO_COUNT>
-1

>  <PUBCHEM_COORDINATE_TYPE>
1
5
255

>  <PUBCHEM_BONDANNOTATIONS>
16  17  5
18  19  8
18  20  8
19  21  8
15  2  5
20  23  8
21  22  8
22  23  8
22  24  8
24  26  8
25  26  8
27  29  8
27  30  8
29  31  8
12  3  5
30  32  8
31  33  8
32  33  8
13  4  6
14  5  6
8  21  8
8  25  8

>  <Preferred Pose_cresset>
true

>  <Favorite_cresset>
false

>  <MW_cresset>
459.4

>  <#Atoms_cresset>
33

>  <SlogP_cresset>
1.4

>  <TPSA_cresset>
175

>  <Flexibility_cresset>
7.6

>  <#RB_cresset>
9

>  <Rof5_cresset>
1

>  <Filename_cresset>
Wogonoside.sdf

>  <Confs_cresset>
0

>  <Poses_cresset>
10

>  <_cresset_fieldpoints>
    -5     -56.072189     -21.451576      -2.180875    -15.4962
    -5     -61.262413     -18.311127      -1.339214    -19.2418
    -5     -61.586700     -20.456898      -0.096597    -17.9370
    -5     -56.580166     -17.755909      -5.806597    -15.4114
    -5     -53.714130     -19.583883      -5.455121    -11.9450
    -5     -53.467522     -20.227448      -4.310769    -11.9808
    -5     -65.730148     -27.275024       2.087140     -2.5369
    -5     -64.072479     -25.923874      -6.250973    -16.6102
    -5     -67.879883     -22.484840      -0.484335     -2.7916
    -5     -63.098446     -25.721954      -6.104022    -20.9647
    -6     -59.398872     -15.281172      -3.947398     16.5020
    -6     -61.350227     -20.646851      -4.550194     12.4198
    -6     -59.336105     -27.081409      -4.668405      7.5724
    -6     -67.504807     -27.410347      -2.793779      3.7996
    -6     -63.354927     -23.540314       2.788557      2.7226
    -6     -60.619431     -26.301716      -0.457798      2.6363
    -6     -68.353683     -23.733105       4.343658      2.6343
    -6     -70.598999     -26.132710       1.813959      2.7230
    -7     -56.372314     -20.665033      -1.111059     -2.4600
    -7     -57.680183     -21.809874      -0.035698     -2.2991
    -7     -63.223473     -20.675247      -1.110082     -2.3798
    -7     -58.977654     -17.885328      -6.317232     -1.7687
    -7     -62.590767     -18.592089      -2.884921     -1.6088
    -7     -61.515976     -20.088013       0.427176     -2.2184
    -7     -55.510590     -16.968380      -5.046585     -1.5959
    -7     -57.217556     -17.873718      -6.585401     -1.7670
    -7     -58.467087     -17.295341      -0.307331     -1.6382
    -7     -62.644821     -25.908377       0.839334     -2.9500
    -7     -61.862961     -21.035997      -4.743207     -2.7873
    -7     -60.305046     -20.118305      -6.118352     -1.9709
    -7     -61.852226     -28.038300      -3.860792     -1.7823
    -7     -57.116249     -23.188622      -4.343171     -2.3058
    -7     -60.104988     -26.390800      -1.053092     -2.2805
    -7     -65.307121     -22.594978      -2.829103     -2.4675
    -7     -63.706108     -24.713104      -6.375201     -1.6585
    -7     -59.489845     -25.146830      -6.635254     -1.3047
    -7     -67.827026     -22.303333      -0.919316     -1.7891
    -7     -65.339783     -27.572414       1.917627     -1.7874
    -7     -68.308273     -23.519798       4.686235     -0.9671
    -7     -64.051895     -21.653214      -0.308884     -2.6870
    -7     -70.914185     -26.125103       2.053170     -0.9674
    -7     -69.710587     -27.484062       2.656778     -0.9554
    -8     -58.759727     -19.605076      -3.206923      5.1426
    -8     -61.475525     -24.017189      -2.769630      6.6199
    -8     -60.254463     -23.665714       1.369235      2.5235
    -8     -66.777145     -24.935316       0.671275      7.1494
    -8     -63.627884     -25.073219      -2.459209      5.0136
    -8     -65.758217     -25.508793      -1.241166      5.4317

$$$$
W_Site2_Wogonoside_D
  xed2sdf_05210316543D
 
 52 55  0  0  1  0  0  0  0  0999 V2000
  -58.9894  -20.9481   -1.6262 O   0  0  0  0  0  0  0  0  0  0  0  0
  -60.4814  -22.6501   -2.5502 O   0  0  0  0  0  0  0  0  0  0  0  0
  -60.6294  -18.0901   -4.2182 O   0  0  0  0  0  0  0  0  0  0  0  0
  -61.2934  -20.8661   -4.5272 O   0  0  0  0  0  0  0  0  0  0  0  0
  -58.1744  -17.5271   -2.8412 O   0  0  0  0  0  0  0  0  0  0  0  0
  -58.0784  -19.2631    0.3788 O   0  5  0  0  0  0  0  0  0  0  0  0
  -56.1114  -19.3651   -0.7722 O   0  0  0  0  0  0  0  0  0  0  0  0
  -61.4374  -25.6921    0.9058 O   0  0  0  0  0  0  0  0  0  0  0  0
  -62.1924  -23.7221   -0.8012 O   0  0  0  0  0  0  0  0  0  0  0  0
  -56.9954  -25.4401   -0.9062 O   0  0  0  0  0  0  0  0  0  0  0  0
  -57.6194  -27.0301    1.0118 O   0  0  0  0  0  0  0  0  0  0  0  0
  -59.7784  -19.1311   -3.7182 C   0  0  0  0  0  0  0  0  0  0  0  0
  -60.6134  -20.3751   -3.3622 C   0  0  0  0  0  0  0  0  0  0  0  0
  -59.0034  -18.6421   -2.4802 C   0  0  0  0  0  0  0  0  0  0  0  0
  -59.6884  -21.4631   -2.7822 C   0  0  0  0  0  0  0  0  0  0  0  0
  -58.1544  -19.8111   -1.9332 C   0  0  0  0  0  0  0  0  0  0  0  0
  -57.3864  -19.4531   -0.6812 C   0  0  0  0  0  0  0  0  0  0  0  0
  -60.0304  -23.6051   -1.7232 C   0  0  0  0  0  0  0  0  0  0  0  0
  -60.9154  -24.1551   -0.8122 C   0  0  0  0  0  0  0  0  0  0  0  0
  -58.7134  -24.0501   -1.7452 C   0  0  0  0  0  0  0  0  0  0  0  0
  -60.5104  -25.1591    0.0608 C   0  0  0  0  0  0  0  0  0  0  0  0
  -59.1844  -25.5861    0.0318 C   0  0  0  0  0  0  0  0  0  0  0  0
  -58.2874  -25.0211   -0.8792 C   0  0  0  0  0  0  0  0  0  0  0  0
  -58.7804  -26.6231    0.9578 C   0  0  0  0  0  0  0  0  0  0  0  0
  -61.0494  -26.7041    1.7488 C   0  0  0  0  0  0  0  0  0  0  0  0
  -59.7694  -27.1751    1.8108 C   0  0  0  0  0  0  0  0  0  0  0  0
  -62.1144  -27.2821    2.6098 C   0  0  0  0  0  0  0  0  0  0  0  0
  -63.1484  -24.4481   -1.6012 C   0  0  0  0  0  0  0  0  0  0  0  0
  -63.3884  -26.7401    2.5398 C   0  0  0  0  0  0  0  0  0  0  0  0
  -61.8984  -28.3431    3.4778 C   0  0  0  0  0  0  0  0  0  0  0  0
  -64.4134  -27.2381    3.3068 C   0  0  0  0  0  0  0  0  0  0  0  0
  -62.9234  -28.8421    4.2458 C   0  0  0  0  0  0  0  0  0  0  0  0
  -64.1824  -28.2921    4.1618 C   0  0  0  0  0  0  0  0  0  0  0  0
  -59.1214  -19.3761   -4.4322 H   0  0  0  0  0  0  0  0  0  0  0  0
  -61.2994  -20.1281   -2.6782 H   0  0  0  0  0  0  0  0  0  0  0  0
  -59.6384  -18.3401   -1.7692 H   0  0  0  0  0  0  0  0  0  0  0  0
  -58.9634  -21.7271   -3.4192 H   0  0  0  0  0  0  0  0  0  0  0  0
  -57.5004  -20.0281   -2.6582 H   0  0  0  0  0  0  0  0  0  0  0  0
  -60.7984  -18.1971   -5.2042 H   0  0  0  0  0  0  0  0  0  0  0  0
  -61.2544  -20.2021   -5.2822 H   0  0  0  0  0  0  0  0  0  0  0  0
  -58.7234  -16.7381   -3.1362 H   0  0  0  0  0  0  0  0  0  0  0  0
  -56.6124  -25.3941   -1.8352 H   0  0  0  0  0  0  0  0  0  0  0  0
  -58.0694  -23.6561   -2.4012 H   0  0  0  0  0  0  0  0  0  0  0  0
  -59.5314  -27.9031    2.4538 H   0  0  0  0  0  0  0  0  0  0  0  0
  -62.6804  -25.2021   -2.0632 H   0  0  0  0  0  0  0  0  0  0  0  0
  -63.8734  -24.8101   -1.0162 H   0  0  0  0  0  0  0  0  0  0  0  0
  -63.5534  -23.8351   -2.2812 H   0  0  0  0  0  0  0  0  0  0  0  0
  -63.5654  -25.9741    1.9208 H   0  0  0  0  0  0  0  0  0  0  0  0
  -60.9874  -28.7491    3.5458 H   0  0  0  0  0  0  0  0  0  0  0  0
  -65.3264  -26.8361    3.2438 H   0  0  0  0  0  0  0  0  0  0  0  0
  -62.7544  -29.6071    4.8668 H   0  0  0  0  0  0  0  0  0  0  0  0
  -64.9274  -28.6571    4.7198 H   0  0  0  0  0  0  0  0  0  0  0  0
  1 15  1  0
  1 16  1  0
  2 18  1  0
  6 17  1  0
  7 17  2  0
  8 21  1  0
  8 25  1  0
  9 19  1  0
  9 28  1  0
 10 23  1  0
 11 24  2  0
 12  3  1  0
 12 13  1  0
 12 14  1  0
 13  4  1  0
 13 15  1  0
 14  5  1  0
 14 16  1  0
 15  2  1  0
 16 17  1  0
 18 19  2  0
 18 20  1  0
 19 21  1  0
 20 23  2  0
 21 22  2  0
 22 23  1  0
 22 24  1  0
 24 26  1  0
 25 26  2  0
 25 27  1  0
 27 29  2  0
 27 30  1  0
 29 31  1  0
 30 32  2  0
 31 33  2  0
 32 33  1  0
  3 39  1  0
  4 40  1  0
  5 41  1  0
 10 42  1  0
 12 34  1  0
 13 35  1  0
 14 36  1  0
 15 37  1  0
 16 38  1  0
 20 43  1  0
 26 44  1  0
 28 45  1  0
 28 46  1  0
 28 47  1  0
 29 48  1  0
 30 49  1  0
 31 50  1  0
 32 51  1  0
 33 52  1  0
M  CHG  1   6  -1
M  END
>  <LF dG>
-9.084

>  <LF VSscore>
-12.573

>  <LF Rank Score>
-12.149

>  <LF LE>
-0.275

>  <LF Structure Name>
C:\Users\Odara\AppData\Local\Temp\LeadFinder_952_1\Ligand_1.sdf

>  <LF SDF id>
0

>  <LF Pose rank>
0

>  <LF version>
2001 1, 19 January 2019

>  <PUBCHEM_COMPOUND_CID>
3084961

>  <PUBCHEM_COMPOUND_CANONICALIZED>
1

>  <PUBCHEM_CACTVS_COMPLEXITY>
763

>  <PUBCHEM_CACTVS_HBOND_ACCEPTOR>
11

>  <PUBCHEM_CACTVS_HBOND_DONOR>
5

>  <PUBCHEM_CACTVS_ROTATABLE_BOND>
5

>  <PUBCHEM_CACTVS_SUBSKEYS>
AAADceB4PAAAAAAAAAAAAAAAAAAAAAAAAAA0YIEAAAAAAACBQAAAGgAACAAADBSwmAMyDoAABgCIAqDSCAICCAAkIAAIiAFGiMgdNzaGNR6ieWKl4BUPuQfK7LzOIQABCAAIQABCAAIQABCAAAAAAAAAAA==

>  <PUBCHEM_IUPAC_OPENEYE_NAME>
(2S,3S,4S,5R,6S)-3,4,5-trihydroxy-6-(5-hydroxy-8-methoxy-4-oxo-2-phenyl-chromen-7-yl)oxy-tetrahydropyran-2-carboxylic acid

>  <PUBCHEM_IUPAC_CAS_NAME>
(2S,3S,4S,5R,6S)-3,4,5-trihydroxy-6-[(5-hydroxy-8-methoxy-4-oxo-2-phenyl-1-benzopyran-7-yl)oxy]-2-oxanecarboxylic acid

>  <PUBCHEM_IUPAC_NAME_MARKUP>
(2<I>S</I>,3<I>S</I>,4<I>S</I>,5<I>R</I>,6<I>S</I>)-3,4,5-trihydroxy-6-(5-hydroxy-8-methoxy-4-oxo-2-phenylchromen-7-yl)oxyoxane-2-carboxylic acid

>  <PUBCHEM_IUPAC_NAME>
(2S,3S,4S,5R,6S)-3,4,5-trihydroxy-6-(5-hydroxy-8-methoxy-4-oxo-2-phenylchromen-7-yl)oxyoxane-2-carboxylic acid

>  <PUBCHEM_IUPAC_SYSTEMATIC_NAME>
(2S,3S,4S,5R,6S)-6-(8-methoxy-5-oxidanyl-4-oxidanylidene-2-phenyl-chromen-7-yl)oxy-3,4,5-tris(oxidanyl)oxane-2-carboxylic acid

>  <PUBCHEM_IUPAC_TRADITIONAL_NAME>
(2S,3S,4S,5R,6S)-3,4,5-trihydroxy-6-(5-hydroxy-4-keto-8-methoxy-2-phenyl-chromen-7-yl)oxy-tetrahydropyran-2-carboxylic acid

>  <PUBCHEM_IUPAC_INCHI>
InChI=1S/C22H20O11/c1-30-18-13(32-22-17(27)15(25)16(26)20(33-22)21(28)29)8-11(24)14-10(23)7-12(31-19(14)18)9-5-3-2-4-6-9/h2-8,15-17,20,22,24-27H,1H3,(H,28,29)/t15-,16-,17+,20-,22+/m0/s1

>  <PUBCHEM_IUPAC_INCHIKEY>
LNOHXHDWGCMVCO-NTKSAMNMSA-N

>  <PUBCHEM_XLOGP3_AA>
1.4

>  <PUBCHEM_EXACT_MASS>
460.100561

>  <PUBCHEM_MOLECULAR_FORMULA>
C22H20O11

>  <PUBCHEM_MOLECULAR_WEIGHT>
460.4

>  <PUBCHEM_OPENEYE_CAN_SMILES>
COC1=C(C=C(C2=C1OC(=CC2=O)C3=CC=CC=C3)O)OC4C(C(C(C(O4)C(=O)O)O)O)O

>  <PUBCHEM_OPENEYE_ISO_SMILES>
COC1=C(C=C(C2=C1OC(=CC2=O)C3=CC=CC=C3)O)O[C@H]4[C@@H]([C@H]([C@@H]([C@H](O4)C(=O)O)O)O)O

>  <PUBCHEM_CACTVS_TPSA>
172

>  <PUBCHEM_MONOISOTOPIC_WEIGHT>
460.100561

>  <PUBCHEM_TOTAL_CHARGE>
0

>  <PUBCHEM_HEAVY_ATOM_COUNT>
33

>  <PUBCHEM_ATOM_DEF_STEREO_COUNT>
5

>  <PUBCHEM_ATOM_UDEF_STEREO_COUNT>
0

>  <PUBCHEM_BOND_DEF_STEREO_COUNT>
0

>  <PUBCHEM_BOND_UDEF_STEREO_COUNT>
0

>  <PUBCHEM_ISOTOPIC_ATOM_COUNT>
0

>  <PUBCHEM_COMPONENT_COUNT>
1

>  <PUBCHEM_CACTVS_TAUTO_COUNT>
-1

>  <PUBCHEM_COORDINATE_TYPE>
1
5
255

>  <PUBCHEM_BONDANNOTATIONS>
16  17  5
18  19  8
18  20  8
19  21  8
15  2  5
20  23  8
21  22  8
22  23  8
22  24  8
24  26  8
25  26  8
27  29  8
27  30  8
29  31  8
12  3  5
30  32  8
31  33  8
32  33  8
13  4  6
14  5  6
8  21  8
8  25  8

>  <Preferred Pose_cresset>
true

>  <Favorite_cresset>
false

>  <MW_cresset>
459.4

>  <#Atoms_cresset>
33

>  <SlogP_cresset>
1.4

>  <TPSA_cresset>
175

>  <Flexibility_cresset>
7.6

>  <#RB_cresset>
9

>  <Rof5_cresset>
1

>  <Filename_cresset>
Wogonoside.sdf

>  <Confs_cresset>
0

>  <Poses_cresset>
10

>  <_cresset_fieldpoints>
    -5     -59.595871     -20.503490       0.220211    -12.9101
    -5     -62.070084     -22.576838      -4.159035    -15.0043
    -5     -61.931412     -17.232327      -3.107291     -8.4863
    -5     -55.655571     -18.904039       0.999245    -12.1901
    -5     -62.232460     -21.575817      -0.676401     -8.3862
    -5     -56.322868     -17.437651      -2.361701    -12.9271
    -5     -56.757507     -18.867641       1.645175    -12.2930
    -5     -63.940895     -29.700632       1.328473     -2.6277
    -5     -55.984306     -26.252533       0.502524    -23.5461
    -5     -62.555595     -25.841784       5.493595     -2.9631
    -6     -60.461266     -19.199368      -6.655935     18.1883
    -6     -56.399590     -24.448895      -3.486505     10.1373
    -6     -59.257469     -15.031286      -3.818571      6.6040
    -6     -56.977383     -22.474960      -3.682902      7.1818
    -6     -62.478146     -27.407211      -1.168737      2.3461
    -6     -57.570080     -20.932613      -4.824858      7.1793
    -6     -67.134949     -27.786964       4.621312      2.6119
    -6     -65.394424     -25.409248       0.731431      2.9984
    -6     -59.305801     -29.704735       3.865364      3.4926
    -6     -64.473274     -30.543770       6.217896      2.6562
    -7     -59.256832     -21.516769       0.689836     -3.2197
    -7     -63.003319     -18.740059      -4.687892     -1.6199
    -7     -62.235828     -17.547680      -2.355308     -1.6070
    -7     -57.157539     -20.987267      -5.045329     -1.8951
    -7     -59.453117     -21.635220      -6.083825     -1.8903
    -7     -60.393288     -20.831470       0.262198     -3.2239
    -7     -61.026283     -16.134933      -2.883327     -1.4872
    -7     -56.552795     -18.324203      -4.548402     -1.6981
    -7     -58.896156     -16.630833      -5.407274     -1.5144
    -7     -60.279449     -24.348251       3.251531     -2.4124
    -7     -55.757561     -17.765530      -2.743799     -1.7098
    -7     -56.097149     -22.176739      -1.391056     -2.2219
    -7     -60.726692     -26.866558      -2.856920     -2.3052
    -7     -56.839073     -27.925468      -1.247753     -1.7473
    -7     -56.050995     -25.087742       1.519644     -1.6455
    -7     -62.706322     -23.611189       1.970720     -2.6451
    -7     -62.206902     -25.617264       5.611772     -1.7835
    -7     -62.173298     -23.156460      -4.520883     -2.4965
    -7     -63.697849     -29.747890       0.849418     -1.8006
    -7     -62.528770     -27.583242      -0.723883     -2.9684
    -7     -64.652924     -30.724628       6.486531     -0.9675
    -7     -67.485199     -27.688053       4.688308     -0.9672
    -8     -59.383530     -19.833237      -2.996455      5.1376
    -8     -59.581234     -24.613762      -0.842130      6.6071
    -8     -63.149887     -27.790024       3.387061      7.1502
    -8     -59.798874     -26.267542       0.905627      5.0128
    -8     -61.066521     -27.603840       2.580575      5.4326
    -8     -63.700325     -24.921215      -2.089746      2.5260

$$$$
Site2_VTRRT_D
  xed2sdf_05210316543D
 
 92 97  0  0  1  0  0  0  0  0999 V2000
  -60.7429  -18.4932   -3.7837 C   0  0  0  0  0  0  0  0  0  0  0  0
  -61.0152  -19.7923   -3.4195 C   0  0  0  0  0  0  0  0  0  0  0  0
  -61.5154  -20.0729   -2.1665 C   0  0  0  0  0  0  0  0  0  0  0  0
  -61.7423  -19.0412   -1.2814 C   0  0  0  0  0  0  0  0  0  0  0  0
  -61.4713  -17.7417   -1.6443 C   0  0  0  0  0  0  0  0  0  0  0  0
  -60.9716  -17.4671   -2.8962 C   0  0  0  0  0  0  0  0  0  0  0  0
  -61.8191  -21.5087   -1.7620 C   0  0  0  0  0  0  0  0  0  0  0  0
  -62.5602  -22.3497   -2.8271 C   0  0  0  0  0  0  0  0  0  0  0  0
  -63.8754  -21.6875   -3.1396 N   0  3  0  0  0  0  0  0  0  0  0  0
  -62.7717  -23.8056   -2.3426 C   0  0  0  0  0  0  0  0  0  0  0  0
  -62.9804  -23.8435   -0.9213 O   0  0  0  0  0  0  0  0  0  0  0  0
  -61.5602  -24.6908   -2.7263 C   0  0  0  0  0  0  0  0  0  0  0  0
  -60.5592  -24.9880   -1.5819 C   0  0  0  0  0  0  0  0  0  0  0  0
  -60.7900  -26.3784   -0.9432 C   0  0  0  0  0  0  0  0  0  0  0  0
  -59.6942  -26.8437    0.0057 C   0  0  0  0  0  0  0  0  0  0  0  0
  -59.5608  -26.2647    1.2491 C   0  0  0  0  0  0  0  0  0  0  0  0
  -58.5741  -26.6870    2.1108 C   0  0  0  0  0  0  0  0  0  0  0  0
  -57.7134  -27.6916    1.7324 C   0  0  0  0  0  0  0  0  0  0  0  0
  -57.8418  -28.2726    0.4917 C   0  0  0  0  0  0  0  0  0  0  0  0
  -58.8294  -27.8491   -0.3684 C   0  0  0  0  0  0  0  0  0  0  0  0
  -59.1506  -24.8404   -1.9833 N   0  0  0  0  0  0  0  0  0  0  0  0
  -58.4358  -23.6894   -1.3239 P   0  0  0  0  0  0  0  0  0  0  0  0
  -57.8083  -22.7215   -2.4459 O   0  0  0  0  0  0  0  0  0  0  0  0
  -59.4680  -22.7235   -0.5538 O   0  0  0  0  0  0  0  0  0  0  0  0
  -57.3502  -24.1779   -0.3996 O   0  0  0  0  0  0  0  0  0  0  0  0
  -58.4543  -22.6434   -3.7270 C   0  0  0  0  0  0  0  0  0  0  0  0
  -59.1419  -22.1752    0.6506 C   0  0  0  0  0  0  0  0  0  0  0  0
  -58.4069  -21.0069    0.6948 C   0  0  0  0  0  0  0  0  0  0  0  0
  -58.0755  -20.4463    1.9055 C   0  0  0  0  0  0  0  0  0  0  0  0
  -58.4805  -21.0466    3.0765 C   0  0  0  0  0  0  0  0  0  0  0  0
  -59.2169  -22.2094    3.0372 C   0  0  0  0  0  0  0  0  0  0  0  0
  -59.5468  -22.7744    1.8279 C   0  0  0  0  0  0  0  0  0  0  0  0
  -57.6711  -21.7289   -4.6864 C   0  0  0  0  0  0  0  0  0  0  0  0
  -57.6696  -22.2305   -6.0316 O   0  0  0  0  0  0  0  0  0  0  0  0
  -56.5022  -21.7550   -6.7321 C   0  0  0  0  0  0  0  0  0  0  0  0
  -55.5671  -21.1567   -5.6511 C   0  0  0  0  0  0  0  0  0  0  0  0
  -56.1880  -21.5880   -4.3158 C   0  0  0  0  0  0  0  0  0  0  0  0
  -55.6277  -22.8451   -3.9055 O   0  0  0  0  0  0  0  0  0  0  0  0
  -54.2083  -21.6109   -5.7583 O   0  0  0  0  0  0  0  0  0  0  0  0
  -55.9149  -22.9001   -7.5526 C   0  0  0  0  0  0  0  0  0  0  0  0
  -56.9227  -20.6847   -7.6474 C   0  0  0  0  0  0  0  0  0  0  0  0
  -57.2470  -19.8566   -8.3546 N   0  0  0  0  0  0  0  0  0  0  0  0
  -54.9725  -22.7044   -8.5091 N   0  0  0  0  0  0  0  0  0  0  0  0
  -54.7146  -23.9398   -9.0129 C   0  0  0  0  0  0  0  0  0  0  0  0
  -55.4623  -24.8901   -8.3958 C   0  0  0  0  0  0  0  0  0  0  0  0
  -56.2362  -24.2074   -7.4536 C   0  0  0  0  0  0  0  0  0  0  0  0
  -54.3235  -21.6006   -8.9855 N   0  0  0  0  0  0  0  0  0  0  0  0
  -53.4472  -21.7752   -9.9469 C   0  0  0  0  0  0  0  0  0  0  0  0
  -53.1106  -22.9691  -10.5328 N   0  0  0  0  0  0  0  0  0  0  0  0
  -53.7548  -24.0426  -10.0538 C   0  0  0  0  0  0  0  0  0  0  0  0
  -53.4504  -25.2601  -10.6148 N   0  0  0  0  0  0  0  0  0  0  0  0
  -62.0049  -22.3953   -3.6577 H   0  0  0  0  0  0  0  0  0  0  0  0
  -63.5878  -24.1663   -2.7945 H   0  0  0  0  0  0  0  0  0  0  0  0
  -60.7450  -24.2890   -0.8918 H   0  0  0  0  0  0  0  0  0  0  0  0
  -58.1433  -20.8508   -4.6119 H   0  0  0  0  0  0  0  0  0  0  0  0
  -55.5039  -20.1635   -5.7499 H   0  0  0  0  0  0  0  0  0  0  0  0
  -56.0306  -20.9568   -3.5560 H   0  0  0  0  0  0  0  0  0  0  0  0
  -60.3786  -18.2952   -4.6937 H   0  0  0  0  0  0  0  0  0  0  0  0
  -60.8492  -20.5359   -4.0671 H   0  0  0  0  0  0  0  0  0  0  0  0
  -62.1059  -19.2380   -0.3708 H   0  0  0  0  0  0  0  0  0  0  0  0
  -61.6378  -16.9970   -0.9979 H   0  0  0  0  0  0  0  0  0  0  0  0
  -60.7745  -16.5232   -3.1609 H   0  0  0  0  0  0  0  0  0  0  0  0
  -62.3816  -21.4865   -0.9355 H   0  0  0  0  0  0  0  0  0  0  0  0
  -60.9329  -21.9524   -1.6275 H   0  0  0  0  0  0  0  0  0  0  0  0
  -64.4127  -21.6431   -2.4065 H   0  0  0  0  0  0  0  0  0  0  0  0
  -64.3384  -22.1388   -3.7800 H   0  0  0  0  0  0  0  0  0  0  0  0
  -63.6811  -23.1822   -0.6330 H   0  0  0  0  0  0  0  0  0  0  0  0
  -61.0625  -24.2314   -3.4620 H   0  0  0  0  0  0  0  0  0  0  0  0
  -61.9419  -25.5766   -2.9909 H   0  0  0  0  0  0  0  0  0  0  0  0
  -60.8705  -27.0496   -1.6801 H   0  0  0  0  0  0  0  0  0  0  0  0
  -61.6189  -26.2960   -0.3901 H   0  0  0  0  0  0  0  0  0  0  0  0
  -60.1843  -25.5340    1.5270 H   0  0  0  0  0  0  0  0  0  0  0  0
  -58.4827  -26.2633    3.0120 H   0  0  0  0  0  0  0  0  0  0  0  0
  -56.9962  -27.9988    2.3578 H   0  0  0  0  0  0  0  0  0  0  0  0
  -57.2173  -29.0029    0.2149 H   0  0  0  0  0  0  0  0  0  0  0  0
  -58.9195  -28.2734   -1.2695 H   0  0  0  0  0  0  0  0  0  0  0  0
  -59.0731  -24.7680   -3.0046 H   0  0  0  0  0  0  0  0  0  0  0  0
  -59.3784  -22.2803   -3.6072 H   0  0  0  0  0  0  0  0  0  0  0  0
  -58.4893  -23.5614   -4.1220 H   0  0  0  0  0  0  0  0  0  0  0  0
  -58.1151  -20.5681   -0.1554 H   0  0  0  0  0  0  0  0  0  0  0  0
  -57.5404  -19.6020    1.9357 H   0  0  0  0  0  0  0  0  0  0  0  0
  -58.2395  -20.6377    3.9568 H   0  0  0  0  0  0  0  0  0  0  0  0
  -59.5121  -22.6431    3.8883 H   0  0  0  0  0  0  0  0  0  0  0  0
  -60.0799  -23.6202    1.8004 H   0  0  0  0  0  0  0  0  0  0  0  0
  -56.1604  -23.6183   -4.2660 H   0  0  0  0  0  0  0  0  0  0  0  0
  -54.1563  -22.6152   -5.7396 H   0  0  0  0  0  0  0  0  0  0  0  0
  -55.4599  -25.8735   -8.5777 H   0  0  0  0  0  0  0  0  0  0  0  0
  -56.9015  -24.6107   -6.8253 H   0  0  0  0  0  0  0  0  0  0  0  0
  -52.9792  -20.9586  -10.2851 H   0  0  0  0  0  0  0  0  0  0  0  0
  -52.8542  -25.3071  -11.2603 H   0  0  0  0  0  0  0  0  0  0  0  0
  -53.8493  -25.9930  -10.3331 H   0  0  0  0  0  0  0  0  0  0  0  0
  -63.6842  -20.6844   -3.4913 H   0  0  0  0  0  0  0  0  0  0  0  0
  1  2  2  0
  2  3  1  0
  3  4  2  0
  3  7  1  0
  4  5  1  0
  5  6  2  0
  6  1  1  0
  7  8  1  0
  8  9  1  0
  8 10  1  0
 10 11  1  0
 10 12  1  0
 12 13  1  0
 13 14  1  0
 13 21  1  0
 14 15  1  0
 15 16  2  0
 16 17  1  0
 17 18  2  0
 18 19  1  0
 19 20  2  0
 20 15  1  0
 21 22  1  0
 22 23  1  0
 22 24  1  0
 22 25  2  0
 23 26  1  0
 24 27  1  0
 27 28  2  0
 28 29  1  0
 29 30  2  0
 30 31  1  0
 31 32  2  0
 32 27  1  0
 33 26  1  0
 33 34  1  0
 34 35  1  0
 35 36  1  0
 35 40  1  0
 35 41  1  0
 36 37  1  0
 36 39  1  0
 37 33  1  0
 37 38  1  0
 40 43  1  0
 41 42  3  0
 43 44  1  0
 43 47  1  0
 44 45  2  0
 45 46  1  0
 46 40  2  0
 47 48  2  0
 48 49  1  0
 49 50  2  0
 50 44  1  0
 50 51  1  0
  1 58  1  0
  2 59  1  0
  4 60  1  0
  5 61  1  0
  6 62  1  0
  7 63  1  0
  7 64  1  0
  8 52  1  0
  9 65  1  0
  9 66  1  0
  9 92  1  0
 10 53  1  0
 11 67  1  0
 12 68  1  0
 12 69  1  0
 13 54  1  0
 14 70  1  0
 14 71  1  0
 16 72  1  0
 17 73  1  0
 18 74  1  0
 19 75  1  0
 20 76  1  0
 21 77  1  0
 26 78  1  0
 26 79  1  0
 28 80  1  0
 29 81  1  0
 30 82  1  0
 31 83  1  0
 32 84  1  0
 33 55  1  0
 36 56  1  0
 37 57  1  0
 38 85  1  0
 39 86  1  0
 45 87  1  0
 46 88  1  0
 48 89  1  0
 51 90  1  0
 51 91  1  0
M  CHG  1   9   1
M  END
>  <LF dG>
-8.252

>  <LF VSscore>
-15.175

>  <LF Rank Score>
-15.85

>  <LF LE>
-0.162

>  <LF Structure Name>
C:\Users\Odara\AppData\Local\Temp\LeadFinder_9508_1\Ligand_1.sdf

>  <LF SDF id>
0

>  <LF Pose rank>
0

>  <LF version>
2001 1, 19 January 2019

>  <Favorite_cresset>
false

>  <MW_cresset>
714.7

>  <#Atoms_cresset>
51

>  <SlogP_cresset>
4

>  <TPSA_cresset>
225.1

>  <Flexibility_cresset>
17.1

>  <#RB_cresset>
18

>  <Rof5_cresset>
3

>  <Filename_cresset>
drag.1_225.sdf

>  <Confs_cresset>
0

>  <Poses_cresset>
0

$$$$
W_Site2_VTRRT_D
  xed2sdf_05210316543D
 
 92 97  0  0  1  0  0  0  0  0999 V2000
  -68.2323  -24.6410    0.9817 C   0  0  0  0  0  0  0  0  0  0  0  0
  -67.0621  -24.8277    0.2814 C   0  0  0  0  0  0  0  0  0  0  0  0
  -67.0952  -25.0953   -1.0700 C   0  0  0  0  0  0  0  0  0  0  0  0
  -68.3107  -25.1731   -1.7149 C   0  0  0  0  0  0  0  0  0  0  0  0
  -69.4818  -24.9862   -1.0168 C   0  0  0  0  0  0  0  0  0  0  0  0
  -69.4429  -24.7196    0.3326 C   0  0  0  0  0  0  0  0  0  0  0  0
  -65.8022  -25.3001   -1.8466 C   0  0  0  0  0  0  0  0  0  0  0  0
  -64.6806  -24.2821   -1.5373 C   0  0  0  0  0  0  0  0  0  0  0  0
  -64.6577  -23.2401   -2.6234 N   0  3  0  0  0  0  0  0  0  0  0  0
  -63.3060  -24.9851   -1.4119 C   0  0  0  0  0  0  0  0  0  0  0  0
  -63.2701  -25.8286   -0.2491 O   0  0  0  0  0  0  0  0  0  0  0  0
  -62.1626  -23.9424   -1.3485 C   0  0  0  0  0  0  0  0  0  0  0  0
  -60.7612  -24.4595   -1.7590 C   0  0  0  0  0  0  0  0  0  0  0  0
  -60.6265  -25.9920   -1.5923 C   0  0  0  0  0  0  0  0  0  0  0  0
  -59.6258  -26.4418   -0.5368 C   0  0  0  0  0  0  0  0  0  0  0  0
  -59.4884  -25.7320    0.6364 C   0  0  0  0  0  0  0  0  0  0  0  0
  -58.5879  -26.1394    1.5943 C   0  0  0  0  0  0  0  0  0  0  0  0
  -57.8182  -27.2602    1.3834 C   0  0  0  0  0  0  0  0  0  0  0  0
  -57.9510  -27.9721    0.2134 C   0  0  0  0  0  0  0  0  0  0  0  0
  -58.8522  -27.5633   -0.7432 C   0  0  0  0  0  0  0  0  0  0  0  0
  -60.3645  -24.0591   -3.1188 N   0  0  0  0  0  0  0  0  0  0  0  0
  -60.1657  -22.5759   -3.2947 P   0  0  0  0  0  0  0  0  0  0  0  0
  -59.2066  -22.2994   -4.5569 O   0  0  0  0  0  0  0  0  0  0  0  0
  -61.5372  -21.8481   -3.7205 O   0  0  0  0  0  0  0  0  0  0  0  0
  -59.5778  -21.9525   -2.0548 O   0  0  0  0  0  0  0  0  0  0  0  0
  -57.8084  -22.0654   -4.3205 C   0  0  0  0  0  0  0  0  0  0  0  0
  -61.7784  -20.5548   -3.3646 C   0  0  0  0  0  0  0  0  0  0  0  0
  -60.9068  -19.5606   -3.7634 C   0  0  0  0  0  0  0  0  0  0  0  0
  -61.1441  -18.2534   -3.4103 C   0  0  0  0  0  0  0  0  0  0  0  0
  -62.2545  -17.9325   -2.6619 C   0  0  0  0  0  0  0  0  0  0  0  0
  -63.1283  -18.9202   -2.2653 C   0  0  0  0  0  0  0  0  0  0  0  0
  -62.8918  -20.2289   -2.6139 C   0  0  0  0  0  0  0  0  0  0  0  0
  -57.1955  -21.2029   -5.4389 C   0  0  0  0  0  0  0  0  0  0  0  0
  -57.2007  -21.8770   -6.7064 O   0  0  0  0  0  0  0  0  0  0  0  0
  -56.1392  -21.3668   -7.5386 C   0  0  0  0  0  0  0  0  0  0  0  0
  -55.2317  -20.5236   -6.6078 C   0  0  0  0  0  0  0  0  0  0  0  0
  -55.7247  -20.8411   -5.1898 C   0  0  0  0  0  0  0  0  0  0  0  0
  -54.9916  -21.9574   -4.6617 O   0  0  0  0  0  0  0  0  0  0  0  0
  -53.8342  -20.8261   -6.7477 O   0  0  0  0  0  0  0  0  0  0  0  0
  -55.4566  -22.5352   -8.2446 C   0  0  0  0  0  0  0  0  0  0  0  0
  -56.7363  -20.4857   -8.5522 C   0  0  0  0  0  0  0  0  0  0  0  0
  -57.1972  -19.8038   -9.3354 N   0  0  0  0  0  0  0  0  0  0  0  0
  -54.5559  -22.3588   -9.2439 N   0  0  0  0  0  0  0  0  0  0  0  0
  -54.1863  -23.6125   -9.6156 C   0  0  0  0  0  0  0  0  0  0  0  0
  -54.8250  -24.5547   -8.8759 C   0  0  0  0  0  0  0  0  0  0  0  0
  -55.6453  -23.8478   -7.9925 C   0  0  0  0  0  0  0  0  0  0  0  0
  -54.0281  -21.2584   -9.8580 N   0  0  0  0  0  0  0  0  0  0  0  0
  -53.1565  -21.4551  -10.8194 C   0  0  0  0  0  0  0  0  0  0  0  0
  -52.7142  -22.6694  -11.2796 N   0  0  0  0  0  0  0  0  0  0  0  0
  -53.2402  -23.7391  -10.6664 C   0  0  0  0  0  0  0  0  0  0  0  0
  -52.8272  -24.9770  -11.0983 N   0  0  0  0  0  0  0  0  0  0  0  0
  -64.8659  -23.8426   -0.6585 H   0  0  0  0  0  0  0  0  0  0  0  0
  -63.1751  -25.5549   -2.2233 H   0  0  0  0  0  0  0  0  0  0  0  0
  -60.1288  -24.0165   -1.1237 H   0  0  0  0  0  0  0  0  0  0  0  0
  -57.7692  -20.3840   -5.4450 H   0  0  0  0  0  0  0  0  0  0  0  0
  -55.2981  -19.5522   -6.8361 H   0  0  0  0  0  0  0  0  0  0  0  0
  -55.6083  -20.0996   -4.5288 H   0  0  0  0  0  0  0  0  0  0  0  0
  -68.2025  -24.4483    1.9625 H   0  0  0  0  0  0  0  0  0  0  0  0
  -66.1836  -24.7686    0.7555 H   0  0  0  0  0  0  0  0  0  0  0  0
  -68.3419  -25.3666   -2.6955 H   0  0  0  0  0  0  0  0  0  0  0  0
  -70.3609  -25.0440   -1.4898 H   0  0  0  0  0  0  0  0  0  0  0  0
  -70.2932  -24.5833    0.8406 H   0  0  0  0  0  0  0  0  0  0  0  0
  -66.0137  -25.2444   -2.8224 H   0  0  0  0  0  0  0  0  0  0  0  0
  -65.4493  -26.1933   -1.5674 H   0  0  0  0  0  0  0  0  0  0  0  0
  -65.4365  -23.2267   -3.0938 H   0  0  0  0  0  0  0  0  0  0  0  0
  -63.9894  -23.3898   -3.2229 H   0  0  0  0  0  0  0  0  0  0  0  0
  -63.6090  -26.7532   -0.4527 H   0  0  0  0  0  0  0  0  0  0  0  0
  -62.1050  -23.6036   -0.4093 H   0  0  0  0  0  0  0  0  0  0  0  0
  -62.3988  -23.2370   -2.0168 H   0  0  0  0  0  0  0  0  0  0  0  0
  -60.3467  -26.3771   -2.4718 H   0  0  0  0  0  0  0  0  0  0  0  0
  -61.5201  -26.3176   -1.2835 H   0  0  0  0  0  0  0  0  0  0  0  0
  -60.0458  -24.9167    0.7928 H   0  0  0  0  0  0  0  0  0  0  0  0
  -58.4932  -25.6205    2.4440 H   0  0  0  0  0  0  0  0  0  0  0  0
  -57.1638  -27.5567    2.0788 H   0  0  0  0  0  0  0  0  0  0  0  0
  -57.3926  -28.7869    0.0582 H   0  0  0  0  0  0  0  0  0  0  0  0
  -58.9457  -28.0828   -1.5927 H   0  0  0  0  0  0  0  0  0  0  0  0
  -59.5219  -24.5673   -3.4123 H   0  0  0  0  0  0  0  0  0  0  0  0
  -57.3306  -22.9429   -4.2820 H   0  0  0  0  0  0  0  0  0  0  0  0
  -57.7098  -21.5769   -3.4535 H   0  0  0  0  0  0  0  0  0  0  0  0
  -60.1019  -19.7919   -4.3100 H   0  0  0  0  0  0  0  0  0  0  0  0
  -60.5103  -17.5351   -3.6971 H   0  0  0  0  0  0  0  0  0  0  0  0
  -62.4267  -16.9813   -2.4058 H   0  0  0  0  0  0  0  0  0  0  0  0
  -63.9354  -18.6854   -1.7238 H   0  0  0  0  0  0  0  0  0  0  0  0
  -63.5259  -20.9458   -2.3238 H   0  0  0  0  0  0  0  0  0  0  0  0
  -55.3186  -22.8262   -5.0491 H   0  0  0  0  0  0  0  0  0  0  0  0
  -53.2796  -20.3014   -6.0923 H   0  0  0  0  0  0  0  0  0  0  0  0
  -54.7286  -25.5475   -8.9480 H   0  0  0  0  0  0  0  0  0  0  0  0
  -56.2558  -24.2399   -7.3043 H   0  0  0  0  0  0  0  0  0  0  0  0
  -52.7779  -20.6406  -11.2591 H   0  0  0  0  0  0  0  0  0  0  0  0
  -52.2412  -25.0389  -11.7518 H   0  0  0  0  0  0  0  0  0  0  0  0
  -53.1464  -25.7085  -10.7258 H   0  0  0  0  0  0  0  0  0  0  0  0
  -64.5082  -22.2707   -2.1715 H   0  0  0  0  0  0  0  0  0  0  0  0
  1  2  2  0
  2  3  1  0
  3  4  2  0
  3  7  1  0
  4  5  1  0
  5  6  2  0
  6  1  1  0
  7  8  1  0
  8  9  1  0
  8 10  1  0
 10 11  1  0
 10 12  1  0
 12 13  1  0
 13 14  1  0
 13 21  1  0
 14 15  1  0
 15 16  2  0
 16 17  1  0
 17 18  2  0
 18 19  1  0
 19 20  2  0
 20 15  1  0
 21 22  1  0
 22 23  1  0
 22 24  1  0
 22 25  2  0
 23 26  1  0
 24 27  1  0
 27 28  2  0
 28 29  1  0
 29 30  2  0
 30 31  1  0
 31 32  2  0
 32 27  1  0
 33 26  1  0
 33 34  1  0
 34 35  1  0
 35 36  1  0
 35 40  1  0
 35 41  1  0
 36 37  1  0
 36 39  1  0
 37 33  1  0
 37 38  1  0
 40 43  1  0
 41 42  3  0
 43 44  1  0
 43 47  1  0
 44 45  2  0
 45 46  1  0
 46 40  2  0
 47 48  2  0
 48 49  1  0
 49 50  2  0
 50 44  1  0
 50 51  1  0
  1 58  1  0
  2 59  1  0
  4 60  1  0
  5 61  1  0
  6 62  1  0
  7 63  1  0
  7 64  1  0
  8 52  1  0
  9 65  1  0
  9 66  1  0
  9 92  1  0
 10 53  1  0
 11 67  1  0
 12 68  1  0
 12 69  1  0
 13 54  1  0
 14 70  1  0
 14 71  1  0
 16 72  1  0
 17 73  1  0
 18 74  1  0
 19 75  1  0
 20 76  1  0
 21 77  1  0
 26 78  1  0
 26 79  1  0
 28 80  1  0
 29 81  1  0
 30 82  1  0
 31 83  1  0
 32 84  1  0
 33 55  1  0
 36 56  1  0
 37 57  1  0
 38 85  1  0
 39 86  1  0
 45 87  1  0
 46 88  1  0
 48 89  1  0
 51 90  1  0
 51 91  1  0
M  CHG  1   9   1
M  END
>  <LF dG>
-10.608

>  <LF VSscore>
-15.185

>  <LF Rank Score>
-16.351

>  <LF LE>
-0.208

>  <LF Structure Name>
C:\Users\Odara\AppData\Local\Temp\LeadFinder_13532_1\Ligand_1.sdf

>  <LF SDF id>
0

>  <LF Pose rank>
0

>  <LF version>
2001 1, 19 January 2019

>  <Favorite_cresset>
false

>  <MW_cresset>
714.7

>  <#Atoms_cresset>
51

>  <SlogP_cresset>
4

>  <TPSA_cresset>
225.1

>  <Flexibility_cresset>
17.1

>  <#RB_cresset>
18

>  <Rof5_cresset>
3

>  <Filename_cresset>
drag.57_360.sdf

>  <Confs_cresset>
0

>  <Poses_cresset>
0

$$$$
