NHC.pdb
  RxDock  02242101293D
librxdock.so/0.1.0
 23 24  0  0  0  0  0  0  0  0999 V2000
  -49.4359   -1.5448   15.3592 O   0  0  0  0  0  0
  -48.1806    0.7854   12.9399 O   0  0  0  0  0  0
  -50.8167    0.2718   13.4141 O   0  0  0  0  0  0
  -49.9438   -4.1666   14.9145 O   0  0  0  0  0  0
  -47.0472    0.8112   16.9677 O   0  0  0  0  0  0
  -42.9019   -1.2029   17.7173 O   0  0  0  0  0  0
  -47.1841   -0.9246   15.4538 N   0  0  0  0  0  0
  -45.2767   -0.6075   16.8974 N   0  0  0  0  0  0
  -43.4646   -2.0626   16.8191 N   0  0  0  0  0  0
  -48.5256   -0.4891   13.4435 C   0  0  0  0  0  0
  -49.9687   -0.8482   13.1591 C   0  0  0  0  0  0
  -48.4786   -0.5506   14.9597 C   0  0  0  0  0  0
  -50.2507   -1.9013   14.2219 C   0  0  0  0  0  0
  -49.8685   -3.3109   13.7885 C   0  0  0  0  0  0
  -46.5639   -2.0418   14.9157 C   0  0  0  0  0  0
  -46.5246   -0.1869   16.4698 C   0  0  0  0  0  0
  -45.3637   -2.4602   15.3121 C   0  0  0  0  0  0
  -44.7056   -1.6624   16.3792 C   0  0  0  0  0  0
  -48.9346    1.3770   13.1007 H   0  0  0  0  0  0
  -51.6844    0.1116   13.0080 H   0  0  0  0  0  0
  -49.4103   -3.7598   15.6188 H   0  0  0  0  0  0
  -42.9331   -2.8608   16.4922 H   0  0  0  0  0  0
  -43.5608   -0.4898   17.7531 H   0  0  0  0  0  0
  1 12  1  0  0  0
  1 13  1  0  0  0
  2 10  1  0  0  0
  2 19  1  0  0  0
  3 11  1  0  0  0
  3 20  1  0  0  0
  4 14  1  0  0  0
  4 21  1  0  0  0
  5 16  2  0  0  0
  6  9  1  0  0  0
  6 23  1  0  0  0
  7 12  1  0  0  0
  7 15  1  0  0  0
  7 16  1  0  0  0
  8 16  1  0  0  0
  8 18  2  0  0  0
  9 18  1  0  0  0
  9 22  1  0  0  0
 10 11  1  0  0  0
 11 13  1  0  0  0
 12 10  1  0  0  0
 13 14  1  0  0  0
 15 17  2  0  0  0
 17 18  1  0  0  0
M  END
>  <CHROM.0>
-179.92718888,64.73686151,174.22119161

>  <CHROM.1>
39.77381223,164.89129025,-52.66919944,-3.00968663,68.24417592,-5.19862397
52.64061008,-47.50820928,-1.20879981,15.17629915,3.08974291,-0.49427848,-0.11732563

>  <Name>
NHC.pdb

>  <RI>
-9.57013e+08

>  <Rbt.Current_Directory>
/root/miniconda3/envs/rdock/share/rxdock-2013.1.1_148c5bd1-0/data/ligands/prepped_ligands/NHC

>  <Rbt.Executable>
rbdock/0.1.0

>  <Rbt.Library>
librxdock.so/0.1.0

>  <Rbt.Parameter_File>
/root/miniconda3/envs/rdock/share/rxdock-2013.1.1_148c5bd1-0/data/scripts/dock.prm

>  <Rbt.Receptor>
def.prm

>  <SCORE>
-14.1146

>  <SCORE.INTER>
-12.7184

>  <SCORE.INTER.CONST>
1

>  <SCORE.INTER.POLAR>
-1.94746

>  <SCORE.INTER.REPUL>
0.0958686

>  <SCORE.INTER.ROT>
3

>  <SCORE.INTER.VDW>
-14.9763

>  <SCORE.INTER.norm>
-0.706576

>  <SCORE.INTRA>
-0.40127

>  <SCORE.INTRA.DIHEDRAL>
0.811046

>  <SCORE.INTRA.DIHEDRAL.0>
5.29717

>  <SCORE.INTRA.POLAR>
-0.766676

>  <SCORE.INTRA.POLAR.0>
0

>  <SCORE.INTRA.REPUL>
0

>  <SCORE.INTRA.REPUL.0>
0

>  <SCORE.INTRA.VDW>
1.79991

>  <SCORE.INTRA.VDW.0>
-0.818277

>  <SCORE.INTRA.norm>
-0.0222928

>  <SCORE.RESTR>
0

>  <SCORE.RESTR.CAVITY>
0

>  <SCORE.RESTR.norm>
0

>  <SCORE.SYSTEM>
-0.994939

>  <SCORE.SYSTEM.CONST>
0

>  <SCORE.SYSTEM.DIHEDRAL>
0.196728

>  <SCORE.SYSTEM.VDW>
-1.0933

>  <SCORE.SYSTEM.norm>
-0.0552744

>  <SCORE.heavy>
18

>  <SCORE.norm>
-0.784144

$$$$
NHC.pdb
  RxDock  02242101293D
librxdock.so/0.1.0
 23 24  0  0  0  0  0  0  0  0999 V2000
  -45.7177   -2.7191   17.6792 O   0  0  0  0  0  0
  -44.3437   -1.9913   14.4479 O   0  0  0  0  0  0
  -42.9019   -2.2863   16.7441 O   0  0  0  0  0  0
  -46.4822   -0.8737   19.5468 O   0  0  0  0  0  0
  -47.8663   -3.9707   17.7193 O   0  0  0  0  0  0
  -51.7991   -3.9024   15.1974 O   0  0  0  0  0  0
  -47.0738   -2.9785   15.7929 N   0  0  0  0  0  0
  -49.3907   -3.5874   16.0819 N   0  0  0  0  0  0
  -50.9475   -3.1945   14.3998 N   0  0  0  0  0  0
  -44.9834   -1.6954   15.6728 C   0  0  0  0  0  0
  -43.9957   -1.3689   16.7729 C   0  0  0  0  0  0
  -45.7170   -2.8913   16.2527 C   0  0  0  0  0  0
  -44.8110   -1.6509   18.0274 C   0  0  0  0  0  0
  -45.6391   -0.4577   18.4876 C   0  0  0  0  0  0
  -47.3793   -2.5017   14.5274 C   0  0  0  0  0  0
  -48.1043   -3.5368   16.5914 C   0  0  0  0  0  0
  -48.6093   -2.5437   14.0194 C   0  0  0  0  0  0
  -49.6618   -3.1343   14.8866 C   0  0  0  0  0  0
  -45.0377   -2.1305   13.7820 H   0  0  0  0  0  0
  -43.2493   -3.1929   16.7123 H   0  0  0  0  0  0
  -47.0255   -1.6063   19.2089 H   0  0  0  0  0  0
  -51.2770   -2.8388   13.5103 H   0  0  0  0  0  0
  -52.6647   -3.6747   14.8194 H   0  0  0  0  0  0
  1 12  1  0  0  0
  1 13  1  0  0  0
  2 10  1  0  0  0
  2 19  1  0  0  0
  3 11  1  0  0  0
  3 20  1  0  0  0
  4 14  1  0  0  0
  4 21  1  0  0  0
  5 16  2  0  0  0
  6  9  1  0  0  0
  6 23  1  0  0  0
  7 12  1  0  0  0
  7 15  1  0  0  0
  7 16  1  0  0  0
  8 16  1  0  0  0
  8 18  2  0  0  0
  9 18  1  0  0  0
  9 22  1  0  0  0
 10 11  1  0  0  0
 11 13  1  0  0  0
 12 10  1  0  0  0
 13 14  1  0  0  0
 15 17  2  0  0  0
 17 18  1  0  0  0
M  END
>  <CHROM.0>
-36.17543230,-65.62297852,55.56060900

>  <CHROM.1>
-176.28703292,-49.87872923,-57.61131659,167.90335286,148.69994640,-7.91295484
55.49995968,-46.95888234,-2.52067853,16.30227877,0.38144773,0.23226361,1.40702819

>  <Name>
NHC.pdb

>  <RI>
-9.57013e+08

>  <Rbt.Current_Directory>
/root/miniconda3/envs/rdock/share/rxdock-2013.1.1_148c5bd1-0/data/ligands/prepped_ligands/NHC

>  <Rbt.Executable>
rbdock/0.1.0

>  <Rbt.Library>
librxdock.so/0.1.0

>  <Rbt.Parameter_File>
/root/miniconda3/envs/rdock/share/rxdock-2013.1.1_148c5bd1-0/data/scripts/dock.prm

>  <Rbt.Receptor>
def.prm

>  <SCORE>
-11.5662

>  <SCORE.INTER>
-12.3612

>  <SCORE.INTER.CONST>
1

>  <SCORE.INTER.POLAR>
-1.77781

>  <SCORE.INTER.REPUL>
0

>  <SCORE.INTER.ROT>
3

>  <SCORE.INTER.VDW>
-14.7166

>  <SCORE.INTER.norm>
-0.686731

>  <SCORE.INTRA>
1.01845

>  <SCORE.INTRA.DIHEDRAL>
-1.48725

>  <SCORE.INTRA.DIHEDRAL.0>
5.29717

>  <SCORE.INTRA.POLAR>
-0.0677547

>  <SCORE.INTRA.POLAR.0>
0

>  <SCORE.INTRA.REPUL>
0

>  <SCORE.INTRA.REPUL.0>
0

>  <SCORE.INTRA.VDW>
1.99245

>  <SCORE.INTRA.VDW.0>
-0.818277

>  <SCORE.INTRA.norm>
0.0565808

>  <SCORE.RESTR>
0

>  <SCORE.RESTR.CAVITY>
0

>  <SCORE.RESTR.norm>
0

>  <SCORE.SYSTEM>
-0.223456

>  <SCORE.SYSTEM.CONST>
0

>  <SCORE.SYSTEM.DIHEDRAL>
1.42172

>  <SCORE.SYSTEM.VDW>
-0.934317

>  <SCORE.SYSTEM.norm>
-0.0124142

>  <SCORE.heavy>
18

>  <SCORE.norm>
-0.642565

$$$$
NHC.pdb
  RxDock  02242101293D
librxdock.so/0.1.0
 23 24  0  0  0  0  0  0  0  0999 V2000
  -49.1499   -1.0064   15.5794 O   0  0  0  0  0  0
  -48.3491   -2.9014   12.6424 O   0  0  0  0  0  0
  -50.6946   -1.5784   13.0740 O   0  0  0  0  0  0
  -50.6159   -1.9557   17.7990 O   0  0  0  0  0  0
  -47.6235   -3.4866   16.4372 O   0  0  0  0  0  0
  -43.2172   -3.1703   17.9500 O   0  0  0  0  0  0
  -46.9312   -1.6506   15.2234 N   0  0  0  0  0  0
  -45.4631   -2.8491   16.7169 N   0  0  0  0  0  0
  -43.2513   -2.1899   17.0013 N   0  0  0  0  0  0
  -48.7641   -2.7107   13.9797 C   0  0  0  0  0  0
  -50.2563   -2.4796   14.0911 C   0  0  0  0  0  0
  -48.2019   -1.4397   14.5905 C   0  0  0  0  0  0
  -50.3692   -1.7652   15.4309 C   0  0  0  0  0  0
  -50.4808   -2.7189   16.6137 C   0  0  0  0  0  0
  -45.8864   -0.7910   14.9209 C   0  0  0  0  0  0
  -46.7161   -2.7064   16.1455 C   0  0  0  0  0  0
  -44.6756   -0.9107   15.4616 C   0  0  0  0  0  0
  -44.4890   -2.0297   16.4215 C   0  0  0  0  0  0
  -48.4660   -2.0562   12.1769 H   0  0  0  0  0  0
  -50.3010   -1.8416   12.2259 H   0  0  0  0  0  0
  -51.4181   -1.4145   17.7009 H   0  0  0  0  0  0
  -42.4284   -1.6207   16.8424 H   0  0  0  0  0  0
  -42.2622   -3.2813   18.0902 H   0  0  0  0  0  0
  1 12  1  0  0  0
  1 13  1  0  0  0
  2 10  1  0  0  0
  2 19  1  0  0  0
  3 11  1  0  0  0
  3 20  1  0  0  0
  4 14  1  0  0  0
  4 21  1  0  0  0
  5 16  2  0  0  0
  6  9  1  0  0  0
  6 23  1  0  0  0
  7 12  1  0  0  0
  7 15  1  0  0  0
  7 16  1  0  0  0
  8 16  1  0  0  0
  8 18  2  0  0  0
  9 18  1  0  0  0
  9 22  1  0  0  0
 10 11  1  0  0  0
 11 13  1  0  0  0
 12 10  1  0  0  0
 13 14  1  0  0  0
 15 17  2  0  0  0
 17 18  1  0  0  0
M  END
>  <CHROM.0>
-173.65624395,64.49892487,55.89122985

>  <CHROM.1>
68.02721922,45.80890327,59.46966949,167.42160030,-111.53332964,-5.41233946
64.46493806,-47.55029295,-2.14506400,15.56547396,2.79964022,-0.00904246,-1.41139757

>  <Name>
NHC.pdb

>  <RI>
-9.57013e+08

>  <Rbt.Current_Directory>
/root/miniconda3/envs/rdock/share/rxdock-2013.1.1_148c5bd1-0/data/ligands/prepped_ligands/NHC

>  <Rbt.Executable>
rbdock/0.1.0

>  <Rbt.Library>
librxdock.so/0.1.0

>  <Rbt.Parameter_File>
/root/miniconda3/envs/rdock/share/rxdock-2013.1.1_148c5bd1-0/data/scripts/dock.prm

>  <Rbt.Receptor>
def.prm

>  <SCORE>
-16.127

>  <SCORE.INTER>
-15.1893

>  <SCORE.INTER.CONST>
1

>  <SCORE.INTER.POLAR>
-2.76378

>  <SCORE.INTER.REPUL>
0.114328

>  <SCORE.INTER.ROT>
3

>  <SCORE.INTER.VDW>
-14.7641

>  <SCORE.INTER.norm>
-0.843853

>  <SCORE.INTRA>
-0.0191601

>  <SCORE.INTRA.DIHEDRAL>
-0.913682

>  <SCORE.INTRA.DIHEDRAL.0>
5.29717

>  <SCORE.INTRA.POLAR>
0

>  <SCORE.INTRA.POLAR.0>
0

>  <SCORE.INTRA.REPUL>
0

>  <SCORE.INTRA.REPUL.0>
0

>  <SCORE.INTRA.VDW>
0.437681

>  <SCORE.INTRA.VDW.0>
-0.818277

>  <SCORE.INTRA.norm>
-0.00106445

>  <SCORE.RESTR>
0.0163915

>  <SCORE.RESTR.CAVITY>
0.0163915

>  <SCORE.RESTR.norm>
0.000910638

>  <SCORE.SYSTEM>
-0.934935

>  <SCORE.SYSTEM.CONST>
0

>  <SCORE.SYSTEM.DIHEDRAL>
0.238218

>  <SCORE.SYSTEM.VDW>
-1.05404

>  <SCORE.SYSTEM.norm>
-0.0519409

>  <SCORE.heavy>
18

>  <SCORE.norm>
-0.895947

$$$$
NHC.pdb
  RxDock  02242101293D
librxdock.so/0.1.0
 23 24  0  0  0  0  0  0  0  0999 V2000
  -45.7802   -1.7590   18.6047 O   0  0  0  0  0  0
  -43.0594   -2.1696   16.3052 O   0  0  0  0  0  0
  -42.9054   -2.5105   19.0067 O   0  0  0  0  0  0
  -44.1429    1.1755   20.0030 O   0  0  0  0  0  0
  -47.2017   -3.9807   16.3327 O   0  0  0  0  0  0
  -49.8413   -1.9542   13.0607 O   0  0  0  0  0  0
  -46.2458   -1.8808   16.3172 N   0  0  0  0  0  0
  -48.0954   -2.4766   14.8866 N   0  0  0  0  0  0
  -49.0053   -0.9321   13.4054 N   0  0  0  0  0  0
  -43.9643   -1.4471   17.1153 C   0  0  0  0  0  0
  -43.4610   -1.2831   18.5338 C   0  0  0  0  0  0
  -45.2741   -2.1843   17.3289 C   0  0  0  0  0  0
  -44.7503   -1.0256   19.3018 C   0  0  0  0  0  0
  -45.1510    0.4440   19.3290 C   0  0  0  0  0  0
  -46.2583   -0.6082   15.7671 C   0  0  0  0  0  0
  -47.1870   -2.8410   15.8658 C   0  0  0  0  0  0
  -47.1222   -0.2400   14.8234 C   0  0  0  0  0  0
  -48.0933   -1.2730   14.3779 C   0  0  0  0  0  0
  -43.0961   -3.0998   16.5841 H   0  0  0  0  0  0
  -42.1109   -2.7194   18.4884 H   0  0  0  0  0  0
  -44.1128    0.8450   20.9174 H   0  0  0  0  0  0
  -49.0548   -0.0553   12.9003 H   0  0  0  0  0  0
  -49.9191   -1.8350   12.0995 H   0  0  0  0  0  0
  1 12  1  0  0  0
  1 13  1  0  0  0
  2 10  1  0  0  0
  2 19  1  0  0  0
  3 11  1  0  0  0
  3 20  1  0  0  0
  4 14  1  0  0  0
  4 21  1  0  0  0
  5 16  2  0  0  0
  6  9  1  0  0  0
  6 23  1  0  0  0
  7 12  1  0  0  0
  7 15  1  0  0  0
  7 16  1  0  0  0
  8 16  1  0  0  0
  8 18  2  0  0  0
  9 18  1  0  0  0
  9 22  1  0  0  0
 10 11  1  0  0  0
 11 13  1  0  0  0
 12 10  1  0  0  0
 13 14  1  0  0  0
 15 17  2  0  0  0
 17 18  1  0  0  0
M  END
>  <CHROM.0>
-63.85325748,-60.02366367,-175.45349939

>  <CHROM.1>
72.40258992,65.72897586,-62.87056557,-141.27994840,84.57361964,-0.62906821
-179.60783390,-45.93924616,-1.51124369,16.71582574,0.46205678,-0.69244660
0.49180491

>  <Name>
NHC.pdb

>  <RI>
-9.57013e+08

>  <Rbt.Current_Directory>
/root/miniconda3/envs/rdock/share/rxdock-2013.1.1_148c5bd1-0/data/ligands/prepped_ligands/NHC

>  <Rbt.Executable>
rbdock/0.1.0

>  <Rbt.Library>
librxdock.so/0.1.0

>  <Rbt.Parameter_File>
/root/miniconda3/envs/rdock/share/rxdock-2013.1.1_148c5bd1-0/data/scripts/dock.prm

>  <Rbt.Receptor>
def.prm

>  <SCORE>
-16.3544

>  <SCORE.INTER>
-15.9354

>  <SCORE.INTER.CONST>
1

>  <SCORE.INTER.POLAR>
-2.96993

>  <SCORE.INTER.REPUL>
0.00251172

>  <SCORE.INTER.ROT>
3

>  <SCORE.INTER.VDW>
-14.2502

>  <SCORE.INTER.norm>
-0.8853

>  <SCORE.INTRA>
0.61135

>  <SCORE.INTRA.DIHEDRAL>
-0.152064

>  <SCORE.INTRA.DIHEDRAL.0>
5.29717

>  <SCORE.INTRA.POLAR>
0

>  <SCORE.INTRA.POLAR.0>
0

>  <SCORE.INTRA.REPUL>
0

>  <SCORE.INTRA.REPUL.0>
0

>  <SCORE.INTRA.VDW>
0.687382

>  <SCORE.INTRA.VDW.0>
-0.818277

>  <SCORE.INTRA.norm>
0.0339639

>  <SCORE.RESTR>
0.00390698

>  <SCORE.RESTR.CAVITY>
0.00390698

>  <SCORE.RESTR.norm>
0.000217054

>  <SCORE.SYSTEM>
-1.0342

>  <SCORE.SYSTEM.CONST>
0

>  <SCORE.SYSTEM.DIHEDRAL>
0.0866278

>  <SCORE.SYSTEM.POLAR>
-0.0114643

>  <SCORE.SYSTEM.VDW>
-1.03853

>  <SCORE.SYSTEM.norm>
-0.0574555

>  <SCORE.heavy>
18

>  <SCORE.norm>
-0.908575

$$$$
NHC.pdb
  RxDock  02242101293D
librxdock.so/0.1.0
 23 24  0  0  0  0  0  0  0  0999 V2000
  -49.5871   -1.0336   15.6973 O   0  0  0  0  0  0
  -47.6370    0.2878   12.9936 O   0  0  0  0  0  0
  -50.3434    0.5140   13.2431 O   0  0  0  0  0  0
  -48.9961   -3.4031   14.6750 O   0  0  0  0  0  0
  -48.4642   -1.4193   17.8363 O   0  0  0  0  0  0
  -42.9403   -2.6992   17.0904 O   0  0  0  0  0  0
  -47.2630   -0.9333   15.9272 N   0  0  0  0  0  0
  -46.2499   -1.9158   17.8844 N   0  0  0  0  0  0
  -43.9803   -2.4201   17.9289 N   0  0  0  0  0  0
  -48.3197   -0.7128   13.7215 C   0  0  0  0  0  0
  -49.7849   -0.7958   13.3490 C   0  0  0  0  0  0
  -48.3890   -0.4098   15.2075 C   0  0  0  0  0  0
  -50.3884   -1.4648   14.5764 C   0  0  0  0  0  0
  -50.3403   -2.9864   14.5170 C   0  0  0  0  0  0
  -46.0254   -0.9543   15.3025 C   0  0  0  0  0  0
  -47.3797   -1.4252   17.2523 C   0  0  0  0  0  0
  -44.9276   -1.4199   15.8947 C   0  0  0  0  0  0
  -45.0905   -1.9278   17.2817 C   0  0  0  0  0  0
  -46.6896    0.0728   13.0194 H   0  0  0  0  0  0
  -51.2460    0.4463   12.8907 H   0  0  0  0  0  0
  -48.5273   -3.1739   13.8541 H   0  0  0  0  0  0
  -43.9030   -2.6491   18.9127 H   0  0  0  0  0  0
  -42.2714   -3.0410   17.7066 H   0  0  0  0  0  0
  1 12  1  0  0  0
  1 13  1  0  0  0
  2 10  1  0  0  0
  2 19  1  0  0  0
  3 11  1  0  0  0
  3 20  1  0  0  0
  4 14  1  0  0  0
  4 21  1  0  0  0
  5 16  2  0  0  0
  6  9  1  0  0  0
  6 23  1  0  0  0
  7 12  1  0  0  0
  7 15  1  0  0  0
  7 16  1  0  0  0
  8 16  1  0  0  0
  8 18  2  0  0  0
  9 18  1  0  0  0
  9 22  1  0  0  0
 10 11  1  0  0  0
 11 13  1  0  0  0
 12 10  1  0  0  0
 13 14  1  0  0  0
 15 17  2  0  0  0
 17 18  1  0  0  0
M  END
>  <CHROM.0>
179.97654118,-178.64510162,-176.86117900

>  <CHROM.1>
-158.98872416,172.57172021,-71.91532192,-179.06093770,152.41056193,163.67809513
-46.05897430,-47.57260267,-1.40184319,15.55045550,2.55346199,-0.13419846
-1.01791923

>  <Name>
NHC.pdb

>  <RI>
-9.57013e+08

>  <Rbt.Current_Directory>
/root/miniconda3/envs/rdock/share/rxdock-2013.1.1_148c5bd1-0/data/ligands/prepped_ligands/NHC

>  <Rbt.Executable>
rbdock/0.1.0

>  <Rbt.Library>
librxdock.so/0.1.0

>  <Rbt.Parameter_File>
/root/miniconda3/envs/rdock/share/rxdock-2013.1.1_148c5bd1-0/data/scripts/dock.prm

>  <Rbt.Receptor>
def.prm

>  <SCORE>
-15.0133

>  <SCORE.INTER>
-16.6918

>  <SCORE.INTER.CONST>
1

>  <SCORE.INTER.POLAR>
-2.99441

>  <SCORE.INTER.REPUL>
0.0490701

>  <SCORE.INTER.ROT>
3

>  <SCORE.INTER.VDW>
-15.1562

>  <SCORE.INTER.norm>
-0.927324

>  <SCORE.INTRA>
2.75197

>  <SCORE.INTRA.DIHEDRAL>
1.77998

>  <SCORE.INTRA.DIHEDRAL.0>
5.29717

>  <SCORE.INTRA.POLAR>
0

>  <SCORE.INTRA.POLAR.0>
0

>  <SCORE.INTRA.REPUL>
0

>  <SCORE.INTRA.REPUL.0>
0

>  <SCORE.INTRA.VDW>
1.86198

>  <SCORE.INTRA.VDW.0>
-0.818277

>  <SCORE.INTRA.norm>
0.152887

>  <SCORE.RESTR>
0

>  <SCORE.RESTR.CAVITY>
0

>  <SCORE.RESTR.norm>
0

>  <SCORE.SYSTEM>
-1.07348

>  <SCORE.SYSTEM.CONST>
0

>  <SCORE.SYSTEM.DIHEDRAL>
0.0309796

>  <SCORE.SYSTEM.POLAR>
-0.0089397

>  <SCORE.SYSTEM.VDW>
-1.05858

>  <SCORE.SYSTEM.norm>
-0.0596378

>  <SCORE.heavy>
18

>  <SCORE.norm>
-0.834074

$$$$
NHC.pdb
  RxDock  02242101293D
librxdock.so/0.1.0
 23 24  0  0  0  0  0  0  0  0999 V2000
  -54.0121   -5.8206   14.3955 O   0  0  0  0  0  0
  -52.5180   -7.4153   17.2386 O   0  0  0  0  0  0
  -54.4162   -8.5252   15.6253 O   0  0  0  0  0  0
  -57.2343   -5.6729   16.0794 O   0  0  0  0  0  0
  -50.5291   -5.7923   16.7686 O   0  0  0  0  0  0
  -48.8443   -1.4506   16.4527 O   0  0  0  0  0  0
  -52.0898   -4.8793   15.3353 N   0  0  0  0  0  0
  -50.2174   -3.6198   16.1899 N   0  0  0  0  0  0
  -49.9046   -1.3936   15.5954 N   0  0  0  0  0  0
  -53.4071   -6.5449   16.5686 C   0  0  0  0  0  0
  -54.6944   -7.2345   16.1689 C   0  0  0  0  0  0
  -52.8695   -6.0795   15.2273 C   0  0  0  0  0  0
  -55.1936   -6.3468   15.0371 C   0  0  0  0  0  0
  -56.0338   -5.1714   15.5202 C   0  0  0  0  0  0
  -52.4998   -3.7545   14.6362 C   0  0  0  0  0  0
  -50.9197   -4.8117   16.1338 C   0  0  0  0  0  0
  -51.8393   -2.5993   14.6794 C   0  0  0  0  0  0
  -50.6178   -2.5683   15.5253 C   0  0  0  0  0  0
  -51.6623   -6.9601   17.3105 H   0  0  0  0  0  0
  -55.2479   -8.9308   15.3298 H   0  0  0  0  0  0
  -57.8589   -4.9289   16.1300 H   0  0  0  0  0  0
  -50.1342   -0.5163   15.1437 H   0  0  0  0  0  0
  -48.8290   -2.3924   16.6912 H   0  0  0  0  0  0
  1 12  1  0  0  0
  1 13  1  0  0  0
  2 10  1  0  0  0
  2 19  1  0  0  0
  3 11  1  0  0  0
  3 20  1  0  0  0
  4 14  1  0  0  0
  4 21  1  0  0  0
  5 16  2  0  0  0
  6  9  1  0  0  0
  6 23  1  0  0  0
  7 12  1  0  0  0
  7 15  1  0  0  0
  7 16  1  0  0  0
  8 16  1  0  0  0
  8 18  2  0  0  0
  9 18  1  0  0  0
  9 22  1  0  0  0
 10 11  1  0  0  0
 11 13  1  0  0  0
 12 10  1  0  0  0
 13 14  1  0  0  0
 15 17  2  0  0  0
 17 18  1  0  0  0
M  END
>  <CHROM.0>
55.43003292,-174.67485227,84.58890501

>  <CHROM.1>
169.39752779,-176.87914173,-163.14601087,7.53738740,-2.13945326,-3.38802874
176.50954039,-52.68388000,-5.02418538,15.76270679,2.48786844,0.24896130,2.85647508

>  <Name>
NHC.pdb

>  <RI>
-9.57013e+08

>  <Rbt.Current_Directory>
/root/miniconda3/envs/rdock/share/rxdock-2013.1.1_148c5bd1-0/data/ligands/prepped_ligands/NHC

>  <Rbt.Executable>
rbdock/0.1.0

>  <Rbt.Library>
librxdock.so/0.1.0

>  <Rbt.Parameter_File>
/root/miniconda3/envs/rdock/share/rxdock-2013.1.1_148c5bd1-0/data/scripts/dock.prm

>  <Rbt.Receptor>
def.prm

>  <SCORE>
-13.2679

>  <SCORE.INTER>
-10.9458

>  <SCORE.INTER.CONST>
1

>  <SCORE.INTER.POLAR>
-1.57697

>  <SCORE.INTER.REPUL>
0.115288

>  <SCORE.INTER.ROT>
3

>  <SCORE.INTER.VDW>
-14.5605

>  <SCORE.INTER.norm>
-0.608099

>  <SCORE.INTRA>
-2.2667

>  <SCORE.INTRA.DIHEDRAL>
-0.509928

>  <SCORE.INTRA.DIHEDRAL.0>
5.29717

>  <SCORE.INTRA.POLAR>
-1.34519

>  <SCORE.INTRA.POLAR.0>
0

>  <SCORE.INTRA.REPUL>
0

>  <SCORE.INTRA.REPUL.0>
0

>  <SCORE.INTRA.VDW>
2.56192

>  <SCORE.INTRA.VDW.0>
-0.818277

>  <SCORE.INTRA.norm>
-0.125928

>  <SCORE.RESTR>
0

>  <SCORE.RESTR.CAVITY>
0

>  <SCORE.RESTR.norm>
0

>  <SCORE.SYSTEM>
-0.0554431

>  <SCORE.SYSTEM.CONST>
0

>  <SCORE.SYSTEM.DIHEDRAL>
1.47564

>  <SCORE.SYSTEM.POLAR>
-0.0152687

>  <SCORE.SYSTEM.VDW>
-0.741349

>  <SCORE.SYSTEM.norm>
-0.00308017

>  <SCORE.heavy>
18

>  <SCORE.norm>
-0.737107

$$$$
NHC.pdb
  RxDock  02242101293D
librxdock.so/0.1.0
 23 24  0  0  0  0  0  0  0  0999 V2000
  -47.6502   -0.4856   14.5326 O   0  0  0  0  0  0
  -49.0725   -3.6550   15.4219 O   0  0  0  0  0  0
  -47.9441   -3.0536   13.0129 O   0  0  0  0  0  0
  -49.0003    1.5309   12.8886 O   0  0  0  0  0  0
  -46.6742   -2.3094   17.9137 O   0  0  0  0  0  0
  -48.1092    0.3655   21.4591 O   0  0  0  0  0  0
  -48.1243   -0.9178   16.7804 N   0  0  0  0  0  0
  -47.7447   -0.7407   19.1568 N   0  0  0  0  0  0
  -48.8461    0.8667   20.4256 N   0  0  0  0  0  0
  -49.0922   -2.3061   15.0010 C   0  0  0  0  0  0
  -48.9553   -2.1705   13.4993 C   0  0  0  0  0  0
  -47.8920   -1.5210   15.4990 C   0  0  0  0  0  0
  -48.4419   -0.7445   13.3533 C   0  0  0  0  0  0
  -49.5561    0.2928   13.2935 C   0  0  0  0  0  0
  -49.0169    0.1396   16.8660 C   0  0  0  0  0  0
  -47.4715   -1.3715   17.9549 C   0  0  0  0  0  0
  -49.2942    0.7570   18.0126 C   0  0  0  0  0  0
  -48.5894    0.2542   19.2204 C   0  0  0  0  0  0
  -49.8372   -4.0983   15.0178 H   0  0  0  0  0  0
  -48.1268   -3.9520   13.3337 H   0  0  0  0  0  0
  -49.7161    2.1889   12.9180 H   0  0  0  0  0  0
  -49.5520    1.5694   20.6111 H   0  0  0  0  0  0
  -48.4028    0.9184   22.2022 H   0  0  0  0  0  0
  1 12  1  0  0  0
  1 13  1  0  0  0
  2 10  1  0  0  0
  2 19  1  0  0  0
  3 11  1  0  0  0
  3 20  1  0  0  0
  4 14  1  0  0  0
  4 21  1  0  0  0
  5 16  2  0  0  0
  6  9  1  0  0  0
  6 23  1  0  0  0
  7 12  1  0  0  0
  7 15  1  0  0  0
  7 16  1  0  0  0
  8 16  1  0  0  0
  8 18  2  0  0  0
  9 18  1  0  0  0
  9 22  1  0  0  0
 10 11  1  0  0  0
 11 13  1  0  0  0
 12 10  1  0  0  0
 13 14  1  0  0  0
 15 17  2  0  0  0
 17 18  1  0  0  0
M  END
>  <CHROM.0>
64.40650968,-64.77731833,60.62911160

>  <CHROM.1>
-61.97978569,52.43980473,-176.12454077,178.78102593,47.95895931,2.41902528
74.68919914,-48.41105328,-0.85492841,16.32421718,1.79171313,1.28506160,-1.99725659

>  <Name>
NHC.pdb

>  <RI>
-9.57013e+08

>  <Rbt.Current_Directory>
/root/miniconda3/envs/rdock/share/rxdock-2013.1.1_148c5bd1-0/data/ligands/prepped_ligands/NHC

>  <Rbt.Executable>
rbdock/0.1.0

>  <Rbt.Library>
librxdock.so/0.1.0

>  <Rbt.Parameter_File>
/root/miniconda3/envs/rdock/share/rxdock-2013.1.1_148c5bd1-0/data/scripts/dock.prm

>  <Rbt.Receptor>
def.prm

>  <SCORE>
-7.9985

>  <SCORE.INTER>
-6.02186

>  <SCORE.INTER.CONST>
1

>  <SCORE.INTER.POLAR>
-1.42579

>  <SCORE.INTER.REPUL>
0.0127938

>  <SCORE.INTER.ROT>
3

>  <SCORE.INTER.VDW>
-9.63814

>  <SCORE.INTER.norm>
-0.334548

>  <SCORE.INTRA>
-0.972993

>  <SCORE.INTRA.DIHEDRAL>
-1.25506

>  <SCORE.INTRA.DIHEDRAL.0>
5.29717

>  <SCORE.INTRA.POLAR>
0

>  <SCORE.INTRA.POLAR.0>
0

>  <SCORE.INTRA.REPUL>
0

>  <SCORE.INTRA.REPUL.0>
0

>  <SCORE.INTRA.VDW>
-0.345465

>  <SCORE.INTRA.VDW.0>
-0.818277

>  <SCORE.INTRA.norm>
-0.0540552

>  <SCORE.RESTR>
0.000999765

>  <SCORE.RESTR.CAVITY>
0.000999765

>  <SCORE.RESTR.norm>
5.55425e-05

>  <SCORE.SYSTEM>
-1.00465

>  <SCORE.SYSTEM.CONST>
0

>  <SCORE.SYSTEM.DIHEDRAL>
0.157172

>  <SCORE.SYSTEM.POLAR>
-0.00255788

>  <SCORE.SYSTEM.VDW>
-1.07454

>  <SCORE.SYSTEM.norm>
-0.0558139

>  <SCORE.heavy>
18

>  <SCORE.norm>
-0.444361

$$$$
NHC.pdb
  RxDock  02242101293D
librxdock.so/0.1.0
 23 24  0  0  0  0  0  0  0  0999 V2000
  -49.1052   -1.7886   16.1115 O   0  0  0  0  0  0
  -46.2697   -2.8594   14.1952 O   0  0  0  0  0  0
  -47.2798   -0.3264   14.2353 O   0  0  0  0  0  0
  -50.9661   -1.3174   13.0195 O   0  0  0  0  0  0
  -46.0968   -3.9127   17.6645 O   0  0  0  0  0  0
  -47.8022   -8.0318   19.0484 O   0  0  0  0  0  0
  -48.1385   -3.8623   16.5908 N   0  0  0  0  0  0
  -47.4539   -5.7021   17.9940 N   0  0  0  0  0  0
  -48.8474   -7.5338   18.3259 N   0  0  0  0  0  0
  -47.6437   -2.7001   14.4849 C   0  0  0  0  0  0
  -48.1931   -1.3896   13.9625 C   0  0  0  0  0  0
  -47.9176   -2.5855   15.9737 C   0  0  0  0  0  0
  -49.4224   -1.1876   14.8377 C   0  0  0  0  0  0
  -50.6698   -1.8695   14.2896 C   0  0  0  0  0  0
  -49.3359   -4.5187   16.3513 C   0  0  0  0  0  0
  -47.1713   -4.4685   17.4325 C   0  0  0  0  0  0
  -49.6247   -5.7060   16.8800 C   0  0  0  0  0  0
  -48.5872   -6.3080   17.7574 C   0  0  0  0  0  0
  -46.1476   -2.6762   13.2487 H   0  0  0  0  0  0
  -46.4747   -0.4567   13.7077 H   0  0  0  0  0  0
  -50.2449   -1.5757   12.4201 H   0  0  0  0  0  0
  -49.6786   -8.0985   18.1971 H   0  0  0  0  0  0
  -47.1480   -7.3172   18.9745 H   0  0  0  0  0  0
  1 12  1  0  0  0
  1 13  1  0  0  0
  2 10  1  0  0  0
  2 19  1  0  0  0
  3 11  1  0  0  0
  3 20  1  0  0  0
  4 14  1  0  0  0
  4 21  1  0  0  0
  5 16  2  0  0  0
  6  9  1  0  0  0
  6 23  1  0  0  0
  7 12  1  0  0  0
  7 15  1  0  0  0
  7 16  1  0  0  0
  8 16  1  0  0  0
  8 18  2  0  0  0
  9 18  1  0  0  0
  9 22  1  0  0  0
 10 11  1  0  0  0
 11 13  1  0  0  0
 12 10  1  0  0  0
 13 14  1  0  0  0
 15 17  2  0  0  0
 17 18  1  0  0  0
M  END
>  <CHROM.0>
-70.40916145,-60.81680901,-179.87695862

>  <CHROM.1>
-49.94837969,67.27605647,66.55359451,2.12045700,44.61502585,-3.67695538,-178.14927679
-48.33400944,-3.63663892,16.02438671,1.69581000,-0.20849500,-0.63159560

>  <Name>
NHC.pdb

>  <RI>
-9.57013e+08

>  <Rbt.Current_Directory>
/root/miniconda3/envs/rdock/share/rxdock-2013.1.1_148c5bd1-0/data/ligands/prepped_ligands/NHC

>  <Rbt.Executable>
rbdock/0.1.0

>  <Rbt.Library>
librxdock.so/0.1.0

>  <Rbt.Parameter_File>
/root/miniconda3/envs/rdock/share/rxdock-2013.1.1_148c5bd1-0/data/scripts/dock.prm

>  <Rbt.Receptor>
def.prm

>  <SCORE>
-18.1454

>  <SCORE.INTER>
-16.5215

>  <SCORE.INTER.CONST>
1

>  <SCORE.INTER.POLAR>
-3.49887

>  <SCORE.INTER.REPUL>
0

>  <SCORE.INTER.ROT>
3

>  <SCORE.INTER.VDW>
-13.0254

>  <SCORE.INTER.norm>
-0.917862

>  <SCORE.INTRA>
-0.702471

>  <SCORE.INTRA.DIHEDRAL>
-1.52402

>  <SCORE.INTRA.DIHEDRAL.0>
5.29717

>  <SCORE.INTRA.POLAR>
-0.470129

>  <SCORE.INTRA.POLAR.0>
0

>  <SCORE.INTRA.REPUL>
0

>  <SCORE.INTRA.REPUL.0>
0

>  <SCORE.INTRA.VDW>
1.65798

>  <SCORE.INTRA.VDW.0>
-0.818277

>  <SCORE.INTRA.norm>
-0.0390262

>  <SCORE.RESTR>
0

>  <SCORE.RESTR.CAVITY>
0

>  <SCORE.RESTR.norm>
0

>  <SCORE.SYSTEM>
-0.921457

>  <SCORE.SYSTEM.CONST>
0

>  <SCORE.SYSTEM.DIHEDRAL>
0.271527

>  <SCORE.SYSTEM.POLAR>
-0.00230083

>  <SCORE.SYSTEM.VDW>
-1.0494

>  <SCORE.SYSTEM.norm>
-0.051192

>  <SCORE.heavy>
18

>  <SCORE.norm>
-1.00808

$$$$
NHC.pdb
  RxDock  02242101303D
librxdock.so/0.1.0
 23 24  0  0  0  0  0  0  0  0999 V2000
  -44.9599   -0.3673   19.1251 O   0  0  0  0  0  0
  -43.2160   -3.2550   17.9092 O   0  0  0  0  0  0
  -42.9474   -2.1855   20.4036 O   0  0  0  0  0  0
  -41.8214    1.4741   19.2050 O   0  0  0  0  0  0
  -45.1678    0.8646   16.9595 O   0  0  0  0  0  0
  -47.6376    0.2766   13.0221 O   0  0  0  0  0  0
  -45.6900   -1.3751   17.1463 N   0  0  0  0  0  0
  -46.5140    0.0051   15.3467 N   0  0  0  0  0  0
  -47.8950   -0.8803   13.6986 N   0  0  0  0  0  0
  -43.4686   -1.8736   18.0669 C   0  0  0  0  0  0
  -42.7899   -1.3015   19.2934 C   0  0  0  0  0  0
  -44.9304   -1.5752   18.3475 C   0  0  0  0  0  0
  -43.6208   -0.0549   19.5653 C   0  0  0  0  0  0
  -43.1414    1.1679   18.7932 C   0  0  0  0  0  0
  -46.3735   -2.4526   16.6042 C   0  0  0  0  0  0
  -45.7619   -0.1131   16.5031 C   0  0  0  0  0  0
  -47.1035   -2.3579   15.4948 C   0  0  0  0  0  0
  -47.1531   -1.0203   14.8491 C   0  0  0  0  0  0
  -42.2655   -3.3603   17.7362 H   0  0  0  0  0  0
  -42.4454   -2.9996   20.2344 H   0  0  0  0  0  0
  -41.5383    2.2554   18.6996 H   0  0  0  0  0  0
  -48.6290   -1.4969   13.3710 H   0  0  0  0  0  0
  -46.7869    0.0763   12.5976 H   0  0  0  0  0  0
  1 12  1  0  0  0
  1 13  1  0  0  0
  2 10  1  0  0  0
  2 19  1  0  0  0
  3 11  1  0  0  0
  3 20  1  0  0  0
  4 14  1  0  0  0
  4 21  1  0  0  0
  5 16  2  0  0  0
  6  9  1  0  0  0
  6 23  1  0  0  0
  7 12  1  0  0  0
  7 15  1  0  0  0
  7 16  1  0  0  0
  8 16  1  0  0  0
  8 18  2  0  0  0
  9 18  1  0  0  0
  9 22  1  0  0  0
 10 11  1  0  0  0
 11 13  1  0  0  0
 12 10  1  0  0  0
 13 14  1  0  0  0
 15 17  2  0  0  0
 17 18  1  0  0  0
M  END
>  <CHROM.0>
-60.92182293,61.99564820,-64.29537958

>  <CHROM.1>
-65.39525284,67.50412259,179.98800937,76.44494580,-147.39086305,14.07877361
-179.28335279,-44.94869996,-0.81238086,17.26059719,-0.16129201,-0.84149640
-0.21558936

>  <Name>
NHC.pdb

>  <RI>
-9.57013e+08

>  <Rbt.Current_Directory>
/root/miniconda3/envs/rdock/share/rxdock-2013.1.1_148c5bd1-0/data/ligands/prepped_ligands/NHC

>  <Rbt.Executable>
rbdock/0.1.0

>  <Rbt.Library>
librxdock.so/0.1.0

>  <Rbt.Parameter_File>
/root/miniconda3/envs/rdock/share/rxdock-2013.1.1_148c5bd1-0/data/scripts/dock.prm

>  <Rbt.Receptor>
def.prm

>  <SCORE>
-13.8348

>  <SCORE.INTER>
-14.4751

>  <SCORE.INTER.CONST>
1

>  <SCORE.INTER.POLAR>
-2.3525

>  <SCORE.INTER.REPUL>
0.0171529

>  <SCORE.INTER.ROT>
3

>  <SCORE.INTER.VDW>
-14.9624

>  <SCORE.INTER.norm>
-0.804175

>  <SCORE.INTRA>
1.64481

>  <SCORE.INTRA.DIHEDRAL>
2.65449

>  <SCORE.INTRA.DIHEDRAL.0>
5.29717

>  <SCORE.INTRA.POLAR>
0

>  <SCORE.INTRA.POLAR.0>
0

>  <SCORE.INTRA.REPUL>
0

>  <SCORE.INTRA.REPUL.0>
0

>  <SCORE.INTRA.VDW>
0.317566

>  <SCORE.INTRA.VDW.0>
-0.818277

>  <SCORE.INTRA.norm>
0.0913784

>  <SCORE.RESTR>
0

>  <SCORE.RESTR.CAVITY>
0

>  <SCORE.RESTR.norm>
0

>  <SCORE.SYSTEM>
-1.00446

>  <SCORE.SYSTEM.CONST>
0

>  <SCORE.SYSTEM.DIHEDRAL>
0.0714176

>  <SCORE.SYSTEM.VDW>
-1.04017

>  <SCORE.SYSTEM.norm>
-0.0558032

>  <SCORE.heavy>
18

>  <SCORE.norm>
-0.768599

$$$$
NHC.pdb
  RxDock  02242101303D
librxdock.so/0.1.0
 23 24  0  0  0  0  0  0  0  0999 V2000
  -49.2794   -1.8916   13.4325 O   0  0  0  0  0  0
  -46.1614   -0.3110   14.2316 O   0  0  0  0  0  0
  -46.6883   -2.9750   14.4826 O   0  0  0  0  0  0
  -51.3534   -2.2837   15.1522 O   0  0  0  0  0  0
  -50.9051   -0.1224   13.7682 O   0  0  0  0  0  0
  -51.9417    3.9596   11.7577 O   0  0  0  0  0  0
  -48.9037    0.2959   12.6991 N   0  0  0  0  0  0
  -50.7845    1.8022   12.5710 N   0  0  0  0  0  0
  -50.6559    3.7713   11.3408 N   0  0  0  0  0  0
  -47.5016   -0.7020   14.4509 C   0  0  0  0  0  0
  -47.6035   -2.0675   15.0970 C   0  0  0  0  0  0
  -48.2695   -0.9072   13.1575 C   0  0  0  0  0  0
  -49.0144   -2.4955   14.7169 C   0  0  0  0  0  0
  -50.0750   -2.0098   15.6967 C   0  0  0  0  0  0
  -48.1844    1.1594   11.8873 C   0  0  0  0  0  0
  -50.2382    0.6236   13.0500 C   0  0  0  0  0  0
  -48.6931    2.2956   11.4151 C   0  0  0  0  0  0
  -50.0931    2.6048   11.8059 C   0  0  0  0  0  0
  -45.7964   -0.8921   13.5434 H   0  0  0  0  0  0
  -46.9793   -3.8853   14.6568 H   0  0  0  0  0  0
  -51.4854   -1.6696   14.4096 H   0  0  0  0  0  0
  -50.2413    4.4278   10.6901 H   0  0  0  0  0  0
  -52.1912    4.7686   11.2809 H   0  0  0  0  0  0
  1 12  1  0  0  0
  1 13  1  0  0  0
  2 10  1  0  0  0
  2 19  1  0  0  0
  3 11  1  0  0  0
  3 20  1  0  0  0
  4 14  1  0  0  0
  4 21  1  0  0  0
  5 16  2  0  0  0
  6  9  1  0  0  0
  6 23  1  0  0  0
  7 12  1  0  0  0
  7 15  1  0  0  0
  7 16  1  0  0  0
  8 16  1  0  0  0
  8 18  2  0  0  0
  9 18  1  0  0  0
  9 22  1  0  0  0
 10 11  1  0  0  0
 11 13  1  0  0  0
 12 10  1  0  0  0
 13 14  1  0  0  0
 15 17  2  0  0  0
 17 18  1  0  0  0
M  END
>  <CHROM.0>
60.84107387,64.29454317,178.07080833

>  <CHROM.1>
68.32495817,-159.16881273,-71.38184557,-175.29950311,-154.27795938,-0.04154347
54.25206804,-49.25950692,0.00851608,13.39683601,1.17591680,-0.12724828,2.57020738

>  <Name>
NHC.pdb

>  <RI>
-9.57013e+08

>  <Rbt.Current_Directory>
/root/miniconda3/envs/rdock/share/rxdock-2013.1.1_148c5bd1-0/data/ligands/prepped_ligands/NHC

>  <Rbt.Executable>
rbdock/0.1.0

>  <Rbt.Library>
librxdock.so/0.1.0

>  <Rbt.Parameter_File>
/root/miniconda3/envs/rdock/share/rxdock-2013.1.1_148c5bd1-0/data/scripts/dock.prm

>  <Rbt.Receptor>
def.prm

>  <SCORE>
-16.1831

>  <SCORE.INTER>
-13.5885

>  <SCORE.INTER.CONST>
1

>  <SCORE.INTER.POLAR>
-1.60222

>  <SCORE.INTER.REPUL>
0.245893

>  <SCORE.INTER.ROT>
3

>  <SCORE.INTER.VDW>
-17.7705

>  <SCORE.INTER.norm>
-0.754919

>  <SCORE.INTRA>
-1.56634

>  <SCORE.INTRA.DIHEDRAL>
0.406826

>  <SCORE.INTRA.DIHEDRAL.0>
5.29717

>  <SCORE.INTRA.POLAR>
-0.830588

>  <SCORE.INTRA.POLAR.0>
0

>  <SCORE.INTRA.REPUL>
0

>  <SCORE.INTRA.REPUL.0>
0

>  <SCORE.INTRA.VDW>
1.05425

>  <SCORE.INTRA.VDW.0>
-0.818277

>  <SCORE.INTRA.norm>
-0.0870189

>  <SCORE.RESTR>
0.00147162

>  <SCORE.RESTR.CAVITY>
0.00147162

>  <SCORE.RESTR.norm>
8.17567e-05

>  <SCORE.SYSTEM>
-1.02969

>  <SCORE.SYSTEM.CONST>
0

>  <SCORE.SYSTEM.DIHEDRAL>
0.1027

>  <SCORE.SYSTEM.VDW>
-1.08104

>  <SCORE.SYSTEM.norm>
-0.057205

>  <SCORE.heavy>
18

>  <SCORE.norm>
-0.899061

$$$$
