NHC.pdb
  RxDock  02242112003D
librxdock.so/0.1.0
 23 24  0  0  0  0  0  0  0  0999 V2000
  -49.4056   -2.0057   15.3889 O   0  0  0  0  0  0
  -48.2436    0.4885   13.0895 O   0  0  0  0  0  0
  -50.8555   -0.1754   13.5079 O   0  0  0  0  0  0
  -49.7132   -4.6109   14.8378 O   0  0  0  0  0  0
  -47.1802    0.3522   17.1698 O   0  0  0  0  0  0
  -42.9919   -1.5501   17.9575 O   0  0  0  0  0  0
  -47.1887   -1.2796   15.5386 N   0  0  0  0  0  0
  -45.3272   -0.9521   17.0386 N   0  0  0  0  0  0
  -43.4303   -2.2898   16.8978 N   0  0  0  0  0  0
  -48.5296   -0.8225   13.5327 C   0  0  0  0  0  0
  -49.9499   -1.2397   13.2148 C   0  0  0  0  0  0
  -48.4952   -0.9486   15.0452 C   0  0  0  0  0  0
  -50.1898   -2.3514   14.2270 C   0  0  0  0  0  0
  -49.7331   -3.7199   13.7372 C   0  0  0  0  0  0
  -46.4943   -2.3186   14.9382 C   0  0  0  0  0  0
  -46.5909   -0.5767   16.6156 C   0  0  0  0  0  0
  -45.2778   -2.6925   15.3292 C   0  0  0  0  0  0
  -44.6857   -1.9333   16.4612 C   0  0  0  0  0  0
  -48.9296    1.0749   13.4500 H   0  0  0  0  0  0
  -50.7617    0.0724   14.4424 H   0  0  0  0  0  0
  -49.1312   -4.2197   15.5119 H   0  0  0  0  0  0
  -42.8100   -2.9687   16.4727 H   0  0  0  0  0  0
  -42.1402   -1.9723   18.1588 H   0  0  0  0  0  0
  1 12  1  0  0  0
  1 13  1  0  0  0
  2 10  1  0  0  0
  2 19  1  0  0  0
  3 11  1  0  0  0
  3 20  1  0  0  0
  4 14  1  0  0  0
  4 21  1  0  0  0
  5 16  2  0  0  0
  6  9  1  0  0  0
  6 23  1  0  0  0
  7 12  1  0  0  0
  7 15  1  0  0  0
  7 16  1  0  0  0
  8 16  1  0  0  0
  8 18  2  0  0  0
  9 18  1  0  0  0
  9 22  1  0  0  0
 10 11  1  0  0  0
 11 13  1  0  0  0
 12 10  1  0  0  0
 13 14  1  0  0  0
 15 17  2  0  0  0
 17 18  1  0  0  0
M  END
>  <CHROM.0>
-59.13209020,-62.20753563,-64.03604326

>  <CHROM.1>
52.90402792,-57.53312838,-56.60361696,176.41157125,69.81301985,1.23296955
49.76072064,-47.48663875,-1.57705437,15.26180858,3.13736496,-0.51447224,-0.03509298

>  <Name>
NHC.pdb

>  <RI>
-2.98061e+08

>  <Rbt.Current_Directory>
/root/miniconda3/envs/rdock/share/rxdock-2013.1.1_148c5bd1-0/data/ligands/prepped_ligands/NHC

>  <Rbt.Executable>
rbdock/0.1.0

>  <Rbt.Library>
librxdock.so/0.1.0

>  <Rbt.Parameter_File>
/root/miniconda3/envs/rdock/share/rxdock-2013.1.1_148c5bd1-0/data/scripts/dock.prm

>  <Rbt.Receptor>
def.prm

>  <SCORE>
-15.5744

>  <SCORE.INTER>
-13.8107

>  <SCORE.INTER.CONST>
1

>  <SCORE.INTER.POLAR>
-2.36342

>  <SCORE.INTER.REPUL>
0.0200893

>  <SCORE.INTER.ROT>
3

>  <SCORE.INTER.VDW>
-14.2755

>  <SCORE.INTER.norm>
-0.767262

>  <SCORE.INTRA>
-0.695247

>  <SCORE.INTRA.DIHEDRAL>
-1.69175

>  <SCORE.INTRA.DIHEDRAL.0>
5.29717

>  <SCORE.INTRA.POLAR>
-0.0950131

>  <SCORE.INTRA.POLAR.0>
0

>  <SCORE.INTRA.REPUL>
0

>  <SCORE.INTRA.REPUL.0>
0

>  <SCORE.INTRA.VDW>
0.473673

>  <SCORE.INTRA.VDW.0>
-0.818277

>  <SCORE.INTRA.norm>
-0.0386248

>  <SCORE.RESTR>
0

>  <SCORE.RESTR.CAVITY>
0

>  <SCORE.RESTR.norm>
0

>  <SCORE.SYSTEM>
-1.06844

>  <SCORE.SYSTEM.CONST>
0

>  <SCORE.SYSTEM.DIHEDRAL>
0.0687481

>  <SCORE.SYSTEM.VDW>
-1.10282

>  <SCORE.SYSTEM.norm>
-0.0593579

>  <SCORE.heavy>
18

>  <SCORE.norm>
-0.865245

$$$$
NHC.pdb
  RxDock  02242112003D
librxdock.so/0.1.0
 23 24  0  0  0  0  0  0  0  0999 V2000
  -47.2365    0.1004   15.4825 O   0  0  0  0  0  0
  -46.4315   -3.0076   13.8853 O   0  0  0  0  0  0
  -48.3217   -1.2381   13.0287 O   0  0  0  0  0  0
  -49.1686    0.4714   17.3898 O   0  0  0  0  0  0
  -46.3965    0.3238   17.6211 O   0  0  0  0  0  0
  -42.6199   -0.7237   20.1559 O   0  0  0  0  0  0
  -45.2812   -1.0165   16.1100 N   0  0  0  0  0  0
  -44.4177   -0.5462   18.3136 N   0  0  0  0  0  0
  -42.3887   -1.4384   19.0166 N   0  0  0  0  0  0
  -47.0422   -2.1743   14.8495 C   0  0  0  0  0  0
  -48.3897   -1.6575   14.3918 C   0  0  0  0  0  0
  -46.2725   -0.8863   15.0803 C   0  0  0  0  0  0
  -48.5655   -0.4163   15.2559 C   0  0  0  0  0  0
  -49.1966   -0.7110   16.6109 C   0  0  0  0  0  0
  -44.1607   -1.7937   15.8602 C   0  0  0  0  0  0
  -45.4142   -0.3748   17.3678 C   0  0  0  0  0  0
  -43.1912   -1.9685   16.7559 C   0  0  0  0  0  0
  -43.3673   -1.2816   18.0619 C   0  0  0  0  0  0
  -46.9964   -3.7909   13.7762 H   0  0  0  0  0  0
  -48.2824   -2.0225   12.4571 H   0  0  0  0  0  0
  -48.2377    0.7437   17.4631 H   0  0  0  0  0  0
  -41.5221   -1.9539   18.9185 H   0  0  0  0  0  0
  -41.7240   -0.4362   20.3983 H   0  0  0  0  0  0
  1 12  1  0  0  0
  1 13  1  0  0  0
  2 10  1  0  0  0
  2 19  1  0  0  0
  3 11  1  0  0  0
  3 20  1  0  0  0
  4 14  1  0  0  0
  4 21  1  0  0  0
  5 16  2  0  0  0
  6  9  1  0  0  0
  6 23  1  0  0  0
  7 12  1  0  0  0
  7 15  1  0  0  0
  7 16  1  0  0  0
  8 16  1  0  0  0
  8 18  2  0  0  0
  9 18  1  0  0  0
  9 22  1  0  0  0
 10 11  1  0  0  0
 11 13  1  0  0  0
 12 10  1  0  0  0
 13 14  1  0  0  0
 15 17  2  0  0  0
 17 18  1  0  0  0
M  END
>  <CHROM.0>
59.40257906,68.48422914,177.54790120

>  <CHROM.1>
-63.74994057,73.83222922,-58.18092852,-142.58430930,-172.03232842,-2.62108317
56.07500666,-46.03090445,-1.00464597,16.40296854,2.57233711,0.35449216,-2.07522498

>  <Name>
NHC.pdb

>  <RI>
-2.98061e+08

>  <Rbt.Current_Directory>
/root/miniconda3/envs/rdock/share/rxdock-2013.1.1_148c5bd1-0/data/ligands/prepped_ligands/NHC

>  <Rbt.Executable>
rbdock/0.1.0

>  <Rbt.Library>
librxdock.so/0.1.0

>  <Rbt.Parameter_File>
/root/miniconda3/envs/rdock/share/rxdock-2013.1.1_148c5bd1-0/data/scripts/dock.prm

>  <Rbt.Receptor>
def.prm

>  <SCORE>
-14.2172

>  <SCORE.INTER>
-10.995

>  <SCORE.INTER.CONST>
1

>  <SCORE.INTER.POLAR>
-1.75383

>  <SCORE.INTER.REPUL>
0.0614197

>  <SCORE.INTER.ROT>
3

>  <SCORE.INTER.VDW>
-13.739

>  <SCORE.INTER.norm>
-0.610831

>  <SCORE.INTRA>
-2.26417

>  <SCORE.INTRA.DIHEDRAL>
-0.182956

>  <SCORE.INTRA.DIHEDRAL.0>
5.29717

>  <SCORE.INTRA.POLAR>
-1.06053

>  <SCORE.INTRA.POLAR.0>
0

>  <SCORE.INTRA.REPUL>
0

>  <SCORE.INTRA.REPUL.0>
0

>  <SCORE.INTRA.VDW>
1.43312

>  <SCORE.INTRA.VDW.0>
-0.818277

>  <SCORE.INTRA.norm>
-0.125787

>  <SCORE.RESTR>
0

>  <SCORE.RESTR.CAVITY>
0

>  <SCORE.RESTR.norm>
0

>  <SCORE.SYSTEM>
-0.958029

>  <SCORE.SYSTEM.CONST>
0

>  <SCORE.SYSTEM.DIHEDRAL>
0.367746

>  <SCORE.SYSTEM.VDW>
-1.1419

>  <SCORE.SYSTEM.norm>
-0.0532238

>  <SCORE.heavy>
18

>  <SCORE.norm>
-0.789842

$$$$
NHC.pdb
  RxDock  02242112003D
librxdock.so/0.1.0
 23 24  0  0  0  0  0  0  0  0999 V2000
  -45.8790   -1.9485   18.1676 O   0  0  0  0  0  0
  -43.2572   -2.1311   15.7280 O   0  0  0  0  0  0
  -42.9726   -2.6510   18.3900 O   0  0  0  0  0  0
  -44.2837    0.9075   19.7615 O   0  0  0  0  0  0
  -46.9201    0.1128   16.8698 O   0  0  0  0  0  0
  -50.2552   -0.0468   13.5582 O   0  0  0  0  0  0
  -46.4455   -1.9262   15.8998 N   0  0  0  0  0  0
  -48.1325   -0.4357   15.0309 N   0  0  0  0  0  0
  -49.3732   -1.0041   13.1482 N   0  0  0  0  0  0
  -44.1405   -1.4891   16.6251 C   0  0  0  0  0  0
  -43.5769   -1.4091   18.0280 C   0  0  0  0  0  0
  -45.4221   -2.2727   16.8445 C   0  0  0  0  0  0
  -44.8354   -1.2378   18.8678 C   0  0  0  0  0  0
  -45.2678    0.2157   19.0142 C   0  0  0  0  0  0
  -46.7426   -2.8205   14.8828 C   0  0  0  0  0  0
  -47.1584   -0.7027   15.9779 C   0  0  0  0  0  0
  -47.6770   -2.5826   13.9647 C   0  0  0  0  0  0
  -48.4009   -1.2898   14.0791 C   0  0  0  0  0  0
  -43.6812   -2.1355   14.8535 H   0  0  0  0  0  0
  -42.2200   -2.8214   17.8000 H   0  0  0  0  0  0
  -44.5690    1.8355   19.8200 H   0  0  0  0  0  0
  -49.5227   -1.4736   12.2630 H   0  0  0  0  0  0
  -50.8869   -0.0260   12.8203 H   0  0  0  0  0  0
  1 12  1  0  0  0
  1 13  1  0  0  0
  2 10  1  0  0  0
  2 19  1  0  0  0
  3 11  1  0  0  0
  3 20  1  0  0  0
  4 14  1  0  0  0
  4 21  1  0  0  0
  5 16  2  0  0  0
  6  9  1  0  0  0
  6 23  1  0  0  0
  7 12  1  0  0  0
  7 15  1  0  0  0
  7 16  1  0  0  0
  8 16  1  0  0  0
  8 18  2  0  0  0
  9 18  1  0  0  0
  9 22  1  0  0  0
 10 11  1  0  0  0
 11 13  1  0  0  0
 12 10  1  0  0  0
 13 14  1  0  0  0
 15 17  2  0  0  0
 17 18  1  0  0  0
M  END
>  <CHROM.0>
-58.40200843,65.56743429,-176.92220793

>  <CHROM.1>
-179.40233184,63.40700152,178.44960730,-176.12493520,-136.01075776,-20.02175751
176.95675581,-46.11909382,-1.22906984,16.41272068,0.53055183,-0.54929635
0.87556397

>  <Name>
NHC.pdb

>  <RI>
-2.98061e+08

>  <Rbt.Current_Directory>
/root/miniconda3/envs/rdock/share/rxdock-2013.1.1_148c5bd1-0/data/ligands/prepped_ligands/NHC

>  <Rbt.Executable>
rbdock/0.1.0

>  <Rbt.Library>
librxdock.so/0.1.0

>  <Rbt.Parameter_File>
/root/miniconda3/envs/rdock/share/rxdock-2013.1.1_148c5bd1-0/data/scripts/dock.prm

>  <Rbt.Receptor>
def.prm

>  <SCORE>
-17.9818

>  <SCORE.INTER>
-16.2397

>  <SCORE.INTER.CONST>
1

>  <SCORE.INTER.POLAR>
-2.88869

>  <SCORE.INTER.REPUL>
0

>  <SCORE.INTER.ROT>
3

>  <SCORE.INTER.VDW>
-14.8182

>  <SCORE.INTER.norm>
-0.902206

>  <SCORE.INTRA>
-0.726239

>  <SCORE.INTRA.DIHEDRAL>
-1.22348

>  <SCORE.INTRA.DIHEDRAL.0>
5.29717

>  <SCORE.INTRA.POLAR>
0

>  <SCORE.INTRA.POLAR.0>
0

>  <SCORE.INTRA.REPUL>
0

>  <SCORE.INTRA.REPUL.0>
0

>  <SCORE.INTRA.VDW>
-0.114499

>  <SCORE.INTRA.VDW.0>
-0.818277

>  <SCORE.INTRA.norm>
-0.0403466

>  <SCORE.RESTR>
0

>  <SCORE.RESTR.CAVITY>
0

>  <SCORE.RESTR.norm>
0

>  <SCORE.SYSTEM>
-1.01589

>  <SCORE.SYSTEM.CONST>
0

>  <SCORE.SYSTEM.DIHEDRAL>
0.17802

>  <SCORE.SYSTEM.POLAR>
-0.0088221

>  <SCORE.SYSTEM.VDW>
-1.0749

>  <SCORE.SYSTEM.norm>
-0.0564382

>  <SCORE.heavy>
18

>  <SCORE.norm>
-0.998991

$$$$
NHC.pdb
  RxDock  02242112003D
librxdock.so/0.1.0
 23 24  0  0  0  0  0  0  0  0999 V2000
  -47.1017   -1.2812   16.6728 O   0  0  0  0  0  0
  -49.0526   -3.9952   15.3739 O   0  0  0  0  0  0
  -47.8054   -3.9694   17.7991 O   0  0  0  0  0  0
  -44.4319   -0.9415   16.3310 O   0  0  0  0  0  0
  -46.2485   -0.2514   14.6239 O   0  0  0  0  0  0
  -50.5048    1.7239   11.3336 O   0  0  0  0  0  0
  -48.4542   -0.9043   14.8038 N   0  0  0  0  0  0
  -47.6901    0.6394   13.1139 N   0  0  0  0  0  0
  -49.1721    1.5507   11.5710 N   0  0  0  0  0  0
  -47.9013   -3.1883   15.5166 C   0  0  0  0  0  0
  -47.0146   -3.6480   16.6545 C   0  0  0  0  0  0
  -48.2324   -1.7656   15.9302 C   0  0  0  0  0  0
  -46.2225   -2.3869   16.9712 C   0  0  0  0  0  0
  -44.9667   -2.2361   16.1220 C   0  0  0  0  0  0
  -49.7398   -0.7881   14.2981 C   0  0  0  0  0  0
  -47.4015   -0.1718   14.1981 C   0  0  0  0  0  0
  -50.0372   -0.0117   13.2581 C   0  0  0  0  0  0
  -48.9077    0.7384   12.6499 C   0  0  0  0  0  0
  -48.7532   -4.9036   15.2015 H   0  0  0  0  0  0
  -48.3836   -4.7199   17.5845 H   0  0  0  0  0  0
  -45.0234   -0.3121   15.8837 H   0  0  0  0  0  0
  -48.4956    1.9479   10.9301 H   0  0  0  0  0  0
  -50.4983    2.1888   10.4804 H   0  0  0  0  0  0
  1 12  1  0  0  0
  1 13  1  0  0  0
  2 10  1  0  0  0
  2 19  1  0  0  0
  3 11  1  0  0  0
  3 20  1  0  0  0
  4 14  1  0  0  0
  4 21  1  0  0  0
  5 16  2  0  0  0
  6  9  1  0  0  0
  6 23  1  0  0  0
  7 12  1  0  0  0
  7 15  1  0  0  0
  7 16  1  0  0  0
  8 16  1  0  0  0
  8 18  2  0  0  0
  9 18  1  0  0  0
  9 22  1  0  0  0
 10 11  1  0  0  0
 11 13  1  0  0  0
 12 10  1  0  0  0
 13 14  1  0  0  0
 15 17  2  0  0  0
 17 18  1  0  0  0
M  END
>  <CHROM.0>
-164.09772617,58.15822548,-178.51632035

>  <CHROM.1>
-59.70823919,63.67733727,-72.33342071,-171.37693675,-152.21662551,-170.01014736
53.24200695,-47.80723625,-1.17776265,14.86150234,-1.10699532,-0.36110842
-0.67796465

>  <Name>
NHC.pdb

>  <RI>
-2.98061e+08

>  <Rbt.Current_Directory>
/root/miniconda3/envs/rdock/share/rxdock-2013.1.1_148c5bd1-0/data/ligands/prepped_ligands/NHC

>  <Rbt.Executable>
rbdock/0.1.0

>  <Rbt.Library>
librxdock.so/0.1.0

>  <Rbt.Parameter_File>
/root/miniconda3/envs/rdock/share/rxdock-2013.1.1_148c5bd1-0/data/scripts/dock.prm

>  <Rbt.Receptor>
def.prm

>  <SCORE>
-16.2468

>  <SCORE.INTER>
-13.7011

>  <SCORE.INTER.CONST>
1

>  <SCORE.INTER.POLAR>
-1.9736

>  <SCORE.INTER.REPUL>
0.0725783

>  <SCORE.INTER.ROT>
3

>  <SCORE.INTER.VDW>
-15.7537

>  <SCORE.INTER.norm>
-0.761171

>  <SCORE.INTRA>
-1.97108

>  <SCORE.INTRA.DIHEDRAL>
-0.881273

>  <SCORE.INTRA.DIHEDRAL.0>
5.29717

>  <SCORE.INTRA.POLAR>
-0.817088

>  <SCORE.INTRA.POLAR.0>
0

>  <SCORE.INTRA.REPUL>
0

>  <SCORE.INTRA.REPUL.0>
0

>  <SCORE.INTRA.VDW>
1.24765

>  <SCORE.INTRA.VDW.0>
-0.818277

>  <SCORE.INTRA.norm>
-0.109505

>  <SCORE.RESTR>
0

>  <SCORE.RESTR.CAVITY>
0

>  <SCORE.RESTR.norm>
0

>  <SCORE.SYSTEM>
-0.574636

>  <SCORE.SYSTEM.CONST>
0

>  <SCORE.SYSTEM.DIHEDRAL>
0.599412

>  <SCORE.SYSTEM.POLAR>
-0.00550748

>  <SCORE.SYSTEM.VDW>
-0.855617

>  <SCORE.SYSTEM.norm>
-0.0319242

>  <SCORE.heavy>
18

>  <SCORE.norm>
-0.902599

$$$$
NHC.pdb
  RxDock  02242112003D
librxdock.so/0.1.0
 23 24  0  0  0  0  0  0  0  0999 V2000
  -48.8353   -2.0387   14.6964 O   0  0  0  0  0  0
  -45.5829   -0.5508   14.9544 O   0  0  0  0  0  0
  -46.2468   -3.0495   15.8225 O   0  0  0  0  0  0
  -50.8032   -2.0083   16.6703 O   0  0  0  0  0  0
  -50.1103    0.1529   14.9821 O   0  0  0  0  0  0
  -50.6948    3.9849   12.2530 O   0  0  0  0  0  0
  -48.3827   -0.0986   13.4735 N   0  0  0  0  0  0
  -50.0698    1.6112   13.2432 N   0  0  0  0  0  0
  -50.0245    3.1009   11.4583 N   0  0  0  0  0  0
  -46.9257   -0.7862   15.3267 C   0  0  0  0  0  0
  -47.0634   -1.9655   16.2663 C   0  0  0  0  0  0
  -47.7905   -1.2144   14.1548 C   0  0  0  0  0  0
  -48.5194   -2.3634   16.0673 C   0  0  0  0  0  0
  -49.4807   -1.5990   16.9688 C   0  0  0  0  0  0
  -47.7863    0.3635   12.3104 C   0  0  0  0  0  0
  -49.5550    0.5397   13.9529 C   0  0  0  0  0  0
  -48.2676    1.3906   11.6131 C   0  0  0  0  0  0
  -49.4958    2.0340   12.1481 C   0  0  0  0  0  0
  -45.5746    0.2204   14.3631 H   0  0  0  0  0  0
  -46.3489   -3.7953   16.4365 H   0  0  0  0  0  0
  -51.3983   -1.4879   17.2370 H   0  0  0  0  0  0
  -50.0202    3.2368   10.4543 H   0  0  0  0  0  0
  -50.1061    4.0491   13.0234 H   0  0  0  0  0  0
  1 12  1  0  0  0
  1 13  1  0  0  0
  2 10  1  0  0  0
  2 19  1  0  0  0
  3 11  1  0  0  0
  3 20  1  0  0  0
  4 14  1  0  0  0
  4 21  1  0  0  0
  5 16  2  0  0  0
  6  9  1  0  0  0
  6 23  1  0  0  0
  7 12  1  0  0  0
  7 15  1  0  0  0
  7 16  1  0  0  0
  8 16  1  0  0  0
  8 18  2  0  0  0
  9 18  1  0  0  0
  9 22  1  0  0  0
 10 11  1  0  0  0
 11 13  1  0  0  0
 12 10  1  0  0  0
 13 14  1  0  0  0
 15 17  2  0  0  0
 17 18  1  0  0  0
M  END
>  <CHROM.0>
-179.45743455,179.02996573,176.81946672

>  <CHROM.1>
-179.43652787,-179.96381585,-178.25702817,42.48932821,-143.19941905,28.83632044
60.84400090,-48.65782961,-0.15574655,14.29116853,1.23141139,-0.28998608,2.35583748

>  <Name>
NHC.pdb

>  <RI>
-2.98061e+08

>  <Rbt.Current_Directory>
/root/miniconda3/envs/rdock/share/rxdock-2013.1.1_148c5bd1-0/data/ligands/prepped_ligands/NHC

>  <Rbt.Executable>
rbdock/0.1.0

>  <Rbt.Library>
librxdock.so/0.1.0

>  <Rbt.Parameter_File>
/root/miniconda3/envs/rdock/share/rxdock-2013.1.1_148c5bd1-0/data/scripts/dock.prm

>  <Rbt.Receptor>
def.prm

>  <SCORE>
-11.7268

>  <SCORE.INTER>
-12.4084

>  <SCORE.INTER.CONST>
1

>  <SCORE.INTER.POLAR>
-1.77708

>  <SCORE.INTER.REPUL>
0.0821634

>  <SCORE.INTER.ROT>
3

>  <SCORE.INTER.VDW>
-15.1771

>  <SCORE.INTER.norm>
-0.689355

>  <SCORE.INTRA>
1.75663

>  <SCORE.INTRA.DIHEDRAL>
2.66501

>  <SCORE.INTRA.DIHEDRAL.0>
5.29717

>  <SCORE.INTRA.POLAR>
0

>  <SCORE.INTRA.POLAR.0>
0

>  <SCORE.INTRA.REPUL>
0

>  <SCORE.INTRA.REPUL.0>
0

>  <SCORE.INTRA.VDW>
0.424126

>  <SCORE.INTRA.VDW.0>
-0.818277

>  <SCORE.INTRA.norm>
0.0975907

>  <SCORE.RESTR>
0

>  <SCORE.RESTR.CAVITY>
0

>  <SCORE.RESTR.norm>
0

>  <SCORE.SYSTEM>
-1.07504

>  <SCORE.SYSTEM.CONST>
0

>  <SCORE.SYSTEM.DIHEDRAL>
0.0326514

>  <SCORE.SYSTEM.VDW>
-1.09137

>  <SCORE.SYSTEM.norm>
-0.0597247

>  <SCORE.heavy>
18

>  <SCORE.norm>
-0.651489

$$$$
NHC.pdb
  RxDock  02242112003D
librxdock.so/0.1.0
 23 24  0  0  0  0  0  0  0  0999 V2000
  -52.5254   -2.7459   15.2877 O   0  0  0  0  0  0
  -50.7358   -3.6960   18.2463 O   0  0  0  0  0  0
  -50.8390   -1.1767   17.2071 O   0  0  0  0  0  0
  -50.3380   -4.1009   14.1589 O   0  0  0  0  0  0
  -52.2879   -5.6986   18.2773 O   0  0  0  0  0  0
  -53.9561   -9.5792   16.1790 O   0  0  0  0  0  0
  -52.9600   -4.8328   16.2469 N   0  0  0  0  0  0
  -53.3974   -7.1158   16.8943 N   0  0  0  0  0  0
  -54.5324   -8.5638   15.4722 N   0  0  0  0  0  0
  -50.9483   -3.5628   16.8556 C   0  0  0  0  0  0
  -50.4585   -2.2323   16.3242 C   0  0  0  0  0  0
  -52.4214   -3.5250   16.4905 C   0  0  0  0  0  0
  -51.2657   -2.0846   15.0417 C   0  0  0  0  0  0
  -50.6093   -2.7485   13.8378 C   0  0  0  0  0  0
  -53.6018   -5.0742   15.0420 C   0  0  0  0  0  0
  -52.8532   -5.8795   17.1980 C   0  0  0  0  0  0
  -54.1292   -6.2565   14.7310 C   0  0  0  0  0  0
  -53.9986   -7.3271   15.7535 C   0  0  0  0  0  0
  -51.1540   -4.5270   18.5275 H   0  0  0  0  0  0
  -51.8076   -1.1548   17.2763 H   0  0  0  0  0  0
  -51.1952   -4.5394   14.2973 H   0  0  0  0  0  0
  -55.2284   -8.7786   14.7681 H   0  0  0  0  0  0
  -53.0878   -9.2032   16.3994 H   0  0  0  0  0  0
  1 12  1  0  0  0
  1 13  1  0  0  0
  2 10  1  0  0  0
  2 19  1  0  0  0
  3 11  1  0  0  0
  3 20  1  0  0  0
  4 14  1  0  0  0
  4 21  1  0  0  0
  5 16  2  0  0  0
  6  9  1  0  0  0
  6 23  1  0  0  0
  7 12  1  0  0  0
  7 15  1  0  0  0
  7 16  1  0  0  0
  8 16  1  0  0  0
  8 18  2  0  0  0
  9 18  1  0  0  0
  9 22  1  0  0  0
 10 11  1  0  0  0
 11 13  1  0  0  0
 12 10  1  0  0  0
 13 14  1  0  0  0
 15 17  2  0  0  0
 17 18  1  0  0  0
M  END
>  <CHROM.0>
-64.48228344,178.82689715,-58.95541523

>  <CHROM.1>
174.30101773,-60.18414464,64.52697651,-23.38297461,-7.54890324,-23.62023953
-63.04373703,-52.29080821,-4.78687133,16.09622992,0.22888300,-1.05918315
-1.31052937

>  <Name>
NHC.pdb

>  <RI>
-2.98061e+08

>  <Rbt.Current_Directory>
/root/miniconda3/envs/rdock/share/rxdock-2013.1.1_148c5bd1-0/data/ligands/prepped_ligands/NHC

>  <Rbt.Executable>
rbdock/0.1.0

>  <Rbt.Library>
librxdock.so/0.1.0

>  <Rbt.Parameter_File>
/root/miniconda3/envs/rdock/share/rxdock-2013.1.1_148c5bd1-0/data/scripts/dock.prm

>  <Rbt.Receptor>
def.prm

>  <SCORE>
-14.576

>  <SCORE.INTER>
-12.5576

>  <SCORE.INTER.CONST>
1

>  <SCORE.INTER.POLAR>
-1.52733

>  <SCORE.INTER.REPUL>
0

>  <SCORE.INTER.ROT>
3

>  <SCORE.INTER.VDW>
-15.7646

>  <SCORE.INTER.norm>
-0.697643

>  <SCORE.INTRA>
-0.979636

>  <SCORE.INTRA.DIHEDRAL>
0.212763

>  <SCORE.INTRA.DIHEDRAL.0>
5.29717

>  <SCORE.INTRA.POLAR>
-1.12862

>  <SCORE.INTRA.POLAR.0>
0

>  <SCORE.INTRA.REPUL>
0

>  <SCORE.INTRA.REPUL.0>
0

>  <SCORE.INTRA.VDW>
2.75131

>  <SCORE.INTRA.VDW.0>
-0.818277

>  <SCORE.INTRA.norm>
-0.0544242

>  <SCORE.RESTR>
0

>  <SCORE.RESTR.CAVITY>
0

>  <SCORE.RESTR.norm>
0

>  <SCORE.SYSTEM>
-1.03882

>  <SCORE.SYSTEM.CONST>
0

>  <SCORE.SYSTEM.DIHEDRAL>
0.0614554

>  <SCORE.SYSTEM.POLAR>
-0.00339377

>  <SCORE.SYSTEM.VDW>
-1.05801

>  <SCORE.SYSTEM.norm>
-0.0577124

>  <SCORE.heavy>
18

>  <SCORE.norm>
-0.80978

$$$$
NHC.pdb
  RxDock  02242112003D
librxdock.so/0.1.0
 23 24  0  0  0  0  0  0  0  0999 V2000
  -45.9512   -2.0191   18.1491 O   0  0  0  0  0  0
  -43.3153   -2.1614   15.7221 O   0  0  0  0  0  0
  -43.0527   -2.7534   18.3714 O   0  0  0  0  0  0
  -46.5349    0.1489   19.7939 O   0  0  0  0  0  0
  -46.8300    0.1641   16.7854 O   0  0  0  0  0  0
  -50.2276    0.1036   13.5322 O   0  0  0  0  0  0
  -46.5027   -1.9324   15.8792 N   0  0  0  0  0  0
  -48.1044   -0.3656   14.9834 N   0  0  0  0  0  0
  -49.4090   -0.9149   13.1385 N   0  0  0  0  0  0
  -44.1987   -1.5352   16.6302 C   0  0  0  0  0  0
  -43.6437   -1.4970   18.0383 C   0  0  0  0  0  0
  -45.4886   -2.3127   16.8209 C   0  0  0  0  0  0
  -44.9060   -1.3365   18.8744 C   0  0  0  0  0  0
  -45.3265    0.1165   19.0561 C   0  0  0  0  0  0
  -46.8727   -2.8389   14.8976 C   0  0  0  0  0  0
  -47.1344   -0.6634   15.9253 C   0  0  0  0  0  0
  -47.8046   -2.5717   13.9850 C   0  0  0  0  0  0
  -48.4422   -1.2318   14.0651 C   0  0  0  0  0  0
  -43.7119   -2.0969   14.8372 H   0  0  0  0  0  0
  -42.2872   -2.9069   17.7934 H   0  0  0  0  0  0
  -46.7632    1.0848   19.9279 H   0  0  0  0  0  0
  -49.5981   -1.3990   12.2688 H   0  0  0  0  0  0
  -50.8663    0.1423   12.8011 H   0  0  0  0  0  0
  1 12  1  0  0  0
  1 13  1  0  0  0
  2 10  1  0  0  0
  2 19  1  0  0  0
  3 11  1  0  0  0
  3 20  1  0  0  0
  4 14  1  0  0  0
  4 21  1  0  0  0
  5 16  2  0  0  0
  6  9  1  0  0  0
  6 23  1  0  0  0
  7 12  1  0  0  0
  7 15  1  0  0  0
  7 16  1  0  0  0
  8 16  1  0  0  0
  8 18  2  0  0  0
  9 18  1  0  0  0
  9 22  1  0  0  0
 10 11  1  0  0  0
 11 13  1  0  0  0
 12 10  1  0  0  0
 13 14  1  0  0  0
 15 17  2  0  0  0
 17 18  1  0  0  0
M  END
>  <CHROM.0>
-56.01424534,57.31757008,-65.92903223

>  <CHROM.1>
-176.43271779,64.50591077,177.73623335,-176.21562339,-131.17242400,-20.49744794
60.41774356,-46.30647654,-1.28480100,16.40218464,0.58835100,-0.51629285,1.08280088

>  <Name>
NHC.pdb

>  <RI>
-2.98061e+08

>  <Rbt.Current_Directory>
/root/miniconda3/envs/rdock/share/rxdock-2013.1.1_148c5bd1-0/data/ligands/prepped_ligands/NHC

>  <Rbt.Executable>
rbdock/0.1.0

>  <Rbt.Library>
librxdock.so/0.1.0

>  <Rbt.Parameter_File>
/root/miniconda3/envs/rdock/share/rxdock-2013.1.1_148c5bd1-0/data/scripts/dock.prm

>  <Rbt.Receptor>
def.prm

>  <SCORE>
-18.1

>  <SCORE.INTER>
-16.2377

>  <SCORE.INTER.CONST>
1

>  <SCORE.INTER.POLAR>
-2.87622

>  <SCORE.INTER.REPUL>
0

>  <SCORE.INTER.ROT>
3

>  <SCORE.INTER.VDW>
-14.8586

>  <SCORE.INTER.norm>
-0.902097

>  <SCORE.INTRA>
-1.01532

>  <SCORE.INTRA.DIHEDRAL>
-1.07887

>  <SCORE.INTRA.DIHEDRAL.0>
5.29717

>  <SCORE.INTRA.POLAR>
0

>  <SCORE.INTRA.POLAR.0>
0

>  <SCORE.INTRA.REPUL>
0

>  <SCORE.INTRA.REPUL.0>
0

>  <SCORE.INTRA.VDW>
-0.475886

>  <SCORE.INTRA.VDW.0>
-0.818277

>  <SCORE.INTRA.norm>
-0.0564068

>  <SCORE.RESTR>
0

>  <SCORE.RESTR.CAVITY>
0

>  <SCORE.RESTR.norm>
0

>  <SCORE.SYSTEM>
-0.84692

>  <SCORE.SYSTEM.CONST>
0

>  <SCORE.SYSTEM.DIHEDRAL>
0.162576

>  <SCORE.SYSTEM.VDW>
-0.928208

>  <SCORE.SYSTEM.norm>
-0.0470511

>  <SCORE.heavy>
18

>  <SCORE.norm>
-1.00555

$$$$
NHC.pdb
  RxDock  02242112013D
librxdock.so/0.1.0
 23 24  0  0  0  0  0  0  0  0999 V2000
  -45.8276   -1.9300   18.5296 O   0  0  0  0  0  0
  -43.0877   -2.0017   16.2174 O   0  0  0  0  0  0
  -42.9078   -2.5083   18.8911 O   0  0  0  0  0  0
  -46.5207    0.2627   20.1956 O   0  0  0  0  0  0
  -46.8876    0.0881   17.1752 O   0  0  0  0  0  0
  -50.1197   -0.3038   13.7525 O   0  0  0  0  0  0
  -46.2864   -1.9325   16.2375 N   0  0  0  0  0  0
  -47.9896   -0.5137   15.2843 N   0  0  0  0  0  0
  -49.1170   -1.1366   13.3483 N   0  0  0  0  0  0
  -44.0389   -1.3976   17.0701 C   0  0  0  0  0  0
  -43.5465   -1.2932   18.4980 C   0  0  0  0  0  0
  -45.2951   -2.2349   17.2304 C   0  0  0  0  0  0
  -44.8494   -1.1754   19.2769 C   0  0  0  0  0  0
  -45.3497    0.2584   19.3992 C   0  0  0  0  0  0
  -46.4993   -2.8407   15.2118 C   0  0  0  0  0  0
  -47.0509   -0.7386   16.2769 C   0  0  0  0  0  0
  -47.3986   -2.6432   14.2501 C   0  0  0  0  0  0
  -48.1785   -1.3804   14.3248 C   0  0  0  0  0  0
  -43.0688   -2.9506   16.4266 H   0  0  0  0  0  0
  -42.1141   -2.6398   18.3467 H   0  0  0  0  0  0
  -46.8272    1.1843   20.2486 H   0  0  0  0  0  0
  -49.1608   -1.5608   12.4293 H   0  0  0  0  0  0
  -49.7517    0.0725   14.5692 H   0  0  0  0  0  0
  1 12  1  0  0  0
  1 13  1  0  0  0
  2 10  1  0  0  0
  2 19  1  0  0  0
  3 11  1  0  0  0
  3 20  1  0  0  0
  4 14  1  0  0  0
  4 21  1  0  0  0
  5 16  2  0  0  0
  6  9  1  0  0  0
  6 23  1  0  0  0
  7 12  1  0  0  0
  7 15  1  0  0  0
  7 16  1  0  0  0
  8 16  1  0  0  0
  8 18  2  0  0  0
  9 18  1  0  0  0
  9 22  1  0  0  0
 10 11  1  0  0  0
 11 13  1  0  0  0
 12 10  1  0  0  0
 13 14  1  0  0  0
 15 17  2  0  0  0
 17 18  1  0  0  0
M  END
>  <CHROM.0>
64.67818181,-170.78087643,60.14853782

>  <CHROM.1>
73.12227315,64.24735301,-179.22211793,14.43935041,-135.83134302,-25.38769701
65.95692003,-46.14978851,-1.27714113,16.77676527,0.66358065,-0.47395885,1.09821000

>  <Name>
NHC.pdb

>  <RI>
-2.98061e+08

>  <Rbt.Current_Directory>
/root/miniconda3/envs/rdock/share/rxdock-2013.1.1_148c5bd1-0/data/ligands/prepped_ligands/NHC

>  <Rbt.Executable>
rbdock/0.1.0

>  <Rbt.Library>
librxdock.so/0.1.0

>  <Rbt.Parameter_File>
/root/miniconda3/envs/rdock/share/rxdock-2013.1.1_148c5bd1-0/data/scripts/dock.prm

>  <Rbt.Receptor>
def.prm

>  <SCORE>
-16.5963

>  <SCORE.INTER>
-16.0971

>  <SCORE.INTER.CONST>
1

>  <SCORE.INTER.POLAR>
-2.94137

>  <SCORE.INTER.REPUL>
0

>  <SCORE.INTER.ROT>
3

>  <SCORE.INTER.VDW>
-14.4964

>  <SCORE.INTER.norm>
-0.894281

>  <SCORE.INTRA>
0.339527

>  <SCORE.INTRA.DIHEDRAL>
0.635213

>  <SCORE.INTRA.DIHEDRAL.0>
5.29717

>  <SCORE.INTRA.POLAR>
-0.431233

>  <SCORE.INTRA.POLAR.0>
0

>  <SCORE.INTRA.REPUL>
0

>  <SCORE.INTRA.REPUL.0>
0

>  <SCORE.INTRA.VDW>
1.48811

>  <SCORE.INTRA.VDW.0>
-0.818277

>  <SCORE.INTRA.norm>
0.0188626

>  <SCORE.RESTR>
0

>  <SCORE.RESTR.CAVITY>
0

>  <SCORE.RESTR.norm>
0

>  <SCORE.SYSTEM>
-0.838714

>  <SCORE.SYSTEM.CONST>
0

>  <SCORE.SYSTEM.DIHEDRAL>
0.461778

>  <SCORE.SYSTEM.POLAR>
-0.00141427

>  <SCORE.SYSTEM.VDW>
-1.06479

>  <SCORE.SYSTEM.norm>
-0.0465952

>  <SCORE.heavy>
18

>  <SCORE.norm>
-0.922014

$$$$
NHC.pdb
  RxDock  02242112013D
librxdock.so/0.1.0
 23 24  0  0  0  0  0  0  0  0999 V2000
  -49.7231   -2.6861   13.9215 O   0  0  0  0  0  0
  -51.1759   -3.7733   17.0144 O   0  0  0  0  0  0
  -52.5061   -3.5355   14.6455 O   0  0  0  0  0  0
  -49.9443   -0.0083   12.8397 O   0  0  0  0  0  0
  -48.7841   -4.3156   17.6879 O   0  0  0  0  0  0
  -43.6480   -2.2024   16.2454 O   0  0  0  0  0  0
  -48.3082   -3.2634   15.6904 N   0  0  0  0  0  0
  -46.6568   -3.5697   17.4230 N   0  0  0  0  0  0
  -44.4796   -2.8011   17.1469 N   0  0  0  0  0  0
  -50.6943   -2.8313   16.0776 C   0  0  0  0  0  0
  -51.7618   -2.4023   15.0933 C   0  0  0  0  0  0
  -49.6333   -3.4105   15.1591 C   0  0  0  0  0  0
  -50.9308   -1.8949   13.9228 C   0  0  0  0  0  0
  -50.5369   -0.4292   14.0552 C   0  0  0  0  0  0
  -47.3487   -2.6267   14.9183 C   0  0  0  0  0  0
  -47.9552   -3.7469   16.9762 C   0  0  0  0  0  0
  -46.0962   -2.4449   15.3315 C   0  0  0  0  0  0
  -45.7645   -2.9665   16.6829 C   0  0  0  0  0  0
  -50.4151   -4.0855   17.5323 H   0  0  0  0  0  0
  -53.2276   -3.2336   14.0695 H   0  0  0  0  0  0
  -49.1251   -0.5209   12.7284 H   0  0  0  0  0  0
  -44.1038   -3.1362   18.0260 H   0  0  0  0  0  0
  -42.8382   -2.0814   16.7684 H   0  0  0  0  0  0
  1 12  1  0  0  0
  1 13  1  0  0  0
  2 10  1  0  0  0
  2 19  1  0  0  0
  3 11  1  0  0  0
  3 20  1  0  0  0
  4 14  1  0  0  0
  4 21  1  0  0  0
  5 16  2  0  0  0
  6  9  1  0  0  0
  6 23  1  0  0  0
  7 12  1  0  0  0
  7 15  1  0  0  0
  7 16  1  0  0  0
  8 16  1  0  0  0
  8 18  2  0  0  0
  9 18  1  0  0  0
  9 22  1  0  0  0
 10 11  1  0  0  0
 11 13  1  0  0  0
 12 10  1  0  0  0
 13 14  1  0  0  0
 15 17  2  0  0  0
 17 18  1  0  0  0
M  END
>  <CHROM.0>
-46.21608025,-43.74054024,57.52910130

>  <CHROM.1>
172.73540917,175.69708017,-64.28182775,173.98679158,-6.81262409,177.55818915
71.40157337,-48.68978346,-2.70938265,15.58925466,-2.83322851,0.15581047,2.28548420

>  <Name>
NHC.pdb

>  <RI>
-2.98061e+08

>  <Rbt.Current_Directory>
/root/miniconda3/envs/rdock/share/rxdock-2013.1.1_148c5bd1-0/data/ligands/prepped_ligands/NHC

>  <Rbt.Executable>
rbdock/0.1.0

>  <Rbt.Library>
librxdock.so/0.1.0

>  <Rbt.Parameter_File>
/root/miniconda3/envs/rdock/share/rxdock-2013.1.1_148c5bd1-0/data/scripts/dock.prm

>  <Rbt.Receptor>
def.prm

>  <SCORE>
-13.4742

>  <SCORE.INTER>
-11.1714

>  <SCORE.INTER.CONST>
1

>  <SCORE.INTER.POLAR>
-2.25111

>  <SCORE.INTER.REPUL>
0.422103

>  <SCORE.INTER.ROT>
3

>  <SCORE.INTER.VDW>
-14.0281

>  <SCORE.INTER.norm>
-0.620633

>  <SCORE.INTRA>
-2.39229

>  <SCORE.INTRA.DIHEDRAL>
-1.49895

>  <SCORE.INTRA.DIHEDRAL.0>
5.29717

>  <SCORE.INTRA.POLAR>
-1

>  <SCORE.INTRA.POLAR.0>
0

>  <SCORE.INTRA.REPUL>
0

>  <SCORE.INTRA.REPUL.0>
0

>  <SCORE.INTRA.VDW>
1.75718

>  <SCORE.INTRA.VDW.0>
-0.818277

>  <SCORE.INTRA.norm>
-0.132905

>  <SCORE.RESTR>
0

>  <SCORE.RESTR.CAVITY>
0

>  <SCORE.RESTR.norm>
0

>  <SCORE.SYSTEM>
0.0894718

>  <SCORE.SYSTEM.CONST>
0

>  <SCORE.SYSTEM.DIHEDRAL>
1.6844

>  <SCORE.SYSTEM.VDW>
-0.752727

>  <SCORE.SYSTEM.norm>
0.00497066

>  <SCORE.heavy>
18

>  <SCORE.norm>
-0.748567

$$$$
NHC.pdb
  RxDock  02242112013D
librxdock.so/0.1.0
 23 24  0  0  0  0  0  0  0  0999 V2000
  -49.3197   -4.2187   14.5979 O   0  0  0  0  0  0
  -48.8826   -2.4172   17.6674 O   0  0  0  0  0  0
  -48.7869   -5.1301   17.4042 O   0  0  0  0  0  0
  -52.4373   -5.7118   15.7223 O   0  0  0  0  0  0
  -51.2783   -1.9650   14.5252 O   0  0  0  0  0  0
  -50.6020    1.7427   11.7629 O   0  0  0  0  0  0
  -48.9717   -1.9089   14.5098 N   0  0  0  0  0  0
  -50.3187   -0.2667   13.3646 N   0  0  0  0  0  0
  -49.3300    1.4695   12.1750 N   0  0  0  0  0  0
  -49.6144   -3.0052   16.6111 C   0  0  0  0  0  0
  -49.9317   -4.4623   16.8730 C   0  0  0  0  0  0
  -48.8181   -3.0829   15.3209 C   0  0  0  0  0  0
  -50.1736   -4.9936   15.4668 C   0  0  0  0  0  0
  -51.6121   -4.8184   14.9967 C   0  0  0  0  0  0
  -47.8336   -1.2527   14.0668 C   0  0  0  0  0  0
  -50.2476   -1.4050   14.1495 C   0  0  0  0  0  0
  -47.8817   -0.1586   13.3097 C   0  0  0  0  0  0
  -49.2361    0.3394   12.9546 C   0  0  0  0  0  0
  -48.7176   -1.4899   17.4279 H   0  0  0  0  0  0
  -48.0586   -5.0685   16.7645 H   0  0  0  0  0  0
  -52.1413   -6.6131   15.5071 H   0  0  0  0  0  0
  -48.5635    2.0409   11.8396 H   0  0  0  0  0  0
  -50.4507    2.1222   10.8814 H   0  0  0  0  0  0
  1 12  1  0  0  0
  1 13  1  0  0  0
  2 10  1  0  0  0
  2 19  1  0  0  0
  3 11  1  0  0  0
  3 20  1  0  0  0
  4 14  1  0  0  0
  4 21  1  0  0  0
  5 16  2  0  0  0
  6  9  1  0  0  0
  6 23  1  0  0  0
  7 12  1  0  0  0
  7 15  1  0  0  0
  7 16  1  0  0  0
  8 16  1  0  0  0
  8 18  2  0  0  0
  9 18  1  0  0  0
  9 22  1  0  0  0
 10 11  1  0  0  0
 11 13  1  0  0  0
 12 10  1  0  0  0
 13 14  1  0  0  0
 15 17  2  0  0  0
 17 18  1  0  0  0
M  END
>  <CHROM.0>
58.80682905,-60.68400971,-179.89948134

>  <CHROM.1>
179.95057891,-59.86679397,-62.40927771,-145.75639565,-114.49228954,-8.11433399
172.14944736,-49.77275220,-2.32732174,14.77457784,1.68832155,0.50017397,2.49310309

>  <Name>
NHC.pdb

>  <RI>
-2.98061e+08

>  <Rbt.Current_Directory>
/root/miniconda3/envs/rdock/share/rxdock-2013.1.1_148c5bd1-0/data/ligands/prepped_ligands/NHC

>  <Rbt.Executable>
rbdock/0.1.0

>  <Rbt.Library>
librxdock.so/0.1.0

>  <Rbt.Parameter_File>
/root/miniconda3/envs/rdock/share/rxdock-2013.1.1_148c5bd1-0/data/scripts/dock.prm

>  <Rbt.Receptor>
def.prm

>  <SCORE>
-15.3494

>  <SCORE.INTER>
-13.5897

>  <SCORE.INTER.CONST>
1

>  <SCORE.INTER.POLAR>
-2.63232

>  <SCORE.INTER.REPUL>
0.0569749

>  <SCORE.INTER.ROT>
3

>  <SCORE.INTER.VDW>
-13.3247

>  <SCORE.INTER.norm>
-0.754981

>  <SCORE.INTRA>
-0.674699

>  <SCORE.INTRA.DIHEDRAL>
-0.992552

>  <SCORE.INTRA.DIHEDRAL.0>
5.29717

>  <SCORE.INTRA.POLAR>
0

>  <SCORE.INTRA.POLAR.0>
0

>  <SCORE.INTRA.REPUL>
0

>  <SCORE.INTRA.REPUL.0>
0

>  <SCORE.INTRA.VDW>
-0.178423

>  <SCORE.INTRA.VDW.0>
-0.818277

>  <SCORE.INTRA.norm>
-0.0374833

>  <SCORE.RESTR>
0

>  <SCORE.RESTR.CAVITY>
0

>  <SCORE.RESTR.norm>
0

>  <SCORE.SYSTEM>
-1.08509

>  <SCORE.SYSTEM.CONST>
0

>  <SCORE.SYSTEM.DIHEDRAL>
0.00684536

>  <SCORE.SYSTEM.POLAR>
-0.00224381

>  <SCORE.SYSTEM.VDW>
-1.08089

>  <SCORE.SYSTEM.norm>
-0.060283

>  <SCORE.heavy>
18

>  <SCORE.norm>
-0.852747

$$$$
