MODEL 1
REMARK VINA RESULT:     -13.7      0.000      0.000
REMARK  8 active torsions:
REMARK  status: ('A' for Active; 'I' for Inactive)
REMARK    1  A    between atoms: O_1  and  C_33 
REMARK    2  A    between atoms: O_1  and  C_49 
REMARK    3  A    between atoms: O_8  and  C_53 
REMARK    4  A    between atoms: O_12  and  C_56 
REMARK    5  A    between atoms: O_13  and  C_57 
REMARK    6  A    between atoms: O_14  and  C_59 
REMARK    7  A    between atoms: C_52  and  C_55 
REMARK    8  A    between atoms: C_58  and  C_60 
ROOT
HETATM    1  O   MOL     1     -58.048 -21.302  -2.962  1.00  0.00     0.000 OA
ENDROOT
BRANCH   1   2
HETATM    2  C   MOL     1     -57.636 -21.539  -3.843  1.00  0.00     0.007 C 
HETATM    3  C   MOL     1     -56.843 -20.921  -4.256  1.00  0.00    -0.058 C 
HETATM    4  C   MOL     1     -56.011 -21.456  -4.925  1.00  0.00    -0.007 C 
HETATM    5  C   MOL     1     -56.293 -20.086  -4.232  1.00  0.00     0.027 C 
HETATM    6  C   MOL     1     -56.952 -20.272  -3.503  1.00  0.00    -0.005 C 
HETATM    7  C   MOL     1     -56.657 -22.081  -5.686  1.00  0.00    -0.037 A 
HETATM    8  C   MOL     1     -55.637 -20.598  -5.604  1.00  0.00     0.006 C 
HETATM    9  C   MOL     1     -55.795 -22.607  -6.292  1.00  0.00     0.013 A 
HETATM   10  C   MOL     1     -57.376 -22.762  -5.241  1.00  0.00     0.014 C 
HETATM   11  C   MOL     1     -57.576 -22.478  -6.635  1.00  0.00     0.081 C 
HETATM   12  C   MOL     1     -56.400 -23.222  -7.002  1.00  0.00    -0.024 A 
HETATM   13  C   MOL     1     -55.486 -21.750  -6.980  1.00  0.00    -0.033 A 
HETATM   14  C   MOL     1     -54.970 -22.063  -7.784  1.00  0.00    -0.030 A 
HETATM   15  C   MOL     1     -55.178 -20.881  -6.496  1.00  0.00     0.011 C 
HETATM   16  C   MOL     1     -55.541 -20.516  -7.593  1.00  0.00     0.044 C 
HETATM   17  C   MOL     1     -55.257 -22.895  -8.261  1.00  0.00    -0.018 A 
HETATM   18  C   MOL     1     -55.156 -22.943  -9.411  1.00  0.00    -0.002 C 
HETATM   19  C   MOL     1     -55.955 -23.486  -7.858  1.00  0.00    -0.036 C 
HETATM   20  C   MOL     1     -54.280 -21.412  -8.219  1.00  0.00     0.041 A 
HETATM   21  C   MOL     1     -54.110 -22.548  -9.605  1.00  0.00    -0.059 C 
HETATM   22  C   MOL     1     -55.092 -24.117  -9.624  1.00  0.00     0.003 C 
HETATM   23  C   MOL     1     -53.812 -21.681  -9.109  1.00  0.00     0.009 C 
HETATM   24  C   MOL     1     -53.586 -22.852 -10.507  1.00  0.00     0.014 C 
HETATM   25  C   MOL     1     -54.083 -21.505 -10.507  1.00  0.00     0.028 C 
HETATM   26  C   MOL     1     -53.860 -23.781 -10.997  1.00  0.00     0.253 A 
HETATM   27  C   MOL     1     -54.583 -24.441 -10.526  1.00  0.00     0.003 A 
HETATM   28  O   MOL     1     -53.857 -24.892 -12.034  1.00  0.00    -0.382 OA
HETATM   29  C   MOL     1     -54.464 -25.732 -10.053  1.00  0.00     0.044 C 
HETATM   30  C   MOL     1     -54.514 -25.071 -11.302  1.00  0.00     0.080 A 
HETATM   31  O   MOL     1     -55.068 -25.903 -11.320  1.00  0.00     0.000 OA
HETATM   32  C   MOL     1     -53.835 -21.652  -7.116  1.00  0.00     0.025 C 
HETATM   33  C   MOL     1     -57.868 -22.490  -4.313  1.00  0.00    -0.012 C 
HETATM   34  O   MOL     1     -57.099 -23.814  -6.598  1.00  0.00     0.000 OA
ENDBRANCH   1   2
BRANCH   1  35
HETATM   35  C   MOL     1     -59.027 -21.443  -2.812  1.00  0.00    -0.027 A 
HETATM   36  O   MOL     1     -59.690 -20.823  -3.237  1.00  0.00     0.000 OA
HETATM   37  C   MOL     1     -60.663 -20.897  -3.013  1.00  0.00     0.096 A 
HETATM   38  C   MOL     1     -60.981 -21.657  -2.438  1.00  0.00     0.133 A 
HETATM   39  C   MOL     1     -60.309 -22.178  -1.902  1.00  0.00     0.055 A 
HETATM   40  O   MOL     1     -60.554 -22.241  -0.546  1.00  0.00     0.000 OA
HETATM   41  C   MOL     1     -59.339 -22.137  -2.163  1.00  0.00     0.007 A 
HETATM   42  H   MOL     1     -61.229 -22.972  -1.174  1.00  0.00     0.000 HD
HETATM   43  O   MOL     1     -59.958 -23.493  -0.829  1.00  0.00     0.000 OA
HETATM   44  C   MOL     1     -58.978 -23.352  -0.978  1.00  0.00     0.057 A 
HETATM   45  C   MOL     1     -60.266 -24.154  -0.143  1.00  0.00     0.071 C 
HETATM   46  O   MOL     1     -58.671 -22.691  -1.665  1.00  0.00     0.000 OA
HETATM   47  C   MOL     1     -58.320 -24.005  -0.591  1.00  0.00     0.154 A 
HETATM   48  C   MOL     1     -58.625 -24.633   0.132  1.00  0.00     0.211 A 
HETATM   49  C   MOL     1     -59.608 -24.807   0.245  1.00  0.00     0.146 C 
BRANCH  37  50
HETATM   50  C   MOL     1     -61.262 -19.679  -2.767  1.00  0.00     0.297 C 
HETATM   51  O   MOL     1     -61.936 -20.148  -3.919  1.00  0.00    -0.188 OA
HETATM   52  O   MOL     1     -60.377 -19.398  -3.834  1.00  0.00    -0.188 OA
ENDBRANCH  37  50
BRANCH  38  53
HETATM   53  O   MOL     1     -62.024 -22.396  -2.958  1.00  0.00    -0.395 OA
HETATM   54  H   MOL     1     -61.197 -23.058  -2.445  1.00  0.00     0.210 HD
ENDBRANCH  38  53
BRANCH  47  55
HETATM   55  O   MOL     1     -57.410 -24.529  -1.485  1.00  0.00    -0.393 OA
HETATM   56  H   MOL     1     -57.393 -25.065  -0.438  1.00  0.00     0.210 HD
ENDBRANCH  47  55
BRANCH  48  57
HETATM   57  O   MOL     1     -57.893 -24.589   1.301  1.00  0.00    -0.392 OA
HETATM   58  H   MOL     1     -58.446 -23.578   1.061  1.00  0.00     0.210 HD
ENDBRANCH  48  57
BRANCH  49  59
HETATM   59  O   MOL     1     -59.985 -26.132   0.187  1.00  0.00    -0.399 OA
HETATM   60  H   MOL     1     -59.167 -25.848  -0.608  1.00  0.00     0.209 HD
ENDBRANCH  49  59
BRANCH  45  61
HETATM   61  C   MOL     1     -61.177 -23.630   0.751  1.00  0.00     0.292 C 
HETATM   62  O   MOL     1     -61.022 -24.965   1.189  1.00  0.00    -0.188 OA
HETATM   63  O   MOL     1     -61.984 -24.386  -0.130  1.00  0.00    -0.188 OA
ENDBRANCH  45  61
ENDBRANCH   1  35
TORSDOF 8
ENDMDL
MODEL 2
REMARK VINA RESULT:     -13.5      2.231      4.129
REMARK  8 active torsions:
REMARK  status: ('A' for Active; 'I' for Inactive)
REMARK    1  A    between atoms: O_1  and  C_33 
REMARK    2  A    between atoms: O_1  and  C_49 
REMARK    3  A    between atoms: O_8  and  C_53 
REMARK    4  A    between atoms: O_12  and  C_56 
REMARK    5  A    between atoms: O_13  and  C_57 
REMARK    6  A    between atoms: O_14  and  C_59 
REMARK    7  A    between atoms: C_52  and  C_55 
REMARK    8  A    between atoms: C_58  and  C_60 
ROOT
HETATM    1  O   MOL     1     -61.563 -22.295  -1.285  1.00  0.00     0.000 OA
ENDROOT
BRANCH   1   2
HETATM    2  C   MOL     1     -60.897 -22.077  -1.999  1.00  0.00     0.007 C 
HETATM    3  C   MOL     1     -60.620 -21.043  -2.185  1.00  0.00    -0.058 C 
HETATM    4  C   MOL     1     -59.508 -20.824  -2.566  1.00  0.00    -0.007 C 
HETATM    5  C   MOL     1     -60.764 -20.065  -2.032  1.00  0.00     0.027 C 
HETATM    6  C   MOL     1     -61.300 -20.736  -1.520  1.00  0.00    -0.005 C 
HETATM    7  C   MOL     1     -59.390 -21.583  -3.458  1.00  0.00    -0.037 A 
HETATM    8  C   MOL     1     -59.624 -19.826  -3.137  1.00  0.00     0.006 C 
HETATM    9  C   MOL     1     -58.277 -21.349  -3.769  1.00  0.00     0.013 A 
HETATM   10  C   MOL     1     -59.580 -22.624  -3.217  1.00  0.00     0.014 C 
HETATM   11  C   MOL     1     -59.569 -22.308  -4.618  1.00  0.00     0.081 C 
HETATM   12  C   MOL     1     -58.148 -22.083  -4.603  1.00  0.00    -0.024 A 
HETATM   13  C   MOL     1     -58.438 -20.391  -4.368  1.00  0.00    -0.033 A 
HETATM   14  C   MOL     1     -57.666 -20.178  -4.976  1.00  0.00    -0.030 A 
HETATM   15  C   MOL     1     -58.892 -19.612  -3.847  1.00  0.00     0.011 C 
HETATM   16  C   MOL     1     -59.122 -19.383  -5.014  1.00  0.00     0.044 C 
HETATM   17  C   MOL     1     -57.222 -20.916  -5.487  1.00  0.00    -0.018 A 
HETATM   18  C   MOL     1     -56.838 -20.704  -6.555  1.00  0.00    -0.002 C 
HETATM   19  C   MOL     1     -57.446 -21.869  -5.282  1.00  0.00    -0.036 C 
HETATM   20  C   MOL     1     -57.478 -19.180  -5.215  1.00  0.00     0.041 A 
HETATM   21  C   MOL     1     -56.285 -19.718  -6.452  1.00  0.00    -0.059 C 
HETATM   22  C   MOL     1     -55.984 -21.528  -6.699  1.00  0.00     0.003 C 
HETATM   23  C   MOL     1     -56.749 -18.949  -5.921  1.00  0.00     0.009 C 
HETATM   24  C   MOL     1     -55.490 -19.479  -7.152  1.00  0.00     0.014 C 
HETATM   25  C   MOL     1     -56.719 -18.759  -7.343  1.00  0.00     0.028 C 
HETATM   26  C   MOL     1     -54.971 -20.281  -7.667  1.00  0.00     0.253 A 
HETATM   27  C   MOL     1     -55.185 -21.312  -7.403  1.00  0.00     0.003 A 
HETATM   28  O   MOL     1     -54.002 -20.961  -8.619  1.00  0.00    -0.382 OA
HETATM   29  C   MOL     1     -54.384 -22.300  -6.870  1.00  0.00     0.044 C 
HETATM   30  C   MOL     1     -54.542 -21.626  -8.102  1.00  0.00     0.080 A 
HETATM   31  O   MOL     1     -54.402 -22.605  -8.251  1.00  0.00     0.000 OA
HETATM   32  C   MOL     1     -57.271 -19.263  -4.023  1.00  0.00     0.025 C 
HETATM   33  C   MOL     1     -60.339 -22.873  -2.483  1.00  0.00    -0.012 C 
HETATM   34  O   MOL     1     -58.371 -23.037  -4.398  1.00  0.00     0.000 OA
ENDBRANCH   1   2
BRANCH   1  35
HETATM   35  C   MOL     1     -61.875 -23.238  -1.160  1.00  0.00    -0.027 A 
HETATM   36  O   MOL     1     -62.494 -23.649  -1.831  1.00  0.00     0.000 OA
HETATM   37  C   MOL     1     -62.888 -24.555  -1.663  1.00  0.00     0.096 A 
HETATM   38  C   MOL     1     -62.581 -25.087  -0.867  1.00  0.00     0.133 A 
HETATM   39  C   MOL     1     -62.084 -24.619  -0.130  1.00  0.00     0.055 A 
HETATM   40  O   MOL     1     -62.631 -24.751   1.130  1.00  0.00     0.000 OA
HETATM   41  C   MOL     1     -61.650 -23.732  -0.320  1.00  0.00     0.007 A 
HETATM   42  H   MOL     1     -62.036 -25.704   0.779  1.00  0.00     0.000 HD
HETATM   43  O   MOL     1     -61.239 -24.701   1.381  1.00  0.00     0.000 OA
HETATM   44  C   MOL     1     -60.927 -23.758   1.257  1.00  0.00     0.057 A 
HETATM   45  C   MOL     1     -61.055 -25.176   2.243  1.00  0.00     0.071 C 
HETATM   46  O   MOL     1     -61.112 -23.283   0.395  1.00  0.00     0.000 OA
HETATM   47  C   MOL     1     -60.268 -23.366   1.906  1.00  0.00     0.154 A 
HETATM   48  C   MOL     1     -60.123 -23.822   2.790  1.00  0.00     0.211 A 
HETATM   49  C   MOL     1     -60.395 -24.784   2.892  1.00  0.00     0.146 C 
BRANCH  37  50
HETATM   50  C   MOL     1     -64.238 -24.623  -1.936  1.00  0.00     0.297 C 
HETATM   51  O   MOL     1     -63.667 -25.494  -2.893  1.00  0.00    -0.188 OA
HETATM   52  O   MOL     1     -63.744 -23.765  -2.946  1.00  0.00    -0.188 OA
ENDBRANCH  37  50
BRANCH  38  53
HETATM   53  O   MOL     1     -62.162 -26.372  -1.141  1.00  0.00    -0.395 OA
HETATM   54  H   MOL     1     -61.488 -25.823  -0.348  1.00  0.00     0.210 HD
ENDBRANCH  38  53
BRANCH  47  55
HETATM   55  O   MOL     1     -59.143 -22.803   1.340  1.00  0.00    -0.393 OA
HETATM   56  H   MOL     1     -59.765 -22.044   1.989  1.00  0.00     0.210 HD
ENDBRANCH  47  55
BRANCH  48  57
HETATM   57  O   MOL     1     -60.317 -23.030   3.903  1.00  0.00    -0.392 OA
HETATM   58  H   MOL     1     -59.729 -22.485   3.042  1.00  0.00     0.210 HD
ENDBRANCH  48  57
BRANCH  49  59
HETATM   59  O   MOL     1     -59.398 -25.639   3.312  1.00  0.00    -0.399 OA
HETATM   60  H   MOL     1     -60.443 -26.166   3.197  1.00  0.00     0.209 HD
ENDBRANCH  49  59
BRANCH  45  61
HETATM   61  C   MOL     1     -62.180 -25.739   2.809  1.00  0.00     0.292 C 
HETATM   62  O   MOL     1     -61.169 -26.003   3.762  1.00  0.00    -0.188 OA
HETATM   63  O   MOL     1     -61.484 -26.855   2.287  1.00  0.00    -0.188 OA
ENDBRANCH  45  61
ENDBRANCH   1  35
TORSDOF 8
ENDMDL
MODEL 3
REMARK VINA RESULT:     -13.5      3.823      7.956
REMARK  8 active torsions:
REMARK  status: ('A' for Active; 'I' for Inactive)
REMARK    1  A    between atoms: O_1  and  C_33 
REMARK    2  A    between atoms: O_1  and  C_49 
REMARK    3  A    between atoms: O_8  and  C_53 
REMARK    4  A    between atoms: O_12  and  C_56 
REMARK    5  A    between atoms: O_13  and  C_57 
REMARK    6  A    between atoms: O_14  and  C_59 
REMARK    7  A    between atoms: C_52  and  C_55 
REMARK    8  A    between atoms: C_58  and  C_60 
ROOT
HETATM    1  O   MOL     1     -61.757 -25.882   2.318  1.00  0.00     0.000 OA
ENDROOT
BRANCH   1   2
HETATM    2  C   MOL     1     -61.347 -25.238   1.670  1.00  0.00     0.007 C 
HETATM    3  C   MOL     1     -60.882 -24.326   2.034  1.00  0.00    -0.058 C 
HETATM    4  C   MOL     1     -59.956 -23.889   1.418  1.00  0.00    -0.007 C 
HETATM    5  C   MOL     1     -60.693 -23.685   2.778  1.00  0.00     0.027 C 
HETATM    6  C   MOL     1     -61.179 -24.539   2.964  1.00  0.00    -0.005 C 
HETATM    7  C   MOL     1     -60.364 -23.883   0.313  1.00  0.00    -0.037 A 
HETATM    8  C   MOL     1     -59.987 -22.762   1.672  1.00  0.00     0.006 C 
HETATM    9  C   MOL     1     -59.409 -23.480  -0.247  1.00  0.00     0.013 A 
HETATM   10  C   MOL     1     -60.733 -24.835  -0.055  1.00  0.00     0.014 C 
HETATM   11  C   MOL     1     -61.122 -23.684  -0.822  1.00  0.00     0.081 C 
HETATM   12  C   MOL     1     -59.779 -23.493  -1.302  1.00  0.00    -0.024 A 
HETATM   13  C   MOL     1     -59.500 -22.366  -0.016  1.00  0.00    -0.033 A 
HETATM   14  C   MOL     1     -58.959 -21.793  -0.641  1.00  0.00    -0.030 A 
HETATM   15  C   MOL     1     -59.516 -22.123   0.996  1.00  0.00     0.011 C 
HETATM   16  C   MOL     1     -60.065 -21.195   0.443  1.00  0.00     0.044 C 
HETATM   17  C   MOL     1     -58.938 -22.013  -1.618  1.00  0.00    -0.018 A 
HETATM   18  C   MOL     1     -58.905 -21.150  -2.384  1.00  0.00    -0.002 C 
HETATM   19  C   MOL     1     -59.326 -22.875  -1.944  1.00  0.00    -0.036 C 
HETATM   20  C   MOL     1     -58.603 -20.876  -0.295  1.00  0.00     0.041 A 
HETATM   21  C   MOL     1     -58.105 -20.456  -1.974  1.00  0.00    -0.059 C 
HETATM   22  C   MOL     1     -58.411 -21.664  -3.343  1.00  0.00     0.003 C 
HETATM   23  C   MOL     1     -58.130 -20.227  -0.957  1.00  0.00     0.009 C 
HETATM   24  C   MOL     1     -57.568 -19.803  -2.655  1.00  0.00     0.014 C 
HETATM   25  C   MOL     1     -58.542 -19.158  -1.820  1.00  0.00     0.028 C 
HETATM   26  C   MOL     1     -57.498 -20.067  -3.706  1.00  0.00     0.253 A 
HETATM   27  C   MOL     1     -57.878 -21.027  -4.043  1.00  0.00     0.003 A 
HETATM   28  O   MOL     1     -57.140 -19.945  -5.178  1.00  0.00    -0.382 OA
HETATM   29  C   MOL     1     -57.242 -22.107  -4.618  1.00  0.00     0.044 C 
HETATM   30  C   MOL     1     -57.627 -20.797  -4.984  1.00  0.00     0.080 A 
HETATM   31  O   MOL     1     -57.819 -21.441  -5.724  1.00  0.00     0.000 OA
HETATM   32  C   MOL     1     -58.026 -21.709   0.371  1.00  0.00     0.025 C 
HETATM   33  C   MOL     1     -61.228 -25.517   0.628  1.00  0.00    -0.012 C 
HETATM   34  O   MOL     1     -60.168 -24.356  -1.629  1.00  0.00     0.000 OA
ENDBRANCH   1   2
BRANCH   1  35
HETATM   35  C   MOL     1     -62.688 -26.218   2.170  1.00  0.00    -0.027 A 
HETATM   36  O   MOL     1     -63.379 -25.608   1.776  1.00  0.00     0.000 OA
HETATM   37  C   MOL     1     -64.334 -25.904   1.717  1.00  0.00     0.096 A 
HETATM   38  C   MOL     1     -64.575 -26.848   1.963  1.00  0.00     0.133 A 
HETATM   39  C   MOL     1     -63.919 -27.398   2.489  1.00  0.00     0.055 A 
HETATM   40  O   MOL     1     -64.402 -27.927   3.668  1.00  0.00     0.000 OA
HETATM   41  C   MOL     1     -62.952 -27.122   2.504  1.00  0.00     0.007 A 
HETATM   42  H   MOL     1     -64.756 -28.518   2.715  1.00  0.00     0.000 HD
HETATM   43  O   MOL     1     -63.492 -28.912   3.217  1.00  0.00     0.000 OA
HETATM   44  C   MOL     1     -62.560 -28.577   3.365  1.00  0.00     0.057 A 
HETATM   45  C   MOL     1     -63.768 -29.797   3.596  1.00  0.00     0.071 C 
HETATM   46  O   MOL     1     -62.286 -27.692   2.986  1.00  0.00     0.000 OA
HETATM   47  C   MOL     1     -61.858 -29.205   3.714  1.00  0.00     0.154 A 
HETATM   48  C   MOL     1     -62.146 -30.071   4.137  1.00  0.00     0.211 A 
HETATM   49  C   MOL     1     -63.066 -30.426   3.945  1.00  0.00     0.146 C 
BRANCH  37  50
HETATM   50  C   MOL     1     -65.232 -24.939   2.124  1.00  0.00     0.297 C 
HETATM   51  O   MOL     1     -65.680 -25.275   0.825  1.00  0.00    -0.188 OA
HETATM   52  O   MOL     1     -64.364 -24.234   1.258  1.00  0.00    -0.188 OA
ENDBRANCH  37  50
BRANCH  38  53
HETATM   53  O   MOL     1     -65.300 -27.540   1.014  1.00  0.00    -0.395 OA
HETATM   54  H   MOL     1     -65.159 -28.138   2.018  1.00  0.00     0.210 HD
ENDBRANCH  38  53
BRANCH  47  55
HETATM   55  O   MOL     1     -60.697 -29.266   2.973  1.00  0.00    -0.393 OA
HETATM   56  H   MOL     1     -60.674 -28.433   3.804  1.00  0.00     0.210 HD
ENDBRANCH  47  55
BRANCH  48  57
HETATM   57  O   MOL     1     -61.685 -30.284   5.420  1.00  0.00    -0.392 OA
HETATM   58  H   MOL     1     -61.129 -29.406   4.867  1.00  0.00     0.210 HD
ENDBRANCH  48  57
BRANCH  49  59
HETATM   59  O   MOL     1     -63.112 -31.706   3.434  1.00  0.00    -0.399 OA
HETATM   60  H   MOL     1     -63.753 -31.573   4.411  1.00  0.00     0.209 HD
ENDBRANCH  49  59
BRANCH  45  61
HETATM   61  C   MOL     1     -64.930 -29.736   4.337  1.00  0.00     0.292 C 
HETATM   62  O   MOL     1     -64.539 -31.090   4.454  1.00  0.00    -0.188 OA
HETATM   63  O   MOL     1     -65.348 -30.331   3.123  1.00  0.00    -0.188 OA
ENDBRANCH  45  61
ENDBRANCH   1  35
TORSDOF 8
ENDMDL
MODEL 4
REMARK VINA RESULT:     -13.2      8.036     12.860
REMARK  8 active torsions:
REMARK  status: ('A' for Active; 'I' for Inactive)
REMARK    1  A    between atoms: O_1  and  C_33 
REMARK    2  A    between atoms: O_1  and  C_49 
REMARK    3  A    between atoms: O_8  and  C_53 
REMARK    4  A    between atoms: O_12  and  C_56 
REMARK    5  A    between atoms: O_13  and  C_57 
REMARK    6  A    between atoms: O_14  and  C_59 
REMARK    7  A    between atoms: C_52  and  C_55 
REMARK    8  A    between atoms: C_58  and  C_60 
ROOT
HETATM    1  O   MOL     1     -64.388 -25.781   2.963  1.00  0.00     0.000 OA
ENDROOT
BRANCH   1   2
HETATM    2  C   MOL     1     -65.143 -26.071   2.373  1.00  0.00     0.007 C 
HETATM    3  C   MOL     1     -65.808 -25.329   1.939  1.00  0.00    -0.058 C 
HETATM    4  C   MOL     1     -66.286 -25.567   0.870  1.00  0.00    -0.007 C 
HETATM    5  C   MOL     1     -66.134 -24.386   1.879  1.00  0.00     0.027 C 
HETATM    6  C   MOL     1     -65.346 -24.607   2.453  1.00  0.00    -0.005 C 
HETATM    7  C   MOL     1     -66.713 -26.654   1.017  1.00  0.00    -0.037 A 
HETATM    8  C   MOL     1     -67.259 -24.943   0.878  1.00  0.00     0.006 C 
HETATM    9  C   MOL     1     -67.137 -26.847  -0.065  1.00  0.00     0.013 A 
HETATM   10  C   MOL     1     -66.000 -27.396   1.360  1.00  0.00     0.014 C 
HETATM   11  C   MOL     1     -67.382 -27.766   1.485  1.00  0.00     0.081 C 
HETATM   12  C   MOL     1     -67.525 -27.889   0.058  1.00  0.00    -0.024 A 
HETATM   13  C   MOL     1     -68.114 -26.260  -0.003  1.00  0.00    -0.033 A 
HETATM   14  C   MOL     1     -68.776 -26.530  -0.709  1.00  0.00    -0.030 A 
HETATM   15  C   MOL     1     -68.010 -25.249   0.224  1.00  0.00     0.011 C 
HETATM   16  C   MOL     1     -69.137 -25.532   0.568  1.00  0.00     0.044 C 
HETATM   17  C   MOL     1     -68.889 -27.499  -0.934  1.00  0.00    -0.018 A 
HETATM   18  C   MOL     1     -69.943 -27.892  -1.200  1.00  0.00    -0.002 C 
HETATM   19  C   MOL     1     -68.249 -28.174  -0.570  1.00  0.00    -0.036 C 
HETATM   20  C   MOL     1     -69.467 -25.823  -1.041  1.00  0.00     0.041 A 
HETATM   21  C   MOL     1     -70.340 -27.122  -1.933  1.00  0.00    -0.059 C 
HETATM   22  C   MOL     1     -69.707 -28.859  -1.859  1.00  0.00     0.003 C 
HETATM   23  C   MOL     1     -70.223 -26.112  -1.696  1.00  0.00     0.009 C 
HETATM   24  C   MOL     1     -71.097 -27.416  -2.654  1.00  0.00     0.014 C 
HETATM   25  C   MOL     1     -71.564 -26.605  -1.564  1.00  0.00     0.028 C 
HETATM   26  C   MOL     1     -71.187 -28.459  -2.940  1.00  0.00     0.253 A 
HETATM   27  C   MOL     1     -70.457 -29.177  -2.579  1.00  0.00     0.003 A 
HETATM   28  O   MOL     1     -71.734 -29.699  -3.628  1.00  0.00    -0.382 OA
HETATM   29  C   MOL     1     -69.546 -29.966  -3.251  1.00  0.00     0.044 C 
HETATM   30  C   MOL     1     -70.945 -29.912  -3.051  1.00  0.00     0.080 A 
HETATM   31  O   MOL     1     -70.615 -30.854  -2.986  1.00  0.00     0.000 OA
HETATM   32  C   MOL     1     -68.388 -25.397  -1.393  1.00  0.00     0.025 C 
HETATM   33  C   MOL     1     -65.209 -27.103   2.043  1.00  0.00    -0.012 C 
HETATM   34  O   MOL     1     -66.883 -28.565   0.423  1.00  0.00     0.000 OA
ENDBRANCH   1   2
BRANCH   1  35
HETATM   35  C   MOL     1     -63.598 -26.380   3.097  1.00  0.00    -0.027 A 
HETATM   36  O   MOL     1     -63.667 -27.162   3.720  1.00  0.00     0.000 OA
HETATM   37  C   MOL     1     -62.854 -27.706   3.935  1.00  0.00     0.096 A 
HETATM   38  C   MOL     1     -61.994 -27.524   3.448  1.00  0.00     0.133 A 
HETATM   39  C   MOL     1     -61.892 -26.659   2.946  1.00  0.00     0.055 A 
HETATM   40  O   MOL     1     -60.800 -25.895   3.300  1.00  0.00     0.000 OA
HETATM   41  C   MOL     1     -62.716 -26.142   2.690  1.00  0.00     0.007 A 
HETATM   42  H   MOL     1     -60.524 -26.803   2.606  1.00  0.00     0.000 HD
HETATM   43  O   MOL     1     -60.941 -25.640   1.916  1.00  0.00     0.000 OA
HETATM   44  C   MOL     1     -61.732 -25.040   1.781  1.00  0.00     0.057 A 
HETATM   45  C   MOL     1     -60.048 -25.375   1.548  1.00  0.00     0.071 C 
HETATM   46  O   MOL     1     -62.624 -25.306   2.149  1.00  0.00     0.000 OA
HETATM   47  C   MOL     1     -61.673 -24.287   1.119  1.00  0.00     0.154 A 
HETATM   48  C   MOL     1     -60.769 -23.994   0.791  1.00  0.00     0.211 A 
HETATM   49  C   MOL     1     -59.990 -24.621   0.886  1.00  0.00     0.146 C 
BRANCH  37  50
HETATM   50  C   MOL     1     -62.725 -27.988   5.279  1.00  0.00     0.297 C 
HETATM   51  O   MOL     1     -62.370 -29.206   4.654  1.00  0.00    -0.188 OA
HETATM   52  O   MOL     1     -63.961 -28.584   4.938  1.00  0.00    -0.188 OA
ENDBRANCH  37  50
BRANCH  38  53
HETATM   53  O   MOL     1     -61.403 -28.623   2.861  1.00  0.00    -0.395 OA
HETATM   54  H   MOL     1     -61.375 -27.663   2.181  1.00  0.00     0.210 HD
ENDBRANCH  38  53
BRANCH  47  55
HETATM   55  O   MOL     1     -62.685 -24.242   0.182  1.00  0.00    -0.393 OA
HETATM   56  H   MOL     1     -62.721 -23.349   0.947  1.00  0.00     0.210 HD
ENDBRANCH  47  55
BRANCH  48  57
HETATM   57  O   MOL     1     -60.479 -22.657   0.971  1.00  0.00    -0.392 OA
HETATM   58  H   MOL     1     -59.591 -23.265   0.495  1.00  0.00     0.210 HD
ENDBRANCH  48  57
BRANCH  49  59
HETATM   59  O   MOL     1     -59.318 -24.911  -0.283  1.00  0.00    -0.399 OA
HETATM   60  H   MOL     1     -60.481 -24.812  -0.429  1.00  0.00     0.209 HD
ENDBRANCH  49  59
BRANCH  45  61
HETATM   61  C   MOL     1     -59.036 -25.420   2.486  1.00  0.00     0.292 C 
HETATM   62  O   MOL     1     -58.375 -24.987   1.313  1.00  0.00    -0.188 OA
HETATM   63  O   MOL     1     -58.838 -26.602   1.735  1.00  0.00    -0.188 OA
ENDBRANCH  45  61
ENDBRANCH   1  35
TORSDOF 8
ENDMDL
MODEL 5
REMARK VINA RESULT:     -13.2      8.353     14.682
REMARK  8 active torsions:
REMARK  status: ('A' for Active; 'I' for Inactive)
REMARK    1  A    between atoms: O_1  and  C_33 
REMARK    2  A    between atoms: O_1  and  C_49 
REMARK    3  A    between atoms: O_8  and  C_53 
REMARK    4  A    between atoms: O_12  and  C_56 
REMARK    5  A    between atoms: O_13  and  C_57 
REMARK    6  A    between atoms: O_14  and  C_59 
REMARK    7  A    between atoms: C_52  and  C_55 
REMARK    8  A    between atoms: C_58  and  C_60 
ROOT
HETATM    1  O   MOL     1     -66.000 -25.125  -0.244  1.00  0.00     0.000 OA
ENDROOT
BRANCH   1   2
HETATM    2  C   MOL     1     -66.808 -25.669  -0.013  1.00  0.00     0.007 C 
HETATM    3  C   MOL     1     -67.794 -25.213  -0.034  1.00  0.00    -0.058 C 
HETATM    4  C   MOL     1     -68.722 -25.906  -0.325  1.00  0.00    -0.007 C 
HETATM    5  C   MOL     1     -68.372 -24.400  -0.109  1.00  0.00     0.027 C 
HETATM    6  C   MOL     1     -67.382 -24.322  -0.230  1.00  0.00    -0.005 C 
HETATM    7  C   MOL     1     -68.575 -26.839   0.378  1.00  0.00    -0.037 A 
HETATM    8  C   MOL     1     -69.610 -25.376   0.192  1.00  0.00     0.006 C 
HETATM    9  C   MOL     1     -69.489 -27.495   0.027  1.00  0.00     0.013 A 
HETATM   10  C   MOL     1     -67.612 -27.333   0.305  1.00  0.00     0.014 C 
HETATM   11  C   MOL     1     -68.390 -27.665   1.466  1.00  0.00     0.081 C 
HETATM   12  C   MOL     1     -69.344 -28.396   0.674  1.00  0.00    -0.024 A 
HETATM   13  C   MOL     1     -70.333 -26.976   0.592  1.00  0.00    -0.033 A 
HETATM   14  C   MOL     1     -71.155 -27.548   0.677  1.00  0.00    -0.030 A 
HETATM   15  C   MOL     1     -70.450 -25.962   0.383  1.00  0.00     0.011 C 
HETATM   16  C   MOL     1     -70.939 -26.113   1.481  1.00  0.00     0.044 C 
HETATM   17  C   MOL     1     -71.058 -28.523   0.883  1.00  0.00    -0.018 A 
HETATM   18  C   MOL     1     -71.840 -29.032   1.564  1.00  0.00    -0.002 C 
HETATM   19  C   MOL     1     -70.155 -28.951   0.857  1.00  0.00    -0.036 C 
HETATM   20  C   MOL     1     -72.085 -27.080   0.750  1.00  0.00     0.041 A 
HETATM   21  C   MOL     1     -72.833 -28.668   1.152  1.00  0.00    -0.059 C 
HETATM   22  C   MOL     1     -71.769 -30.179   1.240  1.00  0.00     0.003 C 
HETATM   23  C   MOL     1     -72.934 -27.652   0.940  1.00  0.00     0.009 C 
HETATM   24  C   MOL     1     -73.723 -29.272   1.300  1.00  0.00     0.014 C 
HETATM   25  C   MOL     1     -73.638 -28.089   2.111  1.00  0.00     0.028 C 
HETATM   26  C   MOL     1     -73.623 -30.340   1.470  1.00  0.00     0.253 A 
HETATM   27  C   MOL     1     -72.645 -30.804   1.391  1.00  0.00     0.003 A 
HETATM   28  O   MOL     1     -74.033 -31.774   1.757  1.00  0.00    -0.382 OA
HETATM   29  C   MOL     1     -72.162 -31.771   0.533  1.00  0.00     0.044 C 
HETATM   30  C   MOL     1     -73.044 -31.689   1.635  1.00  0.00     0.080 A 
HETATM   31  O   MOL     1     -72.460 -32.497   1.708  1.00  0.00     0.000 OA
HETATM   32  C   MOL     1     -71.682 -26.807  -0.360  1.00  0.00     0.025 C 
HETATM   33  C   MOL     1     -66.722 -26.744   0.108  1.00  0.00    -0.012 C 
HETATM   34  O   MOL     1     -68.439 -28.824   0.648  1.00  0.00     0.000 OA
ENDBRANCH   1   2
BRANCH   1  35
HETATM   35  C   MOL     1     -65.185 -25.166   0.335  1.00  0.00    -0.027 A 
HETATM   36  O   MOL     1     -65.284 -25.175   1.332  1.00  0.00     0.000 OA
HETATM   37  C   MOL     1     -64.474 -25.116   1.917  1.00  0.00     0.096 A 
HETATM   38  C   MOL     1     -63.560 -25.147   1.501  1.00  0.00     0.133 A 
HETATM   39  C   MOL     1     -63.468 -24.988   0.513  1.00  0.00     0.055 A 
HETATM   40  O   MOL     1     -62.607 -23.971   0.154  1.00  0.00     0.000 OA
HETATM   41  C   MOL     1     -64.276 -25.097  -0.076  1.00  0.00     0.007 A 
HETATM   42  H   MOL     1     -62.053 -24.963   0.460  1.00  0.00     0.000 HD
HETATM   43  O   MOL     1     -62.460 -24.909  -0.895  1.00  0.00     0.000 OA
HETATM   44  C   MOL     1     -63.275 -24.869  -1.475  1.00  0.00     0.057 A 
HETATM   45  C   MOL     1     -61.554 -24.790  -1.303  1.00  0.00     0.071 C 
HETATM   46  O   MOL     1     -64.181 -24.988  -1.066  1.00  0.00     0.000 OA
HETATM   47  C   MOL     1     -63.174 -24.909  -2.474  1.00  0.00     0.154 A 
HETATM   48  C   MOL     1     -62.270 -24.741  -2.879  1.00  0.00     0.211 A 
HETATM   49  C   MOL     1     -61.452 -24.831  -2.302  1.00  0.00     0.146 C 
BRANCH  37  50
HETATM   50  C   MOL     1     -64.619 -24.228   2.963  1.00  0.00     0.297 C 
HETATM   51  O   MOL     1     -64.245 -25.430   3.606  1.00  0.00    -0.188 OA
HETATM   52  O   MOL     1     -65.810 -24.988   3.013  1.00  0.00    -0.188 OA
ENDBRANCH  37  50
BRANCH  38  53
HETATM   53  O   MOL     1     -62.699 -26.084   2.032  1.00  0.00    -0.395 OA
HETATM   54  H   MOL     1     -62.774 -25.105   2.679  1.00  0.00     0.210 HD
ENDBRANCH  38  53
BRANCH  47  55
HETATM   55  O   MOL     1     -63.938 -25.866  -3.109  1.00  0.00    -0.393 OA
HETATM   56  H   MOL     1     -63.853 -26.035  -1.947  1.00  0.00     0.210 HD
ENDBRANCH  47  55
BRANCH  48  57
HETATM   57  O   MOL     1     -62.221 -23.734  -3.821  1.00  0.00    -0.392 OA
HETATM   58  H   MOL     1     -61.396 -23.631  -2.989  1.00  0.00     0.210 HD
ENDBRANCH  48  57
BRANCH  49  59
HETATM   59  O   MOL     1     -60.494 -25.709  -2.764  1.00  0.00    -0.399 OA
HETATM   60  H   MOL     1     -60.530 -25.638  -1.591  1.00  0.00     0.209 HD
ENDBRANCH  49  59
BRANCH  45  61
HETATM   61  C   MOL     1     -60.789 -23.834  -0.667  1.00  0.00     0.292 C 
HETATM   62  O   MOL     1     -59.949 -24.280  -1.714  1.00  0.00    -0.188 OA
HETATM   63  O   MOL     1     -60.248 -25.051  -0.192  1.00  0.00    -0.188 OA
ENDBRANCH  45  61
ENDBRANCH   1  35
TORSDOF 8
ENDMDL
MODEL 6
REMARK VINA RESULT:     -13.2      7.944     14.159
REMARK  8 active torsions:
REMARK  status: ('A' for Active; 'I' for Inactive)
REMARK    1  A    between atoms: O_1  and  C_33 
REMARK    2  A    between atoms: O_1  and  C_49 
REMARK    3  A    between atoms: O_8  and  C_53 
REMARK    4  A    between atoms: O_12  and  C_56 
REMARK    5  A    between atoms: O_13  and  C_57 
REMARK    6  A    between atoms: O_14  and  C_59 
REMARK    7  A    between atoms: C_52  and  C_55 
REMARK    8  A    between atoms: C_58  and  C_60 
ROOT
HETATM    1  O   MOL     1     -65.362 -24.973   0.740  1.00  0.00     0.000 OA
ENDROOT
BRANCH   1   2
HETATM    2  C   MOL     1     -66.214 -25.494   0.666  1.00  0.00     0.007 C 
HETATM    3  C   MOL     1     -67.122 -25.120   1.132  1.00  0.00    -0.058 C 
HETATM    4  C   MOL     1     -68.164 -25.376   0.607  1.00  0.00    -0.007 C 
HETATM    5  C   MOL     1     -67.582 -24.469   1.735  1.00  0.00     0.027 C 
HETATM    6  C   MOL     1     -66.607 -24.363   1.536  1.00  0.00    -0.005 C 
HETATM    7  C   MOL     1     -68.085 -26.539   0.437  1.00  0.00    -0.037 A 
HETATM    8  C   MOL     1     -68.912 -25.331   1.486  1.00  0.00     0.006 C 
HETATM    9  C   MOL     1     -69.113 -26.729  -0.107  1.00  0.00     0.013 A 
HETATM   10  C   MOL     1     -67.214 -26.874  -0.116  1.00  0.00     0.014 C 
HETATM   11  C   MOL     1     -67.916 -27.898   0.607  1.00  0.00     0.081 C 
HETATM   12  C   MOL     1     -69.037 -27.829  -0.293  1.00  0.00    -0.024 A 
HETATM   13  C   MOL     1     -69.816 -26.725   0.792  1.00  0.00    -0.033 A 
HETATM   14  C   MOL     1     -70.699 -27.163   0.598  1.00  0.00    -0.030 A 
HETATM   15  C   MOL     1     -69.806 -25.852   1.360  1.00  0.00     0.011 C 
HETATM   16  C   MOL     1     -70.203 -26.713   2.116  1.00  0.00     0.044 C 
HETATM   17  C   MOL     1     -70.724 -28.005   0.056  1.00  0.00    -0.018 A 
HETATM   18  C   MOL     1     -71.501 -28.817   0.321  1.00  0.00    -0.002 C 
HETATM   19  C   MOL     1     -69.898 -28.324  -0.409  1.00  0.00    -0.036 C 
HETATM   20  C   MOL     1     -71.541 -26.848   1.128  1.00  0.00     0.041 A 
HETATM   21  C   MOL     1     -72.467 -28.234   0.447  1.00  0.00    -0.059 C 
HETATM   22  C   MOL     1     -71.627 -29.411  -0.709  1.00  0.00     0.003 C 
HETATM   23  C   MOL     1     -72.441 -27.358   1.013  1.00  0.00     0.009 C 
HETATM   24  C   MOL     1     -73.416 -28.738   0.287  1.00  0.00     0.014 C 
HETATM   25  C   MOL     1     -73.085 -28.466   1.658  1.00  0.00     0.028 C 
HETATM   26  C   MOL     1     -73.454 -29.620  -0.343  1.00  0.00     0.253 A 
HETATM   27  C   MOL     1     -72.565 -29.930  -0.884  1.00  0.00     0.003 A 
HETATM   28  O   MOL     1     -74.036 -30.829  -1.057  1.00  0.00    -0.382 OA
HETATM   29  C   MOL     1     -72.311 -30.034  -2.236  1.00  0.00     0.044 C 
HETATM   30  C   MOL     1     -73.061 -30.717  -1.252  1.00  0.00     0.080 A 
HETATM   31  O   MOL     1     -72.595 -31.365  -1.854  1.00  0.00     0.000 OA
HETATM   32  C   MOL     1     -71.211 -25.890   0.463  1.00  0.00     0.025 C 
HETATM   33  C   MOL     1     -66.272 -26.349  -0.001  1.00  0.00    -0.012 C 
HETATM   34  O   MOL     1     -68.210 -28.147  -0.759  1.00  0.00     0.000 OA
ENDBRANCH   1   2
BRANCH   1  35
HETATM   35  C   MOL     1     -64.495 -25.448   0.893  1.00  0.00    -0.027 A 
HETATM   36  O   MOL     1     -64.336 -25.927   1.759  1.00  0.00     0.000 OA
HETATM   37  C   MOL     1     -63.436 -26.319   1.958  1.00  0.00     0.096 A 
HETATM   38  C   MOL     1     -62.727 -26.317   1.245  1.00  0.00     0.133 A 
HETATM   39  C   MOL     1     -62.839 -25.714   0.449  1.00  0.00     0.055 A 
HETATM   40  O   MOL     1     -61.797 -24.839   0.218  1.00  0.00     0.000 OA
HETATM   41  C   MOL     1     -63.754 -25.363   0.226  1.00  0.00     0.007 A 
HETATM   42  H   MOL     1     -61.566 -25.938  -0.132  1.00  0.00     0.000 HD
HETATM   43  O   MOL     1     -62.257 -25.149  -1.083  1.00  0.00     0.000 OA
HETATM   44  C   MOL     1     -63.125 -24.674  -1.236  1.00  0.00     0.057 A 
HETATM   45  C   MOL     1     -61.501 -25.022  -1.727  1.00  0.00     0.071 C 
HETATM   46  O   MOL     1     -63.881 -24.802  -0.592  1.00  0.00     0.000 OA
HETATM   47  C   MOL     1     -63.300 -24.238  -2.125  1.00  0.00     0.154 A 
HETATM   48  C   MOL     1     -62.527 -24.069  -2.745  1.00  0.00     0.211 A 
HETATM   49  C   MOL     1     -61.675 -24.586  -2.615  1.00  0.00     0.146 C 
BRANCH  37  50
HETATM   50  C   MOL     1     -62.993 -26.050   3.235  1.00  0.00     0.297 C 
HETATM   51  O   MOL     1     -63.053 -27.463   3.202  1.00  0.00    -0.188 OA
HETATM   52  O   MOL     1     -64.362 -26.350   3.422  1.00  0.00    -0.188 OA
ENDBRANCH  37  50
BRANCH  38  53
HETATM   53  O   MOL     1     -62.144 -27.539   0.986  1.00  0.00    -0.395 OA
HETATM   54  H   MOL     1     -62.561 -27.447   2.082  1.00  0.00     0.210 HD
ENDBRANCH  38  53
BRANCH  47  55
HETATM   55  O   MOL     1     -64.484 -24.593  -2.736  1.00  0.00    -0.393 OA
HETATM   56  H   MOL     1     -63.556 -25.196  -3.136  1.00  0.00     0.210 HD
ENDBRANCH  47  55
BRANCH  48  57
HETATM   57  O   MOL     1     -62.369 -22.760  -3.152  1.00  0.00    -0.392 OA
HETATM   58  H   MOL     1     -63.470 -23.014  -2.823  1.00  0.00     0.210 HD
ENDBRANCH  48  57
BRANCH  49  59
HETATM   59  O   MOL     1     -61.235 -25.289  -3.717  1.00  0.00    -0.399 OA
HETATM   60  H   MOL     1     -61.986 -24.425  -3.987  1.00  0.00     0.209 HD
ENDBRANCH  49  59
BRANCH  45  61
HETATM   61  C   MOL     1     -60.316 -24.668  -1.115  1.00  0.00     0.292 C 
HETATM   62  O   MOL     1     -60.010 -24.579  -2.493  1.00  0.00    -0.188 OA
HETATM   63  O   MOL     1     -60.089 -26.005  -1.513  1.00  0.00    -0.188 OA
ENDBRANCH  45  61
ENDBRANCH   1  35
TORSDOF 8
ENDMDL
MODEL 7
REMARK VINA RESULT:     -13.0      2.927     10.255
REMARK  8 active torsions:
REMARK  status: ('A' for Active; 'I' for Inactive)
REMARK    1  A    between atoms: O_1  and  C_33 
REMARK    2  A    between atoms: O_1  and  C_49 
REMARK    3  A    between atoms: O_8  and  C_53 
REMARK    4  A    between atoms: O_12  and  C_56 
REMARK    5  A    between atoms: O_13  and  C_57 
REMARK    6  A    between atoms: O_14  and  C_59 
REMARK    7  A    between atoms: C_52  and  C_55 
REMARK    8  A    between atoms: C_58  and  C_60 
ROOT
HETATM    1  O   MOL     1     -58.200 -23.002  -2.302  1.00  0.00     0.000 OA
ENDROOT
BRANCH   1   2
HETATM    2  C   MOL     1     -58.873 -23.424  -1.693  1.00  0.00     0.007 C 
HETATM    3  C   MOL     1     -58.544 -24.087  -0.897  1.00  0.00    -0.058 C 
HETATM    4  C   MOL     1     -59.192 -24.117   0.106  1.00  0.00    -0.007 C 
HETATM    5  C   MOL     1     -57.821 -24.614  -0.451  1.00  0.00     0.027 C 
HETATM    6  C   MOL     1     -57.602 -24.021  -1.226  1.00  0.00    -0.005 C 
HETATM    7  C   MOL     1     -60.287 -24.266  -0.300  1.00  0.00    -0.037 A 
HETATM    8  C   MOL     1     -58.966 -25.171   0.526  1.00  0.00     0.006 C 
HETATM    9  C   MOL     1     -60.879 -24.255   0.719  1.00  0.00     0.013 A 
HETATM   10  C   MOL     1     -60.622 -23.529  -1.024  1.00  0.00     0.014 C 
HETATM   11  C   MOL     1     -61.409 -24.729  -0.955  1.00  0.00     0.081 C 
HETATM   12  C   MOL     1     -61.924 -24.371   0.340  1.00  0.00    -0.024 A 
HETATM   13  C   MOL     1     -60.675 -25.319   1.077  1.00  0.00    -0.033 A 
HETATM   14  C   MOL     1     -61.325 -25.625   1.779  1.00  0.00    -0.030 A 
HETATM   15  C   MOL     1     -59.668 -25.564   1.188  1.00  0.00     0.011 C 
HETATM   16  C   MOL     1     -60.234 -26.625   1.029  1.00  0.00     0.044 C 
HETATM   17  C   MOL     1     -62.296 -25.399   1.683  1.00  0.00    -0.018 A 
HETATM   18  C   MOL     1     -63.086 -26.169   2.027  1.00  0.00    -0.002 C 
HETATM   19  C   MOL     1     -62.592 -24.753   0.979  1.00  0.00    -0.036 C 
HETATM   20  C   MOL     1     -61.012 -26.335   2.476  1.00  0.00     0.041 A 
HETATM   21  C   MOL     1     -62.712 -26.501   3.046  1.00  0.00    -0.059 C 
HETATM   22  C   MOL     1     -64.041 -25.488   2.251  1.00  0.00     0.003 C 
HETATM   23  C   MOL     1     -61.701 -26.737   3.145  1.00  0.00     0.009 C 
HETATM   24  C   MOL     1     -63.421 -26.882   3.775  1.00  0.00     0.014 C 
HETATM   25  C   MOL     1     -62.582 -27.869   3.156  1.00  0.00     0.028 C 
HETATM   26  C   MOL     1     -64.466 -26.595   3.704  1.00  0.00     0.253 A 
HETATM   27  C   MOL     1     -64.769 -25.856   2.969  1.00  0.00     0.003 A 
HETATM   28  O   MOL     1     -65.948 -26.545   4.036  1.00  0.00    -0.382 OA
HETATM   29  C   MOL     1     -65.330 -24.604   3.114  1.00  0.00     0.044 C 
HETATM   30  C   MOL     1     -65.722 -25.955   3.261  1.00  0.00     0.080 A 
HETATM   31  O   MOL     1     -66.440 -25.426   2.810  1.00  0.00     0.000 OA
HETATM   32  C   MOL     1     -60.337 -25.353   2.701  1.00  0.00     0.025 C 
HETATM   33  C   MOL     1     -59.911 -23.105  -1.725  1.00  0.00    -0.012 C 
HETATM   34  O   MOL     1     -62.220 -23.725  -0.365  1.00  0.00     0.000 OA
ENDBRANCH   1   2
BRANCH   1  35
HETATM   35  C   MOL     1     -58.139 -22.006  -2.369  1.00  0.00    -0.027 A 
HETATM   36  O   MOL     1     -58.405 -21.438  -1.587  1.00  0.00     0.000 OA
HETATM   37  C   MOL     1     -58.440 -20.441  -1.678  1.00  0.00     0.096 A 
HETATM   38  C   MOL     1     -58.114 -20.011  -2.526  1.00  0.00     0.133 A 
HETATM   39  C   MOL     1     -57.993 -20.579  -3.346  1.00  0.00     0.055 A 
HETATM   40  O   MOL     1     -58.681 -20.157  -4.465  1.00  0.00     0.000 OA
HETATM   41  C   MOL     1     -57.909 -21.576  -3.242  1.00  0.00     0.007 A 
HETATM   42  H   MOL     1     -57.707 -19.532  -4.256  1.00  0.00     0.000 HD
HETATM   43  O   MOL     1     -57.498 -20.717  -5.001  1.00  0.00     0.000 OA
HETATM   44  C   MOL     1     -57.559 -21.715  -4.935  1.00  0.00     0.057 A 
HETATM   45  C   MOL     1     -57.317 -20.288  -5.888  1.00  0.00     0.071 C 
HETATM   46  O   MOL     1     -57.741 -22.143  -4.049  1.00  0.00     0.000 OA
HETATM   47  C   MOL     1     -57.246 -22.281  -5.704  1.00  0.00     0.154 A 
HETATM   48  C   MOL     1     -57.112 -21.852  -6.603  1.00  0.00     0.211 A 
HETATM   49  C   MOL     1     -57.003 -20.855  -6.656  1.00  0.00     0.146 C 
BRANCH  37  50
HETATM   50  C   MOL     1     -59.575 -19.882  -1.129  1.00  0.00     0.297 C 
HETATM   51  O   MOL     1     -58.562 -18.948  -0.808  1.00  0.00    -0.188 OA
HETATM   52  O   MOL     1     -58.916 -20.445  -0.012  1.00  0.00    -0.188 OA
ENDBRANCH  37  50
BRANCH  38  53
HETATM   53  O   MOL     1     -57.183 -19.007  -2.360  1.00  0.00    -0.395 OA
HETATM   54  H   MOL     1     -57.203 -19.773  -1.467  1.00  0.00     0.210 HD
ENDBRANCH  38  53
BRANCH  47  55
HETATM   55  O   MOL     1     -56.341 -23.270  -5.380  1.00  0.00    -0.393 OA
HETATM   56  H   MOL     1     -56.228 -22.883  -6.485  1.00  0.00     0.210 HD
ENDBRANCH  47  55
BRANCH  48  57
HETATM   57  O   MOL     1     -57.813 -22.427  -7.643  1.00  0.00    -0.392 OA
HETATM   58  H   MOL     1     -58.474 -21.722  -6.972  1.00  0.00     0.210 HD
ENDBRANCH  48  57
BRANCH  49  59
HETATM   59  O   MOL     1     -55.855 -20.418  -7.284  1.00  0.00    -0.399 OA
HETATM   60  H   MOL     1     -56.838 -20.144  -7.870  1.00  0.00     0.209 HD
ENDBRANCH  49  59
BRANCH  45  61
HETATM   61  C   MOL     1     -58.222 -19.298  -6.211  1.00  0.00     0.292 C 
HETATM   62  O   MOL     1     -57.363 -19.335  -7.335  1.00  0.00    -0.188 OA
HETATM   63  O   MOL     1     -57.077 -18.573  -5.806  1.00  0.00    -0.188 OA
ENDBRANCH  45  61
ENDBRANCH   1  35
TORSDOF 8
ENDMDL
MODEL 8
REMARK VINA RESULT:     -12.8      2.613      9.884
REMARK  8 active torsions:
REMARK  status: ('A' for Active; 'I' for Inactive)
REMARK    1  A    between atoms: O_1  and  C_33 
REMARK    2  A    between atoms: O_1  and  C_49 
REMARK    3  A    between atoms: O_8  and  C_53 
REMARK    4  A    between atoms: O_12  and  C_56 
REMARK    5  A    between atoms: O_13  and  C_57 
REMARK    6  A    between atoms: O_14  and  C_59 
REMARK    7  A    between atoms: C_52  and  C_55 
REMARK    8  A    between atoms: C_58  and  C_60 
ROOT
HETATM    1  O   MOL     1     -58.885 -22.563  -4.038  1.00  0.00     0.000 OA
ENDROOT
BRANCH   1   2
HETATM    2  C   MOL     1     -59.435 -22.929  -3.285  1.00  0.00     0.007 C 
HETATM    3  C   MOL     1     -60.498 -23.106  -3.426  1.00  0.00    -0.058 C 
HETATM    4  C   MOL     1     -60.998 -24.006  -2.820  1.00  0.00    -0.007 C 
HETATM    5  C   MOL     1     -61.328 -23.011  -3.975  1.00  0.00     0.027 C 
HETATM    6  C   MOL     1     -60.449 -22.702  -4.339  1.00  0.00    -0.005 C 
HETATM    7  C   MOL     1     -60.625 -23.812  -1.720  1.00  0.00    -0.037 A 
HETATM    8  C   MOL     1     -62.104 -23.680  -2.740  1.00  0.00     0.006 C 
HETATM    9  C   MOL     1     -61.114 -24.738  -1.180  1.00  0.00     0.013 A 
HETATM   10  C   MOL     1     -59.549 -23.736  -1.596  1.00  0.00     0.014 C 
HETATM   11  C   MOL     1     -60.333 -23.244  -0.497  1.00  0.00     0.081 C 
HETATM   12  C   MOL     1     -60.745 -24.575  -0.137  1.00  0.00    -0.024 A 
HETATM   13  C   MOL     1     -62.186 -24.361  -1.075  1.00  0.00    -0.033 A 
HETATM   14  C   MOL     1     -62.710 -24.863  -0.379  1.00  0.00    -0.030 A 
HETATM   15  C   MOL     1     -62.658 -24.110  -1.969  1.00  0.00     0.011 C 
HETATM   16  C   MOL     1     -63.244 -23.476  -1.118  1.00  0.00     0.044 C 
HETATM   17  C   MOL     1     -62.270 -25.108   0.487  1.00  0.00    -0.018 A 
HETATM   18  C   MOL     1     -62.896 -25.085   1.457  1.00  0.00    -0.002 C 
HETATM   19  C   MOL     1     -61.284 -24.986   0.598  1.00  0.00    -0.036 C 
HETATM   20  C   MOL     1     -63.744 -24.938  -0.490  1.00  0.00     0.041 A 
HETATM   21  C   MOL     1     -63.854 -25.623   1.173  1.00  0.00    -0.059 C 
HETATM   22  C   MOL     1     -62.311 -25.844   2.170  1.00  0.00     0.003 C 
HETATM   23  C   MOL     1     -64.312 -25.366   0.271  1.00  0.00     0.009 C 
HETATM   24  C   MOL     1     -64.438 -26.114   1.946  1.00  0.00     0.014 C 
HETATM   25  C   MOL     1     -64.989 -24.887   1.442  1.00  0.00     0.028 C 
HETATM   26  C   MOL     1     -63.952 -26.428   2.864  1.00  0.00     0.253 A 
HETATM   27  C   MOL     1     -62.874 -26.338   2.957  1.00  0.00     0.003 A 
HETATM   28  O   MOL     1     -63.799 -27.007   4.261  1.00  0.00    -0.382 OA
HETATM   29  C   MOL     1     -61.892 -27.291   3.128  1.00  0.00     0.044 C 
HETATM   30  C   MOL     1     -62.923 -26.696   3.890  1.00  0.00     0.080 A 
HETATM   31  O   MOL     1     -62.090 -26.788   4.435  1.00  0.00     0.000 OA
HETATM   32  C   MOL     1     -63.282 -25.557  -1.424  1.00  0.00     0.025 C 
HETATM   33  C   MOL     1     -58.950 -23.291  -2.384  1.00  0.00    -0.012 C 
HETATM   34  O   MOL     1     -59.758 -24.453  -0.026  1.00  0.00     0.000 OA
ENDBRANCH   1   2
BRANCH   1  35
HETATM   35  C   MOL     1     -58.270 -21.790  -3.880  1.00  0.00    -0.027 A 
HETATM   36  O   MOL     1     -58.482 -21.125  -3.161  1.00  0.00     0.000 OA
HETATM   37  C   MOL     1     -57.926 -20.298  -3.063  1.00  0.00     0.096 A 
HETATM   38  C   MOL     1     -57.099 -20.188  -3.623  1.00  0.00     0.133 A 
HETATM   39  C   MOL     1     -56.977 -20.772  -4.432  1.00  0.00     0.055 A 
HETATM   40  O   MOL     1     -56.778 -20.103  -5.621  1.00  0.00     0.000 OA
HETATM   41  C   MOL     1     -57.503 -21.627  -4.500  1.00  0.00     0.007 A 
HETATM   42  H   MOL     1     -55.818 -20.140  -4.943  1.00  0.00     0.000 HD
HETATM   43  O   MOL     1     -55.999 -21.274  -5.771  1.00  0.00     0.000 OA
HETATM   44  C   MOL     1     -56.614 -22.048  -5.929  1.00  0.00     0.057 A 
HETATM   45  C   MOL     1     -55.262 -21.085  -6.422  1.00  0.00     0.071 C 
HETATM   46  O   MOL     1     -57.351 -22.237  -5.278  1.00  0.00     0.000 OA
HETATM   47  C   MOL     1     -56.373 -22.739  -6.618  1.00  0.00     0.154 A 
HETATM   48  C   MOL     1     -55.665 -22.523  -7.299  1.00  0.00     0.211 A 
HETATM   49  C   MOL     1     -55.020 -21.776  -7.110  1.00  0.00     0.146 C 
BRANCH  37  50
HETATM   50  C   MOL     1     -58.676 -19.154  -2.883  1.00  0.00     0.297 C 
HETATM   51  O   MOL     1     -57.616 -18.998  -1.959  1.00  0.00    -0.188 OA
HETATM   52  O   MOL     1     -59.045 -19.962  -1.782  1.00  0.00    -0.188 OA
ENDBRANCH  37  50
BRANCH  38  53
HETATM   53  O   MOL     1     -55.946 -19.894  -2.926  1.00  0.00    -0.395 OA
HETATM   54  H   MOL     1     -56.926 -19.712  -2.300  1.00  0.00     0.210 HD
ENDBRANCH  38  53
BRANCH  47  55
HETATM   55  O   MOL     1     -56.390 -24.046  -6.177  1.00  0.00    -0.393 OA
HETATM   56  H   MOL     1     -56.228 -23.950  -7.339  1.00  0.00     0.210 HD
ENDBRANCH  47  55
BRANCH  48  57
HETATM   57  O   MOL     1     -56.051 -22.654  -8.616  1.00  0.00    -0.392 OA
HETATM   58  H   MOL     1     -55.466 -21.656  -8.402  1.00  0.00     0.210 HD
ENDBRANCH  48  57
BRANCH  49  59
HETATM   59  O   MOL     1     -53.685 -22.119  -7.162  1.00  0.00    -0.399 OA
HETATM   60  H   MOL     1     -54.149 -22.219  -6.086  1.00  0.00     0.209 HD
ENDBRANCH  49  59
BRANCH  45  61
HETATM   61  C   MOL     1     -55.244 -19.777  -6.862  1.00  0.00     0.292 C 
HETATM   62  O   MOL     1     -54.072 -20.329  -7.430  1.00  0.00    -0.188 OA
HETATM   63  O   MOL     1     -54.305 -19.777  -5.805  1.00  0.00    -0.188 OA
ENDBRANCH  45  61
ENDBRANCH   1  35
TORSDOF 8
ENDMDL
MODEL 9
REMARK VINA RESULT:     -12.8      7.362     13.728
REMARK  8 active torsions:
REMARK  status: ('A' for Active; 'I' for Inactive)
REMARK    1  A    between atoms: O_1  and  C_33 
REMARK    2  A    between atoms: O_1  and  C_49 
REMARK    3  A    between atoms: O_8  and  C_53 
REMARK    4  A    between atoms: O_12  and  C_56 
REMARK    5  A    between atoms: O_13  and  C_57 
REMARK    6  A    between atoms: O_14  and  C_59 
REMARK    7  A    between atoms: C_52  and  C_55 
REMARK    8  A    between atoms: C_58  and  C_60 
ROOT
HETATM    1  O   MOL     1     -62.820 -26.102   2.613  1.00  0.00     0.000 OA
ENDROOT
BRANCH   1   2
HETATM    2  C   MOL     1     -62.791 -27.016   3.021  1.00  0.00     0.007 C 
HETATM    3  C   MOL     1     -63.606 -27.354   3.654  1.00  0.00    -0.058 C 
HETATM    4  C   MOL     1     -63.862 -28.521   3.658  1.00  0.00    -0.007 C 
HETATM    5  C   MOL     1     -64.448 -27.164   4.160  1.00  0.00     0.027 C 
HETATM    6  C   MOL     1     -64.035 -26.453   3.591  1.00  0.00    -0.005 C 
HETATM    7  C   MOL     1     -62.806 -29.014   3.829  1.00  0.00    -0.037 A 
HETATM    8  C   MOL     1     -64.350 -28.674   4.695  1.00  0.00     0.006 C 
HETATM    9  C   MOL     1     -63.111 -30.151   3.791  1.00  0.00     0.013 A 
HETATM   10  C   MOL     1     -62.036 -28.729   3.120  1.00  0.00     0.014 C 
HETATM   11  C   MOL     1     -61.565 -29.356   4.324  1.00  0.00     0.081 C 
HETATM   12  C   MOL     1     -62.110 -30.628   3.929  1.00  0.00    -0.024 A 
HETATM   13  C   MOL     1     -63.541 -30.276   4.840  1.00  0.00    -0.033 A 
HETATM   14  C   MOL     1     -63.589 -31.238   5.129  1.00  0.00    -0.030 A 
HETATM   15  C   MOL     1     -64.336 -29.645   5.073  1.00  0.00     0.011 C 
HETATM   16  C   MOL     1     -63.857 -29.951   6.143  1.00  0.00     0.044 C 
HETATM   17  C   MOL     1     -62.830 -31.855   4.916  1.00  0.00    -0.018 A 
HETATM   18  C   MOL     1     -62.541 -32.670   5.682  1.00  0.00    -0.002 C 
HETATM   19  C   MOL     1     -62.104 -31.558   4.297  1.00  0.00    -0.036 C 
HETATM   20  C   MOL     1     -64.325 -31.518   5.813  1.00  0.00     0.041 A 
HETATM   21  C   MOL     1     -63.536 -33.129   5.976  1.00  0.00    -0.059 C 
HETATM   22  C   MOL     1     -62.006 -33.495   5.002  1.00  0.00     0.003 C 
HETATM   23  C   MOL     1     -64.326 -32.484   6.200  1.00  0.00     0.009 C 
HETATM   24  C   MOL     1     -63.564 -34.152   6.340  1.00  0.00     0.014 C 
HETATM   25  C   MOL     1     -63.747 -33.136   7.339  1.00  0.00     0.028 C 
HETATM   26  C   MOL     1     -62.769 -34.838   6.066  1.00  0.00     0.253 A 
HETATM   27  C   MOL     1     -62.012 -34.523   5.353  1.00  0.00     0.003 A 
HETATM   28  O   MOL     1     -61.958 -36.122   6.019  1.00  0.00    -0.382 OA
HETATM   29  C   MOL     1     -61.683 -35.003   4.103  1.00  0.00     0.044 C 
HETATM   30  C   MOL     1     -61.551 -35.406   5.452  1.00  0.00     0.080 A 
HETATM   31  O   MOL     1     -60.709 -35.589   4.944  1.00  0.00     0.000 OA
HETATM   32  C   MOL     1     -64.931 -31.182   4.818  1.00  0.00     0.025 C 
HETATM   33  C   MOL     1     -62.028 -27.724   2.713  1.00  0.00    -0.012 C 
HETATM   34  O   MOL     1     -61.383 -30.330   3.309  1.00  0.00     0.000 OA
ENDBRANCH   1   2
BRANCH   1  35
HETATM   35  C   MOL     1     -62.091 -25.804   1.996  1.00  0.00    -0.027 A 
HETATM   36  O   MOL     1     -61.154 -25.715   2.341  1.00  0.00     0.000 OA
HETATM   37  C   MOL     1     -60.440 -25.324   1.758  1.00  0.00     0.096 A 
HETATM   38  C   MOL     1     -60.646 -25.115   0.796  1.00  0.00     0.133 A 
HETATM   39  C   MOL     1     -61.606 -25.065   0.503  1.00  0.00     0.055 A 
HETATM   40  O   MOL     1     -61.979 -23.883  -0.102  1.00  0.00     0.000 OA
HETATM   41  C   MOL     1     -62.313 -25.503   1.069  1.00  0.00     0.007 A 
HETATM   42  H   MOL     1     -61.372 -24.597  -0.813  1.00  0.00     0.000 HD
HETATM   43  O   MOL     1     -62.764 -24.853  -0.769  1.00  0.00     0.000 OA
HETATM   44  C   MOL     1     -63.494 -25.151  -0.152  1.00  0.00     0.057 A 
HETATM   45  C   MOL     1     -62.993 -24.505  -1.679  1.00  0.00     0.071 C 
HETATM   46  O   MOL     1     -63.264 -25.499   0.758  1.00  0.00     0.000 OA
HETATM   47  C   MOL     1     -64.422 -25.287  -0.514  1.00  0.00     0.154 A 
HETATM   48  C   MOL     1     -64.659 -24.893  -1.407  1.00  0.00     0.211 A 
HETATM   49  C   MOL     1     -63.921 -24.641  -2.041  1.00  0.00     0.146 C 
BRANCH  37  50
HETATM   50  C   MOL     1     -59.649 -24.400   2.408  1.00  0.00     0.297 C 
HETATM   51  O   MOL     1     -58.750 -25.453   2.117  1.00  0.00    -0.188 OA
HETATM   52  O   MOL     1     -59.905 -25.370   3.405  1.00  0.00    -0.188 OA
ENDBRANCH  37  50
BRANCH  38  53
HETATM   53  O   MOL     1     -59.771 -25.651  -0.126  1.00  0.00    -0.395 OA
HETATM   54  H   MOL     1     -60.331 -24.693  -0.519  1.00  0.00     0.210 HD
ENDBRANCH  38  53
BRANCH  47  55
HETATM   55  O   MOL     1     -64.992 -26.512  -0.237  1.00  0.00    -0.393 OA
HETATM   56  H   MOL     1     -64.945 -25.800   0.698  1.00  0.00     0.210 HD
ENDBRANCH  47  55
BRANCH  48  57
HETATM   57  O   MOL     1     -65.755 -24.055  -1.412  1.00  0.00    -0.392 OA
HETATM   58  H   MOL     1     -64.843 -23.622  -0.809  1.00  0.00     0.210 HD
ENDBRANCH  48  57
BRANCH  49  59
HETATM   59  O   MOL     1     -63.991 -25.220  -3.291  1.00  0.00    -0.399 OA
HETATM   60  H   MOL     1     -63.211 -24.341  -3.229  1.00  0.00     0.209 HD
ENDBRANCH  49  59
BRANCH  45  61
HETATM   61  C   MOL     1     -62.422 -23.280  -1.957  1.00  0.00     0.292 C 
HETATM   62  O   MOL     1     -63.185 -23.554  -3.116  1.00  0.00    -0.188 OA
HETATM   63  O   MOL     1     -61.627 -24.185  -2.697  1.00  0.00    -0.188 OA
ENDBRANCH  45  61
ENDBRANCH   1  35
TORSDOF 8
ENDMDL
MODEL 10
REMARK VINA RESULT:     -12.8      8.348     14.740
REMARK  8 active torsions:
REMARK  status: ('A' for Active; 'I' for Inactive)
REMARK    1  A    between atoms: O_1  and  C_33 
REMARK    2  A    between atoms: O_1  and  C_49 
REMARK    3  A    between atoms: O_8  and  C_53 
REMARK    4  A    between atoms: O_12  and  C_56 
REMARK    5  A    between atoms: O_13  and  C_57 
REMARK    6  A    between atoms: O_14  and  C_59 
REMARK    7  A    between atoms: C_52  and  C_55 
REMARK    8  A    between atoms: C_58  and  C_60 
ROOT
HETATM    1  O   MOL     1     -63.406 -27.054   4.483  1.00  0.00     0.000 OA
ENDROOT
BRANCH   1   2
HETATM    2  C   MOL     1     -63.576 -28.041   4.482  1.00  0.00     0.007 C 
HETATM    3  C   MOL     1     -63.070 -28.679   5.200  1.00  0.00    -0.058 C 
HETATM    4  C   MOL     1     -63.646 -29.655   5.581  1.00  0.00    -0.007 C 
HETATM    5  C   MOL     1     -62.377 -28.808   5.910  1.00  0.00     0.027 C 
HETATM    6  C   MOL     1     -62.542 -27.897   5.530  1.00  0.00    -0.005 C 
HETATM    7  C   MOL     1     -64.000 -30.152   4.573  1.00  0.00    -0.037 A 
HETATM    8  C   MOL     1     -62.782 -30.360   5.885  1.00  0.00     0.006 C 
HETATM    9  C   MOL     1     -64.583 -31.080   5.005  1.00  0.00     0.013 A 
HETATM   10  C   MOL     1     -64.586 -29.516   3.918  1.00  0.00     0.014 C 
HETATM   11  C   MOL     1     -64.048 -30.701   3.309  1.00  0.00     0.081 C 
HETATM   12  C   MOL     1     -64.943 -31.546   4.055  1.00  0.00    -0.024 A 
HETATM   13  C   MOL     1     -63.706 -31.769   5.248  1.00  0.00    -0.033 A 
HETATM   14  C   MOL     1     -63.982 -32.730   5.350  1.00  0.00    -0.030 A 
HETATM   15  C   MOL     1     -63.005 -31.378   5.912  1.00  0.00     0.011 C 
HETATM   16  C   MOL     1     -62.404 -32.222   5.282  1.00  0.00     0.044 C 
HETATM   17  C   MOL     1     -64.653 -33.120   4.716  1.00  0.00    -0.018 A 
HETATM   18  C   MOL     1     -64.535 -34.220   4.385  1.00  0.00    -0.002 C 
HETATM   19  C   MOL     1     -65.150 -32.524   4.086  1.00  0.00    -0.036 C 
HETATM   20  C   MOL     1     -63.421 -33.347   5.976  1.00  0.00     0.041 A 
HETATM   21  C   MOL     1     -64.331 -34.773   5.356  1.00  0.00    -0.059 C 
HETATM   22  C   MOL     1     -65.648 -34.527   4.079  1.00  0.00     0.003 C 
HETATM   23  C   MOL     1     -63.632 -34.366   6.014  1.00  0.00     0.009 C 
HETATM   24  C   MOL     1     -64.585 -35.826   5.431  1.00  0.00     0.014 C 
HETATM   25  C   MOL     1     -63.183 -35.535   5.314  1.00  0.00     0.028 C 
HETATM   26  C   MOL     1     -65.350 -36.240   4.782  1.00  0.00     0.253 A 
HETATM   27  C   MOL     1     -65.919 -35.577   4.136  1.00  0.00     0.003 A 
HETATM   28  O   MOL     1     -66.258 -37.277   4.141  1.00  0.00    -0.382 OA
HETATM   29  C   MOL     1     -67.266 -35.282   4.096  1.00  0.00     0.044 C 
HETATM   30  C   MOL     1     -66.417 -36.363   3.767  1.00  0.00     0.080 A 
HETATM   31  O   MOL     1     -67.109 -36.228   3.057  1.00  0.00     0.000 OA
HETATM   32  C   MOL     1     -63.918 -32.522   6.711  1.00  0.00     0.025 C 
HETATM   33  C   MOL     1     -64.373 -28.453   3.871  1.00  0.00    -0.012 C 
HETATM   34  O   MOL     1     -65.441 -30.949   3.424  1.00  0.00     0.000 OA
ENDBRANCH   1   2
BRANCH   1  35
HETATM   35  C   MOL     1     -63.857 -26.466   3.810  1.00  0.00    -0.027 A 
HETATM   36  O   MOL     1     -64.833 -26.259   3.907  1.00  0.00     0.000 OA
HETATM   37  C   MOL     1     -65.313 -25.754   3.187  1.00  0.00     0.096 A 
HETATM   38  C   MOL     1     -64.790 -25.373   2.418  1.00  0.00     0.133 A 
HETATM   39  C   MOL     1     -63.856 -25.706   2.251  1.00  0.00     0.055 A 
HETATM   40  O   MOL     1     -63.623 -26.203   0.986  1.00  0.00     0.000 OA
HETATM   41  C   MOL     1     -63.362 -26.169   2.994  1.00  0.00     0.007 A 
HETATM   42  H   MOL     1     -63.635 -25.028   1.027  1.00  0.00     0.000 HD
HETATM   43  O   MOL     1     -62.385 -25.615   1.338  1.00  0.00     0.000 OA
HETATM   44  C   MOL     1     -61.933 -26.204   2.011  1.00  0.00     0.057 A 
HETATM   45  C   MOL     1     -61.904 -25.360   0.498  1.00  0.00     0.071 C 
HETATM   46  O   MOL     1     -62.416 -26.459   2.850  1.00  0.00     0.000 OA
HETATM   47  C   MOL     1     -60.945 -26.369   1.938  1.00  0.00     0.154 A 
HETATM   48  C   MOL     1     -60.477 -26.155   1.074  1.00  0.00     0.211 A 
HETATM   49  C   MOL     1     -60.915 -25.525   0.426  1.00  0.00     0.146 C 
BRANCH  37  50
HETATM   50  C   MOL     1     -66.536 -26.301   2.858  1.00  0.00     0.297 C 
HETATM   51  O   MOL     1     -66.779 -24.908   2.816  1.00  0.00    -0.188 OA
HETATM   52  O   MOL     1     -66.698 -25.929   4.213  1.00  0.00    -0.188 OA
ENDBRANCH  37  50
BRANCH  38  53
HETATM   53  O   MOL     1     -64.994 -24.032   2.171  1.00  0.00    -0.395 OA
HETATM   54  H   MOL     1     -64.067 -24.474   1.596  1.00  0.00     0.210 HD
ENDBRANCH  38  53
BRANCH  47  55
HETATM   55  O   MOL     1     -60.217 -26.120   3.083  1.00  0.00    -0.393 OA
HETATM   56  H   MOL     1     -60.580 -27.236   2.997  1.00  0.00     0.210 HD
ENDBRANCH  47  55
BRANCH  48  57
HETATM   57  O   MOL     1     -59.778 -27.199   0.505  1.00  0.00    -0.392 OA
HETATM   58  H   MOL     1     -60.571 -27.550   1.301  1.00  0.00     0.210 HD
ENDBRANCH  48  57
BRANCH  49  59
HETATM   59  O   MOL     1     -60.158 -24.432   0.058  1.00  0.00    -0.399 OA
HETATM   60  H   MOL     1     -59.731 -24.998   0.997  1.00  0.00     0.209 HD
ENDBRANCH  49  59
BRANCH  45  61
HETATM   61  C   MOL     1     -62.632 -25.608  -0.647  1.00  0.00     0.292 C 
HETATM   62  O   MOL     1     -61.413 -25.092  -1.142  1.00  0.00    -0.188 OA
HETATM   63  O   MOL     1     -62.749 -24.208  -0.484  1.00  0.00    -0.188 OA
ENDBRANCH  45  61
ENDBRANCH   1  35
TORSDOF 8
ENDMDL
