MODEL 1
REMARK VINA RESULT:      -9.7      0.000      0.000
REMARK  16 active torsions:
REMARK  status: ('A' for Active; 'I' for Inactive)
REMARK    1  A    between atoms: N_3  and  C_13 
REMARK    2  A    between atoms: C_6  and  C_37 
REMARK    3  A    between atoms: C_13  and  C_14 
REMARK    4  A    between atoms: C_13  and  C_17 
REMARK       I    between atoms: C_14  and  N_15 
REMARK    5  A    between atoms: N_15  and  C_16 
REMARK    6  A    between atoms: C_16  and  C_27 
REMARK    7  A    between atoms: C_16  and  C_28 
REMARK    8  A    between atoms: C_25  and  C_27 
REMARK    9  A    between atoms: C_28  and  C_29 
REMARK   10  A    between atoms: C_29  and  C_30 
REMARK   11  A    between atoms: C_29  and  O_36 
REMARK   12  A    between atoms: C_30  and  N_31 
REMARK   13  A    between atoms: C_30  and  C_37 
REMARK       I    between atoms: N_31  and  C_32 
REMARK   14  A    between atoms: C_32  and  C_33 
REMARK   15  A    between atoms: C_33  and  O_34 
REMARK   16  A    between atoms: O_34  and  C_35 
ROOT
HETATM    1  C   UNK     0     -55.599 -23.212  -6.589  0.00  0.00     0.126 C 
HETATM    2  C   UNK     0     -57.733 -22.701  -5.373  0.00  0.00     0.130 C 
HETATM    3  N   UNK     0     -56.993 -21.629  -4.610  0.00  0.00    -0.320 N 
HETATM    4  C   UNK     0     -55.645 -21.384  -4.836  0.00  0.00     0.319 C 
HETATM    5  N   UNK     0     -55.002 -22.136  -5.773  0.00  0.00    -0.343 N 
HETATM    6  O   UNK     0     -55.032 -20.525  -4.226  0.00  0.00    -0.247 OA
HETATM    7  C   UNK     0     -57.113 -23.034  -6.746  0.00  0.00     0.040 C 
HETATM    8  H   UNK     0     -54.019 -21.880  -5.869  0.00  0.00     0.164 HD
ENDROOT
BRANCH   3   9
HETATM    9  C   UNK     0     -57.717 -20.809  -3.577  0.00  0.00     0.184 C 
BRANCH   9  10
HETATM   10  C   UNK     0     -58.644 -21.738  -2.746  0.00  0.00     0.241 C 
HETATM   11  N   UNK     0     -59.963 -21.377  -2.825  0.00  0.00    -0.354 N 
HETATM   12  H   UNK     0     -60.124 -20.558  -3.412  0.00  0.00     0.162 HD
HETATM   13  O   UNK     0     -58.200 -22.688  -2.098  0.00  0.00    -0.271 OA
BRANCH  11  14
HETATM   14  C   UNK     0     -61.072 -22.078  -2.142  0.00  0.00     0.091 C 
BRANCH  14  15
HETATM   15  C   UNK     0     -62.006 -21.067  -1.436  0.00  0.00     0.063 C 
BRANCH  15  16
HETATM   16  C   UNK     0     -62.112 -19.686  -2.017  0.00  0.00    -0.056 A 
HETATM   17  C   UNK     0     -61.366 -18.614  -1.456  0.00  0.00     0.007 A 
HETATM   18  C   UNK     0     -61.457 -17.310  -1.994  0.00  0.00     0.001 A 
HETATM   19  C   UNK     0     -62.297 -17.064  -3.105  0.00  0.00     0.000 A 
HETATM   20  C   UNK     0     -63.043 -18.126  -3.670  0.00  0.00     0.001 A 
HETATM   21  C   UNK     0     -62.949 -19.430  -3.127  0.00  0.00     0.007 A 
ENDBRANCH  15  16
ENDBRANCH  14  15
BRANCH  14  22
HETATM   22  C   UNK     0     -61.953 -22.855  -3.144  0.00  0.00     0.059 C 
BRANCH  22  23
HETATM   23  C   UNK     0     -62.906 -23.953  -2.636  0.00  0.00     0.143 C 
BRANCH  23  24
HETATM   24  C   UNK     0     -62.715 -24.433  -1.175  0.00  0.00     0.117 C 
BRANCH  24  25
HETATM   25  N   UNK     0     -64.037 -24.832  -0.641  0.00  0.00    -0.352 N 
HETATM   26  C   UNK     0     -64.340 -24.893   0.695  0.00  0.00     0.242 C 
HETATM   27  O   UNK     0     -63.558 -24.621   1.612  0.00  0.00    -0.271 OA
HETATM   28  H   UNK     0     -64.813 -25.089  -1.251  0.00  0.00     0.163 HD
BRANCH  26  29
HETATM   29  C   UNK     0     -65.776 -25.362   1.004  0.00  0.00     0.278 C 
BRANCH  29  30
HETATM   30  O   UNK     0     -66.212 -26.389   0.095  0.00  0.00    -0.341 OA
BRANCH  30  31
HETATM   31  C   UNK     0     -67.610 -26.453  -0.067  0.00  0.00     0.081 A 
HETATM   32  C   UNK     0     -68.308 -25.579  -0.972  0.00  0.00    -0.028 A 
HETATM   33  C   UNK     0     -69.719 -25.693  -1.093  0.00  0.00     0.009 A 
HETATM   34  C   UNK     0     -67.595 -24.538  -1.803  0.00  0.00     0.051 C 
HETATM   35  C   UNK     0     -70.435 -26.650  -0.343  0.00  0.00     0.001 A 
HETATM   36  C   UNK     0     -69.760 -27.512   0.543  0.00  0.00     0.009 A 
HETATM   37  C   UNK     0     -68.355 -27.426   0.690  0.00  0.00    -0.028 A 
HETATM   38  C   UNK     0     -67.671 -28.356   1.635  0.00  0.00     0.051 C 
ENDBRANCH  30  31
ENDBRANCH  29  30
ENDBRANCH  26  29
ENDBRANCH  24  25
BRANCH  24  39
HETATM   39  C   UNK     0     -61.758 -25.660  -1.118  0.00  0.00     0.066 C 
BRANCH  39  40
HETATM   40  C   UNK     0     -60.398 -25.376  -0.510  0.00  0.00    -0.056 A 
HETATM   41  C   UNK     0     -59.258 -26.079  -0.970  0.00  0.00     0.007 A 
HETATM   42  C   UNK     0     -57.978 -25.834  -0.414  0.00  0.00     0.001 A 
HETATM   43  C   UNK     0     -57.826 -24.881   0.611  0.00  0.00     0.000 A 
HETATM   44  C   UNK     0     -58.956 -24.174   1.078  0.00  0.00     0.001 A 
HETATM   45  C   UNK     0     -60.233 -24.418   0.522  0.00  0.00     0.007 A 
ENDBRANCH  39  40
ENDBRANCH  24  39
ENDBRANCH  23  24
BRANCH  23  46
HETATM   46  O   UNK     0     -64.201 -23.410  -2.729  0.00  0.00    -0.393 OA
HETATM   47  H   UNK     0     -64.464 -23.210  -1.838  0.00  0.00     0.210 HD
ENDBRANCH  23  46
ENDBRANCH  22  23
ENDBRANCH  14  22
ENDBRANCH  11  14
ENDBRANCH   9  10
BRANCH   9  48
HETATM   48  C   UNK     0     -58.504 -19.604  -4.226  0.00  0.00     0.010 C 
HETATM   49  C   UNK     0     -58.226 -18.250  -3.544  0.00  0.00     0.012 C 
HETATM   50  C   UNK     0     -58.167 -19.472  -5.730  0.00  0.00     0.012 C 
ENDBRANCH   9  48
ENDBRANCH   3   9
TORSDOF 16
ENDMDL
MODEL 2
REMARK VINA RESULT:      -9.2      1.364      2.318
REMARK  16 active torsions:
REMARK  status: ('A' for Active; 'I' for Inactive)
REMARK    1  A    between atoms: N_3  and  C_13 
REMARK    2  A    between atoms: C_6  and  C_37 
REMARK    3  A    between atoms: C_13  and  C_14 
REMARK    4  A    between atoms: C_13  and  C_17 
REMARK       I    between atoms: C_14  and  N_15 
REMARK    5  A    between atoms: N_15  and  C_16 
REMARK    6  A    between atoms: C_16  and  C_27 
REMARK    7  A    between atoms: C_16  and  C_28 
REMARK    8  A    between atoms: C_25  and  C_27 
REMARK    9  A    between atoms: C_28  and  C_29 
REMARK   10  A    between atoms: C_29  and  C_30 
REMARK   11  A    between atoms: C_29  and  O_36 
REMARK   12  A    between atoms: C_30  and  N_31 
REMARK   13  A    between atoms: C_30  and  C_37 
REMARK       I    between atoms: N_31  and  C_32 
REMARK   14  A    between atoms: C_32  and  C_33 
REMARK   15  A    between atoms: C_33  and  O_34 
REMARK   16  A    between atoms: O_34  and  C_35 
ROOT
HETATM    1  C   UNK     0     -55.379 -23.144  -7.020  0.00  0.00     0.126 C 
HETATM    2  C   UNK     0     -57.588 -22.744  -5.898  0.00  0.00     0.130 C 
HETATM    3  N   UNK     0     -56.939 -21.632  -5.110  0.00  0.00    -0.320 N 
HETATM    4  C   UNK     0     -55.599 -21.315  -5.280  0.00  0.00     0.319 C 
HETATM    5  N   UNK     0     -54.876 -22.035  -6.185  0.00  0.00    -0.343 N 
HETATM    6  O   UNK     0     -55.059 -20.422  -4.650  0.00  0.00    -0.247 OA
HETATM    7  C   UNK     0     -56.893 -23.048  -7.242  0.00  0.00     0.040 C 
HETATM    8  H   UNK     0     -53.905 -21.727  -6.241  0.00  0.00     0.164 HD
ENDROOT
BRANCH   3   9
HETATM    9  C   UNK     0     -57.750 -20.849  -4.113  0.00  0.00     0.184 C 
BRANCH   9  10
HETATM   10  C   UNK     0     -58.450 -21.835  -3.138  0.00  0.00     0.241 C 
HETATM   11  N   UNK     0     -59.813 -21.703  -3.141  0.00  0.00    -0.354 N 
HETATM   12  H   UNK     0     -60.148 -20.982  -3.779  0.00  0.00     0.162 HD
HETATM   13  O   UNK     0     -57.809 -22.632  -2.451  0.00  0.00    -0.271 OA
BRANCH  11  14
HETATM   14  C   UNK     0     -60.740 -22.509  -2.316  0.00  0.00     0.091 C 
BRANCH  14  15
HETATM   15  C   UNK     0     -61.184 -21.720  -1.062  0.00  0.00     0.063 C 
BRANCH  15  16
HETATM   16  C   UNK     0     -60.271 -21.729   0.131  0.00  0.00    -0.056 A 
HETATM   17  C   UNK     0     -59.231 -20.766   0.245  0.00  0.00     0.007 A 
HETATM   18  C   UNK     0     -58.367 -20.765   1.364  0.00  0.00     0.001 A 
HETATM   19  C   UNK     0     -58.536 -21.729   2.385  0.00  0.00     0.000 A 
HETATM   20  C   UNK     0     -59.569 -22.690   2.279  0.00  0.00     0.001 A 
HETATM   21  C   UNK     0     -60.432 -22.689   1.157  0.00  0.00     0.007 A 
ENDBRANCH  15  16
ENDBRANCH  14  15
BRANCH  14  22
HETATM   22  C   UNK     0     -62.031 -22.854  -3.090  0.00  0.00     0.059 C 
BRANCH  22  23
HETATM   23  C   UNK     0     -62.856 -24.092  -2.691  0.00  0.00     0.143 C 
BRANCH  23  24
HETATM   24  C   UNK     0     -62.546 -24.732  -1.314  0.00  0.00     0.117 C 
BRANCH  24  25
HETATM   25  N   UNK     0     -63.818 -25.218  -0.731  0.00  0.00    -0.352 N 
HETATM   26  C   UNK     0     -64.156 -25.091   0.591  0.00  0.00     0.242 C 
HETATM   27  O   UNK     0     -63.451 -24.556   1.454  0.00  0.00    -0.271 OA
HETATM   28  H   UNK     0     -64.529 -25.685  -1.295  0.00  0.00     0.163 HD
BRANCH  26  29
HETATM   29  C   UNK     0     -65.523 -25.698   0.964  0.00  0.00     0.278 C 
BRANCH  29  30
HETATM   30  O   UNK     0     -65.993 -26.616  -0.041  0.00  0.00    -0.341 OA
BRANCH  30  31
HETATM   31  C   UNK     0     -67.396 -26.702  -0.125  0.00  0.00     0.081 A 
HETATM   32  C   UNK     0     -68.169 -25.755  -0.883  0.00  0.00    -0.028 A 
HETATM   33  C   UNK     0     -69.582 -25.896  -0.931  0.00  0.00     0.009 A 
HETATM   34  C   UNK     0     -67.533 -24.610  -1.635  0.00  0.00     0.051 C 
HETATM   35  C   UNK     0     -70.229 -26.948  -0.251  0.00  0.00     0.001 A 
HETATM   36  C   UNK     0     -69.480 -27.883   0.493  0.00  0.00     0.009 A 
HETATM   37  C   UNK     0     -68.071 -27.773   0.564  0.00  0.00    -0.028 A 
HETATM   38  C   UNK     0     -67.309 -28.780   1.357  0.00  0.00     0.051 C 
ENDBRANCH  30  31
ENDBRANCH  29  30
ENDBRANCH  26  29
ENDBRANCH  24  25
BRANCH  24  39
HETATM   39  C   UNK     0     -61.573 -25.938  -1.472  0.00  0.00     0.066 C 
BRANCH  39  40
HETATM   40  C   UNK     0     -60.383 -25.920  -0.532  0.00  0.00    -0.056 A 
HETATM   41  C   UNK     0     -59.139 -25.412  -0.978  0.00  0.00     0.007 A 
HETATM   42  C   UNK     0     -58.012 -25.390  -0.119  0.00  0.00     0.001 A 
HETATM   43  C   UNK     0     -58.120 -25.875   1.198  0.00  0.00     0.000 A 
HETATM   44  C   UNK     0     -59.356 -26.384   1.654  0.00  0.00     0.001 A 
HETATM   45  C   UNK     0     -60.481 -26.406   0.796  0.00  0.00     0.007 A 
ENDBRANCH  39  40
ENDBRANCH  24  39
ENDBRANCH  23  24
BRANCH  23  46
HETATM   46  O   UNK     0     -64.197 -23.666  -2.659  0.00  0.00    -0.393 OA
HETATM   47  H   UNK     0     -64.182 -22.789  -2.292  0.00  0.00     0.210 HD
ENDBRANCH  23  46
ENDBRANCH  22  23
ENDBRANCH  14  22
ENDBRANCH  11  14
ENDBRANCH   9  10
BRANCH   9  48
HETATM   48  C   UNK     0     -58.776 -19.877  -4.820  0.00  0.00     0.010 C 
HETATM   49  C   UNK     0     -59.138 -18.644  -3.970  0.00  0.00     0.012 C 
HETATM   50  C   UNK     0     -58.224 -19.389  -6.180  0.00  0.00     0.012 C 
ENDBRANCH   9  48
ENDBRANCH   3   9
TORSDOF 16
ENDMDL
MODEL 3
REMARK VINA RESULT:      -9.2      2.200      5.236
REMARK  16 active torsions:
REMARK  status: ('A' for Active; 'I' for Inactive)
REMARK    1  A    between atoms: N_3  and  C_13 
REMARK    2  A    between atoms: C_6  and  C_37 
REMARK    3  A    between atoms: C_13  and  C_14 
REMARK    4  A    between atoms: C_13  and  C_17 
REMARK       I    between atoms: C_14  and  N_15 
REMARK    5  A    between atoms: N_15  and  C_16 
REMARK    6  A    between atoms: C_16  and  C_27 
REMARK    7  A    between atoms: C_16  and  C_28 
REMARK    8  A    between atoms: C_25  and  C_27 
REMARK    9  A    between atoms: C_28  and  C_29 
REMARK   10  A    between atoms: C_29  and  C_30 
REMARK   11  A    between atoms: C_29  and  O_36 
REMARK   12  A    between atoms: C_30  and  N_31 
REMARK   13  A    between atoms: C_30  and  C_37 
REMARK       I    between atoms: N_31  and  C_32 
REMARK   14  A    between atoms: C_32  and  C_33 
REMARK   15  A    between atoms: C_33  and  O_34 
REMARK   16  A    between atoms: O_34  and  C_35 
ROOT
HETATM    1  C   UNK     0     -61.796 -17.569  -2.440  0.00  0.00     0.126 C 
HETATM    2  C   UNK     0     -60.906 -19.874  -2.003  0.00  0.00     0.130 C 
HETATM    3  N   UNK     0     -59.899 -19.649  -3.105  0.00  0.00    -0.320 N 
HETATM    4  C   UNK     0     -59.863 -18.457  -3.815  0.00  0.00     0.319 C 
HETATM    5  N   UNK     0     -60.761 -17.485  -3.490  0.00  0.00    -0.343 N 
HETATM    6  O   UNK     0     -59.059 -18.261  -4.710  0.00  0.00    -0.247 OA
HETATM    7  C   UNK     0     -61.418 -18.575  -1.346  0.00  0.00     0.040 C 
HETATM    8  H   UNK     0     -60.654 -16.648  -4.063  0.00  0.00     0.164 HD
ENDROOT
BRANCH   3   9
HETATM    9  C   UNK     0     -58.917 -20.734  -3.454  0.00  0.00     0.184 C 
BRANCH   9  10
HETATM   10  C   UNK     0     -59.519 -22.113  -3.069  0.00  0.00     0.241 C 
HETATM   11  N   UNK     0     -59.241 -22.468  -1.776  0.00  0.00    -0.354 N 
HETATM   12  H   UNK     0     -58.684 -21.775  -1.276  0.00  0.00     0.162 HD
HETATM   13  O   UNK     0     -60.170 -22.783  -3.872  0.00  0.00    -0.271 OA
BRANCH  11  14
HETATM   14  C   UNK     0     -59.687 -23.724  -1.132  0.00  0.00     0.091 C 
BRANCH  14  15
HETATM   15  C   UNK     0     -58.724 -24.125   0.010  0.00  0.00     0.063 C 
BRANCH  15  16
HETATM   16  C   UNK     0     -58.554 -25.588   0.303  0.00  0.00    -0.056 A 
HETATM   17  C   UNK     0     -58.217 -26.022   1.614  0.00  0.00     0.007 A 
HETATM   18  C   UNK     0     -58.055 -27.397   1.902  0.00  0.00     0.001 A 
HETATM   19  C   UNK     0     -58.231 -28.355   0.877  0.00  0.00     0.000 A 
HETATM   20  C   UNK     0     -58.568 -27.932  -0.431  0.00  0.00     0.001 A 
HETATM   21  C   UNK     0     -58.728 -26.555  -0.715  0.00  0.00     0.007 A 
ENDBRANCH  15  16
ENDBRANCH  14  15
BRANCH  14  22
HETATM   22  C   UNK     0     -61.081 -23.566  -0.487  0.00  0.00     0.059 C 
BRANCH  22  23
HETATM   23  C   UNK     0     -62.274 -24.370  -1.033  0.00  0.00     0.143 C 
BRANCH  23  24
HETATM   24  C   UNK     0     -63.173 -25.091   0.004  0.00  0.00     0.117 C 
BRANCH  24  25
HETATM   25  N   UNK     0     -64.478 -25.381  -0.636  0.00  0.00    -0.352 N 
HETATM   26  C   UNK     0     -65.689 -25.005  -0.115  0.00  0.00     0.242 C 
HETATM   27  O   UNK     0     -65.844 -24.379   0.938  0.00  0.00    -0.271 OA
HETATM   28  H   UNK     0     -64.548 -25.888  -1.518  0.00  0.00     0.163 HD
BRANCH  26  29
HETATM   29  C   UNK     0     -66.908 -25.445  -0.950  0.00  0.00     0.278 C 
BRANCH  29  30
HETATM   30  O   UNK     0     -67.513 -26.641  -0.427  0.00  0.00    -0.341 OA
BRANCH  30  31
HETATM   31  C   UNK     0     -68.826 -26.457   0.049  0.00  0.00     0.081 A 
HETATM   32  C   UNK     0     -69.942 -26.307  -0.846  0.00  0.00    -0.028 A 
HETATM   33  C   UNK     0     -71.243 -26.126  -0.305  0.00  0.00     0.009 A 
HETATM   34  C   UNK     0     -69.783 -26.335  -2.348  0.00  0.00     0.051 C 
HETATM   35  C   UNK     0     -71.450 -26.096   1.090  0.00  0.00     0.001 A 
HETATM   36  C   UNK     0     -70.363 -26.245   1.975  0.00  0.00     0.009 A 
HETATM   37  C   UNK     0     -69.053 -26.427   1.472  0.00  0.00    -0.028 A 
HETATM   38  C   UNK     0     -67.926 -26.584   2.436  0.00  0.00     0.051 C 
ENDBRANCH  30  31
ENDBRANCH  29  30
ENDBRANCH  26  29
ENDBRANCH  24  25
BRANCH  24  39
HETATM   39  C   UNK     0     -62.526 -26.433   0.458  0.00  0.00     0.066 C 
BRANCH  39  40
HETATM   40  C   UNK     0     -62.844 -26.839   1.884  0.00  0.00    -0.056 A 
HETATM   41  C   UNK     0     -61.823 -26.829   2.865  0.00  0.00     0.007 A 
HETATM   42  C   UNK     0     -62.095 -27.210   4.202  0.00  0.00     0.001 A 
HETATM   43  C   UNK     0     -63.395 -27.604   4.572  0.00  0.00     0.000 A 
HETATM   44  C   UNK     0     -64.421 -27.617   3.602  0.00  0.00     0.001 A 
HETATM   45  C   UNK     0     -64.150 -27.238   2.267  0.00  0.00     0.007 A 
ENDBRANCH  39  40
ENDBRANCH  24  39
ENDBRANCH  23  24
BRANCH  23  46
HETATM   46  O   UNK     0     -63.085 -23.442  -1.713  0.00  0.00    -0.393 OA
HETATM   47  H   UNK     0     -63.249 -23.819  -2.570  0.00  0.00     0.210 HD
ENDBRANCH  23  46
ENDBRANCH  22  23
ENDBRANCH  14  22
ENDBRANCH  11  14
ENDBRANCH   9  10
BRANCH   9  48
HETATM   48  C   UNK     0     -57.506 -20.489  -2.786  0.00  0.00     0.010 C 
HETATM   49  C   UNK     0     -56.395 -20.159  -3.801  0.00  0.00     0.012 C 
HETATM   50  C   UNK     0     -57.579 -19.343  -1.750  0.00  0.00     0.012 C 
ENDBRANCH   9  48
ENDBRANCH   3   9
TORSDOF 16
ENDMDL
MODEL 4
REMARK VINA RESULT:      -8.9      3.939     10.674
REMARK  16 active torsions:
REMARK  status: ('A' for Active; 'I' for Inactive)
REMARK    1  A    between atoms: N_3  and  C_13 
REMARK    2  A    between atoms: C_6  and  C_37 
REMARK    3  A    between atoms: C_13  and  C_14 
REMARK    4  A    between atoms: C_13  and  C_17 
REMARK       I    between atoms: C_14  and  N_15 
REMARK    5  A    between atoms: N_15  and  C_16 
REMARK    6  A    between atoms: C_16  and  C_27 
REMARK    7  A    between atoms: C_16  and  C_28 
REMARK    8  A    between atoms: C_25  and  C_27 
REMARK    9  A    between atoms: C_28  and  C_29 
REMARK   10  A    between atoms: C_29  and  C_30 
REMARK   11  A    between atoms: C_29  and  O_36 
REMARK   12  A    between atoms: C_30  and  N_31 
REMARK   13  A    between atoms: C_30  and  C_37 
REMARK       I    between atoms: N_31  and  C_32 
REMARK   14  A    between atoms: C_32  and  C_33 
REMARK   15  A    between atoms: C_33  and  O_34 
REMARK   16  A    between atoms: O_34  and  C_35 
ROOT
HETATM    1  C   UNK     0     -63.689 -33.924   2.922  0.00  0.00     0.126 C 
HETATM    2  C   UNK     0     -62.489 -31.986   3.970  0.00  0.00     0.130 C 
HETATM    3  N   UNK     0     -63.796 -31.232   3.974  0.00  0.00    -0.320 N 
HETATM    4  C   UNK     0     -64.960 -31.804   3.478  0.00  0.00     0.319 C 
HETATM    5  N   UNK     0     -64.895 -33.074   2.987  0.00  0.00    -0.343 N 
HETATM    6  O   UNK     0     -66.023 -31.207   3.471  0.00  0.00    -0.247 OA
HETATM    7  C   UNK     0     -62.650 -33.521   3.974  0.00  0.00     0.040 C 
HETATM    8  H   UNK     0     -65.798 -33.407   2.650  0.00  0.00     0.164 HD
ENDROOT
BRANCH   3   9
HETATM    9  C   UNK     0     -63.850 -29.830   4.517  0.00  0.00     0.184 C 
BRANCH   9  10
HETATM   10  C   UNK     0     -63.758 -28.822   3.338  0.00  0.00     0.241 C 
HETATM   11  N   UNK     0     -64.953 -28.209   3.072  0.00  0.00    -0.354 N 
HETATM   12  H   UNK     0     -65.709 -28.512   3.686  0.00  0.00     0.162 HD
HETATM   13  O   UNK     0     -62.703 -28.626   2.734  0.00  0.00    -0.271 OA
BRANCH  11  14
HETATM   14  C   UNK     0     -65.167 -27.203   2.009  0.00  0.00     0.091 C 
BRANCH  14  15
HETATM   15  C   UNK     0     -66.461 -26.398   2.269  0.00  0.00     0.063 C 
BRANCH  15  16
HETATM   16  C   UNK     0     -67.539 -26.445   1.224  0.00  0.00    -0.056 A 
HETATM   17  C   UNK     0     -68.527 -25.425   1.166  0.00  0.00     0.007 A 
HETATM   18  C   UNK     0     -69.546 -25.459   0.188  0.00  0.00     0.001 A 
HETATM   19  C   UNK     0     -69.587 -26.518  -0.749  0.00  0.00     0.000 A 
HETATM   20  C   UNK     0     -68.607 -27.538  -0.698  0.00  0.00     0.001 A 
HETATM   21  C   UNK     0     -67.589 -27.500   0.284  0.00  0.00     0.007 A 
ENDBRANCH  15  16
ENDBRANCH  14  15
BRANCH  14  22
HETATM   22  C   UNK     0     -64.017 -26.172   1.966  0.00  0.00     0.059 C 
BRANCH  22  23
HETATM   23  C   UNK     0     -63.847 -25.265   0.733  0.00  0.00     0.143 C 
BRANCH  23  24
HETATM   24  C   UNK     0     -62.404 -25.051   0.209  0.00  0.00     0.117 C 
BRANCH  24  25
HETATM   25  N   UNK     0     -62.301 -23.668  -0.312  0.00  0.00    -0.352 N 
HETATM   26  C   UNK     0     -61.649 -23.330  -1.470  0.00  0.00     0.242 C 
HETATM   27  O   UNK     0     -61.076 -24.129  -2.220  0.00  0.00    -0.271 OA
HETATM   28  H   UNK     0     -62.719 -22.873   0.172  0.00  0.00     0.163 HD
BRANCH  26  29
HETATM   29  C   UNK     0     -61.656 -21.823  -1.792  0.00  0.00     0.278 C 
BRANCH  29  30
HETATM   30  O   UNK     0     -61.416 -21.023  -0.619  0.00  0.00    -0.341 OA
BRANCH  30  31
HETATM   31  C   UNK     0     -60.113 -20.494  -0.544  0.00  0.00     0.081 A 
HETATM   32  C   UNK     0     -59.125 -21.036   0.350  0.00  0.00    -0.028 A 
HETATM   33  C   UNK     0     -57.827 -20.459   0.378  0.00  0.00     0.009 A 
HETATM   34  C   UNK     0     -59.416 -22.202   1.265  0.00  0.00     0.051 C 
HETATM   35  C   UNK     0     -57.500 -19.370  -0.457  0.00  0.00     0.001 A 
HETATM   36  C   UNK     0     -58.460 -18.834  -1.338  0.00  0.00     0.009 A 
HETATM   37  C   UNK     0     -59.763 -19.383  -1.393  0.00  0.00    -0.028 A 
HETATM   38  C   UNK     0     -60.754 -18.793  -2.338  0.00  0.00     0.051 C 
ENDBRANCH  30  31
ENDBRANCH  29  30
ENDBRANCH  26  29
ENDBRANCH  24  25
BRANCH  24  39
HETATM   39  C   UNK     0     -61.367 -25.234   1.356  0.00  0.00     0.066 C 
BRANCH  39  40
HETATM   40  C   UNK     0     -60.202 -26.143   1.018  0.00  0.00    -0.056 A 
HETATM   41  C   UNK     0     -59.150 -26.320   1.950  0.00  0.00     0.007 A 
HETATM   42  C   UNK     0     -58.049 -27.160   1.653  0.00  0.00     0.001 A 
HETATM   43  C   UNK     0     -57.989 -27.835   0.419  0.00  0.00     0.000 A 
HETATM   44  C   UNK     0     -59.032 -27.667  -0.517  0.00  0.00     0.001 A 
HETATM   45  C   UNK     0     -60.132 -26.828  -0.222  0.00  0.00     0.007 A 
ENDBRANCH  39  40
ENDBRANCH  24  39
ENDBRANCH  23  24
BRANCH  23  46
HETATM   46  O   UNK     0     -64.578 -25.879  -0.300  0.00  0.00    -0.393 OA
HETATM   47  H   UNK     0     -65.467 -25.967   0.027  0.00  0.00     0.210 HD
ENDBRANCH  23  46
ENDBRANCH  22  23
ENDBRANCH  14  22
ENDBRANCH  11  14
ENDBRANCH   9  10
BRANCH   9  48
HETATM   48  C   UNK     0     -62.737 -29.576   5.609  0.00  0.00     0.010 C 
HETATM   49  C   UNK     0     -62.417 -28.085   5.825  0.00  0.00     0.012 C 
HETATM   50  C   UNK     0     -63.150 -30.190   6.967  0.00  0.00     0.012 C 
ENDBRANCH   9  48
ENDBRANCH   3   9
TORSDOF 16
ENDMDL
MODEL 5
REMARK VINA RESULT:      -8.4      1.798      4.800
REMARK  16 active torsions:
REMARK  status: ('A' for Active; 'I' for Inactive)
REMARK    1  A    between atoms: N_3  and  C_13 
REMARK    2  A    between atoms: C_6  and  C_37 
REMARK    3  A    between atoms: C_13  and  C_14 
REMARK    4  A    between atoms: C_13  and  C_17 
REMARK       I    between atoms: C_14  and  N_15 
REMARK    5  A    between atoms: N_15  and  C_16 
REMARK    6  A    between atoms: C_16  and  C_27 
REMARK    7  A    between atoms: C_16  and  C_28 
REMARK    8  A    between atoms: C_25  and  C_27 
REMARK    9  A    between atoms: C_28  and  C_29 
REMARK   10  A    between atoms: C_29  and  C_30 
REMARK   11  A    between atoms: C_29  and  O_36 
REMARK   12  A    between atoms: C_30  and  N_31 
REMARK   13  A    between atoms: C_30  and  C_37 
REMARK       I    between atoms: N_31  and  C_32 
REMARK   14  A    between atoms: C_32  and  C_33 
REMARK   15  A    between atoms: C_33  and  O_34 
REMARK   16  A    between atoms: O_34  and  C_35 
ROOT
HETATM    1  C   UNK     0     -55.227 -23.307  -9.939  0.00  0.00     0.126 C 
HETATM    2  C   UNK     0     -54.474 -21.519  -8.348  0.00  0.00     0.130 C 
HETATM    3  N   UNK     0     -55.773 -21.696  -7.600  0.00  0.00    -0.320 N 
HETATM    4  C   UNK     0     -56.723 -22.621  -8.013  0.00  0.00     0.319 C 
HETATM    5  N   UNK     0     -56.451 -23.375  -9.116  0.00  0.00    -0.343 N 
HETATM    6  O   UNK     0     -57.778 -22.774  -7.422  0.00  0.00    -0.247 OA
HETATM    7  C   UNK     0     -54.034 -22.766  -9.143  0.00  0.00     0.040 C 
HETATM    8  H   UNK     0     -57.204 -24.026  -9.337  0.00  0.00     0.164 HD
ENDROOT
BRANCH   3   9
HETATM    9  C   UNK     0     -56.059 -20.854  -6.387  0.00  0.00     0.184 C 
BRANCH   9  10
HETATM   10  C   UNK     0     -56.547 -21.771  -5.232  0.00  0.00     0.241 C 
HETATM   11  N   UNK     0     -57.854 -21.542  -4.891  0.00  0.00    -0.354 N 
HETATM   12  H   UNK     0     -58.295 -20.809  -5.446  0.00  0.00     0.162 HD
HETATM   13  O   UNK     0     -55.805 -22.601  -4.705  0.00  0.00    -0.271 OA
BRANCH  11  14
HETATM   14  C   UNK     0     -58.588 -22.266  -3.830  0.00  0.00     0.091 C 
BRANCH  14  15
HETATM   15  C   UNK     0     -58.213 -21.718  -2.434  0.00  0.00     0.063 C 
BRANCH  15  16
HETATM   16  C   UNK     0     -58.358 -22.640  -1.256  0.00  0.00    -0.056 A 
HETATM   17  C   UNK     0     -58.870 -22.152  -0.023  0.00  0.00     0.007 A 
HETATM   18  C   UNK     0     -59.011 -23.010   1.091  0.00  0.00     0.001 A 
HETATM   19  C   UNK     0     -58.640 -24.371   0.983  0.00  0.00     0.000 A 
HETATM   20  C   UNK     0     -58.130 -24.864  -0.241  0.00  0.00     0.001 A 
HETATM   21  C   UNK     0     -57.990 -24.002  -1.355  0.00  0.00     0.007 A 
ENDBRANCH  15  16
ENDBRANCH  14  15
BRANCH  14  22
HETATM   22  C   UNK     0     -60.115 -22.081  -3.972  0.00  0.00     0.059 C 
BRANCH  22  23
HETATM   23  C   UNK     0     -61.074 -23.065  -3.276  0.00  0.00     0.143 C 
BRANCH  23  24
HETATM   24  C   UNK     0     -62.206 -22.453  -2.412  0.00  0.00     0.117 C 
BRANCH  24  25
HETATM   25  N   UNK     0     -62.736 -23.514  -1.523  0.00  0.00    -0.352 N 
HETATM   26  C   UNK     0     -63.755 -24.365  -1.865  0.00  0.00     0.242 C 
HETATM   27  O   UNK     0     -64.351 -24.358  -2.947  0.00  0.00    -0.271 OA
HETATM   28  H   UNK     0     -62.362 -23.673  -0.587  0.00  0.00     0.163 HD
BRANCH  26  29
HETATM   29  C   UNK     0     -64.147 -25.368  -0.762  0.00  0.00     0.278 C 
BRANCH  29  30
HETATM   30  O   UNK     0     -65.288 -24.918  -0.009  0.00  0.00    -0.341 OA
BRANCH  30  31
HETATM   31  C   UNK     0     -66.304 -25.884   0.123  0.00  0.00     0.081 A 
HETATM   32  C   UNK     0     -66.203 -26.966   1.065  0.00  0.00    -0.028 A 
HETATM   33  C   UNK     0     -67.262 -27.908   1.153  0.00  0.00     0.009 A 
HETATM   34  C   UNK     0     -65.007 -27.140   1.971  0.00  0.00     0.051 C 
HETATM   35  C   UNK     0     -68.405 -27.793   0.333  0.00  0.00     0.001 A 
HETATM   36  C   UNK     0     -68.515 -26.734  -0.592  0.00  0.00     0.009 A 
HETATM   37  C   UNK     0     -67.478 -25.777  -0.706  0.00  0.00    -0.028 A 
HETATM   38  C   UNK     0     -67.628 -24.669  -1.693  0.00  0.00     0.051 C 
ENDBRANCH  30  31
ENDBRANCH  29  30
ENDBRANCH  26  29
ENDBRANCH  24  25
BRANCH  24  39
HETATM   39  C   UNK     0     -61.663 -21.287  -1.534  0.00  0.00     0.066 C 
BRANCH  39  40
HETATM   40  C   UNK     0     -61.920 -19.901  -2.093  0.00  0.00    -0.056 A 
HETATM   41  C   UNK     0     -62.835 -19.728  -3.160  0.00  0.00     0.007 A 
HETATM   42  C   UNK     0     -63.087 -18.443  -3.702  0.00  0.00     0.001 A 
HETATM   43  C   UNK     0     -62.425 -17.316  -3.180  0.00  0.00     0.000 A 
HETATM   44  C   UNK     0     -61.510 -17.476  -2.115  0.00  0.00     0.001 A 
HETATM   45  C   UNK     0     -61.259 -18.758  -1.575  0.00  0.00     0.007 A 
ENDBRANCH  39  40
ENDBRANCH  24  39
ENDBRANCH  23  24
BRANCH  23  46
HETATM   46  O   UNK     0     -61.688 -23.798  -4.308  0.00  0.00    -0.393 OA
HETATM   47  H   UNK     0     -60.986 -24.263  -4.749  0.00  0.00     0.210 HD
ENDBRANCH  23  46
ENDBRANCH  22  23
ENDBRANCH  14  22
ENDBRANCH  11  14
ENDBRANCH   9  10
BRANCH   9  48
HETATM   48  C   UNK     0     -57.083 -19.693  -6.702  0.00  0.00     0.010 C 
HETATM   49  C   UNK     0     -57.052 -18.549  -5.671  0.00  0.00     0.012 C 
HETATM   50  C   UNK     0     -56.821 -19.095  -8.104  0.00  0.00     0.012 C 
ENDBRANCH   9  48
ENDBRANCH   3   9
TORSDOF 16
ENDMDL
MODEL 6
REMARK VINA RESULT:      -8.3      2.930     10.644
REMARK  16 active torsions:
REMARK  status: ('A' for Active; 'I' for Inactive)
REMARK    1  A    between atoms: N_3  and  C_13 
REMARK    2  A    between atoms: C_6  and  C_37 
REMARK    3  A    between atoms: C_13  and  C_14 
REMARK    4  A    between atoms: C_13  and  C_17 
REMARK       I    between atoms: C_14  and  N_15 
REMARK    5  A    between atoms: N_15  and  C_16 
REMARK    6  A    between atoms: C_16  and  C_27 
REMARK    7  A    between atoms: C_16  and  C_28 
REMARK    8  A    between atoms: C_25  and  C_27 
REMARK    9  A    between atoms: C_28  and  C_29 
REMARK   10  A    between atoms: C_29  and  C_30 
REMARK   11  A    between atoms: C_29  and  O_36 
REMARK   12  A    between atoms: C_30  and  N_31 
REMARK   13  A    between atoms: C_30  and  C_37 
REMARK       I    between atoms: N_31  and  C_32 
REMARK   14  A    between atoms: C_32  and  C_33 
REMARK   15  A    between atoms: C_33  and  O_34 
REMARK   16  A    between atoms: O_34  and  C_35 
ROOT
HETATM    1  C   UNK     0     -70.510 -29.521   1.135  0.00  0.00     0.126 C 
HETATM    2  C   UNK     0     -69.608 -27.181   1.225  0.00  0.00     0.130 C 
HETATM    3  N   UNK     0     -68.457 -27.636   0.360  0.00  0.00    -0.320 N 
HETATM    4  C   UNK     0     -68.358 -28.951  -0.075  0.00  0.00     0.319 C 
HETATM    5  N   UNK     0     -69.334 -29.828   0.297  0.00  0.00    -0.343 N 
HETATM    6  O   UNK     0     -67.433 -29.335  -0.770  0.00  0.00    -0.247 OA
HETATM    7  C   UNK     0     -70.884 -28.036   1.070  0.00  0.00     0.040 C 
HETATM    8  H   UNK     0     -69.175 -30.765  -0.074  0.00  0.00     0.164 HD
ENDROOT
BRANCH   3   9
HETATM    9  C   UNK     0     -67.387 -26.656  -0.038  0.00  0.00     0.184 C 
BRANCH   9  10
HETATM   10  C   UNK     0     -66.510 -26.328   1.201  0.00  0.00     0.241 C 
HETATM   11  N   UNK     0     -65.181 -26.582   0.990  0.00  0.00    -0.354 N 
HETATM   12  H   UNK     0     -64.981 -26.947   0.058  0.00  0.00     0.162 HD
HETATM   13  O   UNK     0     -66.998 -25.888   2.243  0.00  0.00    -0.271 OA
BRANCH  11  14
HETATM   14  C   UNK     0     -64.111 -26.363   1.988  0.00  0.00     0.091 C 
BRANCH  14  15
HETATM   15  C   UNK     0     -63.216 -27.617   2.116  0.00  0.00     0.063 C 
BRANCH  15  16
HETATM   16  C   UNK     0     -63.146 -28.296   3.454  0.00  0.00    -0.056 A 
HETATM   17  C   UNK     0     -63.761 -29.563   3.648  0.00  0.00     0.007 A 
HETATM   18  C   UNK     0     -63.701 -30.211   4.902  0.00  0.00     0.001 A 
HETATM   19  C   UNK     0     -63.023 -29.597   5.981  0.00  0.00     0.000 A 
HETATM   20  C   UNK     0     -62.407 -28.335   5.796  0.00  0.00     0.001 A 
HETATM   21  C   UNK     0     -62.470 -27.690   4.538  0.00  0.00     0.007 A 
ENDBRANCH  15  16
ENDBRANCH  14  15
BRANCH  14  22
HETATM   22  C   UNK     0     -63.177 -25.205   1.572  0.00  0.00     0.059 C 
BRANCH  22  23
HETATM   23  C   UNK     0     -63.209 -24.676   0.126  0.00  0.00     0.143 C 
BRANCH  23  24
HETATM   24  C   UNK     0     -61.847 -24.334  -0.530  0.00  0.00     0.117 C 
BRANCH  24  25
HETATM   25  N   UNK     0     -61.964 -23.006  -1.177  0.00  0.00    -0.352 N 
HETATM   26  C   UNK     0     -62.258 -22.821  -2.503  0.00  0.00     0.242 C 
HETATM   27  O   UNK     0     -62.466 -23.728  -3.317  0.00  0.00    -0.271 OA
HETATM   28  H   UNK     0     -61.830 -22.138  -0.659  0.00  0.00     0.163 HD
BRANCH  26  29
HETATM   29  C   UNK     0     -62.300 -21.346  -2.949  0.00  0.00     0.278 C 
BRANCH  29  30
HETATM   30  O   UNK     0     -61.213 -21.023  -3.836  0.00  0.00    -0.341 OA
BRANCH  30  31
HETATM   31  C   UNK     0     -60.103 -20.443  -3.194  0.00  0.00     0.081 A 
HETATM   32  C   UNK     0     -58.948 -21.220  -2.830  0.00  0.00    -0.028 A 
HETATM   33  C   UNK     0     -57.857 -20.576  -2.185  0.00  0.00     0.009 A 
HETATM   34  C   UNK     0     -58.848 -22.701  -3.109  0.00  0.00     0.051 C 
HETATM   35  C   UNK     0     -57.895 -19.195  -1.903  0.00  0.00     0.001 A 
HETATM   36  C   UNK     0     -59.021 -18.425  -2.258  0.00  0.00     0.009 A 
HETATM   37  C   UNK     0     -60.126 -19.032  -2.901  0.00  0.00    -0.028 A 
HETATM   38  C   UNK     0     -61.300 -18.188  -3.266  0.00  0.00     0.051 C 
ENDBRANCH  30  31
ENDBRANCH  29  30
ENDBRANCH  26  29
ENDBRANCH  24  25
BRANCH  24  39
HETATM   39  C   UNK     0     -60.718 -24.274   0.540  0.00  0.00     0.066 C 
BRANCH  39  40
HETATM   40  C   UNK     0     -59.809 -25.488   0.571  0.00  0.00    -0.056 A 
HETATM   41  C   UNK     0     -59.037 -25.762   1.726  0.00  0.00     0.007 A 
HETATM   42  C   UNK     0     -58.177 -26.887   1.776  0.00  0.00     0.001 A 
HETATM   43  C   UNK     0     -58.082 -27.752   0.670  0.00  0.00     0.000 A 
HETATM   44  C   UNK     0     -58.848 -27.489  -0.487  0.00  0.00     0.001 A 
HETATM   45  C   UNK     0     -59.706 -26.365  -0.538  0.00  0.00     0.007 A 
ENDBRANCH  39  40
ENDBRANCH  24  39
ENDBRANCH  23  24
BRANCH  23  46
HETATM   46  O   UNK     0     -63.798 -25.696  -0.644  0.00  0.00    -0.393 OA
HETATM   47  H   UNK     0     -63.667 -26.500  -0.153  0.00  0.00     0.210 HD
ENDBRANCH  23  46
ENDBRANCH  22  23
ENDBRANCH  14  22
ENDBRANCH  11  14
ENDBRANCH   9  10
BRANCH   9  48
HETATM   48  C   UNK     0     -67.994 -25.358  -0.703  0.00  0.00     0.010 C 
HETATM   49  C   UNK     0     -68.453 -24.301   0.319  0.00  0.00     0.012 C 
HETATM   50  C   UNK     0     -66.972 -24.702  -1.660  0.00  0.00     0.012 C 
ENDBRANCH   9  48
ENDBRANCH   3   9
TORSDOF 16
ENDMDL
MODEL 7
REMARK VINA RESULT:      -8.3      3.192     11.039
REMARK  16 active torsions:
REMARK  status: ('A' for Active; 'I' for Inactive)
REMARK    1  A    between atoms: N_3  and  C_13 
REMARK    2  A    between atoms: C_6  and  C_37 
REMARK    3  A    between atoms: C_13  and  C_14 
REMARK    4  A    between atoms: C_13  and  C_17 
REMARK       I    between atoms: C_14  and  N_15 
REMARK    5  A    between atoms: N_15  and  C_16 
REMARK    6  A    between atoms: C_16  and  C_27 
REMARK    7  A    between atoms: C_16  and  C_28 
REMARK    8  A    between atoms: C_25  and  C_27 
REMARK    9  A    between atoms: C_28  and  C_29 
REMARK   10  A    between atoms: C_29  and  C_30 
REMARK   11  A    between atoms: C_29  and  O_36 
REMARK   12  A    between atoms: C_30  and  N_31 
REMARK   13  A    between atoms: C_30  and  C_37 
REMARK       I    between atoms: N_31  and  C_32 
REMARK   14  A    between atoms: C_32  and  C_33 
REMARK   15  A    between atoms: C_33  and  O_34 
REMARK   16  A    between atoms: O_34  and  C_35 
ROOT
HETATM    1  C   UNK     0     -72.189 -26.967   2.572  0.00  0.00     0.126 C 
HETATM    2  C   UNK     0     -70.643 -26.055   0.819  0.00  0.00     0.130 C 
HETATM    3  N   UNK     0     -70.046 -27.435   0.687  0.00  0.00    -0.320 N 
HETATM    4  C   UNK     0     -70.504 -28.495   1.457  0.00  0.00     0.319 C 
HETATM    5  N   UNK     0     -71.516 -28.260   2.340  0.00  0.00    -0.343 N 
HETATM    6  O   UNK     0     -70.031 -29.615   1.365  0.00  0.00    -0.247 OA
HETATM    7  C   UNK     0     -72.092 -26.046   1.350  0.00  0.00     0.040 C 
HETATM    8  H   UNK     0     -71.785 -29.099   2.855  0.00  0.00     0.164 HD
ENDROOT
BRANCH   3   9
HETATM    9  C   UNK     0     -68.928 -27.676  -0.290  0.00  0.00     0.184 C 
BRANCH   9  10
HETATM   10  C   UNK     0     -67.960 -26.462  -0.269  0.00  0.00     0.241 C 
HETATM   11  N   UNK     0     -67.108 -26.483   0.803  0.00  0.00    -0.354 N 
HETATM   12  H   UNK     0     -67.246 -27.288   1.414  0.00  0.00     0.162 HD
HETATM   13  O   UNK     0     -67.990 -25.593  -1.142  0.00  0.00    -0.271 OA
BRANCH  11  14
HETATM   14  C   UNK     0     -66.077 -25.460   1.082  0.00  0.00     0.091 C 
BRANCH  14  15
HETATM   15  C   UNK     0     -65.609 -25.540   2.553  0.00  0.00     0.063 C 
BRANCH  15  16
HETATM   16  C   UNK     0     -64.838 -26.757   2.979  0.00  0.00    -0.056 A 
HETATM   17  C   UNK     0     -63.527 -26.625   3.512  0.00  0.00     0.007 A 
HETATM   18  C   UNK     0     -62.792 -27.763   3.916  0.00  0.00     0.001 A 
HETATM   19  C   UNK     0     -63.364 -29.050   3.791  0.00  0.00     0.000 A 
HETATM   20  C   UNK     0     -64.669 -29.191   3.262  0.00  0.00     0.001 A 
HETATM   21  C   UNK     0     -65.401 -28.049   2.859  0.00  0.00     0.007 A 
ENDBRANCH  15  16
ENDBRANCH  14  15
BRANCH  14  22
HETATM   22  C   UNK     0     -64.817 -25.675   0.215  0.00  0.00     0.059 C 
BRANCH  22  23
HETATM   23  C   UNK     0     -64.147 -24.473  -0.477  0.00  0.00     0.143 C 
BRANCH  23  24
HETATM   24  C   UNK     0     -62.605 -24.514  -0.626  0.00  0.00     0.117 C 
BRANCH  24  25
HETATM   25  N   UNK     0     -62.143 -23.169  -1.041  0.00  0.00    -0.352 N 
HETATM   26  C   UNK     0     -62.090 -22.742  -2.342  0.00  0.00     0.242 C 
HETATM   27  O   UNK     0     -62.421 -23.417  -3.323  0.00  0.00    -0.271 OA
HETATM   28  H   UNK     0     -61.833 -22.470  -0.365  0.00  0.00     0.163 HD
BRANCH  26  29
HETATM   29  C   UNK     0     -61.549 -21.310  -2.524  0.00  0.00     0.278 C 
BRANCH  29  30
HETATM   30  O   UNK     0     -61.331 -20.655  -1.261  0.00  0.00    -0.341 OA
BRANCH  30  31
HETATM   31  C   UNK     0     -60.021 -20.168  -1.088  0.00  0.00     0.081 A 
HETATM   32  C   UNK     0     -59.513 -19.067  -1.862  0.00  0.00    -0.028 A 
HETATM   33  C   UNK     0     -58.183 -18.621  -1.639  0.00  0.00     0.009 A 
HETATM   34  C   UNK     0     -60.344 -18.363  -2.909  0.00  0.00     0.051 C 
HETATM   35  C   UNK     0     -57.364 -19.239  -0.672  0.00  0.00     0.001 A 
HETATM   36  C   UNK     0     -57.853 -20.317   0.094  0.00  0.00     0.009 A 
HETATM   37  C   UNK     0     -59.173 -20.789  -0.101  0.00  0.00    -0.028 A 
HETATM   38  C   UNK     0     -59.660 -21.928   0.727  0.00  0.00     0.051 C 
ENDBRANCH  30  31
ENDBRANCH  29  30
ENDBRANCH  26  29
ENDBRANCH  24  25
BRANCH  24  39
HETATM   39  C   UNK     0     -61.929 -24.882   0.728  0.00  0.00     0.066 C 
BRANCH  39  40
HETATM   40  C   UNK     0     -60.590 -25.583   0.597  0.00  0.00    -0.056 A 
HETATM   41  C   UNK     0     -60.263 -26.649   1.470  0.00  0.00     0.007 A 
HETATM   42  C   UNK     0     -59.016 -27.315   1.370  0.00  0.00     0.001 A 
HETATM   43  C   UNK     0     -58.082 -26.920   0.394  0.00  0.00     0.000 A 
HETATM   44  C   UNK     0     -58.398 -25.858  -0.482  0.00  0.00     0.001 A 
HETATM   45  C   UNK     0     -59.642 -25.193  -0.383  0.00  0.00     0.007 A 
ENDBRANCH  39  40
ENDBRANCH  24  39
ENDBRANCH  23  24
BRANCH  23  46
HETATM   46  O   UNK     0     -64.690 -24.425  -1.774  0.00  0.00    -0.393 OA
HETATM   47  H   UNK     0     -64.670 -23.510  -2.031  0.00  0.00     0.210 HD
ENDBRANCH  23  46
ENDBRANCH  22  23
ENDBRANCH  14  22
ENDBRANCH  11  14
ENDBRANCH   9  10
BRANCH   9  48
HETATM   48  C   UNK     0     -69.469 -27.985  -1.742  0.00  0.00     0.010 C 
HETATM   49  C   UNK     0     -69.358 -29.471  -2.135  0.00  0.00     0.012 C 
HETATM   50  C   UNK     0     -70.946 -27.550  -1.882  0.00  0.00     0.012 C 
ENDBRANCH   9  48
ENDBRANCH   3   9
TORSDOF 16
ENDMDL
MODEL 8
REMARK VINA RESULT:      -8.3      2.350      5.734
REMARK  16 active torsions:
REMARK  status: ('A' for Active; 'I' for Inactive)
REMARK    1  A    between atoms: N_3  and  C_13 
REMARK    2  A    between atoms: C_6  and  C_37 
REMARK    3  A    between atoms: C_13  and  C_14 
REMARK    4  A    between atoms: C_13  and  C_17 
REMARK       I    between atoms: C_14  and  N_15 
REMARK    5  A    between atoms: N_15  and  C_16 
REMARK    6  A    between atoms: C_16  and  C_27 
REMARK    7  A    between atoms: C_16  and  C_28 
REMARK    8  A    between atoms: C_25  and  C_27 
REMARK    9  A    between atoms: C_28  and  C_29 
REMARK   10  A    between atoms: C_29  and  C_30 
REMARK   11  A    between atoms: C_29  and  O_36 
REMARK   12  A    between atoms: C_30  and  N_31 
REMARK   13  A    between atoms: C_30  and  C_37 
REMARK       I    between atoms: N_31  and  C_32 
REMARK   14  A    between atoms: C_32  and  C_33 
REMARK   15  A    between atoms: C_33  and  O_34 
REMARK   16  A    between atoms: O_34  and  C_35 
ROOT
HETATM    1  C   UNK     0     -61.943 -18.118  -2.643  0.00  0.00     0.126 C 
HETATM    2  C   UNK     0     -61.711 -20.468  -1.795  0.00  0.00     0.130 C 
HETATM    3  N   UNK     0     -60.781 -20.749  -2.951  0.00  0.00    -0.320 N 
HETATM    4  C   UNK     0     -60.469 -19.766  -3.880  0.00  0.00     0.319 C 
HETATM    5  N   UNK     0     -61.022 -18.530  -3.721  0.00  0.00    -0.343 N 
HETATM    6  O   UNK     0     -59.723 -19.978  -4.820  0.00  0.00    -0.247 OA
HETATM    7  C   UNK     0     -61.773 -18.981  -1.388  0.00  0.00     0.040 C 
HETATM    8  H   UNK     0     -60.731 -17.878  -4.449  0.00  0.00     0.164 HD
ENDROOT
BRANCH   3   9
HETATM    9  C   UNK     0     -60.182 -22.120  -3.113  0.00  0.00     0.184 C 
BRANCH   9  10
HETATM   10  C   UNK     0     -61.177 -23.180  -2.568  0.00  0.00     0.241 C 
HETATM   11  N   UNK     0     -60.792 -23.694  -1.359  0.00  0.00    -0.354 N 
HETATM   12  H   UNK     0     -59.917 -23.302  -1.012  0.00  0.00     0.162 HD
HETATM   13  O   UNK     0     -62.192 -23.498  -3.191  0.00  0.00    -0.271 OA
BRANCH  11  14
HETATM   14  C   UNK     0     -61.543 -24.718  -0.600  0.00  0.00     0.091 C 
BRANCH  14  15
HETATM   15  C   UNK     0     -60.814 -25.067   0.719  0.00  0.00     0.063 C 
BRANCH  15  16
HETATM   16  C   UNK     0     -59.795 -26.171   0.686  0.00  0.00    -0.056 A 
HETATM   17  C   UNK     0     -59.638 -26.967  -0.481  0.00  0.00     0.007 A 
HETATM   18  C   UNK     0     -58.683 -28.007  -0.524  0.00  0.00     0.001 A 
HETATM   19  C   UNK     0     -57.870 -28.263   0.605  0.00  0.00     0.000 A 
HETATM   20  C   UNK     0     -58.019 -27.474   1.771  0.00  0.00     0.001 A 
HETATM   21  C   UNK     0     -58.977 -26.434   1.809  0.00  0.00     0.007 A 
ENDBRANCH  15  16
ENDBRANCH  14  15
BRANCH  14  22
HETATM   22  C   UNK     0     -62.945 -24.210  -0.198  0.00  0.00     0.059 C 
BRANCH  22  23
HETATM   23  C   UNK     0     -64.088 -25.215   0.032  0.00  0.00     0.143 C 
BRANCH  23  24
HETATM   24  C   UNK     0     -65.399 -24.663   0.648  0.00  0.00     0.117 C 
BRANCH  24  25
HETATM   25  N   UNK     0     -66.542 -25.270  -0.073  0.00  0.00    -0.352 N 
HETATM   26  C   UNK     0     -67.759 -24.661  -0.237  0.00  0.00     0.242 C 
HETATM   27  O   UNK     0     -68.052 -23.538   0.188  0.00  0.00    -0.271 OA
HETATM   28  H   UNK     0     -66.484 -26.196  -0.498  0.00  0.00     0.163 HD
BRANCH  26  29
HETATM   29  C   UNK     0     -68.798 -25.503  -1.002  0.00  0.00     0.278 C 
BRANCH  29  30
HETATM   30  O   UNK     0     -69.209 -26.660  -0.250  0.00  0.00    -0.341 OA
BRANCH  30  31
HETATM   31  C   UNK     0     -69.369 -27.822  -1.029  0.00  0.00     0.081 A 
HETATM   32  C   UNK     0     -70.442 -27.957  -1.977  0.00  0.00    -0.028 A 
HETATM   33  C   UNK     0     -70.549 -29.153  -2.736  0.00  0.00     0.009 A 
HETATM   34  C   UNK     0     -71.466 -26.869  -2.199  0.00  0.00     0.051 C 
HETATM   35  C   UNK     0     -69.619 -30.201  -2.572  0.00  0.00     0.001 A 
HETATM   36  C   UNK     0     -68.562 -30.077  -1.647  0.00  0.00     0.009 A 
HETATM   37  C   UNK     0     -68.424 -28.900  -0.874  0.00  0.00    -0.028 A 
HETATM   38  C   UNK     0     -67.293 -28.801   0.092  0.00  0.00     0.051 C 
ENDBRANCH  30  31
ENDBRANCH  29  30
ENDBRANCH  26  29
ENDBRANCH  24  25
BRANCH  24  39
HETATM   39  C   UNK     0     -65.501 -25.037   2.156  0.00  0.00     0.066 C 
BRANCH  39  40
HETATM   40  C   UNK     0     -64.559 -26.139   2.601  0.00  0.00    -0.056 A 
HETATM   41  C   UNK     0     -63.277 -25.811   3.107  0.00  0.00     0.007 A 
HETATM   42  C   UNK     0     -62.378 -26.823   3.523  0.00  0.00     0.001 A 
HETATM   43  C   UNK     0     -62.753 -28.178   3.439  0.00  0.00     0.000 A 
HETATM   44  C   UNK     0     -64.029 -28.517   2.937  0.00  0.00     0.001 A 
HETATM   45  C   UNK     0     -64.927 -27.506   2.521  0.00  0.00     0.007 A 
ENDBRANCH  39  40
ENDBRANCH  24  39
ENDBRANCH  23  24
BRANCH  23  46
HETATM   46  O   UNK     0     -64.409 -25.730  -1.237  0.00  0.00    -0.393 OA
HETATM   47  H   UNK     0     -63.959 -25.174  -1.864  0.00  0.00     0.210 HD
ENDBRANCH  23  46
ENDBRANCH  22  23
ENDBRANCH  14  22
ENDBRANCH  11  14
ENDBRANCH   9  10
BRANCH   9  48
HETATM   48  C   UNK     0     -58.760 -22.226  -2.431  0.00  0.00     0.010 C 
HETATM   49  C   UNK     0     -57.602 -22.341  -3.441  0.00  0.00     0.012 C 
HETATM   50  C   UNK     0     -58.495 -21.006  -1.519  0.00  0.00     0.012 C 
ENDBRANCH   9  48
ENDBRANCH   3   9
TORSDOF 16
ENDMDL
MODEL 9
REMARK VINA RESULT:      -8.3      2.272      5.742
REMARK  16 active torsions:
REMARK  status: ('A' for Active; 'I' for Inactive)
REMARK    1  A    between atoms: N_3  and  C_13 
REMARK    2  A    between atoms: C_6  and  C_37 
REMARK    3  A    between atoms: C_13  and  C_14 
REMARK    4  A    between atoms: C_13  and  C_17 
REMARK       I    between atoms: C_14  and  N_15 
REMARK    5  A    between atoms: N_15  and  C_16 
REMARK    6  A    between atoms: C_16  and  C_27 
REMARK    7  A    between atoms: C_16  and  C_28 
REMARK    8  A    between atoms: C_25  and  C_27 
REMARK    9  A    between atoms: C_28  and  C_29 
REMARK   10  A    between atoms: C_29  and  C_30 
REMARK   11  A    between atoms: C_29  and  O_36 
REMARK   12  A    between atoms: C_30  and  N_31 
REMARK   13  A    between atoms: C_30  and  C_37 
REMARK       I    between atoms: N_31  and  C_32 
REMARK   14  A    between atoms: C_32  and  C_33 
REMARK   15  A    between atoms: C_33  and  O_34 
REMARK   16  A    between atoms: O_34  and  C_35 
ROOT
HETATM    1  C   UNK     0     -61.793 -18.084  -2.421  0.00  0.00     0.126 C 
HETATM    2  C   UNK     0     -61.605 -20.479  -1.696  0.00  0.00     0.130 C 
HETATM    3  N   UNK     0     -60.737 -20.733  -2.905  0.00  0.00    -0.320 N 
HETATM    4  C   UNK     0     -60.432 -19.717  -3.799  0.00  0.00     0.319 C 
HETATM    5  N   UNK     0     -60.935 -18.473  -3.558  0.00  0.00    -0.343 N 
HETATM    6  O   UNK     0     -59.736 -19.906  -4.782  0.00  0.00    -0.247 OA
HETATM    7  C   UNK     0     -61.598 -19.012  -1.216  0.00  0.00     0.040 C 
HETATM    8  H   UNK     0     -60.653 -17.795  -4.266  0.00  0.00     0.164 HD
ENDROOT
BRANCH   3   9
HETATM    9  C   UNK     0     -60.193 -22.112  -3.159  0.00  0.00     0.184 C 
BRANCH   9  10
HETATM   10  C   UNK     0     -61.164 -23.164  -2.555  0.00  0.00     0.241 C 
HETATM   11  N   UNK     0     -60.702 -23.698  -1.382  0.00  0.00    -0.354 N 
HETATM   12  H   UNK     0     -59.798 -23.324  -1.095  0.00  0.00     0.162 HD
HETATM   13  O   UNK     0     -62.227 -23.457  -3.106  0.00  0.00    -0.271 OA
BRANCH  11  14
HETATM   14  C   UNK     0     -61.414 -24.719  -0.582  0.00  0.00     0.091 C 
BRANCH  14  15
HETATM   15  C   UNK     0     -60.627 -25.050   0.707  0.00  0.00     0.063 C 
BRANCH  15  16
HETATM   16  C   UNK     0     -59.661 -26.200   0.664  0.00  0.00    -0.056 A 
HETATM   17  C   UNK     0     -58.827 -26.477   1.781  0.00  0.00     0.007 A 
HETATM   18  C   UNK     0     -57.915 -27.557   1.752  0.00  0.00     0.001 A 
HETATM   19  C   UNK     0     -57.828 -28.374   0.602  0.00  0.00     0.000 A 
HETATM   20  C   UNK     0     -58.656 -28.106  -0.515  0.00  0.00     0.001 A 
HETATM   21  C   UNK     0     -59.568 -27.023  -0.482  0.00  0.00     0.007 A 
ENDBRANCH  15  16
ENDBRANCH  14  15
BRANCH  14  22
HETATM   22  C   UNK     0     -62.801 -24.215  -0.126  0.00  0.00     0.059 C 
BRANCH  22  23
HETATM   23  C   UNK     0     -64.011 -25.167  -0.158  0.00  0.00     0.143 C 
BRANCH  23  24
HETATM   24  C   UNK     0     -65.348 -24.626   0.408  0.00  0.00     0.117 C 
BRANCH  24  25
HETATM   25  N   UNK     0     -66.457 -25.377  -0.225  0.00  0.00    -0.352 N 
HETATM   26  C   UNK     0     -67.722 -24.877  -0.401  0.00  0.00     0.242 C 
HETATM   27  O   UNK     0     -68.090 -23.747  -0.064  0.00  0.00    -0.271 OA
HETATM   28  H   UNK     0     -66.338 -26.329  -0.572  0.00  0.00     0.163 HD
BRANCH  26  29
HETATM   29  C   UNK     0     -68.711 -25.859  -1.061  0.00  0.00     0.278 C 
BRANCH  29  30
HETATM   30  O   UNK     0     -68.726 -27.134  -0.393  0.00  0.00    -0.341 OA
BRANCH  30  31
HETATM   31  C   UNK     0     -69.864 -27.347   0.408  0.00  0.00     0.081 A 
HETATM   32  C   UNK     0     -69.852 -27.093   1.824  0.00  0.00    -0.028 A 
HETATM   33  C   UNK     0     -71.033 -27.326   2.578  0.00  0.00     0.009 A 
HETATM   34  C   UNK     0     -68.625 -26.587   2.544  0.00  0.00     0.051 C 
HETATM   35  C   UNK     0     -72.209 -27.796   1.957  0.00  0.00     0.001 A 
HETATM   36  C   UNK     0     -72.232 -28.044   0.570  0.00  0.00     0.009 A 
HETATM   37  C   UNK     0     -71.074 -27.825  -0.214  0.00  0.00    -0.028 A 
HETATM   38  C   UNK     0     -71.133 -28.095  -1.679  0.00  0.00     0.051 C 
ENDBRANCH  30  31
ENDBRANCH  29  30
ENDBRANCH  26  29
ENDBRANCH  24  25
BRANCH  24  39
HETATM   39  C   UNK     0     -65.418 -24.831   1.950  0.00  0.00     0.066 C 
BRANCH  39  40
HETATM   40  C   UNK     0     -64.612 -26.005   2.471  0.00  0.00    -0.056 A 
HETATM   41  C   UNK     0     -63.346 -25.784   3.065  0.00  0.00     0.007 A 
HETATM   42  C   UNK     0     -62.572 -26.866   3.554  0.00  0.00     0.001 A 
HETATM   43  C   UNK     0     -63.060 -28.182   3.454  0.00  0.00     0.000 A 
HETATM   44  C   UNK     0     -64.322 -28.415   2.864  0.00  0.00     0.001 A 
HETATM   45  C   UNK     0     -65.094 -27.335   2.376  0.00  0.00     0.007 A 
ENDBRANCH  39  40
ENDBRANCH  24  39
ENDBRANCH  23  24
BRANCH  23  46
HETATM   46  O   UNK     0     -64.226 -25.470  -1.515  0.00  0.00    -0.393 OA
HETATM   47  H   UNK     0     -64.498 -24.656  -1.923  0.00  0.00     0.210 HD
ENDBRANCH  23  46
ENDBRANCH  22  23
ENDBRANCH  14  22
ENDBRANCH  11  14
ENDBRANCH   9  10
BRANCH   9  48
HETATM   48  C   UNK     0     -58.720 -22.275  -2.612  0.00  0.00     0.010 C 
HETATM   49  C   UNK     0     -57.658 -22.360  -3.725  0.00  0.00     0.012 C 
HETATM   50  C   UNK     0     -58.350 -21.106  -1.671  0.00  0.00     0.012 C 
ENDBRANCH   9  48
ENDBRANCH   3   9
TORSDOF 16
ENDMDL
MODEL 10
REMARK VINA RESULT:      -7.9      3.963     11.549
REMARK  16 active torsions:
REMARK  status: ('A' for Active; 'I' for Inactive)
REMARK    1  A    between atoms: N_3  and  C_13 
REMARK    2  A    between atoms: C_6  and  C_37 
REMARK    3  A    between atoms: C_13  and  C_14 
REMARK    4  A    between atoms: C_13  and  C_17 
REMARK       I    between atoms: C_14  and  N_15 
REMARK    5  A    between atoms: N_15  and  C_16 
REMARK    6  A    between atoms: C_16  and  C_27 
REMARK    7  A    between atoms: C_16  and  C_28 
REMARK    8  A    between atoms: C_25  and  C_27 
REMARK    9  A    between atoms: C_28  and  C_29 
REMARK   10  A    between atoms: C_29  and  C_30 
REMARK   11  A    between atoms: C_29  and  O_36 
REMARK   12  A    between atoms: C_30  and  N_31 
REMARK   13  A    between atoms: C_30  and  C_37 
REMARK       I    between atoms: N_31  and  C_32 
REMARK   14  A    between atoms: C_32  and  C_33 
REMARK   15  A    between atoms: C_33  and  O_34 
REMARK   16  A    between atoms: O_34  and  C_35 
ROOT
HETATM    1  C   UNK     0     -73.054 -29.085  -0.474  0.00  0.00     0.126 C 
HETATM    2  C   UNK     0     -70.614 -29.270  -1.026  0.00  0.00     0.130 C 
HETATM    3  N   UNK     0     -70.346 -29.539   0.435  0.00  0.00    -0.320 N 
HETATM    4  C   UNK     0     -71.378 -29.572   1.363  0.00  0.00     0.319 C 
HETATM    5  N   UNK     0     -72.650 -29.358   0.920  0.00  0.00    -0.343 N 
HETATM    6  O   UNK     0     -71.179 -29.784   2.547  0.00  0.00    -0.247 OA
HETATM    7  C   UNK     0     -72.041 -29.642  -1.480  0.00  0.00     0.040 C 
HETATM    8  H   UNK     0     -73.337 -29.406   1.672  0.00  0.00     0.164 HD
ENDROOT
BRANCH   3   9
HETATM    9  C   UNK     0     -68.937 -29.769   0.908  0.00  0.00     0.184 C 
BRANCH   9  10
HETATM   10  C   UNK     0     -68.064 -28.541   0.532  0.00  0.00     0.241 C 
HETATM   11  N   UNK     0     -68.297 -27.459   1.339  0.00  0.00    -0.354 N 
HETATM   12  H   UNK     0     -69.005 -27.632   2.053  0.00  0.00     0.162 HD
HETATM   13  O   UNK     0     -67.261 -28.577  -0.402  0.00  0.00    -0.271 OA
BRANCH  11  14
HETATM   14  C   UNK     0     -67.613 -26.153   1.219  0.00  0.00     0.091 C 
BRANCH  14  15
HETATM   15  C   UNK     0     -68.605 -25.054   0.773  0.00  0.00     0.063 C 
BRANCH  15  16
HETATM   16  C   UNK     0     -69.553 -25.378  -0.346  0.00  0.00    -0.056 A 
HETATM   17  C   UNK     0     -69.055 -25.694  -1.639  0.00  0.00     0.007 A 
HETATM   18  C   UNK     0     -69.938 -26.000  -2.700  0.00  0.00     0.001 A 
HETATM   19  C   UNK     0     -71.335 -25.994  -2.476  0.00  0.00     0.000 A 
HETATM   20  C   UNK     0     -71.839 -25.681  -1.191  0.00  0.00     0.001 A 
HETATM   21  C   UNK     0     -70.951 -25.375  -0.132  0.00  0.00     0.007 A 
ENDBRANCH  15  16
ENDBRANCH  14  15
BRANCH  14  22
HETATM   22  C   UNK     0     -67.034 -25.691   2.574  0.00  0.00     0.059 C 
BRANCH  22  23
HETATM   23  C   UNK     0     -65.643 -25.033   2.629  0.00  0.00     0.143 C 
BRANCH  23  24
HETATM   24  C   UNK     0     -64.417 -25.958   2.420  0.00  0.00     0.117 C 
BRANCH  24  25
HETATM   25  N   UNK     0     -63.392 -25.205   1.659  0.00  0.00    -0.352 N 
HETATM   26  C   UNK     0     -62.298 -25.780   1.067  0.00  0.00     0.242 C 
HETATM   27  O   UNK     0     -62.033 -26.987   1.089  0.00  0.00    -0.271 OA
HETATM   28  H   UNK     0     -63.447 -24.194   1.530  0.00  0.00     0.163 HD
BRANCH  26  29
HETATM   29  C   UNK     0     -61.360 -24.786   0.354  0.00  0.00     0.278 C 
BRANCH  29  30
HETATM   30  O   UNK     0     -60.778 -25.356  -0.833  0.00  0.00    -0.341 OA
BRANCH  30  31
HETATM   31  C   UNK     0     -60.104 -24.422  -1.644  0.00  0.00     0.081 A 
HETATM   32  C   UNK     0     -58.736 -24.053  -1.398  0.00  0.00    -0.028 A 
HETATM   33  C   UNK     0     -58.110 -23.107  -2.253  0.00  0.00     0.009 A 
HETATM   34  C   UNK     0     -57.934 -24.636  -0.258  0.00  0.00     0.051 C 
HETATM   35  C   UNK     0     -58.811 -22.533  -3.334  0.00  0.00     0.001 A 
HETATM   36  C   UNK     0     -60.151 -22.890  -3.586  0.00  0.00     0.009 A 
HETATM   37  C   UNK     0     -60.807 -23.829  -2.754  0.00  0.00    -0.028 A 
HETATM   38  C   UNK     0     -62.223 -24.187  -3.050  0.00  0.00     0.051 C 
ENDBRANCH  30  31
ENDBRANCH  29  30
ENDBRANCH  26  29
ENDBRANCH  24  25
BRANCH  24  39
HETATM   39  C   UNK     0     -63.810 -26.389   3.788  0.00  0.00     0.066 C 
BRANCH  39  40
HETATM   40  C   UNK     0     -63.863 -27.880   4.063  0.00  0.00    -0.056 A 
HETATM   41  C   UNK     0     -64.725 -28.708   3.304  0.00  0.00     0.007 A 
HETATM   42  C   UNK     0     -64.795 -30.102   3.546  0.00  0.00     0.001 A 
HETATM   43  C   UNK     0     -63.999 -30.683   4.551  0.00  0.00     0.000 A 
HETATM   44  C   UNK     0     -63.135 -29.868   5.314  0.00  0.00     0.001 A 
HETATM   45  C   UNK     0     -63.065 -28.476   5.072  0.00  0.00     0.007 A 
ENDBRANCH  39  40
ENDBRANCH  24  39
ENDBRANCH  23  24
BRANCH  23  46
HETATM   46  O   UNK     0     -65.627 -24.080   1.593  0.00  0.00    -0.393 OA
HETATM   47  H   UNK     0     -66.508 -24.070   1.236  0.00  0.00     0.210 HD
ENDBRANCH  23  46
ENDBRANCH  22  23
ENDBRANCH  14  22
ENDBRANCH  11  14
ENDBRANCH   9  10
BRANCH   9  48
HETATM   48  C   UNK     0     -68.340 -31.121   0.349  0.00  0.00     0.010 C 
HETATM   49  C   UNK     0     -67.011 -31.527   1.014  0.00  0.00     0.012 C 
HETATM   50  C   UNK     0     -69.348 -32.281   0.522  0.00  0.00     0.012 C 
ENDBRANCH   9  48
ENDBRANCH   3   9
TORSDOF 16
ENDMDL
