MODEL 1
REMARK VINA RESULT:      -7.6      0.000      0.000
REMARK  4 active torsions:
REMARK  status: ('A' for Active; 'I' for Inactive)
REMARK    1  A    between atoms: O_2  and  C_9 
REMARK    2  A    between atoms: O_3  and  C_11 
REMARK    3  A    between atoms: O_4  and  C_14 
REMARK    4  A    between atoms: C_8  and  C_13 
ROOT
HETATM    1  O   UNK     0     -60.880 -22.806   0.449  0.00  0.00    -0.306 OA
HETATM    2  O   UNK     0     -61.027 -25.693  -2.423  0.00  0.00    -0.287 OA
HETATM    3  C   UNK     0     -60.994 -25.165  -0.120  0.00  0.00     0.084 A 
HETATM    4  C   UNK     0     -60.942 -24.129   0.810  0.00  0.00     0.129 A 
HETATM    5  C   UNK     0     -60.859 -22.492  -0.902  0.00  0.00     0.090 A 
HETATM    6  C   UNK     0     -60.956 -24.414   2.176  0.00  0.00     0.136 A 
HETATM    7  C   UNK     0     -60.982 -24.834  -1.552  0.00  0.00     0.190 A 
HETATM    8  C   UNK     0     -61.058 -26.494   0.306  0.00  0.00     0.085 A 
HETATM    9  C   UNK     0     -60.911 -23.398  -1.889  0.00  0.00     0.094 A 
HETATM   10  C   UNK     0     -61.019 -25.741   2.606  0.00  0.00     0.104 A 
HETATM   11  C   UNK     0     -61.070 -26.778   1.673  0.00  0.00     0.077 A 
ENDROOT
BRANCH   5  12
HETATM   12  C   UNK     0     -60.796 -21.042  -1.179  0.00  0.00    -0.002 A 
HETATM   13  C   UNK     0     -61.967 -20.280  -1.203  0.00  0.00     0.014 A 
HETATM   14  C   UNK     0     -61.908 -18.912  -1.464  0.00  0.00     0.001 A 
HETATM   15  C   UNK     0     -60.677 -18.300  -1.701  0.00  0.00     0.000 A 
HETATM   16  C   UNK     0     -59.506 -19.056  -1.678  0.00  0.00     0.001 A 
HETATM   17  C   UNK     0     -59.565 -20.426  -1.417  0.00  0.00     0.014 A 
ENDBRANCH   5  12
BRANCH   6  18
HETATM   18  O   UNK     0     -60.906 -23.406   3.092  0.00  0.00    -0.351 OA
HETATM   19  C   UNK     0     -59.612 -22.972   3.507  0.00  0.00     0.210 C 
ENDBRANCH   6  18
BRANCH   8  20
HETATM   20  O   UNK     0     -61.111 -27.541  -0.562  0.00  0.00    -0.360 OA
HETATM   21  H   UNK     0     -60.218 -27.818  -0.816  0.00  0.00     0.217 HD
ENDBRANCH   8  20
BRANCH  10  22
HETATM   22  O   UNK     0     -61.032 -26.037   3.935  0.00  0.00    -0.358 OA
HETATM   23  H   UNK     0     -60.375 -25.482   4.390  0.00  0.00     0.217 HD
ENDBRANCH  10  22
TORSDOF 4
ENDMDL
MODEL 2
REMARK VINA RESULT:      -7.6      3.468      7.372
REMARK  4 active torsions:
REMARK  status: ('A' for Active; 'I' for Inactive)
REMARK    1  A    between atoms: O_2  and  C_9 
REMARK    2  A    between atoms: O_3  and  C_11 
REMARK    3  A    between atoms: O_4  and  C_14 
REMARK    4  A    between atoms: C_8  and  C_13 
ROOT
HETATM    1  O   UNK     0     -58.344 -21.629  -1.703  0.00  0.00    -0.306 OA
HETATM    2  O   UNK     0     -61.539 -19.358  -0.592  0.00  0.00    -0.287 OA
HETATM    3  C   UNK     0     -59.639 -19.592  -1.977  0.00  0.00     0.084 A 
HETATM    4  C   UNK     0     -58.567 -20.418  -2.309  0.00  0.00     0.129 A 
HETATM    5  C   UNK     0     -59.221 -22.041  -0.711  0.00  0.00     0.090 A 
HETATM    6  C   UNK     0     -57.665 -20.027  -3.300  0.00  0.00     0.136 A 
HETATM    7  C   UNK     0     -60.576 -20.031  -0.932  0.00  0.00     0.190 A 
HETATM    8  C   UNK     0     -59.818 -18.370  -2.629  0.00  0.00     0.085 A 
HETATM    9  C   UNK     0     -60.291 -21.339  -0.308  0.00  0.00     0.094 A 
HETATM   10  C   UNK     0     -57.839 -18.806  -3.953  0.00  0.00     0.104 A 
HETATM   11  C   UNK     0     -58.914 -17.980  -3.619  0.00  0.00     0.077 A 
ENDROOT
BRANCH   5  12
HETATM   12  C   UNK     0     -58.892 -23.358  -0.129  0.00  0.00    -0.002 A 
HETATM   13  C   UNK     0     -58.148 -24.284  -0.864  0.00  0.00     0.014 A 
HETATM   14  C   UNK     0     -57.836 -25.527  -0.316  0.00  0.00     0.001 A 
HETATM   15  C   UNK     0     -58.267 -25.849   0.971  0.00  0.00     0.000 A 
HETATM   16  C   UNK     0     -59.010 -24.928   1.709  0.00  0.00     0.001 A 
HETATM   17  C   UNK     0     -59.322 -23.684   1.159  0.00  0.00     0.014 A 
ENDBRANCH   5  12
BRANCH   6  18
HETATM   18  O   UNK     0     -56.614 -20.830  -3.631  0.00  0.00    -0.351 OA
HETATM   19  C   UNK     0     -56.837 -21.797  -4.655  0.00  0.00     0.210 C 
ENDBRANCH   6  18
BRANCH   8  20
HETATM   20  O   UNK     0     -60.849 -17.528  -2.341  0.00  0.00    -0.360 OA
HETATM   21  H   UNK     0     -60.516 -16.692  -1.983  0.00  0.00     0.217 HD
ENDBRANCH   8  20
BRANCH  10  22
HETATM   22  O   UNK     0     -56.968 -18.409  -4.921  0.00  0.00    -0.358 OA
HETATM   23  H   UNK     0     -56.364 -19.145  -5.126  0.00  0.00     0.217 HD
ENDBRANCH  10  22
TORSDOF 4
ENDMDL
MODEL 3
REMARK VINA RESULT:      -7.5      1.630      3.609
REMARK  4 active torsions:
REMARK  status: ('A' for Active; 'I' for Inactive)
REMARK    1  A    between atoms: O_2  and  C_9 
REMARK    2  A    between atoms: O_3  and  C_11 
REMARK    3  A    between atoms: O_4  and  C_14 
REMARK    4  A    between atoms: C_8  and  C_13 
ROOT
HETATM    1  O   UNK     0     -61.565 -22.082  -1.261  0.00  0.00    -0.306 OA
HETATM    2  O   UNK     0     -58.919 -21.579   1.796  0.00  0.00    -0.287 OA
HETATM    3  C   UNK     0     -60.226 -23.069   0.510  0.00  0.00     0.084 A 
HETATM    4  C   UNK     0     -61.128 -23.170  -0.547  0.00  0.00     0.129 A 
HETATM    5  C   UNK     0     -61.092 -20.828  -0.906  0.00  0.00     0.090 A 
HETATM    6  C   UNK     0     -61.626 -24.418  -0.923  0.00  0.00     0.136 A 
HETATM    7  C   UNK     0     -59.715 -21.741   0.881  0.00  0.00     0.190 A 
HETATM    8  C   UNK     0     -59.815 -24.211   1.200  0.00  0.00     0.085 A 
HETATM    9  C   UNK     0     -60.217 -20.603   0.086  0.00  0.00     0.094 A 
HETATM   10  C   UNK     0     -61.219 -25.563  -0.235  0.00  0.00     0.104 A 
HETATM   11  C   UNK     0     -60.315 -25.459   0.824  0.00  0.00     0.077 A 
ENDROOT
BRANCH   5  12
HETATM   12  C   UNK     0     -61.621 -19.730  -1.741  0.00  0.00    -0.002 A 
HETATM   13  C   UNK     0     -62.574 -19.994  -2.727  0.00  0.00     0.014 A 
HETATM   14  C   UNK     0     -63.074 -18.958  -3.514  0.00  0.00     0.001 A 
HETATM   15  C   UNK     0     -62.623 -17.653  -3.318  0.00  0.00     0.000 A 
HETATM   16  C   UNK     0     -61.671 -17.384  -2.335  0.00  0.00     0.001 A 
HETATM   17  C   UNK     0     -61.170 -18.421  -1.547  0.00  0.00     0.014 A 
ENDBRANCH   5  12
BRANCH   6  18
HETATM   18  O   UNK     0     -62.509 -24.526  -1.956  0.00  0.00    -0.351 OA
HETATM   19  C   UNK     0     -61.960 -24.699  -3.261  0.00  0.00     0.210 C 
ENDBRANCH   6  18
BRANCH   8  20
HETATM   20  O   UNK     0     -58.935 -24.165   2.238  0.00  0.00    -0.360 OA
HETATM   21  H   UNK     0     -58.395 -23.362   2.191  0.00  0.00     0.217 HD
ENDBRANCH   8  20
BRANCH  10  22
HETATM   22  O   UNK     0     -61.696 -26.788  -0.588  0.00  0.00    -0.358 OA
HETATM   23  H   UNK     0     -62.648 -26.828  -0.388  0.00  0.00     0.217 HD
ENDBRANCH  10  22
TORSDOF 4
ENDMDL
MODEL 4
REMARK VINA RESULT:      -7.4      2.921      6.950
REMARK  4 active torsions:
REMARK  status: ('A' for Active; 'I' for Inactive)
REMARK    1  A    between atoms: O_2  and  C_9 
REMARK    2  A    between atoms: O_3  and  C_11 
REMARK    3  A    between atoms: O_4  and  C_14 
REMARK    4  A    between atoms: C_8  and  C_13 
ROOT
HETATM    1  O   UNK     0     -59.333 -23.694  -1.483  0.00  0.00    -0.306 OA
HETATM    2  O   UNK     0     -58.295 -20.601   0.958  0.00  0.00    -0.287 OA
HETATM    3  C   UNK     0     -59.191 -21.297  -1.115  0.00  0.00     0.084 A 
HETATM    4  C   UNK     0     -59.524 -22.400  -1.899  0.00  0.00     0.129 A 
HETATM    5  C   UNK     0     -58.776 -23.909  -0.232  0.00  0.00     0.090 A 
HETATM    6  C   UNK     0     -60.081 -22.214  -3.165  0.00  0.00     0.136 A 
HETATM    7  C   UNK     0     -58.609 -21.522   0.216  0.00  0.00     0.190 A 
HETATM    8  C   UNK     0     -59.410 -20.001  -1.589  0.00  0.00     0.085 A 
HETATM    9  C   UNK     0     -58.420 -22.931   0.615  0.00  0.00     0.094 A 
HETATM   10  C   UNK     0     -60.301 -20.922  -3.643  0.00  0.00     0.104 A 
HETATM   11  C   UNK     0     -59.966 -19.818  -2.857  0.00  0.00     0.077 A 
ENDROOT
BRANCH   5  12
HETATM   12  C   UNK     0     -58.618 -25.336   0.117  0.00  0.00    -0.002 A 
HETATM   13  C   UNK     0     -58.204 -25.704   1.399  0.00  0.00     0.014 A 
HETATM   14  C   UNK     0     -58.056 -27.050   1.729  0.00  0.00     0.001 A 
HETATM   15  C   UNK     0     -58.323 -28.034   0.778  0.00  0.00     0.000 A 
HETATM   16  C   UNK     0     -58.737 -27.672  -0.504  0.00  0.00     0.001 A 
HETATM   17  C   UNK     0     -58.885 -26.324  -0.834  0.00  0.00     0.014 A 
ENDBRANCH   5  12
BRANCH   6  18
HETATM   18  O   UNK     0     -60.410 -23.288  -3.937  0.00  0.00    -0.351 OA
HETATM   19  C   UNK     0     -61.683 -23.888  -3.703  0.00  0.00     0.210 C 
ENDBRANCH   6  18
BRANCH   8  20
HETATM   20  O   UNK     0     -59.102 -18.892  -0.862  0.00  0.00    -0.360 OA
HETATM   21  H   UNK     0     -58.144 -18.748  -0.851  0.00  0.00     0.217 HD
ENDBRANCH   8  20
BRANCH  10  22
HETATM   22  O   UNK     0     -60.842 -20.723  -4.876  0.00  0.00    -0.358 OA
HETATM   23  H   UNK     0     -60.414 -19.954  -5.291  0.00  0.00     0.217 HD
ENDBRANCH  10  22
TORSDOF 4
ENDMDL
MODEL 5
REMARK VINA RESULT:      -7.4     18.998     21.369
REMARK  4 active torsions:
REMARK  status: ('A' for Active; 'I' for Inactive)
REMARK    1  A    between atoms: O_2  and  C_9 
REMARK    2  A    between atoms: O_3  and  C_11 
REMARK    3  A    between atoms: O_4  and  C_14 
REMARK    4  A    between atoms: C_8  and  C_13 
ROOT
HETATM    1  O   UNK     0     -69.834 -11.214  13.948  0.00  0.00    -0.306 OA
HETATM    2  O   UNK     0     -67.065  -8.333  14.744  0.00  0.00    -0.287 OA
HETATM    3  C   UNK     0     -67.929  -9.903  13.204  0.00  0.00     0.084 A 
HETATM    4  C   UNK     0     -68.903 -10.877  12.997  0.00  0.00     0.129 A 
HETATM    5  C   UNK     0     -69.795 -10.559  15.170  0.00  0.00     0.090 A 
HETATM    6  C   UNK     0     -68.964 -11.557  11.780  0.00  0.00     0.136 A 
HETATM    7  C   UNK     0     -67.891  -9.200  14.495  0.00  0.00     0.190 A 
HETATM    8  C   UNK     0     -67.007  -9.601  12.199  0.00  0.00     0.085 A 
HETATM    9  C   UNK     0     -68.911  -9.600  15.485  0.00  0.00     0.094 A 
HETATM   10  C   UNK     0     -68.044 -11.259  10.773  0.00  0.00     0.104 A 
HETATM   11  C   UNK     0     -67.068 -10.283  10.982  0.00  0.00     0.077 A 
ENDROOT
BRANCH   5  12
HETATM   12  C   UNK     0     -70.843 -10.993  16.116  0.00  0.00    -0.002 A 
HETATM   13  C   UNK     0     -71.592 -12.143  15.856  0.00  0.00     0.014 A 
HETATM   14  C   UNK     0     -72.580 -12.554  16.749  0.00  0.00     0.001 A 
HETATM   15  C   UNK     0     -72.824 -11.815  17.907  0.00  0.00     0.000 A 
HETATM   16  C   UNK     0     -72.079 -10.667  18.171  0.00  0.00     0.001 A 
HETATM   17  C   UNK     0     -71.090 -10.256  17.277  0.00  0.00     0.014 A 
ENDBRANCH   5  12
BRANCH   6  18
HETATM   18  O   UNK     0     -69.914 -12.511  11.569  0.00  0.00    -0.351 OA
HETATM   19  C   UNK     0     -71.087 -12.111  10.862  0.00  0.00     0.210 C 
ENDBRANCH   6  18
BRANCH   8  20
HETATM   20  O   UNK     0     -66.037  -8.658  12.352  0.00  0.00    -0.360 OA
HETATM   21  H   UNK     0     -65.237  -8.911  11.869  0.00  0.00     0.217 HD
ENDBRANCH   8  20
BRANCH  10  22
HETATM   22  O   UNK     0     -68.088 -11.913   9.580  0.00  0.00    -0.358 OA
HETATM   23  H   UNK     0     -68.488 -11.330   8.912  0.00  0.00     0.217 HD
ENDBRANCH  10  22
TORSDOF 4
ENDMDL
MODEL 6
REMARK VINA RESULT:      -7.3      1.985      2.885
REMARK  4 active torsions:
REMARK  status: ('A' for Active; 'I' for Inactive)
REMARK    1  A    between atoms: O_2  and  C_9 
REMARK    2  A    between atoms: O_3  and  C_11 
REMARK    3  A    between atoms: O_4  and  C_14 
REMARK    4  A    between atoms: C_8  and  C_13 
ROOT
HETATM    1  O   UNK     0     -61.394 -23.299   0.258  0.00  0.00    -0.306 OA
HETATM    2  O   UNK     0     -57.911 -25.084   1.389  0.00  0.00    -0.287 OA
HETATM    3  C   UNK     0     -60.262 -25.229   1.206  0.00  0.00     0.084 A 
HETATM    4  C   UNK     0     -61.416 -24.561   0.797  0.00  0.00     0.129 A 
HETATM    5  C   UNK     0     -60.171 -22.660   0.123  0.00  0.00     0.090 A 
HETATM    6  C   UNK     0     -62.661 -25.177   0.926  0.00  0.00     0.136 A 
HETATM    7  C   UNK     0     -58.963 -24.557   1.055  0.00  0.00     0.190 A 
HETATM    8  C   UNK     0     -60.343 -26.514   1.747  0.00  0.00     0.085 A 
HETATM    9  C   UNK     0     -58.994 -23.200   0.473  0.00  0.00     0.094 A 
HETATM   10  C   UNK     0     -62.747 -26.461   1.467  0.00  0.00     0.104 A 
HETATM   11  C   UNK     0     -61.590 -27.128   1.876  0.00  0.00     0.077 A 
ENDROOT
BRANCH   5  12
HETATM   12  C   UNK     0     -60.263 -21.311  -0.471  0.00  0.00    -0.002 A 
HETATM   13  C   UNK     0     -59.104 -20.569  -0.710  0.00  0.00     0.014 A 
HETATM   14  C   UNK     0     -59.189 -19.296  -1.272  0.00  0.00     0.001 A 
HETATM   15  C   UNK     0     -60.435 -18.760  -1.597  0.00  0.00     0.000 A 
HETATM   16  C   UNK     0     -61.595 -19.497  -1.361  0.00  0.00     0.001 A 
HETATM   17  C   UNK     0     -61.509 -20.771  -0.799  0.00  0.00     0.014 A 
ENDBRANCH   5  12
BRANCH   6  18
HETATM   18  O   UNK     0     -63.794 -24.531   0.529  0.00  0.00    -0.351 OA
HETATM   19  C   UNK     0     -64.306 -24.858  -0.761  0.00  0.00     0.210 C 
ENDBRANCH   6  18
BRANCH   8  20
HETATM   20  O   UNK     0     -59.246 -27.207   2.159  0.00  0.00    -0.360 OA
HETATM   21  H   UNK     0     -59.363 -27.519   3.069  0.00  0.00     0.217 HD
ENDBRANCH   8  20
BRANCH  10  22
HETATM   22  O   UNK     0     -63.954 -27.076   1.601  0.00  0.00    -0.358 OA
HETATM   23  H   UNK     0     -63.862 -28.014   1.359  0.00  0.00     0.217 HD
ENDBRANCH  10  22
TORSDOF 4
ENDMDL
MODEL 7
REMARK VINA RESULT:      -7.2     19.056     21.222
REMARK  4 active torsions:
REMARK  status: ('A' for Active; 'I' for Inactive)
REMARK    1  A    between atoms: O_2  and  C_9 
REMARK    2  A    between atoms: O_3  and  C_11 
REMARK    3  A    between atoms: O_4  and  C_14 
REMARK    4  A    between atoms: C_8  and  C_13 
ROOT
HETATM    1  O   UNK     0     -69.318 -10.345  14.537  0.00  0.00    -0.306 OA
HETATM    2  O   UNK     0     -69.782 -12.894  11.393  0.00  0.00    -0.287 OA
HETATM    3  C   UNK     0     -68.609 -11.069  12.329  0.00  0.00     0.084 A 
HETATM    4  C   UNK     0     -68.503 -10.231  13.438  0.00  0.00     0.129 A 
HETATM    5  C   UNK     0     -70.292 -11.332  14.537  0.00  0.00     0.090 A 
HETATM    6  C   UNK     0     -67.537  -9.226  13.464  0.00  0.00     0.136 A 
HETATM    7  C   UNK     0     -69.634 -12.122  12.331  0.00  0.00     0.190 A 
HETATM    8  C   UNK     0     -67.752 -10.908  11.238  0.00  0.00     0.085 A 
HETATM    9  C   UNK     0     -70.487 -12.201  13.534  0.00  0.00     0.094 A 
HETATM   10  C   UNK     0     -66.678  -9.061  12.376  0.00  0.00     0.104 A 
HETATM   11  C   UNK     0     -66.786  -9.900  11.266  0.00  0.00     0.077 A 
ENDROOT
BRANCH   5  12
HETATM   12  C   UNK     0     -71.107 -11.369  15.769  0.00  0.00    -0.002 A 
HETATM   13  C   UNK     0     -72.084 -12.354  15.934  0.00  0.00     0.014 A 
HETATM   14  C   UNK     0     -72.853 -12.390  17.096  0.00  0.00     0.001 A 
HETATM   15  C   UNK     0     -72.648 -11.441  18.098  0.00  0.00     0.000 A 
HETATM   16  C   UNK     0     -71.674 -10.456  17.937  0.00  0.00     0.001 A 
HETATM   17  C   UNK     0     -70.905 -10.420  16.774  0.00  0.00     0.014 A 
ENDBRANCH   5  12
BRANCH   6  18
HETATM   18  O   UNK     0     -67.427  -8.403  14.546  0.00  0.00    -0.351 OA
HETATM   19  C   UNK     0     -66.498  -8.785  15.558  0.00  0.00     0.210 C 
ENDBRANCH   6  18
BRANCH   8  20
HETATM   20  O   UNK     0     -67.814 -11.700  10.133  0.00  0.00    -0.360 OA
HETATM   21  H   UNK     0     -67.049 -11.545   9.560  0.00  0.00     0.217 HD
ENDBRANCH   8  20
BRANCH  10  22
HETATM   22  O   UNK     0     -65.730  -8.083  12.385  0.00  0.00    -0.358 OA
HETATM   23  H   UNK     0     -66.073  -7.313  12.870  0.00  0.00     0.217 HD
ENDBRANCH  10  22
TORSDOF 4
ENDMDL
MODEL 8
REMARK VINA RESULT:      -7.2      3.827      5.052
REMARK  4 active torsions:
REMARK  status: ('A' for Active; 'I' for Inactive)
REMARK    1  A    between atoms: O_2  and  C_9 
REMARK    2  A    between atoms: O_3  and  C_11 
REMARK    3  A    between atoms: O_4  and  C_14 
REMARK    4  A    between atoms: C_8  and  C_13 
ROOT
HETATM    1  O   UNK     0     -63.769 -25.175   0.575  0.00  0.00    -0.306 OA
HETATM    2  O   UNK     0     -61.886 -25.549  -3.019  0.00  0.00    -0.287 OA
HETATM    3  C   UNK     0     -61.710 -25.536  -0.662  0.00  0.00     0.084 A 
HETATM    4  C   UNK     0     -62.416 -25.400   0.532  0.00  0.00     0.129 A 
HETATM    5  C   UNK     0     -64.459 -25.072  -0.623  0.00  0.00     0.090 A 
HETATM    6  C   UNK     0     -61.747 -25.493   1.753  0.00  0.00     0.136 A 
HETATM    7  C   UNK     0     -62.441 -25.436  -1.934  0.00  0.00     0.190 A 
HETATM    8  C   UNK     0     -60.332 -25.765  -0.646  0.00  0.00     0.085 A 
HETATM    9  C   UNK     0     -63.894 -25.191  -1.834  0.00  0.00     0.094 A 
HETATM   10  C   UNK     0     -60.370 -25.721   1.774  0.00  0.00     0.104 A 
HETATM   11  C   UNK     0     -59.665 -25.857   0.577  0.00  0.00     0.077 A 
ENDROOT
BRANCH   5  12
HETATM   12  C   UNK     0     -65.909 -24.836  -0.462  0.00  0.00    -0.002 A 
HETATM   13  C   UNK     0     -66.752 -24.857  -1.575  0.00  0.00     0.014 A 
HETATM   14  C   UNK     0     -68.120 -24.635  -1.423  0.00  0.00     0.001 A 
HETATM   15  C   UNK     0     -68.650 -24.391  -0.156  0.00  0.00     0.000 A 
HETATM   16  C   UNK     0     -67.812 -24.368   0.958  0.00  0.00     0.001 A 
HETATM   17  C   UNK     0     -66.443 -24.590   0.806  0.00  0.00     0.014 A 
ENDBRANCH   5  12
BRANCH   6  18
HETATM   18  O   UNK     0     -62.431 -25.361   2.925  0.00  0.00    -0.351 OA
HETATM   19  C   UNK     0     -62.936 -26.557   3.517  0.00  0.00     0.210 C 
ENDBRANCH   6  18
BRANCH   8  20
HETATM   20  O   UNK     0     -59.598 -25.905  -1.784  0.00  0.00    -0.360 OA
HETATM   21  H   UNK     0     -58.921 -25.215  -1.840  0.00  0.00     0.217 HD
ENDBRANCH   8  20
BRANCH  10  22
HETATM   22  O   UNK     0     -59.702 -25.813   2.957  0.00  0.00    -0.358 OA
HETATM   23  H   UNK     0     -60.344 -25.776   3.687  0.00  0.00     0.217 HD
ENDBRANCH  10  22
TORSDOF 4
ENDMDL
MODEL 9
REMARK VINA RESULT:      -7.2      3.612      5.671
REMARK  4 active torsions:
REMARK  status: ('A' for Active; 'I' for Inactive)
REMARK    1  A    between atoms: O_2  and  C_9 
REMARK    2  A    between atoms: O_3  and  C_11 
REMARK    3  A    between atoms: O_4  and  C_14 
REMARK    4  A    between atoms: C_8  and  C_13 
ROOT
HETATM    1  O   UNK     0     -63.125 -25.040  -0.230  0.00  0.00    -0.306 OA
HETATM    2  O   UNK     0     -62.116 -27.741   2.648  0.00  0.00    -0.287 OA
HETATM    3  C   UNK     0     -61.406 -26.358   0.868  0.00  0.00     0.084 A 
HETATM    4  C   UNK     0     -61.819 -25.438  -0.093  0.00  0.00     0.129 A 
HETATM    5  C   UNK     0     -64.074 -25.585   0.622  0.00  0.00     0.090 A 
HETATM    6  C   UNK     0     -60.888 -24.877  -0.968  0.00  0.00     0.136 A 
HETATM    7  C   UNK     0     -62.408 -26.931   1.779  0.00  0.00     0.190 A 
HETATM    8  C   UNK     0     -60.062 -26.726   0.963  0.00  0.00     0.085 A 
HETATM    9  C   UNK     0     -63.799 -26.473   1.589  0.00  0.00     0.094 A 
HETATM   10  C   UNK     0     -59.544 -25.242  -0.878  0.00  0.00     0.104 A 
HETATM   11  C   UNK     0     -59.132 -26.165   0.086  0.00  0.00     0.077 A 
ENDROOT
BRANCH   5  12
HETATM   12  C   UNK     0     -65.444 -25.084   0.392  0.00  0.00    -0.002 A 
HETATM   13  C   UNK     0     -65.945 -24.980  -0.908  0.00  0.00     0.014 A 
HETATM   14  C   UNK     0     -67.239 -24.509  -1.126  0.00  0.00     0.001 A 
HETATM   15  C   UNK     0     -68.037 -24.139  -0.044  0.00  0.00     0.000 A 
HETATM   16  C   UNK     0     -67.542 -24.241   1.256  0.00  0.00     0.001 A 
HETATM   17  C   UNK     0     -66.247 -24.713   1.473  0.00  0.00     0.014 A 
ENDBRANCH   5  12
BRANCH   6  18
HETATM   18  O   UNK     0     -61.284 -23.976  -1.911  0.00  0.00    -0.351 OA
HETATM   19  C   UNK     0     -61.632 -24.493  -3.194  0.00  0.00     0.210 C 
ENDBRANCH   6  18
BRANCH   8  20
HETATM   20  O   UNK     0     -59.609 -27.620   1.884  0.00  0.00    -0.360 OA
HETATM   21  H   UNK     0     -59.877 -27.354   2.777  0.00  0.00     0.217 HD
ENDBRANCH   8  20
BRANCH  10  22
HETATM   22  O   UNK     0     -58.623 -24.706  -1.725  0.00  0.00    -0.358 OA
HETATM   23  H   UNK     0     -58.205 -25.421  -2.235  0.00  0.00     0.217 HD
ENDBRANCH  10  22
TORSDOF 4
ENDMDL
MODEL 10
REMARK VINA RESULT:      -7.2      3.691      4.964
REMARK  4 active torsions:
REMARK  status: ('A' for Active; 'I' for Inactive)
REMARK    1  A    between atoms: O_2  and  C_9 
REMARK    2  A    between atoms: O_3  and  C_11 
REMARK    3  A    between atoms: O_4  and  C_14 
REMARK    4  A    between atoms: C_8  and  C_13 
ROOT
HETATM    1  O   UNK     0     -62.709 -25.005   0.673  0.00  0.00    -0.306 OA
HETATM    2  O   UNK     0     -64.701 -24.772  -2.873  0.00  0.00    -0.287 OA
HETATM    3  C   UNK     0     -64.824 -24.892  -0.516  0.00  0.00     0.084 A 
HETATM    4  C   UNK     0     -64.081 -24.971   0.660  0.00  0.00     0.129 A 
HETATM    5  C   UNK     0     -62.036 -24.969  -0.539  0.00  0.00     0.090 A 
HETATM    6  C   UNK     0     -64.730 -25.015   1.894  0.00  0.00     0.136 A 
HETATM    7  C   UNK     0     -64.113 -24.844  -1.803  0.00  0.00     0.190 A 
HETATM    8  C   UNK     0     -66.219 -24.859  -0.469  0.00  0.00     0.085 A 
HETATM    9  C   UNK     0     -62.638 -24.887  -1.735  0.00  0.00     0.094 A 
HETATM   10  C   UNK     0     -66.124 -24.982   1.946  0.00  0.00     0.104 A 
HETATM   11  C   UNK     0     -66.867 -24.905   0.766  0.00  0.00     0.077 A 
ENDROOT
BRANCH   5  12
HETATM   12  C   UNK     0     -60.565 -25.006  -0.410  0.00  0.00    -0.002 A 
HETATM   13  C   UNK     0     -59.866 -23.862  -0.018  0.00  0.00     0.014 A 
HETATM   14  C   UNK     0     -58.477 -23.896   0.104  0.00  0.00     0.001 A 
HETATM   15  C   UNK     0     -57.783 -25.076  -0.164  0.00  0.00     0.000 A 
HETATM   16  C   UNK     0     -58.477 -26.220  -0.554  0.00  0.00     0.001 A 
HETATM   17  C   UNK     0     -59.866 -26.186  -0.677  0.00  0.00     0.014 A 
ENDBRANCH   5  12
BRANCH   6  18
HETATM   18  O   UNK     0     -64.010 -25.091   3.050  0.00  0.00    -0.351 OA
HETATM   19  C   UNK     0     -63.680 -26.396   3.521  0.00  0.00     0.210 C 
ENDBRANCH   6  18
BRANCH   8  20
HETATM   20  O   UNK     0     -66.989 -24.782  -1.589  0.00  0.00    -0.360 OA
HETATM   21  H   UNK     0     -66.834 -23.946  -2.053  0.00  0.00     0.217 HD
ENDBRANCH   8  20
BRANCH  10  22
HETATM   22  O   UNK     0     -66.773 -25.026   3.142  0.00  0.00    -0.358 OA
HETATM   23  H   UNK     0     -66.709 -25.926   3.506  0.00  0.00     0.217 HD
ENDBRANCH  10  22
TORSDOF 4
ENDMDL
