MODEL 1
REMARK VINA RESULT:      -9.9      0.000      0.000
REMARK  10 active torsions:
REMARK  status: ('A' for Active; 'I' for Inactive)
REMARK    1  A    between atoms: O_2  and  C_15 
REMARK    2  A    between atoms: O_2  and  C_18 
REMARK    3  A    between atoms: O_3  and  C_12 
REMARK    4  A    between atoms: O_4  and  C_13 
REMARK    5  A    between atoms: O_5  and  C_14 
REMARK    6  A    between atoms: O_6  and  C_17 
REMARK    7  A    between atoms: O_9  and  C_19 
REMARK    8  A    between atoms: O_10  and  C_23 
REMARK    9  A    between atoms: C_16  and  C_17 
REMARK   10  A    between atoms: C_25  and  C_27 
ROOT
HETATM    1  O   UNK     0     -63.514 -34.265   4.566  0.00  0.00    -0.340 OA
HETATM    2  C   UNK     0     -62.309 -35.941   6.565  0.00  0.00     0.183 C 
HETATM    3  C   UNK     0     -63.198 -34.749   6.923  0.00  0.00     0.205 C 
HETATM    4  C   UNK     0     -62.583 -36.434   5.144  0.00  0.00     0.189 C 
HETATM    5  C   UNK     0     -63.168 -33.687   5.823  0.00  0.00     0.299 C 
HETATM    6  C   UNK     0     -62.593 -35.271   4.161  0.00  0.00     0.253 C 
ENDROOT
BRANCH   5   7
HETATM    7  O   UNK     0     -64.113 -32.674   6.163  0.00  0.00    -0.315 OA
BRANCH   7   8
HETATM    8  C   UNK     0     -63.846 -31.413   5.715  0.00  0.00     0.111 A 
HETATM    9  C   UNK     0     -64.591 -30.859   4.674  0.00  0.00     0.137 A 
HETATM   10  C   UNK     0     -64.305 -29.567   4.228  0.00  0.00     0.129 A 
HETATM   11  O   UNK     0     -65.071 -29.077   3.202  0.00  0.00    -0.306 OA
HETATM   12  C   UNK     0     -63.279 -28.837   4.823  0.00  0.00     0.084 A 
HETATM   13  C   UNK     0     -64.815 -27.794   2.742  0.00  0.00     0.090 A 
HETATM   14  C   UNK     0     -63.851 -26.995   3.227  0.00  0.00     0.094 A 
HETATM   15  C   UNK     0     -62.998 -27.479   4.332  0.00  0.00     0.190 A 
HETATM   16  O   UNK     0     -62.111 -26.782   4.806  0.00  0.00    -0.287 OA
HETATM   17  C   UNK     0     -62.531 -29.388   5.865  0.00  0.00     0.085 A 
HETATM   18  C   UNK     0     -62.818 -30.679   6.309  0.00  0.00     0.077 A 
BRANCH   9  19
HETATM   19  O   UNK     0     -65.595 -31.580   4.097  0.00  0.00    -0.351 OA
HETATM   20  C   UNK     0     -65.295 -32.237   2.867  0.00  0.00     0.210 C 
ENDBRANCH   9  19
BRANCH  13  21
HETATM   21  C   UNK     0     -65.691 -27.368   1.632  0.00  0.00    -0.002 A 
HETATM   22  C   UNK     0     -65.503 -26.122   1.028  0.00  0.00     0.014 A 
HETATM   23  C   UNK     0     -66.330 -25.720  -0.021  0.00  0.00     0.001 A 
HETATM   24  C   UNK     0     -67.347 -26.561  -0.470  0.00  0.00     0.000 A 
HETATM   25  C   UNK     0     -67.539 -27.806   0.132  0.00  0.00     0.001 A 
HETATM   26  C   UNK     0     -66.712 -28.208   1.181  0.00  0.00     0.014 A 
ENDBRANCH  13  21
BRANCH  17  27
HETATM   27  O   UNK     0     -61.518 -28.715   6.478  0.00  0.00    -0.360 OA
HETATM   28  H   UNK     0     -61.601 -28.778   7.441  0.00  0.00     0.217 HD
ENDBRANCH  17  27
ENDBRANCH   7   8
ENDBRANCH   5   7
BRANCH   6  29
HETATM   29  C   UNK     0     -63.116 -35.700   2.828  0.00  0.00     0.172 C 
HETATM   30  O   UNK     0     -62.791 -35.209   1.756  0.00  0.00    -0.648 OA
BRANCH  29  31
HETATM   31  O   UNK     0     -64.007 -36.710   2.966  0.00  0.00    -0.774 OA
HETATM   32  H   UNK     0     -64.918 -36.378   3.121  0.00  0.00     0.167 HD
ENDBRANCH  29  31
ENDBRANCH   6  29
BRANCH   3  33
HETATM   33  O   UNK     0     -62.728 -34.154   8.131  0.00  0.00    -0.388 OA
HETATM   34  H   UNK     0     -63.504 -33.926   8.670  0.00  0.00     0.210 HD
ENDBRANCH   3  33
BRANCH   4  35
HETATM   35  O   UNK     0     -61.557 -37.349   4.762  0.00  0.00    -0.390 OA
HETATM   36  H   UNK     0     -61.190 -37.051   3.912  0.00  0.00     0.210 HD
ENDBRANCH   4  35
BRANCH   2  37
HETATM   37  O   UNK     0     -62.573 -37.018   7.466  0.00  0.00    -0.390 OA
HETATM   38  H   UNK     0     -62.208 -37.828   7.072  0.00  0.00     0.210 HD
ENDBRANCH   2  37
TORSDOF 10
ENDMDL
MODEL 2
REMARK VINA RESULT:      -9.0      4.350      6.682
REMARK  10 active torsions:
REMARK  status: ('A' for Active; 'I' for Inactive)
REMARK    1  A    between atoms: O_2  and  C_15 
REMARK    2  A    between atoms: O_2  and  C_18 
REMARK    3  A    between atoms: O_3  and  C_12 
REMARK    4  A    between atoms: O_4  and  C_13 
REMARK    5  A    between atoms: O_5  and  C_14 
REMARK    6  A    between atoms: O_6  and  C_17 
REMARK    7  A    between atoms: O_9  and  C_19 
REMARK    8  A    between atoms: O_10  and  C_23 
REMARK    9  A    between atoms: C_16  and  C_17 
REMARK   10  A    between atoms: C_25  and  C_27 
ROOT
HETATM    1  O   UNK     0     -63.984 -29.215   3.393  0.00  0.00    -0.340 OA
HETATM    2  C   UNK     0     -62.681 -29.844   5.875  0.00  0.00     0.183 C 
HETATM    3  C   UNK     0     -62.769 -28.416   5.336  0.00  0.00     0.205 C 
HETATM    4  C   UNK     0     -63.770 -30.735   5.277  0.00  0.00     0.189 C 
HETATM    5  C   UNK     0     -62.886 -28.407   3.811  0.00  0.00     0.299 C 
HETATM    6  C   UNK     0     -63.824 -30.579   3.763  0.00  0.00     0.253 C 
ENDROOT
BRANCH   5   7
HETATM    7  O   UNK     0     -63.094 -27.059   3.394  0.00  0.00    -0.315 OA
BRANCH   7   8
HETATM    8  C   UNK     0     -62.235 -26.570   2.453  0.00  0.00     0.111 A 
HETATM    9  C   UNK     0     -62.485 -25.346   1.832  0.00  0.00     0.137 A 
HETATM   10  C   UNK     0     -61.595 -24.861   0.872  0.00  0.00     0.129 A 
HETATM   11  O   UNK     0     -61.894 -23.652   0.297  0.00  0.00    -0.306 OA
HETATM   12  C   UNK     0     -60.462 -25.599   0.537  0.00  0.00     0.084 A 
HETATM   13  C   UNK     0     -61.025 -23.141  -0.655  0.00  0.00     0.090 A 
HETATM   14  C   UNK     0     -59.907 -23.760  -1.068  0.00  0.00     0.094 A 
HETATM   15  C   UNK     0     -59.543 -25.064  -0.479  0.00  0.00     0.190 A 
HETATM   16  O   UNK     0     -58.530 -25.660  -0.824  0.00  0.00    -0.287 OA
HETATM   17  C   UNK     0     -60.209 -26.825   1.156  0.00  0.00     0.085 A 
HETATM   18  C   UNK     0     -61.099 -27.308   2.115  0.00  0.00     0.077 A 
BRANCH   9  19
HETATM   19  O   UNK     0     -63.596 -24.629   2.166  0.00  0.00    -0.351 OA
HETATM   20  C   UNK     0     -64.803 -24.948   1.478  0.00  0.00     0.210 C 
ENDBRANCH   9  19
BRANCH  13  21
HETATM   21  C   UNK     0     -61.445 -21.841  -1.214  0.00  0.00    -0.002 A 
HETATM   22  C   UNK     0     -62.075 -21.782  -2.460  0.00  0.00     0.014 A 
HETATM   23  C   UNK     0     -62.472 -20.554  -2.988  0.00  0.00     0.001 A 
HETATM   24  C   UNK     0     -62.240 -19.379  -2.272  0.00  0.00     0.000 A 
HETATM   25  C   UNK     0     -61.611 -19.433  -1.028  0.00  0.00     0.001 A 
HETATM   26  C   UNK     0     -61.214 -20.662  -0.500  0.00  0.00     0.014 A 
ENDBRANCH  13  21
BRANCH  17  27
HETATM   27  O   UNK     0     -59.116 -27.584   0.862  0.00  0.00    -0.360 OA
HETATM   28  H   UNK     0     -59.380 -28.490   0.645  0.00  0.00     0.217 HD
ENDBRANCH  17  27
ENDBRANCH   7   8
ENDBRANCH   5   7
BRANCH   6  29
HETATM   29  C   UNK     0     -65.044 -31.234   3.200  0.00  0.00     0.172 C 
HETATM   30  O   UNK     0     -66.169 -30.755   3.218  0.00  0.00    -0.648 OA
BRANCH  29  31
HETATM   31  O   UNK     0     -64.738 -32.441   2.666  0.00  0.00    -0.774 OA
HETATM   32  H   UNK     0     -65.422 -33.115   2.866  0.00  0.00     0.167 HD
ENDBRANCH  29  31
ENDBRANCH   6  29
BRANCH   3  33
HETATM   33  O   UNK     0     -61.590 -27.699   5.698  0.00  0.00    -0.388 OA
HETATM   34  H   UNK     0     -61.018 -28.306   6.197  0.00  0.00     0.210 HD
ENDBRANCH   3  33
BRANCH   4  35
HETATM   35  O   UNK     0     -63.482 -32.097   5.588  0.00  0.00    -0.390 OA
HETATM   36  H   UNK     0     -63.853 -32.292   6.465  0.00  0.00     0.210 HD
ENDBRANCH   4  35
BRANCH   2  37
HETATM   37  O   UNK     0     -62.852 -29.829   7.293  0.00  0.00    -0.390 OA
HETATM   38  H   UNK     0     -61.986 -29.642   7.693  0.00  0.00     0.210 HD
ENDBRANCH   2  37
TORSDOF 10
ENDMDL
MODEL 3
REMARK VINA RESULT:      -8.9      6.940     10.203
REMARK  10 active torsions:
REMARK  status: ('A' for Active; 'I' for Inactive)
REMARK    1  A    between atoms: O_2  and  C_15 
REMARK    2  A    between atoms: O_2  and  C_18 
REMARK    3  A    between atoms: O_3  and  C_12 
REMARK    4  A    between atoms: O_4  and  C_13 
REMARK    5  A    between atoms: O_5  and  C_14 
REMARK    6  A    between atoms: O_6  and  C_17 
REMARK    7  A    between atoms: O_9  and  C_19 
REMARK    8  A    between atoms: O_10  and  C_23 
REMARK    9  A    between atoms: C_16  and  C_17 
REMARK   10  A    between atoms: C_25  and  C_27 
ROOT
HETATM    1  O   UNK     0     -66.283 -26.261   1.052  0.00  0.00    -0.340 OA
HETATM    2  C   UNK     0     -67.793 -24.632  -0.771  0.00  0.00     0.183 C 
HETATM    3  C   UNK     0     -66.365 -25.090  -1.072  0.00  0.00     0.205 C 
HETATM    4  C   UNK     0     -68.465 -25.539   0.260  0.00  0.00     0.189 C 
HETATM    5  C   UNK     0     -65.582 -25.343   0.217  0.00  0.00     0.299 C 
HETATM    6  C   UNK     0     -67.552 -25.763   1.459  0.00  0.00     0.253 C 
ENDROOT
BRANCH   5   7
HETATM    7  O   UNK     0     -64.313 -25.889  -0.139  0.00  0.00    -0.315 OA
BRANCH   7   8
HETATM    8  C   UNK     0     -63.219 -25.333   0.458  0.00  0.00     0.111 A 
HETATM    9  C   UNK     0     -62.436 -24.401  -0.225  0.00  0.00     0.137 A 
HETATM   10  C   UNK     0     -61.320 -23.842   0.400  0.00  0.00     0.129 A 
HETATM   11  O   UNK     0     -60.590 -22.932  -0.320  0.00  0.00    -0.306 OA
HETATM   12  C   UNK     0     -60.992 -24.214   1.702  0.00  0.00     0.084 A 
HETATM   13  C   UNK     0     -59.480 -22.355   0.277  0.00  0.00     0.090 A 
HETATM   14  C   UNK     0     -59.058 -22.636   1.521  0.00  0.00     0.094 A 
HETATM   15  C   UNK     0     -59.810 -23.610   2.337  0.00  0.00     0.190 A 
HETATM   16  O   UNK     0     -59.463 -23.892   3.475  0.00  0.00    -0.287 OA
HETATM   17  C   UNK     0     -61.774 -25.146   2.388  0.00  0.00     0.085 A 
HETATM   18  C   UNK     0     -62.888 -25.704   1.761  0.00  0.00     0.077 A 
BRANCH   9  19
HETATM   19  O   UNK     0     -62.764 -24.041  -1.500  0.00  0.00    -0.351 OA
HETATM   20  C   UNK     0     -62.247 -24.850  -2.554  0.00  0.00     0.210 C 
ENDBRANCH   9  19
BRANCH  13  21
HETATM   21  C   UNK     0     -58.763 -21.397  -0.588  0.00  0.00    -0.002 A 
HETATM   22  C   UNK     0     -58.127 -20.284  -0.028  0.00  0.00     0.014 A 
HETATM   23  C   UNK     0     -57.449 -19.380  -0.845  0.00  0.00     0.001 A 
HETATM   24  C   UNK     0     -57.403 -19.584  -2.224  0.00  0.00     0.000 A 
HETATM   25  C   UNK     0     -58.037 -20.692  -2.787  0.00  0.00     0.001 A 
HETATM   26  C   UNK     0     -58.715 -21.597  -1.970  0.00  0.00     0.014 A 
ENDBRANCH  13  21
BRANCH  17  27
HETATM   27  O   UNK     0     -61.494 -25.544   3.662  0.00  0.00    -0.360 OA
HETATM   28  H   UNK     0     -62.116 -26.228   3.948  0.00  0.00     0.217 HD
ENDBRANCH  17  27
ENDBRANCH   7   8
ENDBRANCH   5   7
BRANCH   6  29
HETATM   29  C   UNK     0     -68.081 -26.847   2.341  0.00  0.00     0.172 C 
HETATM   30  O   UNK     0     -69.149 -26.809   2.935  0.00  0.00    -0.648 OA
BRANCH  29  31
HETATM   31  O   UNK     0     -67.213 -27.885   2.399  0.00  0.00    -0.774 OA
HETATM   32  H   UNK     0     -66.744 -28.020   1.548  0.00  0.00     0.167 HD
ENDBRANCH  29  31
ENDBRANCH   6  29
BRANCH   3  33
HETATM   33  O   UNK     0     -65.689 -24.078  -1.815  0.00  0.00    -0.388 OA
HETATM   34  H   UNK     0     -66.357 -23.592  -2.328  0.00  0.00     0.210 HD
ENDBRANCH   3  33
BRANCH   4  35
HETATM   35  O   UNK     0     -69.669 -24.922   0.710  0.00  0.00    -0.390 OA
HETATM   36  H   UNK     0     -70.411 -25.317   0.222  0.00  0.00     0.210 HD
ENDBRANCH   4  35
BRANCH   2  37
HETATM   37  O   UNK     0     -68.569 -24.673  -1.969  0.00  0.00    -0.390 OA
HETATM   38  H   UNK     0     -69.242 -23.975  -1.909  0.00  0.00     0.210 HD
ENDBRANCH   2  37
TORSDOF 10
ENDMDL
MODEL 4
REMARK VINA RESULT:      -8.9      8.550     11.791
REMARK  10 active torsions:
REMARK  status: ('A' for Active; 'I' for Inactive)
REMARK    1  A    between atoms: O_2  and  C_15 
REMARK    2  A    between atoms: O_2  and  C_18 
REMARK    3  A    between atoms: O_3  and  C_12 
REMARK    4  A    between atoms: O_4  and  C_13 
REMARK    5  A    between atoms: O_5  and  C_14 
REMARK    6  A    between atoms: O_6  and  C_17 
REMARK    7  A    between atoms: O_9  and  C_19 
REMARK    8  A    between atoms: O_10  and  C_23 
REMARK    9  A    between atoms: C_16  and  C_17 
REMARK   10  A    between atoms: C_25  and  C_27 
ROOT
HETATM    1  O   UNK     0     -60.570 -25.047   0.016  0.00  0.00    -0.340 OA
HETATM    2  C   UNK     0     -62.793 -26.110   1.493  0.00  0.00     0.183 C 
HETATM    3  C   UNK     0     -62.972 -25.108   0.352  0.00  0.00     0.205 C 
HETATM    4  C   UNK     0     -61.459 -26.849   1.382  0.00  0.00     0.189 C 
HETATM    5  C   UNK     0     -61.729 -24.233   0.183  0.00  0.00     0.299 C 
HETATM    6  C   UNK     0     -60.316 -25.869   1.149  0.00  0.00     0.253 C 
ENDROOT
BRANCH   5   7
HETATM    7  O   UNK     0     -61.917 -23.419  -0.972  0.00  0.00    -0.315 OA
BRANCH   7   8
HETATM    8  C   UNK     0     -60.870 -22.624  -1.337  0.00  0.00     0.111 A 
HETATM    9  C   UNK     0     -60.101 -22.935  -2.460  0.00  0.00     0.137 A 
HETATM   10  C   UNK     0     -59.034 -22.111  -2.820  0.00  0.00     0.129 A 
HETATM   11  O   UNK     0     -58.315 -22.467  -3.932  0.00  0.00    -0.306 OA
HETATM   12  C   UNK     0     -58.739 -20.981  -2.058  0.00  0.00     0.084 A 
HETATM   13  C   UNK     0     -57.254 -21.664  -4.317  0.00  0.00     0.090 A 
HETATM   14  C   UNK     0     -56.866 -20.556  -3.664  0.00  0.00     0.094 A 
HETATM   15  C   UNK     0     -57.607 -20.131  -2.459  0.00  0.00     0.190 A 
HETATM   16  O   UNK     0     -57.291 -19.126  -1.837  0.00  0.00    -0.287 OA
HETATM   17  C   UNK     0     -59.506 -20.667  -0.934  0.00  0.00     0.085 A 
HETATM   18  C   UNK     0     -60.572 -21.492  -0.577  0.00  0.00     0.077 A 
BRANCH   9  19
HETATM   19  O   UNK     0     -60.396 -24.042  -3.200  0.00  0.00    -0.351 OA
HETATM   20  C   UNK     0     -61.320 -23.875  -4.273  0.00  0.00     0.210 C 
ENDBRANCH   9  19
BRANCH  13  21
HETATM   21  C   UNK     0     -56.545 -22.142  -5.522  0.00  0.00    -0.002 A 
HETATM   22  C   UNK     0     -57.168 -23.041  -6.392  0.00  0.00     0.014 A 
HETATM   23  C   UNK     0     -56.499 -23.492  -7.530  0.00  0.00     0.001 A 
HETATM   24  C   UNK     0     -55.205 -23.047  -7.802  0.00  0.00     0.000 A 
HETATM   25  C   UNK     0     -54.580 -22.151  -6.935  0.00  0.00     0.001 A 
HETATM   26  C   UNK     0     -55.249 -21.699  -5.796  0.00  0.00     0.014 A 
ENDBRANCH  13  21
BRANCH  17  27
HETATM   27  O   UNK     0     -59.257 -19.575  -0.158  0.00  0.00    -0.360 OA
HETATM   28  H   UNK     0     -59.856 -19.556   0.603  0.00  0.00     0.217 HD
ENDBRANCH  17  27
ENDBRANCH   7   8
ENDBRANCH   5   7
BRANCH   6  29
HETATM   29  C   UNK     0     -59.060 -26.589   0.778  0.00  0.00     0.172 C 
HETATM   30  O   UNK     0     -58.613 -26.681  -0.356  0.00  0.00    -0.648 OA
BRANCH  29  31
HETATM   31  O   UNK     0     -58.480 -27.135   1.873  0.00  0.00    -0.774 OA
HETATM   32  H   UNK     0     -58.220 -26.453   2.530  0.00  0.00     0.167 HD
ENDBRANCH  29  31
ENDBRANCH   6  29
BRANCH   3  33
HETATM   33  O   UNK     0     -64.081 -24.257   0.639  0.00  0.00    -0.388 OA
HETATM   34  H   UNK     0     -63.940 -23.875   1.522  0.00  0.00     0.210 HD
ENDBRANCH   3  33
BRANCH   4  35
HETATM   35  O   UNK     0     -61.215 -27.556   2.597  0.00  0.00    -0.390 OA
HETATM   36  H   UNK     0     -61.532 -27.007   3.334  0.00  0.00     0.210 HD
ENDBRANCH   4  35
BRANCH   2  37
HETATM   37  O   UNK     0     -63.841 -27.079   1.444  0.00  0.00    -0.390 OA
HETATM   38  H   UNK     0     -64.644 -26.664   1.800  0.00  0.00     0.210 HD
ENDBRANCH   2  37
TORSDOF 10
ENDMDL
MODEL 5
REMARK VINA RESULT:      -8.9      7.202     11.885
REMARK  10 active torsions:
REMARK  status: ('A' for Active; 'I' for Inactive)
REMARK    1  A    between atoms: O_2  and  C_15 
REMARK    2  A    between atoms: O_2  and  C_18 
REMARK    3  A    between atoms: O_3  and  C_12 
REMARK    4  A    between atoms: O_4  and  C_13 
REMARK    5  A    between atoms: O_5  and  C_14 
REMARK    6  A    between atoms: O_6  and  C_17 
REMARK    7  A    between atoms: O_9  and  C_19 
REMARK    8  A    between atoms: O_10  and  C_23 
REMARK    9  A    between atoms: C_16  and  C_17 
REMARK   10  A    between atoms: C_25  and  C_27 
ROOT
HETATM    1  O   UNK     0     -60.428 -21.511  -1.820  0.00  0.00    -0.340 OA
HETATM    2  C   UNK     0     -58.982 -20.575  -4.119  0.00  0.00     0.183 C 
HETATM    3  C   UNK     0     -59.316 -22.052  -3.907  0.00  0.00     0.205 C 
HETATM    4  C   UNK     0     -59.924 -19.670  -3.325  0.00  0.00     0.189 C 
HETATM    5  C   UNK     0     -59.468 -22.377  -2.421  0.00  0.00     0.299 C 
HETATM    6  C   UNK     0     -60.038 -20.144  -1.881  0.00  0.00     0.253 C 
ENDROOT
BRANCH   5   7
HETATM    7  O   UNK     0     -59.904 -23.731  -2.308  0.00  0.00    -0.315 OA
BRANCH   7   8
HETATM    8  C   UNK     0     -60.384 -24.120  -1.092  0.00  0.00     0.111 A 
HETATM    9  C   UNK     0     -61.752 -24.314  -0.899  0.00  0.00     0.137 A 
HETATM   10  C   UNK     0     -62.226 -24.713   0.352  0.00  0.00     0.129 A 
HETATM   11  O   UNK     0     -63.580 -24.888   0.481  0.00  0.00    -0.306 OA
HETATM   12  C   UNK     0     -61.334 -24.915   1.403  0.00  0.00     0.084 A 
HETATM   13  C   UNK     0     -64.080 -25.290   1.710  0.00  0.00     0.090 A 
HETATM   14  C   UNK     0     -63.325 -25.510   2.799  0.00  0.00     0.094 A 
HETATM   15  C   UNK     0     -61.861 -25.333   2.711  0.00  0.00     0.190 A 
HETATM   16  O   UNK     0     -61.136 -25.527   3.677  0.00  0.00    -0.287 OA
HETATM   17  C   UNK     0     -59.964 -24.721   1.213  0.00  0.00     0.085 A 
HETATM   18  C   UNK     0     -59.492 -24.322  -0.038  0.00  0.00     0.077 A 
BRANCH   9  19
HETATM   19  O   UNK     0     -62.620 -24.115  -1.933  0.00  0.00    -0.351 OA
HETATM   20  C   UNK     0     -62.944 -25.250  -2.733  0.00  0.00     0.210 C 
ENDBRANCH   9  19
BRANCH  13  21
HETATM   21  C   UNK     0     -65.548 -25.442   1.741  0.00  0.00    -0.002 A 
HETATM   22  C   UNK     0     -66.354 -24.644   0.924  0.00  0.00     0.014 A 
HETATM   23  C   UNK     0     -67.741 -24.788   0.952  0.00  0.00     0.001 A 
HETATM   24  C   UNK     0     -68.328 -25.729   1.797  0.00  0.00     0.000 A 
HETATM   25  C   UNK     0     -67.527 -26.528   2.614  0.00  0.00     0.001 A 
HETATM   26  C   UNK     0     -66.140 -26.384   2.586  0.00  0.00     0.014 A 
ENDBRANCH  13  21
BRANCH  17  27
HETATM   27  O   UNK     0     -59.052 -24.905   2.209  0.00  0.00    -0.360 OA
HETATM   28  H   UNK     0     -58.348 -25.504   1.919  0.00  0.00     0.217 HD
ENDBRANCH  17  27
ENDBRANCH   7   8
ENDBRANCH   5   7
BRANCH   6  29
HETATM   29  C   UNK     0     -61.146 -19.437  -1.172  0.00  0.00     0.172 C 
HETATM   30  O   UNK     0     -61.177 -18.237  -0.939  0.00  0.00    -0.648 OA
BRANCH  29  31
HETATM   31  O   UNK     0     -62.119 -20.309  -0.812  0.00  0.00    -0.774 OA
HETATM   32  H   UNK     0     -62.464 -20.811  -1.581  0.00  0.00     0.167 HD
ENDBRANCH  29  31
ENDBRANCH   6  29
BRANCH   3  33
HETATM   33  O   UNK     0     -58.262 -22.857  -4.434  0.00  0.00    -0.388 OA
HETATM   34  H   UNK     0     -57.591 -22.258  -4.806  0.00  0.00     0.210 HD
ENDBRANCH   3  33
BRANCH   4  35
HETATM   35  O   UNK     0     -59.408 -18.340  -3.331  0.00  0.00    -0.390 OA
HETATM   36  H   UNK     0     -59.899 -17.830  -3.997  0.00  0.00     0.210 HD
ENDBRANCH   4  35
BRANCH   2  37
HETATM   37  O   UNK     0     -59.119 -20.250  -5.504  0.00  0.00    -0.390 OA
HETATM   38  H   UNK     0     -59.305 -21.075  -5.984  0.00  0.00     0.210 HD
ENDBRANCH   2  37
TORSDOF 10
ENDMDL
MODEL 6
REMARK VINA RESULT:      -8.8      8.104     13.170
REMARK  10 active torsions:
REMARK  status: ('A' for Active; 'I' for Inactive)
REMARK    1  A    between atoms: O_2  and  C_15 
REMARK    2  A    between atoms: O_2  and  C_18 
REMARK    3  A    between atoms: O_3  and  C_12 
REMARK    4  A    between atoms: O_4  and  C_13 
REMARK    5  A    between atoms: O_5  and  C_14 
REMARK    6  A    between atoms: O_6  and  C_17 
REMARK    7  A    between atoms: O_9  and  C_19 
REMARK    8  A    between atoms: O_10  and  C_23 
REMARK    9  A    between atoms: C_16  and  C_17 
REMARK   10  A    between atoms: C_25  and  C_27 
ROOT
HETATM    1  O   UNK     0     -59.783 -20.181  -1.935  0.00  0.00    -0.340 OA
HETATM    2  C   UNK     0     -58.433 -19.904  -4.456  0.00  0.00     0.183 C 
HETATM    3  C   UNK     0     -58.484 -21.230  -3.696  0.00  0.00     0.205 C 
HETATM    4  C   UNK     0     -59.571 -18.974  -4.034  0.00  0.00     0.189 C 
HETATM    5  C   UNK     0     -58.645 -21.000  -2.193  0.00  0.00     0.299 C 
HETATM    6  C   UNK     0     -59.663 -18.888  -2.516  0.00  0.00     0.253 C 
ENDROOT
BRANCH   5   7
HETATM    7  O   UNK     0     -58.815 -22.272  -1.569  0.00  0.00    -0.315 OA
BRANCH   7   8
HETATM    8  C   UNK     0     -59.998 -22.911  -1.797  0.00  0.00     0.111 A 
HETATM    9  C   UNK     0     -60.851 -23.223  -0.738  0.00  0.00     0.137 A 
HETATM   10  C   UNK     0     -62.059 -23.878  -0.989  0.00  0.00     0.129 A 
HETATM   11  O   UNK     0     -62.855 -24.158   0.091  0.00  0.00    -0.306 OA
HETATM   12  C   UNK     0     -62.408 -24.217  -2.295  0.00  0.00     0.084 A 
HETATM   13  C   UNK     0     -64.063 -24.801  -0.129  0.00  0.00     0.090 A 
HETATM   14  C   UNK     0     -64.507 -25.186  -1.336  0.00  0.00     0.094 A 
HETATM   15  C   UNK     0     -63.685 -24.908  -2.531  0.00  0.00     0.190 A 
HETATM   16  O   UNK     0     -64.053 -25.237  -3.650  0.00  0.00    -0.287 OA
HETATM   17  C   UNK     0     -61.556 -23.907  -3.358  0.00  0.00     0.085 A 
HETATM   18  C   UNK     0     -60.350 -23.253  -3.104  0.00  0.00     0.077 A 
BRANCH   9  19
HETATM   19  O   UNK     0     -60.503 -22.887   0.537  0.00  0.00    -0.351 OA
HETATM   20  C   UNK     0     -59.723 -23.833   1.265  0.00  0.00     0.210 C 
ENDBRANCH   9  19
BRANCH  13  21
HETATM   21  C   UNK     0     -64.838 -25.060   1.102  0.00  0.00    -0.002 A 
HETATM   22  C   UNK     0     -64.212 -25.613   2.223  0.00  0.00     0.014 A 
HETATM   23  C   UNK     0     -64.943 -25.856   3.385  0.00  0.00     0.001 A 
HETATM   24  C   UNK     0     -66.302 -25.549   3.432  0.00  0.00     0.000 A 
HETATM   25  C   UNK     0     -66.931 -24.997   2.315  0.00  0.00     0.001 A 
HETATM   26  C   UNK     0     -66.200 -24.753   1.152  0.00  0.00     0.014 A 
ENDBRANCH  13  21
BRANCH  17  27
HETATM   27  O   UNK     0     -61.852 -24.219  -4.651  0.00  0.00    -0.360 OA
HETATM   28  H   UNK     0     -62.547 -24.892  -4.687  0.00  0.00     0.217 HD
ENDBRANCH  17  27
ENDBRANCH   7   8
ENDBRANCH   5   7
BRANCH   6  29
HETATM   29  C   UNK     0     -60.922 -18.202  -2.093  0.00  0.00     0.172 C 
HETATM   30  O   UNK     0     -61.575 -17.441  -2.793  0.00  0.00    -0.648 OA
BRANCH  29  31
HETATM   31  O   UNK     0     -61.244 -18.533  -0.820  0.00  0.00    -0.774 OA
HETATM   32  H   UNK     0     -61.726 -19.387  -0.773  0.00  0.00     0.167 HD
ENDBRANCH  29  31
ENDBRANCH   6  29
BRANCH   3  33
HETATM   33  O   UNK     0     -57.269 -21.946  -3.911  0.00  0.00    -0.388 OA
HETATM   34  H   UNK     0     -56.906 -21.662  -4.767  0.00  0.00     0.210 HD
ENDBRANCH   3  33
BRANCH   4  35
HETATM   35  O   UNK     0     -59.324 -17.668  -4.553  0.00  0.00    -0.390 OA
HETATM   36  H   UNK     0     -58.775 -17.188  -3.910  0.00  0.00     0.210 HD
ENDBRANCH   4  35
BRANCH   2  37
HETATM   37  O   UNK     0     -58.561 -20.153  -5.857  0.00  0.00    -0.390 OA
HETATM   38  H   UNK     0     -59.326 -20.739  -5.984  0.00  0.00     0.210 HD
ENDBRANCH   2  37
TORSDOF 10
ENDMDL
MODEL 7
REMARK VINA RESULT:      -8.4     12.807     17.125
REMARK  10 active torsions:
REMARK  status: ('A' for Active; 'I' for Inactive)
REMARK    1  A    between atoms: O_2  and  C_15 
REMARK    2  A    between atoms: O_2  and  C_18 
REMARK    3  A    between atoms: O_3  and  C_12 
REMARK    4  A    between atoms: O_4  and  C_13 
REMARK    5  A    between atoms: O_5  and  C_14 
REMARK    6  A    between atoms: O_6  and  C_17 
REMARK    7  A    between atoms: O_9  and  C_19 
REMARK    8  A    between atoms: O_10  and  C_23 
REMARK    9  A    between atoms: C_16  and  C_17 
REMARK   10  A    between atoms: C_25  and  C_27 
ROOT
HETATM    1  O   UNK     0     -60.104 -18.937  -3.596  0.00  0.00    -0.340 OA
HETATM    2  C   UNK     0     -60.888 -20.804  -1.558  0.00  0.00     0.183 C 
HETATM    3  C   UNK     0     -59.453 -20.714  -2.078  0.00  0.00     0.205 C 
HETATM    4  C   UNK     0     -61.657 -19.508  -1.817  0.00  0.00     0.189 C 
HETATM    5  C   UNK     0     -59.416 -20.183  -3.511  0.00  0.00     0.299 C 
HETATM    6  C   UNK     0     -61.481 -19.055  -3.260  0.00  0.00     0.253 C 
ENDROOT
BRANCH   5   7
HETATM    7  O   UNK     0     -58.049 -20.004  -3.880  0.00  0.00    -0.315 OA
BRANCH   7   8
HETATM    8  C   UNK     0     -57.775 -19.971  -5.216  0.00  0.00     0.111 A 
HETATM    9  C   UNK     0     -57.243 -21.089  -5.858  0.00  0.00     0.137 A 
HETATM   10  C   UNK     0     -56.969 -21.039  -7.226  0.00  0.00     0.129 A 
HETATM   11  O   UNK     0     -56.446 -22.168  -7.801  0.00  0.00    -0.306 OA
HETATM   12  C   UNK     0     -57.227 -19.873  -7.945  0.00  0.00     0.084 A 
HETATM   13  C   UNK     0     -56.170 -22.150  -9.160  0.00  0.00     0.090 A 
HETATM   14  C   UNK     0     -56.368 -21.088  -9.958  0.00  0.00     0.094 A 
HETATM   15  C   UNK     0     -56.927 -19.847  -9.385  0.00  0.00     0.190 A 
HETATM   16  O   UNK     0     -57.128 -18.858 -10.077  0.00  0.00    -0.287 OA
HETATM   17  C   UNK     0     -57.760 -18.752  -7.305  0.00  0.00     0.085 A 
HETATM   18  C   UNK     0     -58.033 -18.805  -5.938  0.00  0.00     0.077 A 
BRANCH   9  19
HETATM   19  O   UNK     0     -56.993 -22.227  -5.148  0.00  0.00    -0.351 OA
HETATM   20  C   UNK     0     -55.704 -22.345  -4.549  0.00  0.00     0.210 C 
ENDBRANCH   9  19
BRANCH  13  21
HETATM   21  C   UNK     0     -55.605 -23.413  -9.675  0.00  0.00    -0.002 A 
HETATM   22  C   UNK     0     -56.427 -24.529  -9.855  0.00  0.00     0.014 A 
HETATM   23  C   UNK     0     -55.894 -25.722 -10.342  0.00  0.00     0.001 A 
HETATM   24  C   UNK     0     -54.536 -25.804 -10.651  0.00  0.00     0.000 A 
HETATM   25  C   UNK     0     -53.712 -24.693 -10.472  0.00  0.00     0.001 A 
HETATM   26  C   UNK     0     -54.245 -23.499  -9.985  0.00  0.00     0.014 A 
ENDBRANCH  13  21
BRANCH  17  27
HETATM   27  O   UNK     0     -58.030 -17.590  -7.964  0.00  0.00    -0.360 OA
HETATM   28  H   UNK     0     -57.240 -17.030  -8.002  0.00  0.00     0.217 HD
ENDBRANCH  17  27
ENDBRANCH   7   8
ENDBRANCH   5   7
BRANCH   6  29
HETATM   29  C   UNK     0     -62.003 -17.668  -3.453  0.00  0.00     0.172 C 
HETATM   30  O   UNK     0     -63.050 -17.241  -2.989  0.00  0.00    -0.648 OA
BRANCH  29  31
HETATM   31  O   UNK     0     -61.157 -16.940  -4.222  0.00  0.00    -0.774 OA
HETATM   32  H   UNK     0     -60.806 -16.159  -3.743  0.00  0.00     0.167 HD
ENDBRANCH  29  31
ENDBRANCH   6  29
BRANCH   3  33
HETATM   33  O   UNK     0     -58.864 -22.013  -2.068  0.00  0.00    -0.388 OA
HETATM   34  H   UNK     0     -58.292 -22.072  -1.284  0.00  0.00     0.210 HD
ENDBRANCH   3  33
BRANCH   4  35
HETATM   35  O   UNK     0     -63.045 -19.733  -1.573  0.00  0.00    -0.390 OA
HETATM   36  H   UNK     0     -63.149 -19.999  -0.644  0.00  0.00     0.210 HD
ENDBRANCH   4  35
BRANCH   2  37
HETATM   37  O   UNK     0     -60.870 -21.034  -0.148  0.00  0.00    -0.390 OA
HETATM   38  H   UNK     0     -61.179 -20.222   0.287  0.00  0.00     0.210 HD
ENDBRANCH   2  37
TORSDOF 10
ENDMDL
MODEL 8
REMARK VINA RESULT:      -8.4      6.214      9.725
REMARK  10 active torsions:
REMARK  status: ('A' for Active; 'I' for Inactive)
REMARK    1  A    between atoms: O_2  and  C_15 
REMARK    2  A    between atoms: O_2  and  C_18 
REMARK    3  A    between atoms: O_3  and  C_12 
REMARK    4  A    between atoms: O_4  and  C_13 
REMARK    5  A    between atoms: O_5  and  C_14 
REMARK    6  A    between atoms: O_6  and  C_17 
REMARK    7  A    between atoms: O_9  and  C_19 
REMARK    8  A    between atoms: O_10  and  C_23 
REMARK    9  A    between atoms: C_16  and  C_17 
REMARK   10  A    between atoms: C_25  and  C_27 
ROOT
HETATM    1  O   UNK     0     -68.710 -26.798   1.049  0.00  0.00    -0.340 OA
HETATM    2  C   UNK     0     -70.372 -25.069  -0.533  0.00  0.00     0.183 C 
HETATM    3  C   UNK     0     -68.987 -25.521  -0.996  0.00  0.00     0.205 C 
HETATM    4  C   UNK     0     -70.950 -26.023   0.513  0.00  0.00     0.189 C 
HETATM    5  C   UNK     0     -68.083 -25.844   0.195  0.00  0.00     0.299 C 
HETATM    6  C   UNK     0     -69.927 -26.313   1.604  0.00  0.00     0.253 C 
ENDROOT
BRANCH   5   7
HETATM    7  O   UNK     0     -66.862 -26.379  -0.311  0.00  0.00    -0.315 OA
BRANCH   7   8
HETATM    8  C   UNK     0     -65.750 -26.198   0.459  0.00  0.00     0.111 A 
HETATM    9  C   UNK     0     -64.723 -25.354   0.034  0.00  0.00     0.137 A 
HETATM   10  C   UNK     0     -63.592 -25.180   0.833  0.00  0.00     0.129 A 
HETATM   11  O   UNK     0     -62.617 -24.339   0.362  0.00  0.00    -0.306 OA
HETATM   12  C   UNK     0     -63.492 -25.847   2.052  0.00  0.00     0.084 A 
HETATM   13  C   UNK     0     -61.485 -24.141   1.138  0.00  0.00     0.090 A 
HETATM   14  C   UNK     0     -61.268 -24.731   2.325  0.00  0.00     0.094 A 
HETATM   15  C   UNK     0     -62.289 -25.647   2.874  0.00  0.00     0.190 A 
HETATM   16  O   UNK     0     -62.134 -26.202   3.954  0.00  0.00    -0.287 OA
HETATM   17  C   UNK     0     -64.518 -26.692   2.482  0.00  0.00     0.085 A 
HETATM   18  C   UNK     0     -65.647 -26.865   1.680  0.00  0.00     0.077 A 
BRANCH   9  19
HETATM   19  O   UNK     0     -64.828 -24.704  -1.161  0.00  0.00    -0.351 OA
HETATM   20  C   UNK     0     -64.216 -25.322  -2.290  0.00  0.00     0.210 C 
ENDBRANCH   9  19
BRANCH  13  21
HETATM   21  C   UNK     0     -60.497 -23.224   0.535  0.00  0.00    -0.002 A 
HETATM   22  C   UNK     0     -59.797 -22.319   1.338  0.00  0.00     0.014 A 
HETATM   23  C   UNK     0     -58.862 -21.455   0.768  0.00  0.00     0.001 A 
HETATM   24  C   UNK     0     -58.624 -21.491  -0.605  0.00  0.00     0.000 A 
HETATM   25  C   UNK     0     -59.321 -22.392  -1.410  0.00  0.00     0.001 A 
HETATM   26  C   UNK     0     -60.256 -23.258  -0.841  0.00  0.00     0.014 A 
ENDBRANCH  13  21
BRANCH  17  27
HETATM   27  O   UNK     0     -64.467 -27.367   3.664  0.00  0.00    -0.360 OA
HETATM   28  H   UNK     0     -64.485 -28.323   3.511  0.00  0.00     0.217 HD
ENDBRANCH  17  27
ENDBRANCH   7   8
ENDBRANCH   5   7
BRANCH   6  29
HETATM   29  C   UNK     0     -70.380 -27.437   2.478  0.00  0.00     0.172 C 
HETATM   30  O   UNK     0     -71.013 -27.307   3.516  0.00  0.00    -0.648 OA
BRANCH  29  31
HETATM   31  O   UNK     0     -69.990 -28.629   1.967  0.00  0.00    -0.774 OA
HETATM   32  H   UNK     0     -69.108 -28.901   2.300  0.00  0.00     0.167 HD
ENDBRANCH  29  31
ENDBRANCH   6  29
BRANCH   3  33
HETATM   33  O   UNK     0     -68.375 -24.476  -1.750  0.00  0.00    -0.388 OA
HETATM   34  H   UNK     0     -67.623 -24.141  -1.234  0.00  0.00     0.210 HD
ENDBRANCH   3  33
BRANCH   4  35
HETATM   35  O   UNK     0     -72.098 -25.422   1.110  0.00  0.00    -0.390 OA
HETATM   36  H   UNK     0     -71.964 -24.459   1.119  0.00  0.00     0.210 HD
ENDBRANCH   4  35
BRANCH   2  37
HETATM   37  O   UNK     0     -71.263 -25.045  -1.650  0.00  0.00    -0.390 OA
HETATM   38  H   UNK     0     -72.130 -24.746  -1.330  0.00  0.00     0.210 HD
ENDBRANCH   2  37
TORSDOF 10
ENDMDL
MODEL 9
REMARK VINA RESULT:      -8.3     12.670     16.846
REMARK  10 active torsions:
REMARK  status: ('A' for Active; 'I' for Inactive)
REMARK    1  A    between atoms: O_2  and  C_15 
REMARK    2  A    between atoms: O_2  and  C_18 
REMARK    3  A    between atoms: O_3  and  C_12 
REMARK    4  A    between atoms: O_4  and  C_13 
REMARK    5  A    between atoms: O_5  and  C_14 
REMARK    6  A    between atoms: O_6  and  C_17 
REMARK    7  A    between atoms: O_9  and  C_19 
REMARK    8  A    between atoms: O_10  and  C_23 
REMARK    9  A    between atoms: C_16  and  C_17 
REMARK   10  A    between atoms: C_25  and  C_27 
ROOT
HETATM    1  O   UNK     0     -59.311 -21.501  -3.967  0.00  0.00    -0.340 OA
HETATM    2  C   UNK     0     -61.210 -19.471  -3.240  0.00  0.00     0.183 C 
HETATM    3  C   UNK     0     -59.774 -19.140  -3.648  0.00  0.00     0.205 C 
HETATM    4  C   UNK     0     -61.641 -20.837  -3.774  0.00  0.00     0.189 C 
HETATM    5  C   UNK     0     -58.832 -20.308  -3.351  0.00  0.00     0.299 C 
HETATM    6  C   UNK     0     -60.585 -21.893  -3.471  0.00  0.00     0.253 C 
ENDROOT
BRANCH   5   7
HETATM    7  O   UNK     0     -57.545 -19.979  -3.873  0.00  0.00    -0.315 OA
BRANCH   7   8
HETATM    8  C   UNK     0     -57.413 -19.998  -5.231  0.00  0.00     0.111 A 
HETATM    9  C   UNK     0     -57.006 -21.160  -5.887  0.00  0.00     0.137 A 
HETATM   10  C   UNK     0     -56.876 -21.162  -7.277  0.00  0.00     0.129 A 
HETATM   11  O   UNK     0     -56.472 -22.333  -7.866  0.00  0.00    -0.306 OA
HETATM   12  C   UNK     0     -57.154 -20.006  -8.004  0.00  0.00     0.084 A 
HETATM   13  C   UNK     0     -56.342 -22.367  -9.245  0.00  0.00     0.090 A 
HETATM   14  C   UNK     0     -56.572 -21.320 -10.053  0.00  0.00     0.094 A 
HETATM   15  C   UNK     0     -57.007 -20.036  -9.467  0.00  0.00     0.190 A 
HETATM   16  O   UNK     0     -57.232 -19.058 -10.167  0.00  0.00    -0.287 OA
HETATM   17  C   UNK     0     -57.562 -18.841  -7.350  0.00  0.00     0.085 A 
HETATM   18  C   UNK     0     -57.690 -18.842  -5.961  0.00  0.00     0.077 A 
BRANCH   9  19
HETATM   19  O   UNK     0     -56.737 -22.288  -5.169  0.00  0.00    -0.351 OA
HETATM   20  C   UNK     0     -55.419 -22.419  -4.640  0.00  0.00     0.210 C 
ENDBRANCH   9  19
BRANCH  13  21
HETATM   21  C   UNK     0     -55.895 -23.672  -9.774  0.00  0.00    -0.002 A 
HETATM   22  C   UNK     0     -56.828 -24.581 -10.279  0.00  0.00     0.014 A 
HETATM   23  C   UNK     0     -56.406 -25.813 -10.780  0.00  0.00     0.001 A 
HETATM   24  C   UNK     0     -55.051 -26.141 -10.776  0.00  0.00     0.000 A 
HETATM   25  C   UNK     0     -54.116 -25.236 -10.271  0.00  0.00     0.001 A 
HETATM   26  C   UNK     0     -54.538 -24.003  -9.771  0.00  0.00     0.014 A 
ENDBRANCH  13  21
BRANCH  17  27
HETATM   27  O   UNK     0     -57.843 -17.686  -8.016  0.00  0.00    -0.360 OA
HETATM   28  H   UNK     0     -57.081 -17.090  -7.998  0.00  0.00     0.217 HD
ENDBRANCH  17  27
ENDBRANCH   7   8
ENDBRANCH   5   7
BRANCH   6  29
HETATM   29  C   UNK     0     -60.868 -23.161  -4.209  0.00  0.00     0.172 C 
HETATM   30  O   UNK     0     -61.892 -23.821  -4.104  0.00  0.00    -0.648 OA
BRANCH  29  31
HETATM   31  O   UNK     0     -59.829 -23.488  -5.015  0.00  0.00    -0.774 OA
HETATM   32  H   UNK     0     -59.503 -24.397  -4.843  0.00  0.00     0.167 HD
ENDBRANCH  29  31
ENDBRANCH   6  29
BRANCH   3  33
HETATM   33  O   UNK     0     -59.323 -18.004  -2.913  0.00  0.00    -0.388 OA
HETATM   34  H   UNK     0     -59.026 -18.315  -2.041  0.00  0.00     0.210 HD
ENDBRANCH   3  33
BRANCH   4  35
HETATM   35  O   UNK     0     -62.864 -21.219  -3.146  0.00  0.00    -0.390 OA
HETATM   36  H   UNK     0     -63.245 -21.957  -3.651  0.00  0.00     0.210 HD
ENDBRANCH   4  35
BRANCH   2  37
HETATM   37  O   UNK     0     -62.096 -18.487  -3.778  0.00  0.00    -0.390 OA
HETATM   38  H   UNK     0     -62.770 -18.951  -4.302  0.00  0.00     0.210 HD
ENDBRANCH   2  37
TORSDOF 10
ENDMDL
MODEL 10
REMARK VINA RESULT:      -8.3      6.562     11.144
REMARK  10 active torsions:
REMARK  status: ('A' for Active; 'I' for Inactive)
REMARK    1  A    between atoms: O_2  and  C_15 
REMARK    2  A    between atoms: O_2  and  C_18 
REMARK    3  A    between atoms: O_3  and  C_12 
REMARK    4  A    between atoms: O_4  and  C_13 
REMARK    5  A    between atoms: O_5  and  C_14 
REMARK    6  A    between atoms: O_6  and  C_17 
REMARK    7  A    between atoms: O_9  and  C_19 
REMARK    8  A    between atoms: O_10  and  C_23 
REMARK    9  A    between atoms: C_16  and  C_17 
REMARK   10  A    between atoms: C_25  and  C_27 
ROOT
HETATM    1  O   UNK     0     -61.623 -21.617  -1.450  0.00  0.00    -0.340 OA
HETATM    2  C   UNK     0     -59.043 -20.442  -0.980  0.00  0.00     0.183 C 
HETATM    3  C   UNK     0     -59.267 -21.954  -0.971  0.00  0.00     0.205 C 
HETATM    4  C   UNK     0     -60.137 -19.720  -1.767  0.00  0.00     0.189 C 
HETATM    5  C   UNK     0     -60.709 -22.298  -0.592  0.00  0.00     0.299 C 
HETATM    6  C   UNK     0     -61.518 -20.203  -1.339  0.00  0.00     0.253 C 
ENDROOT
BRANCH   5   7
HETATM    7  O   UNK     0     -60.877 -23.708  -0.731  0.00  0.00    -0.315 OA
BRANCH   7   8
HETATM    8  C   UNK     0     -61.715 -24.314   0.157  0.00  0.00     0.111 A 
HETATM    9  C   UNK     0     -63.027 -24.624  -0.204  0.00  0.00     0.137 A 
HETATM   10  C   UNK     0     -63.872 -25.245   0.717  0.00  0.00     0.129 A 
HETATM   11  O   UNK     0     -65.150 -25.524   0.304  0.00  0.00    -0.306 OA
HETATM   12  C   UNK     0     -63.405 -25.553   1.993  0.00  0.00     0.084 A 
HETATM   13  C   UNK     0     -66.010 -26.147   1.195  0.00  0.00     0.090 A 
HETATM   14  C   UNK     0     -65.681 -26.488   2.452  0.00  0.00     0.094 A 
HETATM   15  C   UNK     0     -64.317 -26.206   2.944  0.00  0.00     0.190 A 
HETATM   16  O   UNK     0     -63.975 -26.504   4.080  0.00  0.00    -0.287 OA
HETATM   17  C   UNK     0     -62.093 -25.245   2.358  0.00  0.00     0.085 A 
HETATM   18  C   UNK     0     -61.250 -24.624   1.436  0.00  0.00     0.077 A 
BRANCH   9  19
HETATM   19  O   UNK     0     -63.478 -24.319  -1.456  0.00  0.00    -0.351 OA
HETATM   20  C   UNK     0     -63.210 -25.266  -2.487  0.00  0.00     0.210 C 
ENDBRANCH   9  19
BRANCH  13  21
HETATM   21  C   UNK     0     -67.361 -26.395   0.652  0.00  0.00    -0.002 A 
HETATM   22  C   UNK     0     -68.454 -25.669   1.131  0.00  0.00     0.014 A 
HETATM   23  C   UNK     0     -69.730 -25.902   0.617  0.00  0.00     0.001 A 
HETATM   24  C   UNK     0     -69.917 -26.862  -0.377  0.00  0.00     0.000 A 
HETATM   25  C   UNK     0     -68.828 -27.590  -0.857  0.00  0.00     0.001 A 
HETATM   26  C   UNK     0     -67.552 -27.356  -0.344  0.00  0.00     0.014 A 
ENDBRANCH  13  21
BRANCH  17  27
HETATM   27  O   UNK     0     -61.589 -25.525   3.593  0.00  0.00    -0.360 OA
HETATM   28  H   UNK     0     -61.109 -24.762   3.945  0.00  0.00     0.217 HD
ENDBRANCH  17  27
ENDBRANCH   7   8
ENDBRANCH   5   7
BRANCH   6  29
HETATM   29  C   UNK     0     -62.572 -19.706  -2.274  0.00  0.00     0.172 C 
HETATM   30  O   UNK     0     -62.781 -18.529  -2.534  0.00  0.00    -0.648 OA
BRANCH  29  31
HETATM   31  O   UNK     0     -63.276 -20.738  -2.797  0.00  0.00    -0.774 OA
HETATM   32  H   UNK     0     -63.504 -21.408  -2.118  0.00  0.00     0.167 HD
ENDBRANCH  29  31
ENDBRANCH   6  29
BRANCH   3  33
HETATM   33  O   UNK     0     -58.398 -22.557  -0.014  0.00  0.00    -0.388 OA
HETATM   34  H   UNK     0     -58.409 -22.003   0.785  0.00  0.00     0.210 HD
ENDBRANCH   3  33
BRANCH   4  35
HETATM   35  O   UNK     0     -60.045 -18.319  -1.516  0.00  0.00    -0.390 OA
HETATM   36  H   UNK     0     -60.268 -18.164  -0.583  0.00  0.00     0.210 HD
ENDBRANCH   4  35
BRANCH   2  37
HETATM   37  O   UNK     0     -57.789 -20.151  -1.598  0.00  0.00    -0.390 OA
HETATM   38  H   UNK     0     -57.492 -20.953  -2.059  0.00  0.00     0.210 HD
ENDBRANCH   2  37
TORSDOF 10
ENDMDL
