MODEL 1
REMARK VINA RESULT:      -7.6      0.000      0.000
REMARK  4 active torsions:
REMARK  status: ('A' for Active; 'I' for Inactive)
REMARK    1  A    between atoms: O_2  and  C_9 
REMARK    2  A    between atoms: O_3  and  C_11 
REMARK    3  A    between atoms: O_4  and  C_14 
REMARK    4  A    between atoms: C_8  and  C_13 
ROOT
HETATM    1  O   UNK     0     -60.881 -22.804   0.452  0.00  0.00    -0.306 OA
HETATM    2  O   UNK     0     -61.034 -25.691  -2.419  0.00  0.00    -0.287 OA
HETATM    3  C   UNK     0     -60.997 -25.163  -0.116  0.00  0.00     0.084 A 
HETATM    4  C   UNK     0     -60.943 -24.127   0.814  0.00  0.00     0.129 A 
HETATM    5  C   UNK     0     -60.862 -22.490  -0.898  0.00  0.00     0.090 A 
HETATM    6  C   UNK     0     -60.954 -24.413   2.179  0.00  0.00     0.136 A 
HETATM    7  C   UNK     0     -60.987 -24.833  -1.549  0.00  0.00     0.190 A 
HETATM    8  C   UNK     0     -61.060 -26.492   0.310  0.00  0.00     0.085 A 
HETATM    9  C   UNK     0     -60.916 -23.396  -1.886  0.00  0.00     0.094 A 
HETATM   10  C   UNK     0     -61.017 -25.739   2.610  0.00  0.00     0.104 A 
HETATM   11  C   UNK     0     -61.070 -26.776   1.677  0.00  0.00     0.077 A 
ENDROOT
BRANCH   5  12
HETATM   12  C   UNK     0     -60.799 -21.040  -1.176  0.00  0.00    -0.002 A 
HETATM   13  C   UNK     0     -59.569 -20.423  -1.412  0.00  0.00     0.014 A 
HETATM   14  C   UNK     0     -59.509 -19.055  -1.674  0.00  0.00     0.001 A 
HETATM   15  C   UNK     0     -60.680 -18.299  -1.702  0.00  0.00     0.000 A 
HETATM   16  C   UNK     0     -61.911 -18.910  -1.467  0.00  0.00     0.001 A 
HETATM   17  C   UNK     0     -61.971 -20.279  -1.204  0.00  0.00     0.014 A 
ENDBRANCH   5  12
BRANCH   6  18
HETATM   18  O   UNK     0     -60.903 -23.404   3.095  0.00  0.00    -0.351 OA
HETATM   19  C   UNK     0     -59.608 -22.969   3.506  0.00  0.00     0.210 C 
ENDBRANCH   6  18
BRANCH   8  20
HETATM   20  O   UNK     0     -61.115 -27.539  -0.559  0.00  0.00    -0.360 OA
HETATM   21  H   UNK     0     -60.697 -28.323  -0.173  0.00  0.00     0.217 HD
ENDBRANCH   8  20
BRANCH  10  22
HETATM   22  O   UNK     0     -61.027 -26.035   3.939  0.00  0.00    -0.358 OA
HETATM   23  H   UNK     0     -61.032 -27.002   4.048  0.00  0.00     0.217 HD
ENDBRANCH  10  22
TORSDOF 4
ENDMDL
MODEL 2
REMARK VINA RESULT:      -7.6      3.469      7.370
REMARK  4 active torsions:
REMARK  status: ('A' for Active; 'I' for Inactive)
REMARK    1  A    between atoms: O_2  and  C_9 
REMARK    2  A    between atoms: O_3  and  C_11 
REMARK    3  A    between atoms: O_4  and  C_14 
REMARK    4  A    between atoms: C_8  and  C_13 
ROOT
HETATM    1  O   UNK     0     -58.358 -21.587  -1.670  0.00  0.00    -0.306 OA
HETATM    2  O   UNK     0     -61.568 -19.318  -0.600  0.00  0.00    -0.287 OA
HETATM    3  C   UNK     0     -59.660 -19.559  -1.973  0.00  0.00     0.084 A 
HETATM    4  C   UNK     0     -58.583 -20.384  -2.291  0.00  0.00     0.129 A 
HETATM    5  C   UNK     0     -59.238 -21.992  -0.678  0.00  0.00     0.090 A 
HETATM    6  C   UNK     0     -57.678 -20.000  -3.281  0.00  0.00     0.136 A 
HETATM    7  C   UNK     0     -60.600 -19.990  -0.928  0.00  0.00     0.190 A 
HETATM    8  C   UNK     0     -59.841 -18.345  -2.639  0.00  0.00     0.085 A 
HETATM    9  C   UNK     0     -60.313 -21.290  -0.288  0.00  0.00     0.094 A 
HETATM   10  C   UNK     0     -57.854 -18.788  -3.949  0.00  0.00     0.104 A 
HETATM   11  C   UNK     0     -58.933 -17.962  -3.629  0.00  0.00     0.077 A 
ENDROOT
BRANCH   5  12
HETATM   12  C   UNK     0     -58.906 -23.302  -0.080  0.00  0.00    -0.002 A 
HETATM   13  C   UNK     0     -59.333 -23.612   1.213  0.00  0.00     0.014 A 
HETATM   14  C   UNK     0     -59.020 -24.848   1.777  0.00  0.00     0.001 A 
HETATM   15  C   UNK     0     -58.280 -25.779   1.050  0.00  0.00     0.000 A 
HETATM   16  C   UNK     0     -57.851 -25.474  -0.242  0.00  0.00     0.001 A 
HETATM   17  C   UNK     0     -58.164 -24.237  -0.806  0.00  0.00     0.014 A 
ENDBRANCH   5  12
BRANCH   6  18
HETATM   18  O   UNK     0     -56.622 -20.802  -3.598  0.00  0.00    -0.351 OA
HETATM   19  C   UNK     0     -56.833 -21.778  -4.617  0.00  0.00     0.210 C 
ENDBRANCH   6  18
BRANCH   8  20
HETATM   20  O   UNK     0     -60.877 -17.505  -2.366  0.00  0.00    -0.360 OA
HETATM   21  H   UNK     0     -60.658 -16.598  -2.628  0.00  0.00     0.217 HD
ENDBRANCH   8  20
BRANCH  10  22
HETATM   22  O   UNK     0     -56.979 -18.397  -4.917  0.00  0.00    -0.358 OA
HETATM   23  H   UNK     0     -57.328 -18.662  -5.786  0.00  0.00     0.217 HD
ENDBRANCH  10  22
TORSDOF 4
ENDMDL
MODEL 3
REMARK VINA RESULT:      -7.5      2.552      6.572
REMARK  4 active torsions:
REMARK  status: ('A' for Active; 'I' for Inactive)
REMARK    1  A    between atoms: O_2  and  C_9 
REMARK    2  A    between atoms: O_3  and  C_11 
REMARK    3  A    between atoms: O_4  and  C_14 
REMARK    4  A    between atoms: C_8  and  C_13 
ROOT
HETATM    1  O   UNK     0     -60.236 -23.943  -0.844  0.00  0.00    -0.306 OA
HETATM    2  O   UNK     0     -58.042 -20.744   0.402  0.00  0.00    -0.287 OA
HETATM    3  C   UNK     0     -59.922 -21.535  -0.792  0.00  0.00     0.084 A 
HETATM    4  C   UNK     0     -60.626 -22.672  -1.184  0.00  0.00     0.129 A 
HETATM    5  C   UNK     0     -59.086 -24.100  -0.085  0.00  0.00     0.090 A 
HETATM    6  C   UNK     0     -61.783 -22.546  -1.953  0.00  0.00     0.136 A 
HETATM    7  C   UNK     0     -58.707 -21.697   0.021  0.00  0.00     0.190 A 
HETATM    8  C   UNK     0     -60.366 -20.265  -1.166  0.00  0.00     0.085 A 
HETATM    9  C   UNK     0     -58.328 -23.085   0.357  0.00  0.00     0.094 A 
HETATM   10  C   UNK     0     -62.231 -21.279  -2.330  0.00  0.00     0.104 A 
HETATM   11  C   UNK     0     -61.523 -20.141  -1.937  0.00  0.00     0.077 A 
ENDROOT
BRANCH   5  12
HETATM   12  C   UNK     0     -58.761 -25.507   0.228  0.00  0.00    -0.002 A 
HETATM   13  C   UNK     0     -58.923 -26.497  -0.744  0.00  0.00     0.014 A 
HETATM   14  C   UNK     0     -58.616 -27.825  -0.450  0.00  0.00     0.001 A 
HETATM   15  C   UNK     0     -58.145 -28.167   0.818  0.00  0.00     0.000 A 
HETATM   16  C   UNK     0     -57.981 -27.182   1.791  0.00  0.00     0.001 A 
HETATM   17  C   UNK     0     -58.289 -25.853   1.496  0.00  0.00     0.014 A 
ENDBRANCH   5  12
BRANCH   6  18
HETATM   18  O   UNK     0     -62.478 -23.653  -2.340  0.00  0.00    -0.351 OA
HETATM   19  C   UNK     0     -62.000 -24.347  -3.491  0.00  0.00     0.210 C 
ENDBRANCH   6  18
BRANCH   8  20
HETATM   20  O   UNK     0     -59.714 -19.125  -0.808  0.00  0.00    -0.360 OA
HETATM   21  H   UNK     0     -59.243 -19.250   0.029  0.00  0.00     0.217 HD
ENDBRANCH   8  20
BRANCH  10  22
HETATM   22  O   UNK     0     -63.357 -21.138  -3.082  0.00  0.00    -0.358 OA
HETATM   23  H   UNK     0     -63.115 -20.777  -3.952  0.00  0.00     0.217 HD
ENDBRANCH  10  22
TORSDOF 4
ENDMDL
MODEL 4
REMARK VINA RESULT:      -7.5      1.628      3.687
REMARK  4 active torsions:
REMARK  status: ('A' for Active; 'I' for Inactive)
REMARK    1  A    between atoms: O_2  and  C_9 
REMARK    2  A    between atoms: O_3  and  C_11 
REMARK    3  A    between atoms: O_4  and  C_14 
REMARK    4  A    between atoms: C_8  and  C_13 
ROOT
HETATM    1  O   UNK     0     -61.566 -22.080  -1.262  0.00  0.00    -0.306 OA
HETATM    2  O   UNK     0     -58.922 -21.575   1.797  0.00  0.00    -0.287 OA
HETATM    3  C   UNK     0     -60.227 -23.066   0.509  0.00  0.00     0.084 A 
HETATM    4  C   UNK     0     -61.129 -23.168  -0.549  0.00  0.00     0.129 A 
HETATM    5  C   UNK     0     -61.093 -20.825  -0.907  0.00  0.00     0.090 A 
HETATM    6  C   UNK     0     -61.626 -24.416  -0.925  0.00  0.00     0.136 A 
HETATM    7  C   UNK     0     -59.717 -21.738   0.881  0.00  0.00     0.190 A 
HETATM    8  C   UNK     0     -59.816 -24.208   1.199  0.00  0.00     0.085 A 
HETATM    9  C   UNK     0     -60.219 -20.600   0.085  0.00  0.00     0.094 A 
HETATM   10  C   UNK     0     -61.218 -25.560  -0.237  0.00  0.00     0.104 A 
HETATM   11  C   UNK     0     -60.315 -25.456   0.822  0.00  0.00     0.077 A 
ENDROOT
BRANCH   5  12
HETATM   12  C   UNK     0     -61.622 -19.727  -1.742  0.00  0.00    -0.002 A 
HETATM   13  C   UNK     0     -62.576 -19.991  -2.727  0.00  0.00     0.014 A 
HETATM   14  C   UNK     0     -63.077 -18.955  -3.515  0.00  0.00     0.001 A 
HETATM   15  C   UNK     0     -62.624 -17.650  -3.320  0.00  0.00     0.000 A 
HETATM   16  C   UNK     0     -61.672 -17.382  -2.337  0.00  0.00     0.001 A 
HETATM   17  C   UNK     0     -61.171 -18.419  -1.549  0.00  0.00     0.014 A 
ENDBRANCH   5  12
BRANCH   6  18
HETATM   18  O   UNK     0     -62.508 -24.524  -1.959  0.00  0.00    -0.351 OA
HETATM   19  C   UNK     0     -61.958 -24.701  -3.263  0.00  0.00     0.210 C 
ENDBRANCH   6  18
BRANCH   8  20
HETATM   20  O   UNK     0     -58.937 -24.161   2.238  0.00  0.00    -0.360 OA
HETATM   21  H   UNK     0     -58.191 -23.581   2.027  0.00  0.00     0.217 HD
ENDBRANCH   8  20
BRANCH  10  22
HETATM   22  O   UNK     0     -61.695 -26.786  -0.591  0.00  0.00    -0.358 OA
HETATM   23  H   UNK     0     -62.011 -26.751  -1.510  0.00  0.00     0.217 HD
ENDBRANCH  10  22
TORSDOF 4
ENDMDL
MODEL 5
REMARK VINA RESULT:      -7.5      3.093      7.081
REMARK  4 active torsions:
REMARK  status: ('A' for Active; 'I' for Inactive)
REMARK    1  A    between atoms: O_2  and  C_9 
REMARK    2  A    between atoms: O_3  and  C_11 
REMARK    3  A    between atoms: O_4  and  C_14 
REMARK    4  A    between atoms: C_8  and  C_13 
ROOT
HETATM    1  O   UNK     0     -59.068 -23.476  -1.599  0.00  0.00    -0.306 OA
HETATM    2  O   UNK     0     -58.179 -20.448   0.977  0.00  0.00    -0.287 OA
HETATM    3  C   UNK     0     -58.861 -21.090  -1.192  0.00  0.00     0.084 A 
HETATM    4  C   UNK     0     -59.152 -22.173  -2.020  0.00  0.00     0.129 A 
HETATM    5  C   UNK     0     -58.668 -23.724  -0.294  0.00  0.00     0.090 A 
HETATM    6  C   UNK     0     -59.550 -21.955  -3.340  0.00  0.00     0.136 A 
HETATM    7  C   UNK     0     -58.447 -21.349   0.195  0.00  0.00     0.190 A 
HETATM    8  C   UNK     0     -58.965 -19.784  -1.675  0.00  0.00     0.085 A 
HETATM    9  C   UNK     0     -58.369 -22.768   0.598  0.00  0.00     0.094 A 
HETATM   10  C   UNK     0     -59.655 -20.651  -3.826  0.00  0.00     0.104 A 
HETATM   11  C   UNK     0     -59.363 -19.568  -2.995  0.00  0.00     0.077 A 
ENDROOT
BRANCH   5  12
HETATM   12  C   UNK     0     -58.617 -25.158   0.055  0.00  0.00    -0.002 A 
HETATM   13  C   UNK     0     -58.984 -26.123  -0.885  0.00  0.00     0.014 A 
HETATM   14  C   UNK     0     -58.935 -27.477  -0.556  0.00  0.00     0.001 A 
HETATM   15  C   UNK     0     -58.518 -27.871   0.716  0.00  0.00     0.000 A 
HETATM   16  C   UNK     0     -58.150 -26.911   1.658  0.00  0.00     0.001 A 
HETATM   17  C   UNK     0     -58.199 -25.556   1.328  0.00  0.00     0.014 A 
ENDBRANCH   5  12
BRANCH   6  18
HETATM   18  O   UNK     0     -59.837 -23.009  -4.156  0.00  0.00    -0.351 OA
HETATM   19  C   UNK     0     -61.188 -23.466  -4.173  0.00  0.00     0.210 C 
ENDBRANCH   6  18
BRANCH   8  20
HETATM   20  O   UNK     0     -58.694 -18.694  -0.905  0.00  0.00    -0.360 OA
HETATM   21  H   UNK     0     -57.808 -18.762  -0.519  0.00  0.00     0.217 HD
ENDBRANCH   8  20
BRANCH  10  22
HETATM   22  O   UNK     0     -60.041 -20.422  -5.112  0.00  0.00    -0.358 OA
HETATM   23  H   UNK     0     -59.575 -19.636  -5.448  0.00  0.00     0.217 HD
ENDBRANCH  10  22
TORSDOF 4
ENDMDL
MODEL 6
REMARK VINA RESULT:      -7.4     18.995     21.363
REMARK  4 active torsions:
REMARK  status: ('A' for Active; 'I' for Inactive)
REMARK    1  A    between atoms: O_2  and  C_9 
REMARK    2  A    between atoms: O_3  and  C_11 
REMARK    3  A    between atoms: O_4  and  C_14 
REMARK    4  A    between atoms: C_8  and  C_13 
ROOT
HETATM    1  O   UNK     0     -69.827 -11.215  13.947  0.00  0.00    -0.306 OA
HETATM    2  O   UNK     0     -67.058  -8.336  14.749  0.00  0.00    -0.287 OA
HETATM    3  C   UNK     0     -67.921  -9.904  13.206  0.00  0.00     0.084 A 
HETATM    4  C   UNK     0     -68.895 -10.878  12.997  0.00  0.00     0.129 A 
HETATM    5  C   UNK     0     -69.788 -10.563  15.170  0.00  0.00     0.090 A 
HETATM    6  C   UNK     0     -68.955 -11.555  11.779  0.00  0.00     0.136 A 
HETATM    7  C   UNK     0     -67.883  -9.203  14.498  0.00  0.00     0.190 A 
HETATM    8  C   UNK     0     -66.999  -9.600  12.202  0.00  0.00     0.085 A 
HETATM    9  C   UNK     0     -68.904  -9.604  15.487  0.00  0.00     0.094 A 
HETATM   10  C   UNK     0     -68.035 -11.256  10.773  0.00  0.00     0.104 A 
HETATM   11  C   UNK     0     -67.059 -10.280  10.984  0.00  0.00     0.077 A 
ENDROOT
BRANCH   5  12
HETATM   12  C   UNK     0     -70.836 -10.998  16.115  0.00  0.00    -0.002 A 
HETATM   13  C   UNK     0     -71.086 -10.261  17.275  0.00  0.00     0.014 A 
HETATM   14  C   UNK     0     -72.075 -10.671  18.168  0.00  0.00     0.001 A 
HETATM   15  C   UNK     0     -72.820 -11.820  17.902  0.00  0.00     0.000 A 
HETATM   16  C   UNK     0     -72.575 -12.559  16.745  0.00  0.00     0.001 A 
HETATM   17  C   UNK     0     -71.584 -12.149  15.853  0.00  0.00     0.014 A 
ENDBRANCH   5  12
BRANCH   6  18
HETATM   18  O   UNK     0     -69.906 -12.509  11.566  0.00  0.00    -0.351 OA
HETATM   19  C   UNK     0     -71.092 -12.101  10.887  0.00  0.00     0.210 C 
ENDBRANCH   6  18
BRANCH   8  20
HETATM   20  O   UNK     0     -66.029  -8.657  12.357  0.00  0.00    -0.360 OA
HETATM   21  H   UNK     0     -65.178  -8.988  12.033  0.00  0.00     0.217 HD
ENDBRANCH   8  20
BRANCH  10  22
HETATM   22  O   UNK     0     -68.079 -11.909   9.579  0.00  0.00    -0.358 OA
HETATM   23  H   UNK     0     -68.578 -11.370   8.940  0.00  0.00     0.217 HD
ENDBRANCH  10  22
TORSDOF 4
ENDMDL
MODEL 7
REMARK VINA RESULT:      -7.3      1.684      2.270
REMARK  4 active torsions:
REMARK  status: ('A' for Active; 'I' for Inactive)
REMARK    1  A    between atoms: O_2  and  C_9 
REMARK    2  A    between atoms: O_3  and  C_11 
REMARK    3  A    between atoms: O_4  and  C_14 
REMARK    4  A    between atoms: C_8  and  C_13 
ROOT
HETATM    1  O   UNK     0     -61.051 -21.434  -0.837  0.00  0.00    -0.306 OA
HETATM    2  O   UNK     0     -62.688 -24.533  -2.915  0.00  0.00    -0.287 OA
HETATM    3  C   UNK     0     -61.380 -23.829  -1.077  0.00  0.00     0.084 A 
HETATM    4  C   UNK     0     -60.850 -22.724  -0.413  0.00  0.00     0.129 A 
HETATM    5  C   UNK     0     -61.806 -21.226  -1.981  0.00  0.00     0.090 A 
HETATM    6  C   UNK     0     -60.081 -22.904   0.737  0.00  0.00     0.136 A 
HETATM    7  C   UNK     0     -62.190 -23.611  -2.284  0.00  0.00     0.190 A 
HETATM    8  C   UNK     0     -61.145 -25.120  -0.599  0.00  0.00     0.085 A 
HETATM    9  C   UNK     0     -62.373 -22.205  -2.701  0.00  0.00     0.094 A 
HETATM   10  C   UNK     0     -59.843 -24.192   1.218  0.00  0.00     0.104 A 
HETATM   11  C   UNK     0     -60.374 -25.298   0.552  0.00  0.00     0.077 A 
ENDROOT
BRANCH   5  12
HETATM   12  C   UNK     0     -61.963 -19.802  -2.344  0.00  0.00    -0.002 A 
HETATM   13  C   UNK     0     -61.261 -18.818  -1.646  0.00  0.00     0.014 A 
HETATM   14  C   UNK     0     -61.408 -17.475  -1.989  0.00  0.00     0.001 A 
HETATM   15  C   UNK     0     -62.258 -17.111  -3.033  0.00  0.00     0.000 A 
HETATM   16  C   UNK     0     -62.961 -18.090  -3.733  0.00  0.00     0.001 A 
HETATM   17  C   UNK     0     -62.814 -19.435  -3.389  0.00  0.00     0.014 A 
ENDBRANCH   5  12
BRANCH   6  18
HETATM   18  O   UNK     0     -59.560 -21.828   1.393  0.00  0.00    -0.351 OA
HETATM   19  C   UNK     0     -58.415 -21.208   0.810  0.00  0.00     0.210 C 
ENDBRANCH   6  18
BRANCH   8  20
HETATM   20  O   UNK     0     -61.640 -26.231  -1.210  0.00  0.00    -0.360 OA
HETATM   21  H   UNK     0     -60.994 -26.593  -1.834  0.00  0.00     0.217 HD
ENDBRANCH   8  20
BRANCH  10  22
HETATM   22  O   UNK     0     -59.093 -24.384   2.338  0.00  0.00    -0.358 OA
HETATM   23  H   UNK     0     -59.624 -24.151   3.120  0.00  0.00     0.217 HD
ENDBRANCH  10  22
TORSDOF 4
ENDMDL
MODEL 8
REMARK VINA RESULT:      -7.3      1.981      2.687
REMARK  4 active torsions:
REMARK  status: ('A' for Active; 'I' for Inactive)
REMARK    1  A    between atoms: O_2  and  C_9 
REMARK    2  A    between atoms: O_3  and  C_11 
REMARK    3  A    between atoms: O_4  and  C_14 
REMARK    4  A    between atoms: C_8  and  C_13 
ROOT
HETATM    1  O   UNK     0     -61.392 -23.291   0.249  0.00  0.00    -0.306 OA
HETATM    2  O   UNK     0     -57.902 -25.064   1.377  0.00  0.00    -0.287 OA
HETATM    3  C   UNK     0     -60.253 -25.216   1.196  0.00  0.00     0.084 A 
HETATM    4  C   UNK     0     -61.409 -24.552   0.789  0.00  0.00     0.129 A 
HETATM    5  C   UNK     0     -60.171 -22.648   0.111  0.00  0.00     0.090 A 
HETATM    6  C   UNK     0     -62.652 -25.172   0.921  0.00  0.00     0.136 A 
HETATM    7  C   UNK     0     -58.956 -24.541   1.043  0.00  0.00     0.190 A 
HETATM    8  C   UNK     0     -60.329 -26.500   1.739  0.00  0.00     0.085 A 
HETATM    9  C   UNK     0     -58.992 -23.184   0.459  0.00  0.00     0.094 A 
HETATM   10  C   UNK     0     -62.734 -26.455   1.463  0.00  0.00     0.104 A 
HETATM   11  C   UNK     0     -61.574 -27.118   1.871  0.00  0.00     0.077 A 
ENDROOT
BRANCH   5  12
HETATM   12  C   UNK     0     -60.267 -21.300  -0.485  0.00  0.00    -0.002 A 
HETATM   13  C   UNK     0     -59.112 -20.550  -0.715  0.00  0.00     0.014 A 
HETATM   14  C   UNK     0     -59.202 -19.278  -1.278  0.00  0.00     0.001 A 
HETATM   15  C   UNK     0     -60.449 -18.751  -1.614  0.00  0.00     0.000 A 
HETATM   16  C   UNK     0     -61.605 -19.496  -1.386  0.00  0.00     0.001 A 
HETATM   17  C   UNK     0     -61.515 -20.769  -0.823  0.00  0.00     0.014 A 
ENDBRANCH   5  12
BRANCH   6  18
HETATM   18  O   UNK     0     -63.788 -24.530   0.524  0.00  0.00    -0.351 OA
HETATM   19  C   UNK     0     -64.304 -24.865  -0.762  0.00  0.00     0.210 C 
ENDBRANCH   6  18
BRANCH   8  20
HETATM   20  O   UNK     0     -59.230 -27.190   2.151  0.00  0.00    -0.360 OA
HETATM   21  H   UNK     0     -59.336 -27.483   3.068  0.00  0.00     0.217 HD
ENDBRANCH   8  20
BRANCH  10  22
HETATM   22  O   UNK     0     -63.939 -27.073   1.600  0.00  0.00    -0.358 OA
HETATM   23  H   UNK     0     -63.808 -28.037   1.565  0.00  0.00     0.217 HD
ENDBRANCH  10  22
TORSDOF 4
ENDMDL
MODEL 9
REMARK VINA RESULT:      -7.2     19.053     21.215
REMARK  4 active torsions:
REMARK  status: ('A' for Active; 'I' for Inactive)
REMARK    1  A    between atoms: O_2  and  C_9 
REMARK    2  A    between atoms: O_3  and  C_11 
REMARK    3  A    between atoms: O_4  and  C_14 
REMARK    4  A    between atoms: C_8  and  C_13 
ROOT
HETATM    1  O   UNK     0     -69.315 -10.347  14.534  0.00  0.00    -0.306 OA
HETATM    2  O   UNK     0     -69.781 -12.893  11.387  0.00  0.00    -0.287 OA
HETATM    3  C   UNK     0     -68.607 -11.069  12.325  0.00  0.00     0.084 A 
HETATM    4  C   UNK     0     -68.501 -10.233  13.435  0.00  0.00     0.129 A 
HETATM    5  C   UNK     0     -70.290 -11.334  14.534  0.00  0.00     0.090 A 
HETATM    6  C   UNK     0     -67.534  -9.228  13.462  0.00  0.00     0.136 A 
HETATM    7  C   UNK     0     -69.633 -12.122  12.326  0.00  0.00     0.190 A 
HETATM    8  C   UNK     0     -67.750 -10.907  11.235  0.00  0.00     0.085 A 
HETATM    9  C   UNK     0     -70.485 -12.202  13.530  0.00  0.00     0.094 A 
HETATM   10  C   UNK     0     -66.676  -9.062  12.374  0.00  0.00     0.104 A 
HETATM   11  C   UNK     0     -66.784  -9.900  11.263  0.00  0.00     0.077 A 
ENDROOT
BRANCH   5  12
HETATM   12  C   UNK     0     -71.105 -11.372  15.765  0.00  0.00    -0.002 A 
HETATM   13  C   UNK     0     -70.896 -10.431  16.775  0.00  0.00     0.014 A 
HETATM   14  C   UNK     0     -71.665 -10.466  17.937  0.00  0.00     0.001 A 
HETATM   15  C   UNK     0     -72.648 -11.443  18.093  0.00  0.00     0.000 A 
HETATM   16  C   UNK     0     -72.860 -12.386  17.087  0.00  0.00     0.001 A 
HETATM   17  C   UNK     0     -72.090 -12.350  15.925  0.00  0.00     0.014 A 
ENDBRANCH   5  12
BRANCH   6  18
HETATM   18  O   UNK     0     -67.424  -8.406  14.544  0.00  0.00    -0.351 OA
HETATM   19  C   UNK     0     -66.495  -8.790  15.556  0.00  0.00     0.210 C 
ENDBRANCH   6  18
BRANCH   8  20
HETATM   20  O   UNK     0     -67.813 -11.698  10.128  0.00  0.00    -0.360 OA
HETATM   21  H   UNK     0     -68.114 -11.188   9.362  0.00  0.00     0.217 HD
ENDBRANCH   8  20
BRANCH  10  22
HETATM   22  O   UNK     0     -65.728  -8.085  12.383  0.00  0.00    -0.358 OA
HETATM   23  H   UNK     0     -64.988  -8.366  12.949  0.00  0.00     0.217 HD
ENDBRANCH  10  22
TORSDOF 4
ENDMDL
MODEL 10
REMARK VINA RESULT:      -7.2      3.615      5.651
REMARK  4 active torsions:
REMARK  status: ('A' for Active; 'I' for Inactive)
REMARK    1  A    between atoms: O_2  and  C_9 
REMARK    2  A    between atoms: O_3  and  C_11 
REMARK    3  A    between atoms: O_4  and  C_14 
REMARK    4  A    between atoms: C_8  and  C_13 
ROOT
HETATM    1  O   UNK     0     -63.134 -25.042  -0.227  0.00  0.00    -0.306 OA
HETATM    2  O   UNK     0     -62.130 -27.742   2.655  0.00  0.00    -0.287 OA
HETATM    3  C   UNK     0     -61.417 -26.361   0.874  0.00  0.00     0.084 A 
HETATM    4  C   UNK     0     -61.829 -25.441  -0.089  0.00  0.00     0.129 A 
HETATM    5  C   UNK     0     -64.084 -25.585   0.625  0.00  0.00     0.090 A 
HETATM    6  C   UNK     0     -60.897 -24.882  -0.963  0.00  0.00     0.136 A 
HETATM    7  C   UNK     0     -62.420 -26.932   1.785  0.00  0.00     0.190 A 
HETATM    8  C   UNK     0     -60.074 -26.730   0.970  0.00  0.00     0.085 A 
HETATM    9  C   UNK     0     -63.811 -26.472   1.594  0.00  0.00     0.094 A 
HETATM   10  C   UNK     0     -59.553 -25.248  -0.872  0.00  0.00     0.104 A 
HETATM   11  C   UNK     0     -59.143 -26.170   0.093  0.00  0.00     0.077 A 
ENDROOT
BRANCH   5  12
HETATM   12  C   UNK     0     -65.454 -25.084   0.393  0.00  0.00    -0.002 A 
HETATM   13  C   UNK     0     -65.950 -24.972  -0.907  0.00  0.00     0.014 A 
HETATM   14  C   UNK     0     -67.243 -24.499  -1.127  0.00  0.00     0.001 A 
HETATM   15  C   UNK     0     -68.046 -24.137  -0.045  0.00  0.00     0.000 A 
HETATM   16  C   UNK     0     -67.555 -24.247   1.256  0.00  0.00     0.001 A 
HETATM   17  C   UNK     0     -66.261 -24.720   1.475  0.00  0.00     0.014 A 
ENDBRANCH   5  12
BRANCH   6  18
HETATM   18  O   UNK     0     -61.291 -23.981  -1.908  0.00  0.00    -0.351 OA
HETATM   19  C   UNK     0     -61.649 -24.500  -3.187  0.00  0.00     0.210 C 
ENDBRANCH   6  18
BRANCH   8  20
HETATM   20  O   UNK     0     -59.622 -27.623   1.893  0.00  0.00    -0.360 OA
HETATM   21  H   UNK     0     -60.360 -28.121   2.275  0.00  0.00     0.217 HD
ENDBRANCH   8  20
BRANCH  10  22
HETATM   22  O   UNK     0     -58.631 -24.713  -1.719  0.00  0.00    -0.358 OA
HETATM   23  H   UNK     0     -58.965 -24.772  -2.631  0.00  0.00     0.217 HD
ENDBRANCH  10  22
TORSDOF 4
ENDMDL
