MODEL 1
REMARK VINA RESULT:      -8.3      0.000      0.000
REMARK  4 active torsions:
REMARK  status: ('A' for Active; 'I' for Inactive)
REMARK    1  A    between atoms: O_2  and  C_9 
REMARK    2  A    between atoms: O_3  and  C_14 
REMARK    3  A    between atoms: O_4  and  C_15 
REMARK    4  A    between atoms: C_8  and  C_12 
ROOT
HETATM    1  O   UNK     0     -58.472 -23.518  -0.259  0.00  0.00    -0.309 OA
HETATM    2  O   UNK     0     -60.667 -23.777   3.164  0.00  0.00    -0.287 OA
HETATM    3  C   UNK     0     -59.423 -24.899   1.497  0.00  0.00     0.084 A 
HETATM    4  C   UNK     0     -58.683 -24.739   0.328  0.00  0.00     0.096 A 
HETATM    5  C   UNK     0     -59.029 -22.396   0.335  0.00  0.00     0.090 A 
HETATM    6  C   UNK     0     -59.605 -26.169   2.051  0.00  0.00     0.118 A 
HETATM    7  C   UNK     0     -60.008 -23.710   2.135  0.00  0.00     0.190 A 
HETATM    8  C   UNK     0     -59.756 -22.419   1.464  0.00  0.00     0.094 A 
HETATM    9  C   UNK     0     -58.116 -25.852  -0.296  0.00  0.00     0.077 A 
HETATM   10  C   UNK     0     -59.037 -27.280   1.424  0.00  0.00     0.133 A 
HETATM   11  C   UNK     0     -58.295 -27.121   0.254  0.00  0.00     0.104 A 
ENDROOT
BRANCH   5  12
HETATM   12  C   UNK     0     -58.736 -21.134  -0.374  0.00  0.00    -0.002 A 
HETATM   13  C   UNK     0     -59.413 -20.819  -1.555  0.00  0.00     0.014 A 
HETATM   14  C   UNK     0     -59.138 -19.628  -2.226  0.00  0.00     0.001 A 
HETATM   15  C   UNK     0     -58.182 -18.747  -1.718  0.00  0.00     0.000 A 
HETATM   16  C   UNK     0     -57.504 -19.057  -0.540  0.00  0.00     0.001 A 
HETATM   17  C   UNK     0     -57.780 -20.249   0.131  0.00  0.00     0.014 A 
ENDBRANCH   5  12
BRANCH   6  18
HETATM   18  O   UNK     0     -60.323 -26.364   3.193  0.00  0.00    -0.357 OA
HETATM   19  H   UNK     0     -61.036 -27.006   3.045  0.00  0.00     0.217 HD
ENDBRANCH   6  18
BRANCH  11  20
HETATM   20  O   UNK     0     -57.738 -28.201  -0.365  0.00  0.00    -0.358 OA
HETATM   21  H   UNK     0     -56.889 -28.397   0.069  0.00  0.00     0.217 HD
ENDBRANCH  11  20
BRANCH  10  22
HETATM   22  O   UNK     0     -59.206 -28.525   1.955  0.00  0.00    -0.356 OA
HETATM   23  H   UNK     0     -59.913 -28.481   2.624  0.00  0.00     0.218 HD
ENDBRANCH  10  22
TORSDOF 4
ENDMDL
MODEL 2
REMARK VINA RESULT:      -8.1      3.567      7.496
REMARK  4 active torsions:
REMARK  status: ('A' for Active; 'I' for Inactive)
REMARK    1  A    between atoms: O_2  and  C_9 
REMARK    2  A    between atoms: O_3  and  C_14 
REMARK    3  A    between atoms: O_4  and  C_15 
REMARK    4  A    between atoms: C_8  and  C_12 
ROOT
HETATM    1  O   UNK     0     -60.993 -21.013  -0.253  0.00  0.00    -0.309 OA
HETATM    2  O   UNK     0     -57.494 -19.316  -1.469  0.00  0.00    -0.287 OA
HETATM    3  C   UNK     0     -59.847 -19.405  -1.667  0.00  0.00     0.084 A 
HETATM    4  C   UNK     0     -61.006 -20.027  -1.206  0.00  0.00     0.096 A 
HETATM    5  C   UNK     0     -59.771 -21.413   0.266  0.00  0.00     0.090 A 
HETATM    6  C   UNK     0     -59.921 -18.404  -2.639  0.00  0.00     0.118 A 
HETATM    7  C   UNK     0     -58.550 -19.820  -1.112  0.00  0.00     0.190 A 
HETATM    8  C   UNK     0     -58.588 -20.888  -0.092  0.00  0.00     0.094 A 
HETATM    9  C   UNK     0     -62.249 -19.649  -1.714  0.00  0.00     0.077 A 
HETATM   10  C   UNK     0     -61.166 -18.029  -3.147  0.00  0.00     0.133 A 
HETATM   11  C   UNK     0     -62.327 -18.651  -2.685  0.00  0.00     0.104 A 
ENDROOT
BRANCH   5  12
HETATM   12  C   UNK     0     -59.872 -22.476   1.287  0.00  0.00    -0.002 A 
HETATM   13  C   UNK     0     -60.468 -23.699   0.971  0.00  0.00     0.014 A 
HETATM   14  C   UNK     0     -60.564 -24.703   1.934  0.00  0.00     0.001 A 
HETATM   15  C   UNK     0     -60.065 -24.486   3.219  0.00  0.00     0.000 A 
HETATM   16  C   UNK     0     -59.470 -23.266   3.539  0.00  0.00     0.001 A 
HETATM   17  C   UNK     0     -59.375 -22.262   2.575  0.00  0.00     0.014 A 
ENDBRANCH   5  12
BRANCH   6  18
HETATM   18  O   UNK     0     -58.809 -17.775  -3.115  0.00  0.00    -0.357 OA
HETATM   19  H   UNK     0     -58.130 -18.420  -3.366  0.00  0.00     0.217 HD
ENDBRANCH   6  18
BRANCH  11  20
HETATM   20  O   UNK     0     -63.547 -18.291  -3.177  0.00  0.00    -0.358 OA
HETATM   21  H   UNK     0     -63.550 -17.326  -3.308  0.00  0.00     0.217 HD
ENDBRANCH  11  20
BRANCH  10  22
HETATM   22  O   UNK     0     -61.251 -17.054  -4.095  0.00  0.00    -0.356 OA
HETATM   23  H   UNK     0     -61.560 -16.235  -3.667  0.00  0.00     0.218 HD
ENDBRANCH  10  22
TORSDOF 4
ENDMDL
MODEL 3
REMARK VINA RESULT:      -8.0      8.574     11.396
REMARK  4 active torsions:
REMARK  status: ('A' for Active; 'I' for Inactive)
REMARK    1  A    between atoms: O_2  and  C_9 
REMARK    2  A    between atoms: O_3  and  C_14 
REMARK    3  A    between atoms: O_4  and  C_15 
REMARK    4  A    between atoms: C_8  and  C_12 
ROOT
HETATM    1  O   UNK     0     -62.633 -32.564   5.253  0.00  0.00    -0.309 OA
HETATM    2  O   UNK     0     -64.968 -34.527   2.553  0.00  0.00    -0.287 OA
HETATM    3  C   UNK     0     -63.391 -34.668   4.307  0.00  0.00     0.084 A 
HETATM    4  C   UNK     0     -62.619 -33.934   5.205  0.00  0.00     0.096 A 
HETATM    5  C   UNK     0     -63.446 -31.881   4.361  0.00  0.00     0.090 A 
HETATM    6  C   UNK     0     -63.338 -36.064   4.305  0.00  0.00     0.118 A 
HETATM    7  C   UNK     0     -64.262 -33.947   3.366  0.00  0.00     0.190 A 
HETATM    8  C   UNK     0     -64.240 -32.473   3.455  0.00  0.00     0.094 A 
HETATM    9  C   UNK     0     -61.786 -34.594   6.110  0.00  0.00     0.077 A 
HETATM   10  C   UNK     0     -62.503 -36.721   5.210  0.00  0.00     0.133 A 
HETATM   11  C   UNK     0     -61.730 -35.987   6.110  0.00  0.00     0.104 A 
ENDROOT
BRANCH   5  12
HETATM   12  C   UNK     0     -63.389 -30.411   4.502  0.00  0.00    -0.002 A 
HETATM   13  C   UNK     0     -62.592 -29.831   5.492  0.00  0.00     0.014 A 
HETATM   14  C   UNK     0     -62.538 -28.444   5.626  0.00  0.00     0.001 A 
HETATM   15  C   UNK     0     -63.281 -27.632   4.769  0.00  0.00     0.000 A 
HETATM   16  C   UNK     0     -64.078 -28.207   3.780  0.00  0.00     0.001 A 
HETATM   17  C   UNK     0     -64.132 -29.594   3.647  0.00  0.00     0.014 A 
ENDBRANCH   5  12
BRANCH   6  18
HETATM   18  O   UNK     0     -64.078 -36.815   3.441  0.00  0.00    -0.357 OA
HETATM   19  H   UNK     0     -65.015 -36.807   3.694  0.00  0.00     0.217 HD
ENDBRANCH   6  18
BRANCH  11  20
HETATM   20  O   UNK     0     -60.912 -36.622   6.998  0.00  0.00    -0.358 OA
HETATM   21  H   UNK     0     -60.072 -36.823   6.548  0.00  0.00     0.217 HD
ENDBRANCH  11  20
BRANCH  10  22
HETATM   22  O   UNK     0     -62.442 -38.084   5.219  0.00  0.00    -0.356 OA
HETATM   23  H   UNK     0     -62.794 -38.412   4.372  0.00  0.00     0.218 HD
ENDBRANCH  10  22
TORSDOF 4
ENDMDL
MODEL 4
REMARK VINA RESULT:      -7.7     19.287     21.606
REMARK  4 active torsions:
REMARK  status: ('A' for Active; 'I' for Inactive)
REMARK    1  A    between atoms: O_2  and  C_9 
REMARK    2  A    between atoms: O_3  and  C_14 
REMARK    3  A    between atoms: O_4  and  C_15 
REMARK    4  A    between atoms: C_8  and  C_12 
ROOT
HETATM    1  O   UNK     0     -69.247 -10.564  14.224  0.00  0.00    -0.309 OA
HETATM    2  O   UNK     0     -70.004 -13.150  11.169  0.00  0.00    -0.287 OA
HETATM    3  C   UNK     0     -68.689 -11.373  12.004  0.00  0.00     0.084 A 
HETATM    4  C   UNK     0     -68.484 -10.519  13.086  0.00  0.00     0.096 A 
HETATM    5  C   UNK     0     -70.273 -11.494  14.295  0.00  0.00     0.090 A 
HETATM    6  C   UNK     0     -67.879 -11.283  10.869  0.00  0.00     0.118 A 
HETATM    7  C   UNK     0     -69.770 -12.368  12.079  0.00  0.00     0.190 A 
HETATM    8  C   UNK     0     -70.565 -12.374  13.324  0.00  0.00     0.094 A 
HETATM    9  C   UNK     0     -67.464  -9.568  13.040  0.00  0.00     0.077 A 
HETATM   10  C   UNK     0     -66.860 -10.330  10.825  0.00  0.00     0.133 A 
HETATM   11  C   UNK     0     -66.654  -9.475  11.908  0.00  0.00     0.104 A 
ENDROOT
BRANCH   5  12
HETATM   12  C   UNK     0     -71.027 -11.460  15.565  0.00  0.00    -0.002 A 
HETATM   13  C   UNK     0     -72.067 -12.365  15.789  0.00  0.00     0.014 A 
HETATM   14  C   UNK     0     -72.780 -12.333  16.987  0.00  0.00     0.001 A 
HETATM   15  C   UNK     0     -72.454 -11.394  17.966  0.00  0.00     0.000 A 
HETATM   16  C   UNK     0     -71.417 -10.488  17.747  0.00  0.00     0.001 A 
HETATM   17  C   UNK     0     -70.705 -10.521  16.548  0.00  0.00     0.014 A 
ENDBRANCH   5  12
BRANCH   6  18
HETATM   18  O   UNK     0     -68.050 -12.101   9.791  0.00  0.00    -0.357 OA
HETATM   19  H   UNK     0     -67.788 -13.010  10.005  0.00  0.00     0.217 HD
ENDBRANCH   6  18
BRANCH  11  20
HETATM   20  O   UNK     0     -65.661  -8.541  11.873  0.00  0.00    -0.358 OA
HETATM   21  H   UNK     0     -64.837  -8.981  11.600  0.00  0.00     0.217 HD
ENDBRANCH  11  20
BRANCH  10  22
HETATM   22  O   UNK     0     -66.062 -10.233   9.724  0.00  0.00    -0.356 OA
HETATM   23  H   UNK     0     -66.573 -10.524   8.947  0.00  0.00     0.218 HD
ENDBRANCH  10  22
TORSDOF 4
ENDMDL
MODEL 5
REMARK VINA RESULT:      -7.7      3.638      7.639
REMARK  4 active torsions:
REMARK  status: ('A' for Active; 'I' for Inactive)
REMARK    1  A    between atoms: O_2  and  C_9 
REMARK    2  A    between atoms: O_3  and  C_14 
REMARK    3  A    between atoms: O_4  and  C_15 
REMARK    4  A    between atoms: C_8  and  C_12 
ROOT
HETATM    1  O   UNK     0     -60.565 -22.252  -2.211  0.00  0.00    -0.309 OA
HETATM    2  O   UNK     0     -57.401 -19.693  -2.411  0.00  0.00    -0.287 OA
HETATM    3  C   UNK     0     -59.717 -20.038  -2.731  0.00  0.00     0.084 A 
HETATM    4  C   UNK     0     -60.754 -20.964  -2.638  0.00  0.00     0.096 A 
HETATM    5  C   UNK     0     -59.283 -22.652  -1.864  0.00  0.00     0.090 A 
HETATM    6  C   UNK     0     -59.969 -18.736  -3.173  0.00  0.00     0.118 A 
HETATM    7  C   UNK     0     -58.357 -20.454  -2.356  0.00  0.00     0.190 A 
HETATM    8  C   UNK     0     -58.205 -21.852  -1.905  0.00  0.00     0.094 A 
HETATM    9  C   UNK     0     -62.053 -20.593  -2.987  0.00  0.00     0.077 A 
HETATM   10  C   UNK     0     -61.269 -18.368  -3.522  0.00  0.00     0.133 A 
HETATM   11  C   UNK     0     -62.308 -19.294  -3.428  0.00  0.00     0.104 A 
ENDROOT
BRANCH   5  12
HETATM   12  C   UNK     0     -59.193 -24.055  -1.413  0.00  0.00    -0.002 A 
HETATM   13  C   UNK     0     -58.035 -24.517  -0.782  0.00  0.00     0.014 A 
HETATM   14  C   UNK     0     -57.949 -25.842  -0.356  0.00  0.00     0.001 A 
HETATM   15  C   UNK     0     -59.022 -26.711  -0.560  0.00  0.00     0.000 A 
HETATM   16  C   UNK     0     -60.179 -26.254  -1.189  0.00  0.00     0.001 A 
HETATM   17  C   UNK     0     -60.264 -24.928  -1.616  0.00  0.00     0.014 A 
ENDBRANCH   5  12
BRANCH   6  18
HETATM   18  O   UNK     0     -58.980 -17.804  -3.278  0.00  0.00    -0.357 OA
HETATM   19  H   UNK     0     -58.154 -18.211  -3.583  0.00  0.00     0.217 HD
ENDBRANCH   6  18
BRANCH  11  20
HETATM   20  O   UNK     0     -63.582 -18.943  -3.767  0.00  0.00    -0.358 OA
HETATM   21  H   UNK     0     -63.710 -19.134  -4.713  0.00  0.00     0.217 HD
ENDBRANCH  11  20
BRANCH  10  22
HETATM   22  O   UNK     0     -61.529 -17.101  -3.954  0.00  0.00    -0.356 OA
HETATM   23  H   UNK     0     -62.494 -16.977  -3.981  0.00  0.00     0.218 HD
ENDBRANCH  10  22
TORSDOF 4
ENDMDL
MODEL 6
REMARK VINA RESULT:      -7.6      4.903      7.145
REMARK  4 active torsions:
REMARK  status: ('A' for Active; 'I' for Inactive)
REMARK    1  A    between atoms: O_2  and  C_9 
REMARK    2  A    between atoms: O_3  and  C_14 
REMARK    3  A    between atoms: O_4  and  C_15 
REMARK    4  A    between atoms: C_8  and  C_12 
ROOT
HETATM    1  O   UNK     0     -63.177 -25.633   0.719  0.00  0.00    -0.309 OA
HETATM    2  O   UNK     0     -64.447 -26.501   4.491  0.00  0.00    -0.287 OA
HETATM    3  C   UNK     0     -64.982 -25.678   2.342  0.00  0.00     0.084 A 
HETATM    4  C   UNK     0     -64.482 -25.404   1.071  0.00  0.00     0.096 A 
HETATM    5  C   UNK     0     -62.316 -26.150   1.675  0.00  0.00     0.090 A 
HETATM    6  C   UNK     0     -66.323 -25.426   2.644  0.00  0.00     0.118 A 
HETATM    7  C   UNK     0     -64.075 -26.235   3.357  0.00  0.00     0.190 A 
HETATM    8  C   UNK     0     -62.679 -26.460   2.931  0.00  0.00     0.094 A 
HETATM    9  C   UNK     0     -65.323 -24.877   0.090  0.00  0.00     0.077 A 
HETATM   10  C   UNK     0     -67.161 -24.897   1.661  0.00  0.00     0.133 A 
HETATM   11  C   UNK     0     -66.662 -24.624   0.388  0.00  0.00     0.104 A 
ENDROOT
BRANCH   5  12
HETATM   12  C   UNK     0     -60.937 -26.361   1.190  0.00  0.00    -0.002 A 
HETATM   13  C   UNK     0     -59.856 -26.218   2.063  0.00  0.00     0.014 A 
HETATM   14  C   UNK     0     -58.554 -26.417   1.606  0.00  0.00     0.001 A 
HETATM   15  C   UNK     0     -58.329 -26.760   0.272  0.00  0.00     0.000 A 
HETATM   16  C   UNK     0     -59.405 -26.904  -0.602  0.00  0.00     0.001 A 
HETATM   17  C   UNK     0     -60.707 -26.705  -0.144  0.00  0.00     0.014 A 
ENDBRANCH   5  12
BRANCH   6  18
HETATM   18  O   UNK     0     -66.847 -25.680   3.877  0.00  0.00    -0.357 OA
HETATM   19  H   UNK     0     -67.816 -25.698   3.842  0.00  0.00     0.217 HD
ENDBRANCH   6  18
BRANCH  11  20
HETATM   20  O   UNK     0     -67.474 -24.107  -0.578  0.00  0.00    -0.358 OA
HETATM   21  H   UNK     0     -66.936 -23.940  -1.372  0.00  0.00     0.217 HD
ENDBRANCH  11  20
BRANCH  10  22
HETATM   22  O   UNK     0     -68.472 -24.648   1.943  0.00  0.00    -0.356 OA
HETATM   23  H   UNK     0     -68.948 -24.518   1.103  0.00  0.00     0.218 HD
ENDBRANCH  10  22
TORSDOF 4
ENDMDL
MODEL 7
REMARK VINA RESULT:      -7.6      2.736      3.675
REMARK  4 active torsions:
REMARK  status: ('A' for Active; 'I' for Inactive)
REMARK    1  A    between atoms: O_2  and  C_9 
REMARK    2  A    between atoms: O_3  and  C_14 
REMARK    3  A    between atoms: O_4  and  C_15 
REMARK    4  A    between atoms: C_8  and  C_12 
ROOT
HETATM    1  O   UNK     0     -61.243 -22.656  -0.008  0.00  0.00    -0.309 OA
HETATM    2  O   UNK     0     -61.688 -25.782  -2.582  0.00  0.00    -0.287 OA
HETATM    3  C   UNK     0     -61.178 -25.053  -0.393  0.00  0.00     0.084 A 
HETATM    4  C   UNK     0     -61.043 -23.939   0.433  0.00  0.00     0.096 A 
HETATM    5  C   UNK     0     -61.586 -22.461  -1.337  0.00  0.00     0.090 A 
HETATM    6  C   UNK     0     -60.963 -26.338   0.111  0.00  0.00     0.118 A 
HETATM    7  C   UNK     0     -61.551 -24.851  -1.802  0.00  0.00     0.190 A 
HETATM    8  C   UNK     0     -61.752 -23.451  -2.229  0.00  0.00     0.094 A 
HETATM    9  C   UNK     0     -60.693 -24.104   1.774  0.00  0.00     0.077 A 
HETATM   10  C   UNK     0     -60.612 -26.500   1.452  0.00  0.00     0.133 A 
HETATM   11  C   UNK     0     -60.477 -25.385   2.281  0.00  0.00     0.104 A 
ENDROOT
BRANCH   5  12
HETATM   12  C   UNK     0     -61.782 -21.044  -1.704  0.00  0.00    -0.002 A 
HETATM   13  C   UNK     0     -62.442 -20.711  -2.890  0.00  0.00     0.014 A 
HETATM   14  C   UNK     0     -62.627 -19.373  -3.237  0.00  0.00     0.001 A 
HETATM   15  C   UNK     0     -62.153 -18.363  -2.399  0.00  0.00     0.000 A 
HETATM   16  C   UNK     0     -61.494 -18.691  -1.215  0.00  0.00     0.001 A 
HETATM   17  C   UNK     0     -61.308 -20.030  -0.869  0.00  0.00     0.014 A 
ENDBRANCH   5  12
BRANCH   6  18
HETATM   18  O   UNK     0     -61.085 -27.450  -0.667  0.00  0.00    -0.357 OA
HETATM   19  H   UNK     0     -60.856 -27.252  -1.589  0.00  0.00     0.217 HD
ENDBRANCH   6  18
BRANCH  11  20
HETATM   20  O   UNK     0     -60.133 -25.535   3.592  0.00  0.00    -0.358 OA
HETATM   21  H   UNK     0     -59.306 -25.046   3.748  0.00  0.00     0.217 HD
ENDBRANCH  11  20
BRANCH  10  22
HETATM   22  O   UNK     0     -60.400 -27.749   1.957  0.00  0.00    -0.356 OA
HETATM   23  H   UNK     0     -61.112 -27.949   2.591  0.00  0.00     0.218 HD
ENDBRANCH  10  22
TORSDOF 4
ENDMDL
MODEL 8
REMARK VINA RESULT:      -7.6      3.467      7.170
REMARK  4 active torsions:
REMARK  status: ('A' for Active; 'I' for Inactive)
REMARK    1  A    between atoms: O_2  and  C_9 
REMARK    2  A    between atoms: O_3  and  C_14 
REMARK    3  A    between atoms: O_4  and  C_15 
REMARK    4  A    between atoms: C_8  and  C_12 
ROOT
HETATM    1  O   UNK     0     -58.338 -22.490  -2.490  0.00  0.00    -0.309 OA
HETATM    2  O   UNK     0     -59.210 -18.755  -1.119  0.00  0.00    -0.287 OA
HETATM    3  C   UNK     0     -58.639 -20.126  -2.956  0.00  0.00     0.084 A 
HETATM    4  C   UNK     0     -58.350 -21.429  -3.358  0.00  0.00     0.096 A 
HETATM    5  C   UNK     0     -58.618 -22.253  -1.153  0.00  0.00     0.090 A 
HETATM    6  C   UNK     0     -58.638 -19.083  -3.885  0.00  0.00     0.118 A 
HETATM    7  C   UNK     0     -58.946 -19.872  -1.540  0.00  0.00     0.190 A 
HETATM    8  C   UNK     0     -58.917 -21.047  -0.645  0.00  0.00     0.094 A 
HETATM    9  C   UNK     0     -58.058 -21.696  -4.696  0.00  0.00     0.077 A 
HETATM   10  C   UNK     0     -58.344 -19.353  -5.222  0.00  0.00     0.133 A 
HETATM   11  C   UNK     0     -58.055 -20.657  -5.626  0.00  0.00     0.104 A 
ENDROOT
BRANCH   5  12
HETATM   12  C   UNK     0     -58.583 -23.465  -0.309  0.00  0.00    -0.002 A 
HETATM   13  C   UNK     0     -57.985 -24.634  -0.784  0.00  0.00     0.014 A 
HETATM   14  C   UNK     0     -57.952 -25.779   0.012  0.00  0.00     0.001 A 
HETATM   15  C   UNK     0     -58.518 -25.757   1.287  0.00  0.00     0.000 A 
HETATM   16  C   UNK     0     -59.116 -24.592   1.765  0.00  0.00     0.001 A 
HETATM   17  C   UNK     0     -59.149 -23.448   0.968  0.00  0.00     0.014 A 
ENDBRANCH   5  12
BRANCH   6  18
HETATM   18  O   UNK     0     -58.915 -17.796  -3.528  0.00  0.00    -0.357 OA
HETATM   19  H   UNK     0     -58.479 -17.172  -4.129  0.00  0.00     0.217 HD
ENDBRANCH   6  18
BRANCH  11  20
HETATM   20  O   UNK     0     -57.767 -20.930  -6.931  0.00  0.00    -0.358 OA
HETATM   21  H   UNK     0     -58.510 -20.621  -7.479  0.00  0.00     0.217 HD
ENDBRANCH  11  20
BRANCH  10  22
HETATM   22  O   UNK     0     -58.340 -18.344  -6.139  0.00  0.00    -0.356 OA
HETATM   23  H   UNK     0     -57.828 -17.600  -5.776  0.00  0.00     0.218 HD
ENDBRANCH  10  22
TORSDOF 4
ENDMDL
MODEL 9
REMARK VINA RESULT:      -7.5     19.652     21.919
REMARK  4 active torsions:
REMARK  status: ('A' for Active; 'I' for Inactive)
REMARK    1  A    between atoms: O_2  and  C_9 
REMARK    2  A    between atoms: O_3  and  C_14 
REMARK    3  A    between atoms: O_4  and  C_15 
REMARK    4  A    between atoms: C_8  and  C_12 
ROOT
HETATM    1  O   UNK     0     -69.941 -11.379  13.771  0.00  0.00    -0.309 OA
HETATM    2  O   UNK     0     -67.059  -8.558  14.347  0.00  0.00    -0.287 OA
HETATM    3  C   UNK     0     -68.035 -10.152  12.902  0.00  0.00     0.084 A 
HETATM    4  C   UNK     0     -69.044 -11.103  12.771  0.00  0.00     0.096 A 
HETATM    5  C   UNK     0     -69.830 -10.686  14.967  0.00  0.00     0.090 A 
HETATM    6  C   UNK     0     -67.150  -9.912  11.848  0.00  0.00     0.118 A 
HETATM    7  C   UNK     0     -67.919  -9.408  14.165  0.00  0.00     0.190 A 
HETATM    8  C   UNK     0     -68.906  -9.743  15.212  0.00  0.00     0.094 A 
HETATM    9  C   UNK     0     -69.176 -11.821  11.582  0.00  0.00     0.077 A 
HETATM   10  C   UNK     0     -67.283 -10.632  10.659  0.00  0.00     0.133 A 
HETATM   11  C   UNK     0     -68.295 -11.584  10.528  0.00  0.00     0.104 A 
ENDROOT
BRANCH   5  12
HETATM   12  C   UNK     0     -70.847 -11.056  15.972  0.00  0.00    -0.002 A 
HETATM   13  C   UNK     0     -71.030 -10.266  17.109  0.00  0.00     0.014 A 
HETATM   14  C   UNK     0     -71.990 -10.616  18.059  0.00  0.00     0.001 A 
HETATM   15  C   UNK     0     -72.770 -11.758  17.874  0.00  0.00     0.000 A 
HETATM   16  C   UNK     0     -72.590 -12.549  16.740  0.00  0.00     0.001 A 
HETATM   17  C   UNK     0     -71.629 -12.199  15.791  0.00  0.00     0.014 A 
ENDBRANCH   5  12
BRANCH   6  18
HETATM   18  O   UNK     0     -66.149  -8.990  11.939  0.00  0.00    -0.357 OA
HETATM   19  H   UNK     0     -66.021  -8.537  11.091  0.00  0.00     0.217 HD
ENDBRANCH   6  18
BRANCH  11  20
HETATM   20  O   UNK     0     -68.432 -12.292   9.371  0.00  0.00    -0.358 OA
HETATM   21  H   UNK     0     -67.893 -11.862   8.683  0.00  0.00     0.217 HD
ENDBRANCH  11  20
BRANCH  10  22
HETATM   22  O   UNK     0     -66.426 -10.406   9.623  0.00  0.00    -0.356 OA
HETATM   23  H   UNK     0     -65.718  -9.814   9.933  0.00  0.00     0.218 HD
ENDBRANCH  10  22
TORSDOF 4
ENDMDL
MODEL 10
REMARK VINA RESULT:      -7.4      6.483      7.920
REMARK  4 active torsions:
REMARK  status: ('A' for Active; 'I' for Inactive)
REMARK    1  A    between atoms: O_2  and  C_9 
REMARK    2  A    between atoms: O_3  and  C_14 
REMARK    3  A    between atoms: O_4  and  C_15 
REMARK    4  A    between atoms: C_8  and  C_12 
ROOT
HETATM    1  O   UNK     0     -58.907 -21.065  -4.665  0.00  0.00    -0.309 OA
HETATM    2  O   UNK     0     -56.409 -17.939  -5.430  0.00  0.00    -0.287 OA
HETATM    3  C   UNK     0     -56.783 -20.270  -5.533  0.00  0.00     0.084 A 
HETATM    4  C   UNK     0     -57.685 -21.292  -5.245  0.00  0.00     0.096 A 
HETATM    5  C   UNK     0     -59.254 -19.762  -4.345  0.00  0.00     0.090 A 
HETATM    6  C   UNK     0     -55.551 -20.560  -6.125  0.00  0.00     0.118 A 
HETATM    7  C   UNK     0     -57.151 -18.884  -5.203  0.00  0.00     0.190 A 
HETATM    8  C   UNK     0     -58.475 -18.693  -4.578  0.00  0.00     0.094 A 
HETATM    9  C   UNK     0     -57.360 -22.615  -5.549  0.00  0.00     0.077 A 
HETATM   10  C   UNK     0     -55.229 -21.884  -6.428  0.00  0.00     0.133 A 
HETATM   11  C   UNK     0     -56.132 -22.908  -6.141  0.00  0.00     0.104 A 
ENDROOT
BRANCH   5  12
HETATM   12  C   UNK     0     -60.591 -19.630  -3.732  0.00  0.00    -0.002 A 
HETATM   13  C   UNK     0     -61.431 -20.742  -3.635  0.00  0.00     0.014 A 
HETATM   14  C   UNK     0     -62.694 -20.619  -3.056  0.00  0.00     0.001 A 
HETATM   15  C   UNK     0     -63.121 -19.382  -2.572  0.00  0.00     0.000 A 
HETATM   16  C   UNK     0     -62.286 -18.270  -2.667  0.00  0.00     0.001 A 
HETATM   17  C   UNK     0     -61.023 -18.394  -3.246  0.00  0.00     0.014 A 
ENDBRANCH   5  12
BRANCH   6  18
HETATM   18  O   UNK     0     -54.643 -19.586  -6.421  0.00  0.00    -0.357 OA
HETATM   19  H   UNK     0     -53.914 -19.591  -5.781  0.00  0.00     0.217 HD
ENDBRANCH   6  18
BRANCH  11  20
HETATM   20  O   UNK     0     -55.824 -24.204  -6.433  0.00  0.00    -0.358 OA
HETATM   21  H   UNK     0     -56.625 -24.637  -6.778  0.00  0.00     0.217 HD
ENDBRANCH  11  20
BRANCH  10  22
HETATM   22  O   UNK     0     -54.030 -22.180  -7.007  0.00  0.00    -0.356 OA
HETATM   23  H   UNK     0     -54.117 -22.064  -7.970  0.00  0.00     0.218 HD
ENDBRANCH  10  22
TORSDOF 4
ENDMDL
