MODEL 1
REMARK VINA RESULT:      -9.6      0.000      0.000
REMARK  10 active torsions:
REMARK  status: ('A' for Active; 'I' for Inactive)
REMARK    1  A    between atoms: O_2  and  C_15 
REMARK    2  A    between atoms: O_2  and  C_18 
REMARK    3  A    between atoms: O_3  and  C_12 
REMARK    4  A    between atoms: O_4  and  C_13 
REMARK    5  A    between atoms: O_5  and  C_14 
REMARK    6  A    between atoms: O_6  and  C_17 
REMARK    7  A    between atoms: O_9  and  C_20 
REMARK    8  A    between atoms: O_10  and  C_23 
REMARK    9  A    between atoms: C_16  and  C_17 
REMARK   10  A    between atoms: C_25  and  C_27 
ROOT
HETATM    1  O   UNK     0     -63.483 -33.810   4.476  0.00  0.00    -0.340 OA
HETATM    2  C   UNK     0     -62.268 -35.491   6.465  0.00  0.00     0.183 C 
HETATM    3  C   UNK     0     -63.189 -34.326   6.829  0.00  0.00     0.205 C 
HETATM    4  C   UNK     0     -62.509 -35.967   5.033  0.00  0.00     0.189 C 
HETATM    5  C   UNK     0     -63.168 -33.246   5.747  0.00  0.00     0.299 C 
HETATM    6  C   UNK     0     -62.532 -34.787   4.068  0.00  0.00     0.253 C 
ENDROOT
BRANCH   5   7
HETATM    7  O   UNK     0     -64.142 -32.259   6.090  0.00  0.00    -0.315 OA
BRANCH   7   8
HETATM    8  C   UNK     0     -63.955 -31.011   5.575  0.00  0.00     0.110 A 
HETATM    9  C   UNK     0     -64.739 -30.589   4.501  0.00  0.00     0.078 A 
HETATM   10  C   UNK     0     -64.556 -29.313   3.967  0.00  0.00     0.096 A 
HETATM   11  O   UNK     0     -65.355 -28.955   2.912  0.00  0.00    -0.309 OA
HETATM   12  C   UNK     0     -63.590 -28.465   4.507  0.00  0.00     0.084 A 
HETATM   13  C   UNK     0     -65.200 -27.690   2.365  0.00  0.00     0.090 A 
HETATM   14  C   UNK     0     -64.304 -26.787   2.792  0.00  0.00     0.094 A 
HETATM   15  C   UNK     0     -63.417 -27.126   3.923  0.00  0.00     0.190 A 
HETATM   16  O   UNK     0     -62.587 -26.330   4.344  0.00  0.00    -0.287 OA
HETATM   17  C   UNK     0     -62.803 -28.883   5.582  0.00  0.00     0.118 A 
HETATM   18  C   UNK     0     -62.989 -30.159   6.114  0.00  0.00     0.134 A 
BRANCH  13  19
HETATM   19  C   UNK     0     -66.107 -27.410   1.233  0.00  0.00    -0.002 A 
HETATM   20  C   UNK     0     -67.024 -28.378   0.813  0.00  0.00     0.014 A 
HETATM   21  C   UNK     0     -67.881 -28.113  -0.256  0.00  0.00     0.001 A 
HETATM   22  C   UNK     0     -67.825 -26.881  -0.907  0.00  0.00     0.000 A 
HETATM   23  C   UNK     0     -66.911 -25.913  -0.490  0.00  0.00     0.001 A 
HETATM   24  C   UNK     0     -66.054 -26.178   0.579  0.00  0.00     0.014 A 
ENDBRANCH  13  19
BRANCH  17  25
HETATM   25  O   UNK     0     -61.850 -28.081   6.135  0.00  0.00    -0.357 OA
HETATM   26  H   UNK     0     -62.125 -27.151   6.111  0.00  0.00     0.217 HD
ENDBRANCH  17  25
BRANCH  18  27
HETATM   27  O   UNK     0     -62.226 -30.579   7.165  0.00  0.00    -0.356 OA
HETATM   28  H   UNK     0     -62.152 -31.549   7.123  0.00  0.00     0.218 HD
ENDBRANCH  18  27
ENDBRANCH   7   8
ENDBRANCH   5   7
BRANCH   6  29
HETATM   29  C   UNK     0     -63.027 -35.206   2.722  0.00  0.00     0.172 C 
HETATM   30  O   UNK     0     -64.193 -35.162   2.357  0.00  0.00    -0.648 OA
BRANCH  29  31
HETATM   31  O   UNK     0     -62.003 -35.649   1.952  0.00  0.00    -0.774 OA
HETATM   32  H   UNK     0     -61.996 -36.627   1.878  0.00  0.00     0.167 HD
ENDBRANCH  29  31
ENDBRANCH   6  29
BRANCH   3  33
HETATM   33  O   UNK     0     -62.750 -33.740   8.055  0.00  0.00    -0.388 OA
HETATM   34  H   UNK     0     -63.010 -34.336   8.776  0.00  0.00     0.210 HD
ENDBRANCH   3  33
BRANCH   4  35
HETATM   35  O   UNK     0     -61.457 -36.850   4.651  0.00  0.00    -0.390 OA
HETATM   36  H   UNK     0     -60.672 -36.631   5.181  0.00  0.00     0.210 HD
ENDBRANCH   4  35
BRANCH   2  37
HETATM   37  O   UNK     0     -62.518 -36.589   7.344  0.00  0.00    -0.390 OA
HETATM   38  H   UNK     0     -63.347 -37.009   7.062  0.00  0.00     0.210 HD
ENDBRANCH   2  37
TORSDOF 10
ENDMDL
MODEL 2
REMARK VINA RESULT:      -9.6      6.533      9.619
REMARK  10 active torsions:
REMARK  status: ('A' for Active; 'I' for Inactive)
REMARK    1  A    between atoms: O_2  and  C_15 
REMARK    2  A    between atoms: O_2  and  C_18 
REMARK    3  A    between atoms: O_3  and  C_12 
REMARK    4  A    between atoms: O_4  and  C_13 
REMARK    5  A    between atoms: O_5  and  C_14 
REMARK    6  A    between atoms: O_6  and  C_17 
REMARK    7  A    between atoms: O_9  and  C_20 
REMARK    8  A    between atoms: O_10  and  C_23 
REMARK    9  A    between atoms: C_16  and  C_17 
REMARK   10  A    between atoms: C_25  and  C_27 
ROOT
HETATM    1  O   UNK     0     -62.698 -25.065   2.775  0.00  0.00    -0.340 OA
HETATM    2  C   UNK     0     -62.361 -27.918   2.691  0.00  0.00     0.183 C 
HETATM    3  C   UNK     0     -61.175 -26.953   2.707  0.00  0.00     0.205 C 
HETATM    4  C   UNK     0     -63.621 -27.262   3.256  0.00  0.00     0.189 C 
HETATM    5  C   UNK     0     -61.556 -25.598   2.110  0.00  0.00     0.299 C 
HETATM    6  C   UNK     0     -63.846 -25.892   2.626  0.00  0.00     0.253 C 
ENDROOT
BRANCH   5   7
HETATM    7  O   UNK     0     -60.445 -24.716   2.276  0.00  0.00    -0.315 OA
BRANCH   7   8
HETATM    8  C   UNK     0     -59.972 -24.110   1.149  0.00  0.00     0.110 A 
HETATM    9  C   UNK     0     -60.618 -22.974   0.661  0.00  0.00     0.078 A 
HETATM   10  C   UNK     0     -60.142 -22.346  -0.491  0.00  0.00     0.096 A 
HETATM   11  O   UNK     0     -60.819 -21.234  -0.923  0.00  0.00    -0.309 OA
HETATM   12  C   UNK     0     -59.025 -22.856  -1.150  0.00  0.00     0.084 A 
HETATM   13  C   UNK     0     -60.364 -20.585  -2.061  0.00  0.00     0.090 A 
HETATM   14  C   UNK     0     -59.306 -20.981  -2.785  0.00  0.00     0.094 A 
HETATM   15  C   UNK     0     -58.546 -22.176  -2.363  0.00  0.00     0.190 A 
HETATM   16  O   UNK     0     -57.574 -22.569  -2.994  0.00  0.00    -0.287 OA
HETATM   17  C   UNK     0     -58.376 -23.993  -0.665  0.00  0.00     0.118 A 
HETATM   18  C   UNK     0     -58.854 -24.618   0.487  0.00  0.00     0.134 A 
BRANCH  13  19
HETATM   19  C   UNK     0     -61.167 -19.405  -2.440  0.00  0.00    -0.002 A 
HETATM   20  C   UNK     0     -62.214 -19.533  -3.357  0.00  0.00     0.014 A 
HETATM   21  C   UNK     0     -62.973 -18.417  -3.713  0.00  0.00     0.001 A 
HETATM   22  C   UNK     0     -62.688 -17.172  -3.154  0.00  0.00     0.000 A 
HETATM   23  C   UNK     0     -61.643 -17.040  -2.239  0.00  0.00     0.001 A 
HETATM   24  C   UNK     0     -60.885 -18.156  -1.882  0.00  0.00     0.014 A 
ENDBRANCH  13  19
BRANCH  17  25
HETATM   25  O   UNK     0     -57.281 -24.519  -1.283  0.00  0.00    -0.357 OA
HETATM   26  H   UNK     0     -57.531 -25.259  -1.857  0.00  0.00     0.217 HD
ENDBRANCH  17  25
BRANCH  18  27
HETATM   27  O   UNK     0     -58.227 -25.730   0.971  0.00  0.00    -0.356 OA
HETATM   28  H   UNK     0     -58.599 -26.511   0.525  0.00  0.00     0.218 HD
ENDBRANCH  18  27
ENDBRANCH   7   8
ENDBRANCH   5   7
BRANCH   6  29
HETATM   29  C   UNK     0     -64.910 -25.137   3.354  0.00  0.00     0.172 C 
HETATM   30  O   UNK     0     -65.959 -25.616   3.759  0.00  0.00    -0.648 OA
BRANCH  29  31
HETATM   31  O   UNK     0     -64.557 -23.837   3.504  0.00  0.00    -0.774 OA
HETATM   32  H   UNK     0     -63.663 -23.743   3.897  0.00  0.00     0.167 HD
ENDBRANCH  29  31
ENDBRANCH   6  29
BRANCH   3  33
HETATM   33  O   UNK     0     -60.108 -27.501   1.931  0.00  0.00    -0.388 OA
HETATM   34  H   UNK     0     -59.923 -28.391   2.273  0.00  0.00     0.210 HD
ENDBRANCH   3  33
BRANCH   4  35
HETATM   35  O   UNK     0     -64.747 -28.089   2.968  0.00  0.00    -0.390 OA
HETATM   36  H   UNK     0     -65.452 -27.869   3.601  0.00  0.00     0.210 HD
ENDBRANCH   4  35
BRANCH   2  37
HETATM   37  O   UNK     0     -62.058 -29.059   3.496  0.00  0.00    -0.390 OA
HETATM   38  H   UNK     0     -61.695 -29.744   2.910  0.00  0.00     0.210 HD
ENDBRANCH   2  37
TORSDOF 10
ENDMDL
MODEL 3
REMARK VINA RESULT:      -9.5     12.330     16.119
REMARK  10 active torsions:
REMARK  status: ('A' for Active; 'I' for Inactive)
REMARK    1  A    between atoms: O_2  and  C_15 
REMARK    2  A    between atoms: O_2  and  C_18 
REMARK    3  A    between atoms: O_3  and  C_12 
REMARK    4  A    between atoms: O_4  and  C_13 
REMARK    5  A    between atoms: O_5  and  C_14 
REMARK    6  A    between atoms: O_6  and  C_17 
REMARK    7  A    between atoms: O_9  and  C_20 
REMARK    8  A    between atoms: O_10  and  C_23 
REMARK    9  A    between atoms: C_16  and  C_17 
REMARK   10  A    between atoms: C_25  and  C_27 
ROOT
HETATM    1  O   UNK     0     -59.550 -20.163  -3.231  0.00  0.00    -0.340 OA
HETATM    2  C   UNK     0     -61.768 -21.988  -3.153  0.00  0.00     0.183 C 
HETATM    3  C   UNK     0     -60.319 -22.453  -3.002  0.00  0.00     0.205 C 
HETATM    4  C   UNK     0     -61.918 -20.507  -2.805  0.00  0.00     0.189 C 
HETATM    5  C   UNK     0     -59.355 -21.494  -3.701  0.00  0.00     0.299 C 
HETATM    6  C   UNK     0     -60.856 -19.675  -3.514  0.00  0.00     0.253 C 
ENDROOT
BRANCH   5   7
HETATM    7  O   UNK     0     -58.023 -21.919  -3.409  0.00  0.00    -0.315 OA
BRANCH   7   8
HETATM    8  C   UNK     0     -57.120 -21.840  -4.428  0.00  0.00     0.110 A 
HETATM    9  C   UNK     0     -57.211 -22.737  -5.493  0.00  0.00     0.078 A 
HETATM   10  C   UNK     0     -56.292 -22.666  -6.541  0.00  0.00     0.096 A 
HETATM   11  O   UNK     0     -56.431 -23.574  -7.559  0.00  0.00    -0.309 OA
HETATM   12  C   UNK     0     -55.287 -21.700  -6.521  0.00  0.00     0.084 A 
HETATM   13  C   UNK     0     -55.537 -23.522  -8.617  0.00  0.00     0.090 A 
HETATM   14  C   UNK     0     -54.526 -22.645  -8.710  0.00  0.00     0.094 A 
HETATM   15  C   UNK     0     -54.331 -21.648  -7.638  0.00  0.00     0.190 A 
HETATM   16  O   UNK     0     -53.423 -20.829  -7.685  0.00  0.00    -0.287 OA
HETATM   17  C   UNK     0     -55.193 -20.800  -5.457  0.00  0.00     0.118 A 
HETATM   18  C   UNK     0     -56.113 -20.874  -4.411  0.00  0.00     0.134 A 
BRANCH  13  19
HETATM   19  C   UNK     0     -55.775 -24.547  -9.655  0.00  0.00    -0.002 A 
HETATM   20  C   UNK     0     -54.748 -25.418 -10.029  0.00  0.00     0.014 A 
HETATM   21  C   UNK     0     -54.973 -26.386 -11.008  0.00  0.00     0.001 A 
HETATM   22  C   UNK     0     -56.225 -26.487 -11.615  0.00  0.00     0.000 A 
HETATM   23  C   UNK     0     -57.252 -25.620 -11.243  0.00  0.00     0.001 A 
HETATM   24  C   UNK     0     -57.027 -24.651 -10.265  0.00  0.00     0.014 A 
ENDBRANCH  13  19
BRANCH  17  25
HETATM   25  O   UNK     0     -54.224 -19.843  -5.404  0.00  0.00    -0.357 OA
HETATM   26  H   UNK     0     -54.415 -19.125  -6.027  0.00  0.00     0.217 HD
ENDBRANCH  17  25
BRANCH  18  27
HETATM   27  O   UNK     0     -56.031 -20.000  -3.366  0.00  0.00    -0.356 OA
HETATM   28  H   UNK     0     -56.831 -19.446  -3.364  0.00  0.00     0.218 HD
ENDBRANCH  18  27
ENDBRANCH   7   8
ENDBRANCH   5   7
BRANCH   6  29
HETATM   29  C   UNK     0     -60.825 -18.280  -2.979  0.00  0.00     0.172 C 
HETATM   30  O   UNK     0     -60.413 -17.961  -1.874  0.00  0.00    -0.648 OA
BRANCH  29  31
HETATM   31  O   UNK     0     -61.322 -17.407  -3.890  0.00  0.00    -0.774 OA
HETATM   32  H   UNK     0     -61.343 -16.489  -3.544  0.00  0.00     0.167 HD
ENDBRANCH  29  31
ENDBRANCH   6  29
BRANCH   3  33
HETATM   33  O   UNK     0     -60.172 -23.745  -3.592  0.00  0.00    -0.388 OA
HETATM   34  H   UNK     0     -59.855 -23.619  -4.502  0.00  0.00     0.210 HD
ENDBRANCH   3  33
BRANCH   4  35
HETATM   35  O   UNK     0     -63.206 -20.058  -3.221  0.00  0.00    -0.390 OA
HETATM   36  H   UNK     0     -63.213 -19.086  -3.183  0.00  0.00     0.210 HD
ENDBRANCH   4  35
BRANCH   2  37
HETATM   37  O   UNK     0     -62.603 -22.737  -2.270  0.00  0.00    -0.390 OA
HETATM   38  H   UNK     0     -62.711 -22.219  -1.455  0.00  0.00     0.210 HD
ENDBRANCH   2  37
TORSDOF 10
ENDMDL
MODEL 4
REMARK VINA RESULT:      -9.4     11.134     15.097
REMARK  10 active torsions:
REMARK  status: ('A' for Active; 'I' for Inactive)
REMARK    1  A    between atoms: O_2  and  C_15 
REMARK    2  A    between atoms: O_2  and  C_18 
REMARK    3  A    between atoms: O_3  and  C_12 
REMARK    4  A    between atoms: O_4  and  C_13 
REMARK    5  A    between atoms: O_5  and  C_14 
REMARK    6  A    between atoms: O_6  and  C_17 
REMARK    7  A    between atoms: O_9  and  C_20 
REMARK    8  A    between atoms: O_10  and  C_23 
REMARK    9  A    between atoms: C_16  and  C_17 
REMARK   10  A    between atoms: C_25  and  C_27 
ROOT
HETATM    1  O   UNK     0     -57.222 -21.572  -6.497  0.00  0.00    -0.340 OA
HETATM    2  C   UNK     0     -54.864 -19.940  -6.680  0.00  0.00     0.183 C 
HETATM    3  C   UNK     0     -56.139 -19.462  -5.984  0.00  0.00     0.205 C 
HETATM    4  C   UNK     0     -54.807 -21.465  -6.754  0.00  0.00     0.189 C 
HETATM    5  C   UNK     0     -57.375 -20.156  -6.557  0.00  0.00     0.299 C 
HETATM    6  C   UNK     0     -56.123 -22.031  -7.276  0.00  0.00     0.253 C 
ENDROOT
BRANCH   5   7
HETATM    7  O   UNK     0     -58.504 -19.760  -5.778  0.00  0.00    -0.315 OA
BRANCH   7   8
HETATM    8  C   UNK     0     -58.469 -20.071  -4.450  0.00  0.00     0.110 A 
HETATM    9  C   UNK     0     -58.630 -21.399  -4.055  0.00  0.00     0.078 A 
HETATM   10  C   UNK     0     -58.596 -21.729  -2.699  0.00  0.00     0.096 A 
HETATM   11  O   UNK     0     -58.761 -23.050  -2.372  0.00  0.00    -0.309 OA
HETATM   12  C   UNK     0     -58.401 -20.731  -1.745  0.00  0.00     0.084 A 
HETATM   13  C   UNK     0     -58.724 -23.408  -1.032  0.00  0.00     0.090 A 
HETATM   14  C   UNK     0     -58.549 -22.541  -0.023  0.00  0.00     0.094 A 
HETATM   15  C   UNK     0     -58.371 -21.106  -0.323  0.00  0.00     0.190 A 
HETATM   16  O   UNK     0     -58.207 -20.283   0.568  0.00  0.00    -0.287 OA
HETATM   17  C   UNK     0     -58.239 -19.400  -2.137  0.00  0.00     0.118 A 
HETATM   18  C   UNK     0     -58.274 -19.074  -3.493  0.00  0.00     0.134 A 
BRANCH  13  19
HETATM   19  C   UNK     0     -58.916 -24.853  -0.792  0.00  0.00    -0.002 A 
HETATM   20  C   UNK     0     -57.842 -25.644  -0.376  0.00  0.00     0.014 A 
HETATM   21  C   UNK     0     -58.025 -27.008  -0.148  0.00  0.00     0.001 A 
HETATM   22  C   UNK     0     -59.281 -27.585  -0.334  0.00  0.00     0.000 A 
HETATM   23  C   UNK     0     -60.355 -26.798  -0.749  0.00  0.00     0.001 A 
HETATM   24  C   UNK     0     -60.173 -25.434  -0.977  0.00  0.00     0.014 A 
ENDBRANCH  13  19
BRANCH  17  25
HETATM   25  O   UNK     0     -58.046 -18.399  -1.233  0.00  0.00    -0.357 OA
HETATM   26  H   UNK     0     -58.406 -18.643  -0.366  0.00  0.00     0.217 HD
ENDBRANCH  17  25
BRANCH  18  27
HETATM   27  O   UNK     0     -58.117 -17.777  -3.888  0.00  0.00    -0.356 OA
HETATM   28  H   UNK     0     -57.437 -17.747  -4.583  0.00  0.00     0.218 HD
ENDBRANCH  18  27
ENDBRANCH   7   8
ENDBRANCH   5   7
BRANCH   6  29
HETATM   29  C   UNK     0     -56.174 -23.514  -7.102  0.00  0.00     0.172 C 
HETATM   30  O   UNK     0     -55.499 -24.318  -7.728  0.00  0.00    -0.648 OA
BRANCH  29  31
HETATM   31  O   UNK     0     -57.080 -23.853  -6.153  0.00  0.00    -0.774 OA
HETATM   32  H   UNK     0     -57.713 -24.530  -6.475  0.00  0.00     0.167 HD
ENDBRANCH  29  31
ENDBRANCH   6  29
BRANCH   3  33
HETATM   33  O   UNK     0     -56.286 -18.055  -6.178  0.00  0.00    -0.388 OA
HETATM   34  H   UNK     0     -55.401 -17.685  -6.334  0.00  0.00     0.210 HD
ENDBRANCH   3  33
BRANCH   4  35
HETATM   35  O   UNK     0     -53.759 -21.851  -7.640  0.00  0.00    -0.390 OA
HETATM   36  H   UNK     0     -53.899 -21.396  -8.489  0.00  0.00     0.210 HD
ENDBRANCH   4  35
BRANCH   2  37
HETATM   37  O   UNK     0     -53.724 -19.489  -5.946  0.00  0.00    -0.390 OA
HETATM   38  H   UNK     0     -53.023 -20.154  -6.053  0.00  0.00     0.210 HD
ENDBRANCH   2  37
TORSDOF 10
ENDMDL
MODEL 5
REMARK VINA RESULT:      -9.3      7.056      8.485
REMARK  10 active torsions:
REMARK  status: ('A' for Active; 'I' for Inactive)
REMARK    1  A    between atoms: O_2  and  C_15 
REMARK    2  A    between atoms: O_2  and  C_18 
REMARK    3  A    between atoms: O_3  and  C_12 
REMARK    4  A    between atoms: O_4  and  C_13 
REMARK    5  A    between atoms: O_5  and  C_14 
REMARK    6  A    between atoms: O_6  and  C_17 
REMARK    7  A    between atoms: O_9  and  C_20 
REMARK    8  A    between atoms: O_10  and  C_23 
REMARK    9  A    between atoms: C_16  and  C_17 
REMARK   10  A    between atoms: C_25  and  C_27 
ROOT
HETATM    1  O   UNK     0     -61.629 -25.124   1.300  0.00  0.00    -0.340 OA
HETATM    2  C   UNK     0     -61.045 -25.942  -1.392  0.00  0.00     0.183 C 
HETATM    3  C   UNK     0     -62.245 -25.059  -1.047  0.00  0.00     0.205 C 
HETATM    4  C   UNK     0     -59.967 -25.867  -0.311  0.00  0.00     0.189 C 
HETATM    5  C   UNK     0     -62.712 -25.298   0.389  0.00  0.00     0.299 C 
HETATM    6  C   UNK     0     -60.577 -26.055   1.073  0.00  0.00     0.253 C 
ENDROOT
BRANCH   5   7
HETATM    7  O   UNK     0     -63.743 -24.354   0.680  0.00  0.00    -0.315 OA
BRANCH   7   8
HETATM    8  C   UNK     0     -64.963 -24.865   1.015  0.00  0.00     0.110 A 
HETATM    9  C   UNK     0     -65.841 -25.257   0.005  0.00  0.00     0.078 A 
HETATM   10  C   UNK     0     -67.091 -25.782   0.337  0.00  0.00     0.096 A 
HETATM   11  O   UNK     0     -67.911 -26.148  -0.699  0.00  0.00    -0.309 OA
HETATM   12  C   UNK     0     -67.458 -25.912   1.675  0.00  0.00     0.084 A 
HETATM   13  C   UNK     0     -69.157 -26.680  -0.400  0.00  0.00     0.090 A 
HETATM   14  C   UNK     0     -69.626 -26.849   0.846  0.00  0.00     0.094 A 
HETATM   15  C   UNK     0     -68.782 -26.466   1.996  0.00  0.00     0.190 A 
HETATM   16  O   UNK     0     -69.171 -26.607   3.148  0.00  0.00    -0.287 OA
HETATM   17  C   UNK     0     -66.581 -25.521   2.690  0.00  0.00     0.118 A 
HETATM   18  C   UNK     0     -65.332 -24.997   2.354  0.00  0.00     0.134 A 
BRANCH  13  19
HETATM   19  C   UNK     0     -69.959 -27.036  -1.588  0.00  0.00    -0.002 A 
HETATM   20  C   UNK     0     -70.451 -28.335  -1.738  0.00  0.00     0.014 A 
HETATM   21  C   UNK     0     -71.210 -28.671  -2.859  0.00  0.00     0.001 A 
HETATM   22  C   UNK     0     -71.479 -27.710  -3.833  0.00  0.00     0.000 A 
HETATM   23  C   UNK     0     -70.990 -26.412  -3.686  0.00  0.00     0.001 A 
HETATM   24  C   UNK     0     -70.231 -26.076  -2.565  0.00  0.00     0.014 A 
ENDBRANCH  13  19
BRANCH  17  25
HETATM   25  O   UNK     0     -66.906 -25.634   4.008  0.00  0.00    -0.357 OA
HETATM   26  H   UNK     0     -66.332 -26.278   4.451  0.00  0.00     0.217 HD
ENDBRANCH  17  25
BRANCH  18  27
HETATM   27  O   UNK     0     -64.467 -24.611   3.337  0.00  0.00    -0.356 OA
HETATM   28  H   UNK     0     -64.279 -25.382   3.901  0.00  0.00     0.218 HD
ENDBRANCH  18  27
ENDBRANCH   7   8
ENDBRANCH   5   7
BRANCH   6  29
HETATM   29  C   UNK     0     -59.588 -25.722   2.143  0.00  0.00     0.172 C 
HETATM   30  O   UNK     0     -58.437 -25.363   1.947  0.00  0.00    -0.648 OA
BRANCH  29  31
HETATM   31  O   UNK     0     -60.141 -25.876   3.371  0.00  0.00    -0.774 OA
HETATM   32  H   UNK     0     -60.386 -25.015   3.773  0.00  0.00     0.167 HD
ENDBRANCH  29  31
ENDBRANCH   6  29
BRANCH   3  33
HETATM   33  O   UNK     0     -63.327 -25.364  -1.927  0.00  0.00    -0.388 OA
HETATM   34  H   UNK     0     -63.874 -24.565  -2.008  0.00  0.00     0.210 HD
ENDBRANCH   3  33
BRANCH   4  35
HETATM   35  O   UNK     0     -59.011 -26.901  -0.534  0.00  0.00    -0.390 OA
HETATM   36  H   UNK     0     -58.167 -26.621  -0.139  0.00  0.00     0.210 HD
ENDBRANCH   4  35
BRANCH   2  37
HETATM   37  O   UNK     0     -60.468 -25.501  -2.623  0.00  0.00    -0.390 OA
HETATM   38  H   UNK     0     -61.022 -24.781  -2.967  0.00  0.00     0.210 HD
ENDBRANCH   2  37
TORSDOF 10
ENDMDL
MODEL 6
REMARK VINA RESULT:      -9.3     11.530     15.788
REMARK  10 active torsions:
REMARK  status: ('A' for Active; 'I' for Inactive)
REMARK    1  A    between atoms: O_2  and  C_15 
REMARK    2  A    between atoms: O_2  and  C_18 
REMARK    3  A    between atoms: O_3  and  C_12 
REMARK    4  A    between atoms: O_4  and  C_13 
REMARK    5  A    between atoms: O_5  and  C_14 
REMARK    6  A    between atoms: O_6  and  C_17 
REMARK    7  A    between atoms: O_9  and  C_20 
REMARK    8  A    between atoms: O_10  and  C_23 
REMARK    9  A    between atoms: C_16  and  C_17 
REMARK   10  A    between atoms: C_25  and  C_27 
ROOT
HETATM    1  O   UNK     0     -55.707 -20.821  -6.335  0.00  0.00    -0.340 OA
HETATM    2  C   UNK     0     -57.071 -19.601  -8.550  0.00  0.00     0.183 C 
HETATM    3  C   UNK     0     -57.000 -18.945  -7.171  0.00  0.00     0.205 C 
HETATM    4  C   UNK     0     -55.944 -20.615  -8.746  0.00  0.00     0.189 C 
HETATM    5  C   UNK     0     -56.836 -19.992  -6.069  0.00  0.00     0.299 C 
HETATM    6  C   UNK     0     -55.847 -21.553  -7.548  0.00  0.00     0.253 C 
ENDROOT
BRANCH   5   7
HETATM    7  O   UNK     0     -56.647 -19.304  -4.832  0.00  0.00    -0.315 OA
BRANCH   7   8
HETATM    8  C   UNK     0     -57.567 -19.542  -3.854  0.00  0.00     0.110 A 
HETATM    9  C   UNK     0     -57.493 -20.724  -3.118  0.00  0.00     0.078 A 
HETATM   10  C   UNK     0     -58.430 -20.978  -2.114  0.00  0.00     0.096 A 
HETATM   11  O   UNK     0     -58.306 -22.157  -1.426  0.00  0.00    -0.309 OA
HETATM   12  C   UNK     0     -59.435 -20.049  -1.852  0.00  0.00     0.084 A 
HETATM   13  C   UNK     0     -59.218 -22.432  -0.418  0.00  0.00     0.090 A 
HETATM   14  C   UNK     0     -60.232 -21.623  -0.075  0.00  0.00     0.094 A 
HETATM   15  C   UNK     0     -60.410 -20.342  -0.790  0.00  0.00     0.190 A 
HETATM   16  O   UNK     0     -61.321 -19.575  -0.507  0.00  0.00    -0.287 OA
HETATM   17  C   UNK     0     -59.513 -18.864  -2.586  0.00  0.00     0.118 A 
HETATM   18  C   UNK     0     -58.575 -18.614  -3.588  0.00  0.00     0.134 A 
BRANCH  13  19
HETATM   19  C   UNK     0     -58.996 -23.728   0.254  0.00  0.00    -0.002 A 
HETATM   20  C   UNK     0     -59.513 -23.952   1.534  0.00  0.00     0.014 A 
HETATM   21  C   UNK     0     -59.304 -25.177   2.168  0.00  0.00     0.001 A 
HETATM   22  C   UNK     0     -58.580 -26.181   1.527  0.00  0.00     0.000 A 
HETATM   23  C   UNK     0     -58.063 -25.961   0.250  0.00  0.00     0.001 A 
HETATM   24  C   UNK     0     -58.271 -24.736  -0.385  0.00  0.00     0.014 A 
ENDBRANCH  13  19
BRANCH  17  25
HETATM   25  O   UNK     0     -60.482 -17.934  -2.356  0.00  0.00    -0.357 OA
HETATM   26  H   UNK     0     -61.227 -18.323  -1.873  0.00  0.00     0.217 HD
ENDBRANCH  17  25
BRANCH  18  27
HETATM   27  O   UNK     0     -58.641 -17.459  -4.313  0.00  0.00    -0.356 OA
HETATM   28  H   UNK     0     -59.448 -16.980  -4.056  0.00  0.00     0.218 HD
ENDBRANCH  18  27
ENDBRANCH   7   8
ENDBRANCH   5   7
BRANCH   6  29
HETATM   29  C   UNK     0     -54.595 -22.366  -7.605  0.00  0.00     0.172 C 
HETATM   30  O   UNK     0     -53.751 -22.295  -8.486  0.00  0.00    -0.648 OA
BRANCH  29  31
HETATM   31  O   UNK     0     -54.519 -23.203  -6.542  0.00  0.00    -0.774 OA
HETATM   32  H   UNK     0     -53.746 -23.004  -5.972  0.00  0.00     0.167 HD
ENDBRANCH  29  31
ENDBRANCH   6  29
BRANCH   3  33
HETATM   33  O   UNK     0     -58.207 -18.223  -6.926  0.00  0.00    -0.388 OA
HETATM   34  H   UNK     0     -58.110 -17.343  -7.327  0.00  0.00     0.210 HD
ENDBRANCH   3  33
BRANCH   4  35
HETATM   35  O   UNK     0     -56.209 -21.389  -9.913  0.00  0.00    -0.390 OA
HETATM   36  H   UNK     0     -55.435 -21.327 -10.498  0.00  0.00     0.210 HD
ENDBRANCH   4  35
BRANCH   2  37
HETATM   37  O   UNK     0     -56.945 -18.599  -9.561  0.00  0.00    -0.390 OA
HETATM   38  H   UNK     0     -56.298 -18.917 -10.212  0.00  0.00     0.210 HD
ENDBRANCH   2  37
TORSDOF 10
ENDMDL
MODEL 7
REMARK VINA RESULT:      -9.0     13.473     16.716
REMARK  10 active torsions:
REMARK  status: ('A' for Active; 'I' for Inactive)
REMARK    1  A    between atoms: O_2  and  C_15 
REMARK    2  A    between atoms: O_2  and  C_18 
REMARK    3  A    between atoms: O_3  and  C_12 
REMARK    4  A    between atoms: O_4  and  C_13 
REMARK    5  A    between atoms: O_5  and  C_14 
REMARK    6  A    between atoms: O_6  and  C_17 
REMARK    7  A    between atoms: O_9  and  C_20 
REMARK    8  A    between atoms: O_10  and  C_23 
REMARK    9  A    between atoms: C_16  and  C_17 
REMARK   10  A    between atoms: C_25  and  C_27 
ROOT
HETATM    1  O   UNK     0     -55.335 -22.565  -9.863  0.00  0.00    -0.340 OA
HETATM    2  C   UNK     0     -54.269 -25.226  -9.661  0.00  0.00     0.183 C 
HETATM    3  C   UNK     0     -55.657 -24.859  -9.137  0.00  0.00     0.205 C 
HETATM    4  C   UNK     0     -53.793 -24.236 -10.724  0.00  0.00     0.189 C 
HETATM    5  C   UNK     0     -55.733 -23.378  -8.761  0.00  0.00     0.299 C 
HETATM    6  C   UNK     0     -53.985 -22.800 -10.249  0.00  0.00     0.253 C 
ENDROOT
BRANCH   5   7
HETATM    7  O   UNK     0     -57.084 -23.082  -8.407  0.00  0.00    -0.315 OA
BRANCH   7   8
HETATM    8  C   UNK     0     -57.267 -22.209  -7.375  0.00  0.00     0.110 A 
HETATM    9  C   UNK     0     -57.527 -22.706  -6.097  0.00  0.00     0.078 A 
HETATM   10  C   UNK     0     -57.715 -21.822  -5.034  0.00  0.00     0.096 A 
HETATM   11  O   UNK     0     -57.968 -22.369  -3.802  0.00  0.00    -0.309 OA
HETATM   12  C   UNK     0     -57.644 -20.447  -5.252  0.00  0.00     0.084 A 
HETATM   13  C   UNK     0     -58.152 -21.514  -2.726  0.00  0.00     0.090 A 
HETATM   14  C   UNK     0     -58.113 -20.175  -2.808  0.00  0.00     0.094 A 
HETATM   15  C   UNK     0     -57.849 -19.538  -4.114  0.00  0.00     0.190 A 
HETATM   16  O   UNK     0     -57.803 -18.320  -4.232  0.00  0.00    -0.287 OA
HETATM   17  C   UNK     0     -57.385 -19.946  -6.529  0.00  0.00     0.118 A 
HETATM   18  C   UNK     0     -57.196 -20.832  -7.590  0.00  0.00     0.134 A 
BRANCH  13  19
HETATM   19  C   UNK     0     -58.421 -22.207  -1.449  0.00  0.00    -0.002 A 
HETATM   20  C   UNK     0     -58.888 -21.488  -0.345  0.00  0.00     0.014 A 
HETATM   21  C   UNK     0     -59.143 -22.142   0.860  0.00  0.00     0.001 A 
HETATM   22  C   UNK     0     -58.934 -23.517   0.965  0.00  0.00     0.000 A 
HETATM   23  C   UNK     0     -58.469 -24.238  -0.134  0.00  0.00     0.001 A 
HETATM   24  C   UNK     0     -58.213 -23.584  -1.340  0.00  0.00     0.014 A 
ENDBRANCH  13  19
BRANCH  17  25
HETATM   25  O   UNK     0     -57.308 -18.608  -6.779  0.00  0.00    -0.357 OA
HETATM   26  H   UNK     0     -56.384 -18.316  -6.815  0.00  0.00     0.217 HD
ENDBRANCH  17  25
BRANCH  18  27
HETATM   27  O   UNK     0     -56.942 -20.354  -8.843  0.00  0.00    -0.356 OA
HETATM   28  H   UNK     0     -56.530 -19.477  -8.760  0.00  0.00     0.218 HD
ENDBRANCH  18  27
ENDBRANCH   7   8
ENDBRANCH   5   7
BRANCH   6  29
HETATM   29  C   UNK     0     -53.776 -21.834 -11.369  0.00  0.00     0.172 C 
HETATM   30  O   UNK     0     -54.584 -21.600 -12.255  0.00  0.00    -0.648 OA
BRANCH  29  31
HETATM   31  O   UNK     0     -52.558 -21.247 -11.273  0.00  0.00    -0.774 OA
HETATM   32  H   UNK     0     -51.863 -21.765 -11.733  0.00  0.00     0.167 HD
ENDBRANCH  29  31
ENDBRANCH   6  29
BRANCH   3  33
HETATM   33  O   UNK     0     -55.944 -25.632  -7.972  0.00  0.00    -0.388 OA
HETATM   34  H   UNK     0     -55.360 -25.320  -7.261  0.00  0.00     0.210 HD
ENDBRANCH   3  33
BRANCH   4  35
HETATM   35  O   UNK     0     -52.406 -24.452 -10.976  0.00  0.00    -0.390 OA
HETATM   36  H   UNK     0     -51.941 -24.455 -10.121  0.00  0.00     0.210 HD
ENDBRANCH   4  35
BRANCH   2  37
HETATM   37  O   UNK     0     -54.312 -26.525 -10.255  0.00  0.00    -0.390 OA
HETATM   38  H   UNK     0     -53.721 -27.102  -9.744  0.00  0.00     0.210 HD
ENDBRANCH   2  37
TORSDOF 10
ENDMDL
MODEL 8
REMARK VINA RESULT:      -8.8      2.001      3.824
REMARK  10 active torsions:
REMARK  status: ('A' for Active; 'I' for Inactive)
REMARK    1  A    between atoms: O_2  and  C_15 
REMARK    2  A    between atoms: O_2  and  C_18 
REMARK    3  A    between atoms: O_3  and  C_12 
REMARK    4  A    between atoms: O_4  and  C_13 
REMARK    5  A    between atoms: O_5  and  C_14 
REMARK    6  A    between atoms: O_6  and  C_17 
REMARK    7  A    between atoms: O_9  and  C_20 
REMARK    8  A    between atoms: O_10  and  C_23 
REMARK    9  A    between atoms: C_16  and  C_17 
REMARK   10  A    between atoms: C_25  and  C_27 
ROOT
HETATM    1  O   UNK     0     -63.111 -33.457   4.691  0.00  0.00    -0.340 OA
HETATM    2  C   UNK     0     -62.493 -35.532   6.580  0.00  0.00     0.183 C 
HETATM    3  C   UNK     0     -63.113 -34.199   7.001  0.00  0.00     0.205 C 
HETATM    4  C   UNK     0     -62.751 -35.825   5.102  0.00  0.00     0.189 C 
HETATM    5  C   UNK     0     -62.749 -33.085   6.019  0.00  0.00     0.299 C 
HETATM    6  C   UNK     0     -62.411 -34.613   4.243  0.00  0.00     0.253 C 
ENDROOT
BRANCH   5   7
HETATM    7  O   UNK     0     -63.464 -31.910   6.402  0.00  0.00    -0.315 OA
BRANCH   7   8
HETATM    8  C   UNK     0     -63.755 -31.021   5.408  0.00  0.00     0.110 A 
HETATM    9  C   UNK     0     -62.824 -30.037   5.077  0.00  0.00     0.078 A 
HETATM   10  C   UNK     0     -63.111 -29.123   4.061  0.00  0.00     0.096 A 
HETATM   11  O   UNK     0     -62.157 -28.179   3.781  0.00  0.00    -0.309 OA
HETATM   12  C   UNK     0     -64.327 -29.196   3.384  0.00  0.00     0.084 A 
HETATM   13  C   UNK     0     -62.413 -27.262   2.772  0.00  0.00     0.090 A 
HETATM   14  C   UNK     0     -63.545 -27.226   2.053  0.00  0.00     0.094 A 
HETATM   15  C   UNK     0     -64.605 -28.219   2.320  0.00  0.00     0.190 A 
HETATM   16  O   UNK     0     -65.651 -28.222   1.686  0.00  0.00    -0.287 OA
HETATM   17  C   UNK     0     -65.262 -30.180   3.713  0.00  0.00     0.118 A 
HETATM   18  C   UNK     0     -64.972 -31.092   4.728  0.00  0.00     0.134 A 
BRANCH  13  19
HETATM   19  C   UNK     0     -61.323 -26.289   2.556  0.00  0.00    -0.002 A 
HETATM   20  C   UNK     0     -60.130 -26.695   1.951  0.00  0.00     0.014 A 
HETATM   21  C   UNK     0     -59.101 -25.775   1.746  0.00  0.00     0.001 A 
HETATM   22  C   UNK     0     -59.261 -24.448   2.144  0.00  0.00     0.000 A 
HETATM   23  C   UNK     0     -60.451 -24.040   2.748  0.00  0.00     0.001 A 
HETATM   24  C   UNK     0     -61.480 -24.959   2.953  0.00  0.00     0.014 A 
ENDBRANCH  13  19
BRANCH  17  25
HETATM   25  O   UNK     0     -66.461 -30.281   3.072  0.00  0.00    -0.357 OA
HETATM   26  H   UNK     0     -66.887 -29.414   2.999  0.00  0.00     0.217 HD
ENDBRANCH  17  25
BRANCH  18  27
HETATM   27  O   UNK     0     -65.878 -32.058   5.059  0.00  0.00    -0.356 OA
HETATM   28  H   UNK     0     -65.493 -32.613   5.759  0.00  0.00     0.218 HD
ENDBRANCH  18  27
ENDBRANCH   7   8
ENDBRANCH   5   7
BRANCH   6  29
HETATM   29  C   UNK     0     -62.905 -34.793   2.844  0.00  0.00     0.172 C 
HETATM   30  O   UNK     0     -63.954 -34.343   2.407  0.00  0.00    -0.648 OA
BRANCH  29  31
HETATM   31  O   UNK     0     -62.030 -35.530   2.119  0.00  0.00    -0.774 OA
HETATM   32  H   UNK     0     -61.198 -35.041   1.940  0.00  0.00     0.167 HD
ENDBRANCH  29  31
ENDBRANCH   6  29
BRANCH   3  33
HETATM   33  O   UNK     0     -62.623 -33.835   8.292  0.00  0.00    -0.388 OA
HETATM   34  H   UNK     0     -62.184 -34.615   8.671  0.00  0.00     0.210 HD
ENDBRANCH   3  33
BRANCH   4  35
HETATM   35  O   UNK     0     -61.932 -36.919   4.693  0.00  0.00    -0.390 OA
HETATM   36  H   UNK     0     -61.516 -37.297   5.487  0.00  0.00     0.210 HD
ENDBRANCH   4  35
BRANCH   2  37
HETATM   37  O   UNK     0     -63.069 -36.589   7.348  0.00  0.00    -0.390 OA
HETATM   38  H   UNK     0     -62.592 -37.407   7.130  0.00  0.00     0.210 HD
ENDBRANCH   2  37
TORSDOF 10
ENDMDL
MODEL 9
REMARK VINA RESULT:      -8.7      6.002     11.156
REMARK  10 active torsions:
REMARK  status: ('A' for Active; 'I' for Inactive)
REMARK    1  A    between atoms: O_2  and  C_15 
REMARK    2  A    between atoms: O_2  and  C_18 
REMARK    3  A    between atoms: O_3  and  C_12 
REMARK    4  A    between atoms: O_4  and  C_13 
REMARK    5  A    between atoms: O_5  and  C_14 
REMARK    6  A    between atoms: O_6  and  C_17 
REMARK    7  A    between atoms: O_9  and  C_20 
REMARK    8  A    between atoms: O_10  and  C_23 
REMARK    9  A    between atoms: C_16  and  C_17 
REMARK   10  A    between atoms: C_25  and  C_27 
ROOT
HETATM    1  O   UNK     0     -61.708 -21.296  -1.596  0.00  0.00    -0.340 OA
HETATM    2  C   UNK     0     -59.632 -19.449  -0.862  0.00  0.00     0.183 C 
HETATM    3  C   UNK     0     -59.428 -20.964  -0.833  0.00  0.00     0.205 C 
HETATM    4  C   UNK     0     -60.779 -19.058  -1.794  0.00  0.00     0.189 C 
HETATM    5  C   UNK     0     -60.753 -21.697  -0.617  0.00  0.00     0.299 C 
HETATM    6  C   UNK     0     -62.014 -19.908  -1.518  0.00  0.00     0.253 C 
ENDROOT
BRANCH   5   7
HETATM    7  O   UNK     0     -60.505 -23.098  -0.730  0.00  0.00    -0.315 OA
BRANCH   7   8
HETATM    8  C   UNK     0     -61.065 -23.897   0.223  0.00  0.00     0.110 A 
HETATM    9  C   UNK     0     -62.403 -24.271   0.102  0.00  0.00     0.078 A 
HETATM   10  C   UNK     0     -62.986 -25.088   1.072  0.00  0.00     0.096 A 
HETATM   11  O   UNK     0     -64.305 -25.422   0.900  0.00  0.00    -0.309 OA
HETATM   12  C   UNK     0     -62.230 -25.527   2.157  0.00  0.00     0.084 A 
HETATM   13  C   UNK     0     -64.908 -26.239   1.844  0.00  0.00     0.090 A 
HETATM   14  C   UNK     0     -64.289 -26.720   2.933  0.00  0.00     0.094 A 
HETATM   15  C   UNK     0     -62.869 -26.386   3.166  0.00  0.00     0.190 A 
HETATM   16  O   UNK     0     -62.267 -26.806   4.145  0.00  0.00    -0.287 OA
HETATM   17  C   UNK     0     -60.889 -25.155   2.282  0.00  0.00     0.118 A 
HETATM   18  C   UNK     0     -60.310 -24.338   1.311  0.00  0.00     0.134 A 
BRANCH  13  19
HETATM   19  C   UNK     0     -66.329 -26.532   1.564  0.00  0.00    -0.002 A 
HETATM   20  C   UNK     0     -66.744 -26.807   0.258  0.00  0.00     0.014 A 
HETATM   21  C   UNK     0     -68.086 -27.085  -0.005  0.00  0.00     0.001 A 
HETATM   22  C   UNK     0     -69.015 -27.089   1.034  0.00  0.00     0.000 A 
HETATM   23  C   UNK     0     -68.604 -26.814   2.339  0.00  0.00     0.001 A 
HETATM   24  C   UNK     0     -67.262 -26.537   2.603  0.00  0.00     0.014 A 
ENDBRANCH  13  19
BRANCH  17  25
HETATM   25  O   UNK     0     -60.120 -25.565   3.330  0.00  0.00    -0.357 OA
HETATM   26  H   UNK     0     -60.585 -26.231   3.859  0.00  0.00     0.217 HD
ENDBRANCH  17  25
BRANCH  18  27
HETATM   27  O   UNK     0     -59.001 -23.967   1.422  0.00  0.00    -0.356 OA
HETATM   28  H   UNK     0     -58.717 -24.112   2.342  0.00  0.00     0.218 HD
ENDBRANCH  18  27
ENDBRANCH   7   8
ENDBRANCH   5   7
BRANCH   6  29
HETATM   29  C   UNK     0     -63.041 -19.722  -2.586  0.00  0.00     0.172 C 
HETATM   30  O   UNK     0     -63.426 -18.642  -3.010  0.00  0.00    -0.648 OA
BRANCH  29  31
HETATM   31  O   UNK     0     -63.498 -20.920  -3.026  0.00  0.00    -0.774 OA
HETATM   32  H   UNK     0     -63.949 -20.846  -3.893  0.00  0.00     0.167 HD
ENDBRANCH  29  31
ENDBRANCH   6  29
BRANCH   3  33
HETATM   33  O   UNK     0     -58.549 -21.303   0.239  0.00  0.00    -0.388 OA
HETATM   34  H   UNK     0     -58.973 -22.008   0.757  0.00  0.00     0.210 HD
ENDBRANCH   3  33
BRANCH   4  35
HETATM   35  O   UNK     0     -61.109 -17.688  -1.578  0.00  0.00    -0.390 OA
HETATM   36  H   UNK     0     -60.935 -17.202  -2.403  0.00  0.00     0.210 HD
ENDBRANCH   4  35
BRANCH   2  37
HETATM   37  O   UNK     0     -58.442 -18.817  -1.336  0.00  0.00    -0.390 OA
HETATM   38  H   UNK     0     -57.972 -18.458  -0.565  0.00  0.00     0.210 HD
ENDBRANCH   2  37
TORSDOF 10
ENDMDL
MODEL 10
REMARK VINA RESULT:      -8.7      6.061     10.581
REMARK  10 active torsions:
REMARK  status: ('A' for Active; 'I' for Inactive)
REMARK    1  A    between atoms: O_2  and  C_15 
REMARK    2  A    between atoms: O_2  and  C_18 
REMARK    3  A    between atoms: O_3  and  C_12 
REMARK    4  A    between atoms: O_4  and  C_13 
REMARK    5  A    between atoms: O_5  and  C_14 
REMARK    6  A    between atoms: O_6  and  C_17 
REMARK    7  A    between atoms: O_9  and  C_20 
REMARK    8  A    between atoms: O_10  and  C_23 
REMARK    9  A    between atoms: C_16  and  C_17 
REMARK   10  A    between atoms: C_25  and  C_27 
ROOT
HETATM    1  O   UNK     0     -60.295 -23.273  -2.331  0.00  0.00    -0.340 OA
HETATM    2  C   UNK     0     -59.469 -20.533  -2.588  0.00  0.00     0.183 C 
HETATM    3  C   UNK     0     -59.109 -21.386  -1.371  0.00  0.00     0.205 C 
HETATM    4  C   UNK     0     -59.798 -21.402  -3.801  0.00  0.00     0.189 C 
HETATM    5  C   UNK     0     -60.140 -22.493  -1.148  0.00  0.00     0.299 C 
HETATM    6  C   UNK     0     -60.782 -22.504  -3.426  0.00  0.00     0.253 C 
ENDROOT
BRANCH   5   7
HETATM    7  O   UNK     0     -59.673 -23.321  -0.082  0.00  0.00    -0.315 OA
BRANCH   7   8
HETATM    8  C   UNK     0     -60.611 -24.069   0.566  0.00  0.00     0.110 A 
HETATM    9  C   UNK     0     -61.883 -24.204   0.008  0.00  0.00     0.078 A 
HETATM   10  C   UNK     0     -62.850 -24.968   0.663  0.00  0.00     0.096 A 
HETATM   11  O   UNK     0     -64.082 -25.064   0.067  0.00  0.00    -0.309 OA
HETATM   12  C   UNK     0     -62.544 -25.592   1.871  0.00  0.00     0.084 A 
HETATM   13  C   UNK     0     -65.060 -25.822   0.691  0.00  0.00     0.090 A 
HETATM   14  C   UNK     0     -64.890 -26.465   1.857  0.00  0.00     0.094 A 
HETATM   15  C   UNK     0     -63.583 -26.389   2.541  0.00  0.00     0.190 A 
HETATM   16  O   UNK     0     -63.385 -26.962   3.604  0.00  0.00    -0.287 OA
HETATM   17  C   UNK     0     -61.272 -25.459   2.433  0.00  0.00     0.118 A 
HETATM   18  C   UNK     0     -60.307 -24.695   1.776  0.00  0.00     0.134 A 
BRANCH  13  19
HETATM   19  C   UNK     0     -66.348 -25.854  -0.033  0.00  0.00    -0.002 A 
HETATM   20  C   UNK     0     -66.756 -24.750  -0.786  0.00  0.00     0.014 A 
HETATM   21  C   UNK     0     -67.971 -24.781  -1.471  0.00  0.00     0.001 A 
HETATM   22  C   UNK     0     -68.781 -25.915  -1.405  0.00  0.00     0.000 A 
HETATM   23  C   UNK     0     -68.376 -27.019  -0.654  0.00  0.00     0.001 A 
HETATM   24  C   UNK     0     -67.161 -26.988   0.030  0.00  0.00     0.014 A 
ENDBRANCH  13  19
BRANCH  17  25
HETATM   25  O   UNK     0     -60.937 -26.055   3.612  0.00  0.00    -0.357 OA
HETATM   26  H   UNK     0     -60.413 -25.455   4.165  0.00  0.00     0.217 HD
ENDBRANCH  17  25
BRANCH  18  27
HETATM   27  O   UNK     0     -59.061 -24.558   2.315  0.00  0.00    -0.356 OA
HETATM   28  H   UNK     0     -59.156 -24.344   3.259  0.00  0.00     0.218 HD
ENDBRANCH  18  27
ENDBRANCH   7   8
ENDBRANCH   5   7
BRANCH   6  29
HETATM   29  C   UNK     0     -60.904 -23.510  -4.524  0.00  0.00     0.172 C 
HETATM   30  O   UNK     0     -61.865 -24.244  -4.700  0.00  0.00    -0.648 OA
BRANCH  29  31
HETATM   31  O   UNK     0     -59.796 -23.503  -5.305  0.00  0.00    -0.774 OA
HETATM   32  H   UNK     0     -59.342 -24.372  -5.305  0.00  0.00     0.167 HD
ENDBRANCH  29  31
ENDBRANCH   6  29
BRANCH   3  33
HETATM   33  O   UNK     0     -59.079 -20.560  -0.206  0.00  0.00    -0.388 OA
HETATM   34  H   UNK     0     -58.451 -19.838  -0.373  0.00  0.00     0.210 HD
ENDBRANCH   3  33
BRANCH   4  35
HETATM   35  O   UNK     0     -60.388 -20.588  -4.813  0.00  0.00    -0.390 OA
HETATM   36  H   UNK     0     -59.727 -19.933  -5.096  0.00  0.00     0.210 HD
ENDBRANCH   4  35
BRANCH   2  37
HETATM   37  O   UNK     0     -58.361 -19.699  -2.929  0.00  0.00    -0.390 OA
HETATM   38  H   UNK     0     -58.429 -18.886  -2.401  0.00  0.00     0.210 HD
ENDBRANCH   2  37
TORSDOF 10
ENDMDL
