MODEL 1
REMARK VINA RESULT:      -9.6      0.000      0.000
REMARK  13 active torsions:
REMARK  status: ('A' for Active; 'I' for Inactive)
REMARK    1  A    between atoms: C_5  and  N_6 
REMARK    2  A    between atoms: C_9  and  N_10 
REMARK    3  A    between atoms: N_10  and  C_11 
REMARK    4  A    between atoms: C_11  and  C_12 
REMARK    5  A    between atoms: C_12  and  C_13 
REMARK    6  A    between atoms: C_13  and  C_14 
REMARK    7  A    between atoms: C_14  and  C_15 
REMARK    8  A    between atoms: C_15  and  C_16 
REMARK    9  A    between atoms: C_16  and  N_17 
REMARK       I    between atoms: N_17  and  C_18 
REMARK   10  A    between atoms: C_18  and  C_20 
REMARK   11  A    between atoms: C_25  and  N_26 
REMARK       I    between atoms: N_26  and  C_27 
REMARK   12  A    between atoms: C_27  and  C_29 
REMARK   13  A    between atoms: C_29  and  C_30 
ROOT
HETATM    1  O   MOL     1     -67.974 -24.719   2.097  1.00 -0.03    -0.273 OA
HETATM    2  C   MOL     1     -66.822 -25.078   1.925  1.00 -0.41     0.224 C 
HETATM    3  C   MOL     1     -66.298 -25.432   0.551  1.00 -0.27     0.106 C 
HETATM    4  C   MOL     1     -64.807 -25.117   0.406  1.00 -0.23     0.044 C 
HETATM    5  C   MOL     1     -64.106 -25.914   1.510  1.00 -0.30     0.180 C 
HETATM    6  C   MOL     1     -64.623 -25.538   2.881  1.00 -0.49     0.247 C 
HETATM    7  O   MOL     1     -63.902 -25.560   3.864  1.00 -0.12    -0.271 OA
HETATM    8  N   MOL     1     -65.925 -25.179   2.933  1.00 -0.04    -0.296 N 
HETATM    9  HN  MOL     1     -66.230 -24.972   3.733  1.00 -0.27     0.171 HD
ENDROOT
BRANCH   5  10
HETATM   10  N   MOL     1     -62.646 -25.753   1.424  1.00  0.05    -0.337 N 
HETATM   11  C   MOL     1     -62.015 -24.483   1.023  1.00 -0.25     0.138 C 
HETATM   12  C   MOL     1     -60.758 -25.183   0.475  1.00 -0.27     0.070 C 
HETATM   13  C   MOL     1     -59.528 -24.454  -0.022  1.00 -0.20     0.011 C 
HETATM   14  C   MOL     1     -60.411 -26.216   1.550  1.00 -0.40     0.112 C 
HETATM   15  C   MOL     1     -58.363 -25.117  -0.097  1.00 -0.28     0.025 C 
HETATM   16  C   MOL     1     -58.291 -26.522   0.304  1.00 -0.47    -0.001 C 
HETATM   17  C   MOL     1     -59.245 -27.044   1.075  1.00 -0.52    -0.012 C 
HETATM   18  C   MOL     1     -61.803 -26.763   1.689  1.00 -0.44     0.229 C 
HETATM   19  O   MOL     1     -62.103 -27.912   1.984  1.00 -0.63    -0.273 OA
BRANCH  13  20
HETATM   20  N   MOL     1     -59.764 -23.159  -0.382  1.00  0.04    -0.393 N 
HETATM   21  HN  MOL     1     -60.480 -22.982  -0.863  1.00 -0.01     0.159 HD
BRANCH  20  22
HETATM   22  C   MOL     1     -59.167 -22.059   0.389  1.00 -0.24     0.119 C 
BRANCH  22  23
HETATM   23  C   MOL     1     -58.238 -21.149  -0.431  1.00 -0.09     0.020 C 
BRANCH  23  24
HETATM   24  C   MOL     1     -58.846 -19.739  -0.450  1.00 -0.19     0.002 C 
BRANCH  24  25
HETATM   25  C   MOL     1     -59.740 -19.559  -1.686  1.00 -0.35     0.002 C 
BRANCH  25  26
HETATM   26  C   MOL     1     -60.879 -18.595  -1.324  1.00 -0.42     0.020 C 
BRANCH  26  27
HETATM   27  C   MOL     1     -62.193 -19.370  -1.156  1.00 -0.29     0.123 C 
BRANCH  27  28
HETATM   28  N   MOL     1     -61.945 -20.784  -1.469  1.00 -0.04    -0.357 N 
HETATM   29  C   MOL     1     -62.433 -21.318  -2.611  1.00 -0.29     0.254 C 
HETATM   30  O   MOL     1     -63.089 -20.668  -3.422  1.00 -0.19    -0.268 OA
HETATM   31  HN  MOL     1     -61.462 -21.270  -0.917  1.00 -0.09     0.162 HD
BRANCH  29  32
HETATM   32  C   MOL     1     -62.197 -22.754  -2.928  1.00 -0.21     0.061 A 
HETATM   33  C   MOL     1     -62.971 -23.742  -2.350  1.00 -0.36     0.038 A 
HETATM   34  C   MOL     1     -62.769 -25.062  -2.663  1.00 -0.38     0.117 A 
HETATM   35  N   MOL     1     -61.833 -25.491  -3.530  1.00 -0.12    -0.271 NA
HETATM   36  C   MOL     1     -61.083 -24.528  -4.090  1.00 -0.27     0.146 A 
HETATM   37  C   MOL     1     -61.219 -23.176  -3.825  1.00 -0.14     0.068 A 
BRANCH  37  38
HETATM   38  N   MOL     1     -60.372 -22.252  -4.448  1.00  0.07    -0.325 N 
HETATM   39  C   MOL     1     -59.077 -22.032  -4.142  1.00 -0.29     0.226 C 
HETATM   40  O   MOL     1     -58.451 -22.639  -3.285  1.00 -0.10    -0.273 OA
HETATM   41  HN  MOL     1     -60.720 -21.776  -5.099  1.00  0.05     0.169 HD
BRANCH  39  42
HETATM   42  C   MOL     1     -58.437 -20.958  -4.997  1.00 -0.34     0.141 C 
BRANCH  42  43
HETATM   43  C   MOL     1     -57.127 -21.457  -5.579  1.00 -0.21    -0.048 A 
HETATM   44  C   MOL     1     -56.031 -20.625  -5.632  1.00 -0.31     0.007 A 
HETATM   45  C   MOL     1     -54.844 -21.078  -6.159  1.00 -0.36     0.002 A 
HETATM   46  C   MOL     1     -54.748 -22.366  -6.636  1.00 -0.30     0.024 A 
HETATM   47  C   MOL     1     -55.842 -23.200  -6.584  1.00 -0.25     0.034 A 
HETATM   48 CL   MOL     1     -55.724 -24.828  -7.185  1.00 -0.85    -0.084 Cl
HETATM   49  C   MOL     1     -57.031 -22.745  -6.055  1.00 -0.22     0.031 A 
ENDBRANCH  42  43
ENDBRANCH  39  42
ENDBRANCH  37  38
ENDBRANCH  29  32
ENDBRANCH  27  28
ENDBRANCH  26  27
ENDBRANCH  25  26
ENDBRANCH  24  25
ENDBRANCH  23  24
ENDBRANCH  22  23
ENDBRANCH  20  22
ENDBRANCH  13  20
ENDBRANCH   5  10
TORSDOF 13
ENDMDL
MODEL 2
REMARK VINA RESULT:      -9.3      2.650      8.764
REMARK  13 active torsions:
REMARK  status: ('A' for Active; 'I' for Inactive)
REMARK    1  A    between atoms: C_5  and  N_6 
REMARK    2  A    between atoms: C_9  and  N_10 
REMARK    3  A    between atoms: N_10  and  C_11 
REMARK    4  A    between atoms: C_11  and  C_12 
REMARK    5  A    between atoms: C_12  and  C_13 
REMARK    6  A    between atoms: C_13  and  C_14 
REMARK    7  A    between atoms: C_14  and  C_15 
REMARK    8  A    between atoms: C_15  and  C_16 
REMARK    9  A    between atoms: C_16  and  N_17 
REMARK       I    between atoms: N_17  and  C_18 
REMARK   10  A    between atoms: C_18  and  C_20 
REMARK   11  A    between atoms: C_25  and  N_26 
REMARK       I    between atoms: N_26  and  C_27 
REMARK   12  A    between atoms: C_27  and  C_29 
REMARK   13  A    between atoms: C_29  and  C_30 
ROOT
HETATM    1  O   MOL     1     -53.840 -22.563  -8.743  1.00 -0.03    -0.273 OA
HETATM    2  C   MOL     1     -54.723 -22.121  -8.028  1.00 -0.41     0.224 C 
HETATM    3  C   MOL     1     -56.142 -22.636  -8.108  1.00 -0.27     0.106 C 
HETATM    4  C   MOL     1     -56.858 -22.562  -6.757  1.00 -0.23     0.044 C 
HETATM    5  C   MOL     1     -56.805 -21.089  -6.340  1.00 -0.30     0.180 C 
HETATM    6  C   MOL     1     -55.380 -20.589  -6.244  1.00 -0.49     0.247 C 
HETATM    7  O   MOL     1     -55.055 -19.737  -5.434  1.00 -0.12    -0.271 OA
HETATM    8  N   MOL     1     -54.507 -21.150  -7.110  1.00 -0.04    -0.296 N 
HETATM    9  HN  MOL     1     -53.680 -20.851  -7.062  1.00 -0.27     0.171 HD
ENDROOT
BRANCH   5  10
HETATM   10  N   MOL     1     -57.535 -20.876  -5.080  1.00  0.05    -0.337 N 
HETATM   11  C   MOL     1     -58.573 -19.842  -4.937  1.00 -0.25     0.138 C 
HETATM   12  C   MOL     1     -58.342 -19.699  -3.421  1.00 -0.27     0.070 C 
HETATM   13  C   MOL     1     -59.195 -18.845  -2.508  1.00 -0.20     0.011 C 
HETATM   14  C   MOL     1     -58.245 -21.143  -2.924  1.00 -0.40     0.112 C 
HETATM   15  C   MOL     1     -59.180 -19.088  -1.187  1.00 -0.28     0.025 C 
HETATM   16  C   MOL     1     -58.353 -20.169  -0.649  1.00 -0.47    -0.001 C 
HETATM   17  C   MOL     1     -57.912 -21.133  -1.455  1.00 -0.52    -0.012 C 
HETATM   18  C   MOL     1     -57.281 -21.603  -3.981  1.00 -0.44     0.229 C 
HETATM   19  O   MOL     1     -56.429 -22.471  -3.855  1.00 -0.63    -0.273 OA
BRANCH  13  20
HETATM   20  N   MOL     1     -59.887 -17.865  -3.157  1.00  0.04    -0.393 N 
HETATM   21  HN  MOL     1     -59.442 -17.320  -3.687  1.00 -0.01     0.159 HD
BRANCH  20  22
HETATM   22  C   MOL     1     -61.334 -18.003  -3.375  1.00 -0.24     0.119 C 
BRANCH  22  23
HETATM   23  C   MOL     1     -62.060 -18.802  -2.282  1.00 -0.09     0.020 C 
BRANCH  23  24
HETATM   24  C   MOL     1     -62.936 -19.862  -2.967  1.00 -0.19     0.002 C 
BRANCH  24  25
HETATM   25  C   MOL     1     -62.068 -21.010  -3.503  1.00 -0.35     0.002 C 
BRANCH  25  26
HETATM   26  C   MOL     1     -61.625 -21.877  -2.315  1.00 -0.42     0.020 C 
BRANCH  26  27
HETATM   27  C   MOL     1     -62.028 -23.339  -2.550  1.00 -0.29     0.123 C 
BRANCH  27  28
HETATM   28  N   MOL     1     -63.290 -23.596  -1.840  1.00 -0.04    -0.357 N 
HETATM   29  C   MOL     1     -64.136 -24.548  -2.293  1.00 -0.29     0.254 C 
HETATM   30  O   MOL     1     -63.902 -25.227  -3.290  1.00 -0.19    -0.268 OA
HETATM   31  HN  MOL     1     -63.476 -23.140  -1.112  1.00 -0.09     0.162 HD
BRANCH  29  32
HETATM   32  C   MOL     1     -65.423 -24.804  -1.588  1.00 -0.21     0.061 A 
HETATM   33  C   MOL     1     -66.626 -24.418  -2.148  1.00 -0.36     0.038 A 
HETATM   34  C   MOL     1     -67.811 -24.679  -1.508  1.00 -0.38     0.117 A 
HETATM   35  N   MOL     1     -67.899 -25.310  -0.323  1.00 -0.12    -0.271 NA
HETATM   36  C   MOL     1     -66.728 -25.684   0.219  1.00 -0.27     0.146 A 
HETATM   37  C   MOL     1     -65.490 -25.456  -0.359  1.00 -0.14     0.068 A 
BRANCH  37  38
HETATM   38  N   MOL     1     -64.325 -25.869   0.298  1.00  0.07    -0.325 N 
HETATM   39  C   MOL     1     -63.815 -25.327   1.423  1.00 -0.29     0.226 C 
HETATM   40  O   MOL     1     -64.324 -24.407   2.046  1.00 -0.10    -0.273 OA
HETATM   41  HN  MOL     1     -63.891 -26.545  -0.058  1.00  0.05     0.169 HD
BRANCH  39  42
HETATM   42  C   MOL     1     -62.535 -25.997   1.879  1.00 -0.34     0.141 C 
BRANCH  42  43
HETATM   43  C   MOL     1     -61.340 -25.104   1.595  1.00 -0.21    -0.048 A 
HETATM   44  C   MOL     1     -60.906 -24.205   2.543  1.00 -0.31     0.007 A 
HETATM   45  C   MOL     1     -59.823 -23.397   2.285  1.00 -0.36     0.002 A 
HETATM   46  C   MOL     1     -59.169 -23.486   1.077  1.00 -0.30     0.024 A 
HETATM   47  C   MOL     1     -59.600 -24.385   0.127  1.00 -0.25     0.034 A 
HETATM   48 CL   MOL     1     -58.776 -24.499  -1.400  1.00 -0.85    -0.084 Cl
HETATM   49  C   MOL     1     -60.685 -25.193   0.387  1.00 -0.22     0.031 A 
ENDBRANCH  42  43
ENDBRANCH  39  42
ENDBRANCH  37  38
ENDBRANCH  29  32
ENDBRANCH  27  28
ENDBRANCH  26  27
ENDBRANCH  25  26
ENDBRANCH  24  25
ENDBRANCH  23  24
ENDBRANCH  22  23
ENDBRANCH  20  22
ENDBRANCH  13  20
ENDBRANCH   5  10
TORSDOF 13
ENDMDL
MODEL 3
REMARK VINA RESULT:      -8.9      2.429      4.587
REMARK  13 active torsions:
REMARK  status: ('A' for Active; 'I' for Inactive)
REMARK    1  A    between atoms: C_5  and  N_6 
REMARK    2  A    between atoms: C_9  and  N_10 
REMARK    3  A    between atoms: N_10  and  C_11 
REMARK    4  A    between atoms: C_11  and  C_12 
REMARK    5  A    between atoms: C_12  and  C_13 
REMARK    6  A    between atoms: C_13  and  C_14 
REMARK    7  A    between atoms: C_14  and  C_15 
REMARK    8  A    between atoms: C_15  and  C_16 
REMARK    9  A    between atoms: C_16  and  N_17 
REMARK       I    between atoms: N_17  and  C_18 
REMARK   10  A    between atoms: C_18  and  C_20 
REMARK   11  A    between atoms: C_25  and  N_26 
REMARK       I    between atoms: N_26  and  C_27 
REMARK   12  A    between atoms: C_27  and  C_29 
REMARK   13  A    between atoms: C_29  and  C_30 
ROOT
HETATM    1  O   MOL     1     -70.645 -26.081  -3.148  1.00 -0.03    -0.273 OA
HETATM    2  C   MOL     1     -69.943 -26.099  -2.152  1.00 -0.41     0.224 C 
HETATM    3  C   MOL     1     -69.507 -27.397  -1.512  1.00 -0.27     0.106 C 
HETATM    4  C   MOL     1     -68.138 -27.275  -0.837  1.00 -0.23     0.044 C 
HETATM    5  C   MOL     1     -68.282 -26.149   0.191  1.00 -0.30     0.180 C 
HETATM    6  C   MOL     1     -68.700 -24.849  -0.462  1.00 -0.49     0.247 C 
HETATM    7  O   MOL     1     -68.335 -23.770  -0.028  1.00 -0.12    -0.271 OA
HETATM    8  N   MOL     1     -69.495 -24.974  -1.548  1.00 -0.04    -0.296 N 
HETATM    9  HN  MOL     1     -69.748 -24.217  -1.921  1.00 -0.27     0.171 HD
ENDROOT
BRANCH   5  10
HETATM   10  N   MOL     1     -67.042 -25.986   0.965  1.00  0.05    -0.337 N 
HETATM   11  C   MOL     1     -65.750 -25.676   0.329  1.00 -0.25     0.138 C 
HETATM   12  C   MOL     1     -64.939 -26.343   1.455  1.00 -0.27     0.070 C 
HETATM   13  C   MOL     1     -63.429 -26.302   1.553  1.00 -0.20     0.011 C 
HETATM   14  C   MOL     1     -65.607 -25.843   2.738  1.00 -0.40     0.112 C 
HETATM   15  C   MOL     1     -62.846 -26.547   2.737  1.00 -0.28     0.025 C 
HETATM   16  C   MOL     1     -63.667 -26.842   3.913  1.00 -0.47    -0.001 C 
HETATM   17  C   MOL     1     -64.959 -26.515   3.921  1.00 -0.52    -0.012 C 
HETATM   18  C   MOL     1     -67.014 -26.131   2.300  1.00 -0.44     0.229 C 
HETATM   19  O   MOL     1     -67.949 -26.441   3.024  1.00 -0.63    -0.273 OA
BRANCH  13  20
HETATM   20  N   MOL     1     -62.807 -26.040   0.367  1.00  0.04    -0.393 N 
HETATM   21  HN  MOL     1     -62.878 -26.631  -0.282  1.00 -0.01     0.159 HD
BRANCH  20  22
HETATM   22  C   MOL     1     -62.468 -24.658   0.001  1.00 -0.24     0.119 C 
BRANCH  22  23
HETATM   23  C   MOL     1     -60.969 -24.331   0.098  1.00 -0.09     0.020 C 
BRANCH  23  24
HETATM   24  C   MOL     1     -60.188 -25.476  -0.563  1.00 -0.19     0.002 C 
BRANCH  24  25
HETATM   25  C   MOL     1     -58.734 -25.054  -0.820  1.00 -0.35     0.002 C 
BRANCH  25  26
HETATM   26  C   MOL     1     -58.607 -23.551  -0.531  1.00 -0.42     0.020 C 
BRANCH  26  27
HETATM   27  C   MOL     1     -58.393 -22.779  -1.840  1.00 -0.29     0.123 C 
BRANCH  27  28
HETATM   28  N   MOL     1     -59.290 -21.614  -1.848  1.00 -0.04    -0.357 N 
HETATM   29  C   MOL     1     -60.151 -21.433  -2.874  1.00 -0.29     0.254 C 
HETATM   30  O   MOL     1     -60.226 -22.209  -3.824  1.00 -0.19    -0.268 OA
HETATM   31  HN  MOL     1     -59.273 -21.053  -1.172  1.00 -0.09     0.162 HD
BRANCH  29  32
HETATM   32  C   MOL     1     -61.054 -20.248  -2.896  1.00 -0.21     0.061 A 
HETATM   33  C   MOL     1     -62.254 -20.261  -2.211  1.00 -0.36     0.038 A 
HETATM   34  C   MOL     1     -63.071 -19.159  -2.212  1.00 -0.38     0.117 A 
HETATM   35  N   MOL     1     -62.782 -18.013  -2.857  1.00 -0.12    -0.271 NA
HETATM   36  C   MOL     1     -61.615 -18.005  -3.521  1.00 -0.27     0.146 A 
HETATM   37  C   MOL     1     -60.737 -19.074  -3.574  1.00 -0.14     0.068 A 
BRANCH  37  38
HETATM   38  N   MOL     1     -59.552 -18.970  -4.312  1.00  0.07    -0.325 N 
HETATM   39  C   MOL     1     -58.326 -18.714  -3.812  1.00 -0.29     0.226 C 
HETATM   40  O   MOL     1     -58.076 -18.563  -2.624  1.00 -0.10    -0.273 OA
HETATM   41  HN  MOL     1     -59.618 -19.087  -5.180  1.00  0.05     0.169 HD
BRANCH  39  42
HETATM   42  C   MOL     1     -57.248 -18.658  -4.875  1.00 -0.34     0.141 C 
BRANCH  42  43
HETATM   43  C   MOL     1     -56.766 -20.057  -5.213  1.00 -0.21    -0.048 A 
HETATM   44  C   MOL     1     -55.925 -20.727  -4.353  1.00 -0.31     0.007 A 
HETATM   45  C   MOL     1     -55.489 -21.996  -4.661  1.00 -0.36     0.002 A 
HETATM   46  C   MOL     1     -55.894 -22.599  -5.829  1.00 -0.30     0.024 A 
HETATM   47  C   MOL     1     -56.737 -21.933  -6.691  1.00 -0.25     0.034 A 
HETATM   48 CL   MOL     1     -57.251 -22.693  -8.168  1.00 -0.85    -0.084 Cl
HETATM   49  C   MOL     1     -57.172 -20.662  -6.382  1.00 -0.22     0.031 A 
ENDBRANCH  42  43
ENDBRANCH  39  42
ENDBRANCH  37  38
ENDBRANCH  29  32
ENDBRANCH  27  28
ENDBRANCH  26  27
ENDBRANCH  25  26
ENDBRANCH  24  25
ENDBRANCH  23  24
ENDBRANCH  22  23
ENDBRANCH  20  22
ENDBRANCH  13  20
ENDBRANCH   5  10
TORSDOF 13
ENDMDL
MODEL 4
REMARK VINA RESULT:      -8.7      2.773      5.567
REMARK  13 active torsions:
REMARK  status: ('A' for Active; 'I' for Inactive)
REMARK    1  A    between atoms: C_5  and  N_6 
REMARK    2  A    between atoms: C_9  and  N_10 
REMARK    3  A    between atoms: N_10  and  C_11 
REMARK    4  A    between atoms: C_11  and  C_12 
REMARK    5  A    between atoms: C_12  and  C_13 
REMARK    6  A    between atoms: C_13  and  C_14 
REMARK    7  A    between atoms: C_14  and  C_15 
REMARK    8  A    between atoms: C_15  and  C_16 
REMARK    9  A    between atoms: C_16  and  N_17 
REMARK       I    between atoms: N_17  and  C_18 
REMARK   10  A    between atoms: C_18  and  C_20 
REMARK   11  A    between atoms: C_25  and  N_26 
REMARK       I    between atoms: N_26  and  C_27 
REMARK   12  A    between atoms: C_27  and  C_29 
REMARK   13  A    between atoms: C_29  and  C_30 
ROOT
HETATM    1  O   MOL     1     -70.508 -26.087  -2.926  1.00 -0.03    -0.273 OA
HETATM    2  C   MOL     1     -69.739 -26.074  -1.981  1.00 -0.41     0.224 C 
HETATM    3  C   MOL     1     -69.192 -27.351  -1.385  1.00 -0.27     0.106 C 
HETATM    4  C   MOL     1     -67.787 -27.161  -0.806  1.00 -0.23     0.044 C 
HETATM    5  C   MOL     1     -67.918 -26.050   0.240  1.00 -0.30     0.180 C 
HETATM    6  C   MOL     1     -68.448 -24.771  -0.370  1.00 -0.49     0.247 C 
HETATM    7  O   MOL     1     -68.110 -23.676   0.049  1.00 -0.12    -0.271 OA
HETATM    8  N   MOL     1     -69.309 -24.930  -1.399  1.00 -0.04    -0.296 N 
HETATM    9  HN  MOL     1     -69.627 -24.186  -1.746  1.00 -0.27     0.171 HD
ENDROOT
BRANCH   5  10
HETATM   10  N   MOL     1     -66.637 -25.827   0.928  1.00  0.05    -0.337 N 
HETATM   11  C   MOL     1     -65.417 -25.418   0.210  1.00 -0.25     0.138 C 
HETATM   12  C   MOL     1     -64.485 -26.059   1.255  1.00 -0.27     0.070 C 
HETATM   13  C   MOL     1     -62.978 -25.924   1.246  1.00 -0.20     0.011 C 
HETATM   14  C   MOL     1     -65.087 -25.634   2.597  1.00 -0.40     0.112 C 
HETATM   15  C   MOL     1     -62.295 -26.159   2.378  1.00 -0.28     0.025 C 
HETATM   16  C   MOL     1     -63.008 -26.535   3.600  1.00 -0.47    -0.001 C 
HETATM   17  C   MOL     1     -64.313 -26.293   3.710  1.00 -0.52    -0.012 C 
HETATM   18  C   MOL     1     -66.502 -26.002   2.252  1.00 -0.44     0.229 C 
HETATM   19  O   MOL     1     -67.360 -26.389   3.033  1.00 -0.63    -0.273 OA
BRANCH  13  20
HETATM   20  N   MOL     1     -62.462 -25.593   0.027  1.00  0.04    -0.393 N 
HETATM   21  HN  MOL     1     -62.959 -25.728  -0.688  1.00 -0.01     0.159 HD
BRANCH  20  22
HETATM   22  C   MOL     1     -61.370 -24.615  -0.072  1.00 -0.24     0.119 C 
BRANCH  22  23
HETATM   23  C   MOL     1     -59.965 -25.225   0.057  1.00 -0.09     0.020 C 
BRANCH  23  24
HETATM   24  C   MOL     1     -59.036 -24.161   0.660  1.00 -0.19     0.002 C 
BRANCH  24  25
HETATM   25  C   MOL     1     -58.859 -22.989  -0.315  1.00 -0.35     0.002 C 
BRANCH  25  26
HETATM   26  C   MOL     1     -58.929 -21.679   0.484  1.00 -0.42     0.020 C 
BRANCH  26  27
HETATM   27  C   MOL     1     -58.205 -20.558  -0.276  1.00 -0.29     0.123 C 
BRANCH  27  28
HETATM   28  N   MOL     1     -57.778 -21.079  -1.582  1.00 -0.04    -0.357 N 
HETATM   29  C   MOL     1     -57.453 -20.222  -2.576  1.00 -0.29     0.254 C 
HETATM   30  O   MOL     1     -57.496 -19.002  -2.443  1.00 -0.19    -0.268 OA
HETATM   31  HN  MOL     1     -57.717 -21.948  -1.701  1.00 -0.09     0.162 HD
BRANCH  29  32
HETATM   32  C   MOL     1     -57.032 -20.743  -3.907  1.00 -0.21     0.061 A 
HETATM   33  C   MOL     1     -55.699 -20.762  -4.270  1.00 -0.36     0.038 A 
HETATM   34  C   MOL     1     -55.312 -21.265  -5.486  1.00 -0.38     0.117 A 
HETATM   35  N   MOL     1     -56.169 -21.765  -6.396  1.00 -0.12    -0.271 NA
HETATM   36  C   MOL     1     -57.463 -21.744  -6.040  1.00 -0.27     0.146 A 
HETATM   37  C   MOL     1     -57.936 -21.251  -4.836  1.00 -0.14     0.068 A 
BRANCH  37  38
HETATM   38  N   MOL     1     -59.311 -21.257  -4.569  1.00  0.07    -0.325 N 
HETATM   39  C   MOL     1     -59.991 -22.235  -3.936  1.00 -0.29     0.226 C 
HETATM   40  O   MOL     1     -59.487 -23.250  -3.479  1.00 -0.10    -0.273 OA
HETATM   41  HN  MOL     1     -59.767 -20.556  -4.837  1.00  0.05     0.169 HD
BRANCH  39  42
HETATM   42  C   MOL     1     -61.473 -21.944  -3.809  1.00 -0.34     0.141 C 
BRANCH  42  43
HETATM   43  C   MOL     1     -61.697 -20.697  -2.975  1.00 -0.21    -0.048 A 
HETATM   44  C   MOL     1     -61.609 -20.757  -1.602  1.00 -0.31     0.007 A 
HETATM   45  C   MOL     1     -61.812 -19.625  -0.846  1.00 -0.36     0.002 A 
HETATM   46  C   MOL     1     -62.103 -18.428  -1.461  1.00 -0.30     0.024 A 
HETATM   47  C   MOL     1     -62.190 -18.365  -2.833  1.00 -0.25     0.034 A 
HETATM   48 CL   MOL     1     -62.557 -16.854  -3.613  1.00 -0.85    -0.084 Cl
HETATM   49  C   MOL     1     -61.987 -19.499  -3.589  1.00 -0.22     0.031 A 
ENDBRANCH  42  43
ENDBRANCH  39  42
ENDBRANCH  37  38
ENDBRANCH  29  32
ENDBRANCH  27  28
ENDBRANCH  26  27
ENDBRANCH  25  26
ENDBRANCH  24  25
ENDBRANCH  23  24
ENDBRANCH  22  23
ENDBRANCH  20  22
ENDBRANCH  13  20
ENDBRANCH   5  10
TORSDOF 13
ENDMDL
MODEL 5
REMARK VINA RESULT:      -8.1      4.556      8.602
REMARK  13 active torsions:
REMARK  status: ('A' for Active; 'I' for Inactive)
REMARK    1  A    between atoms: C_5  and  N_6 
REMARK    2  A    between atoms: C_9  and  N_10 
REMARK    3  A    between atoms: N_10  and  C_11 
REMARK    4  A    between atoms: C_11  and  C_12 
REMARK    5  A    between atoms: C_12  and  C_13 
REMARK    6  A    between atoms: C_13  and  C_14 
REMARK    7  A    between atoms: C_14  and  C_15 
REMARK    8  A    between atoms: C_15  and  C_16 
REMARK    9  A    between atoms: C_16  and  N_17 
REMARK       I    between atoms: N_17  and  C_18 
REMARK   10  A    between atoms: C_18  and  C_20 
REMARK   11  A    between atoms: C_25  and  N_26 
REMARK       I    between atoms: N_26  and  C_27 
REMARK   12  A    between atoms: C_27  and  C_29 
REMARK   13  A    between atoms: C_29  and  C_30 
ROOT
HETATM    1  O   MOL     1     -64.308 -24.252   1.132  1.00 -0.03    -0.273 OA
HETATM    2  C   MOL     1     -64.097 -25.115   1.966  1.00 -0.41     0.224 C 
HETATM    3  C   MOL     1     -64.912 -25.208   3.236  1.00 -0.27     0.106 C 
HETATM    4  C   MOL     1     -65.044 -26.651   3.730  1.00 -0.23     0.044 C 
HETATM    5  C   MOL     1     -63.610 -27.153   3.931  1.00 -0.30     0.180 C 
HETATM    6  C   MOL     1     -62.809 -27.073   2.650  1.00 -0.49     0.247 C 
HETATM    7  O   MOL     1     -61.933 -27.882   2.393  1.00 -0.12    -0.271 OA
HETATM    8  N   MOL     1     -63.133 -26.054   1.823  1.00 -0.04    -0.296 N 
HETATM    9  HN  MOL     1     -62.659 -26.001   1.083  1.00 -0.27     0.171 HD
ENDROOT
BRANCH   5  10
HETATM   10  N   MOL     1     -63.606 -28.516   4.484  1.00  0.05    -0.337 N 
HETATM   11  C   MOL     1     -64.425 -29.600   3.914  1.00 -0.25     0.138 C 
HETATM   12  C   MOL     1     -64.509 -30.355   5.253  1.00 -0.27     0.070 C 
HETATM   13  C   MOL     1     -65.133 -31.724   5.420  1.00 -0.20     0.011 C 
HETATM   14  C   MOL     1     -63.076 -30.314   5.791  1.00 -0.40     0.112 C 
HETATM   15  C   MOL     1     -64.812 -32.461   6.495  1.00 -0.28     0.025 C 
HETATM   16  C   MOL     1     -63.865 -31.943   7.484  1.00 -0.47    -0.001 C 
HETATM   17  C   MOL     1     -63.050 -30.939   7.162  1.00 -0.52    -0.012 C 
HETATM   18  C   MOL     1     -62.867 -28.846   5.555  1.00 -0.44     0.229 C 
HETATM   19  O   MOL     1     -62.160 -28.099   6.217  1.00 -0.63    -0.273 OA
BRANCH  13  20
HETATM   20  N   MOL     1     -66.013 -32.052   4.429  1.00  0.04    -0.393 N 
HETATM   21  HN  MOL     1     -66.687 -31.507   4.271  1.00 -0.01     0.159 HD
BRANCH  20  22
HETATM   22  C   MOL     1     -65.607 -32.968   3.355  1.00 -0.24     0.119 C 
BRANCH  22  23
HETATM   23  C   MOL     1     -66.754 -33.820   2.789  1.00 -0.09     0.020 C 
BRANCH  23  24
HETATM   24  C   MOL     1     -67.714 -32.887   2.036  1.00 -0.19     0.002 C 
BRANCH  24  25
HETATM   25  C   MOL     1     -66.932 -31.770   1.330  1.00 -0.35     0.002 C 
BRANCH  25  26
HETATM   26  C   MOL     1     -67.910 -30.975   0.452  1.00 -0.42     0.020 C 
BRANCH  26  27
HETATM   27  C   MOL     1     -67.147 -30.254  -0.668  1.00 -0.29     0.123 C 
BRANCH  27  28
HETATM   28  N   MOL     1     -67.632 -28.869  -0.748  1.00 -0.04    -0.357 N 
HETATM   29  C   MOL     1     -67.061 -27.909   0.013  1.00 -0.29     0.254 C 
HETATM   30  O   MOL     1     -66.134 -28.138   0.787  1.00 -0.19    -0.268 OA
HETATM   31  HN  MOL     1     -68.280 -28.671  -1.308  1.00 -0.09     0.162 HD
BRANCH  29  32
HETATM   32  C   MOL     1     -67.556 -26.505  -0.052  1.00 -0.21     0.061 A 
HETATM   33  C   MOL     1     -68.767 -26.156   0.515  1.00 -0.36     0.038 A 
HETATM   34  C   MOL     1     -69.209 -24.858   0.475  1.00 -0.38     0.117 A 
HETATM   35  N   MOL     1     -68.524 -23.851  -0.098  1.00 -0.12    -0.271 NA
HETATM   36  C   MOL     1     -67.349 -24.195  -0.648  1.00 -0.27     0.146 A 
HETATM   37  C   MOL     1     -66.833 -25.480  -0.655  1.00 -0.14     0.068 A 
BRANCH  37  38
HETATM   38  N   MOL     1     -65.604 -25.738  -1.274  1.00  0.07    -0.325 N 
HETATM   39  C   MOL     1     -65.023 -24.982  -2.229  1.00 -0.29     0.226 C 
HETATM   40  O   MOL     1     -65.486 -23.939  -2.669  1.00 -0.10    -0.273 OA
HETATM   41  HN  MOL     1     -65.174 -26.457  -1.011  1.00  0.05     0.169 HD
BRANCH  39  42
HETATM   42  C   MOL     1     -63.695 -25.536  -2.701  1.00 -0.34     0.141 C 
BRANCH  42  43
HETATM   43  C   MOL     1     -62.558 -24.953  -1.882  1.00 -0.21    -0.048 A 
HETATM   44  C   MOL     1     -61.640 -25.785  -1.281  1.00 -0.31     0.007 A 
HETATM   45  C   MOL     1     -60.609 -25.255  -0.539  1.00 -0.36     0.002 A 
HETATM   46  C   MOL     1     -60.491 -23.891  -0.397  1.00 -0.30     0.024 A 
HETATM   47  C   MOL     1     -61.406 -23.057  -0.999  1.00 -0.25     0.034 A 
HETATM   48 CL   MOL     1     -61.260 -21.333  -0.822  1.00 -0.85    -0.084 Cl
HETATM   49  C   MOL     1     -62.439 -23.588  -1.741  1.00 -0.22     0.031 A 
ENDBRANCH  42  43
ENDBRANCH  39  42
ENDBRANCH  37  38
ENDBRANCH  29  32
ENDBRANCH  27  28
ENDBRANCH  26  27
ENDBRANCH  25  26
ENDBRANCH  24  25
ENDBRANCH  23  24
ENDBRANCH  22  23
ENDBRANCH  20  22
ENDBRANCH  13  20
ENDBRANCH   5  10
TORSDOF 13
ENDMDL
MODEL 6
REMARK VINA RESULT:      -8.1      2.921      4.590
REMARK  13 active torsions:
REMARK  status: ('A' for Active; 'I' for Inactive)
REMARK    1  A    between atoms: C_5  and  N_6 
REMARK    2  A    between atoms: C_9  and  N_10 
REMARK    3  A    between atoms: N_10  and  C_11 
REMARK    4  A    between atoms: C_11  and  C_12 
REMARK    5  A    between atoms: C_12  and  C_13 
REMARK    6  A    between atoms: C_13  and  C_14 
REMARK    7  A    between atoms: C_14  and  C_15 
REMARK    8  A    between atoms: C_15  and  C_16 
REMARK    9  A    between atoms: C_16  and  N_17 
REMARK       I    between atoms: N_17  and  C_18 
REMARK   10  A    between atoms: C_18  and  C_20 
REMARK   11  A    between atoms: C_25  and  N_26 
REMARK       I    between atoms: N_26  and  C_27 
REMARK   12  A    between atoms: C_27  and  C_29 
REMARK   13  A    between atoms: C_29  and  C_30 
ROOT
HETATM    1  O   MOL     1     -67.954 -24.016  -0.205  1.00 -0.03    -0.273 OA
HETATM    2  C   MOL     1     -66.826 -24.459  -0.072  1.00 -0.41     0.224 C 
HETATM    3  C   MOL     1     -66.141 -25.231  -1.175  1.00 -0.27     0.106 C 
HETATM    4  C   MOL     1     -64.622 -25.040  -1.155  1.00 -0.23     0.044 C 
HETATM    5  C   MOL     1     -64.165 -25.496   0.234  1.00 -0.30     0.180 C 
HETATM    6  C   MOL     1     -64.842 -24.704   1.331  1.00 -0.49     0.247 C 
HETATM    7  O   MOL     1     -64.278 -24.460   2.384  1.00 -0.12    -0.271 OA
HETATM    8  N   MOL     1     -66.100 -24.290   1.058  1.00 -0.04    -0.296 N 
HETATM    9  HN  MOL     1     -66.499 -23.839   1.701  1.00 -0.27     0.171 HD
ENDROOT
BRANCH   5  10
HETATM   10  N   MOL     1     -62.700 -25.431   0.350  1.00  0.05    -0.337 N 
HETATM   11  C   MOL     1     -61.904 -24.379  -0.304  1.00 -0.25     0.138 C 
HETATM   12  C   MOL     1     -60.649 -25.268  -0.395  1.00 -0.27     0.070 C 
HETATM   13  C   MOL     1     -59.298 -24.783  -0.875  1.00 -0.20     0.011 C 
HETATM   14  C   MOL     1     -60.561 -25.925   0.985  1.00 -0.40     0.112 C 
HETATM   15  C   MOL     1     -58.200 -25.484  -0.548  1.00 -0.28     0.025 C 
HETATM   16  C   MOL     1     -58.318 -26.694   0.266  1.00 -0.47    -0.001 C 
HETATM   17  C   MOL     1     -59.418 -26.907   0.986  1.00 -0.52    -0.012 C 
HETATM   18  C   MOL     1     -62.002 -26.342   1.047  1.00 -0.44     0.229 C 
HETATM   19  O   MOL     1     -62.447 -27.326   1.621  1.00 -0.63    -0.273 OA
BRANCH  13  20
HETATM   20  N   MOL     1     -59.358 -23.658  -1.645  1.00  0.04    -0.393 N 
HETATM   21  HN  MOL     1     -60.067 -23.535  -2.152  1.00 -0.01     0.159 HD
BRANCH  20  22
HETATM   22  C   MOL     1     -58.557 -22.478  -1.289  1.00 -0.24     0.119 C 
BRANCH  22  23
HETATM   23  C   MOL     1     -59.312 -21.438  -0.445  1.00 -0.09     0.020 C 
BRANCH  23  24
HETATM   24  C   MOL     1     -58.690 -20.060  -0.718  1.00 -0.19     0.002 C 
BRANCH  24  25
HETATM   25  C   MOL     1     -59.705 -19.142  -1.415  1.00 -0.35     0.002 C 
BRANCH  25  26
HETATM   26  C   MOL     1     -59.094 -18.660  -2.738  1.00 -0.42     0.020 C 
BRANCH  26  27
HETATM   27  C   MOL     1     -58.967 -19.834  -3.720  1.00 -0.29     0.123 C 
BRANCH  27  28
HETATM   28  N   MOL     1     -58.719 -19.294  -5.064  1.00 -0.04    -0.357 N 
HETATM   29  C   MOL     1     -57.904 -19.955  -5.916  1.00 -0.29     0.254 C 
HETATM   30  O   MOL     1     -57.345 -21.009  -5.620  1.00 -0.19    -0.268 OA
HETATM   31  HN  MOL     1     -59.121 -18.553  -5.312  1.00 -0.09     0.162 HD
BRANCH  29  32
HETATM   32  C   MOL     1     -57.637 -19.408  -7.276  1.00 -0.21     0.061 A 
HETATM   33  C   MOL     1     -58.013 -18.120  -7.606  1.00 -0.36     0.038 A 
HETATM   34  C   MOL     1     -57.743 -17.610  -8.850  1.00 -0.38     0.117 A 
HETATM   35  N   MOL     1     -57.111 -18.296  -9.820  1.00 -0.12    -0.271 NA
HETATM   36  C   MOL     1     -56.747 -19.547  -9.496  1.00 -0.27     0.146 A 
HETATM   37  C   MOL     1     -56.985 -20.138  -8.267  1.00 -0.14     0.068 A 
BRANCH  37  38
HETATM   38  N   MOL     1     -56.582 -21.459  -8.035  1.00  0.07    -0.325 N 
HETATM   39  C   MOL     1     -55.315 -21.877  -7.838  1.00 -0.29     0.226 C 
HETATM   40  O   MOL     1     -54.336 -21.145  -7.808  1.00 -0.10    -0.273 OA
HETATM   41  HN  MOL     1     -57.216 -22.066  -8.013  1.00  0.05     0.169 HD
BRANCH  39  42
HETATM   42  C   MOL     1     -55.208 -23.373  -7.621  1.00 -0.34     0.141 C 
BRANCH  42  43
HETATM   43  C   MOL     1     -55.117 -24.095  -8.952  1.00 -0.21    -0.048 A 
HETATM   44  C   MOL     1     -54.028 -23.900  -9.773  1.00 -0.31     0.007 A 
HETATM   45  C   MOL     1     -53.946 -24.556 -10.980  1.00 -0.36     0.002 A 
HETATM   46  C   MOL     1     -54.952 -25.411 -11.370  1.00 -0.30     0.024 A 
HETATM   47  C   MOL     1     -56.041 -25.609 -10.551  1.00 -0.25     0.034 A 
HETATM   48 CL   MOL     1     -57.313 -26.689 -11.041  1.00 -0.85    -0.084 Cl
HETATM   49  C   MOL     1     -56.122 -24.952  -9.343  1.00 -0.22     0.031 A 
ENDBRANCH  42  43
ENDBRANCH  39  42
ENDBRANCH  37  38
ENDBRANCH  29  32
ENDBRANCH  27  28
ENDBRANCH  26  27
ENDBRANCH  25  26
ENDBRANCH  24  25
ENDBRANCH  23  24
ENDBRANCH  22  23
ENDBRANCH  20  22
ENDBRANCH  13  20
ENDBRANCH   5  10
TORSDOF 13
ENDMDL
MODEL 7
REMARK VINA RESULT:      -7.7      7.852     11.780
REMARK  13 active torsions:
REMARK  status: ('A' for Active; 'I' for Inactive)
REMARK    1  A    between atoms: C_5  and  N_6 
REMARK    2  A    between atoms: C_9  and  N_10 
REMARK    3  A    between atoms: N_10  and  C_11 
REMARK    4  A    between atoms: C_11  and  C_12 
REMARK    5  A    between atoms: C_12  and  C_13 
REMARK    6  A    between atoms: C_13  and  C_14 
REMARK    7  A    between atoms: C_14  and  C_15 
REMARK    8  A    between atoms: C_15  and  C_16 
REMARK    9  A    between atoms: C_16  and  N_17 
REMARK       I    between atoms: N_17  and  C_18 
REMARK   10  A    between atoms: C_18  and  C_20 
REMARK   11  A    between atoms: C_25  and  N_26 
REMARK       I    between atoms: N_26  and  C_27 
REMARK   12  A    between atoms: C_27  and  C_29 
REMARK   13  A    between atoms: C_29  and  C_30 
ROOT
HETATM    1  O   MOL     1     -67.227 -31.547  -8.581  1.00 -0.03    -0.273 OA
HETATM    2  C   MOL     1     -68.382 -31.172  -8.472  1.00 -0.41     0.224 C 
HETATM    3  C   MOL     1     -69.285 -31.691  -7.376  1.00 -0.27     0.106 C 
HETATM    4  C   MOL     1     -70.317 -30.648  -6.940  1.00 -0.23     0.044 C 
HETATM    5  C   MOL     1     -71.101 -30.286  -8.205  1.00 -0.30     0.180 C 
HETATM    6  C   MOL     1     -70.191 -29.750  -9.288  1.00 -0.49     0.247 C 
HETATM    7  O   MOL     1     -70.571 -28.907 -10.083  1.00 -0.12    -0.271 OA
HETATM    8  N   MOL     1     -68.942 -30.266  -9.307  1.00 -0.04    -0.296 N 
HETATM    9  HN  MOL     1     -68.416 -29.963  -9.945  1.00 -0.27     0.171 HD
ENDROOT
BRANCH   5  10
HETATM   10  N   MOL     1     -72.184 -29.339  -7.896  1.00  0.05    -0.337 N 
HETATM   11  C   MOL     1     -71.922 -27.975  -7.406  1.00 -0.25     0.138 C 
HETATM   12  C   MOL     1     -73.272 -27.890  -6.669  1.00 -0.27     0.070 C 
HETATM   13  C   MOL     1     -73.792 -26.641  -5.990  1.00 -0.20     0.011 C 
HETATM   14  C   MOL     1     -74.279 -28.452  -7.677  1.00 -0.40     0.112 C 
HETATM   15  C   MOL     1     -75.106 -26.537  -5.736  1.00 -0.28     0.025 C 
HETATM   16  C   MOL     1     -76.016 -27.617  -6.119  1.00 -0.47    -0.001 C 
HETATM   17  C   MOL     1     -75.636 -28.516  -7.026  1.00 -0.52    -0.012 C 
HETATM   18  C   MOL     1     -73.477 -29.673  -8.027  1.00 -0.44     0.229 C 
HETATM   19  O   MOL     1     -73.925 -30.761  -8.362  1.00 -0.63    -0.273 OA
BRANCH  13  20
HETATM   20  N   MOL     1     -72.818 -25.739  -5.674  1.00  0.04    -0.393 N 
HETATM   21  HN  MOL     1     -72.880 -24.924  -6.002  1.00 -0.01     0.159 HD
BRANCH  20  22
HETATM   22  C   MOL     1     -71.995 -25.934  -4.472  1.00 -0.24     0.119 C 
BRANCH  22  23
HETATM   23  C   MOL     1     -72.780 -25.857  -3.153  1.00 -0.09     0.020 C 
BRANCH  23  24
HETATM   24  C   MOL     1     -71.807 -26.145  -2.001  1.00 -0.19     0.002 C 
BRANCH  24  25
HETATM   25  C   MOL     1     -70.432 -26.554  -2.550  1.00 -0.35     0.002 C 
BRANCH  25  26
HETATM   26  C   MOL     1     -69.543 -26.970  -1.370  1.00 -0.42     0.020 C 
BRANCH  26  27
HETATM   27  C   MOL     1     -68.314 -26.053  -1.285  1.00 -0.29     0.123 C 
BRANCH  27  28
HETATM   28  N   MOL     1     -67.643 -26.289   0.001  1.00 -0.04    -0.357 N 
HETATM   29  C   MOL     1     -66.593 -25.519   0.364  1.00 -0.29     0.254 C 
HETATM   30  O   MOL     1     -66.158 -24.612  -0.341  1.00 -0.19    -0.268 OA
HETATM   31  HN  MOL     1     -67.945 -26.917   0.536  1.00 -0.09     0.162 HD
BRANCH  29  32
HETATM   32  C   MOL     1     -65.898 -25.761   1.661  1.00 -0.21     0.061 A 
HETATM   33  C   MOL     1     -66.602 -25.767   2.849  1.00 -0.36     0.038 A 
HETATM   34  C   MOL     1     -65.965 -26.015   4.038  1.00 -0.38     0.117 A 
HETATM   35  N   MOL     1     -64.647 -26.264   4.143  1.00 -0.12    -0.271 NA
HETATM   36  C   MOL     1     -63.966 -26.257   2.986  1.00 -0.27     0.146 A 
HETATM   37  C   MOL     1     -64.531 -26.012   1.746  1.00 -0.14     0.068 A 
BRANCH  37  38
HETATM   38  N   MOL     1     -63.729 -26.007   0.599  1.00  0.07    -0.325 N 
HETATM   39  C   MOL     1     -62.729 -25.142   0.335  1.00 -0.29     0.226 C 
HETATM   40  O   MOL     1     -62.364 -24.249   1.086  1.00 -0.10    -0.273 OA
HETATM   41  HN  MOL     1     -63.894 -26.629   0.001  1.00  0.05     0.169 HD
BRANCH  39  42
HETATM   42  C   MOL     1     -62.055 -25.398  -0.998  1.00 -0.34     0.141 C 
BRANCH  42  43
HETATM   43  C   MOL     1     -60.551 -25.494  -0.820  1.00 -0.21    -0.048 A 
HETATM   44  C   MOL     1     -59.740 -24.455  -1.219  1.00 -0.31     0.007 A 
HETATM   45  C   MOL     1     -58.375 -24.541  -1.057  1.00 -0.36     0.002 A 
HETATM   46  C   MOL     1     -57.818 -25.667  -0.494  1.00 -0.30     0.024 A 
HETATM   47  C   MOL     1     -58.627 -26.707  -0.093  1.00 -0.25     0.034 A 
HETATM   48 CL   MOL     1     -57.926 -28.130   0.618  1.00 -0.85    -0.084 Cl
HETATM   49  C   MOL     1     -59.993 -26.619  -0.256  1.00 -0.22     0.031 A 
ENDBRANCH  42  43
ENDBRANCH  39  42
ENDBRANCH  37  38
ENDBRANCH  29  32
ENDBRANCH  27  28
ENDBRANCH  26  27
ENDBRANCH  25  26
ENDBRANCH  24  25
ENDBRANCH  23  24
ENDBRANCH  22  23
ENDBRANCH  20  22
ENDBRANCH  13  20
ENDBRANCH   5  10
TORSDOF 13
ENDMDL
MODEL 8
REMARK VINA RESULT:      -7.7      5.665     11.724
REMARK  13 active torsions:
REMARK  status: ('A' for Active; 'I' for Inactive)
REMARK    1  A    between atoms: C_5  and  N_6 
REMARK    2  A    between atoms: C_9  and  N_10 
REMARK    3  A    between atoms: N_10  and  C_11 
REMARK    4  A    between atoms: C_11  and  C_12 
REMARK    5  A    between atoms: C_12  and  C_13 
REMARK    6  A    between atoms: C_13  and  C_14 
REMARK    7  A    between atoms: C_14  and  C_15 
REMARK    8  A    between atoms: C_15  and  C_16 
REMARK    9  A    between atoms: C_16  and  N_17 
REMARK       I    between atoms: N_17  and  C_18 
REMARK   10  A    between atoms: C_18  and  C_20 
REMARK   11  A    between atoms: C_25  and  N_26 
REMARK       I    between atoms: N_26  and  C_27 
REMARK   12  A    between atoms: C_27  and  C_29 
REMARK   13  A    between atoms: C_29  and  C_30 
ROOT
HETATM    1  O   MOL     1     -53.805 -23.880 -17.844  1.00 -0.03    -0.273 OA
HETATM    2  C   MOL     1     -54.131 -23.582 -16.707  1.00 -0.41     0.224 C 
HETATM    3  C   MOL     1     -55.488 -22.990 -16.401  1.00 -0.27     0.106 C 
HETATM    4  C   MOL     1     -55.983 -23.379 -15.005  1.00 -0.23     0.044 C 
HETATM    5  C   MOL     1     -54.909 -22.887 -14.031  1.00 -0.30     0.180 C 
HETATM    6  C   MOL     1     -53.560 -23.501 -14.335  1.00 -0.49     0.247 C 
HETATM    7  O   MOL     1     -52.753 -23.739 -13.452  1.00 -0.12    -0.271 OA
HETATM    8  N   MOL     1     -53.320 -23.762 -15.640  1.00 -0.04    -0.296 N 
HETATM    9  HN  MOL     1     -52.530 -24.109 -15.818  1.00 -0.27     0.171 HD
ENDROOT
BRANCH   5  10
HETATM   10  N   MOL     1     -55.312 -23.137 -12.639  1.00  0.05    -0.337 N 
HETATM   11  C   MOL     1     -55.398 -22.060 -11.638  1.00 -0.25     0.138 C 
HETATM   12  C   MOL     1     -55.130 -23.017 -10.461  1.00 -0.27     0.070 C 
HETATM   13  C   MOL     1     -55.198 -22.613  -9.004  1.00 -0.20     0.011 C 
HETATM   14  C   MOL     1     -56.020 -24.227 -10.759  1.00 -0.40     0.112 C 
HETATM   15  C   MOL     1     -55.349 -23.565  -8.070  1.00 -0.28     0.025 C 
HETATM   16  C   MOL     1     -55.452 -24.971  -8.464  1.00 -0.47    -0.001 C 
HETATM   17  C   MOL     1     -55.765 -25.288  -9.719  1.00 -0.52    -0.012 C 
HETATM   18  C   MOL     1     -55.607 -24.370 -12.195  1.00 -0.44     0.229 C 
HETATM   19  O   MOL     1     -55.549 -25.412 -12.832  1.00 -0.63    -0.273 OA
BRANCH  13  20
HETATM   20  N   MOL     1     -55.062 -21.270  -8.798  1.00  0.04    -0.393 N 
HETATM   21  HN  MOL     1     -54.365 -20.862  -9.151  1.00 -0.01     0.159 HD
BRANCH  20  22
HETATM   22  C   MOL     1     -56.234 -20.454  -8.455  1.00 -0.24     0.119 C 
BRANCH  22  23
HETATM   23  C   MOL     1     -56.042 -19.571  -7.211  1.00 -0.09     0.020 C 
BRANCH  23  24
HETATM   24  C   MOL     1     -55.621 -20.476  -6.044  1.00 -0.19     0.002 C 
BRANCH  24  25
HETATM   25  C   MOL     1     -56.782 -21.393  -5.631  1.00 -0.35     0.002 C 
BRANCH  25  26
HETATM   26  C   MOL     1     -56.405 -22.089  -4.315  1.00 -0.42     0.020 C 
BRANCH  26  27
HETATM   27  C   MOL     1     -57.431 -21.749  -3.225  1.00 -0.29     0.123 C 
BRANCH  27  28
HETATM   28  N   MOL     1     -58.187 -22.967  -2.899  1.00 -0.04    -0.357 N 
HETATM   29  C   MOL     1     -58.714 -23.124  -1.664  1.00 -0.29     0.254 C 
HETATM   30  O   MOL     1     -58.591 -22.282  -0.777  1.00 -0.19    -0.268 OA
HETATM   31  HN  MOL     1     -58.310 -23.578  -3.520  1.00 -0.09     0.162 HD
BRANCH  29  32
HETATM   32  C   MOL     1     -59.470 -24.361  -1.322  1.00 -0.21     0.061 A 
HETATM   33  C   MOL     1     -58.806 -25.534  -1.020  1.00 -0.36     0.038 A 
HETATM   34  C   MOL     1     -59.504 -26.665  -0.680  1.00 -0.38     0.117 A 
HETATM   35  N   MOL     1     -60.847 -26.725  -0.616  1.00 -0.12    -0.271 NA
HETATM   36  C   MOL     1     -61.489 -25.583  -0.911  1.00 -0.27     0.146 A 
HETATM   37  C   MOL     1     -60.861 -24.401  -1.266  1.00 -0.14     0.068 A 
BRANCH  37  38
HETATM   38  N   MOL     1     -61.623 -23.268  -1.574  1.00  0.07    -0.325 N 
HETATM   39  C   MOL     1     -62.113 -22.949  -2.790  1.00 -0.29     0.226 C 
HETATM   40  O   MOL     1     -61.979 -23.632  -3.796  1.00 -0.10    -0.273 OA
HETATM   41  HN  MOL     1     -61.798 -22.719  -0.911  1.00  0.05     0.169 HD
BRANCH  39  42
HETATM   42  C   MOL     1     -62.893 -21.651  -2.796  1.00 -0.34     0.141 C 
BRANCH  42  43
HETATM   43  C   MOL     1     -61.965 -20.475  -2.554  1.00 -0.21    -0.048 A 
HETATM   44  C   MOL     1     -62.100 -19.710  -1.416  1.00 -0.31     0.007 A 
HETATM   45  C   MOL     1     -61.257 -18.645  -1.196  1.00 -0.36     0.002 A 
HETATM   46  C   MOL     1     -60.276 -18.340  -2.113  1.00 -0.30     0.024 A 
HETATM   47  C   MOL     1     -60.138 -19.104  -3.250  1.00 -0.25     0.034 A 
HETATM   48 CL   MOL     1     -58.900 -18.722  -4.410  1.00 -0.85    -0.084 Cl
HETATM   49  C   MOL     1     -60.982 -20.171  -3.470  1.00 -0.22     0.031 A 
ENDBRANCH  42  43
ENDBRANCH  39  42
ENDBRANCH  37  38
ENDBRANCH  29  32
ENDBRANCH  27  28
ENDBRANCH  26  27
ENDBRANCH  25  26
ENDBRANCH  24  25
ENDBRANCH  23  24
ENDBRANCH  22  23
ENDBRANCH  20  22
ENDBRANCH  13  20
ENDBRANCH   5  10
TORSDOF 13
ENDMDL
MODEL 9
REMARK VINA RESULT:      -7.6      8.611     13.818
REMARK  13 active torsions:
REMARK  status: ('A' for Active; 'I' for Inactive)
REMARK    1  A    between atoms: C_5  and  N_6 
REMARK    2  A    between atoms: C_9  and  N_10 
REMARK    3  A    between atoms: N_10  and  C_11 
REMARK    4  A    between atoms: C_11  and  C_12 
REMARK    5  A    between atoms: C_12  and  C_13 
REMARK    6  A    between atoms: C_13  and  C_14 
REMARK    7  A    between atoms: C_14  and  C_15 
REMARK    8  A    between atoms: C_15  and  C_16 
REMARK    9  A    between atoms: C_16  and  N_17 
REMARK       I    between atoms: N_17  and  C_18 
REMARK   10  A    between atoms: C_18  and  C_20 
REMARK   11  A    between atoms: C_25  and  N_26 
REMARK       I    between atoms: N_26  and  C_27 
REMARK   12  A    between atoms: C_27  and  C_29 
REMARK   13  A    between atoms: C_29  and  C_30 
ROOT
HETATM    1  O   MOL     1     -71.119 -26.690  -9.376  1.00 -0.03    -0.273 OA
HETATM    2  C   MOL     1     -71.901 -27.259  -8.634  1.00 -0.41     0.224 C 
HETATM    3  C   MOL     1     -71.524 -28.534  -7.913  1.00 -0.27     0.106 C 
HETATM    4  C   MOL     1     -72.237 -28.663  -6.563  1.00 -0.23     0.044 C 
HETATM    5  C   MOL     1     -73.734 -28.603  -6.878  1.00 -0.30     0.180 C 
HETATM    6  C   MOL     1     -74.103 -27.315  -7.582  1.00 -0.49     0.247 C 
HETATM    7  O   MOL     1     -75.191 -26.788  -7.420  1.00 -0.12    -0.271 OA
HETATM    8  N   MOL     1     -73.150 -26.801  -8.391  1.00 -0.04    -0.296 N 
HETATM    9  HN  MOL     1     -73.369 -26.058  -8.811  1.00 -0.27     0.171 HD
ENDROOT
BRANCH   5  10
HETATM   10  N   MOL     1     -74.533 -28.795  -5.658  1.00  0.05    -0.337 N 
HETATM   11  C   MOL     1     -74.149 -28.206  -4.364  1.00 -0.25     0.138 C 
HETATM   12  C   MOL     1     -74.865 -29.304  -3.555  1.00 -0.27     0.070 C 
HETATM   13  C   MOL     1     -75.016 -29.289  -2.049  1.00 -0.20     0.011 C 
HETATM   14  C   MOL     1     -76.215 -29.461  -4.261  1.00 -0.40     0.112 C 
HETATM   15  C   MOL     1     -75.972 -30.042  -1.482  1.00 -0.28     0.025 C 
HETATM   16  C   MOL     1     -76.855 -30.858  -2.317  1.00 -0.47    -0.001 C 
HETATM   17  C   MOL     1     -76.974 -30.593  -3.617  1.00 -0.52    -0.012 C 
HETATM   18  C   MOL     1     -75.651 -29.538  -5.651  1.00 -0.44     0.229 C 
HETATM   19  O   MOL     1     -76.125 -30.161  -6.590  1.00 -0.63    -0.273 OA
BRANCH  13  20
HETATM   20  N   MOL     1     -74.102 -28.500  -1.412  1.00  0.04    -0.393 N 
HETATM   21  HN  MOL     1     -73.957 -27.690  -1.728  1.00 -0.01     0.159 HD
BRANCH  20  22
HETATM   22  C   MOL     1     -73.752 -28.762  -0.009  1.00 -0.24     0.119 C 
BRANCH  22  23
HETATM   23  C   MOL     1     -72.351 -28.271   0.391  1.00 -0.09     0.020 C 
BRANCH  23  24
HETATM   24  C   MOL     1     -72.485 -27.447   1.679  1.00 -0.19     0.002 C 
BRANCH  24  25
HETATM   25  C   MOL     1     -71.481 -26.285   1.678  1.00 -0.35     0.002 C 
BRANCH  25  26
HETATM   26  C   MOL     1     -71.610 -25.534   0.345  1.00 -0.42     0.020 C 
BRANCH  26  27
HETATM   27  C   MOL     1     -70.225 -25.087  -0.145  1.00 -0.29     0.123 C 
BRANCH  27  28
HETATM   28  N   MOL     1     -69.230 -25.444   0.876  1.00 -0.04    -0.357 N 
HETATM   29  C   MOL     1     -67.945 -25.661   0.518  1.00 -0.29     0.254 C 
HETATM   30  O   MOL     1     -67.554 -25.575  -0.643  1.00 -0.19    -0.268 OA
HETATM   31  HN  MOL     1     -69.476 -25.493   1.719  1.00 -0.09     0.162 HD
BRANCH  29  32
HETATM   32  C   MOL     1     -66.933 -26.036   1.546  1.00 -0.21     0.061 A 
HETATM   33  C   MOL     1     -66.635 -25.181   2.589  1.00 -0.36     0.038 A 
HETATM   34  C   MOL     1     -65.722 -25.540   3.548  1.00 -0.38     0.117 A 
HETATM   35  N   MOL     1     -65.063 -26.714   3.553  1.00 -0.12    -0.271 NA
HETATM   36  C   MOL     1     -65.356 -27.542   2.538  1.00 -0.27     0.146 A 
HETATM   37  C   MOL     1     -66.260 -27.255   1.529  1.00 -0.14     0.068 A 
BRANCH  37  38
HETATM   38  N   MOL     1     -66.480 -28.181   0.502  1.00  0.07    -0.325 N 
HETATM   39  C   MOL     1     -67.404 -29.164   0.506  1.00 -0.29     0.226 C 
HETATM   40  O   MOL     1     -68.205 -29.364   1.408  1.00 -0.10    -0.273 OA
HETATM   41  HN  MOL     1     -65.969 -28.109  -0.209  1.00  0.05     0.169 HD
BRANCH  39  42
HETATM   42  C   MOL     1     -67.385 -30.004  -0.755  1.00 -0.34     0.141 C 
BRANCH  42  43
HETATM   43  C   MOL     1     -68.708 -29.885  -1.490  1.00 -0.21    -0.048 A 
HETATM   44  C   MOL     1     -69.446 -31.012  -1.773  1.00 -0.31     0.007 A 
HETATM   45  C   MOL     1     -70.646 -30.903  -2.439  1.00 -0.36     0.002 A 
HETATM   46  C   MOL     1     -71.111 -29.666  -2.823  1.00 -0.30     0.024 A 
HETATM   47  C   MOL     1     -70.376 -28.537  -2.540  1.00 -0.25     0.034 A 
HETATM   48 CL   MOL     1     -70.962 -26.972  -3.024  1.00 -0.85    -0.084 Cl
HETATM   49  C   MOL     1     -69.175 -28.647  -1.873  1.00 -0.22     0.031 A 
ENDBRANCH  42  43
ENDBRANCH  39  42
ENDBRANCH  37  38
ENDBRANCH  29  32
ENDBRANCH  27  28
ENDBRANCH  26  27
ENDBRANCH  25  26
ENDBRANCH  24  25
ENDBRANCH  23  24
ENDBRANCH  22  23
ENDBRANCH  20  22
ENDBRANCH  13  20
ENDBRANCH   5  10
TORSDOF 13
ENDMDL
MODEL 10
REMARK VINA RESULT:      -7.6      5.307     11.245
REMARK  13 active torsions:
REMARK  status: ('A' for Active; 'I' for Inactive)
REMARK    1  A    between atoms: C_5  and  N_6 
REMARK    2  A    between atoms: C_9  and  N_10 
REMARK    3  A    between atoms: N_10  and  C_11 
REMARK    4  A    between atoms: C_11  and  C_12 
REMARK    5  A    between atoms: C_12  and  C_13 
REMARK    6  A    between atoms: C_13  and  C_14 
REMARK    7  A    between atoms: C_14  and  C_15 
REMARK    8  A    between atoms: C_15  and  C_16 
REMARK    9  A    between atoms: C_16  and  N_17 
REMARK       I    between atoms: N_17  and  C_18 
REMARK   10  A    between atoms: C_18  and  C_20 
REMARK   11  A    between atoms: C_25  and  N_26 
REMARK       I    between atoms: N_26  and  C_27 
REMARK   12  A    between atoms: C_27  and  C_29 
REMARK   13  A    between atoms: C_29  and  C_30 
ROOT
HETATM    1  O   MOL     1     -55.065 -23.633 -17.128  1.00 -0.03    -0.273 OA
HETATM    2  C   MOL     1     -55.080 -23.881 -15.935  1.00 -0.41     0.224 C 
HETATM    3  C   MOL     1     -53.869 -23.646 -15.061  1.00 -0.27     0.106 C 
HETATM    4  C   MOL     1     -54.257 -23.287 -13.624  1.00 -0.23     0.044 C 
HETATM    5  C   MOL     1     -55.110 -24.456 -13.121  1.00 -0.30     0.180 C 
HETATM    6  C   MOL     1     -56.329 -24.670 -13.992  1.00 -0.49     0.247 C 
HETATM    7  O   MOL     1     -57.380 -25.082 -13.529  1.00 -0.12    -0.271 OA
HETATM    8  N   MOL     1     -56.169 -24.373 -15.301  1.00 -0.04    -0.296 N 
HETATM    9  HN  MOL     1     -56.874 -24.509 -15.810  1.00 -0.27     0.171 HD
ENDROOT
BRANCH   5  10
HETATM   10  N   MOL     1     -55.484 -24.262 -11.712  1.00  0.05    -0.337 N 
HETATM   11  C   MOL     1     -55.842 -22.942 -11.166  1.00 -0.25     0.138 C 
HETATM   12  C   MOL     1     -55.395 -23.315  -9.741  1.00 -0.27     0.070 C 
HETATM   13  C   MOL     1     -55.595 -22.431  -8.528  1.00 -0.20     0.011 C 
HETATM   14  C   MOL     1     -55.977 -24.715  -9.526  1.00 -0.40     0.112 C 
HETATM   15  C   MOL     1     -55.550 -22.983  -7.305  1.00 -0.28     0.025 C 
HETATM   16  C   MOL     1     -55.318 -24.421  -7.156  1.00 -0.47    -0.001 C 
HETATM   17  C   MOL     1     -55.515 -25.237  -8.190  1.00 -0.52    -0.012 C 
HETATM   18  C   MOL     1     -55.502 -25.279 -10.835  1.00 -0.44     0.229 C 
HETATM   19  O   MOL     1     -55.190 -26.441 -11.053  1.00 -0.63    -0.273 OA
BRANCH  13  20
HETATM   20  N   MOL     1     -55.774 -21.113  -8.831  1.00  0.04    -0.393 N 
HETATM   21  HN  MOL     1     -56.155 -20.908  -9.599  1.00 -0.01     0.159 HD
BRANCH  20  22
HETATM   22  C   MOL     1     -55.807 -20.108  -7.760  1.00 -0.24     0.119 C 
BRANCH  22  23
HETATM   23  C   MOL     1     -57.169 -19.415  -7.591  1.00 -0.09     0.020 C 
BRANCH  23  24
HETATM   24  C   MOL     1     -57.781 -19.885  -6.263  1.00 -0.19     0.002 C 
BRANCH  24  25
HETATM   25  C   MOL     1     -56.705 -19.949  -5.169  1.00 -0.35     0.002 C 
BRANCH  25  26
HETATM   26  C   MOL     1     -56.924 -21.229  -4.349  1.00 -0.42     0.020 C 
BRANCH  26  27
HETATM   27  C   MOL     1     -57.542 -20.882  -2.987  1.00 -0.29     0.123 C 
BRANCH  27  28
HETATM   28  N   MOL     1     -58.871 -20.296  -3.212  1.00 -0.04    -0.357 N 
HETATM   29  C   MOL     1     -59.565 -19.780  -2.173  1.00 -0.29     0.254 C 
HETATM   30  O   MOL     1     -59.134 -19.774  -1.023  1.00 -0.19    -0.268 OA
HETATM   31  HN  MOL     1     -59.197 -20.268  -4.028  1.00 -0.09     0.162 HD
BRANCH  29  32
HETATM   32  C   MOL     1     -60.919 -19.196  -2.391  1.00 -0.21     0.061 A 
HETATM   33  C   MOL     1     -61.070 -17.863  -2.721  1.00 -0.36     0.038 A 
HETATM   34  C   MOL     1     -62.315 -17.335  -2.946  1.00 -0.38     0.117 A 
HETATM   35  N   MOL     1     -63.455 -18.046  -2.868  1.00 -0.12    -0.271 NA
HETATM   36  C   MOL     1     -63.305 -19.341  -2.548  1.00 -0.27     0.146 A 
HETATM   37  C   MOL     1     -62.086 -19.950  -2.301  1.00 -0.14     0.068 A 
BRANCH  37  38
HETATM   38  N   MOL     1     -62.039 -21.306  -1.954  1.00  0.07    -0.325 N 
HETATM   39  C   MOL     1     -61.812 -22.333  -2.799  1.00 -0.29     0.226 C 
HETATM   40  O   MOL     1     -61.585 -22.214  -3.994  1.00 -0.10    -0.273 OA
HETATM   41  HN  MOL     1     -62.166 -21.500  -1.107  1.00  0.05     0.169 HD
BRANCH  39  42
HETATM   42  C   MOL     1     -61.831 -23.684  -2.114  1.00 -0.34     0.141 C 
BRANCH  42  43
HETATM   43  C   MOL     1     -60.670 -23.801  -1.143  1.00 -0.21    -0.048 A 
HETATM   44  C   MOL     1     -59.386 -23.959  -1.616  1.00 -0.31     0.007 A 
HETATM   45  C   MOL     1     -58.334 -24.064  -0.735  1.00 -0.36     0.002 A 
HETATM   46  C   MOL     1     -58.562 -24.011   0.622  1.00 -0.30     0.024 A 
HETATM   47  C   MOL     1     -59.844 -23.850   1.097  1.00 -0.25     0.034 A 
HETATM   48 CL   MOL     1     -60.135 -23.781   2.810  1.00 -0.85    -0.084 Cl
HETATM   49  C   MOL     1     -60.897 -23.745   0.214  1.00 -0.22     0.031 A 
ENDBRANCH  42  43
ENDBRANCH  39  42
ENDBRANCH  37  38
ENDBRANCH  29  32
ENDBRANCH  27  28
ENDBRANCH  26  27
ENDBRANCH  25  26
ENDBRANCH  24  25
ENDBRANCH  23  24
ENDBRANCH  22  23
ENDBRANCH  20  22
ENDBRANCH  13  20
ENDBRANCH   5  10
TORSDOF 13
ENDMDL
