MODEL 1
REMARK VINA RESULT:      -7.1      0.000      0.000
REMARK  7 active torsions:
REMARK  status: ('A' for Active; 'I' for Inactive)
REMARK    1  A    between atoms: O_2  and  C_10 
REMARK    2  A    between atoms: O_3  and  C_11 
REMARK    3  A    between atoms: O_4  and  C_14 
REMARK    4  A    between atoms: O_6  and  N_9 
REMARK    5  A    between atoms: N_7  and  C_12 
REMARK    6  A    between atoms: N_9  and  C_18 
REMARK    7  A    between atoms: C_13  and  C_14 
ROOT
HETATM    1  O   UNK     0     -59.986 -20.718  -3.688  0.00  0.00    -0.353 OA
HETATM    2  C   UNK     0     -59.685 -22.791  -2.582  0.00  0.00     0.198 C 
HETATM    3  C   UNK     0     -60.797 -22.941  -3.599  0.00  0.00     0.182 C 
HETATM    4  C   UNK     0     -58.981 -21.536  -3.068  0.00  0.00     0.264 C 
HETATM    5  C   UNK     0     -61.192 -21.493  -3.855  0.00  0.00     0.179 C 
ENDROOT
BRANCH   4   6
HETATM    6  N   UNK     0     -58.374 -20.798  -1.997  0.00  0.00    -0.278 N 
HETATM    7  C   UNK     0     -58.730 -21.104  -0.693  0.00  0.00     0.102 A 
HETATM    8  C   UNK     0     -58.216 -20.473   0.361  0.00  0.00     0.070 A 
HETATM    9  C   UNK     0     -57.226 -19.403   0.071  0.00  0.00     0.153 A 
HETATM   10  N   UNK     0     -56.880 -19.103  -1.152  0.00  0.00    -0.174 NA
HETATM   11  C   UNK     0     -57.424 -19.773  -2.235  0.00  0.00     0.352 A 
HETATM   12  O   UNK     0     -57.084 -19.478  -3.382  0.00  0.00    -0.244 OA
BRANCH   9  13
HETATM   13  N   UNK     0     -56.672 -18.725   1.133  0.00  0.00    -0.251 N 
HETATM   14  H   UNK     0     -57.075 -18.609   2.055  0.00  0.00     0.196 HD
BRANCH  13  15
HETATM   15  O   UNK     0     -55.411 -18.265   0.887  0.00  0.00    -0.288 OA
HETATM   16  H   UNK     0     -54.952 -19.076   0.611  0.00  0.00     0.244 HD
ENDBRANCH  13  15
ENDBRANCH   9  13
ENDBRANCH   4   6
BRANCH   5  17
HETATM   17  C   UNK     0     -62.232 -20.970  -2.871  0.00  0.00     0.198 C 
BRANCH  17  18
HETATM   18  O   UNK     0     -63.337 -21.856  -2.867  0.00  0.00    -0.398 OA
HETATM   19  H   UNK     0     -63.479 -22.131  -1.945  0.00  0.00     0.209 HD
ENDBRANCH  17  18
ENDBRANCH   5  17
BRANCH   2  20
HETATM   20  O   UNK     0     -58.831 -23.916  -2.552  0.00  0.00    -0.388 OA
HETATM   21  H   UNK     0     -57.972 -23.641  -2.915  0.00  0.00     0.210 HD
ENDBRANCH   2  20
BRANCH   3  22
HETATM   22  O   UNK     0     -60.284 -23.479  -4.818  0.00  0.00    -0.390 OA
HETATM   23  H   UNK     0     -59.908 -22.758  -5.349  0.00  0.00     0.210 HD
ENDBRANCH   3  22
TORSDOF 7
ENDMDL
MODEL 2
REMARK VINA RESULT:      -6.9     13.805     15.051
REMARK  7 active torsions:
REMARK  status: ('A' for Active; 'I' for Inactive)
REMARK    1  A    between atoms: O_2  and  C_10 
REMARK    2  A    between atoms: O_3  and  C_11 
REMARK    3  A    between atoms: O_4  and  C_14 
REMARK    4  A    between atoms: O_6  and  N_9 
REMARK    5  A    between atoms: N_7  and  C_12 
REMARK    6  A    between atoms: N_9  and  C_18 
REMARK    7  A    between atoms: C_13  and  C_14 
ROOT
HETATM    1  O   UNK     0     -62.898 -34.578   3.936  0.00  0.00    -0.353 OA
HETATM    2  C   UNK     0     -62.237 -35.111   6.147  0.00  0.00     0.198 C 
HETATM    3  C   UNK     0     -62.700 -36.379   5.461  0.00  0.00     0.182 C 
HETATM    4  C   UNK     0     -61.976 -34.192   4.968  0.00  0.00     0.264 C 
HETATM    5  C   UNK     0     -63.515 -35.832   4.297  0.00  0.00     0.179 C 
ENDROOT
BRANCH   4   6
HETATM    6  N   UNK     0     -62.190 -32.810   5.291  0.00  0.00    -0.278 N 
HETATM    7  C   UNK     0     -63.263 -32.475   6.103  0.00  0.00     0.102 A 
HETATM    8  C   UNK     0     -63.536 -31.221   6.455  0.00  0.00     0.070 A 
HETATM    9  C   UNK     0     -62.623 -30.174   5.928  0.00  0.00     0.153 A 
HETATM   10  N   UNK     0     -61.608 -30.472   5.162  0.00  0.00    -0.174 NA
HETATM   11  C   UNK     0     -61.339 -31.783   4.809  0.00  0.00     0.352 A 
HETATM   12  O   UNK     0     -60.376 -32.047   4.087  0.00  0.00    -0.244 OA
BRANCH   9  13
HETATM   13  N   UNK     0     -62.872 -28.863   6.267  0.00  0.00    -0.251 N 
HETATM   14  H   UNK     0     -63.777 -28.412   6.324  0.00  0.00     0.196 HD
BRANCH  13  15
HETATM   15  O   UNK     0     -61.755 -28.178   6.648  0.00  0.00    -0.288 OA
HETATM   16  H   UNK     0     -61.091 -28.509   6.020  0.00  0.00     0.244 HD
ENDBRANCH  13  15
ENDBRANCH   9  13
ENDBRANCH   4   6
BRANCH   5  17
HETATM   17  C   UNK     0     -64.970 -35.557   4.658  0.00  0.00     0.198 C 
BRANCH  17  18
HETATM   18  O   UNK     0     -65.353 -36.440   5.697  0.00  0.00    -0.398 OA
HETATM   19  H   UNK     0     -65.713 -37.239   5.275  0.00  0.00     0.209 HD
ENDBRANCH  17  18
ENDBRANCH   5  17
BRANCH   2  20
HETATM   20  O   UNK     0     -61.085 -35.320   6.940  0.00  0.00    -0.388 OA
HETATM   21  H   UNK     0     -60.558 -36.015   6.511  0.00  0.00     0.210 HD
ENDBRANCH   2  20
BRANCH   3  22
HETATM   22  O   UNK     0     -61.583 -37.086   4.922  0.00  0.00    -0.390 OA
HETATM   23  H   UNK     0     -61.025 -36.465   4.424  0.00  0.00     0.210 HD
ENDBRANCH   3  22
TORSDOF 7
ENDMDL
MODEL 3
REMARK VINA RESULT:      -6.8     10.310     13.057
REMARK  7 active torsions:
REMARK  status: ('A' for Active; 'I' for Inactive)
REMARK    1  A    between atoms: O_2  and  C_10 
REMARK    2  A    between atoms: O_3  and  C_11 
REMARK    3  A    between atoms: O_4  and  C_14 
REMARK    4  A    between atoms: O_6  and  N_9 
REMARK    5  A    between atoms: N_7  and  C_12 
REMARK    6  A    between atoms: N_9  and  C_18 
REMARK    7  A    between atoms: C_13  and  C_14 
ROOT
HETATM    1  O   UNK     0     -67.976 -26.580  -0.388  0.00  0.00    -0.353 OA
HETATM    2  C   UNK     0     -67.829 -24.604   0.911  0.00  0.00     0.198 C 
HETATM    3  C   UNK     0     -66.473 -24.883   0.300  0.00  0.00     0.182 C 
HETATM    4  C   UNK     0     -68.746 -25.446   0.042  0.00  0.00     0.264 C 
HETATM    5  C   UNK     0     -66.586 -26.357  -0.067  0.00  0.00     0.179 C 
ENDROOT
BRANCH   4   6
HETATM    6  N   UNK     0     -69.903 -25.910   0.754  0.00  0.00    -0.278 N 
HETATM    7  C   UNK     0     -69.720 -26.698   1.879  0.00  0.00     0.102 A 
HETATM    8  C   UNK     0     -70.734 -27.171   2.601  0.00  0.00     0.070 A 
HETATM    9  C   UNK     0     -72.099 -26.811   2.136  0.00  0.00     0.153 A 
HETATM   10  N   UNK     0     -72.289 -26.070   1.076  0.00  0.00    -0.174 NA
HETATM   11  C   UNK     0     -71.221 -25.586   0.341  0.00  0.00     0.352 A 
HETATM   12  O   UNK     0     -71.418 -24.887  -0.654  0.00  0.00    -0.244 OA
BRANCH   9  13
HETATM   13  N   UNK     0     -73.175 -27.282   2.852  0.00  0.00    -0.251 N 
HETATM   14  H   UNK     0     -73.298 -27.247   3.857  0.00  0.00     0.196 HD
BRANCH  13  15
HETATM   15  O   UNK     0     -74.192 -27.743   2.067  0.00  0.00    -0.288 OA
HETATM   16  H   UNK     0     -73.710 -28.103   1.305  0.00  0.00     0.244 HD
ENDBRANCH  13  15
ENDBRANCH   9  13
ENDBRANCH   4   6
BRANCH   5  17
HETATM   17  C   UNK     0     -66.207 -27.292   1.074  0.00  0.00     0.198 C 
BRANCH  17  18
HETATM   18  O   UNK     0     -64.825 -27.140   1.343  0.00  0.00    -0.398 OA
HETATM   19  H   UNK     0     -64.715 -27.183   2.309  0.00  0.00     0.209 HD
ENDBRANCH  17  18
ENDBRANCH   5  17
BRANCH   2  20
HETATM   20  O   UNK     0     -68.159 -23.230   0.880  0.00  0.00    -0.388 OA
HETATM   21  H   UNK     0     -67.863 -22.839   1.718  0.00  0.00     0.210 HD
ENDBRANCH   2  20
BRANCH   3  22
HETATM   22  O   UNK     0     -66.312 -24.140  -0.909  0.00  0.00    -0.390 OA
HETATM   23  H   UNK     0     -65.973 -24.731  -1.601  0.00  0.00     0.210 HD
ENDBRANCH   3  22
TORSDOF 7
ENDMDL
MODEL 4
REMARK VINA RESULT:      -6.7     12.861     14.520
REMARK  7 active torsions:
REMARK  status: ('A' for Active; 'I' for Inactive)
REMARK    1  A    between atoms: O_2  and  C_10 
REMARK    2  A    between atoms: O_3  and  C_11 
REMARK    3  A    between atoms: O_4  and  C_14 
REMARK    4  A    between atoms: O_6  and  N_9 
REMARK    5  A    between atoms: N_7  and  C_12 
REMARK    6  A    between atoms: N_9  and  C_18 
REMARK    7  A    between atoms: C_13  and  C_14 
ROOT
HETATM    1  O   UNK     0     -61.882 -30.492   4.360  0.00  0.00    -0.353 OA
HETATM    2  C   UNK     0     -64.200 -30.978   4.346  0.00  0.00     0.198 C 
HETATM    3  C   UNK     0     -64.019 -29.485   4.520  0.00  0.00     0.182 C 
HETATM    4  C   UNK     0     -62.847 -31.398   3.802  0.00  0.00     0.264 C 
HETATM    5  C   UNK     0     -62.574 -29.392   4.988  0.00  0.00     0.179 C 
ENDROOT
BRANCH   4   6
HETATM    6  N   UNK     0     -62.497 -32.740   4.174  0.00  0.00    -0.278 N 
HETATM    7  C   UNK     0     -61.687 -32.932   5.283  0.00  0.00     0.102 A 
HETATM    8  C   UNK     0     -61.315 -34.140   5.702  0.00  0.00     0.070 A 
HETATM    9  C   UNK     0     -61.815 -35.296   4.912  0.00  0.00     0.153 A 
HETATM   10  N   UNK     0     -62.578 -35.131   3.864  0.00  0.00    -0.174 NA
HETATM   11  C   UNK     0     -62.956 -33.867   3.446  0.00  0.00     0.352 A 
HETATM   12  O   UNK     0     -63.678 -33.730   2.458  0.00  0.00    -0.244 OA
BRANCH   9  13
HETATM   13  N   UNK     0     -61.451 -36.562   5.310  0.00  0.00    -0.251 N 
HETATM   14  H   UNK     0     -61.206 -37.340   4.710  0.00  0.00     0.196 HD
BRANCH  13  15
HETATM   15  O   UNK     0     -61.331 -36.693   6.663  0.00  0.00    -0.288 OA
HETATM   16  H   UNK     0     -62.116 -37.221   6.884  0.00  0.00     0.244 HD
ENDBRANCH  13  15
ENDBRANCH   9  13
ENDBRANCH   4   6
BRANCH   5  17
HETATM   17  C   UNK     0     -62.419 -29.534   6.497  0.00  0.00     0.198 C 
BRANCH  17  18
HETATM   18  O   UNK     0     -61.414 -28.638   6.936  0.00  0.00    -0.398 OA
HETATM   19  H   UNK     0     -61.119 -28.135   6.157  0.00  0.00     0.209 HD
ENDBRANCH  17  18
ENDBRANCH   5  17
BRANCH   2  20
HETATM   20  O   UNK     0     -65.261 -31.291   3.466  0.00  0.00    -0.388 OA
HETATM   21  H   UNK     0     -65.341 -32.260   3.438  0.00  0.00     0.210 HD
ENDBRANCH   2  20
BRANCH   3  22
HETATM   22  O   UNK     0     -64.117 -28.825   3.258  0.00  0.00    -0.390 OA
HETATM   23  H   UNK     0     -63.224 -28.693   2.899  0.00  0.00     0.210 HD
ENDBRANCH   3  22
TORSDOF 7
ENDMDL
MODEL 5
REMARK VINA RESULT:      -6.7      7.783      9.496
REMARK  7 active torsions:
REMARK  status: ('A' for Active; 'I' for Inactive)
REMARK    1  A    between atoms: O_2  and  C_10 
REMARK    2  A    between atoms: O_3  and  C_11 
REMARK    3  A    between atoms: O_4  and  C_14 
REMARK    4  A    between atoms: O_6  and  N_9 
REMARK    5  A    between atoms: N_7  and  C_12 
REMARK    6  A    between atoms: N_9  and  C_18 
REMARK    7  A    between atoms: C_13  and  C_14 
ROOT
HETATM    1  O   UNK     0     -56.171 -21.860  -8.090  0.00  0.00    -0.353 OA
HETATM    2  C   UNK     0     -54.969 -23.438  -6.794  0.00  0.00     0.198 C 
HETATM    3  C   UNK     0     -55.751 -22.539  -5.860  0.00  0.00     0.182 C 
HETATM    4  C   UNK     0     -55.677 -23.209  -8.117  0.00  0.00     0.264 C 
HETATM    5  C   UNK     0     -56.051 -21.340  -6.749  0.00  0.00     0.179 C 
ENDROOT
BRANCH   4   6
HETATM    6  N   UNK     0     -54.800 -23.362  -9.243  0.00  0.00    -0.278 N 
HETATM    7  C   UNK     0     -54.245 -22.226  -9.812  0.00  0.00     0.102 A 
HETATM    8  C   UNK     0     -53.420 -22.274 -10.856  0.00  0.00     0.070 A 
HETATM    9  C   UNK     0     -53.116 -23.624 -11.396  0.00  0.00     0.153 A 
HETATM   10  N   UNK     0     -53.631 -24.704 -10.872  0.00  0.00    -0.174 NA
HETATM   11  C   UNK     0     -54.485 -24.634  -9.784  0.00  0.00     0.352 A 
HETATM   12  O   UNK     0     -54.960 -25.663  -9.301  0.00  0.00    -0.244 OA
BRANCH   9  13
HETATM   13  N   UNK     0     -52.269 -23.717 -12.477  0.00  0.00    -0.251 N 
HETATM   14  H   UNK     0     -52.266 -24.442 -13.185  0.00  0.00     0.196 HD
BRANCH  13  15
HETATM   15  O   UNK     0     -51.437 -22.644 -12.610  0.00  0.00    -0.288 OA
HETATM   16  H   UNK     0     -51.989 -21.918 -12.277  0.00  0.00     0.244 HD
ENDBRANCH  13  15
ENDBRANCH   9  13
ENDBRANCH   4   6
BRANCH   5  17
HETATM   17  C   UNK     0     -54.943 -20.294  -6.744  0.00  0.00     0.198 C 
BRANCH  17  18
HETATM   18  O   UNK     0     -54.480 -20.131  -5.415  0.00  0.00    -0.398 OA
HETATM   19  H   UNK     0     -54.162 -20.999  -5.115  0.00  0.00     0.209 HD
ENDBRANCH  17  18
ENDBRANCH   5  17
BRANCH   2  20
HETATM   20  O   UNK     0     -55.000 -24.791  -6.387  0.00  0.00    -0.388 OA
HETATM   21  H   UNK     0     -54.132 -25.001  -6.004  0.00  0.00     0.210 HD
ENDBRANCH   2  20
BRANCH   3  22
HETATM   22  O   UNK     0     -56.993 -23.149  -5.510  0.00  0.00    -0.390 OA
HETATM   23  H   UNK     0     -57.707 -22.728  -6.017  0.00  0.00     0.210 HD
ENDBRANCH   3  22
TORSDOF 7
ENDMDL
MODEL 6
REMARK VINA RESULT:      -6.7     14.183     15.560
REMARK  7 active torsions:
REMARK  status: ('A' for Active; 'I' for Inactive)
REMARK    1  A    between atoms: O_2  and  C_10 
REMARK    2  A    between atoms: O_3  and  C_11 
REMARK    3  A    between atoms: O_4  and  C_14 
REMARK    4  A    between atoms: O_6  and  N_9 
REMARK    5  A    between atoms: N_7  and  C_12 
REMARK    6  A    between atoms: N_9  and  C_18 
REMARK    7  A    between atoms: C_13  and  C_14 
ROOT
HETATM    1  O   UNK     0     -63.247 -34.663   7.028  0.00  0.00    -0.353 OA
HETATM    2  C   UNK     0     -64.283 -34.513   4.902  0.00  0.00     0.198 C 
HETATM    3  C   UNK     0     -64.124 -35.975   5.261  0.00  0.00     0.182 C 
HETATM    4  C   UNK     0     -64.134 -33.838   6.254  0.00  0.00     0.264 C 
HETATM    5  C   UNK     0     -63.058 -35.922   6.347  0.00  0.00     0.179 C 
ENDROOT
BRANCH   4   6
HETATM    6  N   UNK     0     -63.574 -32.521   6.151  0.00  0.00    -0.278 N 
HETATM    7  C   UNK     0     -62.669 -32.260   5.134  0.00  0.00     0.102 A 
HETATM    8  C   UNK     0     -62.102 -31.067   4.963  0.00  0.00     0.070 A 
HETATM    9  C   UNK     0     -62.489 -30.007   5.929  0.00  0.00     0.153 A 
HETATM   10  N   UNK     0     -63.340 -30.237   6.894  0.00  0.00    -0.174 NA
HETATM   11  C   UNK     0     -63.921 -31.483   7.054  0.00  0.00     0.352 A 
HETATM   12  O   UNK     0     -64.723 -31.681   7.968  0.00  0.00    -0.244 OA
BRANCH   9  13
HETATM   13  N   UNK     0     -61.924 -28.760   5.788  0.00  0.00    -0.251 N 
HETATM   14  H   UNK     0     -61.992 -28.151   4.982  0.00  0.00     0.196 HD
BRANCH  13  15
HETATM   15  O   UNK     0     -61.303 -28.313   6.918  0.00  0.00    -0.288 OA
HETATM   16  H   UNK     0     -60.918 -27.473   6.617  0.00  0.00     0.244 HD
ENDBRANCH  13  15
ENDBRANCH   9  13
ENDBRANCH   4   6
BRANCH   5  17
HETATM   17  C   UNK     0     -61.637 -35.955   5.798  0.00  0.00     0.198 C 
BRANCH  17  18
HETATM   18  O   UNK     0     -61.517 -37.060   4.921  0.00  0.00    -0.398 OA
HETATM   19  H   UNK     0     -60.572 -37.159   4.713  0.00  0.00     0.209 HD
ENDBRANCH  17  18
ENDBRANCH   5  17
BRANCH   2  20
HETATM   20  O   UNK     0     -65.530 -34.242   4.294  0.00  0.00    -0.388 OA
HETATM   21  H   UNK     0     -65.990 -35.091   4.181  0.00  0.00     0.210 HD
ENDBRANCH   2  20
BRANCH   3  22
HETATM   22  O   UNK     0     -65.326 -36.474   5.849  0.00  0.00    -0.390 OA
HETATM   23  H   UNK     0     -65.452 -37.398   5.576  0.00  0.00     0.210 HD
ENDBRANCH   3  22
TORSDOF 7
ENDMDL
MODEL 7
REMARK VINA RESULT:      -6.7      9.165     11.761
REMARK  7 active torsions:
REMARK  status: ('A' for Active; 'I' for Inactive)
REMARK    1  A    between atoms: O_2  and  C_10 
REMARK    2  A    between atoms: O_3  and  C_11 
REMARK    3  A    between atoms: O_4  and  C_14 
REMARK    4  A    between atoms: O_6  and  N_9 
REMARK    5  A    between atoms: N_7  and  C_12 
REMARK    6  A    between atoms: N_9  and  C_18 
REMARK    7  A    between atoms: C_13  and  C_14 
ROOT
HETATM    1  O   UNK     0     -66.291 -26.796   1.357  0.00  0.00    -0.353 OA
HETATM    2  C   UNK     0     -66.268 -24.732   0.195  0.00  0.00     0.198 C 
HETATM    3  C   UNK     0     -64.872 -25.015   0.707  0.00  0.00     0.182 C 
HETATM    4  C   UNK     0     -66.913 -26.104   0.262  0.00  0.00     0.264 C 
HETATM    5  C   UNK     0     -65.134 -26.051   1.792  0.00  0.00     0.179 C 
ENDROOT
BRANCH   4   6
HETATM    6  N   UNK     0     -68.327 -26.035   0.497  0.00  0.00    -0.278 N 
HETATM    7  C   UNK     0     -68.805 -26.318   1.767  0.00  0.00     0.102 A 
HETATM    8  C   UNK     0     -70.100 -26.277   2.075  0.00  0.00     0.070 A 
HETATM    9  C   UNK     0     -71.029 -25.909   0.976  0.00  0.00     0.153 A 
HETATM   10  N   UNK     0     -70.595 -25.640  -0.227  0.00  0.00    -0.174 NA
HETATM   11  C   UNK     0     -69.244 -25.686  -0.527  0.00  0.00     0.352 A 
HETATM   12  O   UNK     0     -68.852 -25.427  -1.666  0.00  0.00    -0.244 OA
BRANCH   9  13
HETATM   13  N   UNK     0     -72.376 -25.857   1.252  0.00  0.00    -0.251 N 
HETATM   14  H   UNK     0     -73.135 -25.900   0.582  0.00  0.00     0.196 HD
BRANCH  13  15
HETATM   15  O   UNK     0     -72.658 -25.845   2.587  0.00  0.00    -0.288 OA
HETATM   16  H   UNK     0     -72.288 -24.990   2.863  0.00  0.00     0.244 HD
ENDBRANCH  13  15
ENDBRANCH   9  13
ENDBRANCH   4   6
BRANCH   5  17
HETATM   17  C   UNK     0     -65.449 -25.434   3.148  0.00  0.00     0.198 C 
BRANCH  17  18
HETATM   18  O   UNK     0     -64.579 -24.337   3.360  0.00  0.00    -0.398 OA
HETATM   19  H   UNK     0     -64.572 -24.158   4.316  0.00  0.00     0.209 HD
ENDBRANCH  17  18
ENDBRANCH   5  17
BRANCH   2  20
HETATM   20  O   UNK     0     -66.262 -24.196  -1.112  0.00  0.00    -0.388 OA
HETATM   21  H   UNK     0     -65.436 -24.477  -1.539  0.00  0.00     0.210 HD
ENDBRANCH   2  20
BRANCH   3  22
HETATM   22  O   UNK     0     -64.088 -25.635  -0.313  0.00  0.00    -0.390 OA
HETATM   23  H   UNK     0     -64.258 -26.592  -0.306  0.00  0.00     0.210 HD
ENDBRANCH   3  22
TORSDOF 7
ENDMDL
MODEL 8
REMARK VINA RESULT:      -6.6     13.865     15.524
REMARK  7 active torsions:
REMARK  status: ('A' for Active; 'I' for Inactive)
REMARK    1  A    between atoms: O_2  and  C_10 
REMARK    2  A    between atoms: O_3  and  C_11 
REMARK    3  A    between atoms: O_4  and  C_14 
REMARK    4  A    between atoms: O_6  and  N_9 
REMARK    5  A    between atoms: N_7  and  C_12 
REMARK    6  A    between atoms: N_9  and  C_18 
REMARK    7  A    between atoms: C_13  and  C_14 
ROOT
HETATM    1  O   UNK     0     -64.316 -31.945   5.633  0.00  0.00    -0.353 OA
HETATM    2  C   UNK     0     -62.368 -31.256   4.474  0.00  0.00     0.198 C 
HETATM    3  C   UNK     0     -63.393 -30.144   4.403  0.00  0.00     0.182 C 
HETATM    4  C   UNK     0     -62.886 -32.089   5.632  0.00  0.00     0.264 C 
HETATM    5  C   UNK     0     -64.685 -30.879   4.732  0.00  0.00     0.179 C 
ENDROOT
BRANCH   4   6
HETATM    6  N   UNK     0     -62.557 -33.480   5.498  0.00  0.00    -0.278 N 
HETATM    7  C   UNK     0     -62.330 -33.991   4.230  0.00  0.00     0.102 A 
HETATM    8  C   UNK     0     -62.018 -35.267   4.012  0.00  0.00     0.070 A 
HETATM    9  C   UNK     0     -61.925 -36.137   5.213  0.00  0.00     0.153 A 
HETATM   10  N   UNK     0     -62.137 -35.672   6.415  0.00  0.00    -0.174 NA
HETATM   11  C   UNK     0     -62.458 -34.341   6.621  0.00  0.00     0.352 A 
HETATM   12  O   UNK     0     -62.652 -33.919   7.762  0.00  0.00    -0.244 OA
BRANCH   9  13
HETATM   13  N   UNK     0     -61.607 -37.464   5.031  0.00  0.00    -0.251 N 
HETATM   14  H   UNK     0     -60.692 -37.846   4.822  0.00  0.00     0.196 HD
BRANCH  13  15
HETATM   15  O   UNK     0     -62.651 -38.311   5.265  0.00  0.00    -0.288 OA
HETATM   16  H   UNK     0     -63.346 -37.698   5.556  0.00  0.00     0.244 HD
ENDBRANCH  13  15
ENDBRANCH   9  13
ENDBRANCH   4   6
BRANCH   5  17
HETATM   17  C   UNK     0     -65.351 -31.500   3.511  0.00  0.00     0.198 C 
BRANCH  17  18
HETATM   18  O   UNK     0     -66.741 -31.611   3.762  0.00  0.00    -0.398 OA
HETATM   19  H   UNK     0     -67.101 -32.233   3.107  0.00  0.00     0.209 HD
ENDBRANCH  17  18
ENDBRANCH   5  17
BRANCH   2  20
HETATM   20  O   UNK     0     -61.061 -30.768   4.696  0.00  0.00    -0.388 OA
HETATM   21  H   UNK     0     -61.097 -29.799   4.638  0.00  0.00     0.210 HD
ENDBRANCH   2  20
BRANCH   3  22
HETATM   22  O   UNK     0     -63.156 -29.187   5.437  0.00  0.00    -0.390 OA
HETATM   23  H   UNK     0     -62.486 -29.538   6.046  0.00  0.00     0.210 HD
ENDBRANCH   3  22
TORSDOF 7
ENDMDL
MODEL 9
REMARK VINA RESULT:      -6.4      4.921      7.348
REMARK  7 active torsions:
REMARK  status: ('A' for Active; 'I' for Inactive)
REMARK    1  A    between atoms: O_2  and  C_10 
REMARK    2  A    between atoms: O_3  and  C_11 
REMARK    3  A    between atoms: O_4  and  C_14 
REMARK    4  A    between atoms: O_6  and  N_9 
REMARK    5  A    between atoms: N_7  and  C_12 
REMARK    6  A    between atoms: N_9  and  C_18 
REMARK    7  A    between atoms: C_13  and  C_14 
ROOT
HETATM    1  O   UNK     0     -61.820 -24.079   1.829  0.00  0.00    -0.353 OA
HETATM    2  C   UNK     0     -60.541 -26.052   1.540  0.00  0.00     0.198 C 
HETATM    3  C   UNK     0     -60.306 -25.523   2.939  0.00  0.00     0.182 C 
HETATM    4  C   UNK     0     -61.825 -25.343   1.147  0.00  0.00     0.264 C 
HETATM    5  C   UNK     0     -60.764 -24.077   2.814  0.00  0.00     0.179 C 
ENDROOT
BRANCH   4   6
HETATM    6  N   UNK     0     -61.912 -25.110  -0.266  0.00  0.00    -0.278 N 
HETATM    7  C   UNK     0     -60.739 -25.017  -0.999  0.00  0.00     0.102 A 
HETATM    8  C   UNK     0     -60.726 -24.805  -2.313  0.00  0.00     0.070 A 
HETATM    9  C   UNK     0     -62.050 -24.666  -2.973  0.00  0.00     0.153 A 
HETATM   10  N   UNK     0     -63.165 -24.750  -2.297  0.00  0.00    -0.174 NA
HETATM   11  C   UNK     0     -63.158 -24.974  -0.931  0.00  0.00     0.352 A 
HETATM   12  O   UNK     0     -64.219 -25.053  -0.310  0.00  0.00    -0.244 OA
BRANCH   9  13
HETATM   13  N   UNK     0     -62.080 -24.443  -4.331  0.00  0.00    -0.251 N 
HETATM   14  H   UNK     0     -62.740 -23.863  -4.836  0.00  0.00     0.196 HD
BRANCH  13  15
HETATM   15  O   UNK     0     -61.033 -25.008  -4.999  0.00  0.00    -0.288 OA
HETATM   16  H   UNK     0     -60.571 -25.480  -4.287  0.00  0.00     0.244 HD
ENDBRANCH  13  15
ENDBRANCH   9  13
ENDBRANCH   4   6
BRANCH   5  17
HETATM   17  C   UNK     0     -59.667 -23.137   2.330  0.00  0.00     0.198 C 
BRANCH  17  18
HETATM   18  O   UNK     0     -60.204 -22.291   1.329  0.00  0.00    -0.398 OA
HETATM   19  H   UNK     0     -59.484 -22.090   0.707  0.00  0.00     0.209 HD
ENDBRANCH  17  18
ENDBRANCH   5  17
BRANCH   2  20
HETATM   20  O   UNK     0     -60.667 -27.460   1.513  0.00  0.00    -0.388 OA
HETATM   21  H   UNK     0     -61.279 -27.712   2.225  0.00  0.00     0.210 HD
ENDBRANCH   2  20
BRANCH   3  22
HETATM   22  O   UNK     0     -61.169 -26.179   3.868  0.00  0.00    -0.390 OA
HETATM   23  H   UNK     0     -62.069 -26.201   3.504  0.00  0.00     0.210 HD
ENDBRANCH   3  22
TORSDOF 7
ENDMDL
MODEL 10
REMARK VINA RESULT:      -6.4     13.851     15.735
REMARK  7 active torsions:
REMARK  status: ('A' for Active; 'I' for Inactive)
REMARK    1  A    between atoms: O_2  and  C_10 
REMARK    2  A    between atoms: O_3  and  C_11 
REMARK    3  A    between atoms: O_4  and  C_14 
REMARK    4  A    between atoms: O_6  and  N_9 
REMARK    5  A    between atoms: N_7  and  C_12 
REMARK    6  A    between atoms: N_9  and  C_18 
REMARK    7  A    between atoms: C_13  and  C_14 
ROOT
HETATM    1  O   UNK     0     -64.566 -31.460   5.299  0.00  0.00    -0.353 OA
HETATM    2  C   UNK     0     -63.251 -32.764   6.776  0.00  0.00     0.198 C 
HETATM    3  C   UNK     0     -63.413 -31.379   7.366  0.00  0.00     0.182 C 
HETATM    4  C   UNK     0     -64.379 -32.807   5.760  0.00  0.00     0.264 C 
HETATM    5  C   UNK     0     -63.824 -30.560   6.149  0.00  0.00     0.179 C 
ENDROOT
BRANCH   4   6
HETATM    6  N   UNK     0     -64.073 -33.647   4.637  0.00  0.00    -0.278 N 
HETATM    7  C   UNK     0     -62.744 -33.928   4.359  0.00  0.00     0.102 A 
HETATM    8  C   UNK     0     -62.369 -34.697   3.339  0.00  0.00     0.070 A 
HETATM    9  C   UNK     0     -63.459 -35.252   2.494  0.00  0.00     0.153 A 
HETATM   10  N   UNK     0     -64.716 -34.996   2.742  0.00  0.00    -0.174 NA
HETATM   11  C   UNK     0     -65.086 -34.194   3.809  0.00  0.00     0.352 A 
HETATM   12  O   UNK     0     -66.276 -33.965   4.030  0.00  0.00    -0.244 OA
BRANCH   9  13
HETATM   13  N   UNK     0     -63.113 -36.050   1.429  0.00  0.00    -0.251 N 
HETATM   14  H   UNK     0     -63.740 -36.606   0.859  0.00  0.00     0.196 HD
BRANCH  13  15
HETATM   15  O   UNK     0     -61.793 -35.969   1.092  0.00  0.00    -0.288 OA
HETATM   16  H   UNK     0     -61.358 -36.117   1.948  0.00  0.00     0.244 HD
ENDBRANCH  13  15
ENDBRANCH   9  13
ENDBRANCH   4   6
BRANCH   5  17
HETATM   17  C   UNK     0     -62.638 -30.027   5.355  0.00  0.00     0.198 C 
BRANCH  17  18
HETATM   18  O   UNK     0     -61.734 -29.407   6.252  0.00  0.00    -0.398 OA
HETATM   19  H   UNK     0     -61.813 -29.871   7.103  0.00  0.00     0.209 HD
ENDBRANCH  17  18
ENDBRANCH   5  17
BRANCH   2  20
HETATM   20  O   UNK     0     -63.360 -33.779   7.753  0.00  0.00    -0.388 OA
HETATM   21  H   UNK     0     -63.374 -34.632   7.288  0.00  0.00     0.210 HD
ENDBRANCH   2  20
BRANCH   3  22
HETATM   22  O   UNK     0     -64.497 -31.360   8.295  0.00  0.00    -0.390 OA
HETATM   23  H   UNK     0     -64.206 -31.760   9.130  0.00  0.00     0.210 HD
ENDBRANCH   3  22
TORSDOF 7
ENDMDL
