MODEL 1
REMARK VINA RESULT:     -10.9      0.000      0.000
REMARK  20 active torsions:
REMARK  status: ('A' for Active; 'I' for Inactive)
REMARK    1  A    between atoms: C_3  and  C_7 
REMARK    2  A    between atoms: C_7  and  C_8 
REMARK    3  A    between atoms: C_8  and  N_9 
REMARK    4  A    between atoms: C_8  and  C_10 
REMARK    5  A    between atoms: C_10  and  O_11 
REMARK    6  A    between atoms: C_10  and  C_12 
REMARK    7  A    between atoms: C_12  and  C_13 
REMARK    8  A    between atoms: C_13  and  C_14 
REMARK    9  A    between atoms: C_13  and  N_21 
REMARK   10  A    between atoms: C_14  and  C_15 
REMARK   11  A    between atoms: N_21  and  P_22 
REMARK   12  A    between atoms: P_22  and  O_23 
REMARK   13  A    between atoms: P_22  and  O_24 
REMARK   14  A    between atoms: O_23  and  C_26 
REMARK   15  A    between atoms: O_24  and  C_27 
REMARK   16  A    between atoms: C_26  and  C_33 
REMARK   17  A    between atoms: C_35  and  C_40 
REMARK   18  A    between atoms: C_36  and  O_39 
REMARK   19  A    between atoms: C_37  and  O_38 
REMARK   20  A    between atoms: C_50  and  N_51 
ROOT
HETATM    1  C   MOL     1     -67.534 -24.608  -1.311  1.00 -0.25     0.001 A 
HETATM    2  C   MOL     1     -66.207 -24.961  -1.216  1.00 -0.30     0.007 A 
HETATM    3  C   MOL     1     -65.570 -24.957   0.006  1.00 -0.25    -0.056 A 
HETATM    4  C   MOL     1     -66.274 -24.595   1.135  1.00 -0.33     0.007 A 
HETATM    5  C   MOL     1     -67.601 -24.240   1.042  1.00 -0.34     0.001 A 
HETATM    6  C   MOL     1     -68.230 -24.247  -0.181  1.00 -0.27     0.000 A 
ENDROOT
BRANCH   3   7
HETATM    7  C   MOL     1     -64.104 -25.351   0.109  1.00 -0.43     0.074 C 
BRANCH   7   8
HETATM    8  C   MOL     1     -63.183 -24.733  -0.967  1.00 -0.43     0.216 C 
BRANCH   8   9
HETATM    9  N   MOL     1     -63.070 -25.690  -2.124  1.00  0.05    -0.072 N 
HETATM   10  H   MOL     1     -62.385 -26.278  -2.011  1.00 -0.64     0.274 HD
HETATM   11  H   MOL     1     -63.828 -26.183  -2.228  1.00 -0.76     0.274 HD
HETATM   12  H   MOL     1     -62.934 -25.264  -2.914  1.00 -0.15     0.274 HD
ENDBRANCH   8   9
BRANCH   8  13
HETATM   13  C   MOL     1     -61.797 -24.419  -0.360  1.00 -0.29     0.150 C 
BRANCH  13  14
HETATM   14  O   MOL     1     -61.663 -23.003  -0.145  1.00  0.06    -0.393 OA
HETATM   15  H   MOL     1     -61.329 -22.538  -0.972  1.00 -0.27     0.210 HD
ENDBRANCH  13  14
BRANCH  13  16
HETATM   16  C   MOL     1     -60.657 -24.901  -1.284  1.00 -0.14     0.054 C 
BRANCH  16  17
HETATM   17  C   MOL     1     -59.625 -23.783  -1.549  1.00 -0.12     0.073 C 
BRANCH  17  18
HETATM   18  C   MOL     1     -58.260 -24.191  -0.949  1.00 -0.13     0.058 C 
BRANCH  18  19
HETATM   19  C   MOL     1     -58.250 -25.496  -0.167  1.00 -0.16    -0.057 A 
HETATM   20  C   MOL     1     -58.260 -25.480   1.211  1.00 -0.21     0.007 A 
HETATM   21  C   MOL     1     -58.247 -26.661   1.920  1.00 -0.25     0.001 A 
HETATM   22  C   MOL     1     -58.223 -27.863   1.252  1.00 -0.37     0.000 A 
HETATM   23  C   MOL     1     -58.213 -27.884  -0.125  1.00 -0.40     0.001 A 
HETATM   24  C   MOL     1     -58.227 -26.703  -0.831  1.00 -0.21     0.007 A 
ENDBRANCH  18  19
ENDBRANCH  17  18
BRANCH  17  25
HETATM   25  N   MOL     1     -59.481 -23.576  -2.996  1.00  0.15    -0.221 NA
HETATM   26  H   MOL     1     -59.704 -24.443  -3.502  1.00  0.32     0.134 HD
BRANCH  25  27
HETATM   27  P   MOL     1     -60.286 -22.421  -3.536  1.00  0.09     0.413 P 
HETATM   28  O   MOL     1     -61.463 -22.901  -4.344  1.00  0.07    -0.239 OA
BRANCH  27  29
HETATM   29  O   MOL     1     -59.374 -21.434  -4.418  1.00  0.12    -0.299 OA
BRANCH  29  30
HETATM   30  C   MOL     1     -57.951 -21.451  -4.230  1.00 -0.20     0.214 C 
BRANCH  30  31
HETATM   31  C   MOL     1     -57.277 -20.557  -5.284  1.00 -0.04     0.180 C 
HETATM   32  O   MOL     1     -57.464 -21.078  -6.611  1.00  0.26    -0.347 OA
HETATM   33  C   MOL     1     -56.312 -20.792  -7.426  1.00 -0.04     0.222 C 
HETATM   34  C   MOL     1     -55.304 -20.065  -6.504  1.00 -0.10     0.205 C 
HETATM   35  C   MOL     1     -56.729 -19.905  -8.520  1.00 -0.21     0.107 C 
HETATM   36  C   MOL     1     -55.759 -20.437  -5.087  1.00 -0.06     0.182 C 
HETATM   37  N   MOL     1     -57.052 -19.218  -9.366  1.00  0.07    -0.193 NA
BRANCH  33  38
HETATM   38  C   MOL     1     -55.862 -22.143  -7.972  1.00 -0.19     0.088 A 
HETATM   39  N   MOL     1     -54.923 -22.225  -8.944  1.00 -0.03    -0.229 N 
HETATM   40  C   MOL     1     -54.773 -23.555  -9.184  1.00 -0.22     0.104 A 
HETATM   41  N   MOL     1     -54.197 -21.298  -9.635  1.00  0.23    -0.160 NA
HETATM   42  C   MOL     1     -55.592 -24.293  -8.392  1.00 -0.37     0.038 A 
HETATM   43  C   MOL     1     -53.833 -23.943 -10.174  1.00 -0.44     0.151 A 
HETATM   44  C   MOL     1     -56.295 -23.371  -7.611  1.00 -0.17     0.034 A 
HETATM   45  N   MOL     1     -53.114 -23.046 -10.861  1.00 -0.19    -0.221 NA
HETATM   46  C   MOL     1     -53.350 -21.733 -10.538  1.00 -0.33     0.258 A 
BRANCH  43  47
HETATM   47  N   MOL     1     -53.625 -25.270 -10.468  1.00 -0.25    -0.382 N 
HETATM   48  H   MOL     1     -53.309 -25.499 -11.257  1.00 -0.27     0.157 HD
HETATM   49  H   MOL     1     -53.806 -25.893  -9.872  1.00 -0.19     0.157 HD
ENDBRANCH  43  47
ENDBRANCH  33  38
BRANCH  34  50
HETATM   50  O   MOL     1     -53.938 -20.440  -6.742  1.00  0.41    -0.388 OA
HETATM   51  H   MOL     1     -53.717 -20.414  -7.723  1.00 -0.42     0.210 HD
ENDBRANCH  34  50
BRANCH  36  52
HETATM   52  O   MOL     1     -55.170 -21.689  -4.704  1.00  0.07    -0.390 OA
HETATM   53  H   MOL     1     -55.872 -22.395  -4.558  1.00 -0.09     0.210 HD
ENDBRANCH  36  52
ENDBRANCH  30  31
ENDBRANCH  29  30
ENDBRANCH  27  29
BRANCH  27  54
HETATM   54  O   MOL     1     -60.780 -21.474  -2.326  1.00  0.13    -0.260 OA
BRANCH  54  55
HETATM   55  C   MOL     1     -61.330 -20.242  -2.544  1.00 -0.29     0.080 A 
HETATM   56  C   MOL     1     -62.557 -20.090  -3.164  1.00 -0.28     0.037 A 
HETATM   57  C   MOL     1     -63.085 -18.836  -3.365  1.00 -0.40     0.003 A 
HETATM   58  C   MOL     1     -62.395 -17.723  -2.945  1.00 -0.35     0.000 A 
HETATM   59  C   MOL     1     -61.174 -17.864  -2.327  1.00 -0.47     0.003 A 
HETATM   60  C   MOL     1     -60.643 -19.117  -2.129  1.00 -0.37     0.037 A 
ENDBRANCH  54  55
ENDBRANCH  27  54
ENDBRANCH  25  27
ENDBRANCH  17  25
ENDBRANCH  16  17
ENDBRANCH  13  16
ENDBRANCH   8  13
ENDBRANCH   7   8
ENDBRANCH   3   7
TORSDOF 20
ENDMDL
MODEL 2
REMARK VINA RESULT:     -10.7      5.906     12.242
REMARK  20 active torsions:
REMARK  status: ('A' for Active; 'I' for Inactive)
REMARK    1  A    between atoms: C_3  and  C_7 
REMARK    2  A    between atoms: C_7  and  C_8 
REMARK    3  A    between atoms: C_8  and  N_9 
REMARK    4  A    between atoms: C_8  and  C_10 
REMARK    5  A    between atoms: C_10  and  O_11 
REMARK    6  A    between atoms: C_10  and  C_12 
REMARK    7  A    between atoms: C_12  and  C_13 
REMARK    8  A    between atoms: C_13  and  C_14 
REMARK    9  A    between atoms: C_13  and  N_21 
REMARK   10  A    between atoms: C_14  and  C_15 
REMARK   11  A    between atoms: N_21  and  P_22 
REMARK   12  A    between atoms: P_22  and  O_23 
REMARK   13  A    between atoms: P_22  and  O_24 
REMARK   14  A    between atoms: O_23  and  C_26 
REMARK   15  A    between atoms: O_24  and  C_27 
REMARK   16  A    between atoms: C_26  and  C_33 
REMARK   17  A    between atoms: C_35  and  C_40 
REMARK   18  A    between atoms: C_36  and  O_39 
REMARK   19  A    between atoms: C_37  and  O_38 
REMARK   20  A    between atoms: C_50  and  N_51 
ROOT
HETATM    1  C   MOL     1     -63.113 -18.980  -3.226  1.00 -0.25     0.001 A 
HETATM    2  C   MOL     1     -62.268 -20.009  -2.877  1.00 -0.30     0.007 A 
HETATM    3  C   MOL     1     -61.076 -19.745  -2.239  1.00 -0.25    -0.056 A 
HETATM    4  C   MOL     1     -60.735 -18.440  -1.953  1.00 -0.33     0.007 A 
HETATM    5  C   MOL     1     -61.578 -17.410  -2.302  1.00 -0.34     0.001 A 
HETATM    6  C   MOL     1     -62.767 -17.680  -2.939  1.00 -0.27     0.000 A 
ENDROOT
BRANCH   3   7
HETATM    7  C   MOL     1     -60.144 -20.885  -1.851  1.00 -0.43     0.074 C 
BRANCH   7   8
HETATM    8  C   MOL     1     -60.045 -21.161  -0.334  1.00 -0.43     0.216 C 
BRANCH   8   9
HETATM    9  N   MOL     1     -58.617 -20.983   0.106  1.00  0.05    -0.072 N 
HETATM   10  H   MOL     1     -58.418 -20.109   0.264  1.00 -0.64     0.274 HD
HETATM   11  H   MOL     1     -58.443 -21.437   0.875  1.00 -0.76     0.274 HD
HETATM   12  H   MOL     1     -58.024 -21.288  -0.510  1.00 -0.15     0.274 HD
ENDBRANCH   8   9
BRANCH   8  13
HETATM   13  C   MOL     1     -60.555 -22.587  -0.023  1.00 -0.29     0.150 C 
BRANCH  13  14
HETATM   14  O   MOL     1     -61.948 -22.698  -0.367  1.00  0.06    -0.393 OA
HETATM   15  H   MOL     1     -62.269 -21.879  -0.855  1.00 -0.27     0.210 HD
ENDBRANCH  13  14
BRANCH  13  16
HETATM   16  C   MOL     1     -60.372 -22.934   1.471  1.00 -0.14     0.054 C 
BRANCH  16  17
HETATM   17  C   MOL     1     -60.811 -24.383   1.778  1.00 -0.12     0.073 C 
BRANCH  17  18
HETATM   18  C   MOL     1     -59.600 -25.187   2.303  1.00 -0.13     0.058 C 
BRANCH  18  19
HETATM   19  C   MOL     1     -59.091 -26.284   1.380  1.00 -0.16    -0.057 A 
HETATM   20  C   MOL     1     -59.463 -26.305   0.054  1.00 -0.21     0.007 A 
HETATM   21  C   MOL     1     -59.006 -27.300  -0.782  1.00 -0.25     0.001 A 
HETATM   22  C   MOL     1     -58.174 -28.280  -0.293  1.00 -0.37     0.000 A 
HETATM   23  C   MOL     1     -57.799 -28.264   1.032  1.00 -0.40     0.001 A 
HETATM   24  C   MOL     1     -58.256 -27.268   1.865  1.00 -0.21     0.007 A 
ENDBRANCH  18  19
ENDBRANCH  17  18
BRANCH  17  25
HETATM   25  N   MOL     1     -61.870 -24.374   2.796  1.00  0.15    -0.221 NA
HETATM   26  H   MOL     1     -62.173 -23.409   2.984  1.00  0.32     0.134 HD
BRANCH  25  27
HETATM   27  P   MOL     1     -63.053 -25.247   2.461  1.00  0.09     0.413 P 
HETATM   28  O   MOL     1     -62.682 -26.320   1.472  1.00  0.07    -0.239 OA
BRANCH  27  29
HETATM   29  O   MOL     1     -64.282 -24.376   1.897  1.00  0.12    -0.299 OA
BRANCH  29  30
HETATM   30  C   MOL     1     -65.107 -24.931   0.862  1.00 -0.20     0.214 C 
BRANCH  30  31
HETATM   31  C   MOL     1     -66.180 -25.839   1.484  1.00 -0.04     0.180 C 
HETATM   32  O   MOL     1     -66.779 -26.696   0.496  1.00  0.26    -0.347 OA
HETATM   33  C   MOL     1     -68.166 -26.925   0.809  1.00 -0.04     0.222 C 
HETATM   34  C   MOL     1     -68.460 -26.099   2.084  1.00 -0.10     0.205 C 
HETATM   35  C   MOL     1     -68.347 -28.357   1.079  1.00 -0.21     0.107 C 
HETATM   36  C   MOL     1     -67.337 -25.055   2.119  1.00 -0.06     0.182 C 
HETATM   37  N   MOL     1     -68.487 -29.466   1.289  1.00  0.07    -0.193 NA
BRANCH  33  38
HETATM   38  C   MOL     1     -68.932 -26.514  -0.444  1.00 -0.19     0.088 A 
HETATM   39  N   MOL     1     -70.236 -26.842  -0.603  1.00 -0.03    -0.229 N 
HETATM   40  C   MOL     1     -70.590 -26.327  -1.810  1.00 -0.22     0.104 A 
HETATM   41  N   MOL     1     -71.137 -27.526   0.163  1.00  0.23    -0.160 NA
HETATM   42  C   MOL     1     -69.543 -25.694  -2.400  1.00 -0.37     0.038 A 
HETATM   43  C   MOL     1     -71.927 -26.522  -2.244  1.00 -0.44     0.151 A 
HETATM   44  C   MOL     1     -68.474 -25.821  -1.509  1.00 -0.17     0.034 A 
HETATM   45  N   MOL     1     -72.822 -27.191  -1.505  1.00 -0.19    -0.221 NA
HETATM   46  C   MOL     1     -72.354 -27.668  -0.306  1.00 -0.33     0.258 A 
BRANCH  43  47
HETATM   47  N   MOL     1     -72.357 -26.026  -3.452  1.00 -0.25    -0.382 N 
HETATM   48  H   MOL     1     -72.293 -25.164  -3.618  1.00 -0.27     0.157 HD
HETATM   49  H   MOL     1     -72.694 -26.566  -4.061  1.00 -0.19     0.157 HD
ENDBRANCH  43  47
ENDBRANCH  33  38
BRANCH  34  50
HETATM   50  O   MOL     1     -69.759 -25.487   2.081  1.00  0.41    -0.388 OA
HETATM   51  H   MOL     1     -69.730 -24.569   1.670  1.00 -0.42     0.210 HD
ENDBRANCH  34  50
BRANCH  36  52
HETATM   52  O   MOL     1     -67.710 -23.918   1.326  1.00  0.07    -0.390 OA
HETATM   53  H   MOL     1     -67.233 -23.086   1.632  1.00 -0.09     0.210 HD
ENDBRANCH  36  52
ENDBRANCH  30  31
ENDBRANCH  29  30
ENDBRANCH  27  29
BRANCH  27  54
HETATM   54  O   MOL     1     -63.660 -25.903   3.804  1.00  0.13    -0.260 OA
BRANCH  54  55
HETATM   55  C   MOL     1     -63.580 -27.243   4.062  1.00 -0.29     0.080 A 
HETATM   56  C   MOL     1     -62.707 -27.753   5.006  1.00 -0.28     0.037 A 
HETATM   57  C   MOL     1     -62.654 -29.106   5.245  1.00 -0.40     0.003 A 
HETATM   58  C   MOL     1     -63.472 -29.962   4.544  1.00 -0.35     0.000 A 
HETATM   59  C   MOL     1     -64.342 -29.463   3.602  1.00 -0.47     0.003 A 
HETATM   60  C   MOL     1     -64.395 -28.111   3.361  1.00 -0.37     0.037 A 
ENDBRANCH  54  55
ENDBRANCH  27  54
ENDBRANCH  25  27
ENDBRANCH  17  25
ENDBRANCH  16  17
ENDBRANCH  13  16
ENDBRANCH   8  13
ENDBRANCH   7   8
ENDBRANCH   3   7
TORSDOF 20
ENDMDL
MODEL 3
REMARK VINA RESULT:     -10.7      1.374      2.055
REMARK  20 active torsions:
REMARK  status: ('A' for Active; 'I' for Inactive)
REMARK    1  A    between atoms: C_3  and  C_7 
REMARK    2  A    between atoms: C_7  and  C_8 
REMARK    3  A    between atoms: C_8  and  N_9 
REMARK    4  A    between atoms: C_8  and  C_10 
REMARK    5  A    between atoms: C_10  and  O_11 
REMARK    6  A    between atoms: C_10  and  C_12 
REMARK    7  A    between atoms: C_12  and  C_13 
REMARK    8  A    between atoms: C_13  and  C_14 
REMARK    9  A    between atoms: C_13  and  N_21 
REMARK   10  A    between atoms: C_14  and  C_15 
REMARK   11  A    between atoms: N_21  and  P_22 
REMARK   12  A    between atoms: P_22  and  O_23 
REMARK   13  A    between atoms: P_22  and  O_24 
REMARK   14  A    between atoms: O_23  and  C_26 
REMARK   15  A    between atoms: O_24  and  C_27 
REMARK   16  A    between atoms: C_26  and  C_33 
REMARK   17  A    between atoms: C_35  and  C_40 
REMARK   18  A    between atoms: C_36  and  O_39 
REMARK   19  A    between atoms: C_37  and  O_38 
REMARK   20  A    between atoms: C_50  and  N_51 
ROOT
HETATM    1  C   MOL     1     -67.785 -24.280   0.472  1.00 -0.25     0.001 A 
HETATM    2  C   MOL     1     -67.054 -24.523  -0.669  1.00 -0.30     0.007 A 
HETATM    3  C   MOL     1     -65.723 -24.869  -0.582  1.00 -0.25    -0.056 A 
HETATM    4  C   MOL     1     -65.128 -24.970   0.657  1.00 -0.33     0.007 A 
HETATM    5  C   MOL     1     -65.858 -24.727   1.799  1.00 -0.34     0.001 A 
HETATM    6  C   MOL     1     -67.186 -24.381   1.706  1.00 -0.27     0.000 A 
ENDROOT
BRANCH   3   7
HETATM    7  C   MOL     1     -64.917 -25.141  -1.845  1.00 -0.43     0.074 C 
BRANCH   7   8
HETATM    8  C   MOL     1     -63.592 -24.354  -1.957  1.00 -0.43     0.216 C 
BRANCH   8   9
HETATM    9  N   MOL     1     -63.851 -23.054  -2.671  1.00  0.05    -0.072 N 
HETATM   10  H   MOL     1     -64.174 -23.189  -3.511  1.00 -0.64     0.274 HD
HETATM   11  H   MOL     1     -64.463 -22.545  -2.230  1.00 -0.76     0.274 HD
HETATM   12  H   MOL     1     -63.102 -22.546  -2.747  1.00 -0.15     0.274 HD
ENDBRANCH   8   9
BRANCH   8  13
HETATM   13  C   MOL     1     -62.534 -25.203  -2.700  1.00 -0.29     0.150 C 
BRANCH  13  14
HETATM   14  O   MOL     1     -63.107 -26.460  -3.103  1.00  0.06    -0.393 OA
HETATM   15  H   MOL     1     -62.887 -27.188  -2.445  1.00 -0.27     0.210 HD
ENDBRANCH  13  14
BRANCH  13  16
HETATM   16  C   MOL     1     -61.302 -25.470  -1.808  1.00 -0.14     0.054 C 
BRANCH  16  17
HETATM   17  C   MOL     1     -60.445 -24.198  -1.623  1.00 -0.12     0.073 C 
BRANCH  17  18
HETATM   18  C   MOL     1     -59.303 -24.488  -0.623  1.00 -0.13     0.058 C 
BRANCH  18  19
HETATM   19  C   MOL     1     -59.274 -23.606   0.615  1.00 -0.16    -0.057 A 
HETATM   20  C   MOL     1     -59.615 -24.124   1.846  1.00 -0.21     0.007 A 
HETATM   21  C   MOL     1     -59.592 -23.326   2.968  1.00 -0.25     0.001 A 
HETATM   22  C   MOL     1     -59.230 -22.003   2.863  1.00 -0.37     0.000 A 
HETATM   23  C   MOL     1     -58.889 -21.479   1.636  1.00 -0.40     0.001 A 
HETATM   24  C   MOL     1     -58.911 -22.280   0.516  1.00 -0.21     0.007 A 
ENDBRANCH  18  19
ENDBRANCH  17  18
BRANCH  17  25
HETATM   25  N   MOL     1     -59.874 -23.793  -2.915  1.00  0.15    -0.221 NA
HETATM   26  H   MOL     1     -59.971 -24.555  -3.599  1.00  0.32     0.134 HD
BRANCH  25  27
HETATM   27  P   MOL     1     -60.443 -22.509  -3.464  1.00  0.09     0.413 P 
HETATM   28  O   MOL     1     -61.359 -22.768  -4.631  1.00  0.07    -0.239 OA
BRANCH  27  29
HETATM   29  O   MOL     1     -59.277 -21.489  -3.892  1.00  0.12    -0.299 OA
BRANCH  29  30
HETATM   30  C   MOL     1     -58.022 -22.020  -4.342  1.00 -0.20     0.214 C 
BRANCH  30  31
HETATM   31  C   MOL     1     -57.351 -21.025  -5.303  1.00 -0.04     0.180 C 
HETATM   32  O   MOL     1     -57.472 -21.453  -6.670  1.00  0.26    -0.347 OA
HETATM   33  C   MOL     1     -56.306 -21.063  -7.421  1.00 -0.04     0.222 C 
HETATM   34  C   MOL     1     -55.360 -20.369  -6.413  1.00 -0.10     0.205 C 
HETATM   35  C   MOL     1     -56.723 -20.115  -8.461  1.00 -0.21     0.107 C 
HETATM   36  C   MOL     1     -55.846 -20.862  -5.044  1.00 -0.06     0.182 C 
HETATM   37  N   MOL     1     -57.046 -19.379  -9.266  1.00  0.07    -0.193 NA
BRANCH  33  38
HETATM   38  C   MOL     1     -55.784 -22.352  -8.047  1.00 -0.19     0.088 A 
HETATM   39  N   MOL     1     -54.850 -22.322  -9.027  1.00 -0.03    -0.229 N 
HETATM   40  C   MOL     1     -54.625 -23.624  -9.346  1.00 -0.22     0.104 A 
HETATM   41  N   MOL     1     -54.187 -21.315  -9.668  1.00  0.23    -0.160 NA
HETATM   42  C   MOL     1     -55.392 -24.454  -8.593  1.00 -0.37     0.038 A 
HETATM   43  C   MOL     1     -53.674 -23.899 -10.362  1.00 -0.44     0.151 A 
HETATM   44  C   MOL     1     -56.141 -23.622  -7.756  1.00 -0.17     0.034 A 
HETATM   45  N   MOL     1     -53.015 -22.923 -11.000  1.00 -0.19    -0.221 NA
HETATM   46  C   MOL     1     -53.324 -21.647 -10.599  1.00 -0.33     0.258 A 
BRANCH  43  47
HETATM   47  N   MOL     1     -53.391 -25.192 -10.734  1.00 -0.25    -0.382 N 
HETATM   48  H   MOL     1     -52.555 -25.439 -10.857  1.00 -0.27     0.157 HD
HETATM   49  H   MOL     1     -54.041 -25.776 -10.850  1.00 -0.19     0.157 HD
ENDBRANCH  43  47
ENDBRANCH  33  38
BRANCH  34  50
HETATM   50  O   MOL     1     -53.973 -20.672  -6.628  1.00  0.41    -0.388 OA
HETATM   51  H   MOL     1     -53.795 -20.908  -7.590  1.00 -0.42     0.210 HD
ENDBRANCH  34  50
BRANCH  36  52
HETATM   52  O   MOL     1     -55.219 -22.115  -4.732  1.00  0.07    -0.390 OA
HETATM   53  H   MOL     1     -54.862 -22.562  -5.560  1.00 -0.09     0.210 HD
ENDBRANCH  36  52
ENDBRANCH  30  31
ENDBRANCH  29  30
ENDBRANCH  27  29
BRANCH  27  54
HETATM   54  O   MOL     1     -61.221 -21.703  -2.303  1.00  0.13    -0.260 OA
BRANCH  54  55
HETATM   55  C   MOL     1     -61.429 -20.354  -2.366  1.00 -0.29     0.080 A 
HETATM   56  C   MOL     1     -60.638 -19.460  -1.667  1.00 -0.28     0.037 A 
HETATM   57  C   MOL     1     -60.872 -18.108  -1.754  1.00 -0.40     0.003 A 
HETATM   58  C   MOL     1     -61.896 -17.635  -2.542  1.00 -0.35     0.000 A 
HETATM   59  C   MOL     1     -62.688 -18.517  -3.241  1.00 -0.47     0.003 A 
HETATM   60  C   MOL     1     -62.457 -19.869  -3.151  1.00 -0.37     0.037 A 
ENDBRANCH  54  55
ENDBRANCH  27  54
ENDBRANCH  25  27
ENDBRANCH  17  25
ENDBRANCH  16  17
ENDBRANCH  13  16
ENDBRANCH   8  13
ENDBRANCH   7   8
ENDBRANCH   3   7
TORSDOF 20
ENDMDL
MODEL 4
REMARK VINA RESULT:     -10.7      5.061      9.405
REMARK  20 active torsions:
REMARK  status: ('A' for Active; 'I' for Inactive)
REMARK    1  A    between atoms: C_3  and  C_7 
REMARK    2  A    between atoms: C_7  and  C_8 
REMARK    3  A    between atoms: C_8  and  N_9 
REMARK    4  A    between atoms: C_8  and  C_10 
REMARK    5  A    between atoms: C_10  and  O_11 
REMARK    6  A    between atoms: C_10  and  C_12 
REMARK    7  A    between atoms: C_12  and  C_13 
REMARK    8  A    between atoms: C_13  and  C_14 
REMARK    9  A    between atoms: C_13  and  N_21 
REMARK   10  A    between atoms: C_14  and  C_15 
REMARK   11  A    between atoms: N_21  and  P_22 
REMARK   12  A    between atoms: P_22  and  O_23 
REMARK   13  A    between atoms: P_22  and  O_24 
REMARK   14  A    between atoms: O_23  and  C_26 
REMARK   15  A    between atoms: O_24  and  C_27 
REMARK   16  A    between atoms: C_26  and  C_33 
REMARK   17  A    between atoms: C_35  and  C_40 
REMARK   18  A    between atoms: C_36  and  O_39 
REMARK   19  A    between atoms: C_37  and  O_38 
REMARK   20  A    between atoms: C_50  and  N_51 
ROOT
HETATM    1  C   MOL     1     -71.281 -25.636  -0.063  1.00 -0.25     0.001 A 
HETATM    2  C   MOL     1     -70.535 -26.534   0.667  1.00 -0.30     0.007 A 
HETATM    3  C   MOL     1     -69.664 -27.393   0.033  1.00 -0.25    -0.056 A 
HETATM    4  C   MOL     1     -69.545 -27.345  -1.340  1.00 -0.33     0.007 A 
HETATM    5  C   MOL     1     -70.291 -26.449  -2.071  1.00 -0.34     0.001 A 
HETATM    6  C   MOL     1     -71.160 -25.595  -1.432  1.00 -0.27     0.000 A 
ENDROOT
BRANCH   3   7
HETATM    7  C   MOL     1     -68.838 -28.383   0.841  1.00 -0.43     0.074 C 
BRANCH   7   8
HETATM    8  C   MOL     1     -67.368 -28.531   0.389  1.00 -0.43     0.216 C 
BRANCH   8   9
HETATM    9  N   MOL     1     -67.254 -29.718  -0.530  1.00  0.05    -0.072 N 
HETATM   10  H   MOL     1     -67.134 -30.492  -0.069  1.00 -0.64     0.274 HD
HETATM   11  H   MOL     1     -68.004 -29.824  -1.036  1.00 -0.76     0.274 HD
HETATM   12  H   MOL     1     -66.563 -29.639  -1.114  1.00 -0.15     0.274 HD
ENDBRANCH   8   9
BRANCH   8  13
HETATM   13  C   MOL     1     -66.448 -28.685   1.622  1.00 -0.29     0.150 C 
BRANCH  13  14
HETATM   14  O   MOL     1     -66.757 -29.907   2.316  1.00  0.06    -0.393 OA
HETATM   15  H   MOL     1     -67.192 -30.575   1.703  1.00 -0.27     0.210 HD
ENDBRANCH  13  14
BRANCH  13  16
HETATM   16  C   MOL     1     -66.608 -27.496   2.594  1.00 -0.14     0.054 C 
BRANCH  16  17
HETATM   17  C   MOL     1     -65.330 -26.630   2.652  1.00 -0.12     0.073 C 
BRANCH  17  18
HETATM   18  C   MOL     1     -65.692 -25.159   2.347  1.00 -0.13     0.058 C 
BRANCH  18  19
HETATM   19  C   MOL     1     -66.243 -24.892   0.955  1.00 -0.16    -0.057 A 
HETATM   20  C   MOL     1     -65.509 -25.235  -0.160  1.00 -0.21     0.007 A 
HETATM   21  C   MOL     1     -66.006 -24.992  -1.421  1.00 -0.25     0.001 A 
HETATM   22  C   MOL     1     -67.239 -24.403  -1.573  1.00 -0.37     0.000 A 
HETATM   23  C   MOL     1     -67.977 -24.058  -0.462  1.00 -0.40     0.001 A 
HETATM   24  C   MOL     1     -67.479 -24.303   0.798  1.00 -0.21     0.007 A 
ENDBRANCH  18  19
ENDBRANCH  17  18
BRANCH  17  25
HETATM   25  N   MOL     1     -64.732 -26.720   3.991  1.00  0.15    -0.221 NA
HETATM   26  H   MOL     1     -65.358 -27.235   4.624  1.00  0.32     0.134 HD
BRANCH  25  27
HETATM   27  P   MOL     1     -63.348 -27.318   4.007  1.00  0.09     0.413 P 
HETATM   28  O   MOL     1     -62.811 -27.424   5.410  1.00  0.07    -0.239 OA
BRANCH  27  29
HETATM   29  O   MOL     1     -62.335 -26.472   3.089  1.00  0.12    -0.299 OA
BRANCH  29  30
HETATM   30  C   MOL     1     -61.033 -27.011   2.816  1.00 -0.20     0.214 C 
BRANCH  30  31
HETATM   31  C   MOL     1     -60.079 -25.879   2.401  1.00 -0.04     0.180 C 
HETATM   32  O   MOL     1     -60.755 -24.887   1.609  1.00  0.26    -0.347 OA
HETATM   33  C   MOL     1     -59.856 -24.333   0.630  1.00 -0.04     0.222 C 
HETATM   34  C   MOL     1     -58.514 -25.082   0.807  1.00 -0.10     0.205 C 
HETATM   35  C   MOL     1     -59.681 -22.904   0.920  1.00 -0.21     0.107 C 
HETATM   36  C   MOL     1     -58.900 -26.368   1.549  1.00 -0.06     0.182 C 
HETATM   37  N   MOL     1     -59.545 -21.798   1.146  1.00  0.07    -0.193 NA
BRANCH  33  38
HETATM   38  C   MOL     1     -60.555 -24.526  -0.711  1.00 -0.19     0.088 A 
HETATM   39  N   MOL     1     -60.118 -23.891  -1.825  1.00 -0.03    -0.229 N 
HETATM   40  C   MOL     1     -60.960 -24.285  -2.816  1.00 -0.22     0.104 A 
HETATM   41  N   MOL     1     -59.094 -23.022  -2.074  1.00  0.23    -0.160 NA
HETATM   42  C   MOL     1     -61.904 -25.142  -2.347  1.00 -0.37     0.038 A 
HETATM   43  C   MOL     1     -60.735 -23.766  -4.117  1.00 -0.44     0.151 A 
HETATM   44  C   MOL     1     -61.635 -25.291  -0.984  1.00 -0.17     0.034 A 
HETATM   45  N   MOL     1     -59.735 -22.913  -4.378  1.00 -0.19    -0.221 NA
HETATM   46  C   MOL     1     -58.951 -22.583  -3.302  1.00 -0.33     0.258 A 
BRANCH  43  47
HETATM   47  N   MOL     1     -61.545 -24.123  -5.170  1.00 -0.25    -0.382 N 
HETATM   48  H   MOL     1     -62.333 -23.743  -5.264  1.00 -0.27     0.157 HD
HETATM   49  H   MOL     1     -61.279 -24.729  -5.751  1.00 -0.19     0.157 HD
ENDBRANCH  43  47
ENDBRANCH  33  38
BRANCH  34  50
HETATM   50  O   MOL     1     -57.846 -25.361  -0.433  1.00  0.41    -0.388 OA
HETATM   51  H   MOL     1     -58.155 -24.741  -1.163  1.00 -0.42     0.210 HD
ENDBRANCH  34  50
BRANCH  36  52
HETATM   52  O   MOL     1     -59.304 -27.369   0.601  1.00  0.07    -0.390 OA
HETATM   53  H   MOL     1     -60.252 -27.221   0.296  1.00 -0.09     0.210 HD
ENDBRANCH  36  52
ENDBRANCH  30  31
ENDBRANCH  29  30
ENDBRANCH  27  29
BRANCH  27  54
HETATM   54  O   MOL     1     -63.359 -28.766   3.296  1.00  0.13    -0.260 OA
BRANCH  54  55
HETATM   55  C   MOL     1     -63.177 -29.925   3.998  1.00 -0.29     0.080 A 
HETATM   56  C   MOL     1     -64.205 -30.516   4.710  1.00 -0.28     0.037 A 
HETATM   57  C   MOL     1     -63.991 -31.683   5.403  1.00 -0.40     0.003 A 
HETATM   58  C   MOL     1     -62.748 -32.273   5.391  1.00 -0.35     0.000 A 
HETATM   59  C   MOL     1     -61.718 -31.692   4.686  1.00 -0.47     0.003 A 
HETATM   60  C   MOL     1     -61.932 -30.523   3.995  1.00 -0.37     0.037 A 
ENDBRANCH  54  55
ENDBRANCH  27  54
ENDBRANCH  25  27
ENDBRANCH  17  25
ENDBRANCH  16  17
ENDBRANCH  13  16
ENDBRANCH   8  13
ENDBRANCH   7   8
ENDBRANCH   3   7
TORSDOF 20
ENDMDL
MODEL 5
REMARK VINA RESULT:     -10.6      1.772      2.487
REMARK  20 active torsions:
REMARK  status: ('A' for Active; 'I' for Inactive)
REMARK    1  A    between atoms: C_3  and  C_7 
REMARK    2  A    between atoms: C_7  and  C_8 
REMARK    3  A    between atoms: C_8  and  N_9 
REMARK    4  A    between atoms: C_8  and  C_10 
REMARK    5  A    between atoms: C_10  and  O_11 
REMARK    6  A    between atoms: C_10  and  C_12 
REMARK    7  A    between atoms: C_12  and  C_13 
REMARK    8  A    between atoms: C_13  and  C_14 
REMARK    9  A    between atoms: C_13  and  N_21 
REMARK   10  A    between atoms: C_14  and  C_15 
REMARK   11  A    between atoms: N_21  and  P_22 
REMARK   12  A    between atoms: P_22  and  O_23 
REMARK   13  A    between atoms: P_22  and  O_24 
REMARK   14  A    between atoms: O_23  and  C_26 
REMARK   15  A    between atoms: O_24  and  C_27 
REMARK   16  A    between atoms: C_26  and  C_33 
REMARK   17  A    between atoms: C_35  and  C_40 
REMARK   18  A    between atoms: C_36  and  O_39 
REMARK   19  A    between atoms: C_37  and  O_38 
REMARK   20  A    between atoms: C_50  and  N_51 
ROOT
HETATM    1  C   MOL     1     -66.126 -24.857   0.730  1.00 -0.25     0.001 A 
HETATM    2  C   MOL     1     -65.002 -24.933  -0.060  1.00 -0.30     0.007 A 
HETATM    3  C   MOL     1     -63.753 -25.031   0.514  1.00 -0.25    -0.056 A 
HETATM    4  C   MOL     1     -63.639 -25.054   1.888  1.00 -0.33     0.007 A 
HETATM    5  C   MOL     1     -64.763 -24.978   2.679  1.00 -0.34     0.001 A 
HETATM    6  C   MOL     1     -66.007 -24.879   2.099  1.00 -0.27     0.000 A 
ENDROOT
BRANCH   3   7
HETATM    7  C   MOL     1     -62.511 -25.118  -0.361  1.00 -0.43     0.074 C 
BRANCH   7   8
HETATM    8  C   MOL     1     -62.724 -24.726  -1.840  1.00 -0.43     0.216 C 
BRANCH   8   9
HETATM    9  N   MOL     1     -62.559 -25.951  -2.701  1.00  0.05    -0.072 N 
HETATM   10  H   MOL     1     -61.731 -26.316  -2.613  1.00 -0.64     0.274 HD
HETATM   11  H   MOL     1     -63.159 -26.599  -2.482  1.00 -0.76     0.274 HD
HETATM   12  H   MOL     1     -62.685 -25.774  -3.583  1.00 -0.15     0.274 HD
ENDBRANCH   8   9
BRANCH   8  13
HETATM   13  C   MOL     1     -61.725 -23.617  -2.243  1.00 -0.29     0.150 C 
BRANCH  13  14
HETATM   14  O   MOL     1     -62.104 -23.050  -3.509  1.00  0.06    -0.393 OA
HETATM   15  H   MOL     1     -61.463 -23.319  -4.236  1.00 -0.27     0.210 HD
ENDBRANCH  13  14
BRANCH  13  16
HETATM   16  C   MOL     1     -60.286 -24.169  -2.345  1.00 -0.14     0.054 C 
BRANCH  16  17
HETATM   17  C   MOL     1     -59.242 -23.128  -1.882  1.00 -0.12     0.073 C 
BRANCH  17  18
HETATM   18  C   MOL     1     -58.299 -23.773  -0.841  1.00 -0.13     0.058 C 
BRANCH  18  19
HETATM   19  C   MOL     1     -58.948 -24.170   0.476  1.00 -0.16    -0.057 A 
HETATM   20  C   MOL     1     -59.596 -23.226   1.242  1.00 -0.21     0.007 A 
HETATM   21  C   MOL     1     -60.182 -23.582   2.437  1.00 -0.25     0.001 A 
HETATM   22  C   MOL     1     -60.119 -24.886   2.871  1.00 -0.37     0.000 A 
HETATM   23  C   MOL     1     -59.472 -25.833   2.109  1.00 -0.40     0.001 A 
HETATM   24  C   MOL     1     -58.889 -25.474   0.915  1.00 -0.21     0.007 A 
ENDBRANCH  18  19
ENDBRANCH  17  18
BRANCH  17  25
HETATM   25  N   MOL     1     -58.456 -22.669  -3.036  1.00  0.15    -0.221 NA
HETATM   26  H   MOL     1     -58.454 -23.388  -3.771  1.00  0.32     0.134 HD
BRANCH  25  27
HETATM   27  P   MOL     1     -58.900 -21.339  -3.592  1.00  0.09     0.413 P 
HETATM   28  O   MOL     1     -59.984 -21.508  -4.623  1.00  0.07    -0.239 OA
BRANCH  27  29
HETATM   29  O   MOL     1     -57.662 -20.525  -4.218  1.00  0.12    -0.299 OA
BRANCH  29  30
HETATM   30  C   MOL     1     -57.558 -20.412  -5.644  1.00 -0.20     0.214 C 
BRANCH  30  31
HETATM   31  C   MOL     1     -56.195 -20.948  -6.110  1.00 -0.04     0.180 C 
HETATM   32  O   MOL     1     -56.122 -21.021  -7.544  1.00  0.26    -0.347 OA
HETATM   33  C   MOL     1     -55.314 -22.144  -7.946  1.00 -0.04     0.222 C 
HETATM   34  C   MOL     1     -54.884 -22.852  -6.640  1.00 -0.10     0.205 C 
HETATM   35  C   MOL     1     -54.135 -21.632  -8.657  1.00 -0.21     0.107 C 
HETATM   36  C   MOL     1     -55.901 -22.366  -5.599  1.00 -0.06     0.182 C 
HETATM   37  N   MOL     1     -53.222 -21.236  -9.207  1.00  0.07    -0.193 NA
BRANCH  33  38
HETATM   38  C   MOL     1     -56.197 -22.957  -8.886  1.00 -0.19     0.088 A 
HETATM   39  N   MOL     1     -55.714 -24.047  -9.528  1.00 -0.03    -0.229 N 
HETATM   40  C   MOL     1     -56.753 -24.515 -10.270  1.00 -0.22     0.104 A 
HETATM   41  N   MOL     1     -54.499 -24.669  -9.547  1.00  0.23    -0.160 NA
HETATM   42  C   MOL     1     -57.860 -23.745 -10.105  1.00 -0.37     0.038 A 
HETATM   43  C   MOL     1     -56.531 -25.673 -11.059  1.00 -0.44     0.151 A 
HETATM   44  C   MOL     1     -57.490 -22.738  -9.210  1.00 -0.17     0.034 A 
HETATM   45  N   MOL     1     -55.345 -26.295 -11.088  1.00 -0.19    -0.221 NA
HETATM   46  C   MOL     1     -54.369 -25.734 -10.304  1.00 -0.33     0.258 A 
BRANCH  43  47
HETATM   47  N   MOL     1     -57.537 -26.205 -11.831  1.00 -0.25    -0.382 N 
HETATM   48  H   MOL     1     -58.366 -25.932 -11.718  1.00 -0.27     0.157 HD
HETATM   49  H   MOL     1     -57.357 -26.817 -12.439  1.00 -0.19     0.157 HD
ENDBRANCH  43  47
ENDBRANCH  33  38
BRANCH  34  50
HETATM   50  O   MOL     1     -54.870 -24.285  -6.744  1.00  0.41    -0.388 OA
HETATM   51  H   MOL     1     -54.016 -24.613  -7.163  1.00 -0.42     0.210 HD
ENDBRANCH  34  50
BRANCH  36  52
HETATM   52  O   MOL     1     -57.068 -23.201  -5.639  1.00  0.07    -0.390 OA
HETATM   53  H   MOL     1     -56.981 -23.918  -6.339  1.00 -0.09     0.210 HD
ENDBRANCH  36  52
ENDBRANCH  30  31
ENDBRANCH  29  30
ENDBRANCH  27  29
BRANCH  27  54
HETATM   54  O   MOL     1     -59.401 -20.376  -2.398  1.00  0.13    -0.260 OA
BRANCH  54  55
HETATM   55  C   MOL     1     -60.520 -19.599  -2.510  1.00 -0.29     0.080 A 
HETATM   56  C   MOL     1     -61.709 -19.939  -1.890  1.00 -0.28     0.037 A 
HETATM   57  C   MOL     1     -62.815 -19.133  -2.019  1.00 -0.40     0.003 A 
HETATM   58  C   MOL     1     -62.745 -17.979  -2.766  1.00 -0.35     0.000 A 
HETATM   59  C   MOL     1     -61.566 -17.634  -3.386  1.00 -0.47     0.003 A 
HETATM   60  C   MOL     1     -60.460 -18.440  -3.260  1.00 -0.37     0.037 A 
ENDBRANCH  54  55
ENDBRANCH  27  54
ENDBRANCH  25  27
ENDBRANCH  17  25
ENDBRANCH  16  17
ENDBRANCH  13  16
ENDBRANCH   8  13
ENDBRANCH   7   8
ENDBRANCH   3   7
TORSDOF 20
ENDMDL
MODEL 6
REMARK VINA RESULT:     -10.6      3.883     11.648
REMARK  20 active torsions:
REMARK  status: ('A' for Active; 'I' for Inactive)
REMARK    1  A    between atoms: C_3  and  C_7 
REMARK    2  A    between atoms: C_7  and  C_8 
REMARK    3  A    between atoms: C_8  and  N_9 
REMARK    4  A    between atoms: C_8  and  C_10 
REMARK    5  A    between atoms: C_10  and  O_11 
REMARK    6  A    between atoms: C_10  and  C_12 
REMARK    7  A    between atoms: C_12  and  C_13 
REMARK    8  A    between atoms: C_13  and  C_14 
REMARK    9  A    between atoms: C_13  and  N_21 
REMARK   10  A    between atoms: C_14  and  C_15 
REMARK   11  A    between atoms: N_21  and  P_22 
REMARK   12  A    between atoms: P_22  and  O_23 
REMARK   13  A    between atoms: P_22  and  O_24 
REMARK   14  A    between atoms: O_23  and  C_26 
REMARK   15  A    between atoms: O_24  and  C_27 
REMARK   16  A    between atoms: C_26  and  C_33 
REMARK   17  A    between atoms: C_35  and  C_40 
REMARK   18  A    between atoms: C_36  and  O_39 
REMARK   19  A    between atoms: C_37  and  O_38 
REMARK   20  A    between atoms: C_50  and  N_51 
ROOT
HETATM    1  C   MOL     1     -62.702 -17.483  -3.218  1.00 -0.25     0.001 A 
HETATM    2  C   MOL     1     -62.378 -18.632  -3.905  1.00 -0.30     0.007 A 
HETATM    3  C   MOL     1     -61.271 -19.370  -3.544  1.00 -0.25    -0.056 A 
HETATM    4  C   MOL     1     -60.490 -18.948  -2.490  1.00 -0.33     0.007 A 
HETATM    5  C   MOL     1     -60.812 -17.799  -1.803  1.00 -0.34     0.001 A 
HETATM    6  C   MOL     1     -61.918 -17.067  -2.168  1.00 -0.27     0.000 A 
ENDROOT
BRANCH   3   7
HETATM    7  C   MOL     1     -60.916 -20.641  -4.303  1.00 -0.43     0.074 C 
BRANCH   7   8
HETATM    8  C   MOL     1     -59.424 -21.037  -4.252  1.00 -0.43     0.216 C 
BRANCH   8   9
HETATM    9  N   MOL     1     -58.759 -20.612  -5.534  1.00  0.05    -0.072 N 
HETATM   10  H   MOL     1     -57.860 -20.516  -5.434  1.00 -0.64     0.274 HD
HETATM   11  H   MOL     1     -58.888 -21.222  -6.198  1.00 -0.76     0.274 HD
HETATM   12  H   MOL     1     -59.083 -19.823  -5.847  1.00 -0.15     0.274 HD
ENDBRANCH   8   9
BRANCH   8  13
HETATM   13  C   MOL     1     -59.289 -22.561  -4.028  1.00 -0.29     0.150 C 
BRANCH  13  14
HETATM   14  O   MOL     1     -59.247 -23.243  -5.295  1.00  0.06    -0.393 OA
HETATM   15  H   MOL     1     -58.608 -24.018  -5.270  1.00 -0.27     0.210 HD
ENDBRANCH  13  14
BRANCH  13  16
HETATM   16  C   MOL     1     -60.466 -23.112  -3.195  1.00 -0.14     0.054 C 
BRANCH  16  17
HETATM   17  C   MOL     1     -60.006 -24.213  -2.214  1.00 -0.12     0.073 C 
BRANCH  17  18
HETATM   18  C   MOL     1     -58.638 -23.824  -1.610  1.00 -0.13     0.058 C 
BRANCH  18  19
HETATM   19  C   MOL     1     -58.684 -22.802  -0.485  1.00 -0.16    -0.057 A 
HETATM   20  C   MOL     1     -58.312 -21.496  -0.717  1.00 -0.21     0.007 A 
HETATM   21  C   MOL     1     -58.350 -20.569   0.301  1.00 -0.25     0.001 A 
HETATM   22  C   MOL     1     -58.760 -20.947   1.559  1.00 -0.37     0.000 A 
HETATM   23  C   MOL     1     -59.132 -22.251   1.797  1.00 -0.40     0.001 A 
HETATM   24  C   MOL     1     -59.094 -23.175   0.777  1.00 -0.21     0.007 A 
ENDBRANCH  18  19
ENDBRANCH  17  18
BRANCH  17  25
HETATM   25  N   MOL     1     -60.993 -24.360  -1.136  1.00  0.15    -0.221 NA
HETATM   26  H   MOL     1     -61.484 -23.470  -0.981  1.00  0.32     0.134 HD
BRANCH  25  27
HETATM   27  P   MOL     1     -61.979 -25.481  -1.353  1.00  0.09     0.413 P 
HETATM   28  O   MOL     1     -62.314 -25.643  -2.813  1.00  0.07    -0.239 OA
BRANCH  27  29
HETATM   29  O   MOL     1     -63.322 -25.252  -0.500  1.00  0.12    -0.299 OA
BRANCH  29  30
HETATM   30  C   MOL     1     -63.211 -24.913   0.891  1.00 -0.20     0.214 C 
BRANCH  30  31
HETATM   31  C   MOL     1     -64.120 -25.831   1.723  1.00 -0.04     0.180 C 
HETATM   32  O   MOL     1     -65.083 -26.506   0.896  1.00  0.26    -0.347 OA
HETATM   33  C   MOL     1     -66.317 -26.691   1.615  1.00 -0.04     0.222 C 
HETATM   34  C   MOL     1     -66.109 -26.031   2.999  1.00 -0.10     0.205 C 
HETATM   35  C   MOL     1     -66.549 -28.133   1.770  1.00 -0.21     0.107 C 
HETATM   36  C   MOL     1     -64.932 -25.072   2.782  1.00 -0.06     0.182 C 
HETATM   37  N   MOL     1     -66.728 -29.249   1.891  1.00  0.07    -0.193 NA
BRANCH  33  38
HETATM   38  C   MOL     1     -67.392 -26.066   0.733  1.00 -0.19     0.088 A 
HETATM   39  N   MOL     1     -68.704 -26.165   1.056  1.00 -0.03    -0.229 N 
HETATM   40  C   MOL     1     -69.366 -25.509   0.066  1.00 -0.22     0.104 A 
HETATM   41  N   MOL     1     -69.380 -26.751   2.088  1.00  0.23    -0.160 NA
HETATM   42  C   MOL     1     -68.503 -25.010  -0.856  1.00 -0.37     0.038 A 
HETATM   43  C   MOL     1     -70.781 -25.451   0.147  1.00 -0.44     0.151 A 
HETATM   44  C   MOL     1     -67.228 -25.377  -0.418  1.00 -0.17     0.034 A 
HETATM   45  N   MOL     1     -71.459 -26.020   1.153  1.00 -0.19    -0.221 NA
HETATM   46  C   MOL     1     -70.688 -26.658   2.092  1.00 -0.33     0.258 A 
BRANCH  43  47
HETATM   47  N   MOL     1     -71.518 -24.800  -0.815  1.00 -0.25    -0.382 N 
HETATM   48  H   MOL     1     -72.166 -25.226  -1.232  1.00 -0.27     0.157 HD
HETATM   49  H   MOL     1     -71.346 -23.961  -1.017  1.00 -0.19     0.157 HD
ENDBRANCH  43  47
ENDBRANCH  33  38
BRANCH  34  50
HETATM   50  O   MOL     1     -67.274 -25.346   3.486  1.00  0.41    -0.388 OA
HETATM   51  H   MOL     1     -68.109 -25.674   3.031  1.00 -0.42     0.210 HD
ENDBRANCH  34  50
BRANCH  36  52
HETATM   52  O   MOL     1     -65.418 -23.816   2.284  1.00  0.07    -0.390 OA
HETATM   53  H   MOL     1     -66.338 -23.912   1.888  1.00 -0.09     0.210 HD
ENDBRANCH  36  52
ENDBRANCH  30  31
ENDBRANCH  29  30
ENDBRANCH  27  29
BRANCH  27  54
HETATM   54  O   MOL     1     -61.396 -26.859  -0.750  1.00  0.13    -0.260 OA
BRANCH  54  55
HETATM   55  C   MOL     1     -60.264 -26.899   0.014  1.00 -0.29     0.080 A 
HETATM   56  C   MOL     1     -60.257 -26.476   1.331  1.00 -0.28     0.037 A 
HETATM   57  C   MOL     1     -59.102 -26.533   2.075  1.00 -0.40     0.003 A 
HETATM   58  C   MOL     1     -57.943 -27.015   1.511  1.00 -0.35     0.000 A 
HETATM   59  C   MOL     1     -57.940 -27.438   0.201  1.00 -0.47     0.003 A 
HETATM   60  C   MOL     1     -59.094 -27.378  -0.543  1.00 -0.37     0.037 A 
ENDBRANCH  54  55
ENDBRANCH  27  54
ENDBRANCH  25  27
ENDBRANCH  17  25
ENDBRANCH  16  17
ENDBRANCH  13  16
ENDBRANCH   8  13
ENDBRANCH   7   8
ENDBRANCH   3   7
TORSDOF 20
ENDMDL
MODEL 7
REMARK VINA RESULT:     -10.4      3.322     10.596
REMARK  20 active torsions:
REMARK  status: ('A' for Active; 'I' for Inactive)
REMARK    1  A    between atoms: C_3  and  C_7 
REMARK    2  A    between atoms: C_7  and  C_8 
REMARK    3  A    between atoms: C_8  and  N_9 
REMARK    4  A    between atoms: C_8  and  C_10 
REMARK    5  A    between atoms: C_10  and  O_11 
REMARK    6  A    between atoms: C_10  and  C_12 
REMARK    7  A    between atoms: C_12  and  C_13 
REMARK    8  A    between atoms: C_13  and  C_14 
REMARK    9  A    between atoms: C_13  and  N_21 
REMARK   10  A    between atoms: C_14  and  C_15 
REMARK   11  A    between atoms: N_21  and  P_22 
REMARK   12  A    between atoms: P_22  and  O_23 
REMARK   13  A    between atoms: P_22  and  O_24 
REMARK   14  A    between atoms: O_23  and  C_26 
REMARK   15  A    between atoms: O_24  and  C_27 
REMARK   16  A    between atoms: C_26  and  C_33 
REMARK   17  A    between atoms: C_35  and  C_40 
REMARK   18  A    between atoms: C_36  and  O_39 
REMARK   19  A    between atoms: C_37  and  O_38 
REMARK   20  A    between atoms: C_50  and  N_51 
ROOT
HETATM    1  C   MOL     1     -55.755 -21.383  -9.439  1.00 -0.25     0.001 A 
HETATM    2  C   MOL     1     -56.389 -20.519  -8.574  1.00 -0.30     0.007 A 
HETATM    3  C   MOL     1     -55.704 -19.971  -7.512  1.00 -0.25    -0.056 A 
HETATM    4  C   MOL     1     -54.378 -20.295  -7.321  1.00 -0.33     0.007 A 
HETATM    5  C   MOL     1     -53.743 -21.160  -8.183  1.00 -0.34     0.001 A 
HETATM    6  C   MOL     1     -54.433 -21.704  -9.242  1.00 -0.27     0.000 A 
ENDROOT
BRANCH   3   7
HETATM    7  C   MOL     1     -56.405 -19.013  -6.559  1.00 -0.43     0.074 C 
BRANCH   7   8
HETATM    8  C   MOL     1     -57.936 -18.915  -6.739  1.00 -0.43     0.216 C 
BRANCH   8   9
HETATM    9  N   MOL     1     -58.255 -17.716  -7.592  1.00  0.05    -0.072 N 
HETATM   10  H   MOL     1     -57.674 -17.032  -7.445  1.00 -0.64     0.274 HD
HETATM   11  H   MOL     1     -58.211 -17.915  -8.480  1.00 -0.76     0.274 HD
HETATM   12  H   MOL     1     -59.092 -17.398  -7.443  1.00 -0.15     0.274 HD
ENDBRANCH   8   9
BRANCH   8  13
HETATM   13  C   MOL     1     -58.626 -18.821  -5.358  1.00 -0.29     0.150 C 
BRANCH  13  14
HETATM   14  O   MOL     1     -59.316 -17.565  -5.237  1.00  0.06    -0.393 OA
HETATM   15  H   MOL     1     -60.052 -17.486  -5.918  1.00 -0.27     0.210 HD
ENDBRANCH  13  14
BRANCH  13  16
HETATM   16  C   MOL     1     -57.602 -18.950  -4.210  1.00 -0.14     0.054 C 
BRANCH  16  17
HETATM   17  C   MOL     1     -58.050 -19.990  -3.159  1.00 -0.12     0.073 C 
BRANCH  17  18
HETATM   18  C   MOL     1     -56.975 -21.093  -3.036  1.00 -0.13     0.058 C 
BRANCH  18  19
HETATM   19  C   MOL     1     -56.772 -21.954  -4.273  1.00 -0.16    -0.057 A 
HETATM   20  C   MOL     1     -57.852 -22.330  -5.043  1.00 -0.21     0.007 A 
HETATM   21  C   MOL     1     -57.670 -23.112  -6.162  1.00 -0.25     0.001 A 
HETATM   22  C   MOL     1     -56.406 -23.523  -6.515  1.00 -0.37     0.000 A 
HETATM   23  C   MOL     1     -55.323 -23.150  -5.750  1.00 -0.40     0.001 A 
HETATM   24  C   MOL     1     -55.508 -22.368  -4.632  1.00 -0.21     0.007 A 
ENDBRANCH  18  19
ENDBRANCH  17  18
BRANCH  17  25
HETATM   25  N   MOL     1     -58.229 -19.333  -1.858  1.00  0.15    -0.221 NA
HETATM   26  H   MOL     1     -58.647 -18.402  -1.985  1.00  0.32     0.134 HD
BRANCH  25  27
HETATM   27  P   MOL     1     -59.024 -20.142  -0.864  1.00  0.09     0.413 P 
HETATM   28  O   MOL     1     -58.222 -20.432   0.377  1.00  0.07    -0.239 OA
BRANCH  27  29
HETATM   29  O   MOL     1     -59.551 -21.514  -1.515  1.00  0.12    -0.299 OA
BRANCH  29  30
HETATM   30  C   MOL     1     -59.421 -22.732  -0.766  1.00 -0.20     0.214 C 
BRANCH  30  31
HETATM   31  C   MOL     1     -60.637 -23.635  -1.027  1.00 -0.04     0.180 C 
HETATM   32  O   MOL     1     -61.515 -23.674   0.110  1.00  0.26    -0.347 OA
HETATM   33  C   MOL     1     -62.131 -24.971   0.222  1.00 -0.04     0.222 C 
HETATM   34  C   MOL     1     -61.545 -25.824  -0.929  1.00 -0.10     0.205 C 
HETATM   35  C   MOL     1     -63.580 -24.812   0.047  1.00 -0.21     0.107 C 
HETATM   36  C   MOL     1     -60.252 -25.093  -1.314  1.00 -0.06     0.182 C 
HETATM   37  N   MOL     1     -64.702 -24.687  -0.089  1.00  0.07    -0.193 NA
BRANCH  33  38
HETATM   38  C   MOL     1     -61.809 -25.447   1.634  1.00 -0.19     0.088 A 
HETATM   39  N   MOL     1     -62.543 -26.420   2.227  1.00 -0.03    -0.229 N 
HETATM   40  C   MOL     1     -61.988 -26.586   3.457  1.00 -0.22     0.104 A 
HETATM   41  N   MOL     1     -63.618 -27.163   1.832  1.00  0.23    -0.160 NA
HETATM   42  C   MOL     1     -60.938 -25.745   3.641  1.00 -0.37     0.038 A 
HETATM   43  C   MOL     1     -62.564 -27.561   4.313  1.00 -0.44     0.151 A 
HETATM   44  C   MOL     1     -60.831 -25.010   2.457  1.00 -0.17     0.034 A 
HETATM   45  N   MOL     1     -63.619 -28.298   3.940  1.00 -0.19    -0.221 NA
HETATM   46  C   MOL     1     -64.097 -28.043   2.679  1.00 -0.33     0.258 A 
BRANCH  43  47
HETATM   47  N   MOL     1     -62.054 -27.787   5.570  1.00 -0.25    -0.382 N 
HETATM   48  H   MOL     1     -62.248 -28.535   5.991  1.00 -0.27     0.157 HD
HETATM   49  H   MOL     1     -61.535 -27.188   5.955  1.00 -0.19     0.157 HD
ENDBRANCH  43  47
ENDBRANCH  33  38
BRANCH  34  50
HETATM   50  O   MOL     1     -61.297 -27.190  -0.560  1.00  0.41    -0.388 OA
HETATM   51  H   MOL     1     -61.562 -27.365   0.394  1.00 -0.42     0.210 HD
ENDBRANCH  34  50
BRANCH  36  52
HETATM   52  O   MOL     1     -59.178 -25.538  -0.471  1.00  0.07    -0.390 OA
HETATM   53  H   MOL     1     -58.594 -24.769  -0.187  1.00 -0.09     0.210 HD
ENDBRANCH  36  52
ENDBRANCH  30  31
ENDBRANCH  29  30
ENDBRANCH  27  29
BRANCH  27  54
HETATM   54  O   MOL     1     -60.391 -19.372  -0.486  1.00  0.13    -0.260 OA
BRANCH  54  55
HETATM   55  C   MOL     1     -61.263 -18.925  -1.439  1.00 -0.29     0.080 A 
HETATM   56  C   MOL     1     -61.143 -17.669  -2.005  1.00 -0.28     0.037 A 
HETATM   57  C   MOL     1     -62.035 -17.250  -2.965  1.00 -0.40     0.003 A 
HETATM   58  C   MOL     1     -63.054 -18.082  -3.368  1.00 -0.35     0.000 A 
HETATM   59  C   MOL     1     -63.181 -19.334  -2.809  1.00 -0.47     0.003 A 
HETATM   60  C   MOL     1     -62.292 -19.752  -1.848  1.00 -0.37     0.037 A 
ENDBRANCH  54  55
ENDBRANCH  27  54
ENDBRANCH  25  27
ENDBRANCH  17  25
ENDBRANCH  16  17
ENDBRANCH  13  16
ENDBRANCH   8  13
ENDBRANCH   7   8
ENDBRANCH   3   7
TORSDOF 20
ENDMDL
MODEL 8
REMARK VINA RESULT:     -10.2      3.107      9.678
REMARK  20 active torsions:
REMARK  status: ('A' for Active; 'I' for Inactive)
REMARK    1  A    between atoms: C_3  and  C_7 
REMARK    2  A    between atoms: C_7  and  C_8 
REMARK    3  A    between atoms: C_8  and  N_9 
REMARK    4  A    between atoms: C_8  and  C_10 
REMARK    5  A    between atoms: C_10  and  O_11 
REMARK    6  A    between atoms: C_10  and  C_12 
REMARK    7  A    between atoms: C_12  and  C_13 
REMARK    8  A    between atoms: C_13  and  C_14 
REMARK    9  A    between atoms: C_13  and  N_21 
REMARK   10  A    between atoms: C_14  and  C_15 
REMARK   11  A    between atoms: N_21  and  P_22 
REMARK   12  A    between atoms: P_22  and  O_23 
REMARK   13  A    between atoms: P_22  and  O_24 
REMARK   14  A    between atoms: O_23  and  C_26 
REMARK   15  A    between atoms: O_24  and  C_27 
REMARK   16  A    between atoms: C_26  and  C_33 
REMARK   17  A    between atoms: C_35  and  C_40 
REMARK   18  A    between atoms: C_36  and  O_39 
REMARK   19  A    between atoms: C_37  and  O_38 
REMARK   20  A    between atoms: C_50  and  N_51 
ROOT
HETATM    1  C   MOL     1     -56.155 -21.564  -9.814  1.00 -0.25     0.001 A 
HETATM    2  C   MOL     1     -56.636 -20.619  -8.937  1.00 -0.30     0.007 A 
HETATM    3  C   MOL     1     -55.801 -20.052  -7.998  1.00 -0.25    -0.056 A 
HETATM    4  C   MOL     1     -54.480 -20.440  -7.944  1.00 -0.33     0.007 A 
HETATM    5  C   MOL     1     -53.997 -21.386  -8.819  1.00 -0.34     0.001 A 
HETATM    6  C   MOL     1     -54.835 -21.948  -9.754  1.00 -0.27     0.000 A 
ENDROOT
BRANCH   3   7
HETATM    7  C   MOL     1     -56.334 -19.004  -7.031  1.00 -0.43     0.074 C 
BRANCH   7   8
HETATM    8  C   MOL     1     -57.872 -18.860  -7.005  1.00 -0.43     0.216 C 
BRANCH   8   9
HETATM    9  N   MOL     1     -58.260 -17.595  -7.723  1.00  0.05    -0.072 N 
HETATM   10  H   MOL     1     -57.748 -16.889  -7.465  1.00 -0.64     0.274 HD
HETATM   11  H   MOL     1     -58.162 -17.678  -8.625  1.00 -0.76     0.274 HD
HETATM   12  H   MOL     1     -59.127 -17.368  -7.581  1.00 -0.15     0.274 HD
ENDBRANCH   8   9
BRANCH   8  13
HETATM   13  C   MOL     1     -58.378 -18.853  -5.543  1.00 -0.29     0.150 C 
BRANCH  13  14
HETATM   14  O   MOL     1     -59.179 -17.682  -5.305  1.00  0.06    -0.393 OA
HETATM   15  H   MOL     1     -59.248 -17.114  -6.132  1.00 -0.27     0.210 HD
ENDBRANCH  13  14
BRANCH  13  16
HETATM   16  C   MOL     1     -57.201 -18.876  -4.543  1.00 -0.14     0.054 C 
BRANCH  16  17
HETATM   17  C   MOL     1     -57.253 -20.120  -3.629  1.00 -0.12     0.073 C 
BRANCH  17  18
HETATM   18  C   MOL     1     -56.016 -21.006  -3.896  1.00 -0.13     0.058 C 
BRANCH  18  19
HETATM   19  C   MOL     1     -56.181 -22.052  -4.988  1.00 -0.16    -0.057 A 
HETATM   20  C   MOL     1     -55.088 -22.755  -5.448  1.00 -0.21     0.007 A 
HETATM   21  C   MOL     1     -55.235 -23.699  -6.439  1.00 -0.25     0.001 A 
HETATM   22  C   MOL     1     -56.477 -23.944  -6.977  1.00 -0.37     0.000 A 
HETATM   23  C   MOL     1     -57.572 -23.244  -6.522  1.00 -0.40     0.001 A 
HETATM   24  C   MOL     1     -57.423 -22.301  -5.530  1.00 -0.21     0.007 A 
ENDBRANCH  18  19
ENDBRANCH  17  18
BRANCH  17  25
HETATM   25  N   MOL     1     -57.259 -19.699  -2.221  1.00  0.15    -0.221 NA
HETATM   26  H   MOL     1     -57.137 -18.680  -2.155  1.00  0.32     0.134 HD
BRANCH  25  27
HETATM   27  P   MOL     1     -58.479 -20.140  -1.452  1.00  0.09     0.413 P 
HETATM   28  O   MOL     1     -58.855 -19.137  -0.394  1.00  0.07    -0.239 OA
BRANCH  27  29
HETATM   29  O   MOL     1     -58.260 -21.588  -0.789  1.00  0.12    -0.299 OA
BRANCH  29  30
HETATM   30  C   MOL     1     -58.736 -21.818   0.546  1.00 -0.20     0.214 C 
BRANCH  30  31
HETATM   31  C   MOL     1     -58.680 -23.321   0.865  1.00 -0.04     0.180 C 
HETATM   32  O   MOL     1     -59.380 -24.094  -0.125  1.00  0.26    -0.347 OA
HETATM   33  C   MOL     1     -59.994 -25.246   0.483  1.00 -0.04     0.222 C 
HETATM   34  C   MOL     1     -59.680 -25.151   1.995  1.00 -0.10     0.205 C 
HETATM   35  C   MOL     1     -59.381 -26.452  -0.087  1.00 -0.21     0.107 C 
HETATM   36  C   MOL     1     -59.328 -23.673   2.212  1.00 -0.06     0.182 C 
HETATM   37  N   MOL     1     -58.905 -27.385  -0.529  1.00  0.07    -0.193 NA
BRANCH  33  38
HETATM   38  C   MOL     1     -61.468 -25.161   0.103  1.00 -0.19     0.088 A 
HETATM   39  N   MOL     1     -61.847 -24.977  -1.185  1.00 -0.03    -0.229 N 
HETATM   40  C   MOL     1     -63.206 -24.948  -1.157  1.00 -0.22     0.104 A 
HETATM   41  N   MOL     1     -61.163 -24.830  -2.357  1.00  0.23    -0.160 NA
HETATM   42  C   MOL     1     -63.675 -25.107   0.108  1.00 -0.37     0.038 A 
HETATM   43  C   MOL     1     -63.887 -24.765  -2.388  1.00 -0.44     0.151 A 
HETATM   44  C   MOL     1     -62.544 -25.243   0.917  1.00 -0.17     0.034 A 
HETATM   45  N   MOL     1     -63.230 -24.619  -3.547  1.00 -0.19    -0.221 NA
HETATM   46  C   MOL     1     -61.861 -24.661  -3.455  1.00 -0.33     0.258 A 
BRANCH  43  47
HETATM   47  N   MOL     1     -65.260 -24.729  -2.438  1.00 -0.25    -0.382 N 
HETATM   48  H   MOL     1     -65.730 -25.249  -1.905  1.00 -0.27     0.157 HD
HETATM   49  H   MOL     1     -65.672 -24.189  -2.998  1.00 -0.19     0.157 HD
ENDBRANCH  43  47
ENDBRANCH  33  38
BRANCH  34  50
HETATM   50  O   MOL     1     -60.769 -25.569   2.833  1.00  0.41    -0.388 OA
HETATM   51  H   MOL     1     -60.715 -26.552   3.040  1.00 -0.42     0.210 HD
ENDBRANCH  34  50
BRANCH  36  52
HETATM   52  O   MOL     1     -60.530 -22.920   2.440  1.00  0.07    -0.390 OA
HETATM   53  H   MOL     1     -60.361 -21.931   2.362  1.00 -0.09     0.210 HD
ENDBRANCH  36  52
ENDBRANCH  30  31
ENDBRANCH  29  30
ENDBRANCH  27  29
BRANCH  27  54
HETATM   54  O   MOL     1     -59.714 -20.387  -2.461  1.00  0.13    -0.260 OA
BRANCH  54  55
HETATM   55  C   MOL     1     -60.753 -19.505  -2.571  1.00 -0.29     0.080 A 
HETATM   56  C   MOL     1     -60.591 -18.154  -2.326  1.00 -0.28     0.037 A 
HETATM   57  C   MOL     1     -61.656 -17.292  -2.449  1.00 -0.40     0.003 A 
HETATM   58  C   MOL     1     -62.891 -17.772  -2.820  1.00 -0.35     0.000 A 
HETATM   59  C   MOL     1     -63.061 -19.115  -3.066  1.00 -0.47     0.003 A 
HETATM   60  C   MOL     1     -61.998 -19.977  -2.940  1.00 -0.37     0.037 A 
ENDBRANCH  54  55
ENDBRANCH  27  54
ENDBRANCH  25  27
ENDBRANCH  17  25
ENDBRANCH  16  17
ENDBRANCH  13  16
ENDBRANCH   8  13
ENDBRANCH   7   8
ENDBRANCH   3   7
TORSDOF 20
ENDMDL
MODEL 9
REMARK VINA RESULT:     -10.1      5.828      9.598
REMARK  20 active torsions:
REMARK  status: ('A' for Active; 'I' for Inactive)
REMARK    1  A    between atoms: C_3  and  C_7 
REMARK    2  A    between atoms: C_7  and  C_8 
REMARK    3  A    between atoms: C_8  and  N_9 
REMARK    4  A    between atoms: C_8  and  C_10 
REMARK    5  A    between atoms: C_10  and  O_11 
REMARK    6  A    between atoms: C_10  and  C_12 
REMARK    7  A    between atoms: C_12  and  C_13 
REMARK    8  A    between atoms: C_13  and  C_14 
REMARK    9  A    between atoms: C_13  and  N_21 
REMARK   10  A    between atoms: C_14  and  C_15 
REMARK   11  A    between atoms: N_21  and  P_22 
REMARK   12  A    between atoms: P_22  and  O_23 
REMARK   13  A    between atoms: P_22  and  O_24 
REMARK   14  A    between atoms: O_23  and  C_26 
REMARK   15  A    between atoms: O_24  and  C_27 
REMARK   16  A    between atoms: C_26  and  C_33 
REMARK   17  A    between atoms: C_35  and  C_40 
REMARK   18  A    between atoms: C_36  and  O_39 
REMARK   19  A    between atoms: C_37  and  O_38 
REMARK   20  A    between atoms: C_50  and  N_51 
ROOT
HETATM    1  C   MOL     1     -71.320 -25.773  -0.682  1.00 -0.25     0.001 A 
HETATM    2  C   MOL     1     -70.632 -26.368   0.352  1.00 -0.30     0.007 A 
HETATM    3  C   MOL     1     -69.602 -27.244   0.091  1.00 -0.25    -0.056 A 
HETATM    4  C   MOL     1     -69.263 -27.520  -1.217  1.00 -0.33     0.007 A 
HETATM    5  C   MOL     1     -69.950 -26.928  -2.252  1.00 -0.34     0.001 A 
HETATM    6  C   MOL     1     -70.978 -26.054  -1.984  1.00 -0.27     0.000 A 
ENDROOT
BRANCH   3   7
HETATM    7  C   MOL     1     -68.841 -27.898   1.235  1.00 -0.43     0.074 C 
BRANCH   7   8
HETATM    8  C   MOL     1     -67.822 -28.979   0.810  1.00 -0.43     0.216 C 
BRANCH   8   9
HETATM    9  N   MOL     1     -68.470 -30.333   0.914  1.00  0.05    -0.072 N 
HETATM   10  H   MOL     1     -68.223 -30.769   1.673  1.00 -0.64     0.274 HD
HETATM   11  H   MOL     1     -69.378 -30.271   0.929  1.00 -0.76     0.274 HD
HETATM   12  H   MOL     1     -68.263 -30.871   0.212  1.00 -0.15     0.274 HD
ENDBRANCH   8   9
BRANCH   8  13
HETATM   13  C   MOL     1     -66.558 -28.891   1.697  1.00 -0.29     0.150 C 
BRANCH  13  14
HETATM   14  O   MOL     1     -66.512 -30.010   2.600  1.00  0.06    -0.393 OA
HETATM   15  H   MOL     1     -66.614 -30.880   2.108  1.00 -0.27     0.210 HD
ENDBRANCH  13  14
BRANCH  13  16
HETATM   16  C   MOL     1     -66.534 -27.579   2.512  1.00 -0.14     0.054 C 
BRANCH  16  17
HETATM   17  C   MOL     1     -65.229 -26.787   2.280  1.00 -0.12     0.073 C 
BRANCH  17  18
HETATM   18  C   MOL     1     -65.561 -25.287   2.109  1.00 -0.13     0.058 C 
BRANCH  18  19
HETATM   19  C   MOL     1     -66.294 -24.920   0.827  1.00 -0.16    -0.057 A 
HETATM   20  C   MOL     1     -65.763 -25.259  -0.398  1.00 -0.21     0.007 A 
HETATM   21  C   MOL     1     -66.424 -24.924  -1.559  1.00 -0.25     0.001 A 
HETATM   22  C   MOL     1     -67.619 -24.246  -1.499  1.00 -0.37     0.000 A 
HETATM   23  C   MOL     1     -68.154 -23.904  -0.277  1.00 -0.40     0.001 A 
HETATM   24  C   MOL     1     -67.492 -24.241   0.882  1.00 -0.21     0.007 A 
ENDBRANCH  18  19
ENDBRANCH  17  18
BRANCH  17  25
HETATM   25  N   MOL     1     -64.334 -26.961   3.432  1.00  0.15    -0.221 NA
HETATM   26  H   MOL     1     -64.602 -27.798   3.966  1.00  0.32     0.134 HD
BRANCH  25  27
HETATM   27  P   MOL     1     -62.870 -27.006   3.072  1.00  0.09     0.413 P 
HETATM   28  O   MOL     1     -62.082 -25.983   3.847  1.00  0.07    -0.239 OA
BRANCH  27  29
HETATM   29  O   MOL     1     -62.649 -26.795   1.494  1.00  0.12    -0.299 OA
BRANCH  29  30
HETATM   30  C   MOL     1     -62.433 -25.466   0.996  1.00 -0.20     0.214 C 
BRANCH  30  31
HETATM   31  C   MOL     1     -61.070 -24.945   1.481  1.00 -0.04     0.180 C 
HETATM   32  O   MOL     1     -61.093 -23.521   1.676  1.00  0.26    -0.347 OA
HETATM   33  C   MOL     1     -59.809 -22.952   1.357  1.00 -0.04     0.222 C 
HETATM   34  C   MOL     1     -58.926 -24.130   0.881  1.00 -0.10     0.205 C 
HETATM   35  C   MOL     1     -59.250 -22.361   2.579  1.00 -0.21     0.107 C 
HETATM   36  C   MOL     1     -59.934 -25.217   0.486  1.00 -0.06     0.182 C 
HETATM   37  N   MOL     1     -58.817 -21.903   3.526  1.00  0.07    -0.193 NA
BRANCH  33  38
HETATM   38  C   MOL     1     -60.095 -21.872   0.320  1.00 -0.19     0.088 A 
HETATM   39  N   MOL     1     -59.180 -20.914   0.039  1.00 -0.03    -0.229 N 
HETATM   40  C   MOL     1     -59.760 -20.133  -0.910  1.00 -0.22     0.104 A 
HETATM   41  N   MOL     1     -57.925 -20.643   0.505  1.00  0.23    -0.160 NA
HETATM   42  C   MOL     1     -61.004 -20.579  -1.221  1.00 -0.37     0.038 A 
HETATM   43  C   MOL     1     -59.014 -19.030  -1.402  1.00 -0.44     0.151 A 
HETATM   44  C   MOL     1     -61.214 -21.704  -0.419  1.00 -0.17     0.034 A 
HETATM   45  N   MOL     1     -57.782 -18.751  -0.955  1.00 -0.19    -0.221 NA
HETATM   46  C   MOL     1     -57.298 -19.605   0.004  1.00 -0.33     0.258 A 
BRANCH  43  47
HETATM   47  N   MOL     1     -59.534 -18.199  -2.366  1.00 -0.25    -0.382 N 
HETATM   48  H   MOL     1     -60.401 -18.048  -2.391  1.00 -0.27     0.157 HD
HETATM   49  H   MOL     1     -59.006 -17.815  -2.957  1.00 -0.19     0.157 HD
ENDBRANCH  43  47
ENDBRANCH  33  38
BRANCH  34  50
HETATM   50  O   MOL     1     -58.054 -23.787  -0.208  1.00  0.41    -0.388 OA
HETATM   51  H   MOL     1     -57.137 -23.538   0.121  1.00 -0.42     0.210 HD
ENDBRANCH  34  50
BRANCH  36  52
HETATM   52  O   MOL     1     -60.353 -25.015  -0.873  1.00  0.07    -0.390 OA
HETATM   53  H   MOL     1     -60.509 -25.892  -1.341  1.00 -0.09     0.210 HD
ENDBRANCH  36  52
ENDBRANCH  30  31
ENDBRANCH  29  30
ENDBRANCH  27  29
BRANCH  27  54
HETATM   54  O   MOL     1     -62.279 -28.485   3.327  1.00  0.13    -0.260 OA
BRANCH  54  55
HETATM   55  C   MOL     1     -62.741 -29.293   4.328  1.00 -0.29     0.080 A 
HETATM   56  C   MOL     1     -62.419 -29.068   5.654  1.00 -0.28     0.037 A 
HETATM   57  C   MOL     1     -62.903 -29.897   6.638  1.00 -0.40     0.003 A 
HETATM   58  C   MOL     1     -63.716 -30.957   6.308  1.00 -0.35     0.000 A 
HETATM   59  C   MOL     1     -64.042 -31.188   4.991  1.00 -0.47     0.003 A 
HETATM   60  C   MOL     1     -63.556 -30.362   4.007  1.00 -0.37     0.037 A 
ENDBRANCH  54  55
ENDBRANCH  27  54
ENDBRANCH  25  27
ENDBRANCH  17  25
ENDBRANCH  16  17
ENDBRANCH  13  16
ENDBRANCH   8  13
ENDBRANCH   7   8
ENDBRANCH   3   7
TORSDOF 20
ENDMDL
MODEL 10
REMARK VINA RESULT:     -10.0      3.074     10.479
REMARK  20 active torsions:
REMARK  status: ('A' for Active; 'I' for Inactive)
REMARK    1  A    between atoms: C_3  and  C_7 
REMARK    2  A    between atoms: C_7  and  C_8 
REMARK    3  A    between atoms: C_8  and  N_9 
REMARK    4  A    between atoms: C_8  and  C_10 
REMARK    5  A    between atoms: C_10  and  O_11 
REMARK    6  A    between atoms: C_10  and  C_12 
REMARK    7  A    between atoms: C_12  and  C_13 
REMARK    8  A    between atoms: C_13  and  C_14 
REMARK    9  A    between atoms: C_13  and  N_21 
REMARK   10  A    between atoms: C_14  and  C_15 
REMARK   11  A    between atoms: N_21  and  P_22 
REMARK   12  A    between atoms: P_22  and  O_23 
REMARK   13  A    between atoms: P_22  and  O_24 
REMARK   14  A    between atoms: O_23  and  C_26 
REMARK   15  A    between atoms: O_24  and  C_27 
REMARK   16  A    between atoms: C_26  and  C_33 
REMARK   17  A    between atoms: C_35  and  C_40 
REMARK   18  A    between atoms: C_36  and  O_39 
REMARK   19  A    between atoms: C_37  and  O_38 
REMARK   20  A    between atoms: C_50  and  N_51 
ROOT
HETATM    1  C   MOL     1     -53.760 -21.237  -8.743  1.00 -0.25     0.001 A 
HETATM    2  C   MOL     1     -54.206 -21.279  -7.441  1.00 -0.30     0.007 A 
HETATM    3  C   MOL     1     -54.960 -22.343  -6.997  1.00 -0.25    -0.056 A 
HETATM    4  C   MOL     1     -55.265 -23.367  -7.868  1.00 -0.33     0.007 A 
HETATM    5  C   MOL     1     -54.822 -23.326  -9.170  1.00 -0.34     0.001 A 
HETATM    6  C   MOL     1     -54.069 -22.261  -9.607  1.00 -0.27     0.000 A 
ENDROOT
BRANCH   3   7
HETATM    7  C   MOL     1     -55.449 -22.389  -5.556  1.00 -0.43     0.074 C 
BRANCH   7   8
HETATM    8  C   MOL     1     -56.654 -21.474  -5.245  1.00 -0.43     0.216 C 
BRANCH   8   9
HETATM    9  N   MOL     1     -56.264 -20.495  -4.170  1.00  0.05    -0.072 N 
HETATM   10  H   MOL     1     -55.382 -20.276  -4.216  1.00 -0.64     0.274 HD
HETATM   11  H   MOL     1     -56.734 -19.717  -4.238  1.00 -0.76     0.274 HD
HETATM   12  H   MOL     1     -56.421 -20.816  -3.335  1.00 -0.15     0.274 HD
ENDBRANCH   8   9
BRANCH   8  13
HETATM   13  C   MOL     1     -57.868 -22.328  -4.813  1.00 -0.29     0.150 C 
BRANCH  13  14
HETATM   14  O   MOL     1     -58.246 -23.220  -5.876  1.00  0.06    -0.393 OA
HETATM   15  H   MOL     1     -58.846 -22.763  -6.541  1.00 -0.27     0.210 HD
ENDBRANCH  13  14
BRANCH  13  16
HETATM   16  C   MOL     1     -59.076 -21.440  -4.443  1.00 -0.14     0.054 C 
BRANCH  16  17
HETATM   17  C   MOL     1     -59.446 -21.571  -2.949  1.00 -0.12     0.073 C 
BRANCH  17  18
HETATM   18  C   MOL     1     -59.436 -23.063  -2.546  1.00 -0.13     0.058 C 
BRANCH  18  19
HETATM   19  C   MOL     1     -60.787 -23.761  -2.580  1.00 -0.16    -0.057 A 
HETATM   20  C   MOL     1     -60.865 -25.130  -2.444  1.00 -0.21     0.007 A 
HETATM   21  C   MOL     1     -62.088 -25.764  -2.478  1.00 -0.25     0.001 A 
HETATM   22  C   MOL     1     -63.238 -25.030  -2.649  1.00 -0.37     0.000 A 
HETATM   23  C   MOL     1     -63.166 -23.662  -2.786  1.00 -0.40     0.001 A 
HETATM   24  C   MOL     1     -61.943 -23.031  -2.751  1.00 -0.21     0.007 A 
ENDBRANCH  18  19
ENDBRANCH  17  18
BRANCH  17  25
HETATM   25  N   MOL     1     -58.470 -20.837  -2.132  1.00  0.15    -0.221 NA
HETATM   26  H   MOL     1     -58.089 -20.044  -2.663  1.00  0.32     0.134 HD
BRANCH  25  27
HETATM   27  P   MOL     1     -59.006 -20.378  -0.799  1.00  0.09     0.413 P 
HETATM   28  O   MOL     1     -58.445 -19.035  -0.414  1.00  0.07    -0.239 OA
BRANCH  27  29
HETATM   29  O   MOL     1     -58.703 -21.456   0.356  1.00  0.12    -0.299 OA
BRANCH  29  30
HETATM   30  C   MOL     1     -59.805 -22.055   1.052  1.00 -0.20     0.214 C 
BRANCH  30  31
HETATM   31  C   MOL     1     -59.463 -23.509   1.413  1.00 -0.04     0.180 C 
HETATM   32  O   MOL     1     -60.254 -24.439   0.653  1.00  0.26    -0.347 OA
HETATM   33  C   MOL     1     -60.540 -25.611   1.439  1.00 -0.04     0.222 C 
HETATM   34  C   MOL     1     -59.903 -25.362   2.827  1.00 -0.10     0.205 C 
HETATM   35  C   MOL     1     -59.908 -26.767   0.791  1.00 -0.21     0.107 C 
HETATM   36  C   MOL     1     -59.727 -23.839   2.889  1.00 -0.06     0.182 C 
HETATM   37  N   MOL     1     -59.418 -27.662   0.289  1.00  0.07    -0.193 NA
BRANCH  33  38
HETATM   38  C   MOL     1     -62.059 -25.747   1.417  1.00 -0.19     0.088 A 
HETATM   39  N   MOL     1     -62.675 -26.791   2.020  1.00 -0.03    -0.229 N 
HETATM   40  C   MOL     1     -64.002 -26.597   1.804  1.00 -0.22     0.104 A 
HETATM   41  N   MOL     1     -62.226 -27.874   2.721  1.00  0.23    -0.160 NA
HETATM   42  C   MOL     1     -64.223 -25.466   1.084  1.00 -0.37     0.038 A 
HETATM   43  C   MOL     1     -64.904 -27.555   2.335  1.00 -0.44     0.151 A 
HETATM   44  C   MOL     1     -62.959 -24.923   0.837  1.00 -0.17     0.034 A 
HETATM   45  N   MOL     1     -64.479 -28.623   3.024  1.00 -0.19    -0.221 NA
HETATM   46  C   MOL     1     -63.119 -28.719   3.178  1.00 -0.33     0.258 A 
BRANCH  43  47
HETATM   47  N   MOL     1     -66.261 -27.422   2.159  1.00 -0.25    -0.382 N 
HETATM   48  H   MOL     1     -66.644 -27.759   1.441  1.00 -0.27     0.157 HD
HETATM   49  H   MOL     1     -66.750 -27.004   2.760  1.00 -0.19     0.157 HD
ENDBRANCH  43  47
ENDBRANCH  33  38
BRANCH  34  50
HETATM   50  O   MOL     1     -60.698 -25.853   3.917  1.00  0.41    -0.388 OA
HETATM   51  H   MOL     1     -60.160 -26.449   4.523  1.00 -0.42     0.210 HD
ENDBRANCH  34  50
BRANCH  36  52
HETATM   52  O   MOL     1     -60.939 -23.233   3.364  1.00  0.07    -0.390 OA
HETATM   53  H   MOL     1     -61.749 -23.664   2.952  1.00 -0.09     0.210 HD
ENDBRANCH  36  52
ENDBRANCH  30  31
ENDBRANCH  29  30
ENDBRANCH  27  29
BRANCH  27  54
HETATM   54  O   MOL     1     -60.618 -20.328  -0.834  1.00  0.13    -0.260 OA
BRANCH  54  55
HETATM   55  C   MOL     1     -61.303 -19.393  -1.558  1.00 -0.29     0.080 A 
HETATM   56  C   MOL     1     -60.893 -18.074  -1.618  1.00 -0.28     0.037 A 
HETATM   57  C   MOL     1     -61.602 -17.158  -2.360  1.00 -0.40     0.003 A 
HETATM   58  C   MOL     1     -62.726 -17.552  -3.049  1.00 -0.35     0.000 A 
HETATM   59  C   MOL     1     -63.141 -18.863  -2.995  1.00 -0.47     0.003 A 
HETATM   60  C   MOL     1     -62.434 -19.778  -2.252  1.00 -0.37     0.037 A 
ENDBRANCH  54  55
ENDBRANCH  27  54
ENDBRANCH  25  27
ENDBRANCH  17  25
ENDBRANCH  16  17
ENDBRANCH  13  16
ENDBRANCH   8  13
ENDBRANCH   7   8
ENDBRANCH   3   7
TORSDOF 20
ENDMDL
