MODEL 1
REMARK VINA RESULT:      -7.1      0.000      0.000
REMARK  7 active torsions:
REMARK  status: ('A' for Active; 'I' for Inactive)
REMARK    1  A    between atoms: O_2  and  C_10 
REMARK    2  A    between atoms: O_3  and  C_11 
REMARK    3  A    between atoms: O_4  and  C_14 
REMARK    4  A    between atoms: O_6  and  N_9 
REMARK    5  A    between atoms: N_7  and  C_12 
REMARK    6  A    between atoms: N_9  and  C_18 
REMARK    7  A    between atoms: C_13  and  C_14 
ROOT
HETATM    1  O   UNK     0     -59.985 -20.708  -3.684  0.00  0.00    -0.353 OA
HETATM    2  C   UNK     0     -59.697 -22.783  -2.578  0.00  0.00     0.198 C 
HETATM    3  C   UNK     0     -60.807 -22.928  -3.597  0.00  0.00     0.182 C 
HETATM    4  C   UNK     0     -58.986 -21.532  -3.062  0.00  0.00     0.264 C 
HETATM    5  C   UNK     0     -61.195 -21.478  -3.854  0.00  0.00     0.179 C 
ENDROOT
BRANCH   4   6
HETATM    6  N   UNK     0     -58.378 -20.797  -1.989  0.00  0.00    -0.278 N 
HETATM    7  C   UNK     0     -58.730 -21.110  -0.685  0.00  0.00     0.102 A 
HETATM    8  C   UNK     0     -58.216 -20.481   0.370  0.00  0.00     0.070 A 
HETATM    9  C   UNK     0     -57.229 -19.408   0.083  0.00  0.00     0.153 A 
HETATM   10  N   UNK     0     -56.887 -19.100  -1.140  0.00  0.00    -0.174 NA
HETATM   11  C   UNK     0     -57.432 -19.767  -2.224  0.00  0.00     0.352 A 
HETATM   12  O   UNK     0     -57.097 -19.466  -3.371  0.00  0.00    -0.244 OA
BRANCH   9  13
HETATM   13  N   UNK     0     -56.675 -18.732   1.146  0.00  0.00    -0.251 N 
HETATM   14  H   UNK     0     -57.085 -18.602   2.063  0.00  0.00     0.196 HD
BRANCH  13  15
HETATM   15  O   UNK     0     -55.402 -18.300   0.912  0.00  0.00    -0.288 OA
HETATM   16  H   UNK     0     -55.551 -17.545   0.320  0.00  0.00     0.244 HD
ENDBRANCH  13  15
ENDBRANCH   9  13
ENDBRANCH   4   6
BRANCH   5  17
HETATM   17  C   UNK     0     -62.234 -20.950  -2.874  0.00  0.00     0.198 C 
BRANCH  17  18
HETATM   18  O   UNK     0     -63.305 -21.874  -2.808  0.00  0.00    -0.398 OA
HETATM   19  H   UNK     0     -63.323 -22.351  -3.655  0.00  0.00     0.209 HD
ENDBRANCH  17  18
ENDBRANCH   5  17
BRANCH   2  20
HETATM   20  O   UNK     0     -58.849 -23.912  -2.545  0.00  0.00    -0.388 OA
HETATM   21  H   UNK     0     -58.457 -24.009  -3.429  0.00  0.00     0.210 HD
ENDBRANCH   2  20
BRANCH   3  22
HETATM   22  O   UNK     0     -60.294 -23.468  -4.815  0.00  0.00    -0.390 OA
HETATM   23  H   UNK     0     -60.959 -24.058  -5.206  0.00  0.00     0.210 HD
ENDBRANCH   3  22
TORSDOF 7
ENDMDL
MODEL 2
REMARK VINA RESULT:      -6.9     13.772     15.022
REMARK  7 active torsions:
REMARK  status: ('A' for Active; 'I' for Inactive)
REMARK    1  A    between atoms: O_2  and  C_10 
REMARK    2  A    between atoms: O_3  and  C_11 
REMARK    3  A    between atoms: O_4  and  C_14 
REMARK    4  A    between atoms: O_6  and  N_9 
REMARK    5  A    between atoms: N_7  and  C_12 
REMARK    6  A    between atoms: N_9  and  C_18 
REMARK    7  A    between atoms: C_13  and  C_14 
ROOT
HETATM    1  O   UNK     0     -62.933 -34.542   3.967  0.00  0.00    -0.353 OA
HETATM    2  C   UNK     0     -62.233 -35.045   6.173  0.00  0.00     0.198 C 
HETATM    3  C   UNK     0     -62.681 -36.327   5.503  0.00  0.00     0.182 C 
HETATM    4  C   UNK     0     -62.005 -34.130   4.984  0.00  0.00     0.264 C 
HETATM    5  C   UNK     0     -63.522 -35.804   4.346  0.00  0.00     0.179 C 
ENDROOT
BRANCH   4   6
HETATM    6  N   UNK     0     -62.241 -32.750   5.300  0.00  0.00    -0.278 N 
HETATM    7  C   UNK     0     -63.320 -32.428   6.109  0.00  0.00     0.102 A 
HETATM    8  C   UNK     0     -63.613 -31.176   6.454  0.00  0.00     0.070 A 
HETATM    9  C   UNK     0     -62.716 -30.118   5.922  0.00  0.00     0.153 A 
HETATM   10  N   UNK     0     -61.695 -30.404   5.158  0.00  0.00    -0.174 NA
HETATM   11  C   UNK     0     -61.406 -31.713   4.812  0.00  0.00     0.352 A 
HETATM   12  O   UNK     0     -60.438 -31.965   4.093  0.00  0.00    -0.244 OA
BRANCH   9  13
HETATM   13  N   UNK     0     -62.985 -28.810   6.254  0.00  0.00    -0.251 N 
HETATM   14  H   UNK     0     -63.882 -28.425   6.527  0.00  0.00     0.196 HD
BRANCH  13  15
HETATM   15  O   UNK     0     -61.874 -28.019   6.296  0.00  0.00    -0.288 OA
HETATM   16  H   UNK     0     -61.592 -28.018   5.367  0.00  0.00     0.244 HD
ENDBRANCH  13  15
ENDBRANCH   9  13
ENDBRANCH   4   6
BRANCH   5  17
HETATM   17  C   UNK     0     -64.976 -35.554   4.725  0.00  0.00     0.198 C 
BRANCH  17  18
HETATM   18  O   UNK     0     -65.377 -36.541   5.658  0.00  0.00    -0.398 OA
HETATM   19  H   UNK     0     -64.587 -37.065   5.877  0.00  0.00     0.209 HD
ENDBRANCH  17  18
ENDBRANCH   5  17
BRANCH   2  20
HETATM   20  O   UNK     0     -61.067 -35.226   6.951  0.00  0.00    -0.388 OA
HETATM   21  H   UNK     0     -61.311 -35.764   7.723  0.00  0.00     0.210 HD
ENDBRANCH   2  20
BRANCH   3  22
HETATM   22  O   UNK     0     -61.558 -37.017   4.954  0.00  0.00    -0.390 OA
HETATM   23  H   UNK     0     -61.875 -37.710   4.352  0.00  0.00     0.210 HD
ENDBRANCH   3  22
TORSDOF 7
ENDMDL
MODEL 3
REMARK VINA RESULT:      -6.8     14.138     15.505
REMARK  7 active torsions:
REMARK  status: ('A' for Active; 'I' for Inactive)
REMARK    1  A    between atoms: O_2  and  C_10 
REMARK    2  A    between atoms: O_3  and  C_11 
REMARK    3  A    between atoms: O_4  and  C_14 
REMARK    4  A    between atoms: O_6  and  N_9 
REMARK    5  A    between atoms: N_7  and  C_12 
REMARK    6  A    between atoms: N_9  and  C_18 
REMARK    7  A    between atoms: C_13  and  C_14 
ROOT
HETATM    1  O   UNK     0     -63.365 -34.484   7.101  0.00  0.00    -0.353 OA
HETATM    2  C   UNK     0     -64.229 -34.373   4.898  0.00  0.00     0.198 C 
HETATM    3  C   UNK     0     -64.113 -35.828   5.300  0.00  0.00     0.182 C 
HETATM    4  C   UNK     0     -64.180 -33.670   6.242  0.00  0.00     0.264 C 
HETATM    5  C   UNK     0     -63.136 -35.760   6.465  0.00  0.00     0.179 C 
ENDROOT
BRANCH   4   6
HETATM    6  N   UNK     0     -63.601 -32.360   6.155  0.00  0.00    -0.278 N 
HETATM    7  C   UNK     0     -62.725 -32.087   5.115  0.00  0.00     0.102 A 
HETATM    8  C   UNK     0     -62.143 -30.900   4.956  0.00  0.00     0.070 A 
HETATM    9  C   UNK     0     -62.479 -29.860   5.963  0.00  0.00     0.153 A 
HETATM   10  N   UNK     0     -63.301 -30.101   6.949  0.00  0.00    -0.174 NA
HETATM   11  C   UNK     0     -63.898 -31.341   7.096  0.00  0.00     0.352 A 
HETATM   12  O   UNK     0     -64.673 -31.550   8.031  0.00  0.00    -0.244 OA
BRANCH   9  13
HETATM   13  N   UNK     0     -61.897 -28.620   5.836  0.00  0.00    -0.251 N 
HETATM   14  H   UNK     0     -61.976 -27.990   5.046  0.00  0.00     0.196 HD
BRANCH  13  15
HETATM   15  O   UNK     0     -61.238 -28.210   6.959  0.00  0.00    -0.288 OA
HETATM   16  H   UNK     0     -60.546 -28.886   7.044  0.00  0.00     0.244 HD
ENDBRANCH  13  15
ENDBRANCH   9  13
ENDBRANCH   4   6
BRANCH   5  17
HETATM   17  C   UNK     0     -61.677 -35.817   6.031  0.00  0.00     0.198 C 
BRANCH  17  18
HETATM   18  O   UNK     0     -60.956 -36.596   6.969  0.00  0.00    -0.398 OA
HETATM   19  H   UNK     0     -61.542 -36.740   7.732  0.00  0.00     0.209 HD
ENDBRANCH  17  18
ENDBRANCH   5  17
BRANCH   2  20
HETATM   20  O   UNK     0     -65.421 -34.106   4.187  0.00  0.00    -0.388 OA
HETATM   21  H   UNK     0     -65.316 -33.242   3.755  0.00  0.00     0.210 HD
ENDBRANCH   2  20
BRANCH   3  22
HETATM   22  O   UNK     0     -65.363 -36.304   5.801  0.00  0.00    -0.390 OA
HETATM   23  H   UNK     0     -66.040 -35.622   5.662  0.00  0.00     0.210 HD
ENDBRANCH   3  22
TORSDOF 7
ENDMDL
MODEL 4
REMARK VINA RESULT:      -6.8     10.380     13.083
REMARK  7 active torsions:
REMARK  status: ('A' for Active; 'I' for Inactive)
REMARK    1  A    between atoms: O_2  and  C_10 
REMARK    2  A    between atoms: O_3  and  C_11 
REMARK    3  A    between atoms: O_4  and  C_14 
REMARK    4  A    between atoms: O_6  and  N_9 
REMARK    5  A    between atoms: N_7  and  C_12 
REMARK    6  A    between atoms: N_9  and  C_18 
REMARK    7  A    between atoms: C_13  and  C_14 
ROOT
HETATM    1  O   UNK     0     -68.088 -26.612  -0.414  0.00  0.00    -0.353 OA
HETATM    2  C   UNK     0     -67.864 -24.673   0.928  0.00  0.00     0.198 C 
HETATM    3  C   UNK     0     -66.530 -24.967   0.275  0.00  0.00     0.182 C 
HETATM    4  C   UNK     0     -68.822 -25.473   0.063  0.00  0.00     0.264 C 
HETATM    5  C   UNK     0     -66.686 -26.428  -0.124  0.00  0.00     0.179 C 
ENDROOT
BRANCH   4   6
HETATM    6  N   UNK     0     -69.970 -25.929   0.793  0.00  0.00    -0.278 N 
HETATM    7  C   UNK     0     -69.774 -26.717   1.916  0.00  0.00     0.102 A 
HETATM    8  C   UNK     0     -70.780 -27.183   2.654  0.00  0.00     0.070 A 
HETATM    9  C   UNK     0     -72.150 -26.815   2.210  0.00  0.00     0.153 A 
HETATM   10  N   UNK     0     -72.352 -26.074   1.152  0.00  0.00    -0.174 NA
HETATM   11  C   UNK     0     -71.292 -25.597   0.400  0.00  0.00     0.352 A 
HETATM   12  O   UNK     0     -71.501 -24.898  -0.592  0.00  0.00    -0.244 OA
BRANCH   9  13
HETATM   13  N   UNK     0     -73.218 -27.278   2.943  0.00  0.00    -0.251 N 
HETATM   14  H   UNK     0     -73.931 -26.719   3.396  0.00  0.00     0.196 HD
BRANCH  13  15
HETATM   15  O   UNK     0     -73.330 -28.638   2.943  0.00  0.00    -0.288 OA
HETATM   16  H   UNK     0     -74.263 -28.763   2.705  0.00  0.00     0.244 HD
ENDBRANCH  13  15
ENDBRANCH   9  13
ENDBRANCH   4   6
BRANCH   5  17
HETATM   17  C   UNK     0     -66.299 -27.399   0.984  0.00  0.00     0.198 C 
BRANCH  17  18
HETATM   18  O   UNK     0     -64.950 -27.160   1.344  0.00  0.00    -0.398 OA
HETATM   19  H   UNK     0     -64.499 -26.818   0.553  0.00  0.00     0.209 HD
ENDBRANCH  17  18
ENDBRANCH   5  17
BRANCH   2  20
HETATM   20  O   UNK     0     -68.164 -23.292   0.937  0.00  0.00    -0.388 OA
HETATM   21  H   UNK     0     -67.331 -22.813   1.080  0.00  0.00     0.210 HD
ENDBRANCH   2  20
BRANCH   3  22
HETATM   22  O   UNK     0     -66.384 -24.198  -0.919  0.00  0.00    -0.390 OA
HETATM   23  H   UNK     0     -66.719 -24.713  -1.672  0.00  0.00     0.210 HD
ENDBRANCH   3  22
TORSDOF 7
ENDMDL
MODEL 5
REMARK VINA RESULT:      -6.7      1.743      2.461
REMARK  7 active torsions:
REMARK  status: ('A' for Active; 'I' for Inactive)
REMARK    1  A    between atoms: O_2  and  C_10 
REMARK    2  A    between atoms: O_3  and  C_11 
REMARK    3  A    between atoms: O_4  and  C_14 
REMARK    4  A    between atoms: O_6  and  N_9 
REMARK    5  A    between atoms: N_7  and  C_12 
REMARK    6  A    between atoms: N_9  and  C_18 
REMARK    7  A    between atoms: C_13  and  C_14 
ROOT
HETATM    1  O   UNK     0     -60.290 -20.813  -3.354  0.00  0.00    -0.353 OA
HETATM    2  C   UNK     0     -61.614 -21.332  -1.459  0.00  0.00     0.198 C 
HETATM    3  C   UNK     0     -62.490 -21.388  -2.692  0.00  0.00     0.182 C 
HETATM    4  C   UNK     0     -60.222 -21.428  -2.057  0.00  0.00     0.264 C 
HETATM    5  C   UNK     0     -61.674 -20.591  -3.700  0.00  0.00     0.179 C 
ENDROOT
BRANCH   4   6
HETATM    6  N   UNK     0     -59.237 -20.744  -1.268  0.00  0.00    -0.278 N 
HETATM    7  C   UNK     0     -58.763 -19.519  -1.712  0.00  0.00     0.102 A 
HETATM    8  C   UNK     0     -57.852 -18.815  -1.044  0.00  0.00     0.070 A 
HETATM    9  C   UNK     0     -57.354 -19.412   0.223  0.00  0.00     0.153 A 
HETATM   10  N   UNK     0     -57.790 -20.566   0.654  0.00  0.00    -0.174 NA
HETATM   11  C   UNK     0     -58.740 -21.282  -0.054  0.00  0.00     0.352 A 
HETATM   12  O   UNK     0     -59.141 -22.367   0.369  0.00  0.00    -0.244 OA
BRANCH   9  13
HETATM   13  N   UNK     0     -56.410 -18.717   0.943  0.00  0.00    -0.251 N 
HETATM   14  H   UNK     0     -56.575 -18.124   1.747  0.00  0.00     0.196 HD
BRANCH  13  15
HETATM   15  O   UNK     0     -55.128 -18.968   0.546  0.00  0.00    -0.288 OA
HETATM   16  H   UNK     0     -54.702 -18.106   0.684  0.00  0.00     0.244 HD
ENDBRANCH  13  15
ENDBRANCH   9  13
ENDBRANCH   4   6
BRANCH   5  17
HETATM   17  C   UNK     0     -61.942 -19.092  -3.641  0.00  0.00     0.198 C 
BRANCH  17  18
HETATM   18  O   UNK     0     -63.111 -18.812  -4.389  0.00  0.00    -0.398 OA
HETATM   19  H   UNK     0     -62.962 -19.147  -5.290  0.00  0.00     0.209 HD
ENDBRANCH  17  18
ENDBRANCH   5  17
BRANCH   2  20
HETATM   20  O   UNK     0     -61.891 -22.383  -0.556  0.00  0.00    -0.388 OA
HETATM   21  H   UNK     0     -62.698 -22.828  -0.864  0.00  0.00     0.210 HD
ENDBRANCH   2  20
BRANCH   3  22
HETATM   22  O   UNK     0     -62.588 -22.730  -3.169  0.00  0.00    -0.390 OA
HETATM   23  H   UNK     0     -61.746 -22.982  -3.584  0.00  0.00     0.210 HD
ENDBRANCH   3  22
TORSDOF 7
ENDMDL
MODEL 6
REMARK VINA RESULT:      -6.7      9.164     11.757
REMARK  7 active torsions:
REMARK  status: ('A' for Active; 'I' for Inactive)
REMARK    1  A    between atoms: O_2  and  C_10 
REMARK    2  A    between atoms: O_3  and  C_11 
REMARK    3  A    between atoms: O_4  and  C_14 
REMARK    4  A    between atoms: O_6  and  N_9 
REMARK    5  A    between atoms: N_7  and  C_12 
REMARK    6  A    between atoms: N_9  and  C_18 
REMARK    7  A    between atoms: C_13  and  C_14 
ROOT
HETATM    1  O   UNK     0     -66.283 -26.767   1.380  0.00  0.00    -0.353 OA
HETATM    2  C   UNK     0     -66.277 -24.719   0.189  0.00  0.00     0.198 C 
HETATM    3  C   UNK     0     -64.879 -24.982   0.707  0.00  0.00     0.182 C 
HETATM    4  C   UNK     0     -66.909 -26.096   0.274  0.00  0.00     0.264 C 
HETATM    5  C   UNK     0     -65.133 -26.004   1.806  0.00  0.00     0.179 C 
ENDROOT
BRANCH   4   6
HETATM    6  N   UNK     0     -68.324 -26.037   0.506  0.00  0.00    -0.278 N 
HETATM    7  C   UNK     0     -68.803 -26.316   1.777  0.00  0.00     0.102 A 
HETATM    8  C   UNK     0     -70.098 -26.283   2.082  0.00  0.00     0.070 A 
HETATM    9  C   UNK     0     -71.028 -25.930   0.978  0.00  0.00     0.153 A 
HETATM   10  N   UNK     0     -70.593 -25.665  -0.226  0.00  0.00    -0.174 NA
HETATM   11  C   UNK     0     -69.241 -25.702  -0.523  0.00  0.00     0.352 A 
HETATM   12  O   UNK     0     -68.849 -25.448  -1.662  0.00  0.00    -0.244 OA
BRANCH   9  13
HETATM   13  N   UNK     0     -72.376 -25.887   1.251  0.00  0.00    -0.251 N 
HETATM   14  H   UNK     0     -73.133 -25.955   0.581  0.00  0.00     0.196 HD
BRANCH  13  15
HETATM   15  O   UNK     0     -72.660 -25.846   2.585  0.00  0.00    -0.288 OA
HETATM   16  H   UNK     0     -73.461 -26.394   2.637  0.00  0.00     0.244 HD
ENDBRANCH  13  15
ENDBRANCH   9  13
ENDBRANCH   4   6
BRANCH   5  17
HETATM   17  C   UNK     0     -65.457 -25.371   3.153  0.00  0.00     0.198 C 
BRANCH  17  18
HETATM   18  O   UNK     0     -64.527 -24.332   3.400  0.00  0.00    -0.398 OA
HETATM   19  H   UNK     0     -64.760 -23.594   2.811  0.00  0.00     0.209 HD
ENDBRANCH  17  18
ENDBRANCH   5  17
BRANCH   2  20
HETATM   20  O   UNK     0     -66.273 -24.202  -1.126  0.00  0.00    -0.388 OA
HETATM   21  H   UNK     0     -66.611 -24.899  -1.714  0.00  0.00     0.210 HD
ENDBRANCH   2  20
BRANCH   3  22
HETATM   22  O   UNK     0     -64.087 -25.610  -0.303  0.00  0.00    -0.390 OA
HETATM   23  H   UNK     0     -63.307 -26.013   0.112  0.00  0.00     0.210 HD
ENDBRANCH   3  22
TORSDOF 7
ENDMDL
MODEL 7
REMARK VINA RESULT:      -6.6      7.814      9.498
REMARK  7 active torsions:
REMARK  status: ('A' for Active; 'I' for Inactive)
REMARK    1  A    between atoms: O_2  and  C_10 
REMARK    2  A    between atoms: O_3  and  C_11 
REMARK    3  A    between atoms: O_4  and  C_14 
REMARK    4  A    between atoms: O_6  and  N_9 
REMARK    5  A    between atoms: N_7  and  C_12 
REMARK    6  A    between atoms: N_9  and  C_18 
REMARK    7  A    between atoms: C_13  and  C_14 
ROOT
HETATM    1  O   UNK     0     -56.344 -21.994  -8.237  0.00  0.00    -0.353 OA
HETATM    2  C   UNK     0     -55.066 -23.448  -6.870  0.00  0.00     0.198 C 
HETATM    3  C   UNK     0     -55.923 -22.574  -5.979  0.00  0.00     0.182 C 
HETATM    4  C   UNK     0     -55.761 -23.307  -8.213  0.00  0.00     0.264 C 
HETATM    5  C   UNK     0     -56.285 -21.425  -6.911  0.00  0.00     0.179 C 
ENDROOT
BRANCH   4   6
HETATM    6  N   UNK     0     -54.854 -23.436  -9.317  0.00  0.00    -0.278 N 
HETATM    7  C   UNK     0     -54.336 -22.284  -9.889  0.00  0.00     0.102 A 
HETATM    8  C   UNK     0     -53.487 -22.309 -10.915  0.00  0.00     0.070 A 
HETATM    9  C   UNK     0     -53.113 -23.652 -11.430  0.00  0.00     0.153 A 
HETATM   10  N   UNK     0     -53.593 -24.746 -10.903  0.00  0.00    -0.174 NA
HETATM   11  C   UNK     0     -54.473 -24.700  -9.835  0.00  0.00     0.352 A 
HETATM   12  O   UNK     0     -54.914 -25.742  -9.348  0.00  0.00    -0.244 OA
BRANCH   9  13
HETATM   13  N   UNK     0     -52.240 -23.721 -12.491  0.00  0.00    -0.251 N 
HETATM   14  H   UNK     0     -52.209 -24.439 -13.206  0.00  0.00     0.196 HD
BRANCH  13  15
HETATM   15  O   UNK     0     -51.420 -22.635 -12.594  0.00  0.00    -0.288 OA
HETATM   16  H   UNK     0     -50.564 -23.048 -12.796  0.00  0.00     0.244 HD
ENDBRANCH  13  15
ENDBRANCH   9  13
ENDBRANCH   4   6
BRANCH   5  17
HETATM   17  C   UNK     0     -55.248 -20.309  -6.920  0.00  0.00     0.198 C 
BRANCH  17  18
HETATM   18  O   UNK     0     -54.868 -20.034  -5.584  0.00  0.00    -0.398 OA
HETATM   19  H   UNK     0     -54.606 -19.098  -5.548  0.00  0.00     0.209 HD
ENDBRANCH  17  18
ENDBRANCH   5  17
BRANCH   2  20
HETATM   20  O   UNK     0     -55.016 -24.786  -6.421  0.00  0.00    -0.388 OA
HETATM   21  H   UNK     0     -54.082 -25.007  -6.265  0.00  0.00     0.210 HD
ENDBRANCH   2  20
BRANCH   3  22
HETATM   22  O   UNK     0     -57.130 -23.255  -5.632  0.00  0.00    -0.390 OA
HETATM   23  H   UNK     0     -57.751 -23.198  -6.377  0.00  0.00     0.210 HD
ENDBRANCH   3  22
TORSDOF 7
ENDMDL
MODEL 8
REMARK VINA RESULT:      -6.6      7.149      9.290
REMARK  7 active torsions:
REMARK  status: ('A' for Active; 'I' for Inactive)
REMARK    1  A    between atoms: O_2  and  C_10 
REMARK    2  A    between atoms: O_3  and  C_11 
REMARK    3  A    between atoms: O_4  and  C_14 
REMARK    4  A    between atoms: O_6  and  N_9 
REMARK    5  A    between atoms: N_7  and  C_12 
REMARK    6  A    between atoms: N_9  and  C_18 
REMARK    7  A    between atoms: C_13  and  C_14 
ROOT
HETATM    1  O   UNK     0     -62.409 -24.400   2.086  0.00  0.00    -0.353 OA
HETATM    2  C   UNK     0     -62.616 -26.714   1.619  0.00  0.00     0.198 C 
HETATM    3  C   UNK     0     -61.162 -26.317   1.468  0.00  0.00     0.182 C 
HETATM    4  C   UNK     0     -63.172 -25.565   2.441  0.00  0.00     0.264 C 
HETATM    5  C   UNK     0     -61.259 -24.805   1.313  0.00  0.00     0.179 C 
ENDROOT
BRANCH   4   6
HETATM    6  N   UNK     0     -64.558 -25.316   2.167  0.00  0.00    -0.278 N 
HETATM    7  C   UNK     0     -64.929 -24.959   0.879  0.00  0.00     0.102 A 
HETATM    8  C   UNK     0     -66.191 -24.711   0.535  0.00  0.00     0.070 A 
HETATM    9  C   UNK     0     -67.205 -24.834   1.614  0.00  0.00     0.153 A 
HETATM   10  N   UNK     0     -66.873 -25.168   2.833  0.00  0.00    -0.174 NA
HETATM   11  C   UNK     0     -65.555 -25.424   3.170  0.00  0.00     0.352 A 
HETATM   12  O   UNK     0     -65.260 -25.740   4.324  0.00  0.00    -0.244 OA
BRANCH   9  13
HETATM   13  N   UNK     0     -68.522 -24.584   1.301  0.00  0.00    -0.251 N 
HETATM   14  H   UNK     0     -69.338 -24.918   1.798  0.00  0.00     0.196 HD
BRANCH  13  15
HETATM   15  O   UNK     0     -68.678 -23.712   0.263  0.00  0.00    -0.288 OA
HETATM   16  H   UNK     0     -67.833 -23.805  -0.208  0.00  0.00     0.244 HD
ENDBRANCH  13  15
ENDBRANCH   9  13
ENDBRANCH   4   6
BRANCH   5  17
HETATM   17  C   UNK     0     -61.477 -24.361  -0.128  0.00  0.00     0.198 C 
BRANCH  17  18
HETATM   18  O   UNK     0     -62.157 -23.119  -0.121  0.00  0.00    -0.398 OA
HETATM   19  H   UNK     0     -63.110 -23.314  -0.104  0.00  0.00     0.209 HD
ENDBRANCH  17  18
ENDBRANCH   5  17
BRANCH   2  20
HETATM   20  O   UNK     0     -62.766 -27.964   2.260  0.00  0.00    -0.388 OA
HETATM   21  H   UNK     0     -62.561 -28.654   1.607  0.00  0.00     0.210 HD
ENDBRANCH   2  20
BRANCH   3  22
HETATM   22  O   UNK     0     -60.447 -26.590   2.672  0.00  0.00    -0.390 OA
HETATM   23  H   UNK     0     -59.846 -25.850   2.860  0.00  0.00     0.210 HD
ENDBRANCH   3  22
TORSDOF 7
ENDMDL
MODEL 9
REMARK VINA RESULT:      -6.6      6.292      8.434
REMARK  7 active torsions:
REMARK  status: ('A' for Active; 'I' for Inactive)
REMARK    1  A    between atoms: O_2  and  C_10 
REMARK    2  A    between atoms: O_3  and  C_11 
REMARK    3  A    between atoms: O_4  and  C_14 
REMARK    4  A    between atoms: O_6  and  N_9 
REMARK    5  A    between atoms: N_7  and  C_12 
REMARK    6  A    between atoms: N_9  and  C_18 
REMARK    7  A    between atoms: C_13  and  C_14 
ROOT
HETATM    1  O   UNK     0     -65.958 -26.300   0.873  0.00  0.00    -0.353 OA
HETATM    2  C   UNK     0     -65.070 -24.536   2.181  0.00  0.00     0.198 C 
HETATM    3  C   UNK     0     -66.542 -24.684   2.502  0.00  0.00     0.182 C 
HETATM    4  C   UNK     0     -64.754 -25.870   1.529  0.00  0.00     0.264 C 
HETATM    5  C   UNK     0     -67.054 -25.464   1.299  0.00  0.00     0.179 C 
ENDROOT
BRANCH   4   6
HETATM    6  N   UNK     0     -63.703 -25.770   0.556  0.00  0.00    -0.278 N 
HETATM    7  C   UNK     0     -63.928 -25.027  -0.592  0.00  0.00     0.102 A 
HETATM    8  C   UNK     0     -63.010 -24.879  -1.546  0.00  0.00     0.070 A 
HETATM    9  C   UNK     0     -61.709 -25.560  -1.321  0.00  0.00     0.153 A 
HETATM   10  N   UNK     0     -61.481 -26.265  -0.244  0.00  0.00    -0.174 NA
HETATM   11  C   UNK     0     -62.448 -26.405   0.737  0.00  0.00     0.352 A 
HETATM   12  O   UNK     0     -62.215 -27.071   1.747  0.00  0.00    -0.244 OA
BRANCH   9  13
HETATM   13  N   UNK     0     -60.734 -25.435  -2.283  0.00  0.00    -0.251 N 
HETATM   14  H   UNK     0     -59.731 -25.432  -2.135  0.00  0.00     0.196 HD
BRANCH  13  15
HETATM   15  O   UNK     0     -61.225 -25.413  -3.556  0.00  0.00    -0.288 OA
HETATM   16  H   UNK     0     -61.572 -24.508  -3.623  0.00  0.00     0.244 HD
ENDBRANCH  13  15
ENDBRANCH   9  13
ENDBRANCH   4   6
BRANCH   5  17
HETATM   17  C   UNK     0     -67.452 -24.572   0.129  0.00  0.00     0.198 C 
BRANCH  17  18
HETATM   18  O   UNK     0     -68.097 -23.419   0.639  0.00  0.00    -0.398 OA
HETATM   19  H   UNK     0     -68.365 -22.880  -0.126  0.00  0.00     0.209 HD
ENDBRANCH  17  18
ENDBRANCH   5  17
BRANCH   2  20
HETATM   20  O   UNK     0     -64.290 -24.296   3.335  0.00  0.00    -0.388 OA
HETATM   21  H   UNK     0     -64.897 -24.249   4.093  0.00  0.00     0.210 HD
ENDBRANCH   2  20
BRANCH   3  22
HETATM   22  O   UNK     0     -66.716 -25.500   3.661  0.00  0.00    -0.390 OA
HETATM   23  H   UNK     0     -67.273 -25.027   4.301  0.00  0.00     0.210 HD
ENDBRANCH   3  22
TORSDOF 7
ENDMDL
MODEL 10
REMARK VINA RESULT:      -6.5      5.989      7.691
REMARK  7 active torsions:
REMARK  status: ('A' for Active; 'I' for Inactive)
REMARK    1  A    between atoms: O_2  and  C_10 
REMARK    2  A    between atoms: O_3  and  C_11 
REMARK    3  A    between atoms: O_4  and  C_14 
REMARK    4  A    between atoms: O_6  and  N_9 
REMARK    5  A    between atoms: N_7  and  C_12 
REMARK    6  A    between atoms: N_9  and  C_18 
REMARK    7  A    between atoms: C_13  and  C_14 
ROOT
HETATM    1  O   UNK     0     -61.190 -24.335  -0.396  0.00  0.00    -0.353 OA
HETATM    2  C   UNK     0     -60.753 -26.599   0.148  0.00  0.00     0.198 C 
HETATM    3  C   UNK     0     -59.930 -26.225  -1.067  0.00  0.00     0.182 C 
HETATM    4  C   UNK     0     -61.109 -25.238   0.719  0.00  0.00     0.264 C 
HETATM    5  C   UNK     0     -60.650 -24.981  -1.569  0.00  0.00     0.179 C 
ENDROOT
BRANCH   4   6
HETATM    6  N   UNK     0     -62.369 -25.244   1.407  0.00  0.00    -0.278 N 
HETATM    7  C   UNK     0     -63.524 -24.998   0.681  0.00  0.00     0.102 A 
HETATM    8  C   UNK     0     -64.734 -24.986   1.236  0.00  0.00     0.070 A 
HETATM    9  C   UNK     0     -64.793 -25.250   2.697  0.00  0.00     0.153 A 
HETATM   10  N   UNK     0     -63.714 -25.482   3.396  0.00  0.00    -0.174 NA
HETATM   11  C   UNK     0     -62.464 -25.493   2.799  0.00  0.00     0.352 A 
HETATM   12  O   UNK     0     -61.457 -25.717   3.473  0.00  0.00    -0.244 OA
BRANCH   9  13
HETATM   13  N   UNK     0     -66.025 -25.244   3.310  0.00  0.00    -0.251 N 
HETATM   14  H   UNK     0     -66.919 -25.054   2.874  0.00  0.00     0.196 HD
BRANCH  13  15
HETATM   15  O   UNK     0     -65.985 -25.636   4.617  0.00  0.00    -0.288 OA
HETATM   16  H   UNK     0     -65.327 -25.026   4.989  0.00  0.00     0.244 HD
ENDBRANCH  13  15
ENDBRANCH   9  13
ENDBRANCH   4   6
BRANCH   5  17
HETATM   17  C   UNK     0     -61.805 -25.293  -2.512  0.00  0.00     0.198 C 
BRANCH  17  18
HETATM   18  O   UNK     0     -61.301 -25.373  -3.833  0.00  0.00    -0.398 OA
HETATM   19  H   UNK     0     -61.777 -26.095  -4.277  0.00  0.00     0.209 HD
ENDBRANCH  17  18
ENDBRANCH   5  17
BRANCH   2  20
HETATM   20  O   UNK     0     -60.030 -27.400   1.061  0.00  0.00    -0.388 OA
HETATM   21  H   UNK     0     -59.359 -27.887   0.554  0.00  0.00     0.210 HD
ENDBRANCH   2  20
BRANCH   3  22
HETATM   22  O   UNK     0     -58.612 -25.842  -0.672  0.00  0.00    -0.390 OA
HETATM   23  H   UNK     0     -58.050 -25.784  -1.462  0.00  0.00     0.210 HD
ENDBRANCH   3  22
TORSDOF 7
ENDMDL
