REMARK  16 active torsions:
REMARK  status: ('A' for Active; 'I' for Inactive)
REMARK    1  A    between atoms: O_2  and  C_22 
REMARK    2  A    between atoms: O_2  and  C_26 
REMARK    3  A    between atoms: O_4  and  C_18 
REMARK    4  A    between atoms: O_5  and  C_19 
REMARK    5  A    between atoms: O_6  and  C_25 
REMARK    6  A    between atoms: O_6  and  C_29 
REMARK    7  A    between atoms: O_7  and  C_20 
REMARK    8  A    between atoms: O_8  and  C_21 
REMARK    9  A    between atoms: O_9  and  C_23 
REMARK   10  A    between atoms: O_10  and  C_24 
REMARK   11  A    between atoms: O_13  and  C_35 
REMARK   12  A    between atoms: O_14  and  C_40 
REMARK   13  A    between atoms: O_15  and  C_41 
REMARK   14  A    between atoms: O_16  and  C_43 
REMARK   15  A    between atoms: C_17  and  C_26 
REMARK   16  A    between atoms: C_30  and  C_33 
ROOT
HETATM    1  O   MOL     1      11.352   3.776  22.341  1.00  0.11    -0.348 OA
HETATM    2  C   MOL     1      12.749   4.142  22.319  1.00  0.03     0.180 C 
HETATM    3  C   MOL     1      13.123   4.863  21.005  1.00 -0.04     0.180 C 
HETATM    4  C   MOL     1      12.716   3.993  19.800  1.00 -0.08     0.183 C 
HETATM    5  C   MOL     1      11.226   3.620  19.898  1.00 -0.12     0.205 C 
HETATM    6  C   MOL     1      10.988   2.912  21.245  1.00  0.02     0.298 C 
ENDROOT
BRANCH   2   7
HETATM    7  C   MOL     1      13.058   5.061  23.512  1.00 -0.27     0.205 C 
BRANCH   7   8
HETATM    8  O   MOL     1      13.989   4.427  24.405  1.00  0.23    -0.356 OA
BRANCH   8   9
HETATM    9  C   MOL     1      14.104   5.128  25.659  1.00 -0.09     0.291 C 
HETATM   10  O   MOL     1      15.292   5.944  25.761  1.00  0.08    -0.351 OA
HETATM   11  C   MOL     1      16.510   5.176  25.674  1.00 -0.09     0.152 C 
HETATM   12  C   MOL     1      16.596   4.153  26.828  1.00 -0.14     0.178 C 
HETATM   13  C   MOL     1      17.715   6.129  25.723  1.00 -0.27     0.042 C 
HETATM   14  C   MOL     1      15.335   3.265  26.828  1.00 -0.30     0.183 C 
HETATM   15  C   MOL     1      14.053   4.121  26.825  1.00 -0.17     0.204 C 
BRANCH  12  16
HETATM   16  O   MOL     1      17.764   3.328  26.705  1.00  0.50    -0.390 OA
HETATM   17  H   MOL     1      17.874   2.725  27.502  1.00 -0.10     0.210 HD
ENDBRANCH  12  16
BRANCH  14  18
HETATM   18  O   MOL     1      15.344   2.395  27.970  1.00  0.77    -0.390 OA
HETATM   19  H   MOL     1      15.765   2.842  28.767  1.00 -0.23     0.210 HD
ENDBRANCH  14  18
BRANCH  15  20
HETATM   20  O   MOL     1      13.904   4.814  28.074  1.00 -0.02    -0.388 OA
HETATM   21  H   MOL     1      14.651   4.589  28.709  1.00 -0.01     0.210 HD
ENDBRANCH  15  20
ENDBRANCH   8   9
ENDBRANCH   7   8
ENDBRANCH   2   7
BRANCH   6  22
HETATM   22  O   MOL     1       9.618   2.487  21.343  1.00  0.01    -0.311 OA
BRANCH  22  23
HETATM   23  C   MOL     1       9.390   1.328  22.085  1.00 -0.25     0.157 A 
HETATM   24  C   MOL     1       9.613   0.051  21.620  1.00 -0.23     0.124 A 
HETATM   25  O   MOL     1       9.457  -1.079  22.393  1.00  0.01    -0.306 OA
HETATM   26  C   MOL     1       8.931  -0.946  23.637  1.00 -0.28     0.096 A 
HETATM   27  C   MOL     1       8.626   0.292  24.205  1.00 -0.29     0.084 A 
HETATM   28  C   MOL     1       8.695  -2.099  24.364  1.00 -0.37     0.075 A 
HETATM   29  C   MOL     1       8.905   1.473  23.414  1.00 -0.31     0.223 A 
HETATM   30  C   MOL     1       8.077   0.344  25.497  1.00 -0.40     0.085 A 
HETATM   31  O   MOL     1       8.740   2.615  23.841  1.00 -0.08    -0.284 OA
HETATM   32  C   MOL     1       7.856  -0.812  26.197  1.00 -0.37     0.074 A 
HETATM   33  C   MOL     1       8.165  -2.041  25.633  1.00 -0.40     0.071 A 
BRANCH  24  34
HETATM   34  C   MOL     1      10.064  -0.226  20.233  1.00 -0.11     0.004 A 
HETATM   35  C   MOL     1       9.119  -0.249  19.215  1.00 -0.31     0.053 A 
HETATM   36  C   MOL     1       9.489  -0.495  17.914  1.00 -0.37     0.099 A 
HETATM   37  C   MOL     1      10.824  -0.714  17.605  1.00 -0.35     0.098 A 
HETATM   38  C   MOL     1      11.772  -0.683  18.605  1.00 -0.25     0.040 A 
HETATM   39  C   MOL     1      11.396  -0.441  19.905  1.00 -0.20     0.017 A 
BRANCH  36  40
HETATM   40  O   MOL     1       8.549  -0.522  16.927  1.00 -0.68    -0.358 OA
HETATM   41  H   MOL     1       8.805  -1.160  16.192  1.00 -0.16     0.217 HD
ENDBRANCH  36  40
BRANCH  37  42
HETATM   42  O   MOL     1      11.198  -0.957  16.319  1.00 -0.23    -0.358 OA
HETATM   43  H   MOL     1      10.617  -1.658  15.893  1.00 -0.34     0.217 HD
ENDBRANCH  37  42
ENDBRANCH  24  34
BRANCH  30  44
HETATM   44  O   MOL     1       7.753   1.531  26.071  1.00 -0.18    -0.360 OA
HETATM   45  H   MOL     1       7.018   1.999  25.575  1.00 -0.34     0.217 HD
ENDBRANCH  30  44
BRANCH  33  46
HETATM   46  O   MOL     1       7.942  -3.183  26.331  1.00 -0.28    -0.361 OA
HETATM   47  H   MOL     1       7.485  -2.995  27.208  1.00 -0.32     0.217 HD
ENDBRANCH  33  46
ENDBRANCH  22  23
ENDBRANCH   6  22
BRANCH   3  48
HETATM   48  O   MOL     1      14.532   5.133  20.953  1.00  0.19    -0.390 OA
HETATM   49  H   MOL     1      14.762   5.972  21.459  1.00 -0.21     0.210 HD
ENDBRANCH   3  48
BRANCH   5  50
HETATM   50  O   MOL     1      10.851   2.764  18.809  1.00 -0.20    -0.388 OA
HETATM   51  H   MOL     1       9.921   2.401  18.933  1.00 -0.22     0.210 HD
ENDBRANCH   5  50
BRANCH   4  52
HETATM   52  O   MOL     1      12.975   4.691  18.573  1.00 -0.18    -0.390 OA
HETATM   53  H   MOL     1      13.000   5.687  18.717  1.00 -0.22     0.210 HD
ENDBRANCH   4  52
TORSDOF 16
