MODEL 1
REMARK VINA RESULT:      -8.4      0.000      0.000
REMARK  10 active torsions:
REMARK  status: ('A' for Active; 'I' for Inactive)
REMARK    1  A    between atoms: O_2  and  C_15 
REMARK    2  A    between atoms: O_2  and  C_18 
REMARK    3  A    between atoms: O_3  and  C_12 
REMARK    4  A    between atoms: O_4  and  C_13 
REMARK    5  A    between atoms: O_5  and  C_14 
REMARK    6  A    between atoms: O_6  and  C_17 
REMARK    7  A    between atoms: O_9  and  C_19 
REMARK    8  A    between atoms: O_10  and  C_23 
REMARK    9  A    between atoms: C_16  and  C_17 
REMARK   10  A    between atoms: C_25  and  C_27 
ROOT
HETATM    1  O   UNK     0      10.610   0.324  19.419  0.00  0.00    -0.340 OA
HETATM    2  C   UNK     0      11.171   3.099  18.928  0.00  0.00     0.183 C 
HETATM    3  C   UNK     0      11.620   2.386  20.204  0.00  0.00     0.205 C 
HETATM    4  C   UNK     0      10.915   2.105  17.794  0.00  0.00     0.189 C 
HETATM    5  C   UNK     0      10.701   1.209  20.533  0.00  0.00     0.299 C 
HETATM    6  C   UNK     0      10.045   0.951  18.274  0.00  0.00     0.253 C 
ENDROOT
BRANCH   5   7
HETATM    7  O   UNK     0      11.254   0.519  21.653  0.00  0.00    -0.315 OA
BRANCH   7   8
HETATM    8  C   UNK     0      10.371   0.073  22.593  0.00  0.00     0.111 A 
HETATM    9  C   UNK     0      10.311  -1.282  22.922  0.00  0.00     0.137 A 
HETATM   10  C   UNK     0       9.402  -1.722  23.886  0.00  0.00     0.129 A 
HETATM   11  O   UNK     0       9.390  -3.064  24.167  0.00  0.00    -0.306 OA
HETATM   12  C   UNK     0       8.559  -0.809  24.515  0.00  0.00     0.084 A 
HETATM   13  C   UNK     0       8.503  -3.529  25.125  0.00  0.00     0.090 A 
HETATM   14  C   UNK     0       7.636  -2.752  25.795  0.00  0.00     0.094 A 
HETATM   15  C   UNK     0       7.610  -1.300  25.526  0.00  0.00     0.190 A 
HETATM   16  O   UNK     0       6.839  -0.555  26.116  0.00  0.00    -0.287 OA
HETATM   17  C   UNK     0       8.615   0.548  24.188  0.00  0.00     0.085 A 
HETATM   18  C   UNK     0       9.524   0.985  23.224  0.00  0.00     0.077 A 
BRANCH   9  19
HETATM   19  O   UNK     0      11.141  -2.170  22.302  0.00  0.00    -0.351 OA
HETATM   20  C   UNK     0      10.654  -2.789  21.114  0.00  0.00     0.210 C 
ENDBRANCH   9  19
BRANCH  13  21
HETATM   21  C   UNK     0       8.567  -4.988  25.345  0.00  0.00    -0.002 A 
HETATM   22  C   UNK     0       9.771  -5.588  25.726  0.00  0.00     0.014 A 
HETATM   23  C   UNK     0       9.831  -6.966  25.935  0.00  0.00     0.001 A 
HETATM   24  C   UNK     0       8.690  -7.749  25.764  0.00  0.00     0.000 A 
HETATM   25  C   UNK     0       7.487  -7.153  25.383  0.00  0.00     0.001 A 
HETATM   26  C   UNK     0       7.426  -5.775  25.175  0.00  0.00     0.014 A 
ENDBRANCH  13  21
BRANCH  17  27
HETATM   27  O   UNK     0       7.811   1.479  24.774  0.00  0.00    -0.360 OA
HETATM   28  H   UNK     0       7.130   1.778  24.154  0.00  0.00     0.217 HD
ENDBRANCH  17  27
ENDBRANCH   7   8
ENDBRANCH   5   7
BRANCH   6  29
HETATM   29  C   UNK     0      10.008  -0.149  17.262  0.00  0.00     0.172 C 
HETATM   30  O   UNK     0      10.636  -1.195  17.341  0.00  0.00    -0.648 OA
BRANCH  29  31
HETATM   31  O   UNK     0       9.185   0.172  16.236  0.00  0.00    -0.774 OA
HETATM   32  H   UNK     0       9.655   0.661  15.527  0.00  0.00     0.167 HD
ENDBRANCH  29  31
ENDBRANCH   6  29
BRANCH   3  33
HETATM   33  O   UNK     0      11.581   3.303  21.297  0.00  0.00    -0.388 OA
HETATM   34  H   UNK     0      10.656   3.378  21.586  0.00  0.00     0.210 HD
ENDBRANCH   3  33
BRANCH   4  35
HETATM   35  O   UNK     0      10.242   2.775  16.730  0.00  0.00    -0.390 OA
HETATM   36  H   UNK     0      10.709   3.609  16.555  0.00  0.00     0.210 HD
ENDBRANCH   4  35
BRANCH   2  37
HETATM   37  O   UNK     0      12.192   4.003  18.502  0.00  0.00    -0.390 OA
HETATM   38  H   UNK     0      12.152   4.786  19.077  0.00  0.00     0.210 HD
ENDBRANCH   2  37
TORSDOF 10
ENDMDL
MODEL 2
REMARK VINA RESULT:      -8.1      1.229      1.604
REMARK  10 active torsions:
REMARK  status: ('A' for Active; 'I' for Inactive)
REMARK    1  A    between atoms: O_2  and  C_15 
REMARK    2  A    between atoms: O_2  and  C_18 
REMARK    3  A    between atoms: O_3  and  C_12 
REMARK    4  A    between atoms: O_4  and  C_13 
REMARK    5  A    between atoms: O_5  and  C_14 
REMARK    6  A    between atoms: O_6  and  C_17 
REMARK    7  A    between atoms: O_9  and  C_19 
REMARK    8  A    between atoms: O_10  and  C_23 
REMARK    9  A    between atoms: C_16  and  C_17 
REMARK   10  A    between atoms: C_25  and  C_27 
ROOT
HETATM    1  O   UNK     0      10.703  -0.322  19.036  0.00  0.00    -0.340 OA
HETATM    2  C   UNK     0      11.280   2.492  18.969  0.00  0.00     0.183 C 
HETATM    3  C   UNK     0      11.819   1.571  20.065  0.00  0.00     0.205 C 
HETATM    4  C   UNK     0      10.909   1.705  17.712  0.00  0.00     0.189 C 
HETATM    5  C   UNK     0      10.905   0.362  20.270  0.00  0.00     0.299 C 
HETATM    6  C   UNK     0      10.057   0.493  18.064  0.00  0.00     0.253 C 
ENDROOT
BRANCH   5   7
HETATM    7  O   UNK     0      11.534  -0.511  21.207  0.00  0.00    -0.315 OA
BRANCH   7   8
HETATM    8  C   UNK     0      10.723  -1.108  22.127  0.00  0.00     0.111 A 
HETATM    9  C   UNK     0      10.816  -2.479  22.370  0.00  0.00     0.137 A 
HETATM   10  C   UNK     0       9.979  -3.074  23.315  0.00  0.00     0.129 A 
HETATM   11  O   UNK     0      10.116  -4.424  23.510  0.00  0.00    -0.306 OA
HETATM   12  C   UNK     0       9.053  -2.299  24.011  0.00  0.00     0.084 A 
HETATM   13  C   UNK     0       9.303  -5.042  24.448  0.00  0.00     0.090 A 
HETATM   14  C   UNK     0       8.370  -4.408  25.175  0.00  0.00     0.094 A 
HETATM   15  C   UNK     0       8.182  -2.953  25.000  0.00  0.00     0.190 A 
HETATM   16  O   UNK     0       7.346  -2.335  25.645  0.00  0.00    -0.287 OA
HETATM   17  C   UNK     0       8.957  -0.927  23.770  0.00  0.00     0.085 A 
HETATM   18  C   UNK     0       9.795  -0.335  22.825  0.00  0.00     0.077 A 
BRANCH   9  19
HETATM   19  O   UNK     0      11.725  -3.231  21.685  0.00  0.00    -0.351 OA
HETATM   20  C   UNK     0      11.309  -3.764  20.430  0.00  0.00     0.210 C 
ENDBRANCH   9  19
BRANCH  13  21
HETATM   21  C   UNK     0       9.529  -6.496  24.573  0.00  0.00    -0.002 A 
HETATM   22  C   UNK     0       8.934  -7.212  25.616  0.00  0.00     0.014 A 
HETATM   23  C   UNK     0       9.147  -8.585  25.734  0.00  0.00     0.001 A 
HETATM   24  C   UNK     0       9.955  -9.248  24.811  0.00  0.00     0.000 A 
HETATM   25  C   UNK     0      10.550  -8.538  23.768  0.00  0.00     0.001 A 
HETATM   26  C   UNK     0      10.338  -7.164  23.650  0.00  0.00     0.014 A 
ENDBRANCH  13  21
BRANCH  17  27
HETATM   27  O   UNK     0       8.068  -0.128  24.424  0.00  0.00    -0.360 OA
HETATM   28  H   UNK     0       8.499   0.686  24.723  0.00  0.00     0.217 HD
ENDBRANCH  17  27
ENDBRANCH   7   8
ENDBRANCH   5   7
BRANCH   6  29
HETATM   29  C   UNK     0       9.913  -0.420  16.890  0.00  0.00     0.172 C 
HETATM   30  O   UNK     0      10.507  -1.479  16.747  0.00  0.00    -0.648 OA
BRANCH  29  31
HETATM   31  O   UNK     0       9.032   0.087  15.994  0.00  0.00    -0.774 OA
HETATM   32  H   UNK     0       9.113  -0.343  15.116  0.00  0.00     0.167 HD
ENDBRANCH  29  31
ENDBRANCH   6  29
BRANCH   3  33
HETATM   33  O   UNK     0      11.891   2.290  21.295  0.00  0.00    -0.388 OA
HETATM   34  H   UNK     0      12.559   2.989  21.189  0.00  0.00     0.210 HD
ENDBRANCH   3  33
BRANCH   4  35
HETATM   35  O   UNK     0      10.164   2.550  16.836  0.00  0.00    -0.390 OA
HETATM   36  H   UNK     0       9.357   2.829  17.301  0.00  0.00     0.210 HD
ENDBRANCH   4  35
BRANCH   2  37
HETATM   37  O   UNK     0      12.281   3.447  18.615  0.00  0.00    -0.390 OA
HETATM   38  H   UNK     0      12.120   4.251  19.136  0.00  0.00     0.210 HD
ENDBRANCH   2  37
TORSDOF 10
ENDMDL
MODEL 3
REMARK VINA RESULT:      -7.7      3.025      8.148
REMARK  10 active torsions:
REMARK  status: ('A' for Active; 'I' for Inactive)
REMARK    1  A    between atoms: O_2  and  C_15 
REMARK    2  A    between atoms: O_2  and  C_18 
REMARK    3  A    between atoms: O_3  and  C_12 
REMARK    4  A    between atoms: O_4  and  C_13 
REMARK    5  A    between atoms: O_5  and  C_14 
REMARK    6  A    between atoms: O_6  and  C_17 
REMARK    7  A    between atoms: O_9  and  C_19 
REMARK    8  A    between atoms: O_10  and  C_23 
REMARK    9  A    between atoms: C_16  and  C_17 
REMARK   10  A    between atoms: C_25  and  C_27 
ROOT
HETATM    1  O   UNK     0       9.067   0.116  23.674  0.00  0.00    -0.340 OA
HETATM    2  C   UNK     0       7.936  -2.151  25.030  0.00  0.00     0.183 C 
HETATM    3  C   UNK     0       9.167  -2.265  24.130  0.00  0.00     0.205 C 
HETATM    4  C   UNK     0       7.745  -0.720  25.534  0.00  0.00     0.189 C 
HETATM    5  C   UNK     0       9.177  -1.168  23.064  0.00  0.00     0.299 C 
HETATM    6  C   UNK     0       7.845   0.275  24.384  0.00  0.00     0.253 C 
ENDROOT
BRANCH   5   7
HETATM    7  O   UNK     0      10.409  -1.259  22.351  0.00  0.00    -0.315 OA
BRANCH   7   8
HETATM    8  C   UNK     0      10.330  -1.234  20.989  0.00  0.00     0.111 A 
HETATM    9  C   UNK     0      11.143  -2.065  20.217  0.00  0.00     0.137 A 
HETATM   10  C   UNK     0      11.050  -2.028  18.825  0.00  0.00     0.129 A 
HETATM   11  O   UNK     0      11.874  -2.867  18.120  0.00  0.00    -0.306 OA
HETATM   12  C   UNK     0      10.146  -1.163  18.211  0.00  0.00     0.084 A 
HETATM   13  C   UNK     0      11.798  -2.858  16.736  0.00  0.00     0.090 A 
HETATM   14  C   UNK     0      10.976  -2.066  16.028  0.00  0.00     0.094 A 
HETATM   15  C   UNK     0      10.070  -1.143  16.742  0.00  0.00     0.190 A 
HETATM   16  O   UNK     0       9.302  -0.408  16.136  0.00  0.00    -0.287 OA
HETATM   17  C   UNK     0       9.331  -0.330  18.980  0.00  0.00     0.085 A 
HETATM   18  C   UNK     0       9.427  -0.369  20.371  0.00  0.00     0.077 A 
BRANCH   9  19
HETATM   19  O   UNK     0      12.025  -2.910  20.826  0.00  0.00    -0.351 OA
HETATM   20  C   UNK     0      11.571  -4.234  21.095  0.00  0.00     0.210 C 
ENDBRANCH   9  19
BRANCH  13  21
HETATM   21  C   UNK     0      12.733  -3.793  16.077  0.00  0.00    -0.002 A 
HETATM   22  C   UNK     0      13.181  -3.539  14.777  0.00  0.00     0.014 A 
HETATM   23  C   UNK     0      14.064  -4.421  14.156  0.00  0.00     0.001 A 
HETATM   24  C   UNK     0      14.502  -5.561  14.830  0.00  0.00     0.000 A 
HETATM   25  C   UNK     0      14.057  -5.818  16.127  0.00  0.00     0.001 A 
HETATM   26  C   UNK     0      13.174  -4.935  16.750  0.00  0.00     0.014 A 
ENDBRANCH  13  21
BRANCH  17  27
HETATM   27  O   UNK     0       8.434   0.533  18.427  0.00  0.00    -0.360 OA
HETATM   28  H   UNK     0       8.565   1.428  18.773  0.00  0.00     0.217 HD
ENDBRANCH  17  27
ENDBRANCH   7   8
ENDBRANCH   5   7
BRANCH   6  29
HETATM   29  C   UNK     0       7.924   1.677  24.895  0.00  0.00     0.172 C 
HETATM   30  O   UNK     0       7.216   2.144  25.777  0.00  0.00    -0.648 OA
BRANCH  29  31
HETATM   31  O   UNK     0       8.887   2.372  24.244  0.00  0.00    -0.774 OA
HETATM   32  H   UNK     0       9.711   1.848  24.140  0.00  0.00     0.167 HD
ENDBRANCH  29  31
ENDBRANCH   6  29
BRANCH   3  33
HETATM   33  O   UNK     0       9.154  -3.530  23.469  0.00  0.00    -0.388 OA
HETATM   34  H   UNK     0      10.046  -3.688  23.117  0.00  0.00     0.210 HD
ENDBRANCH   3  33
BRANCH   4  35
HETATM   35  O   UNK     0       6.454  -0.603  26.129  0.00  0.00    -0.390 OA
HETATM   36  H   UNK     0       6.453   0.186  26.696  0.00  0.00     0.210 HD
ENDBRANCH   4  35
BRANCH   2  37
HETATM   37  O   UNK     0       8.097  -3.002  26.166  0.00  0.00    -0.390 OA
HETATM   38  H   UNK     0       9.050  -3.119  26.315  0.00  0.00     0.210 HD
ENDBRANCH   2  37
TORSDOF 10
ENDMDL
MODEL 4
REMARK VINA RESULT:      -7.6      4.536      8.477
REMARK  10 active torsions:
REMARK  status: ('A' for Active; 'I' for Inactive)
REMARK    1  A    between atoms: O_2  and  C_15 
REMARK    2  A    between atoms: O_2  and  C_18 
REMARK    3  A    between atoms: O_3  and  C_12 
REMARK    4  A    between atoms: O_4  and  C_13 
REMARK    5  A    between atoms: O_5  and  C_14 
REMARK    6  A    between atoms: O_6  and  C_17 
REMARK    7  A    between atoms: O_9  and  C_19 
REMARK    8  A    between atoms: O_10  and  C_23 
REMARK    9  A    between atoms: C_16  and  C_17 
REMARK   10  A    between atoms: C_25  and  C_27 
ROOT
HETATM    1  O   UNK     0      13.489   2.329  25.454  0.00  0.00    -0.340 OA
HETATM    2  C   UNK     0      14.667   4.364  27.104  0.00  0.00     0.183 C 
HETATM    3  C   UNK     0      13.327   4.560  26.396  0.00  0.00     0.205 C 
HETATM    4  C   UNK     0      14.995   2.881  27.279  0.00  0.00     0.189 C 
HETATM    5  C   UNK     0      13.235   3.696  25.137  0.00  0.00     0.299 C 
HETATM    6  C   UNK     0      14.799   2.127  25.970  0.00  0.00     0.253 C 
ENDROOT
BRANCH   5   7
HETATM    7  O   UNK     0      11.918   3.831  24.606  0.00  0.00    -0.315 OA
BRANCH   7   8
HETATM    8  C   UNK     0      11.815   3.948  23.250  0.00  0.00     0.111 A 
HETATM    9  C   UNK     0      11.548   2.829  22.461  0.00  0.00     0.137 A 
HETATM   10  C   UNK     0      11.445   2.966  21.075  0.00  0.00     0.129 A 
HETATM   11  O   UNK     0      11.181   1.831  20.352  0.00  0.00    -0.306 OA
HETATM   12  C   UNK     0      11.609   4.218  20.486  0.00  0.00     0.084 A 
HETATM   13  C   UNK     0      11.066   1.937  18.975  0.00  0.00     0.090 A 
HETATM   14  C   UNK     0      11.211   3.083  18.290  0.00  0.00     0.094 A 
HETATM   15  C   UNK     0      11.497   4.333  19.023  0.00  0.00     0.190 A 
HETATM   16  O   UNK     0      11.631   5.399  18.439  0.00  0.00    -0.287 OA
HETATM   17  C   UNK     0      11.876   5.340  21.272  0.00  0.00     0.085 A 
HETATM   18  C   UNK     0      11.979   5.200  22.657  0.00  0.00     0.077 A 
BRANCH   9  19
HETATM   19  O   UNK     0      11.388   1.607  23.046  0.00  0.00    -0.351 OA
HETATM   20  C   UNK     0      10.077   1.270  23.492  0.00  0.00     0.210 C 
ENDBRANCH   9  19
BRANCH  13  21
HETATM   21  C   UNK     0      10.789   0.656  18.295  0.00  0.00    -0.002 A 
HETATM   22  C   UNK     0      11.455  -0.508  18.690  0.00  0.00     0.014 A 
HETATM   23  C   UNK     0      11.192  -1.718  18.049  0.00  0.00     0.001 A 
HETATM   24  C   UNK     0      10.263  -1.770  17.010  0.00  0.00     0.000 A 
HETATM   25  C   UNK     0       9.597  -0.610  16.612  0.00  0.00     0.001 A 
HETATM   26  C   UNK     0       9.859   0.601  17.253  0.00  0.00     0.014 A 
ENDBRANCH  13  21
BRANCH  17  27
HETATM   27  O   UNK     0      12.046   6.584  20.743  0.00  0.00    -0.360 OA
HETATM   28  H   UNK     0      12.841   6.613  20.191  0.00  0.00     0.217 HD
ENDBRANCH  17  27
ENDBRANCH   7   8
ENDBRANCH   5   7
BRANCH   6  29
HETATM   29  C   UNK     0      14.858   0.650  26.189  0.00  0.00     0.172 C 
HETATM   30  O   UNK     0      15.328  -0.158  25.400  0.00  0.00    -0.648 OA
BRANCH  29  31
HETATM   31  O   UNK     0      14.314   0.320  27.385  0.00  0.00    -0.774 OA
HETATM   32  H   UNK     0      13.613   0.950  27.656  0.00  0.00     0.167 HD
ENDBRANCH  29  31
ENDBRANCH   6  29
BRANCH   3  33
HETATM   33  O   UNK     0      13.189   5.927  26.011  0.00  0.00    -0.388 OA
HETATM   34  H   UNK     0      14.054   6.355  26.130  0.00  0.00     0.210 HD
ENDBRANCH   3  33
BRANCH   4  35
HETATM   35  O   UNK     0      16.357   2.749  27.684  0.00  0.00    -0.390 OA
HETATM   36  H   UNK     0      16.585   1.804  27.672  0.00  0.00     0.210 HD
ENDBRANCH   4  35
BRANCH   2  37
HETATM   37  O   UNK     0      14.612   4.961  28.401  0.00  0.00    -0.390 OA
HETATM   38  H   UNK     0      15.380   5.549  28.489  0.00  0.00     0.210 HD
ENDBRANCH   2  37
TORSDOF 10
ENDMDL
MODEL 5
REMARK VINA RESULT:      -7.4      1.718      2.340
REMARK  10 active torsions:
REMARK  status: ('A' for Active; 'I' for Inactive)
REMARK    1  A    between atoms: O_2  and  C_15 
REMARK    2  A    between atoms: O_2  and  C_18 
REMARK    3  A    between atoms: O_3  and  C_12 
REMARK    4  A    between atoms: O_4  and  C_13 
REMARK    5  A    between atoms: O_5  and  C_14 
REMARK    6  A    between atoms: O_6  and  C_17 
REMARK    7  A    between atoms: O_9  and  C_19 
REMARK    8  A    between atoms: O_10  and  C_23 
REMARK    9  A    between atoms: C_16  and  C_17 
REMARK   10  A    between atoms: C_25  and  C_27 
ROOT
HETATM    1  O   UNK     0      11.412   2.434  20.639  0.00  0.00    -0.340 OA
HETATM    2  C   UNK     0      11.890   5.266  20.557  0.00  0.00     0.183 C 
HETATM    3  C   UNK     0      12.184   4.421  21.797  0.00  0.00     0.205 C 
HETATM    4  C   UNK     0      11.857   4.407  19.293  0.00  0.00     0.189 C 
HETATM    5  C   UNK     0      11.291   3.181  21.847  0.00  0.00     0.299 C 
HETATM    6  C   UNK     0      10.989   3.173  19.500  0.00  0.00     0.253 C 
ENDROOT
BRANCH   5   7
HETATM    7  O   UNK     0      11.709   2.381  22.952  0.00  0.00    -0.315 OA
BRANCH   7   8
HETATM    8  C   UNK     0      10.748   1.626  23.558  0.00  0.00     0.111 A 
HETATM    9  C   UNK     0      10.950   0.261  23.771  0.00  0.00     0.137 A 
HETATM   10  C   UNK     0       9.957  -0.498  24.393  0.00  0.00     0.129 A 
HETATM   11  O   UNK     0      10.211  -1.833  24.575  0.00  0.00    -0.306 OA
HETATM   12  C   UNK     0       8.769   0.108  24.798  0.00  0.00     0.084 A 
HETATM   13  C   UNK     0       9.247  -2.610  25.196  0.00  0.00     0.090 A 
HETATM   14  C   UNK     0       8.061  -2.147  25.624  0.00  0.00     0.094 A 
HETATM   15  C   UNK     0       7.739  -0.716  25.449  0.00  0.00     0.190 A 
HETATM   16  O   UNK     0       6.673  -0.251  25.829  0.00  0.00    -0.287 OA
HETATM   17  C   UNK     0       8.564   1.473  24.586  0.00  0.00     0.085 A 
HETATM   18  C   UNK     0       9.557   2.229  23.965  0.00  0.00     0.077 A 
BRANCH   9  19
HETATM   19  O   UNK     0      12.115  -0.325  23.372  0.00  0.00    -0.351 OA
HETATM   20  C   UNK     0      13.190  -0.332  24.309  0.00  0.00     0.210 C 
ENDBRANCH   9  19
BRANCH  13  21
HETATM   21  C   UNK     0       9.620  -4.032  25.335  0.00  0.00    -0.002 A 
HETATM   22  C   UNK     0       8.913  -4.862  26.210  0.00  0.00     0.014 A 
HETATM   23  C   UNK     0       9.264  -6.205  26.340  0.00  0.00     0.001 A 
HETATM   24  C   UNK     0      10.324  -6.724  25.597  0.00  0.00     0.000 A 
HETATM   25  C   UNK     0      11.033  -5.900  24.723  0.00  0.00     0.001 A 
HETATM   26  C   UNK     0      10.681  -4.556  24.592  0.00  0.00     0.014 A 
ENDBRANCH  13  21
BRANCH  17  27
HETATM   27  O   UNK     0       7.420   2.111  24.964  0.00  0.00    -0.360 OA
HETATM   28  H   UNK     0       7.238   2.858  24.375  0.00  0.00     0.217 HD
ENDBRANCH  17  27
ENDBRANCH   7   8
ENDBRANCH   5   7
BRANCH   6  29
HETATM   29  C   UNK     0      11.160   2.203  18.376  0.00  0.00     0.172 C 
HETATM   30  O   UNK     0      11.722   1.121  18.464  0.00  0.00    -0.648 OA
BRANCH  29  31
HETATM   31  O   UNK     0      10.610   2.686  17.237  0.00  0.00    -0.774 OA
HETATM   32  H   UNK     0      11.145   2.462  16.446  0.00  0.00     0.167 HD
ENDBRANCH  29  31
ENDBRANCH   6  29
BRANCH   3  33
HETATM   33  O   UNK     0      11.936   5.197  22.969  0.00  0.00    -0.388 OA
HETATM   34  H   UNK     0      11.391   5.959  22.708  0.00  0.00     0.210 HD
ENDBRANCH   3  33
BRANCH   4  35
HETATM   35  O   UNK     0      11.313   5.176  18.221  0.00  0.00    -0.390 OA
HETATM   36  H   UNK     0      10.443   4.805  17.996  0.00  0.00     0.210 HD
ENDBRANCH   4  35
BRANCH   2  37
HETATM   37  O   UNK     0      12.913   6.250  20.398  0.00  0.00    -0.390 OA
HETATM   38  H   UNK     0      13.767   5.787  20.374  0.00  0.00     0.210 HD
ENDBRANCH   2  37
TORSDOF 10
ENDMDL
MODEL 6
REMARK VINA RESULT:      -7.4      1.953      9.086
REMARK  10 active torsions:
REMARK  status: ('A' for Active; 'I' for Inactive)
REMARK    1  A    between atoms: O_2  and  C_15 
REMARK    2  A    between atoms: O_2  and  C_18 
REMARK    3  A    between atoms: O_3  and  C_12 
REMARK    4  A    between atoms: O_4  and  C_13 
REMARK    5  A    between atoms: O_5  and  C_14 
REMARK    6  A    between atoms: O_6  and  C_17 
REMARK    7  A    between atoms: O_9  and  C_19 
REMARK    8  A    between atoms: O_10  and  C_23 
REMARK    9  A    between atoms: C_16  and  C_17 
REMARK   10  A    between atoms: C_25  and  C_27 
ROOT
HETATM    1  O   UNK     0       9.493  -1.943  24.261  0.00  0.00    -0.340 OA
HETATM    2  C   UNK     0       8.871  -4.722  24.643  0.00  0.00     0.183 C 
HETATM    3  C   UNK     0      10.058  -4.257  23.799  0.00  0.00     0.205 C 
HETATM    4  C   UNK     0       8.439  -3.645  25.639  0.00  0.00     0.189 C 
HETATM    5  C   UNK     0       9.813  -2.863  23.220  0.00  0.00     0.299 C 
HETATM    6  C   UNK     0       8.297  -2.295  24.946  0.00  0.00     0.253 C 
ENDROOT
BRANCH   5   7
HETATM    7  O   UNK     0      11.005  -2.445  22.557  0.00  0.00    -0.315 OA
BRANCH   7   8
HETATM    8  C   UNK     0      10.851  -1.616  21.485  0.00  0.00     0.111 A 
HETATM    9  C   UNK     0      11.359  -0.317  21.514  0.00  0.00     0.137 A 
HETATM   10  C   UNK     0      11.193   0.518  20.408  0.00  0.00     0.129 A 
HETATM   11  O   UNK     0      11.713   1.783  20.495  0.00  0.00    -0.306 OA
HETATM   12  C   UNK     0      10.521   0.052  19.279  0.00  0.00     0.084 A 
HETATM   13  C   UNK     0      11.570   2.633  19.409  0.00  0.00     0.090 A 
HETATM   14  C   UNK     0      10.938   2.305  18.271  0.00  0.00     0.094 A 
HETATM   15  C   UNK     0      10.359   0.954  18.128  0.00  0.00     0.190 A 
HETATM   16  O   UNK     0       9.779   0.613  17.106  0.00  0.00    -0.287 OA
HETATM   17  C   UNK     0      10.011  -1.247  19.246  0.00  0.00     0.085 A 
HETATM   18  C   UNK     0      10.178  -2.080  20.353  0.00  0.00     0.077 A 
BRANCH   9  19
HETATM   19  O   UNK     0      12.016   0.131  22.622  0.00  0.00    -0.351 OA
HETATM   20  C   UNK     0      11.250   0.863  23.576  0.00  0.00     0.210 C 
ENDBRANCH   9  19
BRANCH  13  21
HETATM   21  C   UNK     0      12.160   3.971  19.612  0.00  0.00    -0.002 A 
HETATM   22  C   UNK     0      13.528   4.173  19.413  0.00  0.00     0.014 A 
HETATM   23  C   UNK     0      14.085   5.438  19.603  0.00  0.00     0.001 A 
HETATM   24  C   UNK     0      13.277   6.505  19.993  0.00  0.00     0.000 A 
HETATM   25  C   UNK     0      11.910   6.308  20.193  0.00  0.00     0.001 A 
HETATM   26  C   UNK     0      11.353   5.043  20.003  0.00  0.00     0.014 A 
ENDBRANCH  13  21
BRANCH  17  27
HETATM   27  O   UNK     0       9.346  -1.748  18.167  0.00  0.00    -0.360 OA
HETATM   28  H   UNK     0       9.832  -1.559  17.351  0.00  0.00     0.217 HD
ENDBRANCH  17  27
ENDBRANCH   7   8
ENDBRANCH   5   7
BRANCH   6  29
HETATM   29  C   UNK     0       8.136  -1.195  25.945  0.00  0.00     0.172 C 
HETATM   30  O   UNK     0       9.055  -0.622  26.511  0.00  0.00    -0.648 OA
BRANCH  29  31
HETATM   31  O   UNK     0       6.825  -0.918  26.145  0.00  0.00    -0.774 OA
HETATM   32  H   UNK     0       6.264  -1.241  25.408  0.00  0.00     0.167 HD
ENDBRANCH  29  31
ENDBRANCH   6  29
BRANCH   3  33
HETATM   33  O   UNK     0      10.252  -5.163  22.714  0.00  0.00    -0.388 OA
HETATM   34  H   UNK     0       9.820  -4.782  21.931  0.00  0.00     0.210 HD
ENDBRANCH   3  33
BRANCH   4  35
HETATM   35  O   UNK     0       7.178  -4.007  26.199  0.00  0.00    -0.390 OA
HETATM   36  H   UNK     0       6.607  -3.220  26.190  0.00  0.00     0.210 HD
ENDBRANCH   4  35
BRANCH   2  37
HETATM   37  O   UNK     0       9.241  -5.886  25.384  0.00  0.00    -0.390 OA
HETATM   38  H   UNK     0       9.690  -5.590  26.194  0.00  0.00     0.210 HD
ENDBRANCH   2  37
TORSDOF 10
ENDMDL
MODEL 7
REMARK VINA RESULT:      -7.4      2.327      3.568
REMARK  10 active torsions:
REMARK  status: ('A' for Active; 'I' for Inactive)
REMARK    1  A    between atoms: O_2  and  C_15 
REMARK    2  A    between atoms: O_2  and  C_18 
REMARK    3  A    between atoms: O_3  and  C_12 
REMARK    4  A    between atoms: O_4  and  C_13 
REMARK    5  A    between atoms: O_5  and  C_14 
REMARK    6  A    between atoms: O_6  and  C_17 
REMARK    7  A    between atoms: O_9  and  C_19 
REMARK    8  A    between atoms: O_10  and  C_23 
REMARK    9  A    between atoms: C_16  and  C_17 
REMARK   10  A    between atoms: C_25  and  C_27 
ROOT
HETATM    1  O   UNK     0      11.593   3.943  21.053  0.00  0.00    -0.340 OA
HETATM    2  C   UNK     0      13.954   3.804  22.685  0.00  0.00     0.183 C 
HETATM    3  C   UNK     0      13.114   2.570  22.354  0.00  0.00     0.205 C 
HETATM    4  C   UNK     0      13.733   4.920  21.663  0.00  0.00     0.189 C 
HETATM    5  C   UNK     0      11.659   2.950  22.074  0.00  0.00     0.299 C 
HETATM    6  C   UNK     0      12.246   5.150  21.428  0.00  0.00     0.253 C 
ENDROOT
BRANCH   5   7
HETATM    7  O   UNK     0      10.971   1.775  21.649  0.00  0.00    -0.315 OA
BRANCH   7   8
HETATM    8  C   UNK     0      10.135   1.194  22.558  0.00  0.00     0.111 A 
HETATM    9  C   UNK     0      10.064  -0.195  22.668  0.00  0.00     0.137 A 
HETATM   10  C   UNK     0       9.204  -0.774  23.603  0.00  0.00     0.129 A 
HETATM   11  O   UNK     0       9.178  -2.144  23.665  0.00  0.00    -0.306 OA
HETATM   12  C   UNK     0       8.419   0.036  24.422  0.00  0.00     0.084 A 
HETATM   13  C   UNK     0       8.338  -2.747  24.588  0.00  0.00     0.090 A 
HETATM   14  C   UNK     0       7.530  -2.078  25.426  0.00  0.00     0.094 A 
HETATM   15  C   UNK     0       7.521  -0.601  25.397  0.00  0.00     0.190 A 
HETATM   16  O   UNK     0       6.803   0.048  26.145  0.00  0.00    -0.287 OA
HETATM   17  C   UNK     0       8.488   1.426  24.314  0.00  0.00     0.085 A 
HETATM   18  C   UNK     0       9.348   2.002  23.379  0.00  0.00     0.077 A 
BRANCH   9  19
HETATM   19  O   UNK     0      10.836  -0.982  21.863  0.00  0.00    -0.351 OA
HETATM   20  C   UNK     0      10.280  -1.363  20.607  0.00  0.00     0.210 C 
ENDBRANCH   9  19
BRANCH  13  21
HETATM   21  C   UNK     0       8.383  -4.223  24.566  0.00  0.00    -0.002 A 
HETATM   22  C   UNK     0       9.582  -4.885  24.290  0.00  0.00     0.014 A 
HETATM   23  C   UNK     0       9.624  -6.279  24.271  0.00  0.00     0.001 A 
HETATM   24  C   UNK     0       8.468  -7.016  24.526  0.00  0.00     0.000 A 
HETATM   25  C   UNK     0       7.269  -6.359  24.801  0.00  0.00     0.001 A 
HETATM   26  C   UNK     0       7.226  -4.964  24.822  0.00  0.00     0.014 A 
ENDBRANCH  13  21
BRANCH  17  27
HETATM   27  O   UNK     0       7.740   2.260  25.091  0.00  0.00    -0.360 OA
HETATM   28  H   UNK     0       8.169   2.400  25.948  0.00  0.00     0.217 HD
ENDBRANCH  17  27
ENDBRANCH   7   8
ENDBRANCH   5   7
BRANCH   6  29
HETATM   29  C   UNK     0      12.021   6.043  20.251  0.00  0.00     0.172 C 
HETATM   30  O   UNK     0      10.928   6.322  19.781  0.00  0.00    -0.648 OA
BRANCH  29  31
HETATM   31  O   UNK     0      13.200   6.502  19.766  0.00  0.00    -0.774 OA
HETATM   32  H   UNK     0      13.854   5.780  19.645  0.00  0.00     0.167 HD
ENDBRANCH  29  31
ENDBRANCH   6  29
BRANCH   3  33
HETATM   33  O   UNK     0      13.135   1.671  23.462  0.00  0.00    -0.388 OA
HETATM   34  H   UNK     0      13.915   1.099  23.362  0.00  0.00     0.210 HD
ENDBRANCH   3  33
BRANCH   4  35
HETATM   35  O   UNK     0      14.311   6.127  22.158  0.00  0.00    -0.390 OA
HETATM   36  H   UNK     0      14.549   5.987  23.090  0.00  0.00     0.210 HD
ENDBRANCH   4  35
BRANCH   2  37
HETATM   37  O   UNK     0      15.339   3.455  22.667  0.00  0.00    -0.390 OA
HETATM   38  H   UNK     0      15.800   4.107  22.112  0.00  0.00     0.210 HD
ENDBRANCH   2  37
TORSDOF 10
ENDMDL
MODEL 8
REMARK VINA RESULT:      -7.4      4.597     10.692
REMARK  10 active torsions:
REMARK  status: ('A' for Active; 'I' for Inactive)
REMARK    1  A    between atoms: O_2  and  C_15 
REMARK    2  A    between atoms: O_2  and  C_18 
REMARK    3  A    between atoms: O_3  and  C_12 
REMARK    4  A    between atoms: O_4  and  C_13 
REMARK    5  A    between atoms: O_5  and  C_14 
REMARK    6  A    between atoms: O_6  and  C_17 
REMARK    7  A    between atoms: O_9  and  C_19 
REMARK    8  A    between atoms: O_10  and  C_23 
REMARK    9  A    between atoms: C_16  and  C_17 
REMARK   10  A    between atoms: C_25  and  C_27 
ROOT
HETATM    1  O   UNK     0      10.879   2.346  19.734  0.00  0.00    -0.340 OA
HETATM    2  C   UNK     0       9.991   0.574  21.814  0.00  0.00     0.183 C 
HETATM    3  C   UNK     0      10.084   2.087  22.013  0.00  0.00     0.205 C 
HETATM    4  C   UNK     0       9.885   0.210  20.333  0.00  0.00     0.189 C 
HETATM    5  C   UNK     0      11.138   2.702  21.091  0.00  0.00     0.299 C 
HETATM    6  C   UNK     0      10.946   0.941  19.521  0.00  0.00     0.253 C 
ENDROOT
BRANCH   5   7
HETATM    7  O   UNK     0      11.077   4.120  21.237  0.00  0.00    -0.315 OA
BRANCH   7   8
HETATM    8  C   UNK     0      12.267   4.788  21.217  0.00  0.00     0.111 A 
HETATM    9  C   UNK     0      12.793   5.262  20.014  0.00  0.00     0.137 A 
HETATM   10  C   UNK     0      14.011   5.944  20.011  0.00  0.00     0.129 A 
HETATM   11  O   UNK     0      14.477   6.386  18.799  0.00  0.00    -0.306 OA
HETATM   12  C   UNK     0      14.696   6.149  21.206  0.00  0.00     0.084 A 
HETATM   13  C   UNK     0      15.681   7.073  18.766  0.00  0.00     0.090 A 
HETATM   14  C   UNK     0      16.437   7.327  19.846  0.00  0.00     0.094 A 
HETATM   15  C   UNK     0      15.979   6.870  21.174  0.00  0.00     0.190 A 
HETATM   16  O   UNK     0      16.634   7.084  22.184  0.00  0.00    -0.287 OA
HETATM   17  C   UNK     0      14.173   5.677  22.411  0.00  0.00     0.085 A 
HETATM   18  C   UNK     0      12.956   4.995  22.412  0.00  0.00     0.077 A 
BRANCH   9  19
HETATM   19  O   UNK     0      12.115   5.057  18.848  0.00  0.00    -0.351 OA
HETATM   20  C   UNK     0      11.069   5.974  18.538  0.00  0.00     0.210 C 
ENDBRANCH   9  19
BRANCH  13  21
HETATM   21  C   UNK     0      16.093   7.496  17.413  0.00  0.00    -0.002 A 
HETATM   22  C   UNK     0      15.906   6.642  16.322  0.00  0.00     0.014 A 
HETATM   23  C   UNK     0      16.294   7.043  15.044  0.00  0.00     0.001 A 
HETATM   24  C   UNK     0      16.871   8.298  14.851  0.00  0.00     0.000 A 
HETATM   25  C   UNK     0      17.060   9.153  15.937  0.00  0.00     0.001 A 
HETATM   26  C   UNK     0      16.671   8.753  17.216  0.00  0.00     0.014 A 
ENDBRANCH  13  21
BRANCH  17  27
HETATM   27  O   UNK     0      14.806   5.851  23.606  0.00  0.00    -0.360 OA
HETATM   28  H   UNK     0      14.703   6.764  23.914  0.00  0.00     0.217 HD
ENDBRANCH  17  27
ENDBRANCH   7   8
ENDBRANCH   5   7
BRANCH   6  29
HETATM   29  C   UNK     0      10.689   0.803  18.055  0.00  0.00     0.172 C 
HETATM   30  O   UNK     0      10.467  -0.252  17.478  0.00  0.00    -0.648 OA
BRANCH  29  31
HETATM   31  O   UNK     0      10.737   2.011  17.444  0.00  0.00    -0.774 OA
HETATM   32  H   UNK     0       9.851   2.308  17.146  0.00  0.00     0.167 HD
ENDBRANCH  29  31
ENDBRANCH   6  29
BRANCH   3  33
HETATM   33  O   UNK     0      10.454   2.366  23.362  0.00  0.00    -0.388 OA
HETATM   34  H   UNK     0      10.013   1.712  23.930  0.00  0.00     0.210 HD
ENDBRANCH   3  33
BRANCH   4  35
HETATM   35  O   UNK     0      10.080  -1.195  20.182  0.00  0.00    -0.390 OA
HETATM   36  H   UNK     0       9.815  -1.627  21.012  0.00  0.00     0.210 HD
ENDBRANCH   4  35
BRANCH   2  37
HETATM   37  O   UNK     0       8.826   0.078  22.476  0.00  0.00    -0.390 OA
HETATM   38  H   UNK     0       9.107  -0.632  23.077  0.00  0.00     0.210 HD
ENDBRANCH   2  37
TORSDOF 10
ENDMDL
MODEL 9
REMARK VINA RESULT:      -7.3      2.758      5.931
REMARK  10 active torsions:
REMARK  status: ('A' for Active; 'I' for Inactive)
REMARK    1  A    between atoms: O_2  and  C_15 
REMARK    2  A    between atoms: O_2  and  C_18 
REMARK    3  A    between atoms: O_3  and  C_12 
REMARK    4  A    between atoms: O_4  and  C_13 
REMARK    5  A    between atoms: O_5  and  C_14 
REMARK    6  A    between atoms: O_6  and  C_17 
REMARK    7  A    between atoms: O_9  and  C_19 
REMARK    8  A    between atoms: O_10  and  C_23 
REMARK    9  A    between atoms: C_16  and  C_17 
REMARK   10  A    between atoms: C_25  and  C_27 
ROOT
HETATM    1  O   UNK     0      12.835   4.874  21.935  0.00  0.00    -0.340 OA
HETATM    2  C   UNK     0      14.508   6.264  20.057  0.00  0.00     0.183 C 
HETATM    3  C   UNK     0      13.151   5.678  19.667  0.00  0.00     0.205 C 
HETATM    4  C   UNK     0      14.600   6.503  21.565  0.00  0.00     0.189 C 
HETATM    5  C   UNK     0      12.781   4.494  20.561  0.00  0.00     0.299 C 
HETATM    6  C   UNK     0      14.140   5.272  22.336  0.00  0.00     0.253 C 
ENDROOT
BRANCH   5   7
HETATM    7  O   UNK     0      11.456   4.085  20.226  0.00  0.00    -0.315 OA
BRANCH   7   8
HETATM    8  C   UNK     0      11.229   2.742  20.161  0.00  0.00     0.111 A 
HETATM    9  C   UNK     0      10.667   2.064  21.244  0.00  0.00     0.137 A 
HETATM   10  C   UNK     0      10.440   0.690  21.160  0.00  0.00     0.129 A 
HETATM   11  O   UNK     0       9.887   0.079  22.256  0.00  0.00    -0.306 OA
HETATM   12  C   UNK     0      10.775  -0.002  19.998  0.00  0.00     0.084 A 
HETATM   13  C   UNK     0       9.644  -1.284  22.200  0.00  0.00     0.090 A 
HETATM   14  C   UNK     0       9.928  -2.061  21.142  0.00  0.00     0.094 A 
HETATM   15  C   UNK     0      10.527  -1.450  19.938  0.00  0.00     0.190 A 
HETATM   16  O   UNK     0      10.797  -2.120  18.950  0.00  0.00    -0.287 OA
HETATM   17  C   UNK     0      11.337   0.673  18.912  0.00  0.00     0.085 A 
HETATM   18  C   UNK     0      11.563   2.046  18.997  0.00  0.00     0.077 A 
BRANCH   9  19
HETATM   19  O   UNK     0      10.342   2.748  22.379  0.00  0.00    -0.351 OA
HETATM   20  C   UNK     0      11.163   2.529  23.523  0.00  0.00     0.210 C 
ENDBRANCH   9  19
BRANCH  13  21
HETATM   21  C   UNK     0       9.053  -1.840  23.434  0.00  0.00    -0.002 A 
HETATM   22  C   UNK     0       8.688  -3.188  23.493  0.00  0.00     0.014 A 
HETATM   23  C   UNK     0       8.131  -3.713  24.659  0.00  0.00     0.001 A 
HETATM   24  C   UNK     0       7.938  -2.894  25.771  0.00  0.00     0.000 A 
HETATM   25  C   UNK     0       8.300  -1.547  25.716  0.00  0.00     0.001 A 
HETATM   26  C   UNK     0       8.858  -1.022  24.550  0.00  0.00     0.014 A 
ENDBRANCH  13  21
BRANCH  17  27
HETATM   27  O   UNK     0      11.682   0.041  17.754  0.00  0.00    -0.360 OA
HETATM   28  H   UNK     0      11.998   0.681  17.099  0.00  0.00     0.217 HD
ENDBRANCH  17  27
ENDBRANCH   7   8
ENDBRANCH   5   7
BRANCH   6  29
HETATM   29  C   UNK     0      13.975   5.581  23.788  0.00  0.00     0.172 C 
HETATM   30  O   UNK     0      14.893   5.744  24.580  0.00  0.00    -0.648 OA
BRANCH  29  31
HETATM   31  O   UNK     0      12.663   5.653  24.117  0.00  0.00    -0.774 OA
HETATM   32  H   UNK     0      12.164   4.866  23.811  0.00  0.00     0.167 HD
ENDBRANCH  29  31
ENDBRANCH   6  29
BRANCH   3  33
HETATM   33  O   UNK     0      13.204   5.219  18.317  0.00  0.00    -0.388 OA
HETATM   34  H   UNK     0      14.023   4.706  18.212  0.00  0.00     0.210 HD
ENDBRANCH   3  33
BRANCH   4  35
HETATM   35  O   UNK     0      15.955   6.781  21.912  0.00  0.00    -0.390 OA
HETATM   36  H   UNK     0      16.528   6.220  21.361  0.00  0.00     0.210 HD
ENDBRANCH   4  35
BRANCH   2  37
HETATM   37  O   UNK     0      14.692   7.518  19.399  0.00  0.00    -0.390 OA
HETATM   38  H   UNK     0      15.420   7.413  18.763  0.00  0.00     0.210 HD
ENDBRANCH   2  37
TORSDOF 10
ENDMDL
MODEL 10
REMARK VINA RESULT:      -7.3      4.465      8.937
REMARK  10 active torsions:
REMARK  status: ('A' for Active; 'I' for Inactive)
REMARK    1  A    between atoms: O_2  and  C_15 
REMARK    2  A    between atoms: O_2  and  C_18 
REMARK    3  A    between atoms: O_3  and  C_12 
REMARK    4  A    between atoms: O_4  and  C_13 
REMARK    5  A    between atoms: O_5  and  C_14 
REMARK    6  A    between atoms: O_6  and  C_17 
REMARK    7  A    between atoms: O_9  and  C_19 
REMARK    8  A    between atoms: O_10  and  C_23 
REMARK    9  A    between atoms: C_16  and  C_17 
REMARK   10  A    between atoms: C_25  and  C_27 
ROOT
HETATM    1  O   UNK     0      10.307   1.697  19.204  0.00  0.00    -0.340 OA
HETATM    2  C   UNK     0      10.357  -0.927  20.373  0.00  0.00     0.183 C 
HETATM    3  C   UNK     0      10.353   0.346  21.219  0.00  0.00     0.205 C 
HETATM    4  C   UNK     0       9.800  -0.669  18.973  0.00  0.00     0.189 C 
HETATM    5  C   UNK     0      10.967   1.520  20.455  0.00  0.00     0.299 C 
HETATM    6  C   UNK     0      10.445   0.564  18.354  0.00  0.00     0.253 C 
ENDROOT
BRANCH   5   7
HETATM    7  O   UNK     0      10.811   2.693  21.252  0.00  0.00    -0.315 OA
BRANCH   7   8
HETATM    8  C   UNK     0      11.794   3.634  21.153  0.00  0.00     0.111 A 
HETATM    9  C   UNK     0      12.858   3.645  22.057  0.00  0.00     0.137 A 
HETATM   10  C   UNK     0      13.856   4.614  21.942  0.00  0.00     0.129 A 
HETATM   11  O   UNK     0      14.875   4.574  22.858  0.00  0.00    -0.306 OA
HETATM   12  C   UNK     0      13.787   5.567  20.927  0.00  0.00     0.084 A 
HETATM   13  C   UNK     0      15.884   5.519  22.765  0.00  0.00     0.090 A 
HETATM   14  C   UNK     0      15.928   6.491  21.839  0.00  0.00     0.094 A 
HETATM   15  C   UNK     0      14.852   6.577  20.831  0.00  0.00     0.190 A 
HETATM   16  O   UNK     0      14.855   7.443  19.967  0.00  0.00    -0.287 OA
HETATM   17  C   UNK     0      12.725   5.559  20.021  0.00  0.00     0.085 A 
HETATM   18  C   UNK     0      11.728   4.590  20.138  0.00  0.00     0.077 A 
BRANCH   9  19
HETATM   19  O   UNK     0      12.918   2.708  23.047  0.00  0.00    -0.351 OA
HETATM   20  C   UNK     0      12.259   3.020  24.272  0.00  0.00     0.210 C 
ENDBRANCH   9  19
BRANCH  13  21
HETATM   21  C   UNK     0      16.926   5.390  23.803  0.00  0.00    -0.002 A 
HETATM   22  C   UNK     0      17.079   4.187  24.499  0.00  0.00     0.014 A 
HETATM   23  C   UNK     0      18.064   4.065  25.479  0.00  0.00     0.001 A 
HETATM   24  C   UNK     0      18.899   5.143  25.768  0.00  0.00     0.000 A 
HETATM   25  C   UNK     0      18.750   6.346  25.076  0.00  0.00     0.001 A 
HETATM   26  C   UNK     0      17.765   6.469  24.095  0.00  0.00     0.014 A 
ENDBRANCH  13  21
BRANCH  17  27
HETATM   27  O   UNK     0      12.613   6.469  19.013  0.00  0.00    -0.360 OA
HETATM   28  H   UNK     0      11.826   7.020  19.139  0.00  0.00     0.217 HD
ENDBRANCH  17  27
ENDBRANCH   7   8
ENDBRANCH   5   7
BRANCH   6  29
HETATM   29  C   UNK     0       9.727   0.977  17.110  0.00  0.00     0.172 C 
HETATM   30  O   UNK     0       8.977   0.261  16.462  0.00  0.00    -0.648 OA
BRANCH  29  31
HETATM   31  O   UNK     0      10.022   2.260  16.789  0.00  0.00    -0.774 OA
HETATM   32  H   UNK     0      10.210   2.804  17.584  0.00  0.00     0.167 HD
ENDBRANCH  29  31
ENDBRANCH   6  29
BRANCH   3  33
HETATM   33  O   UNK     0      11.122   0.132  22.401  0.00  0.00    -0.388 OA
HETATM   34  H   UNK     0      10.569   0.375  23.162  0.00  0.00     0.210 HD
ENDBRANCH   3  33
BRANCH   4  35
HETATM   35  O   UNK     0      10.078  -1.796  18.144  0.00  0.00    -0.390 OA
HETATM   36  H   UNK     0      10.680  -1.509  17.437  0.00  0.00     0.210 HD
ENDBRANCH   4  35
BRANCH   2  37
HETATM   37  O   UNK     0       9.540  -1.917  20.999  0.00  0.00    -0.390 OA
HETATM   38  H   UNK     0       9.008  -2.343  20.306  0.00  0.00     0.210 HD
ENDBRANCH   2  37
TORSDOF 10
ENDMDL
