MODEL 1
REMARK VINA RESULT:      -3.8      0.000      0.000
REMARK  9 active torsions:
REMARK  status: ('A' for Active; 'I' for Inactive)
REMARK    1  A    between atoms: S_1  and  S_2 
REMARK    2  A    between atoms: S_1  and  C_15 
REMARK    3  A    between atoms: S_2  and  C_16 
REMARK    4  A    between atoms: N_5  and  C_7 
REMARK    5  A    between atoms: N_5  and  C_8 
REMARK    6  A    between atoms: N_5  and  C_15 
REMARK    7  A    between atoms: N_6  and  C_9 
REMARK    8  A    between atoms: N_6  and  C_10 
REMARK    9  A    between atoms: N_6  and  C_16 
ROOT
HETATM    1  S   MOL     1       9.745  -1.553  21.801  1.00  0.00    -0.020 SA
ENDROOT
BRANCH   1   2
HETATM    2  S   MOL     1      10.446   0.104  22.809  1.00  0.00    -0.020 SA
BRANCH   2   3
HETATM    3  C   MOL     1       9.971  -0.269  24.481  1.00  0.00     0.147 C 
HETATM    4  S   MOL     1      11.090  -1.063  25.470  1.00  0.00    -0.052 SA
BRANCH   3   5
HETATM    5  N   MOL     1       8.685   0.153  24.876  1.00  0.00    -0.367 N 
BRANCH   5   6
HETATM    6  C   MOL     1       8.081   1.392  24.377  1.00  0.00     0.120 C 
HETATM    7  C   MOL     1       6.604   1.461  24.705  1.00  0.00     0.026 C 
ENDBRANCH   5   6
BRANCH   5   8
HETATM    8  C   MOL     1       7.817  -0.592  25.793  1.00  0.00     0.120 C 
HETATM    9  C   MOL     1       7.613  -2.018  25.326  1.00  0.00     0.026 C 
ENDBRANCH   5   8
ENDBRANCH   3   5
ENDBRANCH   2   3
ENDBRANCH   1   2
BRANCH   1  10
HETATM   10  C   MOL     1      10.699  -1.488  20.304  1.00  0.00     0.147 C 
HETATM   11  S   MOL     1      11.642  -2.832  19.898  1.00  0.00    -0.052 SA
BRANCH  10  12
HETATM   12  N   MOL     1      10.580  -0.311  19.537  1.00  0.00    -0.367 N 
BRANCH  12  13
HETATM   13  C   MOL     1      11.672   0.644  19.318  1.00  0.00     0.120 C 
HETATM   14  C   MOL     1      11.249   1.766  18.391  1.00  0.00     0.026 C 
ENDBRANCH  12  13
BRANCH  12  15
HETATM   15  C   MOL     1       9.324   0.080  18.892  1.00  0.00     0.120 C 
HETATM   16  C   MOL     1       8.937  -0.890  17.795  1.00  0.00     0.026 C 
ENDBRANCH  12  15
ENDBRANCH  10  12
ENDBRANCH   1  10
TORSDOF 9
ENDMDL
MODEL 2
REMARK VINA RESULT:      -3.8      1.635      6.288
REMARK  9 active torsions:
REMARK  status: ('A' for Active; 'I' for Inactive)
REMARK    1  A    between atoms: S_1  and  S_2 
REMARK    2  A    between atoms: S_1  and  C_15 
REMARK    3  A    between atoms: S_2  and  C_16 
REMARK    4  A    between atoms: N_5  and  C_7 
REMARK    5  A    between atoms: N_5  and  C_8 
REMARK    6  A    between atoms: N_5  and  C_15 
REMARK    7  A    between atoms: N_6  and  C_9 
REMARK    8  A    between atoms: N_6  and  C_10 
REMARK    9  A    between atoms: N_6  and  C_16 
ROOT
HETATM    1  S   MOL     1       9.865   1.143  22.268  1.00  0.00    -0.020 SA
ENDROOT
BRANCH   1   2
HETATM    2  S   MOL     1      11.507   0.287  21.362  1.00  0.00    -0.020 SA
BRANCH   2   3
HETATM    3  C   MOL     1      11.125   0.516  19.642  1.00  0.00     0.147 C 
HETATM    4  S   MOL     1      11.749   1.879  18.860  1.00  0.00    -0.052 SA
BRANCH   3   5
HETATM    5  N   MOL     1      10.337  -0.485  19.036  1.00  0.00    -0.367 N 
BRANCH   5   6
HETATM    6  C   MOL     1       9.124  -0.172  18.276  1.00  0.00     0.120 C 
HETATM    7  C   MOL     1       9.336  -0.365  16.789  1.00  0.00     0.026 C 
ENDBRANCH   5   6
BRANCH   5   8
HETATM    8  C   MOL     1      10.647  -1.917  19.078  1.00  0.00     0.120 C 
HETATM    9  C   MOL     1      12.035  -2.200  18.543  1.00  0.00     0.026 C 
ENDBRANCH   5   8
ENDBRANCH   3   5
ENDBRANCH   2   3
ENDBRANCH   1   2
BRANCH   1  10
HETATM   10  C   MOL     1       9.225  -0.223  23.207  1.00  0.00     0.147 C 
HETATM   11  S   MOL     1       9.491  -1.788  22.625  1.00  0.00    -0.052 SA
BRANCH  10  12
HETATM   12  N   MOL     1       8.551   0.101  24.403  1.00  0.00    -0.367 N 
BRANCH  12  13
HETATM   13  C   MOL     1       8.336  -0.839  25.508  1.00  0.00     0.120 C 
HETATM   14  C   MOL     1       9.638  -1.186  26.201  1.00  0.00     0.026 C 
ENDBRANCH  12  13
BRANCH  12  15
HETATM   15  C   MOL     1       7.978   1.427  24.644  1.00  0.00     0.120 C 
HETATM   16  C   MOL     1       6.464   1.392  24.615  1.00  0.00     0.026 C 
ENDBRANCH  12  15
ENDBRANCH  10  12
ENDBRANCH   1  10
TORSDOF 9
ENDMDL
MODEL 3
REMARK VINA RESULT:      -3.8      1.625      2.630
REMARK  9 active torsions:
REMARK  status: ('A' for Active; 'I' for Inactive)
REMARK    1  A    between atoms: S_1  and  S_2 
REMARK    2  A    between atoms: S_1  and  C_15 
REMARK    3  A    between atoms: S_2  and  C_16 
REMARK    4  A    between atoms: N_5  and  C_7 
REMARK    5  A    between atoms: N_5  and  C_8 
REMARK    6  A    between atoms: N_5  and  C_15 
REMARK    7  A    between atoms: N_6  and  C_9 
REMARK    8  A    between atoms: N_6  and  C_10 
REMARK    9  A    between atoms: N_6  and  C_16 
ROOT
HETATM    1  S   MOL     1       9.837   0.535  20.600  1.00  0.00    -0.020 SA
ENDROOT
BRANCH   1   2
HETATM    2  S   MOL     1       9.869  -0.775  22.192  1.00  0.00    -0.020 SA
BRANCH   2   3
HETATM    3  C   MOL     1       9.938   0.345  23.572  1.00  0.00     0.147 C 
HETATM    4  S   MOL     1      11.367   1.211  23.827  1.00  0.00    -0.052 SA
BRANCH   3   5
HETATM    5  N   MOL     1       8.767   0.451  24.351  1.00  0.00    -0.367 N 
BRANCH   5   6
HETATM    6  C   MOL     1       8.229  -0.679  25.112  1.00  0.00     0.120 C 
HETATM    7  C   MOL     1       9.271  -1.270  26.038  1.00  0.00     0.026 C 
ENDBRANCH   5   6
BRANCH   5   8
HETATM    8  C   MOL     1       7.986   1.683  24.502  1.00  0.00     0.120 C 
HETATM    9  C   MOL     1       6.508   1.387  24.645  1.00  0.00     0.026 C 
ENDBRANCH   5   8
ENDBRANCH   3   5
ENDBRANCH   2   3
ENDBRANCH   1   2
BRANCH   1  10
HETATM   10  C   MOL     1      11.300   0.053  19.714  1.00  0.00     0.147 C 
HETATM   11  S   MOL     1      12.802   0.352  20.430  1.00  0.00    -0.052 SA
BRANCH  10  12
HETATM   12  N   MOL     1      11.099  -0.575  18.468  1.00  0.00    -0.367 N 
BRANCH  12  13
HETATM   13  C   MOL     1      11.576  -1.922  18.138  1.00  0.00     0.120 C 
HETATM   14  C   MOL     1      11.336  -2.890  19.279  1.00  0.00     0.026 C 
ENDBRANCH  12  13
BRANCH  12  15
HETATM   15  C   MOL     1      10.397   0.083  17.363  1.00  0.00     0.120 C 
HETATM   16  C   MOL     1       9.661  -0.919  16.498  1.00  0.00     0.026 C 
ENDBRANCH  12  15
ENDBRANCH  10  12
ENDBRANCH   1  10
TORSDOF 9
ENDMDL
MODEL 4
REMARK VINA RESULT:      -3.8      3.196      4.439
REMARK  9 active torsions:
REMARK  status: ('A' for Active; 'I' for Inactive)
REMARK    1  A    between atoms: S_1  and  S_2 
REMARK    2  A    between atoms: S_1  and  C_15 
REMARK    3  A    between atoms: S_2  and  C_16 
REMARK    4  A    between atoms: N_5  and  C_7 
REMARK    5  A    between atoms: N_5  and  C_8 
REMARK    6  A    between atoms: N_5  and  C_15 
REMARK    7  A    between atoms: N_6  and  C_9 
REMARK    8  A    between atoms: N_6  and  C_10 
REMARK    9  A    between atoms: N_6  and  C_16 
ROOT
HETATM    1  S   MOL     1      11.851   1.714  22.558  1.00  0.00    -0.020 SA
ENDROOT
BRANCH   1   2
HETATM    2  S   MOL     1      10.014   2.140  23.391  1.00  0.00    -0.020 SA
BRANCH   2   3
HETATM    3  C   MOL     1       9.282   0.523  23.484  1.00  0.00     0.147 C 
HETATM    4  S   MOL     1       9.622  -0.579  22.248  1.00  0.00    -0.052 SA
BRANCH   3   5
HETATM    5  N   MOL     1       8.478   0.263  24.613  1.00  0.00    -0.367 N 
BRANCH   5   6
HETATM    6  C   MOL     1       8.452  -1.047  25.269  1.00  0.00     0.120 C 
HETATM    7  C   MOL     1       9.671  -1.254  26.144  1.00  0.00     0.026 C 
ENDBRANCH   5   6
BRANCH   5   8
HETATM    8  C   MOL     1       7.614   1.257  25.258  1.00  0.00     0.120 C 
HETATM    9  C   MOL     1       6.286   1.384  24.542  1.00  0.00     0.026 C 
ENDBRANCH   5   8
ENDBRANCH   3   5
ENDBRANCH   2   3
ENDBRANCH   1   2
BRANCH   1  10
HETATM   10  C   MOL     1      11.822   2.723  21.096  1.00  0.00     0.147 C 
HETATM   11  S   MOL     1      11.583   1.962  19.605  1.00  0.00    -0.052 SA
BRANCH  10  12
HETATM   12  N   MOL     1      11.978   4.110  21.290  1.00  0.00    -0.367 N 
BRANCH  12  13
HETATM   13  C   MOL     1      11.125   5.131  20.671  1.00  0.00     0.120 C 
HETATM   14  C   MOL     1      11.862   5.882  19.581  1.00  0.00     0.026 C 
ENDBRANCH  12  13
BRANCH  12  15
HETATM   15  C   MOL     1      13.040   4.669  22.130  1.00  0.00     0.120 C 
HETATM   16  C   MOL     1      12.472   5.446  23.300  1.00  0.00     0.026 C 
ENDBRANCH  12  15
ENDBRANCH  10  12
ENDBRANCH   1  10
TORSDOF 9
ENDMDL
MODEL 5
REMARK VINA RESULT:      -3.8      1.519      6.302
REMARK  9 active torsions:
REMARK  status: ('A' for Active; 'I' for Inactive)
REMARK    1  A    between atoms: S_1  and  S_2 
REMARK    2  A    between atoms: S_1  and  C_15 
REMARK    3  A    between atoms: S_2  and  C_16 
REMARK    4  A    between atoms: N_5  and  C_7 
REMARK    5  A    between atoms: N_5  and  C_8 
REMARK    6  A    between atoms: N_5  and  C_15 
REMARK    7  A    between atoms: N_6  and  C_9 
REMARK    8  A    between atoms: N_6  and  C_10 
REMARK    9  A    between atoms: N_6  and  C_16 
ROOT
HETATM    1  S   MOL     1       9.941  -2.573  22.447  1.00  0.00    -0.020 SA
ENDROOT
BRANCH   1   2
HETATM    2  S   MOL     1       9.746  -0.942  21.202  1.00  0.00    -0.020 SA
BRANCH   2   3
HETATM    3  C   MOL     1      10.502  -1.542  19.709  1.00  0.00     0.147 C 
HETATM    4  S   MOL     1      11.432  -2.951  19.796  1.00  0.00    -0.052 SA
BRANCH   3   5
HETATM    5  N   MOL     1      10.246  -0.803  18.536  1.00  0.00    -0.367 N 
BRANCH   5   6
HETATM    6  C   MOL     1       8.942  -0.824  17.867  1.00  0.00     0.120 C 
HETATM    7  C   MOL     1       9.045  -1.401  16.470  1.00  0.00     0.026 C 
ENDBRANCH   5   6
BRANCH   5   8
HETATM    8  C   MOL     1      11.225   0.070  17.880  1.00  0.00     0.120 C 
HETATM    9  C   MOL     1      10.939   1.531  18.158  1.00  0.00     0.026 C 
ENDBRANCH   5   8
ENDBRANCH   3   5
ENDBRANCH   2   3
ENDBRANCH   1   2
BRANCH   1  10
HETATM   10  C   MOL     1       9.016  -2.047  23.870  1.00  0.00     0.147 C 
HETATM   11  S   MOL     1       7.959  -3.154  24.589  1.00  0.00    -0.052 SA
BRANCH  10  12
HETATM   12  N   MOL     1       9.252  -0.732  24.318  1.00  0.00    -0.367 N 
BRANCH  12  13
HETATM   13  C   MOL     1      10.580  -0.192  24.629  1.00  0.00     0.120 C 
HETATM   14  C   MOL     1      11.293  -1.036  25.665  1.00  0.00     0.026 C 
ENDBRANCH  12  13
BRANCH  12  15
HETATM   15  C   MOL     1       8.166   0.227  24.536  1.00  0.00     0.120 C 
HETATM   16  C   MOL     1       8.543   1.612  24.053  1.00  0.00     0.026 C 
ENDBRANCH  12  15
ENDBRANCH  10  12
ENDBRANCH   1  10
TORSDOF 9
ENDMDL
MODEL 6
REMARK VINA RESULT:      -3.8      1.793      6.629
REMARK  9 active torsions:
REMARK  status: ('A' for Active; 'I' for Inactive)
REMARK    1  A    between atoms: S_1  and  S_2 
REMARK    2  A    between atoms: S_1  and  C_15 
REMARK    3  A    between atoms: S_2  and  C_16 
REMARK    4  A    between atoms: N_5  and  C_7 
REMARK    5  A    between atoms: N_5  and  C_8 
REMARK    6  A    between atoms: N_5  and  C_15 
REMARK    7  A    between atoms: N_6  and  C_9 
REMARK    8  A    between atoms: N_6  and  C_10 
REMARK    9  A    between atoms: N_6  and  C_16 
ROOT
HETATM    1  S   MOL     1       9.679  -0.877  22.152  1.00  0.00    -0.020 SA
ENDROOT
BRANCH   1   2
HETATM    2  S   MOL     1       9.737   0.067  20.320  1.00  0.00    -0.020 SA
BRANCH   2   3
HETATM    3  C   MOL     1      11.356  -0.382  19.740  1.00  0.00     0.147 C 
HETATM    4  S   MOL     1      12.693   0.084  20.664  1.00  0.00    -0.052 SA
BRANCH   3   5
HETATM    5  N   MOL     1      11.409  -1.130  18.545  1.00  0.00    -0.367 N 
BRANCH   5   6
HETATM    6  C   MOL     1      11.945  -2.493  18.498  1.00  0.00     0.120 C 
HETATM    7  C   MOL     1      11.449  -3.325  19.662  1.00  0.00     0.026 C 
ENDBRANCH   5   6
BRANCH   5   8
HETATM    8  C   MOL     1      10.923  -0.648  17.248  1.00  0.00     0.120 C 
HETATM    9  C   MOL     1       9.849  -1.556  16.686  1.00  0.00     0.026 C 
ENDBRANCH   5   8
ENDBRANCH   3   5
ENDBRANCH   2   3
ENDBRANCH   1   2
BRANCH   1  10
HETATM   10  C   MOL     1       9.354   0.487  23.244  1.00  0.00     0.147 C 
HETATM   11  S   MOL     1      10.011   1.996  22.855  1.00  0.00    -0.052 SA
BRANCH  10  12
HETATM   12  N   MOL     1       8.539   0.214  24.361  1.00  0.00    -0.367 N 
BRANCH  12  13
HETATM   13  C   MOL     1       7.222   0.819  24.589  1.00  0.00     0.120 C 
HETATM   14  C   MOL     1       7.304   1.972  25.567  1.00  0.00     0.026 C 
ENDBRANCH  12  13
BRANCH  12  15
HETATM   15  C   MOL     1       8.952  -0.703  25.426  1.00  0.00     0.120 C 
HETATM   16  C   MOL     1       8.030  -1.902  25.516  1.00  0.00     0.026 C 
ENDBRANCH  12  15
ENDBRANCH  10  12
ENDBRANCH   1  10
TORSDOF 9
ENDMDL
MODEL 7
REMARK VINA RESULT:      -3.7      1.547      6.435
REMARK  9 active torsions:
REMARK  status: ('A' for Active; 'I' for Inactive)
REMARK    1  A    between atoms: S_1  and  S_2 
REMARK    2  A    between atoms: S_1  and  C_15 
REMARK    3  A    between atoms: S_2  and  C_16 
REMARK    4  A    between atoms: N_5  and  C_7 
REMARK    5  A    between atoms: N_5  and  C_8 
REMARK    6  A    between atoms: N_5  and  C_15 
REMARK    7  A    between atoms: N_6  and  C_9 
REMARK    8  A    between atoms: N_6  and  C_10 
REMARK    9  A    between atoms: N_6  and  C_16 
ROOT
HETATM    1  S   MOL     1       9.610  -1.944  22.396  1.00  0.00    -0.020 SA
ENDROOT
BRANCH   1   2
HETATM    2  S   MOL     1       9.642  -0.071  21.534  1.00  0.00    -0.020 SA
BRANCH   2   3
HETATM    3  C   MOL     1      10.891  -0.274  20.286  1.00  0.00     0.147 C 
HETATM    4  S   MOL     1      12.457   0.263  20.629  1.00  0.00    -0.052 SA
BRANCH   3   5
HETATM    5  N   MOL     1      10.486  -0.904  19.091  1.00  0.00    -0.367 N 
BRANCH   5   6
HETATM    6  C   MOL     1       9.217  -0.586  18.431  1.00  0.00     0.120 C 
HETATM    7  C   MOL     1       9.161  -1.157  17.030  1.00  0.00     0.026 C 
ENDBRANCH   5   6
BRANCH   5   8
HETATM    8  C   MOL     1      11.281  -1.908  18.376  1.00  0.00     0.120 C 
HETATM    9  C   MOL     1      11.517  -3.137  19.229  1.00  0.00     0.026 C 
ENDBRANCH   5   8
ENDBRANCH   3   5
ENDBRANCH   2   3
ENDBRANCH   1   2
BRANCH   1  10
HETATM   10  C   MOL     1       9.597  -1.539  24.126  1.00  0.00     0.147 C 
HETATM   11  S   MOL     1      10.987  -0.847  24.795  1.00  0.00    -0.052 SA
BRANCH  10  12
HETATM   12  N   MOL     1       8.400  -1.805  24.821  1.00  0.00    -0.367 N 
BRANCH  12  13
HETATM   13  C   MOL     1       7.696  -3.091  24.788  1.00  0.00     0.120 C 
HETATM   14  C   MOL     1       8.119  -3.984  25.937  1.00  0.00     0.026 C 
ENDBRANCH  12  13
BRANCH  12  15
HETATM   15  C   MOL     1       7.729  -0.793  25.641  1.00  0.00     0.120 C 
HETATM   16  C   MOL     1       7.371   0.433  24.828  1.00  0.00     0.026 C 
ENDBRANCH  12  15
ENDBRANCH  10  12
ENDBRANCH   1  10
TORSDOF 9
ENDMDL
MODEL 8
REMARK VINA RESULT:      -3.7      3.452      6.695
REMARK  9 active torsions:
REMARK  status: ('A' for Active; 'I' for Inactive)
REMARK    1  A    between atoms: S_1  and  S_2 
REMARK    2  A    between atoms: S_1  and  C_15 
REMARK    3  A    between atoms: S_2  and  C_16 
REMARK    4  A    between atoms: N_5  and  C_7 
REMARK    5  A    between atoms: N_5  and  C_8 
REMARK    6  A    between atoms: N_5  and  C_15 
REMARK    7  A    between atoms: N_6  and  C_9 
REMARK    8  A    between atoms: N_6  and  C_10 
REMARK    9  A    between atoms: N_6  and  C_16 
ROOT
HETATM    1  S   MOL     1      10.175   2.225  23.651  1.00  0.00    -0.020 SA
ENDROOT
BRANCH   1   2
HETATM    2  S   MOL     1      10.485   2.376  21.618  1.00  0.00    -0.020 SA
BRANCH   2   3
HETATM    3  C   MOL     1      12.096   3.124  21.558  1.00  0.00     0.147 C 
HETATM    4  S   MOL     1      13.398   2.176  21.042  1.00  0.00    -0.052 SA
BRANCH   3   5
HETATM    5  N   MOL     1      12.170   4.483  21.927  1.00  0.00    -0.367 N 
BRANCH   5   6
HETATM    6  C   MOL     1      12.993   4.946  23.048  1.00  0.00     0.120 C 
HETATM    7  C   MOL     1      14.254   5.630  22.565  1.00  0.00     0.026 C 
ENDBRANCH   5   6
BRANCH   5   8
HETATM    8  C   MOL     1      11.465   5.566  21.233  1.00  0.00     0.120 C 
HETATM    9  C   MOL     1      11.719   5.524  19.741  1.00  0.00     0.026 C 
ENDBRANCH   5   8
ENDBRANCH   3   5
ENDBRANCH   2   3
ENDBRANCH   1   2
BRANCH   1  10
HETATM   10  C   MOL     1       9.312   0.676  23.766  1.00  0.00     0.147 C 
HETATM   11  S   MOL     1       9.473  -0.424  22.491  1.00  0.00    -0.052 SA
BRANCH  10  12
HETATM   12  N   MOL     1       8.563   0.462  24.940  1.00  0.00    -0.367 N 
BRANCH  12  13
HETATM   13  C   MOL     1       7.530   1.378  25.438  1.00  0.00     0.120 C 
HETATM   14  C   MOL     1       6.340   1.430  24.502  1.00  0.00     0.026 C 
ENDBRANCH  12  13
BRANCH  12  15
HETATM   15  C   MOL     1       8.767  -0.708  25.797  1.00  0.00     0.120 C 
HETATM   16  C   MOL     1       7.724  -1.775  25.537  1.00  0.00     0.026 C 
ENDBRANCH  12  15
ENDBRANCH  10  12
ENDBRANCH   1  10
TORSDOF 9
ENDMDL
MODEL 9
REMARK VINA RESULT:      -3.7      2.915      6.162
REMARK  9 active torsions:
REMARK  status: ('A' for Active; 'I' for Inactive)
REMARK    1  A    between atoms: S_1  and  S_2 
REMARK    2  A    between atoms: S_1  and  C_15 
REMARK    3  A    between atoms: S_2  and  C_16 
REMARK    4  A    between atoms: N_5  and  C_7 
REMARK    5  A    between atoms: N_5  and  C_8 
REMARK    6  A    between atoms: N_5  and  C_15 
REMARK    7  A    between atoms: N_6  and  C_9 
REMARK    8  A    between atoms: N_6  and  C_10 
REMARK    9  A    between atoms: N_6  and  C_16 
ROOT
HETATM    1  S   MOL     1      10.808   0.515  24.034  1.00  0.00    -0.020 SA
ENDROOT
BRANCH   1   2
HETATM    2  S   MOL     1       9.866   1.943  22.883  1.00  0.00    -0.020 SA
BRANCH   2   3
HETATM    3  C   MOL     1      11.115   2.301  21.670  1.00  0.00     0.147 C 
HETATM    4  S   MOL     1      11.711   1.024  20.737  1.00  0.00    -0.052 SA
BRANCH   3   5
HETATM    5  N   MOL     1      11.506   3.651  21.553  1.00  0.00    -0.367 N 
BRANCH   5   6
HETATM    6  C   MOL     1      11.457   4.372  20.278  1.00  0.00     0.120 C 
HETATM    7  C   MOL     1      11.135   5.838  20.481  1.00  0.00     0.026 C 
ENDBRANCH   5   6
BRANCH   5   8
HETATM    8  C   MOL     1      11.974   4.475  22.673  1.00  0.00     0.120 C 
HETATM    9  C   MOL     1      13.211   3.884  23.316  1.00  0.00     0.026 C 
ENDBRANCH   5   8
ENDBRANCH   3   5
ENDBRANCH   2   3
ENDBRANCH   1   2
BRANCH   1  10
HETATM   10  C   MOL     1       9.642  -0.824  23.963  1.00  0.00     0.147 C 
HETATM   11  S   MOL     1       9.487  -1.671  22.508  1.00  0.00    -0.052 SA
BRANCH  10  12
HETATM   12  N   MOL     1       8.937  -1.104  25.151  1.00  0.00    -0.367 N 
BRANCH  12  13
HETATM   13  C   MOL     1       8.124  -0.123  25.878  1.00  0.00     0.120 C 
HETATM   14  C   MOL     1       7.048   0.471  24.992  1.00  0.00     0.026 C 
ENDBRANCH  12  13
BRANCH  12  15
HETATM   15  C   MOL     1       8.969  -2.423  25.788  1.00  0.00     0.120 C 
HETATM   16  C   MOL     1       7.715  -3.217  25.486  1.00  0.00     0.026 C 
ENDBRANCH  12  15
ENDBRANCH  10  12
ENDBRANCH   1  10
TORSDOF 9
ENDMDL
MODEL 10
REMARK VINA RESULT:      -3.7      4.222      6.623
REMARK  9 active torsions:
REMARK  status: ('A' for Active; 'I' for Inactive)
REMARK    1  A    between atoms: S_1  and  S_2 
REMARK    2  A    between atoms: S_1  and  C_15 
REMARK    3  A    between atoms: S_2  and  C_16 
REMARK    4  A    between atoms: N_5  and  C_7 
REMARK    5  A    between atoms: N_5  and  C_8 
REMARK    6  A    between atoms: N_5  and  C_15 
REMARK    7  A    between atoms: N_6  and  C_9 
REMARK    8  A    between atoms: N_6  and  C_10 
REMARK    9  A    between atoms: N_6  and  C_16 
ROOT
HETATM    1  S   MOL     1      13.210   2.530  20.413  1.00  0.00    -0.020 SA
ENDROOT
BRANCH   1   2
HETATM    2  S   MOL     1      11.712   2.277  19.019  1.00  0.00    -0.020 SA
BRANCH   2   3
HETATM    3  C   MOL     1      10.677   1.076  19.824  1.00  0.00     0.147 C 
HETATM    4  S   MOL     1      10.217   1.364  21.425  1.00  0.00    -0.052 SA
BRANCH   3   5
HETATM    5  N   MOL     1      10.287  -0.034  19.047  1.00  0.00    -0.367 N 
BRANCH   5   6
HETATM    6  C   MOL     1       9.101  -0.008  18.186  1.00  0.00     0.120 C 
HETATM    7  C   MOL     1       9.453  -0.332  16.749  1.00  0.00     0.026 C 
ENDBRANCH   5   6
BRANCH   5   8
HETATM    8  C   MOL     1      11.017  -1.305  18.998  1.00  0.00     0.120 C 
HETATM    9  C   MOL     1      10.546  -2.257  20.076  1.00  0.00     0.026 C 
ENDBRANCH   5   8
ENDBRANCH   3   5
ENDBRANCH   2   3
ENDBRANCH   1   2
BRANCH   1  10
HETATM   10  C   MOL     1      13.618   4.245  20.190  1.00  0.00     0.147 C 
HETATM   11  S   MOL     1      14.414   4.698  18.769  1.00  0.00    -0.052 SA
BRANCH  10  12
HETATM   12  N   MOL     1      13.220   5.122  21.219  1.00  0.00    -0.367 N 
BRANCH  12  13
HETATM   13  C   MOL     1      11.835   5.544  21.453  1.00  0.00     0.120 C 
HETATM   14  C   MOL     1      11.136   5.897  20.156  1.00  0.00     0.026 C 
ENDBRANCH  12  13
BRANCH  12  15
HETATM   15  C   MOL     1      14.177   5.717  22.155  1.00  0.00     0.120 C 
HETATM   16  C   MOL     1      13.860   5.342  23.588  1.00  0.00     0.026 C 
ENDBRANCH  12  15
ENDBRANCH  10  12
ENDBRANCH   1  10
TORSDOF 9
ENDMDL
