MODEL 1
REMARK VINA RESULT:      -6.4      0.000      0.000
REMARK  16 active torsions:
REMARK  status: ('A' for Active; 'I' for Inactive)
REMARK    1  A    between atoms: N_3  and  C_13 
REMARK    2  A    between atoms: C_6  and  C_37 
REMARK    3  A    between atoms: C_13  and  C_14 
REMARK    4  A    between atoms: C_13  and  C_17 
REMARK       I    between atoms: C_14  and  N_15 
REMARK    5  A    between atoms: N_15  and  C_16 
REMARK    6  A    between atoms: C_16  and  C_27 
REMARK    7  A    between atoms: C_16  and  C_28 
REMARK    8  A    between atoms: C_25  and  C_27 
REMARK    9  A    between atoms: C_28  and  C_29 
REMARK   10  A    between atoms: C_29  and  C_30 
REMARK   11  A    between atoms: C_29  and  O_36 
REMARK   12  A    between atoms: C_30  and  N_31 
REMARK   13  A    between atoms: C_30  and  C_37 
REMARK       I    between atoms: N_31  and  C_32 
REMARK   14  A    between atoms: C_32  and  C_33 
REMARK   15  A    between atoms: C_33  and  O_34 
REMARK   16  A    between atoms: O_34  and  C_35 
ROOT
HETATM    1  C   UNK     0      14.979  -0.990  20.999  0.00  0.00     0.126 C 
HETATM    2  C   UNK     0      13.280  -1.778  22.669  0.00  0.00     0.130 C 
HETATM    3  N   UNK     0      12.645  -2.599  21.572  0.00  0.00    -0.320 N 
HETATM    4  C   UNK     0      13.158  -2.599  20.283  0.00  0.00     0.319 C 
HETATM    5  N   UNK     0      14.260  -1.837  20.028  0.00  0.00    -0.343 N 
HETATM    6  O   UNK     0      12.655  -3.254  19.385  0.00  0.00    -0.247 OA
HETATM    7  C   UNK     0      14.775  -1.475  22.439  0.00  0.00     0.040 C 
HETATM    8  H   UNK     0      14.563  -1.906  19.056  0.00  0.00     0.164 HD
ENDROOT
BRANCH   3   9
HETATM    9  C   UNK     0      11.428  -3.431  21.870  0.00  0.00     0.184 C 
BRANCH   9  10
HETATM   10  C   UNK     0      10.201  -2.496  22.051  0.00  0.00     0.241 C 
HETATM   11  N   UNK     0      10.014  -2.117  23.354  0.00  0.00    -0.354 N 
HETATM   12  H   UNK     0      10.705  -2.509  23.993  0.00  0.00     0.162 HD
HETATM   13  O   UNK     0       9.497  -2.157  21.099  0.00  0.00    -0.271 OA
BRANCH  11  14
HETATM   14  C   UNK     0       8.929  -1.229  23.826  0.00  0.00     0.091 C 
BRANCH  14  15
HETATM   15  C   UNK     0       8.309  -1.769  25.136  0.00  0.00     0.063 C 
BRANCH  15  16
HETATM   16  C   UNK     0       8.179  -3.258  25.287  0.00  0.00    -0.056 A 
HETATM   17  C   UNK     0       9.014  -3.962  26.198  0.00  0.00     0.007 A 
HETATM   18  C   UNK     0       8.900  -5.362  26.350  0.00  0.00     0.001 A 
HETATM   19  C   UNK     0       7.945  -6.077  25.589  0.00  0.00     0.000 A 
HETATM   20  C   UNK     0       7.110  -5.384  24.681  0.00  0.00     0.001 A 
HETATM   21  C   UNK     0       7.228  -3.982  24.532  0.00  0.00     0.007 A 
ENDBRANCH  15  16
ENDBRANCH  14  15
BRANCH  14  22
HETATM   22  C   UNK     0       9.456   0.187  24.148  0.00  0.00     0.059 C 
BRANCH  22  23
HETATM   23  C   UNK     0       9.562   1.239  23.029  0.00  0.00     0.143 C 
BRANCH  23  24
HETATM   24  C   UNK     0      10.981   1.756  22.680  0.00  0.00     0.117 C 
BRANCH  24  25
HETATM   25  N   UNK     0      10.942   2.330  21.314  0.00  0.00    -0.352 N 
HETATM   26  C   UNK     0      11.573   1.776  20.230  0.00  0.00     0.242 C 
HETATM   27  O   UNK     0      12.242   0.737  20.254  0.00  0.00    -0.271 OA
HETATM   28  H   UNK     0      10.432   3.187  21.100  0.00  0.00     0.163 HD
BRANCH  26  29
HETATM   29  C   UNK     0      11.408   2.570  18.920  0.00  0.00     0.278 C 
BRANCH  29  30
HETATM   30  O   UNK     0      12.641   3.186  18.507  0.00  0.00    -0.341 OA
BRANCH  30  31
HETATM   31  C   UNK     0      13.160   4.108  19.436  0.00  0.00     0.081 A 
HETATM   32  C   UNK     0      14.365   3.842  20.175  0.00  0.00    -0.028 A 
HETATM   33  C   UNK     0      14.840   4.813  21.097  0.00  0.00     0.009 A 
HETATM   34  C   UNK     0      15.152   2.563  20.006  0.00  0.00     0.051 C 
HETATM   35  C   UNK     0      14.147   6.026  21.293  0.00  0.00     0.001 A 
HETATM   36  C   UNK     0      12.967   6.297  20.571  0.00  0.00     0.009 A 
HETATM   37  C   UNK     0      12.464   5.353  19.644  0.00  0.00    -0.028 A 
HETATM   38  C   UNK     0      11.215   5.673  18.896  0.00  0.00     0.051 C 
ENDBRANCH  30  31
ENDBRANCH  29  30
ENDBRANCH  26  29
ENDBRANCH  24  25
BRANCH  24  39
HETATM   39  C   UNK     0      11.425   2.866  23.678  0.00  0.00     0.066 C 
BRANCH  39  40
HETATM   40  C   UNK     0      12.923   2.959  23.896  0.00  0.00    -0.056 A 
HETATM   41  C   UNK     0      13.475   4.100  24.528  0.00  0.00     0.007 A 
HETATM   42  C   UNK     0      14.872   4.212  24.738  0.00  0.00     0.001 A 
HETATM   43  C   UNK     0      15.732   3.179  24.318  0.00  0.00     0.000 A 
HETATM   44  C   UNK     0      15.193   2.037  23.688  0.00  0.00     0.001 A 
HETATM   45  C   UNK     0      13.799   1.925  23.478  0.00  0.00     0.007 A 
ENDBRANCH  39  40
ENDBRANCH  24  39
ENDBRANCH  23  24
BRANCH  23  46
HETATM   46  O   UNK     0       9.047   0.623  21.873  0.00  0.00    -0.393 OA
HETATM   47  H   UNK     0       9.773   0.145  21.488  0.00  0.00     0.210 HD
ENDBRANCH  23  46
ENDBRANCH  22  23
ENDBRANCH  14  22
ENDBRANCH  11  14
ENDBRANCH   9  10
BRANCH   9  48
HETATM   48  C   UNK     0      11.649  -4.377  23.116  0.00  0.00     0.010 C 
HETATM   49  C   UNK     0      10.652  -5.550  23.182  0.00  0.00     0.012 C 
HETATM   50  C   UNK     0      13.084  -4.953  23.121  0.00  0.00     0.012 C 
ENDBRANCH   9  48
ENDBRANCH   3   9
TORSDOF 16
ENDMDL
MODEL 2
REMARK VINA RESULT:      -6.3      2.402      5.076
REMARK  16 active torsions:
REMARK  status: ('A' for Active; 'I' for Inactive)
REMARK    1  A    between atoms: N_3  and  C_13 
REMARK    2  A    between atoms: C_6  and  C_37 
REMARK    3  A    between atoms: C_13  and  C_14 
REMARK    4  A    between atoms: C_13  and  C_17 
REMARK       I    between atoms: C_14  and  N_15 
REMARK    5  A    between atoms: N_15  and  C_16 
REMARK    6  A    between atoms: C_16  and  C_27 
REMARK    7  A    between atoms: C_16  and  C_28 
REMARK    8  A    between atoms: C_25  and  C_27 
REMARK    9  A    between atoms: C_28  and  C_29 
REMARK   10  A    between atoms: C_29  and  C_30 
REMARK   11  A    between atoms: C_29  and  O_36 
REMARK   12  A    between atoms: C_30  and  N_31 
REMARK   13  A    between atoms: C_30  and  C_37 
REMARK       I    between atoms: N_31  and  C_32 
REMARK   14  A    between atoms: C_32  and  C_33 
REMARK   15  A    between atoms: C_33  and  O_34 
REMARK   16  A    between atoms: O_34  and  C_35 
ROOT
HETATM    1  C   UNK     0      12.787   5.529  23.137  0.00  0.00     0.126 C 
HETATM    2  C   UNK     0      12.240   3.444  24.421  0.00  0.00     0.130 C 
HETATM    3  N   UNK     0      13.620   2.929  24.091  0.00  0.00    -0.320 N 
HETATM    4  C   UNK     0      14.507   3.680  23.331  0.00  0.00     0.319 C 
HETATM    5  N   UNK     0      14.101   4.904  22.890  0.00  0.00    -0.343 N 
HETATM    6  O   UNK     0      15.623   3.277  23.053  0.00  0.00    -0.247 OA
HETATM    7  C   UNK     0      12.125   4.983  24.408  0.00  0.00     0.040 C 
HETATM    8  H   UNK     0      14.821   5.379  22.345  0.00  0.00     0.164 HD
ENDROOT
BRANCH   3   9
HETATM    9  C   UNK     0      14.051   1.574  24.583  0.00  0.00     0.184 C 
BRANCH   9  10
HETATM   10  C   UNK     0      13.140   0.487  23.950  0.00  0.00     0.241 C 
HETATM   11  N   UNK     0      11.992   0.277  24.666  0.00  0.00    -0.354 N 
HETATM   12  H   UNK     0      11.920   0.864  25.498  0.00  0.00     0.162 HD
HETATM   13  O   UNK     0      13.454  -0.100  22.913  0.00  0.00    -0.271 OA
BRANCH  11  14
HETATM   14  C   UNK     0      10.936  -0.694  24.303  0.00  0.00     0.091 C 
BRANCH  14  15
HETATM   15  C   UNK     0      10.385  -1.400  25.564  0.00  0.00     0.063 C 
BRANCH  15  16
HETATM   16  C   UNK     0       9.820  -2.783  25.403  0.00  0.00    -0.056 A 
HETATM   17  C   UNK     0       8.500  -3.073  25.843  0.00  0.00     0.007 A 
HETATM   18  C   UNK     0       7.957  -4.370  25.697  0.00  0.00     0.001 A 
HETATM   19  C   UNK     0       8.733  -5.394  25.106  0.00  0.00     0.000 A 
HETATM   20  C   UNK     0      10.048  -5.114  24.664  0.00  0.00     0.001 A 
HETATM   21  C   UNK     0      10.588  -3.814  24.813  0.00  0.00     0.007 A 
ENDBRANCH  15  16
ENDBRANCH  14  15
BRANCH  14  22
HETATM   22  C   UNK     0       9.731   0.002  23.635  0.00  0.00     0.059 C 
BRANCH  22  23
HETATM   23  C   UNK     0       9.960   1.218  22.718  0.00  0.00     0.143 C 
BRANCH  23  24
HETATM   24  C   UNK     0      10.259   0.928  21.225  0.00  0.00     0.117 C 
BRANCH  24  25
HETATM   25  N   UNK     0      11.639   1.381  20.932  0.00  0.00    -0.352 N 
HETATM   26  C   UNK     0      11.992   2.094  19.815  0.00  0.00     0.242 C 
HETATM   27  O   UNK     0      11.212   2.448  18.924  0.00  0.00    -0.271 OA
HETATM   28  H   UNK     0      12.419   1.185  21.559  0.00  0.00     0.163 HD
BRANCH  26  29
HETATM   29  C   UNK     0      13.494   2.429  19.719  0.00  0.00     0.278 C 
BRANCH  29  30
HETATM   30  O   UNK     0      13.754   3.448  18.737  0.00  0.00    -0.341 OA
BRANCH  30  31
HETATM   31  C   UNK     0      14.403   4.587  19.252  0.00  0.00     0.081 A 
HETATM   32  C   UNK     0      15.817   4.597  19.518  0.00  0.00    -0.028 A 
HETATM   33  C   UNK     0      16.415   5.777  20.036  0.00  0.00     0.009 A 
HETATM   34  C   UNK     0      16.696   3.394  19.267  0.00  0.00     0.051 C 
HETATM   35  C   UNK     0      15.642   6.930  20.287  0.00  0.00     0.001 A 
HETATM   36  C   UNK     0      14.257   6.931  20.026  0.00  0.00     0.009 A 
HETATM   37  C   UNK     0      13.627   5.773  19.511  0.00  0.00    -0.028 A 
HETATM   38  C   UNK     0      12.161   5.809  19.244  0.00  0.00     0.051 C 
ENDBRANCH  30  31
ENDBRANCH  29  30
ENDBRANCH  26  29
ENDBRANCH  24  25
BRANCH  24  39
HETATM   39  C   UNK     0      10.158  -0.598  20.927  0.00  0.00     0.066 C 
BRANCH  39  40
HETATM   40  C   UNK     0      10.175  -0.959  19.455  0.00  0.00    -0.056 A 
HETATM   41  C   UNK     0       9.199  -0.417  18.583  0.00  0.00     0.007 A 
HETATM   42  C   UNK     0       9.192  -0.743  17.205  0.00  0.00     0.001 A 
HETATM   43  C   UNK     0      10.164  -1.617  16.682  0.00  0.00     0.000 A 
HETATM   44  C   UNK     0      11.143  -2.163  17.542  0.00  0.00     0.001 A 
HETATM   45  C   UNK     0      11.150  -1.837  18.918  0.00  0.00     0.007 A 
ENDBRANCH  39  40
ENDBRANCH  24  39
ENDBRANCH  23  24
BRANCH  23  46
HETATM   46  O   UNK     0       8.769   1.965  22.766  0.00  0.00    -0.393 OA
HETATM   47  H   UNK     0       8.077   1.340  22.950  0.00  0.00     0.210 HD
ENDBRANCH  23  46
ENDBRANCH  22  23
ENDBRANCH  14  22
ENDBRANCH  11  14
ENDBRANCH   9  10
BRANCH   9  48
HETATM   48  C   UNK     0      14.067   1.497  26.161  0.00  0.00     0.010 C 
HETATM   49  C   UNK     0      14.889   0.315  26.709  0.00  0.00     0.012 C 
HETATM   50  C   UNK     0      14.625   2.805  26.770  0.00  0.00     0.012 C 
ENDBRANCH   9  48
ENDBRANCH   3   9
TORSDOF 16
ENDMDL
MODEL 3
REMARK VINA RESULT:      -6.2      3.197      6.721
REMARK  16 active torsions:
REMARK  status: ('A' for Active; 'I' for Inactive)
REMARK    1  A    between atoms: N_3  and  C_13 
REMARK    2  A    between atoms: C_6  and  C_37 
REMARK    3  A    between atoms: C_13  and  C_14 
REMARK    4  A    between atoms: C_13  and  C_17 
REMARK       I    between atoms: C_14  and  N_15 
REMARK    5  A    between atoms: N_15  and  C_16 
REMARK    6  A    between atoms: C_16  and  C_27 
REMARK    7  A    between atoms: C_16  and  C_28 
REMARK    8  A    between atoms: C_25  and  C_27 
REMARK    9  A    between atoms: C_28  and  C_29 
REMARK   10  A    between atoms: C_29  and  C_30 
REMARK   11  A    between atoms: C_29  and  O_36 
REMARK   12  A    between atoms: C_30  and  N_31 
REMARK   13  A    between atoms: C_30  and  C_37 
REMARK       I    between atoms: N_31  and  C_32 
REMARK   14  A    between atoms: C_32  and  C_33 
REMARK   15  A    between atoms: C_33  and  O_34 
REMARK   16  A    between atoms: O_34  and  C_35 
ROOT
HETATM    1  C   UNK     0      10.812  -9.595  25.572  0.00  0.00     0.126 C 
HETATM    2  C   UNK     0      10.706  -7.193  26.291  0.00  0.00     0.130 C 
HETATM    3  N   UNK     0      10.172  -6.850  24.922  0.00  0.00    -0.320 N 
HETATM    4  C   UNK     0       9.980  -7.829  23.957  0.00  0.00     0.319 C 
HETATM    5  N   UNK     0      10.284  -9.119  24.278  0.00  0.00    -0.343 N 
HETATM    6  O   UNK     0       9.554  -7.568  22.845  0.00  0.00    -0.247 OA
HETATM    7  C   UNK     0      10.439  -8.651  26.721  0.00  0.00     0.040 C 
HETATM    8  H   UNK     0      10.107  -9.764  23.508  0.00  0.00     0.164 HD
ENDROOT
BRANCH   3   9
HETATM    9  C   UNK     0       9.845  -5.421  24.582  0.00  0.00     0.184 C 
BRANCH   9  10
HETATM   10  C   UNK     0      11.016  -4.809  23.766  0.00  0.00     0.241 C 
HETATM   11  N   UNK     0      10.695  -4.607  22.450  0.00  0.00    -0.354 N 
HETATM   12  H   UNK     0       9.744  -4.891  22.217  0.00  0.00     0.162 HD
HETATM   13  O   UNK     0      12.103  -4.549  24.286  0.00  0.00    -0.271 OA
BRANCH  11  14
HETATM   14  C   UNK     0      11.609  -4.036  21.437  0.00  0.00     0.091 C 
BRANCH  14  15
HETATM   15  C   UNK     0      11.097  -4.333  20.008  0.00  0.00     0.063 C 
BRANCH  15  16
HETATM   16  C   UNK     0      11.896  -5.281  19.159  0.00  0.00    -0.056 A 
HETATM   17  C   UNK     0      12.577  -4.808  18.005  0.00  0.00     0.007 A 
HETATM   18  C   UNK     0      13.332  -5.690  17.199  0.00  0.00     0.001 A 
HETATM   19  C   UNK     0      13.416  -7.059  17.541  0.00  0.00     0.000 A 
HETATM   20  C   UNK     0      12.741  -7.538  18.690  0.00  0.00     0.001 A 
HETATM   21  C   UNK     0      11.985  -6.652  19.494  0.00  0.00     0.007 A 
ENDBRANCH  15  16
ENDBRANCH  14  15
BRANCH  14  22
HETATM   22  C   UNK     0      11.695  -2.499  21.555  0.00  0.00     0.059 C 
BRANCH  22  23
HETATM   23  C   UNK     0      10.460  -1.693  21.996  0.00  0.00     0.143 C 
BRANCH  23  24
HETATM   24  C   UNK     0      10.345  -0.237  21.477  0.00  0.00     0.117 C 
BRANCH  24  25
HETATM   25  N   UNK     0      10.815   0.675  22.547  0.00  0.00    -0.352 N 
HETATM   26  C   UNK     0      10.286   1.917  22.784  0.00  0.00     0.242 C 
HETATM   27  O   UNK     0       9.357   2.426  22.147  0.00  0.00    -0.271 OA
HETATM   28  H   UNK     0      11.575   0.423  23.179  0.00  0.00     0.163 HD
BRANCH  26  29
HETATM   29  C   UNK     0      10.960   2.689  23.936  0.00  0.00     0.278 C 
BRANCH  29  30
HETATM   30  O   UNK     0      12.381   2.808  23.742  0.00  0.00    -0.341 OA
BRANCH  30  31
HETATM   31  C   UNK     0      13.079   3.251  24.882  0.00  0.00     0.081 A 
HETATM   32  C   UNK     0      13.102   4.638  25.264  0.00  0.00    -0.028 A 
HETATM   33  C   UNK     0      13.823   5.023  26.427  0.00  0.00     0.009 A 
HETATM   34  C   UNK     0      12.385   5.707  24.474  0.00  0.00     0.051 C 
HETATM   35  C   UNK     0      14.508   4.066  27.204  0.00  0.00     0.001 A 
HETATM   36  C   UNK     0      14.490   2.705  26.839  0.00  0.00     0.009 A 
HETATM   37  C   UNK     0      13.782   2.285  25.687  0.00  0.00    -0.028 A 
HETATM   38  C   UNK     0      13.781   0.837  25.331  0.00  0.00     0.051 C 
ENDBRANCH  30  31
ENDBRANCH  29  30
ENDBRANCH  26  29
ENDBRANCH  24  25
BRANCH  24  39
HETATM   39  C   UNK     0      11.232  -0.029  20.214  0.00  0.00     0.066 C 
BRANCH  39  40
HETATM   40  C   UNK     0      10.629  -0.552  18.924  0.00  0.00    -0.056 A 
HETATM   41  C   UNK     0      11.449  -1.218  17.981  0.00  0.00     0.007 A 
HETATM   42  C   UNK     0      10.910  -1.711  16.767  0.00  0.00     0.001 A 
HETATM   43  C   UNK     0       9.541  -1.542  16.484  0.00  0.00     0.000 A 
HETATM   44  C   UNK     0       8.714  -0.880  17.418  0.00  0.00     0.001 A 
HETATM   45  C   UNK     0       9.252  -0.388  18.629  0.00  0.00     0.007 A 
ENDBRANCH  39  40
ENDBRANCH  24  39
ENDBRANCH  23  24
BRANCH  23  46
HETATM   46  O   UNK     0       9.345  -2.398  21.506  0.00  0.00    -0.393 OA
HETATM   47  H   UNK     0       9.358  -2.281  20.562  0.00  0.00     0.210 HD
ENDBRANCH  23  46
ENDBRANCH  22  23
ENDBRANCH  14  22
ENDBRANCH  11  14
ENDBRANCH   9  10
BRANCH   9  48
HETATM   48  C   UNK     0       9.505  -4.572  25.870  0.00  0.00     0.010 C 
HETATM   49  C   UNK     0       9.530  -3.051  25.626  0.00  0.00     0.012 C 
HETATM   50  C   UNK     0       8.115  -4.954  26.430  0.00  0.00     0.012 C 
ENDBRANCH   9  48
ENDBRANCH   3   9
TORSDOF 16
ENDMDL
MODEL 4
REMARK VINA RESULT:      -6.1      2.404      6.744
REMARK  16 active torsions:
REMARK  status: ('A' for Active; 'I' for Inactive)
REMARK    1  A    between atoms: N_3  and  C_13 
REMARK    2  A    between atoms: C_6  and  C_37 
REMARK    3  A    between atoms: C_13  and  C_14 
REMARK    4  A    between atoms: C_13  and  C_17 
REMARK       I    between atoms: C_14  and  N_15 
REMARK    5  A    between atoms: N_15  and  C_16 
REMARK    6  A    between atoms: C_16  and  C_27 
REMARK    7  A    between atoms: C_16  and  C_28 
REMARK    8  A    between atoms: C_25  and  C_27 
REMARK    9  A    between atoms: C_28  and  C_29 
REMARK   10  A    between atoms: C_29  and  C_30 
REMARK   11  A    between atoms: C_29  and  O_36 
REMARK   12  A    between atoms: C_30  and  N_31 
REMARK   13  A    between atoms: C_30  and  C_37 
REMARK       I    between atoms: N_31  and  C_32 
REMARK   14  A    between atoms: C_32  and  C_33 
REMARK   15  A    between atoms: C_33  and  O_34 
REMARK   16  A    between atoms: O_34  and  C_35 
ROOT
HETATM    1  C   UNK     0      11.923  -2.675  15.765  0.00  0.00     0.126 C 
HETATM    2  C   UNK     0      12.820  -3.276  18.030  0.00  0.00     0.130 C 
HETATM    3  N   UNK     0      11.634  -2.570  18.641  0.00  0.00    -0.320 N 
HETATM    4  C   UNK     0      10.670  -1.962  17.849  0.00  0.00     0.319 C 
HETATM    5  N   UNK     0      10.819  -2.021  16.495  0.00  0.00    -0.343 N 
HETATM    6  O   UNK     0       9.709  -1.384  18.326  0.00  0.00    -0.247 OA
HETATM    7  C   UNK     0      12.574  -3.788  16.595  0.00  0.00     0.040 C 
HETATM    8  H   UNK     0      10.061  -1.550  16.000  0.00  0.00     0.164 HD
ENDROOT
BRANCH   3   9
HETATM    9  C   UNK     0      11.487  -2.511  20.137  0.00  0.00     0.184 C 
BRANCH   9  10
HETATM   10  C   UNK     0      12.129  -1.198  20.663  0.00  0.00     0.241 C 
HETATM   11  N   UNK     0      11.207  -0.327  21.177  0.00  0.00    -0.354 N 
HETATM   12  H   UNK     0      10.250  -0.677  21.131  0.00  0.00     0.162 HD
HETATM   13  O   UNK     0      13.344  -1.001  20.602  0.00  0.00    -0.271 OA
BRANCH  11  14
HETATM   14  C   UNK     0      11.526   0.999  21.751  0.00  0.00     0.091 C 
BRANCH  14  15
HETATM   15  C   UNK     0      10.797   2.121  20.975  0.00  0.00     0.063 C 
BRANCH  15  16
HETATM   16  C   UNK     0      11.628   3.240  20.415  0.00  0.00    -0.056 A 
HETATM   17  C   UNK     0      12.777   2.955  19.627  0.00  0.00     0.007 A 
HETATM   18  C   UNK     0      13.566   4.000  19.095  0.00  0.00     0.001 A 
HETATM   19  C   UNK     0      13.212   5.346  19.344  0.00  0.00     0.000 A 
HETATM   20  C   UNK     0      12.070   5.639  20.127  0.00  0.00     0.001 A 
HETATM   21  C   UNK     0      11.282   4.589  20.659  0.00  0.00     0.007 A 
ENDBRANCH  15  16
ENDBRANCH  14  15
BRANCH  14  22
HETATM   22  C   UNK     0      11.055   1.109  23.217  0.00  0.00     0.059 C 
BRANCH  22  23
HETATM   23  C   UNK     0      10.305  -0.065  23.872  0.00  0.00     0.143 C 
BRANCH  23  24
HETATM   24  C   UNK     0      11.122  -0.988  24.812  0.00  0.00     0.117 C 
BRANCH  24  25
HETATM   25  N   UNK     0      12.164  -0.170  25.474  0.00  0.00    -0.352 N 
HETATM   26  C   UNK     0      13.510  -0.312  25.251  0.00  0.00     0.242 C 
HETATM   27  O   UNK     0      14.017  -1.127  24.473  0.00  0.00    -0.271 OA
HETATM   28  H   UNK     0      11.933   0.561  26.148  0.00  0.00     0.163 HD
BRANCH  26  29
HETATM   29  C   UNK     0      14.399   0.638  26.078  0.00  0.00     0.278 C 
BRANCH  29  30
HETATM   30  O   UNK     0      15.328   1.360  25.249  0.00  0.00    -0.341 OA
BRANCH  30  31
HETATM   31  C   UNK     0      14.838   2.595  24.783  0.00  0.00     0.081 A 
HETATM   32  C   UNK     0      14.536   3.678  25.680  0.00  0.00    -0.028 A 
HETATM   33  C   UNK     0      14.046   4.901  25.149  0.00  0.00     0.009 A 
HETATM   34  C   UNK     0      14.722   3.565  27.175  0.00  0.00     0.051 C 
HETATM   35  C   UNK     0      13.856   5.063  23.760  0.00  0.00     0.001 A 
HETATM   36  C   UNK     0      14.152   4.009  22.872  0.00  0.00     0.009 A 
HETATM   37  C   UNK     0      14.641   2.776  23.367  0.00  0.00    -0.028 A 
HETATM   38  C   UNK     0      14.946   1.683  22.400  0.00  0.00     0.051 C 
ENDBRANCH  30  31
ENDBRANCH  29  30
ENDBRANCH  26  29
ENDBRANCH  24  25
BRANCH  24  39
HETATM   39  C   UNK     0      10.206  -1.615  25.904  0.00  0.00     0.066 C 
BRANCH  39  40
HETATM   40  C   UNK     0       9.479  -2.875  25.474  0.00  0.00    -0.056 A 
HETATM   41  C   UNK     0       8.078  -2.849  25.275  0.00  0.00     0.007 A 
HETATM   42  C   UNK     0       7.377  -4.015  24.879  0.00  0.00     0.001 A 
HETATM   43  C   UNK     0       8.073  -5.221  24.677  0.00  0.00     0.000 A 
HETATM   44  C   UNK     0       9.472  -5.259  24.871  0.00  0.00     0.001 A 
HETATM   45  C   UNK     0      10.171  -4.095  25.267  0.00  0.00     0.007 A 
ENDBRANCH  39  40
ENDBRANCH  24  39
ENDBRANCH  23  24
BRANCH  23  46
HETATM   46  O   UNK     0       9.283   0.516  24.646  0.00  0.00    -0.393 OA
HETATM   47  H   UNK     0       9.691   0.773  25.465  0.00  0.00     0.210 HD
ENDBRANCH  23  46
ENDBRANCH  22  23
ENDBRANCH  14  22
ENDBRANCH  11  14
ENDBRANCH   9  10
BRANCH   9  48
HETATM   48  C   UNK     0      12.086  -3.793  20.840  0.00  0.00     0.010 C 
HETATM   49  C   UNK     0      12.290  -3.623  22.358  0.00  0.00     0.012 C 
HETATM   50  C   UNK     0      11.180  -5.024  20.603  0.00  0.00     0.012 C 
ENDBRANCH   9  48
ENDBRANCH   3   9
TORSDOF 16
ENDMDL
MODEL 5
REMARK VINA RESULT:      -6.0      1.722      3.618
REMARK  16 active torsions:
REMARK  status: ('A' for Active; 'I' for Inactive)
REMARK    1  A    between atoms: N_3  and  C_13 
REMARK    2  A    between atoms: C_6  and  C_37 
REMARK    3  A    between atoms: C_13  and  C_14 
REMARK    4  A    between atoms: C_13  and  C_17 
REMARK       I    between atoms: C_14  and  N_15 
REMARK    5  A    between atoms: N_15  and  C_16 
REMARK    6  A    between atoms: C_16  and  C_27 
REMARK    7  A    between atoms: C_16  and  C_28 
REMARK    8  A    between atoms: C_25  and  C_27 
REMARK    9  A    between atoms: C_28  and  C_29 
REMARK   10  A    between atoms: C_29  and  C_30 
REMARK   11  A    between atoms: C_29  and  O_36 
REMARK   12  A    between atoms: C_30  and  N_31 
REMARK   13  A    between atoms: C_30  and  C_37 
REMARK       I    between atoms: N_31  and  C_32 
REMARK   14  A    between atoms: C_32  and  C_33 
REMARK   15  A    between atoms: C_33  and  O_34 
REMARK   16  A    between atoms: O_34  and  C_35 
ROOT
HETATM    1  C   UNK     0      15.062  -1.061  20.850  0.00  0.00     0.126 C 
HETATM    2  C   UNK     0      13.828  -2.591  22.410  0.00  0.00     0.130 C 
HETATM    3  N   UNK     0      12.779  -2.768  21.340  0.00  0.00    -0.320 N 
HETATM    4  C   UNK     0      12.883  -2.125  20.114  0.00  0.00     0.319 C 
HETATM    5  N   UNK     0      13.966  -1.325  19.897  0.00  0.00    -0.343 N 
HETATM    6  O   UNK     0      12.043  -2.255  19.241  0.00  0.00    -0.247 OA
HETATM    7  C   UNK     0      15.218  -2.198  21.867  0.00  0.00     0.040 C 
HETATM    8  H   UNK     0      13.955  -0.900  18.969  0.00  0.00     0.164 HD
ENDROOT
BRANCH   3   9
HETATM    9  C   UNK     0      11.589  -3.652  21.597  0.00  0.00     0.184 C 
BRANCH   9  10
HETATM   10  C   UNK     0      10.393  -2.776  22.060  0.00  0.00     0.241 C 
HETATM   11  N   UNK     0      10.623  -2.159  23.261  0.00  0.00    -0.354 N 
HETATM   12  H   UNK     0      11.538  -2.373  23.657  0.00  0.00     0.162 HD
HETATM   13  O   UNK     0       9.364  -2.676  21.390  0.00  0.00    -0.271 OA
BRANCH  11  14
HETATM   14  C   UNK     0       9.666  -1.263  23.946  0.00  0.00     0.091 C 
BRANCH  14  15
HETATM   15  C   UNK     0       9.274  -1.835  25.328  0.00  0.00     0.063 C 
BRANCH  15  16
HETATM   16  C   UNK     0       8.681  -3.215  25.373  0.00  0.00    -0.056 A 
HETATM   17  C   UNK     0       9.252  -4.213  26.209  0.00  0.00     0.007 A 
HETATM   18  C   UNK     0       8.704  -5.515  26.259  0.00  0.00     0.001 A 
HETATM   19  C   UNK     0       7.573  -5.833  25.472  0.00  0.00     0.000 A 
HETATM   20  C   UNK     0       6.998  -4.845  24.637  0.00  0.00     0.001 A 
HETATM   21  C   UNK     0       7.551  -3.543  24.589  0.00  0.00     0.007 A 
ENDBRANCH  15  16
ENDBRANCH  14  15
BRANCH  14  22
HETATM   22  C   UNK     0      10.284   0.127  24.213  0.00  0.00     0.059 C 
BRANCH  22  23
HETATM   23  C   UNK     0       9.648   1.382  23.588  0.00  0.00     0.143 C 
BRANCH  23  24
HETATM   24  C   UNK     0      10.347   1.981  22.340  0.00  0.00     0.117 C 
BRANCH  24  25
HETATM   25  N   UNK     0      11.416   2.896  22.803  0.00  0.00    -0.352 N 
HETATM   26  C   UNK     0      11.681   4.116  22.236  0.00  0.00     0.242 C 
HETATM   27  O   UNK     0      11.064   4.604  21.283  0.00  0.00    -0.271 OA
HETATM   28  H   UNK     0      12.028   2.663  23.585  0.00  0.00     0.163 HD
BRANCH  26  29
HETATM   29  C   UNK     0      12.860   4.875  22.876  0.00  0.00     0.278 C 
BRANCH  29  30
HETATM   30  O   UNK     0      14.129   4.307  22.501  0.00  0.00    -0.341 OA
BRANCH  30  31
HETATM   31  C   UNK     0      15.155   5.258  22.335  0.00  0.00     0.081 A 
HETATM   32  C   UNK     0      15.238   6.085  21.161  0.00  0.00    -0.028 A 
HETATM   33  C   UNK     0      16.296   7.027  21.052  0.00  0.00     0.009 A 
HETATM   34  C   UNK     0      14.239   5.989  20.032  0.00  0.00     0.051 C 
HETATM   35  C   UNK     0      17.255   7.161  22.078  0.00  0.00     0.001 A 
HETATM   36  C   UNK     0      17.180   6.358  23.234  0.00  0.00     0.009 A 
HETATM   37  C   UNK     0      16.140   5.408  23.376  0.00  0.00    -0.028 A 
HETATM   38  C   UNK     0      16.089   4.576  24.612  0.00  0.00     0.051 C 
ENDBRANCH  30  31
ENDBRANCH  29  30
ENDBRANCH  26  29
ENDBRANCH  24  25
BRANCH  24  39
HETATM   39  C   UNK     0      10.987   0.856  21.474  0.00  0.00     0.066 C 
BRANCH  39  40
HETATM   40  C   UNK     0      10.491   0.801  20.041  0.00  0.00    -0.056 A 
HETATM   41  C   UNK     0      11.191   1.495  19.025  0.00  0.00     0.007 A 
HETATM   42  C   UNK     0      10.744   1.462  17.681  0.00  0.00     0.001 A 
HETATM   43  C   UNK     0       9.591   0.731  17.339  0.00  0.00     0.000 A 
HETATM   44  C   UNK     0       8.886   0.033  18.345  0.00  0.00     0.001 A 
HETATM   45  C   UNK     0       9.331   0.067  19.686  0.00  0.00     0.007 A 
ENDBRANCH  39  40
ENDBRANCH  24  39
ENDBRANCH  23  24
BRANCH  23  46
HETATM   46  O   UNK     0       8.351   1.001  23.195  0.00  0.00    -0.393 OA
HETATM   47  H   UNK     0       8.428   0.709  22.293  0.00  0.00     0.210 HD
ENDBRANCH  23  46
ENDBRANCH  22  23
ENDBRANCH  14  22
ENDBRANCH  11  14
ENDBRANCH   9  10
BRANCH   9  48
HETATM   48  C   UNK     0      11.921  -4.804  22.626  0.00  0.00     0.010 C 
HETATM   49  C   UNK     0      10.675  -5.563  23.121  0.00  0.00     0.012 C 
HETATM   50  C   UNK     0      12.903  -5.826  22.009  0.00  0.00     0.012 C 
ENDBRANCH   9  48
ENDBRANCH   3   9
TORSDOF 16
ENDMDL
MODEL 6
REMARK VINA RESULT:      -6.0      2.962      7.585
REMARK  16 active torsions:
REMARK  status: ('A' for Active; 'I' for Inactive)
REMARK    1  A    between atoms: N_3  and  C_13 
REMARK    2  A    between atoms: C_6  and  C_37 
REMARK    3  A    between atoms: C_13  and  C_14 
REMARK    4  A    between atoms: C_13  and  C_17 
REMARK       I    between atoms: C_14  and  N_15 
REMARK    5  A    between atoms: N_15  and  C_16 
REMARK    6  A    between atoms: C_16  and  C_27 
REMARK    7  A    between atoms: C_16  and  C_28 
REMARK    8  A    between atoms: C_25  and  C_27 
REMARK    9  A    between atoms: C_28  and  C_29 
REMARK   10  A    between atoms: C_29  and  C_30 
REMARK   11  A    between atoms: C_29  and  O_36 
REMARK   12  A    between atoms: C_30  and  N_31 
REMARK   13  A    between atoms: C_30  and  C_37 
REMARK       I    between atoms: N_31  and  C_32 
REMARK   14  A    between atoms: C_32  and  C_33 
REMARK   15  A    between atoms: C_33  and  O_34 
REMARK   16  A    between atoms: O_34  and  C_35 
ROOT
HETATM    1  C   UNK     0      14.685   4.460  27.461  0.00  0.00     0.126 C 
HETATM    2  C   UNK     0      15.371   3.722  25.163  0.00  0.00     0.130 C 
HETATM    3  N   UNK     0      14.546   4.853  24.599  0.00  0.00    -0.320 N 
HETATM    4  C   UNK     0      13.843   5.716  25.429  0.00  0.00     0.319 C 
HETATM    5  N   UNK     0      13.920   5.520  26.776  0.00  0.00    -0.343 N 
HETATM    6  O   UNK     0      13.169   6.631  24.989  0.00  0.00    -0.247 OA
HETATM    7  C   UNK     0      15.858   3.961  26.608  0.00  0.00     0.040 C 
HETATM    8  H   UNK     0      13.375   6.204  27.300  0.00  0.00     0.164 HD
ENDROOT
BRANCH   3   9
HETATM    9  C   UNK     0      14.469   5.053  23.110  0.00  0.00     0.184 C 
BRANCH   9  10
HETATM   10  C   UNK     0      13.929   3.757  22.447  0.00  0.00     0.241 C 
HETATM   11  N   UNK     0      12.590   3.571  22.663  0.00  0.00    -0.354 N 
HETATM   12  H   UNK     0      12.164   4.309  23.224  0.00  0.00     0.162 HD
HETATM   13  O   UNK     0      14.662   3.003  21.804  0.00  0.00    -0.271 OA
BRANCH  11  14
HETATM   14  C   UNK     0      11.803   2.427  22.151  0.00  0.00     0.091 C 
BRANCH  14  15
HETATM   15  C   UNK     0      10.515   2.232  22.984  0.00  0.00     0.063 C 
BRANCH  15  16
HETATM   16  C   UNK     0      10.447   1.046  23.904  0.00  0.00    -0.056 A 
HETATM   17  C   UNK     0      11.641   0.466  24.414  0.00  0.00     0.007 A 
HETATM   18  C   UNK     0      11.589  -0.650  25.281  0.00  0.00     0.001 A 
HETATM   19  C   UNK     0      10.339  -1.199  25.648  0.00  0.00     0.000 A 
HETATM   20  C   UNK     0       9.146  -0.627  25.145  0.00  0.00     0.001 A 
HETATM   21  C   UNK     0       9.202   0.490  24.277  0.00  0.00     0.007 A 
ENDBRANCH  15  16
ENDBRANCH  14  15
BRANCH  14  22
HETATM   22  C   UNK     0      11.346   2.660  20.695  0.00  0.00     0.059 C 
BRANCH  22  23
HETATM   23  C   UNK     0      11.844   1.728  19.576  0.00  0.00     0.143 C 
BRANCH  23  24
HETATM   24  C   UNK     0      11.503   0.222  19.709  0.00  0.00     0.117 C 
BRANCH  24  25
HETATM   25  N   UNK     0      11.742  -0.425  18.397  0.00  0.00    -0.352 N 
HETATM   26  C   UNK     0      10.810  -1.179  17.732  0.00  0.00     0.242 C 
HETATM   27  O   UNK     0       9.664  -1.407  18.134  0.00  0.00    -0.271 OA
HETATM   28  H   UNK     0      12.632  -0.343  17.906  0.00  0.00     0.163 HD
BRANCH  26  29
HETATM   29  C   UNK     0      11.302  -1.770  16.396  0.00  0.00     0.278 C 
BRANCH  29  30
HETATM   30  O   UNK     0      11.550  -3.184  16.494  0.00  0.00    -0.341 OA
BRANCH  30  31
HETATM   31  C   UNK     0      12.817  -3.508  17.015  0.00  0.00     0.081 A 
HETATM   32  C   UNK     0      14.025  -3.274  16.271  0.00  0.00    -0.028 A 
HETATM   33  C   UNK     0      15.274  -3.621  16.852  0.00  0.00     0.009 A 
HETATM   34  C   UNK     0      14.018  -2.670  14.886  0.00  0.00     0.051 C 
HETATM   35  C   UNK     0      15.341  -4.185  18.144  0.00  0.00     0.001 A 
HETATM   36  C   UNK     0      14.163  -4.416  18.882  0.00  0.00     0.009 A 
HETATM   37  C   UNK     0      12.901  -4.083  18.334  0.00  0.00    -0.028 A 
HETATM   38  C   UNK     0      11.675  -4.338  19.144  0.00  0.00     0.051 C 
ENDBRANCH  30  31
ENDBRANCH  29  30
ENDBRANCH  26  29
ENDBRANCH  24  25
BRANCH  24  39
HETATM   39  C   UNK     0      12.410  -0.458  20.777  0.00  0.00     0.066 C 
BRANCH  39  40
HETATM   40  C   UNK     0      11.752  -1.591  21.539  0.00  0.00    -0.056 A 
HETATM   41  C   UNK     0      12.549  -2.522  22.249  0.00  0.00     0.007 A 
HETATM   42  C   UNK     0      11.956  -3.592  22.964  0.00  0.00     0.001 A 
HETATM   43  C   UNK     0      10.556  -3.740  22.978  0.00  0.00     0.000 A 
HETATM   44  C   UNK     0       9.751  -2.817  22.275  0.00  0.00     0.001 A 
HETATM   45  C   UNK     0      10.343  -1.750  21.560  0.00  0.00     0.007 A 
ENDBRANCH  39  40
ENDBRANCH  24  39
ENDBRANCH  23  24
BRANCH  23  46
HETATM   46  O   UNK     0      11.237   2.189  18.393  0.00  0.00    -0.393 OA
HETATM   47  H   UNK     0      11.469   3.108  18.323  0.00  0.00     0.210 HD
ENDBRANCH  23  46
ENDBRANCH  22  23
ENDBRANCH  14  22
ENDBRANCH  11  14
ENDBRANCH   9  10
BRANCH   9  48
HETATM   48  C   UNK     0      15.856   5.503  22.503  0.00  0.00     0.010 C 
HETATM   49  C   UNK     0      15.722   6.503  21.339  0.00  0.00     0.012 C 
HETATM   50  C   UNK     0      16.754   6.136  23.591  0.00  0.00     0.012 C 
ENDBRANCH   9  48
ENDBRANCH   3   9
TORSDOF 16
ENDMDL
MODEL 7
REMARK VINA RESULT:      -6.0      2.200      7.858
REMARK  16 active torsions:
REMARK  status: ('A' for Active; 'I' for Inactive)
REMARK    1  A    between atoms: N_3  and  C_13 
REMARK    2  A    between atoms: C_6  and  C_37 
REMARK    3  A    between atoms: C_13  and  C_14 
REMARK    4  A    between atoms: C_13  and  C_17 
REMARK       I    between atoms: C_14  and  N_15 
REMARK    5  A    between atoms: N_15  and  C_16 
REMARK    6  A    between atoms: C_16  and  C_27 
REMARK    7  A    between atoms: C_16  and  C_28 
REMARK    8  A    between atoms: C_25  and  C_27 
REMARK    9  A    between atoms: C_28  and  C_29 
REMARK   10  A    between atoms: C_29  and  C_30 
REMARK   11  A    between atoms: C_29  and  O_36 
REMARK   12  A    between atoms: C_30  and  N_31 
REMARK   13  A    between atoms: C_30  and  C_37 
REMARK       I    between atoms: N_31  and  C_32 
REMARK   14  A    between atoms: C_32  and  C_33 
REMARK   15  A    between atoms: C_33  and  O_34 
REMARK   16  A    between atoms: O_34  and  C_35 
ROOT
HETATM    1  C   UNK     0      12.584  -3.279  15.294  0.00  0.00     0.126 C 
HETATM    2  C   UNK     0      13.200  -3.647  17.698  0.00  0.00     0.130 C 
HETATM    3  N   UNK     0      11.980  -2.850  18.089  0.00  0.00    -0.320 N 
HETATM    4  C   UNK     0      11.133  -2.310  17.131  0.00  0.00     0.319 C 
HETATM    5  N   UNK     0      11.430  -2.522  15.817  0.00  0.00    -0.343 N 
HETATM    6  O   UNK     0      10.147  -1.660  17.430  0.00  0.00    -0.247 OA
HETATM    7  C   UNK     0      13.097  -4.309  16.307  0.00  0.00     0.040 C 
HETATM    8  H   UNK     0      10.749  -2.091  15.191  0.00  0.00     0.164 HD
ENDROOT
BRANCH   3   9
HETATM    9  C   UNK     0      11.670  -2.622  19.544  0.00  0.00     0.184 C 
BRANCH   9  10
HETATM   10  C   UNK     0      12.235  -1.241  19.977  0.00  0.00     0.241 C 
HETATM   11  N   UNK     0      11.254  -0.307  20.176  0.00  0.00    -0.354 N 
HETATM   12  H   UNK     0      10.314  -0.665  20.006  0.00  0.00     0.162 HD
HETATM   13  O   UNK     0      13.444  -1.049  20.113  0.00  0.00    -0.271 OA
BRANCH  11  14
HETATM   14  C   UNK     0      11.493   1.092  20.594  0.00  0.00     0.091 C 
BRANCH  14  15
HETATM   15  C   UNK     0      11.771   1.990  19.366  0.00  0.00     0.063 C 
BRANCH  15  16
HETATM   16  C   UNK     0      12.315   3.368  19.614  0.00  0.00    -0.056 A 
HETATM   17  C   UNK     0      11.512   4.513  19.355  0.00  0.00     0.007 A 
HETATM   18  C   UNK     0      12.013   5.815  19.585  0.00  0.00     0.001 A 
HETATM   19  C   UNK     0      13.327   5.986  20.080  0.00  0.00     0.000 A 
HETATM   20  C   UNK     0      14.132   4.851  20.342  0.00  0.00     0.001 A 
HETATM   21  C   UNK     0      13.627   3.550  20.110  0.00  0.00     0.007 A 
ENDBRANCH  15  16
ENDBRANCH  14  15
BRANCH  14  22
HETATM   22  C   UNK     0      10.256   1.691  21.298  0.00  0.00     0.059 C 
BRANCH  22  23
HETATM   23  C   UNK     0       9.771   1.097  22.633  0.00  0.00     0.143 C 
BRANCH  23  24
HETATM   24  C   UNK     0      10.811   0.994  23.779  0.00  0.00     0.117 C 
BRANCH  24  25
HETATM   25  N   UNK     0      10.963  -0.435  24.139  0.00  0.00    -0.352 N 
HETATM   26  C   UNK     0      10.201  -1.074  25.082  0.00  0.00     0.242 C 
HETATM   27  O   UNK     0       9.297  -0.547  25.740  0.00  0.00    -0.271 OA
HETATM   28  H   UNK     0      11.659  -1.034  23.696  0.00  0.00     0.163 HD
BRANCH  26  29
HETATM   29  C   UNK     0      10.565  -2.556  25.300  0.00  0.00     0.278 C 
BRANCH  29  30
HETATM   30  O   UNK     0      10.120  -3.384  24.210  0.00  0.00    -0.341 OA
BRANCH  30  31
HETATM   31  C   UNK     0       9.444  -4.550  24.616  0.00  0.00     0.081 A 
HETATM   32  C   UNK     0       8.066  -4.522  25.028  0.00  0.00    -0.028 A 
HETATM   33  C   UNK     0       7.437  -5.733  25.425  0.00  0.00     0.009 A 
HETATM   34  C   UNK     0       7.256  -3.247  25.055  0.00  0.00     0.051 C 
HETATM   35  C   UNK     0       8.145  -6.953  25.417  0.00  0.00     0.001 A 
HETATM   36  C   UNK     0       9.495  -6.991  25.012  0.00  0.00     0.009 A 
HETATM   37  C   UNK     0      10.153  -5.804  24.611  0.00  0.00    -0.028 A 
HETATM   38  C   UNK     0      11.580  -5.881  24.186  0.00  0.00     0.051 C 
ENDBRANCH  30  31
ENDBRANCH  29  30
ENDBRANCH  26  29
ENDBRANCH  24  25
BRANCH  24  39
HETATM   39  C   UNK     0      12.193   1.548  23.321  0.00  0.00     0.066 C 
BRANCH  39  40
HETATM   40  C   UNK     0      12.531   2.927  23.853  0.00  0.00    -0.056 A 
HETATM   41  C   UNK     0      13.442   3.065  24.928  0.00  0.00     0.007 A 
HETATM   42  C   UNK     0      13.769   4.343  25.445  0.00  0.00     0.001 A 
HETATM   43  C   UNK     0      13.187   5.498  24.890  0.00  0.00     0.000 A 
HETATM   44  C   UNK     0      12.277   5.373  23.817  0.00  0.00     0.001 A 
HETATM   45  C   UNK     0      11.950   4.097  23.301  0.00  0.00     0.007 A 
ENDBRANCH  39  40
ENDBRANCH  24  39
ENDBRANCH  23  24
BRANCH  23  46
HETATM   46  O   UNK     0       8.742   1.946  23.081  0.00  0.00    -0.393 OA
HETATM   47  H   UNK     0       7.969   1.702  22.584  0.00  0.00     0.210 HD
ENDBRANCH  23  46
ENDBRANCH  22  23
ENDBRANCH  14  22
ENDBRANCH  11  14
ENDBRANCH   9  10
BRANCH   9  48
HETATM   48  C   UNK     0      12.204  -3.799  20.453  0.00  0.00     0.010 C 
HETATM   49  C   UNK     0      12.616  -3.344  21.866  0.00  0.00     0.012 C 
HETATM   50  C   UNK     0      11.142  -4.915  20.588  0.00  0.00     0.012 C 
ENDBRANCH   9  48
ENDBRANCH   3   9
TORSDOF 16
ENDMDL
MODEL 8
REMARK VINA RESULT:      -6.0      2.874      5.590
REMARK  16 active torsions:
REMARK  status: ('A' for Active; 'I' for Inactive)
REMARK    1  A    between atoms: N_3  and  C_13 
REMARK    2  A    between atoms: C_6  and  C_37 
REMARK    3  A    between atoms: C_13  and  C_14 
REMARK    4  A    between atoms: C_13  and  C_17 
REMARK       I    between atoms: C_14  and  N_15 
REMARK    5  A    between atoms: N_15  and  C_16 
REMARK    6  A    between atoms: C_16  and  C_27 
REMARK    7  A    between atoms: C_16  and  C_28 
REMARK    8  A    between atoms: C_25  and  C_27 
REMARK    9  A    between atoms: C_28  and  C_29 
REMARK   10  A    between atoms: C_29  and  C_30 
REMARK   11  A    between atoms: C_29  and  O_36 
REMARK   12  A    between atoms: C_30  and  N_31 
REMARK   13  A    between atoms: C_30  and  C_37 
REMARK       I    between atoms: N_31  and  C_32 
REMARK   14  A    between atoms: C_32  and  C_33 
REMARK   15  A    between atoms: C_33  and  O_34 
REMARK   16  A    between atoms: O_34  and  C_35 
ROOT
HETATM    1  C   UNK     0      18.281   2.350  25.248  0.00  0.00     0.126 C 
HETATM    2  C   UNK     0      16.445   3.144  23.733  0.00  0.00     0.130 C 
HETATM    3  N   UNK     0      15.452   2.750  24.799  0.00  0.00    -0.320 N 
HETATM    4  C   UNK     0      15.867   2.194  26.001  0.00  0.00     0.319 C 
HETATM    5  N   UNK     0      17.204   2.013  26.199  0.00  0.00    -0.343 N 
HETATM    6  O   UNK     0      15.078   1.867  26.870  0.00  0.00    -0.247 OA
HETATM    7  C   UNK     0      17.856   3.456  24.275  0.00  0.00     0.040 C 
HETATM    8  H   UNK     0      17.410   1.602  27.110  0.00  0.00     0.164 HD
ENDROOT
BRANCH   3   9
HETATM    9  C   UNK     0      13.980   2.953  24.563  0.00  0.00     0.184 C 
BRANCH   9  10
HETATM   10  C   UNK     0      13.386   1.674  23.912  0.00  0.00     0.241 C 
HETATM   11  N   UNK     0      12.315   1.177  24.605  0.00  0.00    -0.354 N 
HETATM   12  H   UNK     0      12.081   1.722  25.435  0.00  0.00     0.162 HD
HETATM   13  O   UNK     0      13.859   1.191  22.882  0.00  0.00    -0.271 OA
BRANCH  11  14
HETATM   14  C   UNK     0      11.547  -0.028  24.221  0.00  0.00     0.091 C 
BRANCH  14  15
HETATM   15  C   UNK     0      11.297  -0.933  25.450  0.00  0.00     0.063 C 
BRANCH  15  16
HETATM   16  C   UNK     0      10.680  -2.282  25.215  0.00  0.00    -0.056 A 
HETATM   17  C   UNK     0      11.297  -3.207  24.328  0.00  0.00     0.007 A 
HETATM   18  C   UNK     0      10.726  -4.479  24.099  0.00  0.00     0.001 A 
HETATM   19  C   UNK     0       9.528  -4.842  24.757  0.00  0.00     0.000 A 
HETATM   20  C   UNK     0       8.908  -3.928  25.642  0.00  0.00     0.001 A 
HETATM   21  C   UNK     0       9.483  -2.654  25.868  0.00  0.00     0.007 A 
ENDBRANCH  15  16
ENDBRANCH  14  15
BRANCH  14  22
HETATM   22  C   UNK     0      10.155   0.341  23.664  0.00  0.00     0.059 C 
BRANCH  22  23
HETATM   23  C   UNK     0      10.018   1.480  22.638  0.00  0.00     0.143 C 
BRANCH  23  24
HETATM   24  C   UNK     0      10.242   1.117  21.147  0.00  0.00     0.117 C 
BRANCH  24  25
HETATM   25  N   UNK     0      11.658   1.396  20.810  0.00  0.00    -0.352 N 
HETATM   26  C   UNK     0      12.060   2.096  19.702  0.00  0.00     0.242 C 
HETATM   27  O   UNK     0      11.301   2.582  18.857  0.00  0.00    -0.271 OA
HETATM   28  H   UNK     0      12.428   1.075  21.397  0.00  0.00     0.163 HD
BRANCH  26  29
HETATM   29  C   UNK     0      13.588   2.234  19.553  0.00  0.00     0.278 C 
BRANCH  29  30
HETATM   30  O   UNK     0      14.085   3.420  20.200  0.00  0.00    -0.341 OA
BRANCH  30  31
HETATM   31  C   UNK     0      14.859   4.246  19.363  0.00  0.00     0.081 A 
HETATM   32  C   UNK     0      16.254   3.988  19.125  0.00  0.00    -0.028 A 
HETATM   33  C   UNK     0      16.982   4.858  18.268  0.00  0.00     0.009 A 
HETATM   34  C   UNK     0      16.979   2.822  19.752  0.00  0.00     0.051 C 
HETATM   35  C   UNK     0      16.354   5.961  17.652  0.00  0.00     0.001 A 
HETATM   36  C   UNK     0      14.987   6.220  17.877  0.00  0.00     0.009 A 
HETATM   37  C   UNK     0      14.231   5.375  18.725  0.00  0.00    -0.028 A 
HETATM   38  C   UNK     0      12.786   5.677  18.940  0.00  0.00     0.051 C 
ENDBRANCH  30  31
ENDBRANCH  29  30
ENDBRANCH  26  29
ENDBRANCH  24  25
BRANCH  24  39
HETATM   39  C   UNK     0       9.954  -0.393  20.897  0.00  0.00     0.066 C 
BRANCH  39  40
HETATM   40  C   UNK     0      10.013  -0.817  19.443  0.00  0.00    -0.056 A 
HETATM   41  C   UNK     0      10.988  -1.753  19.019  0.00  0.00     0.007 A 
HETATM   42  C   UNK     0      11.065  -2.160  17.664  0.00  0.00     0.001 A 
HETATM   43  C   UNK     0      10.166  -1.635  16.717  0.00  0.00     0.000 A 
HETATM   44  C   UNK     0       9.189  -0.701  17.129  0.00  0.00     0.001 A 
HETATM   45  C   UNK     0       9.111  -0.294  18.481  0.00  0.00     0.007 A 
ENDBRANCH  39  40
ENDBRANCH  24  39
ENDBRANCH  23  24
BRANCH  23  46
HETATM   46  O   UNK     0       8.696   1.948  22.757  0.00  0.00    -0.393 OA
HETATM   47  H   UNK     0       8.765   2.868  22.984  0.00  0.00     0.210 HD
ENDBRANCH  23  46
ENDBRANCH  22  23
ENDBRANCH  14  22
ENDBRANCH  11  14
ENDBRANCH   9  10
BRANCH   9  48
HETATM   48  C   UNK     0      13.693   4.249  23.706  0.00  0.00     0.010 C 
HETATM   49  C   UNK     0      12.309   4.245  23.030  0.00  0.00     0.012 C 
HETATM   50  C   UNK     0      13.807   5.521  24.578  0.00  0.00     0.012 C 
ENDBRANCH   9  48
ENDBRANCH   3   9
TORSDOF 16
ENDMDL
MODEL 9
REMARK VINA RESULT:      -5.9      2.591      5.498
REMARK  16 active torsions:
REMARK  status: ('A' for Active; 'I' for Inactive)
REMARK    1  A    between atoms: N_3  and  C_13 
REMARK    2  A    between atoms: C_6  and  C_37 
REMARK    3  A    between atoms: C_13  and  C_14 
REMARK    4  A    between atoms: C_13  and  C_17 
REMARK       I    between atoms: C_14  and  N_15 
REMARK    5  A    between atoms: N_15  and  C_16 
REMARK    6  A    between atoms: C_16  and  C_27 
REMARK    7  A    between atoms: C_16  and  C_28 
REMARK    8  A    between atoms: C_25  and  C_27 
REMARK    9  A    between atoms: C_28  and  C_29 
REMARK   10  A    between atoms: C_29  and  C_30 
REMARK   11  A    between atoms: C_29  and  O_36 
REMARK   12  A    between atoms: C_30  and  N_31 
REMARK   13  A    between atoms: C_30  and  C_37 
REMARK       I    between atoms: N_31  and  C_32 
REMARK   14  A    between atoms: C_32  and  C_33 
REMARK   15  A    between atoms: C_33  and  O_34 
REMARK   16  A    between atoms: O_34  and  C_35 
ROOT
HETATM    1  C   UNK     0       7.710  -6.060  26.408  0.00  0.00     0.126 C 
HETATM    2  C   UNK     0       8.446  -5.477  24.081  0.00  0.00     0.130 C 
HETATM    3  N   UNK     0       9.863  -5.791  24.496  0.00  0.00    -0.320 N 
HETATM    4  C   UNK     0      10.161  -6.208  25.786  0.00  0.00     0.319 C 
HETATM    5  N   UNK     0       9.136  -6.332  26.676  0.00  0.00    -0.343 N 
HETATM    6  O   UNK     0      11.301  -6.462  26.137  0.00  0.00    -0.247 OA
HETATM    7  C   UNK     0       7.372  -6.202  24.919  0.00  0.00     0.040 C 
HETATM    8  H   UNK     0       9.453  -6.646  27.593  0.00  0.00     0.164 HD
ENDROOT
BRANCH   3   9
HETATM    9  C   UNK     0      10.984  -5.646  23.502  0.00  0.00     0.184 C 
BRANCH   9  10
HETATM   10  C   UNK     0      10.853  -4.276  22.782  0.00  0.00     0.241 C 
HETATM   11  N   UNK     0      10.945  -3.215  23.643  0.00  0.00    -0.354 N 
HETATM   12  H   UNK     0      11.081  -3.493  24.615  0.00  0.00     0.162 HD
HETATM   13  O   UNK     0      10.685  -4.196  21.564  0.00  0.00    -0.271 OA
BRANCH  11  14
HETATM   14  C   UNK     0      10.859  -1.793  23.243  0.00  0.00     0.091 C 
BRANCH  14  15
HETATM   15  C   UNK     0      10.710  -0.883  24.484  0.00  0.00     0.063 C 
BRANCH  15  16
HETATM   16  C   UNK     0       9.371  -0.247  24.730  0.00  0.00    -0.056 A 
HETATM   17  C   UNK     0       9.060   1.014  24.151  0.00  0.00     0.007 A 
HETATM   18  C   UNK     0       7.804   1.622  24.375  0.00  0.00     0.001 A 
HETATM   19  C   UNK     0       6.842   0.973  25.183  0.00  0.00     0.000 A 
HETATM   20  C   UNK     0       7.143  -0.283  25.763  0.00  0.00     0.001 A 
HETATM   21  C   UNK     0       8.403  -0.888  25.536  0.00  0.00     0.007 A 
ENDBRANCH  15  16
ENDBRANCH  14  15
BRANCH  14  22
HETATM   22  C   UNK     0      12.143  -1.331  22.519  0.00  0.00     0.059 C 
BRANCH  22  23
HETATM   23  C   UNK     0      12.064  -0.827  21.067  0.00  0.00     0.143 C 
BRANCH  23  24
HETATM   24  C   UNK     0      11.391   0.550  20.833  0.00  0.00     0.117 C 
BRANCH  24  25
HETATM   25  N   UNK     0      12.105   1.560  21.649  0.00  0.00    -0.352 N 
HETATM   26  C   UNK     0      11.550   2.741  22.068  0.00  0.00     0.242 C 
HETATM   27  O   UNK     0      10.395   3.107  21.825  0.00  0.00    -0.271 OA
HETATM   28  H   UNK     0      13.071   1.428  21.951  0.00  0.00     0.163 HD
BRANCH  26  29
HETATM   29  C   UNK     0      12.500   3.640  22.883  0.00  0.00     0.278 C 
BRANCH  29  30
HETATM   30  O   UNK     0      12.329   5.033  22.562  0.00  0.00    -0.341 OA
BRANCH  30  31
HETATM   31  C   UNK     0      13.394   5.585  21.825  0.00  0.00     0.081 A 
HETATM   32  C   UNK     0      14.704   5.752  22.396  0.00  0.00    -0.028 A 
HETATM   33  C   UNK     0      15.738   6.315  21.601  0.00  0.00     0.009 A 
HETATM   34  C   UNK     0      15.023   5.351  23.817  0.00  0.00     0.051 C 
HETATM   35  C   UNK     0      15.496   6.705  20.267  0.00  0.00     0.001 A 
HETATM   36  C   UNK     0      14.217   6.542  19.698  0.00  0.00     0.009 A 
HETATM   37  C   UNK     0      13.162   5.986  20.460  0.00  0.00    -0.028 A 
HETATM   38  C   UNK     0      11.822   5.826  19.826  0.00  0.00     0.051 C 
ENDBRANCH  30  31
ENDBRANCH  29  30
ENDBRANCH  26  29
ENDBRANCH  24  25
BRANCH  24  39
HETATM   39  C   UNK     0      11.480   0.961  19.334  0.00  0.00     0.066 C 
BRANCH  39  40
HETATM   40  C   UNK     0      10.701   0.071  18.385  0.00  0.00    -0.056 A 
HETATM   41  C   UNK     0      11.391  -0.797  17.504  0.00  0.00     0.007 A 
HETATM   42  C   UNK     0      10.684  -1.634  16.605  0.00  0.00     0.001 A 
HETATM   43  C   UNK     0       9.277  -1.612  16.580  0.00  0.00     0.000 A 
HETATM   44  C   UNK     0       8.578  -0.751  17.455  0.00  0.00     0.001 A 
HETATM   45  C   UNK     0       9.284   0.085  18.352  0.00  0.00     0.007 A 
ENDBRANCH  39  40
ENDBRANCH  24  39
ENDBRANCH  23  24
BRANCH  23  46
HETATM   46  O   UNK     0      13.396  -0.719  20.625  0.00  0.00    -0.393 OA
HETATM   47  H   UNK     0      13.796  -0.047  21.166  0.00  0.00     0.210 HD
ENDBRANCH  23  46
ENDBRANCH  22  23
ENDBRANCH  14  22
ENDBRANCH  11  14
ENDBRANCH   9  10
BRANCH   9  48
HETATM   48  C   UNK     0      11.031  -6.854  22.485  0.00  0.00     0.010 C 
HETATM   49  C   UNK     0      12.448  -7.163  21.965  0.00  0.00     0.012 C 
HETATM   50  C   UNK     0      10.455  -8.137  23.128  0.00  0.00     0.012 C 
ENDBRANCH   9  48
ENDBRANCH   3   9
TORSDOF 16
ENDMDL
MODEL 10
REMARK VINA RESULT:      -5.9      2.800      7.291
REMARK  16 active torsions:
REMARK  status: ('A' for Active; 'I' for Inactive)
REMARK    1  A    between atoms: N_3  and  C_13 
REMARK    2  A    between atoms: C_6  and  C_37 
REMARK    3  A    between atoms: C_13  and  C_14 
REMARK    4  A    between atoms: C_13  and  C_17 
REMARK       I    between atoms: C_14  and  N_15 
REMARK    5  A    between atoms: N_15  and  C_16 
REMARK    6  A    between atoms: C_16  and  C_27 
REMARK    7  A    between atoms: C_16  and  C_28 
REMARK    8  A    between atoms: C_25  and  C_27 
REMARK    9  A    between atoms: C_28  and  C_29 
REMARK   10  A    between atoms: C_29  and  C_30 
REMARK   11  A    between atoms: C_29  and  O_36 
REMARK   12  A    between atoms: C_30  and  N_31 
REMARK   13  A    between atoms: C_30  and  C_37 
REMARK       I    between atoms: N_31  and  C_32 
REMARK   14  A    between atoms: C_32  and  C_33 
REMARK   15  A    between atoms: C_33  and  O_34 
REMARK   16  A    between atoms: O_34  and  C_35 
ROOT
HETATM    1  C   UNK     0      16.011   4.944  17.501  0.00  0.00     0.126 C 
HETATM    2  C   UNK     0      13.965   5.200  18.931  0.00  0.00     0.130 C 
HETATM    3  N   UNK     0      14.507   4.114  19.829  0.00  0.00    -0.320 N 
HETATM    4  C   UNK     0      15.721   3.497  19.560  0.00  0.00     0.319 C 
HETATM    5  N   UNK     0      16.420   3.899  18.461  0.00  0.00    -0.343 N 
HETATM    6  O   UNK     0      16.171   2.616  20.273  0.00  0.00    -0.247 OA
HETATM    7  C   UNK     0      15.050   5.956  18.136  0.00  0.00     0.040 C 
HETATM    8  H   UNK     0      17.297   3.391  18.350  0.00  0.00     0.164 HD
ENDROOT
BRANCH   3   9
HETATM    9  C   UNK     0      13.722   3.679  21.036  0.00  0.00     0.184 C 
BRANCH   9  10
HETATM   10  C   UNK     0      12.623   2.674  20.596  0.00  0.00     0.241 C 
HETATM   11  N   UNK     0      12.780   1.438  21.164  0.00  0.00    -0.354 N 
HETATM   12  H   UNK     0      13.589   1.375  21.780  0.00  0.00     0.162 HD
HETATM   13  O   UNK     0      11.725   2.995  19.816  0.00  0.00    -0.271 OA
BRANCH  11  14
HETATM   14  C   UNK     0      11.884   0.283  20.931  0.00  0.00     0.091 C 
BRANCH  14  15
HETATM   15  C   UNK     0      12.286  -0.470  19.642  0.00  0.00     0.063 C 
BRANCH  15  16
HETATM   16  C   UNK     0      11.260  -0.587  18.550  0.00  0.00    -0.056 A 
HETATM   17  C   UNK     0      11.303  -1.679  17.641  0.00  0.00     0.007 A 
HETATM   18  C   UNK     0      10.343  -1.800  16.610  0.00  0.00     0.001 A 
HETATM   19  C   UNK     0       9.327  -0.826  16.477  0.00  0.00     0.000 A 
HETATM   20  C   UNK     0       9.277   0.265  17.378  0.00  0.00     0.001 A 
HETATM   21  C   UNK     0      10.240   0.382  18.409  0.00  0.00     0.007 A 
ENDBRANCH  15  16
ENDBRANCH  14  15
BRANCH  14  22
HETATM   22  C   UNK     0      11.977  -0.745  22.080  0.00  0.00     0.059 C 
BRANCH  22  23
HETATM   23  C   UNK     0      11.152  -0.538  23.363  0.00  0.00     0.143 C 
BRANCH  23  24
HETATM   24  C   UNK     0      11.836  -0.896  24.707  0.00  0.00     0.117 C 
BRANCH  24  25
HETATM   25  N   UNK     0      12.705   0.238  25.101  0.00  0.00    -0.352 N 
HETATM   26  C   UNK     0      14.043   0.122  25.375  0.00  0.00     0.242 C 
HETATM   27  O   UNK     0      14.688  -0.931  25.323  0.00  0.00    -0.271 OA
HETATM   28  H   UNK     0      12.347   1.189  25.192  0.00  0.00     0.163 HD
BRANCH  26  29
HETATM   29  C   UNK     0      14.728   1.439  25.789  0.00  0.00     0.278 C 
BRANCH  29  30
HETATM   30  O   UNK     0      14.489   2.491  24.835  0.00  0.00    -0.341 OA
BRANCH  30  31
HETATM   31  C   UNK     0      15.214   3.670  25.090  0.00  0.00     0.081 A 
HETATM   32  C   UNK     0      14.682   4.724  25.912  0.00  0.00    -0.028 A 
HETATM   33  C   UNK     0      15.463   5.890  26.134  0.00  0.00     0.009 A 
HETATM   34  C   UNK     0      13.317   4.639  26.552  0.00  0.00     0.051 C 
HETATM   35  C   UNK     0      16.747   6.021  25.563  0.00  0.00     0.001 A 
HETATM   36  C   UNK     0      17.278   4.993  24.759  0.00  0.00     0.009 A 
HETATM   37  C   UNK     0      16.527   3.817  24.516  0.00  0.00    -0.028 A 
HETATM   38  C   UNK     0      17.121   2.748  23.663  0.00  0.00     0.051 C 
ENDBRANCH  30  31
ENDBRANCH  29  30
ENDBRANCH  26  29
ENDBRANCH  24  25
BRANCH  24  39
HETATM   39  C   UNK     0      10.775  -1.127  25.823  0.00  0.00     0.066 C 
BRANCH  39  40
HETATM   40  C   UNK     0       9.794  -2.249  25.542  0.00  0.00    -0.056 A 
HETATM   41  C   UNK     0       8.401  -2.000  25.597  0.00  0.00     0.007 A 
HETATM   42  C   UNK     0       7.466  -3.033  25.344  0.00  0.00     0.001 A 
HETATM   43  C   UNK     0       7.916  -4.329  25.029  0.00  0.00     0.000 A 
HETATM   44  C   UNK     0       9.303  -4.590  24.970  0.00  0.00     0.001 A 
HETATM   45  C   UNK     0      10.236  -3.558  25.224  0.00  0.00     0.007 A 
ENDBRANCH  39  40
ENDBRANCH  24  39
ENDBRANCH  23  24
BRANCH  23  46
HETATM   46  O   UNK     0      10.845   0.835  23.405  0.00  0.00    -0.393 OA
HETATM   47  H   UNK     0      11.634   1.268  23.710  0.00  0.00     0.210 HD
ENDBRANCH  23  46
ENDBRANCH  22  23
ENDBRANCH  14  22
ENDBRANCH  11  14
ENDBRANCH   9  10
BRANCH   9  48
HETATM   48  C   UNK     0      13.125   4.910  21.827  0.00  0.00     0.010 C 
HETATM   49  C   UNK     0      12.200   4.503  22.989  0.00  0.00     0.012 C 
HETATM   50  C   UNK     0      14.255   5.803  22.390  0.00  0.00     0.012 C 
ENDBRANCH   9  48
ENDBRANCH   3   9
TORSDOF 16
ENDMDL
