MODEL 1
REMARK VINA RESULT:      -8.8      0.000      0.000
REMARK  10 active torsions:
REMARK  status: ('A' for Active; 'I' for Inactive)
REMARK    1  A    between atoms: O_2  and  C_15 
REMARK    2  A    between atoms: O_2  and  C_18 
REMARK    3  A    between atoms: O_3  and  C_12 
REMARK    4  A    between atoms: O_4  and  C_13 
REMARK    5  A    between atoms: O_5  and  C_14 
REMARK    6  A    between atoms: O_6  and  C_17 
REMARK    7  A    between atoms: O_9  and  C_20 
REMARK    8  A    between atoms: O_10  and  C_23 
REMARK    9  A    between atoms: C_16  and  C_17 
REMARK   10  A    between atoms: C_25  and  C_27 
ROOT
HETATM    1  O   UNK     0      11.448  -1.180  19.207  0.00  0.00    -0.340 OA
HETATM    2  C   UNK     0       9.657  -0.969  16.970  0.00  0.00     0.183 C 
HETATM    3  C   UNK     0       9.654   0.039  18.120  0.00  0.00     0.205 C 
HETATM    4  C   UNK     0      10.993  -1.706  16.878  0.00  0.00     0.189 C 
HETATM    5  C   UNK     0      10.164  -0.596  19.414  0.00  0.00     0.299 C 
HETATM    6  C   UNK     0      11.418  -2.228  18.245  0.00  0.00     0.253 C 
ENDROOT
BRANCH   5   7
HETATM    7  O   UNK     0      10.255   0.431  20.403  0.00  0.00    -0.315 OA
BRANCH   7   8
HETATM    8  C   UNK     0       9.735   0.144  21.630  0.00  0.00     0.110 A 
HETATM    9  C   UNK     0       9.616  -1.188  22.028  0.00  0.00     0.078 A 
HETATM   10  C   UNK     0       9.085  -1.492  23.283  0.00  0.00     0.096 A 
HETATM   11  O   UNK     0       8.992  -2.819  23.618  0.00  0.00    -0.309 OA
HETATM   12  C   UNK     0       8.675  -0.466  24.132  0.00  0.00     0.084 A 
HETATM   13  C   UNK     0       8.475  -3.151  24.861  0.00  0.00     0.090 A 
HETATM   14  C   UNK     0       8.042  -2.256  25.763  0.00  0.00     0.094 A 
HETATM   15  C   UNK     0       8.117  -0.816  25.448  0.00  0.00     0.190 A 
HETATM   16  O   UNK     0       7.734   0.033  26.243  0.00  0.00    -0.287 OA
HETATM   17  C   UNK     0       8.792   0.868  23.737  0.00  0.00     0.118 A 
HETATM   18  C   UNK     0       9.323   1.169  22.483  0.00  0.00     0.134 A 
BRANCH  13  19
HETATM   19  C   UNK     0       8.416  -4.604  25.118  0.00  0.00    -0.002 A 
HETATM   20  C   UNK     0       9.494  -5.253  25.727  0.00  0.00     0.014 A 
HETATM   21  C   UNK     0       9.437  -6.626  25.970  0.00  0.00     0.001 A 
HETATM   22  C   UNK     0       8.304  -7.354  25.606  0.00  0.00     0.000 A 
HETATM   23  C   UNK     0       7.227  -6.709  24.998  0.00  0.00     0.001 A 
HETATM   24  C   UNK     0       7.283  -5.336  24.755  0.00  0.00     0.014 A 
ENDBRANCH  13  19
BRANCH  17  25
HETATM   25  O   UNK     0       8.402   1.897  24.542  0.00  0.00    -0.357 OA
HETATM   26  H   UNK     0       7.589   1.672  25.019  0.00  0.00     0.217 HD
ENDBRANCH  17  25
BRANCH  18  27
HETATM   27  O   UNK     0       9.443   2.470  22.085  0.00  0.00    -0.356 OA
HETATM   28  H   UNK     0       8.574   2.899  22.171  0.00  0.00     0.218 HD
ENDBRANCH  18  27
ENDBRANCH   7   8
ENDBRANCH   5   7
BRANCH   6  29
HETATM   29  C   UNK     0      12.831  -2.711  18.218  0.00  0.00     0.172 C 
HETATM   30  O   UNK     0      13.273  -3.547  17.444  0.00  0.00    -0.648 OA
BRANCH  29  31
HETATM   31  O   UNK     0      13.565  -2.096  19.177  0.00  0.00    -0.774 OA
HETATM   32  H   UNK     0      13.015  -1.821  19.941  0.00  0.00     0.167 HD
ENDBRANCH  29  31
ENDBRANCH   6  29
BRANCH   3  33
HETATM   33  O   UNK     0       8.320   0.499  18.343  0.00  0.00    -0.388 OA
HETATM   34  H   UNK     0       8.172   0.519  19.303  0.00  0.00     0.210 HD
ENDBRANCH   3  33
BRANCH   4  35
HETATM   35  O   UNK     0      10.856  -2.811  15.988  0.00  0.00    -0.390 OA
HETATM   36  H   UNK     0      10.196  -3.420  16.362  0.00  0.00     0.210 HD
ENDBRANCH   4  35
BRANCH   2  37
HETATM   37  O   UNK     0       9.443  -0.283  15.735  0.00  0.00    -0.390 OA
HETATM   38  H   UNK     0       8.926   0.516  15.928  0.00  0.00     0.210 HD
ENDBRANCH   2  37
TORSDOF 10
ENDMDL
MODEL 2
REMARK VINA RESULT:      -8.5      1.687      2.741
REMARK  10 active torsions:
REMARK  status: ('A' for Active; 'I' for Inactive)
REMARK    1  A    between atoms: O_2  and  C_15 
REMARK    2  A    between atoms: O_2  and  C_18 
REMARK    3  A    between atoms: O_3  and  C_12 
REMARK    4  A    between atoms: O_4  and  C_13 
REMARK    5  A    between atoms: O_5  and  C_14 
REMARK    6  A    between atoms: O_6  and  C_17 
REMARK    7  A    between atoms: O_9  and  C_20 
REMARK    8  A    between atoms: O_10  and  C_23 
REMARK    9  A    between atoms: C_16  and  C_17 
REMARK   10  A    between atoms: C_25  and  C_27 
ROOT
HETATM    1  O   UNK     0      10.600   0.379  19.499  0.00  0.00    -0.340 OA
HETATM    2  C   UNK     0      11.179   3.134  18.922  0.00  0.00     0.183 C 
HETATM    3  C   UNK     0      11.618   2.460  20.222  0.00  0.00     0.205 C 
HETATM    4  C   UNK     0      10.923   2.107  17.819  0.00  0.00     0.189 C 
HETATM    5  C   UNK     0      10.691   1.299  20.584  0.00  0.00     0.299 C 
HETATM    6  C   UNK     0      10.043   0.973  18.331  0.00  0.00     0.253 C 
ENDROOT
BRANCH   5   7
HETATM    7  O   UNK     0      11.234   0.642  21.729  0.00  0.00    -0.315 OA
BRANCH   7   8
HETATM    8  C   UNK     0      10.340   0.188  22.654  0.00  0.00     0.110 A 
HETATM    9  C   UNK     0      10.308  -1.172  22.963  0.00  0.00     0.078 A 
HETATM   10  C   UNK     0       9.398  -1.648  23.909  0.00  0.00     0.096 A 
HETATM   11  O   UNK     0       9.412  -2.994  24.170  0.00  0.00    -0.309 OA
HETATM   12  C   UNK     0       8.524  -0.763  24.539  0.00  0.00     0.084 A 
HETATM   13  C   UNK     0       8.524  -3.493  25.110  0.00  0.00     0.090 A 
HETATM   14  C   UNK     0       7.632  -2.746  25.779  0.00  0.00     0.094 A 
HETATM   15  C   UNK     0       7.574  -1.291  25.530  0.00  0.00     0.190 A 
HETATM   16  O   UNK     0       6.777  -0.574  26.120  0.00  0.00    -0.287 OA
HETATM   17  C   UNK     0       8.554   0.599  24.232  0.00  0.00     0.118 A 
HETATM   18  C   UNK     0       9.465   1.071  23.287  0.00  0.00     0.134 A 
BRANCH  13  19
HETATM   19  C   UNK     0       8.621  -4.953  25.311  0.00  0.00    -0.002 A 
HETATM   20  C   UNK     0       9.859  -5.543  25.583  0.00  0.00     0.014 A 
HETATM   21  C   UNK     0       9.950  -6.922  25.774  0.00  0.00     0.001 A 
HETATM   22  C   UNK     0       8.805  -7.715  25.695  0.00  0.00     0.000 A 
HETATM   23  C   UNK     0       7.568  -7.130  25.424  0.00  0.00     0.001 A 
HETATM   24  C   UNK     0       7.477  -5.751  25.233  0.00  0.00     0.014 A 
ENDBRANCH  13  19
BRANCH  17  25
HETATM   25  O   UNK     0       7.715   1.493  24.829  0.00  0.00    -0.357 OA
HETATM   26  H   UNK     0       7.273   2.046  24.167  0.00  0.00     0.217 HD
ENDBRANCH  17  25
BRANCH  18  27
HETATM   27  O   UNK     0       9.503   2.400  22.979  0.00  0.00    -0.356 OA
HETATM   28  H   UNK     0       9.615   2.489  22.016  0.00  0.00     0.218 HD
ENDBRANCH  18  27
ENDBRANCH   7   8
ENDBRANCH   5   7
BRANCH   6  29
HETATM   29  C   UNK     0      10.006  -0.158  17.356  0.00  0.00     0.172 C 
HETATM   30  O   UNK     0      10.629  -1.203  17.468  0.00  0.00    -0.648 OA
BRANCH  29  31
HETATM   31  O   UNK     0       9.184   0.132  16.318  0.00  0.00    -0.774 OA
HETATM   32  H   UNK     0       9.081  -0.629  15.707  0.00  0.00     0.167 HD
ENDBRANCH  29  31
ENDBRANCH   6  29
BRANCH   3  33
HETATM   33  O   UNK     0      11.580   3.412  21.286  0.00  0.00    -0.388 OA
HETATM   34  H   UNK     0      12.429   3.364  21.755  0.00  0.00     0.210 HD
ENDBRANCH   3  33
BRANCH   4  35
HETATM   35  O   UNK     0      10.259   2.746  16.731  0.00  0.00    -0.390 OA
HETATM   36  H   UNK     0      10.683   3.609  16.584  0.00  0.00     0.210 HD
ENDBRANCH   4  35
BRANCH   2  37
HETATM   37  O   UNK     0      12.207   4.018  18.473  0.00  0.00    -0.390 OA
HETATM   38  H   UNK     0      12.861   3.488  17.987  0.00  0.00     0.210 HD
ENDBRANCH   2  37
TORSDOF 10
ENDMDL
MODEL 3
REMARK VINA RESULT:      -7.9      1.123      2.774
REMARK  10 active torsions:
REMARK  status: ('A' for Active; 'I' for Inactive)
REMARK    1  A    between atoms: O_2  and  C_15 
REMARK    2  A    between atoms: O_2  and  C_18 
REMARK    3  A    between atoms: O_3  and  C_12 
REMARK    4  A    between atoms: O_4  and  C_13 
REMARK    5  A    between atoms: O_5  and  C_14 
REMARK    6  A    between atoms: O_6  and  C_17 
REMARK    7  A    between atoms: O_9  and  C_20 
REMARK    8  A    between atoms: O_10  and  C_23 
REMARK    9  A    between atoms: C_16  and  C_17 
REMARK   10  A    between atoms: C_25  and  C_27 
ROOT
HETATM    1  O   UNK     0      10.915  -0.055  18.975  0.00  0.00    -0.340 OA
HETATM    2  C   UNK     0      12.077  -2.491  17.990  0.00  0.00     0.183 C 
HETATM    3  C   UNK     0      12.436  -1.907  19.357  0.00  0.00     0.205 C 
HETATM    4  C   UNK     0      10.722  -1.979  17.502  0.00  0.00     0.189 C 
HETATM    5  C   UNK     0      12.240  -0.391  19.378  0.00  0.00     0.299 C 
HETATM    6  C   UNK     0      10.635  -0.464  17.640  0.00  0.00     0.253 C 
ENDROOT
BRANCH   5   7
HETATM    7  O   UNK     0      12.467   0.064  20.713  0.00  0.00    -0.315 OA
BRANCH   7   8
HETATM    8  C   UNK     0      11.415  -0.026  21.576  0.00  0.00     0.110 A 
HETATM    9  C   UNK     0      11.100  -1.261  22.143  0.00  0.00     0.078 A 
HETATM   10  C   UNK     0      10.026  -1.364  23.029  0.00  0.00     0.096 A 
HETATM   11  O   UNK     0       9.764  -2.604  23.553  0.00  0.00    -0.309 OA
HETATM   12  C   UNK     0       9.272  -0.235  23.342  0.00  0.00     0.084 A 
HETATM   13  C   UNK     0       8.707  -2.735  24.441  0.00  0.00     0.090 A 
HETATM   14  C   UNK     0       7.905  -1.726  24.816  0.00  0.00     0.094 A 
HETATM   15  C   UNK     0       8.144  -0.373  24.276  0.00  0.00     0.190 A 
HETATM   16  O   UNK     0       7.438   0.575  24.594  0.00  0.00    -0.287 OA
HETATM   17  C   UNK     0       9.584   1.003  22.776  0.00  0.00     0.118 A 
HETATM   18  C   UNK     0      10.659   1.103  21.892  0.00  0.00     0.134 A 
BRANCH  13  19
HETATM   19  C   UNK     0       8.511  -4.111  24.941  0.00  0.00    -0.002 A 
HETATM   20  C   UNK     0       7.314  -4.786  24.687  0.00  0.00     0.014 A 
HETATM   21  C   UNK     0       7.129  -6.086  25.159  0.00  0.00     0.001 A 
HETATM   22  C   UNK     0       8.140  -6.715  25.885  0.00  0.00     0.000 A 
HETATM   23  C   UNK     0       9.336  -6.044  26.141  0.00  0.00     0.001 A 
HETATM   24  C   UNK     0       9.521  -4.744  25.669  0.00  0.00     0.014 A 
ENDBRANCH  13  19
BRANCH  17  25
HETATM   25  O   UNK     0       8.869   2.129  23.060  0.00  0.00    -0.357 OA
HETATM   26  H   UNK     0       9.207   2.560  23.860  0.00  0.00     0.217 HD
ENDBRANCH  17  25
BRANCH  18  27
HETATM   27  O   UNK     0      10.974   2.308  21.333  0.00  0.00    -0.356 OA
HETATM   28  H   UNK     0      10.778   3.008  21.980  0.00  0.00     0.218 HD
ENDBRANCH  18  27
ENDBRANCH   7   8
ENDBRANCH   5   7
BRANCH   6  29
HETATM   29  C   UNK     0       9.237   0.014  17.420  0.00  0.00     0.172 C 
HETATM   30  O   UNK     0       8.421   0.228  18.304  0.00  0.00    -0.648 OA
BRANCH  29  31
HETATM   31  O   UNK     0       8.990   0.179  16.098  0.00  0.00    -0.774 OA
HETATM   32  H   UNK     0       8.818   1.117  15.870  0.00  0.00     0.167 HD
ENDBRANCH  29  31
ENDBRANCH   6  29
BRANCH   3  33
HETATM   33  O   UNK     0      13.806  -2.186  19.647  0.00  0.00    -0.388 OA
HETATM   34  H   UNK     0      14.135  -1.475  20.222  0.00  0.00     0.210 HD
ENDBRANCH   3  33
BRANCH   4  35
HETATM   35  O   UNK     0      10.561  -2.323  16.128  0.00  0.00    -0.390 OA
HETATM   36  H   UNK     0       9.675  -2.035  15.847  0.00  0.00     0.210 HD
ENDBRANCH   4  35
BRANCH   2  37
HETATM   37  O   UNK     0      12.004  -3.915  18.085  0.00  0.00    -0.390 OA
HETATM   38  H   UNK     0      11.428  -4.131  18.837  0.00  0.00     0.210 HD
ENDBRANCH   2  37
TORSDOF 10
ENDMDL
MODEL 4
REMARK VINA RESULT:      -7.8      2.909      8.809
REMARK  10 active torsions:
REMARK  status: ('A' for Active; 'I' for Inactive)
REMARK    1  A    between atoms: O_2  and  C_15 
REMARK    2  A    between atoms: O_2  and  C_18 
REMARK    3  A    between atoms: O_3  and  C_12 
REMARK    4  A    between atoms: O_4  and  C_13 
REMARK    5  A    between atoms: O_5  and  C_14 
REMARK    6  A    between atoms: O_6  and  C_17 
REMARK    7  A    between atoms: O_9  and  C_20 
REMARK    8  A    between atoms: O_10  and  C_23 
REMARK    9  A    between atoms: C_16  and  C_17 
REMARK   10  A    between atoms: C_25  and  C_27 
ROOT
HETATM    1  O   UNK     0       9.751  -2.212  24.385  0.00  0.00    -0.340 OA
HETATM    2  C   UNK     0       8.854  -4.915  24.764  0.00  0.00     0.183 C 
HETATM    3  C   UNK     0      10.129  -4.576  23.991  0.00  0.00     0.205 C 
HETATM    4  C   UNK     0       8.460  -3.785  25.715  0.00  0.00     0.189 C 
HETATM    5  C   UNK     0      10.050  -3.177  23.380  0.00  0.00     0.299 C 
HETATM    6  C   UNK     0       8.487  -2.440  24.997  0.00  0.00     0.253 C 
ENDROOT
BRANCH   5   7
HETATM    7  O   UNK     0      11.316  -2.882  22.789  0.00  0.00    -0.315 OA
BRANCH   7   8
HETATM    8  C   UNK     0      11.300  -2.123  21.656  0.00  0.00     0.110 A 
HETATM    9  C   UNK     0      11.364  -0.734  21.763  0.00  0.00     0.078 A 
HETATM   10  C   UNK     0      11.348   0.052  20.609  0.00  0.00     0.096 A 
HETATM   11  O   UNK     0      11.412   1.411  20.777  0.00  0.00    -0.309 OA
HETATM   12  C   UNK     0      11.268  -0.553  19.356  0.00  0.00     0.084 A 
HETATM   13  C   UNK     0      11.406   2.217  19.648  0.00  0.00     0.090 A 
HETATM   14  C   UNK     0      11.327   1.755  18.391  0.00  0.00     0.094 A 
HETATM   15  C   UNK     0      11.251   0.299  18.157  0.00  0.00     0.190 A 
HETATM   16  O   UNK     0      11.180  -0.163  17.026  0.00  0.00    -0.287 OA
HETATM   17  C   UNK     0      11.204  -1.944  19.245  0.00  0.00     0.118 A 
HETATM   18  C   UNK     0      11.221  -2.727  20.400  0.00  0.00     0.134 A 
BRANCH  13  19
HETATM   19  C   UNK     0      11.474   3.663  19.943  0.00  0.00    -0.002 A 
HETATM   20  C   UNK     0      11.624   4.104  21.260  0.00  0.00     0.014 A 
HETATM   21  C   UNK     0      11.690   5.470  21.538  0.00  0.00     0.001 A 
HETATM   22  C   UNK     0      11.606   6.398  20.501  0.00  0.00     0.000 A 
HETATM   23  C   UNK     0      11.455   5.961  19.184  0.00  0.00     0.001 A 
HETATM   24  C   UNK     0      11.390   4.595  18.907  0.00  0.00     0.014 A 
ENDBRANCH  13  19
BRANCH  17  25
HETATM   25  O   UNK     0      11.126  -2.570  18.037  0.00  0.00    -0.357 OA
HETATM   26  H   UNK     0      11.363  -3.506  18.118  0.00  0.00     0.217 HD
ENDBRANCH  17  25
BRANCH  18  27
HETATM   27  O   UNK     0      11.158  -4.087  20.304  0.00  0.00    -0.356 OA
HETATM   28  H   UNK     0      10.223  -4.354  20.316  0.00  0.00     0.218 HD
ENDBRANCH  18  27
ENDBRANCH   7   8
ENDBRANCH   5   7
BRANCH   6  29
HETATM   29  C   UNK     0       8.366  -1.312  25.968  0.00  0.00     0.172 C 
HETATM   30  O   UNK     0       9.298  -0.804  26.574  0.00  0.00    -0.648 OA
BRANCH  29  31
HETATM   31  O   UNK     0       7.073  -0.924  26.093  0.00  0.00    -0.774 OA
HETATM   32  H   UNK     0       6.812  -0.287  25.395  0.00  0.00     0.167 HD
ENDBRANCH  29  31
ENDBRANCH   6  29
BRANCH   3  33
HETATM   33  O   UNK     0      10.306  -5.518  22.933  0.00  0.00    -0.388 OA
HETATM   34  H   UNK     0      11.003  -6.138  23.204  0.00  0.00     0.210 HD
ENDBRANCH   3  33
BRANCH   4  35
HETATM   35  O   UNK     0       7.139  -4.019  26.198  0.00  0.00    -0.390 OA
HETATM   36  H   UNK     0       6.741  -4.723  25.657  0.00  0.00     0.210 HD
ENDBRANCH   4  35
BRANCH   2  37
HETATM   37  O   UNK     0       9.067  -6.094  25.542  0.00  0.00    -0.390 OA
HETATM   38  H   UNK     0      10.016  -6.299  25.512  0.00  0.00     0.210 HD
ENDBRANCH   2  37
TORSDOF 10
ENDMDL
MODEL 5
REMARK VINA RESULT:      -7.8      5.978     10.035
REMARK  10 active torsions:
REMARK  status: ('A' for Active; 'I' for Inactive)
REMARK    1  A    between atoms: O_2  and  C_15 
REMARK    2  A    between atoms: O_2  and  C_18 
REMARK    3  A    between atoms: O_3  and  C_12 
REMARK    4  A    between atoms: O_4  and  C_13 
REMARK    5  A    between atoms: O_5  and  C_14 
REMARK    6  A    between atoms: O_6  and  C_17 
REMARK    7  A    between atoms: O_9  and  C_20 
REMARK    8  A    between atoms: O_10  and  C_23 
REMARK    9  A    between atoms: C_16  and  C_17 
REMARK   10  A    between atoms: C_25  and  C_27 
ROOT
HETATM    1  O   UNK     0      10.421   1.920  19.200  0.00  0.00    -0.340 OA
HETATM    2  C   UNK     0      10.360  -0.641  20.503  0.00  0.00     0.183 C 
HETATM    3  C   UNK     0      10.429   0.673  21.282  0.00  0.00     0.205 C 
HETATM    4  C   UNK     0       9.798  -0.428  19.098  0.00  0.00     0.189 C 
HETATM    5  C   UNK     0      11.088   1.775  20.451  0.00  0.00     0.299 C 
HETATM    6  C   UNK     0      10.494   0.739  18.408  0.00  0.00     0.253 C 
ENDROOT
BRANCH   5   7
HETATM    7  O   UNK     0      11.000   2.995  21.188  0.00  0.00    -0.315 OA
BRANCH   7   8
HETATM    8  C   UNK     0      12.042   3.865  21.056  0.00  0.00     0.110 A 
HETATM    9  C   UNK     0      12.522   4.168  19.782  0.00  0.00     0.078 A 
HETATM   10  C   UNK     0      13.588   5.058  19.636  0.00  0.00     0.096 A 
HETATM   11  O   UNK     0      14.016   5.316  18.359  0.00  0.00    -0.309 OA
HETATM   12  C   UNK     0      14.168   5.639  20.761  0.00  0.00     0.084 A 
HETATM   13  C   UNK     0      15.069   6.202  18.182  0.00  0.00     0.090 A 
HETATM   14  C   UNK     0      15.713   6.820  19.185  0.00  0.00     0.094 A 
HETATM   15  C   UNK     0      15.291   6.571  20.578  0.00  0.00     0.190 A 
HETATM   16  O   UNK     0      15.850   7.116  21.521  0.00  0.00    -0.287 OA
HETATM   17  C   UNK     0      13.690   5.338  22.039  0.00  0.00     0.118 A 
HETATM   18  C   UNK     0      12.625   4.449  22.182  0.00  0.00     0.134 A 
BRANCH  13  19
HETATM   19  C   UNK     0      15.452   6.404  16.770  0.00  0.00    -0.002 A 
HETATM   20  C   UNK     0      16.186   5.425  16.095  0.00  0.00     0.014 A 
HETATM   21  C   UNK     0      16.547   5.616  14.761  0.00  0.00     0.001 A 
HETATM   22  C   UNK     0      16.175   6.785  14.098  0.00  0.00     0.000 A 
HETATM   23  C   UNK     0      15.442   7.765  14.769  0.00  0.00     0.001 A 
HETATM   24  C   UNK     0      15.081   7.574  16.103  0.00  0.00     0.014 A 
ENDBRANCH  13  19
BRANCH  17  25
HETATM   25  O   UNK     0      14.233   5.887  23.162  0.00  0.00    -0.357 OA
HETATM   26  H   UNK     0      13.806   6.731  23.374  0.00  0.00     0.217 HD
ENDBRANCH  17  25
BRANCH  18  27
HETATM   27  O   UNK     0      12.149   4.146  23.425  0.00  0.00    -0.356 OA
HETATM   28  H   UNK     0      11.205   3.923  23.347  0.00  0.00     0.218 HD
ENDBRANCH  18  27
ENDBRANCH   7   8
ENDBRANCH   5   7
BRANCH   6  29
HETATM   29  C   UNK     0       9.780   1.123  17.153  0.00  0.00     0.172 C 
HETATM   30  O   UNK     0       9.006   0.404  16.538  0.00  0.00    -0.648 OA
BRANCH  29  31
HETATM   31  O   UNK     0      10.109   2.384  16.781  0.00  0.00    -0.774 OA
HETATM   32  H   UNK     0      11.073   2.548  16.855  0.00  0.00     0.167 HD
ENDBRANCH  29  31
ENDBRANCH   6  29
BRANCH   3  33
HETATM   33  O   UNK     0      11.203   0.482  22.466  0.00  0.00    -0.388 OA
HETATM   34  H   UNK     0      11.405   1.359  22.831  0.00  0.00     0.210 HD
ENDBRANCH   3  33
BRANCH   4  35
HETATM   35  O   UNK     0      10.010  -1.608  18.326  0.00  0.00    -0.390 OA
HETATM   36  H   UNK     0      10.927  -1.595  18.001  0.00  0.00     0.210 HD
ENDBRANCH   4  35
BRANCH   2  37
HETATM   37  O   UNK     0       9.505  -1.557  21.188  0.00  0.00    -0.390 OA
HETATM   38  H   UNK     0       8.643  -1.123  21.306  0.00  0.00     0.210 HD
ENDBRANCH   2  37
TORSDOF 10
ENDMDL
MODEL 6
REMARK VINA RESULT:      -7.7      2.203      8.351
REMARK  10 active torsions:
REMARK  status: ('A' for Active; 'I' for Inactive)
REMARK    1  A    between atoms: O_2  and  C_15 
REMARK    2  A    between atoms: O_2  and  C_18 
REMARK    3  A    between atoms: O_3  and  C_12 
REMARK    4  A    between atoms: O_4  and  C_13 
REMARK    5  A    between atoms: O_5  and  C_14 
REMARK    6  A    between atoms: O_6  and  C_17 
REMARK    7  A    between atoms: O_9  and  C_20 
REMARK    8  A    between atoms: O_10  and  C_23 
REMARK    9  A    between atoms: C_16  and  C_17 
REMARK   10  A    between atoms: C_25  and  C_27 
ROOT
HETATM    1  O   UNK     0       9.121  -1.352  24.185  0.00  0.00    -0.340 OA
HETATM    2  C   UNK     0       9.241  -4.134  24.892  0.00  0.00     0.183 C 
HETATM    3  C   UNK     0      10.293  -3.469  24.004  0.00  0.00     0.205 C 
HETATM    4  C   UNK     0       8.504  -3.106  25.750  0.00  0.00     0.189 C 
HETATM    5  C   UNK     0       9.710  -2.265  23.263  0.00  0.00     0.299 C 
HETATM    6  C   UNK     0       8.035  -1.930  24.901  0.00  0.00     0.253 C 
ENDROOT
BRANCH   5   7
HETATM    7  O   UNK     0      10.774  -1.622  22.561  0.00  0.00    -0.315 OA
BRANCH   7   8
HETATM    8  C   UNK     0      10.619  -1.481  21.213  0.00  0.00     0.110 A 
HETATM    9  C   UNK     0      11.325  -2.322  20.352  0.00  0.00     0.078 A 
HETATM   10  C   UNK     0      11.173  -2.186  18.971  0.00  0.00     0.096 A 
HETATM   11  O   UNK     0      11.893  -3.040  18.175  0.00  0.00    -0.309 OA
HETATM   12  C   UNK     0      10.319  -1.212  18.457  0.00  0.00     0.084 A 
HETATM   13  C   UNK     0      11.757  -2.933  16.800  0.00  0.00     0.090 A 
HETATM   14  C   UNK     0      10.972  -2.035  16.185  0.00  0.00     0.094 A 
HETATM   15  C   UNK     0      10.180  -1.090  16.998  0.00  0.00     0.190 A 
HETATM   16  O   UNK     0       9.450  -0.257  16.478  0.00  0.00    -0.287 OA
HETATM   17  C   UNK     0       9.610  -0.369  19.316  0.00  0.00     0.118 A 
HETATM   18  C   UNK     0       9.764  -0.507  20.696  0.00  0.00     0.134 A 
BRANCH  13  19
HETATM   19  C   UNK     0      12.579  -3.896  16.039  0.00  0.00    -0.002 A 
HETATM   20  C   UNK     0      12.850  -3.672  14.686  0.00  0.00     0.014 A 
HETATM   21  C   UNK     0      13.627  -4.582  13.968  0.00  0.00     0.001 A 
HETATM   22  C   UNK     0      14.137  -5.716  14.599  0.00  0.00     0.000 A 
HETATM   23  C   UNK     0      13.868  -5.943  15.949  0.00  0.00     0.001 A 
HETATM   24  C   UNK     0      13.091  -5.034  16.667  0.00  0.00     0.014 A 
ENDBRANCH  13  19
BRANCH  17  25
HETATM   25  O   UNK     0       8.766   0.594  18.849  0.00  0.00    -0.357 OA
HETATM   26  H   UNK     0       9.099   1.479  19.066  0.00  0.00     0.217 HD
ENDBRANCH  17  25
BRANCH  18  27
HETATM   27  O   UNK     0       9.077   0.312  21.545  0.00  0.00    -0.356 OA
HETATM   28  H   UNK     0       8.969   1.179  21.117  0.00  0.00     0.218 HD
ENDBRANCH  18  27
ENDBRANCH   7   8
ENDBRANCH   5   7
BRANCH   6  29
HETATM   29  C   UNK     0       7.554  -0.807  25.761  0.00  0.00     0.172 C 
HETATM   30  O   UNK     0       8.201   0.192  26.038  0.00  0.00    -0.648 OA
BRANCH  29  31
HETATM   31  O   UNK     0       6.295  -1.047  26.202  0.00  0.00    -0.774 OA
HETATM   32  H   UNK     0       5.778  -0.220  26.305  0.00  0.00     0.167 HD
ENDBRANCH  29  31
ENDBRANCH   6  29
BRANCH   3  33
HETATM   33  O   UNK     0      10.759  -4.408  23.036  0.00  0.00    -0.388 OA
HETATM   34  H   UNK     0      11.520  -4.010  22.582  0.00  0.00     0.210 HD
ENDBRANCH   3  33
BRANCH   4  35
HETATM   35  O   UNK     0       7.364  -3.725  26.343  0.00  0.00    -0.390 OA
HETATM   36  H   UNK     0       7.657  -4.190  27.146  0.00  0.00     0.210 HD
ENDBRANCH   4  35
BRANCH   2  37
HETATM   37  O   UNK     0       9.878  -5.066  25.768  0.00  0.00    -0.390 OA
HETATM   38  H   UNK     0       9.322  -5.862  25.806  0.00  0.00     0.210 HD
ENDBRANCH   2  37
TORSDOF 10
ENDMDL
MODEL 7
REMARK VINA RESULT:      -7.6      5.378      8.909
REMARK  10 active torsions:
REMARK  status: ('A' for Active; 'I' for Inactive)
REMARK    1  A    between atoms: O_2  and  C_15 
REMARK    2  A    between atoms: O_2  and  C_18 
REMARK    3  A    between atoms: O_3  and  C_12 
REMARK    4  A    between atoms: O_4  and  C_13 
REMARK    5  A    between atoms: O_5  and  C_14 
REMARK    6  A    between atoms: O_6  and  C_17 
REMARK    7  A    between atoms: O_9  and  C_20 
REMARK    8  A    between atoms: O_10  and  C_23 
REMARK    9  A    between atoms: C_16  and  C_17 
REMARK   10  A    between atoms: C_25  and  C_27 
ROOT
HETATM    1  O   UNK     0      13.542   2.221  25.524  0.00  0.00    -0.340 OA
HETATM    2  C   UNK     0      14.725   4.316  27.095  0.00  0.00     0.183 C 
HETATM    3  C   UNK     0      13.371   4.476  26.403  0.00  0.00     0.205 C 
HETATM    4  C   UNK     0      15.072   2.843  27.307  0.00  0.00     0.189 C 
HETATM    5  C   UNK     0      13.269   3.575  25.172  0.00  0.00     0.299 C 
HETATM    6  C   UNK     0      14.863   2.047  26.024  0.00  0.00     0.253 C 
ENDROOT
BRANCH   5   7
HETATM    7  O   UNK     0      11.941   3.681  24.657  0.00  0.00    -0.315 OA
BRANCH   7   8
HETATM    8  C   UNK     0      11.818   3.793  23.304  0.00  0.00     0.110 A 
HETATM    9  C   UNK     0      11.633   2.642  22.537  0.00  0.00     0.078 A 
HETATM   10  C   UNK     0      11.505   2.745  21.151  0.00  0.00     0.096 A 
HETATM   11  O   UNK     0      11.327   1.580  20.450  0.00  0.00    -0.309 OA
HETATM   12  C   UNK     0      11.563   3.996  20.538  0.00  0.00     0.084 A 
HETATM   13  C   UNK     0      11.189   1.652  19.072  0.00  0.00     0.090 A 
HETATM   14  C   UNK     0      11.233   2.793  18.367  0.00  0.00     0.094 A 
HETATM   15  C   UNK     0      11.427   4.075  19.075  0.00  0.00     0.190 A 
HETATM   16  O   UNK     0      11.471   5.138  18.471  0.00  0.00    -0.287 OA
HETATM   17  C   UNK     0      11.747   5.150  21.302  0.00  0.00     0.118 A 
HETATM   18  C   UNK     0      11.875   5.044  22.687  0.00  0.00     0.134 A 
BRANCH  13  19
HETATM   19  C   UNK     0      11.007   0.341  18.418  0.00  0.00    -0.002 A 
HETATM   20  C   UNK     0      11.655  -0.791  18.921  0.00  0.00     0.014 A 
HETATM   21  C   UNK     0      11.481  -2.029  18.303  0.00  0.00     0.001 A 
HETATM   22  C   UNK     0      10.659  -2.141  17.182  0.00  0.00     0.000 A 
HETATM   23  C   UNK     0      10.011  -1.014  16.677  0.00  0.00     0.001 A 
HETATM   24  C   UNK     0      10.185   0.225  17.295  0.00  0.00     0.014 A 
ENDBRANCH  13  19
BRANCH  17  25
HETATM   25  O   UNK     0      11.809   6.389  20.737  0.00  0.00    -0.357 OA
HETATM   26  H   UNK     0      12.625   6.494  20.225  0.00  0.00     0.217 HD
ENDBRANCH  17  25
BRANCH  18  27
HETATM   27  O   UNK     0      12.056   6.164  23.445  0.00  0.00    -0.356 OA
HETATM   28  H   UNK     0      13.007   6.264  23.624  0.00  0.00     0.218 HD
ENDBRANCH  18  27
ENDBRANCH   7   8
ENDBRANCH   5   7
BRANCH   6  29
HETATM   29  C   UNK     0      14.941   0.579  26.286  0.00  0.00     0.172 C 
HETATM   30  O   UNK     0      14.791  -0.294  25.443  0.00  0.00    -0.648 OA
BRANCH  29  31
HETATM   31  O   UNK     0      15.200   0.339  27.594  0.00  0.00    -0.774 OA
HETATM   32  H   UNK     0      15.002  -0.589  27.843  0.00  0.00     0.167 HD
ENDBRANCH  29  31
ENDBRANCH   6  29
BRANCH   3  33
HETATM   33  O   UNK     0      13.213   5.831  25.980  0.00  0.00    -0.388 OA
HETATM   34  H   UNK     0      12.630   5.831  25.203  0.00  0.00     0.210 HD
ENDBRANCH   3  33
BRANCH   4  35
HETATM   35  O   UNK     0      16.441   2.736  27.693  0.00  0.00    -0.390 OA
HETATM   36  H   UNK     0      16.532   3.108  28.588  0.00  0.00     0.210 HD
ENDBRANCH   4  35
BRANCH   2  37
HETATM   37  O   UNK     0      14.684   4.950  28.374  0.00  0.00    -0.390 OA
HETATM   38  H   UNK     0      15.389   4.561  28.919  0.00  0.00     0.210 HD
ENDBRANCH   2  37
TORSDOF 10
ENDMDL
MODEL 8
REMARK VINA RESULT:      -7.6      2.274      7.196
REMARK  10 active torsions:
REMARK  status: ('A' for Active; 'I' for Inactive)
REMARK    1  A    between atoms: O_2  and  C_15 
REMARK    2  A    between atoms: O_2  and  C_18 
REMARK    3  A    between atoms: O_3  and  C_12 
REMARK    4  A    between atoms: O_4  and  C_13 
REMARK    5  A    between atoms: O_5  and  C_14 
REMARK    6  A    between atoms: O_6  and  C_17 
REMARK    7  A    between atoms: O_9  and  C_20 
REMARK    8  A    between atoms: O_10  and  C_23 
REMARK    9  A    between atoms: C_16  and  C_17 
REMARK   10  A    between atoms: C_25  and  C_27 
ROOT
HETATM    1  O   UNK     0       9.407  -4.407  24.337  0.00  0.00    -0.340 OA
HETATM    2  C   UNK     0       8.772  -6.621  26.055  0.00  0.00     0.183 C 
HETATM    3  C   UNK     0       7.952  -5.331  26.046  0.00  0.00     0.205 C 
HETATM    4  C   UNK     0       9.549  -6.798  24.751  0.00  0.00     0.189 C 
HETATM    5  C   UNK     0       8.801  -4.140  25.599  0.00  0.00     0.299 C 
HETATM    6  C   UNK     0      10.294  -5.519  24.387  0.00  0.00     0.253 C 
ENDROOT
BRANCH   5   7
HETATM    7  O   UNK     0       7.942  -3.004  25.491  0.00  0.00    -0.315 OA
BRANCH   7   8
HETATM    8  C   UNK     0       8.347  -2.011  24.648  0.00  0.00     0.110 A 
HETATM    9  C   UNK     0       8.765  -2.338  23.358  0.00  0.00     0.078 A 
HETATM   10  C   UNK     0       9.180  -1.330  22.486  0.00  0.00     0.096 A 
HETATM   11  O   UNK     0       9.581  -1.713  21.232  0.00  0.00    -0.309 OA
HETATM   12  C   UNK     0       9.176  -0.001  22.907  0.00  0.00     0.084 A 
HETATM   13  C   UNK     0       9.992  -0.732  20.342  0.00  0.00     0.090 A 
HETATM   14  C   UNK     0      10.038   0.578  20.630  0.00  0.00     0.094 A 
HETATM   15  C   UNK     0       9.621   1.041  21.969  0.00  0.00     0.190 A 
HETATM   16  O   UNK     0       9.646   2.226  22.271  0.00  0.00    -0.287 OA
HETATM   17  C   UNK     0       8.758   0.330  24.198  0.00  0.00     0.118 A 
HETATM   18  C   UNK     0       8.343  -0.680  25.066  0.00  0.00     0.134 A 
BRANCH  13  19
HETATM   19  C   UNK     0      10.406  -1.253  19.023  0.00  0.00    -0.002 A 
HETATM   20  C   UNK     0      11.479  -2.142  18.926  0.00  0.00     0.014 A 
HETATM   21  C   UNK     0      11.869  -2.635  17.681  0.00  0.00     0.001 A 
HETATM   22  C   UNK     0      11.188  -2.242  16.529  0.00  0.00     0.000 A 
HETATM   23  C   UNK     0      10.115  -1.354  16.623  0.00  0.00     0.001 A 
HETATM   24  C   UNK     0       9.726  -0.861  17.868  0.00  0.00     0.014 A 
ENDBRANCH  13  19
BRANCH  17  25
HETATM   25  O   UNK     0       8.740   1.618  24.643  0.00  0.00    -0.357 OA
HETATM   26  H   UNK     0       9.238   1.704  25.471  0.00  0.00     0.217 HD
ENDBRANCH  17  25
BRANCH  18  27
HETATM   27  O   UNK     0       7.932  -0.368  26.330  0.00  0.00    -0.356 OA
HETATM   28  H   UNK     0       8.675   0.050  26.801  0.00  0.00     0.218 HD
ENDBRANCH  18  27
ENDBRANCH   7   8
ENDBRANCH   5   7
BRANCH   6  29
HETATM   29  C   UNK     0      10.833  -5.591  22.996  0.00  0.00     0.172 C 
HETATM   30  O   UNK     0      11.749  -4.907  22.562  0.00  0.00    -0.648 OA
BRANCH  29  31
HETATM   31  O   UNK     0      10.165  -6.520  22.271  0.00  0.00    -0.774 OA
HETATM   32  H   UNK     0       9.434  -6.124  21.751  0.00  0.00     0.167 HD
ENDBRANCH  29  31
ENDBRANCH   6  29
BRANCH   3  33
HETATM   33  O   UNK     0       7.469  -5.067  27.363  0.00  0.00    -0.388 OA
HETATM   34  H   UNK     0       7.100  -5.895  27.713  0.00  0.00     0.210 HD
ENDBRANCH   3  33
BRANCH   4  35
HETATM   35  O   UNK     0      10.498  -7.850  24.912  0.00  0.00    -0.390 OA
HETATM   36  H   UNK     0      10.840  -8.085  24.032  0.00  0.00     0.210 HD
ENDBRANCH   4  35
BRANCH   2  37
HETATM   37  O   UNK     0       7.897  -7.741  26.204  0.00  0.00    -0.390 OA
HETATM   38  H   UNK     0       7.328  -7.777  25.418  0.00  0.00     0.210 HD
ENDBRANCH   2  37
TORSDOF 10
ENDMDL
MODEL 9
REMARK VINA RESULT:      -7.5      4.975      8.329
REMARK  10 active torsions:
REMARK  status: ('A' for Active; 'I' for Inactive)
REMARK    1  A    between atoms: O_2  and  C_15 
REMARK    2  A    between atoms: O_2  and  C_18 
REMARK    3  A    between atoms: O_3  and  C_12 
REMARK    4  A    between atoms: O_4  and  C_13 
REMARK    5  A    between atoms: O_5  and  C_14 
REMARK    6  A    between atoms: O_6  and  C_17 
REMARK    7  A    between atoms: O_9  and  C_20 
REMARK    8  A    between atoms: O_10  and  C_23 
REMARK    9  A    between atoms: C_16  and  C_17 
REMARK   10  A    between atoms: C_25  and  C_27 
ROOT
HETATM    1  O   UNK     0      13.898   2.904  25.335  0.00  0.00    -0.340 OA
HETATM    2  C   UNK     0      15.170   5.478  25.454  0.00  0.00     0.183 C 
HETATM    3  C   UNK     0      13.764   5.285  24.886  0.00  0.00     0.205 C 
HETATM    4  C   UNK     0      15.554   4.335  26.393  0.00  0.00     0.189 C 
HETATM    5  C   UNK     0      13.578   3.871  24.337  0.00  0.00     0.299 C 
HETATM    6  C   UNK     0      15.257   2.985  25.750  0.00  0.00     0.253 C 
ENDROOT
BRANCH   5   7
HETATM    7  O   UNK     0      12.213   3.726  23.945  0.00  0.00    -0.315 OA
BRANCH   7   8
HETATM    8  C   UNK     0      11.985   3.289  22.673  0.00  0.00     0.110 A 
HETATM    9  C   UNK     0      11.991   1.919  22.410  0.00  0.00     0.078 A 
HETATM   10  C   UNK     0      11.759   1.461  21.112  0.00  0.00     0.096 A 
HETATM   11  O   UNK     0      11.779   0.104  20.914  0.00  0.00    -0.309 OA
HETATM   12  C   UNK     0      11.522   2.373  20.084  0.00  0.00     0.084 A 
HETATM   13  C   UNK     0      11.544  -0.380  19.636  0.00  0.00     0.090 A 
HETATM   14  C   UNK     0      11.310   0.395  18.565  0.00  0.00     0.094 A 
HETATM   15  C   UNK     0      11.282   1.863  18.726  0.00  0.00     0.190 A 
HETATM   16  O   UNK     0      11.070   2.605  17.776  0.00  0.00    -0.287 OA
HETATM   17  C   UNK     0      11.515   3.745  20.344  0.00  0.00     0.118 A 
HETATM   18  C   UNK     0      11.747   4.199  21.643  0.00  0.00     0.134 A 
BRANCH  13  19
HETATM   19  C   UNK     0      11.592  -1.853  19.534  0.00  0.00    -0.002 A 
HETATM   20  C   UNK     0      11.219  -2.644  20.624  0.00  0.00     0.014 A 
HETATM   21  C   UNK     0      11.264  -4.035  20.527  0.00  0.00     0.001 A 
HETATM   22  C   UNK     0      11.681  -4.639  19.341  0.00  0.00     0.000 A 
HETATM   23  C   UNK     0      12.054  -3.852  18.251  0.00  0.00     0.001 A 
HETATM   24  C   UNK     0      12.009  -2.461  18.348  0.00  0.00     0.014 A 
ENDBRANCH  13  19
BRANCH  17  25
HETATM   25  O   UNK     0      11.286   4.665  19.365  0.00  0.00    -0.357 OA
HETATM   26  H   UNK     0      12.121   5.023  19.027  0.00  0.00     0.217 HD
ENDBRANCH  17  25
BRANCH  18  27
HETATM   27  O   UNK     0      11.742   5.538  21.909  0.00  0.00    -0.356 OA
HETATM   28  H   UNK     0      11.894   6.018  21.076  0.00  0.00     0.218 HD
ENDBRANCH  18  27
ENDBRANCH   7   8
ENDBRANCH   5   7
BRANCH   6  29
HETATM   29  C   UNK     0      15.377   1.879  26.748  0.00  0.00     0.172 C 
HETATM   30  O   UNK     0      15.234   0.691  26.499  0.00  0.00    -0.648 OA
BRANCH  29  31
HETATM   31  O   UNK     0      15.664   2.372  27.977  0.00  0.00    -0.774 OA
HETATM   32  H   UNK     0      16.158   1.726  28.525  0.00  0.00     0.167 HD
ENDBRANCH  29  31
ENDBRANCH   6  29
BRANCH   3  33
HETATM   33  O   UNK     0      13.553   6.211  23.820  0.00  0.00    -0.388 OA
HETATM   34  H   UNK     0      13.740   5.749  22.986  0.00  0.00     0.210 HD
ENDBRANCH   3  33
BRANCH   4  35
HETATM   35  O   UNK     0      16.951   4.410  26.673  0.00  0.00    -0.390 OA
HETATM   36  H   UNK     0      17.059   4.785  27.564  0.00  0.00     0.210 HD
ENDBRANCH   4  35
BRANCH   2  37
HETATM   37  O   UNK     0      15.221   6.697  26.198  0.00  0.00    -0.390 OA
HETATM   38  H   UNK     0      14.322   7.064  26.223  0.00  0.00     0.210 HD
ENDBRANCH   2  37
TORSDOF 10
ENDMDL
MODEL 10
REMARK VINA RESULT:      -7.4      4.012      6.529
REMARK  10 active torsions:
REMARK  status: ('A' for Active; 'I' for Inactive)
REMARK    1  A    between atoms: O_2  and  C_15 
REMARK    2  A    between atoms: O_2  and  C_18 
REMARK    3  A    between atoms: O_3  and  C_12 
REMARK    4  A    between atoms: O_4  and  C_13 
REMARK    5  A    between atoms: O_5  and  C_14 
REMARK    6  A    between atoms: O_6  and  C_17 
REMARK    7  A    between atoms: O_9  and  C_20 
REMARK    8  A    between atoms: O_10  and  C_23 
REMARK    9  A    between atoms: C_16  and  C_17 
REMARK   10  A    between atoms: C_25  and  C_27 
ROOT
HETATM    1  O   UNK     0      12.703   4.352  22.329  0.00  0.00    -0.340 OA
HETATM    2  C   UNK     0      14.100   6.022  20.453  0.00  0.00     0.183 C 
HETATM    3  C   UNK     0      12.761   5.361  20.123  0.00  0.00     0.205 C 
HETATM    4  C   UNK     0      14.304   6.144  21.963  0.00  0.00     0.189 C 
HETATM    5  C   UNK     0      12.560   4.082  20.936  0.00  0.00     0.299 C 
HETATM    6  C   UNK     0      14.006   4.821  22.658  0.00  0.00     0.253 C 
ENDROOT
BRANCH   5   7
HETATM    7  O   UNK     0      11.244   3.595  20.673  0.00  0.00    -0.315 OA
BRANCH   7   8
HETATM    8  C   UNK     0      11.116   2.249  20.488  0.00  0.00     0.110 A 
HETATM    9  C   UNK     0      10.749   1.443  21.566  0.00  0.00     0.078 A 
HETATM   10  C   UNK     0      10.615   0.065  21.388  0.00  0.00     0.096 A 
HETATM   11  O   UNK     0      10.253  -0.675  22.484  0.00  0.00    -0.309 OA
HETATM   12  C   UNK     0      10.849  -0.500  20.136  0.00  0.00     0.084 A 
HETATM   13  C   UNK     0      10.106  -2.046  22.335  0.00  0.00     0.090 A 
HETATM   14  C   UNK     0      10.307  -2.707  21.185  0.00  0.00     0.094 A 
HETATM   15  C   UNK     0      10.703  -1.955  19.977  0.00  0.00     0.190 A 
HETATM   16  O   UNK     0      10.894  -2.520  18.908  0.00  0.00    -0.287 OA
HETATM   17  C   UNK     0      11.216   0.304  19.054  0.00  0.00     0.118 A 
HETATM   18  C   UNK     0      11.349   1.680  19.235  0.00  0.00     0.134 A 
BRANCH  13  19
HETATM   19  C   UNK     0       9.718  -2.746  23.577  0.00  0.00    -0.002 A 
HETATM   20  C   UNK     0       8.646  -2.278  24.341  0.00  0.00     0.014 A 
HETATM   21  C   UNK     0       8.280  -2.941  25.513  0.00  0.00     0.001 A 
HETATM   22  C   UNK     0       8.983  -4.072  25.924  0.00  0.00     0.000 A 
HETATM   23  C   UNK     0      10.055  -4.542  25.164  0.00  0.00     0.001 A 
HETATM   24  C   UNK     0      10.421  -3.879  23.992  0.00  0.00     0.014 A 
ENDBRANCH  13  19
BRANCH  17  25
HETATM   25  O   UNK     0      11.452  -0.215  17.816  0.00  0.00    -0.357 OA
HETATM   26  H   UNK     0      12.091   0.329  17.331  0.00  0.00     0.217 HD
ENDBRANCH  17  25
BRANCH  18  27
HETATM   27  O   UNK     0      11.708   2.476  18.186  0.00  0.00    -0.356 OA
HETATM   28  H   UNK     0      12.271   3.194  18.523  0.00  0.00     0.218 HD
ENDBRANCH  18  27
ENDBRANCH   7   8
ENDBRANCH   5   7
BRANCH   6  29
HETATM   29  C   UNK     0      13.943   4.997  24.140  0.00  0.00     0.172 C 
HETATM   30  O   UNK     0      13.909   6.073  24.718  0.00  0.00    -0.648 OA
BRANCH  29  31
HETATM   31  O   UNK     0      13.933   3.794  24.765  0.00  0.00    -0.774 OA
HETATM   32  H   UNK     0      14.168   3.062  24.156  0.00  0.00     0.167 HD
ENDBRANCH  29  31
ENDBRANCH   6  29
BRANCH   3  33
HETATM   33  O   UNK     0      12.731   5.019  18.737  0.00  0.00    -0.388 OA
HETATM   34  H   UNK     0      12.638   5.843  18.232  0.00  0.00     0.210 HD
ENDBRANCH   3  33
BRANCH   4  35
HETATM   35  O   UNK     0      15.659   6.503  22.223  0.00  0.00    -0.390 OA
HETATM   36  H   UNK     0      15.977   5.962  22.967  0.00  0.00     0.210 HD
ENDBRANCH   4  35
BRANCH   2  37
HETATM   37  O   UNK     0      14.133   7.336  19.894  0.00  0.00    -0.390 OA
HETATM   38  H   UNK     0      13.501   7.359  19.157  0.00  0.00     0.210 HD
ENDBRANCH   2  37
TORSDOF 10
ENDMDL
