MODEL 1
REMARK VINA RESULT:      -8.8      0.000      0.000
REMARK  10 active torsions:
REMARK  status: ('A' for Active; 'I' for Inactive)
REMARK    1  A    between atoms: O_2  and  C_15 
REMARK    2  A    between atoms: O_2  and  C_18 
REMARK    3  A    between atoms: O_3  and  C_12 
REMARK    4  A    between atoms: O_4  and  C_13 
REMARK    5  A    between atoms: O_5  and  C_14 
REMARK    6  A    between atoms: O_6  and  C_17 
REMARK    7  A    between atoms: O_9  and  C_20 
REMARK    8  A    between atoms: O_10  and  C_23 
REMARK    9  A    between atoms: C_16  and  C_17 
REMARK   10  A    between atoms: C_25  and  C_27 
ROOT
HETATM    1  O   UNK     0      11.450  -1.179  19.212  0.00  0.00    -0.340 OA
HETATM    2  C   UNK     0       9.662  -0.971  16.972  0.00  0.00     0.183 C 
HETATM    3  C   UNK     0       9.657   0.038  18.120  0.00  0.00     0.205 C 
HETATM    4  C   UNK     0      10.998  -1.708  16.883  0.00  0.00     0.189 C 
HETATM    5  C   UNK     0      10.166  -0.595  19.416  0.00  0.00     0.299 C 
HETATM    6  C   UNK     0      11.421  -2.229  18.251  0.00  0.00     0.253 C 
ENDROOT
BRANCH   5   7
HETATM    7  O   UNK     0      10.256   0.433  20.403  0.00  0.00    -0.315 OA
BRANCH   7   8
HETATM    8  C   UNK     0       9.734   0.147  21.631  0.00  0.00     0.110 A 
HETATM    9  C   UNK     0       9.615  -1.184  22.030  0.00  0.00     0.078 A 
HETATM   10  C   UNK     0       9.083  -1.487  23.285  0.00  0.00     0.096 A 
HETATM   11  O   UNK     0       8.990  -2.813  23.621  0.00  0.00    -0.309 OA
HETATM   12  C   UNK     0       8.673  -0.460  24.133  0.00  0.00     0.084 A 
HETATM   13  C   UNK     0       8.473  -3.144  24.865  0.00  0.00     0.090 A 
HETATM   14  C   UNK     0       8.039  -2.248  25.765  0.00  0.00     0.094 A 
HETATM   15  C   UNK     0       8.115  -0.808  25.449  0.00  0.00     0.190 A 
HETATM   16  O   UNK     0       7.732   0.041  26.243  0.00  0.00    -0.287 OA
HETATM   17  C   UNK     0       8.791   0.874  23.737  0.00  0.00     0.118 A 
HETATM   18  C   UNK     0       9.323   1.174  22.482  0.00  0.00     0.134 A 
BRANCH  13  19
HETATM   19  C   UNK     0       8.413  -4.597  25.122  0.00  0.00    -0.002 A 
HETATM   20  C   UNK     0       7.281  -5.329  24.755  0.00  0.00     0.014 A 
HETATM   21  C   UNK     0       7.225  -6.702  24.998  0.00  0.00     0.001 A 
HETATM   22  C   UNK     0       8.301  -7.347  25.607  0.00  0.00     0.000 A 
HETATM   23  C   UNK     0       9.433  -6.619  25.975  0.00  0.00     0.001 A 
HETATM   24  C   UNK     0       9.489  -5.247  25.732  0.00  0.00     0.014 A 
ENDBRANCH  13  19
BRANCH  17  25
HETATM   25  O   UNK     0       8.401   1.904  24.540  0.00  0.00    -0.357 OA
HETATM   26  H   UNK     0       9.169   2.343  24.935  0.00  0.00     0.217 HD
ENDBRANCH  17  25
BRANCH  18  27
HETATM   27  O   UNK     0       9.443   2.474  22.084  0.00  0.00    -0.356 OA
HETATM   28  H   UNK     0       9.271   2.519  21.127  0.00  0.00     0.218 HD
ENDBRANCH  18  27
ENDBRANCH   7   8
ENDBRANCH   5   7
BRANCH   6  29
HETATM   29  C   UNK     0      12.834  -2.712  18.227  0.00  0.00     0.172 C 
HETATM   30  O   UNK     0      13.276  -3.552  17.457  0.00  0.00    -0.648 OA
BRANCH  29  31
HETATM   31  O   UNK     0      13.568  -2.093  19.183  0.00  0.00    -0.774 OA
HETATM   32  H   UNK     0      13.574  -2.596  20.025  0.00  0.00     0.167 HD
ENDBRANCH  29  31
ENDBRANCH   6  29
BRANCH   3  33
HETATM   33  O   UNK     0       8.324   0.499  18.341  0.00  0.00    -0.388 OA
HETATM   34  H   UNK     0       8.086   0.284  19.258  0.00  0.00     0.210 HD
ENDBRANCH   3  33
BRANCH   4  35
HETATM   35  O   UNK     0      10.862  -2.815  15.994  0.00  0.00    -0.390 OA
HETATM   36  H   UNK     0      11.574  -2.761  15.334  0.00  0.00     0.210 HD
ENDBRANCH   4  35
BRANCH   2  37
HETATM   37  O   UNK     0       9.450  -0.288  15.736  0.00  0.00    -0.390 OA
HETATM   38  H   UNK     0       9.208   0.630  15.944  0.00  0.00     0.210 HD
ENDBRANCH   2  37
TORSDOF 10
ENDMDL
MODEL 2
REMARK VINA RESULT:      -8.4      1.671      2.863
REMARK  10 active torsions:
REMARK  status: ('A' for Active; 'I' for Inactive)
REMARK    1  A    between atoms: O_2  and  C_15 
REMARK    2  A    between atoms: O_2  and  C_18 
REMARK    3  A    between atoms: O_3  and  C_12 
REMARK    4  A    between atoms: O_4  and  C_13 
REMARK    5  A    between atoms: O_5  and  C_14 
REMARK    6  A    between atoms: O_6  and  C_17 
REMARK    7  A    between atoms: O_9  and  C_20 
REMARK    8  A    between atoms: O_10  and  C_23 
REMARK    9  A    between atoms: C_16  and  C_17 
REMARK   10  A    between atoms: C_25  and  C_27 
ROOT
HETATM    1  O   UNK     0      10.496   0.388  19.527  0.00  0.00    -0.340 OA
HETATM    2  C   UNK     0      11.283   3.079  18.899  0.00  0.00     0.183 C 
HETATM    3  C   UNK     0      11.713   2.381  20.189  0.00  0.00     0.205 C 
HETATM    4  C   UNK     0      10.899   2.069  17.818  0.00  0.00     0.189 C 
HETATM    5  C   UNK     0      10.705   1.305  20.598  0.00  0.00     0.299 C 
HETATM    6  C   UNK     0       9.947   1.017  18.375  0.00  0.00     0.253 C 
ENDROOT
BRANCH   5   7
HETATM    7  O   UNK     0      11.235   0.613  21.729  0.00  0.00    -0.315 OA
BRANCH   7   8
HETATM    8  C   UNK     0      10.333   0.176  22.654  0.00  0.00     0.110 A 
HETATM    9  C   UNK     0      10.268  -1.185  22.955  0.00  0.00     0.078 A 
HETATM   10  C   UNK     0       9.349  -1.643  23.901  0.00  0.00     0.096 A 
HETATM   11  O   UNK     0       9.331  -2.991  24.154  0.00  0.00    -0.309 OA
HETATM   12  C   UNK     0       8.500  -0.741  24.540  0.00  0.00     0.084 A 
HETATM   13  C   UNK     0       8.433  -3.474  25.094  0.00  0.00     0.090 A 
HETATM   14  C   UNK     0       7.563  -2.709  25.771  0.00  0.00     0.094 A 
HETATM   15  C   UNK     0       7.540  -1.252  25.530  0.00  0.00     0.190 A 
HETATM   16  O   UNK     0       6.763  -0.518  26.128  0.00  0.00    -0.287 OA
HETATM   17  C   UNK     0       8.562   0.622  24.241  0.00  0.00     0.118 A 
HETATM   18  C   UNK     0       9.482   1.077  23.296  0.00  0.00     0.134 A 
BRANCH  13  19
HETATM   19  C   UNK     0       8.495  -4.937  25.286  0.00  0.00    -0.002 A 
HETATM   20  C   UNK     0       9.669  -5.535  25.752  0.00  0.00     0.014 A 
HETATM   21  C   UNK     0       9.727  -6.917  25.934  0.00  0.00     0.001 A 
HETATM   22  C   UNK     0       8.611  -7.705  25.653  0.00  0.00     0.000 A 
HETATM   23  C   UNK     0       7.438  -7.112  25.188  0.00  0.00     0.001 A 
HETATM   24  C   UNK     0       7.380  -5.730  25.005  0.00  0.00     0.014 A 
ENDBRANCH  13  19
BRANCH  17  25
HETATM   25  O   UNK     0       7.748   1.532  24.846  0.00  0.00    -0.357 OA
HETATM   26  H   UNK     0       7.269   1.128  25.585  0.00  0.00     0.217 HD
ENDBRANCH  17  25
BRANCH  18  27
HETATM   27  O   UNK     0       9.552   2.406  22.995  0.00  0.00    -0.356 OA
HETATM   28  H   UNK     0       8.662   2.714  22.750  0.00  0.00     0.218 HD
ENDBRANCH  18  27
ENDBRANCH   7   8
ENDBRANCH   5   7
BRANCH   6  29
HETATM   29  C   UNK     0       9.778  -0.114  17.413  0.00  0.00     0.172 C 
HETATM   30  O   UNK     0       9.200  -0.042  16.339  0.00  0.00    -0.648 OA
BRANCH  29  31
HETATM   31  O   UNK     0      10.353  -1.242  17.896  0.00  0.00    -0.774 OA
HETATM   32  H   UNK     0       9.689  -1.936  18.095  0.00  0.00     0.167 HD
ENDBRANCH  29  31
ENDBRANCH   6  29
BRANCH   3  33
HETATM   33  O   UNK     0      11.795   3.341  21.243  0.00  0.00    -0.388 OA
HETATM   34  H   UNK     0      12.065   2.870  22.049  0.00  0.00     0.210 HD
ENDBRANCH   3  33
BRANCH   4  35
HETATM   35  O   UNK     0      10.251   2.753  16.748  0.00  0.00    -0.390 OA
HETATM   36  H   UNK     0      10.851   3.448  16.426  0.00  0.00     0.210 HD
ENDBRANCH   4  35
BRANCH   2  37
HETATM   37  O   UNK     0      12.364   3.870  18.402  0.00  0.00    -0.390 OA
HETATM   38  H   UNK     0      12.123   4.804  18.517  0.00  0.00     0.210 HD
ENDBRANCH   2  37
TORSDOF 10
ENDMDL
MODEL 3
REMARK VINA RESULT:      -7.9      1.114      2.764
REMARK  10 active torsions:
REMARK  status: ('A' for Active; 'I' for Inactive)
REMARK    1  A    between atoms: O_2  and  C_15 
REMARK    2  A    between atoms: O_2  and  C_18 
REMARK    3  A    between atoms: O_3  and  C_12 
REMARK    4  A    between atoms: O_4  and  C_13 
REMARK    5  A    between atoms: O_5  and  C_14 
REMARK    6  A    between atoms: O_6  and  C_17 
REMARK    7  A    between atoms: O_9  and  C_20 
REMARK    8  A    between atoms: O_10  and  C_23 
REMARK    9  A    between atoms: C_16  and  C_17 
REMARK   10  A    between atoms: C_25  and  C_27 
ROOT
HETATM    1  O   UNK     0      10.876  -0.036  18.976  0.00  0.00    -0.340 OA
HETATM    2  C   UNK     0      12.020  -2.482  17.995  0.00  0.00     0.183 C 
HETATM    3  C   UNK     0      12.381  -1.900  19.362  0.00  0.00     0.205 C 
HETATM    4  C   UNK     0      10.670  -1.959  17.504  0.00  0.00     0.189 C 
HETATM    5  C   UNK     0      12.198  -0.382  19.382  0.00  0.00     0.299 C 
HETATM    6  C   UNK     0      10.596  -0.443  17.642  0.00  0.00     0.253 C 
ENDROOT
BRANCH   5   7
HETATM    7  O   UNK     0      12.426   0.071  20.717  0.00  0.00    -0.315 OA
BRANCH   7   8
HETATM    8  C   UNK     0      11.379  -0.032  21.585  0.00  0.00     0.110 A 
HETATM    9  C   UNK     0      11.077  -1.272  22.147  0.00  0.00     0.078 A 
HETATM   10  C   UNK     0      10.008  -1.389  23.037  0.00  0.00     0.096 A 
HETATM   11  O   UNK     0       9.759  -2.634  23.557  0.00  0.00    -0.309 OA
HETATM   12  C   UNK     0       9.246  -0.268  23.360  0.00  0.00     0.084 A 
HETATM   13  C   UNK     0       8.707  -2.778  24.449  0.00  0.00     0.090 A 
HETATM   14  C   UNK     0       7.899  -1.778  24.833  0.00  0.00     0.094 A 
HETATM   15  C   UNK     0       8.123  -0.420  24.298  0.00  0.00     0.190 A 
HETATM   16  O   UNK     0       7.411   0.520  24.625  0.00  0.00    -0.287 OA
HETATM   17  C   UNK     0       9.545   0.976  22.799  0.00  0.00     0.118 A 
HETATM   18  C   UNK     0      10.614   1.089  21.910  0.00  0.00     0.134 A 
BRANCH  13  19
HETATM   19  C   UNK     0       8.525  -4.158  24.943  0.00  0.00    -0.002 A 
HETATM   20  C   UNK     0       9.552  -4.792  25.648  0.00  0.00     0.014 A 
HETATM   21  C   UNK     0       9.379  -6.095  26.115  0.00  0.00     0.001 A 
HETATM   22  C   UNK     0       8.180  -6.768  25.881  0.00  0.00     0.000 A 
HETATM   23  C   UNK     0       7.153  -6.138  25.178  0.00  0.00     0.001 A 
HETATM   24  C   UNK     0       7.326  -4.835  24.710  0.00  0.00     0.014 A 
ENDBRANCH  13  19
BRANCH  17  25
HETATM   25  O   UNK     0       8.822   2.094  23.092  0.00  0.00    -0.357 OA
HETATM   26  H   UNK     0       9.316   2.895  22.860  0.00  0.00     0.217 HD
ENDBRANCH  17  25
BRANCH  18  27
HETATM   27  O   UNK     0      10.917   2.299  21.355  0.00  0.00    -0.356 OA
HETATM   28  H   UNK     0      10.797   2.234  20.392  0.00  0.00     0.218 HD
ENDBRANCH  18  27
ENDBRANCH   7   8
ENDBRANCH   5   7
BRANCH   6  29
HETATM   29  C   UNK     0       9.202   0.047  17.419  0.00  0.00     0.172 C 
HETATM   30  O   UNK     0       8.378   0.243  18.300  0.00  0.00    -0.648 OA
BRANCH  29  31
HETATM   31  O   UNK     0       8.969   0.243  16.098  0.00  0.00    -0.774 OA
HETATM   32  H   UNK     0       8.452   1.061  15.935  0.00  0.00     0.167 HD
ENDBRANCH  29  31
ENDBRANCH   6  29
BRANCH   3  33
HETATM   33  O   UNK     0      13.748  -2.190  19.655  0.00  0.00    -0.388 OA
HETATM   34  H   UNK     0      13.769  -2.998  20.194  0.00  0.00     0.210 HD
ENDBRANCH   3  33
BRANCH   4  35
HETATM   35  O   UNK     0      10.509  -2.302  16.130  0.00  0.00    -0.390 OA
HETATM   36  H   UNK     0       9.558  -2.283  15.924  0.00  0.00     0.210 HD
ENDBRANCH   4  35
BRANCH   2  37
HETATM   37  O   UNK     0      11.935  -3.905  18.090  0.00  0.00    -0.390 OA
HETATM   38  H   UNK     0      12.781  -4.272  17.784  0.00  0.00     0.210 HD
ENDBRANCH   2  37
TORSDOF 10
ENDMDL
MODEL 4
REMARK VINA RESULT:      -7.8      2.904      8.801
REMARK  10 active torsions:
REMARK  status: ('A' for Active; 'I' for Inactive)
REMARK    1  A    between atoms: O_2  and  C_15 
REMARK    2  A    between atoms: O_2  and  C_18 
REMARK    3  A    between atoms: O_3  and  C_12 
REMARK    4  A    between atoms: O_4  and  C_13 
REMARK    5  A    between atoms: O_5  and  C_14 
REMARK    6  A    between atoms: O_6  and  C_17 
REMARK    7  A    between atoms: O_9  and  C_20 
REMARK    8  A    between atoms: O_10  and  C_23 
REMARK    9  A    between atoms: C_16  and  C_17 
REMARK   10  A    between atoms: C_25  and  C_27 
ROOT
HETATM    1  O   UNK     0       9.746  -2.204  24.419  0.00  0.00    -0.340 OA
HETATM    2  C   UNK     0       8.753  -4.877  24.772  0.00  0.00     0.183 C 
HETATM    3  C   UNK     0      10.027  -4.574  23.982  0.00  0.00     0.205 C 
HETATM    4  C   UNK     0       8.419  -3.748  25.747  0.00  0.00     0.189 C 
HETATM    5  C   UNK     0       9.991  -3.164  23.393  0.00  0.00     0.299 C 
HETATM    6  C   UNK     0       8.484  -2.395  25.049  0.00  0.00     0.253 C 
ENDROOT
BRANCH   5   7
HETATM    7  O   UNK     0      11.257  -2.908  22.785  0.00  0.00    -0.315 OA
BRANCH   7   8
HETATM    8  C   UNK     0      11.249  -2.140  21.658  0.00  0.00     0.110 A 
HETATM    9  C   UNK     0      11.336  -0.753  21.774  0.00  0.00     0.078 A 
HETATM   10  C   UNK     0      11.329   0.042  20.627  0.00  0.00     0.096 A 
HETATM   11  O   UNK     0      11.417   1.399  20.804  0.00  0.00    -0.309 OA
HETATM   12  C   UNK     0      11.234  -0.552  19.370  0.00  0.00     0.084 A 
HETATM   13  C   UNK     0      11.419   2.213  19.682  0.00  0.00     0.090 A 
HETATM   14  C   UNK     0      11.328   1.762  18.421  0.00  0.00     0.094 A 
HETATM   15  C   UNK     0      11.227   0.309  18.177  0.00  0.00     0.190 A 
HETATM   16  O   UNK     0      11.144  -0.144  17.043  0.00  0.00    -0.287 OA
HETATM   17  C   UNK     0      11.147  -1.941  19.249  0.00  0.00     0.118 A 
HETATM   18  C   UNK     0      11.154  -2.733  20.398  0.00  0.00     0.134 A 
BRANCH  13  19
HETATM   19  C   UNK     0      11.513   3.655  19.987  0.00  0.00    -0.002 A 
HETATM   20  C   UNK     0      11.457   4.595  18.954  0.00  0.00     0.014 A 
HETATM   21  C   UNK     0      11.544   5.958  19.243  0.00  0.00     0.001 A 
HETATM   22  C   UNK     0      11.686   6.384  20.563  0.00  0.00     0.000 A 
HETATM   23  C   UNK     0      11.742   5.448  21.596  0.00  0.00     0.001 A 
HETATM   24  C   UNK     0      11.655   4.086  21.308  0.00  0.00     0.014 A 
ENDBRANCH  13  19
BRANCH  17  25
HETATM   25  O   UNK     0      11.053  -2.557  18.036  0.00  0.00    -0.357 OA
HETATM   26  H   UNK     0      10.419  -2.098  17.465  0.00  0.00     0.217 HD
ENDBRANCH  17  25
BRANCH  18  27
HETATM   27  O   UNK     0      11.069  -4.091  20.292  0.00  0.00    -0.356 OA
HETATM   28  H   UNK     0      10.306  -4.309  19.729  0.00  0.00     0.218 HD
ENDBRANCH  18  27
ENDBRANCH   7   8
ENDBRANCH   5   7
BRANCH   6  29
HETATM   29  C   UNK     0       8.424  -1.278  26.040  0.00  0.00     0.172 C 
HETATM   30  O   UNK     0       9.381  -0.833  26.656  0.00  0.00    -0.648 OA
BRANCH  29  31
HETATM   31  O   UNK     0       7.154  -0.821  26.169  0.00  0.00    -0.774 OA
HETATM   32  H   UNK     0       6.652  -0.892  25.329  0.00  0.00     0.167 HD
ENDBRANCH  29  31
ENDBRANCH   6  29
BRANCH   3  33
HETATM   33  O   UNK     0      10.150  -5.505  22.907  0.00  0.00    -0.388 OA
HETATM   34  H   UNK     0       9.253  -5.744  22.620  0.00  0.00     0.210 HD
ENDBRANCH   3  33
BRANCH   4  35
HETATM   35  O   UNK     0       7.099  -3.941  26.249  0.00  0.00    -0.390 OA
HETATM   36  H   UNK     0       6.918  -3.238  26.897  0.00  0.00     0.210 HD
ENDBRANCH   4  35
BRANCH   2  37
HETATM   37  O   UNK     0       8.935  -6.075  25.528  0.00  0.00    -0.390 OA
HETATM   38  H   UNK     0       9.818  -6.038  25.932  0.00  0.00     0.210 HD
ENDBRANCH   2  37
TORSDOF 10
ENDMDL
MODEL 5
REMARK VINA RESULT:      -7.8      5.956     10.025
REMARK  10 active torsions:
REMARK  status: ('A' for Active; 'I' for Inactive)
REMARK    1  A    between atoms: O_2  and  C_15 
REMARK    2  A    between atoms: O_2  and  C_18 
REMARK    3  A    between atoms: O_3  and  C_12 
REMARK    4  A    between atoms: O_4  and  C_13 
REMARK    5  A    between atoms: O_5  and  C_14 
REMARK    6  A    between atoms: O_6  and  C_17 
REMARK    7  A    between atoms: O_9  and  C_20 
REMARK    8  A    between atoms: O_10  and  C_23 
REMARK    9  A    between atoms: C_16  and  C_17 
REMARK   10  A    between atoms: C_25  and  C_27 
ROOT
HETATM    1  O   UNK     0      10.393   1.878  19.160  0.00  0.00    -0.340 OA
HETATM    2  C   UNK     0      10.362  -0.681  20.467  0.00  0.00     0.183 C 
HETATM    3  C   UNK     0      10.417   0.635  21.244  0.00  0.00     0.205 C 
HETATM    4  C   UNK     0       9.796  -0.476  19.062  0.00  0.00     0.189 C 
HETATM    5  C   UNK     0      11.062   1.743  20.411  0.00  0.00     0.299 C 
HETATM    6  C   UNK     0      10.479   0.698  18.370  0.00  0.00     0.253 C 
ENDROOT
BRANCH   5   7
HETATM    7  O   UNK     0      10.961   2.963  21.147  0.00  0.00    -0.315 OA
BRANCH   7   8
HETATM    8  C   UNK     0      12.003   3.836  21.029  0.00  0.00     0.110 A 
HETATM    9  C   UNK     0      12.497   4.143  19.761  0.00  0.00     0.078 A 
HETATM   10  C   UNK     0      13.562   5.036  19.629  0.00  0.00     0.096 A 
HETATM   11  O   UNK     0      14.005   5.299  18.358  0.00  0.00    -0.309 OA
HETATM   12  C   UNK     0      14.129   5.615  20.763  0.00  0.00     0.084 A 
HETATM   13  C   UNK     0      15.057   6.187  18.197  0.00  0.00     0.090 A 
HETATM   14  C   UNK     0      15.688   6.803  19.208  0.00  0.00     0.094 A 
HETATM   15  C   UNK     0      15.252   6.550  20.596  0.00  0.00     0.190 A 
HETATM   16  O   UNK     0      15.799   7.093  21.546  0.00  0.00    -0.287 OA
HETATM   17  C   UNK     0      13.637   5.309  22.034  0.00  0.00     0.118 A 
HETATM   18  C   UNK     0      12.572   4.417  22.163  0.00  0.00     0.134 A 
BRANCH  13  19
HETATM   19  C   UNK     0      15.456   6.394  16.789  0.00  0.00    -0.002 A 
HETATM   20  C   UNK     0      16.180   5.408  16.113  0.00  0.00     0.014 A 
HETATM   21  C   UNK     0      16.555   5.604  14.784  0.00  0.00     0.001 A 
HETATM   22  C   UNK     0      16.209   6.785  14.127  0.00  0.00     0.000 A 
HETATM   23  C   UNK     0      15.487   7.771  14.799  0.00  0.00     0.001 A 
HETATM   24  C   UNK     0      15.111   7.575  16.129  0.00  0.00     0.014 A 
ENDBRANCH  13  19
BRANCH  17  25
HETATM   25  O   UNK     0      14.166   5.856  23.165  0.00  0.00    -0.357 OA
HETATM   26  H   UNK     0      13.465   6.124  23.779  0.00  0.00     0.217 HD
ENDBRANCH  17  25
BRANCH  18  27
HETATM   27  O   UNK     0      12.082   4.110  23.399  0.00  0.00    -0.356 OA
HETATM   28  H   UNK     0      11.638   4.898  23.759  0.00  0.00     0.218 HD
ENDBRANCH  18  27
ENDBRANCH   7   8
ENDBRANCH   5   7
BRANCH   6  29
HETATM   29  C   UNK     0       9.759   1.071  17.115  0.00  0.00     0.172 C 
HETATM   30  O   UNK     0       8.997   0.341  16.499  0.00  0.00    -0.648 OA
BRANCH  29  31
HETATM   31  O   UNK     0      10.068   2.338  16.745  0.00  0.00    -0.774 OA
HETATM   32  H   UNK     0       9.326   2.775  16.275  0.00  0.00     0.167 HD
ENDBRANCH  29  31
ENDBRANCH   6  29
BRANCH   3  33
HETATM   33  O   UNK     0      11.194   0.454  22.428  0.00  0.00    -0.388 OA
HETATM   34  H   UNK     0      10.821  -0.300  22.913  0.00  0.00     0.210 HD
ENDBRANCH   3  33
BRANCH   4  35
HETATM   35  O   UNK     0      10.021  -1.655  18.292  0.00  0.00    -0.390 OA
HETATM   36  H   UNK     0       9.190  -2.160  18.263  0.00  0.00     0.210 HD
ENDBRANCH   4  35
BRANCH   2  37
HETATM   37  O   UNK     0       9.518  -1.605  21.154  0.00  0.00    -0.390 OA
HETATM   38  H   UNK     0      10.084  -2.300  21.528  0.00  0.00     0.210 HD
ENDBRANCH   2  37
TORSDOF 10
ENDMDL
MODEL 6
REMARK VINA RESULT:      -7.7      3.014      7.661
REMARK  10 active torsions:
REMARK  status: ('A' for Active; 'I' for Inactive)
REMARK    1  A    between atoms: O_2  and  C_15 
REMARK    2  A    between atoms: O_2  and  C_18 
REMARK    3  A    between atoms: O_3  and  C_12 
REMARK    4  A    between atoms: O_4  and  C_13 
REMARK    5  A    between atoms: O_5  and  C_14 
REMARK    6  A    between atoms: O_6  and  C_17 
REMARK    7  A    between atoms: O_9  and  C_20 
REMARK    8  A    between atoms: O_10  and  C_23 
REMARK    9  A    between atoms: C_16  and  C_17 
REMARK   10  A    between atoms: C_25  and  C_27 
ROOT
HETATM    1  O   UNK     0      10.621  -5.686  23.787  0.00  0.00    -0.340 OA
HETATM    2  C   UNK     0      10.644  -6.918  26.383  0.00  0.00     0.183 C 
HETATM    3  C   UNK     0       9.434  -6.149  25.852  0.00  0.00     0.205 C 
HETATM    4  C   UNK     0      11.542  -7.400  25.244  0.00  0.00     0.189 C 
HETATM    5  C   UNK     0       9.855  -5.091  24.832  0.00  0.00     0.299 C 
HETATM    6  C   UNK     0      11.829  -6.267  24.266  0.00  0.00     0.253 C 
ENDROOT
BRANCH   5   7
HETATM    7  O   UNK     0       8.670  -4.507  24.289  0.00  0.00    -0.315 OA
BRANCH   7   8
HETATM    8  C   UNK     0       8.600  -3.145  24.301  0.00  0.00     0.110 A 
HETATM    9  C   UNK     0       9.292  -2.415  23.334  0.00  0.00     0.078 A 
HETATM   10  C   UNK     0       9.226  -1.021  23.337  0.00  0.00     0.096 A 
HETATM   11  O   UNK     0       9.927  -0.359  22.362  0.00  0.00    -0.309 OA
HETATM   12  C   UNK     0       8.471  -0.363  24.307  0.00  0.00     0.084 A 
HETATM   13  C   UNK     0       9.875   1.027  22.337  0.00  0.00     0.090 A 
HETATM   14  C   UNK     0       9.189   1.773  23.217  0.00  0.00     0.094 A 
HETATM   15  C   UNK     0       8.421   1.107  24.288  0.00  0.00     0.190 A 
HETATM   16  O   UNK     0       7.781   1.751  25.109  0.00  0.00    -0.287 OA
HETATM   17  C   UNK     0       7.777  -1.089  25.277  0.00  0.00     0.118 A 
HETATM   18  C   UNK     0       7.845  -2.483  25.270  0.00  0.00     0.134 A 
BRANCH  13  19
HETATM   19  C   UNK     0      10.668   1.637  21.251  0.00  0.00    -0.002 A 
HETATM   20  C   UNK     0      10.967   0.901  20.101  0.00  0.00     0.014 A 
HETATM   21  C   UNK     0      11.715   1.479  19.075  0.00  0.00     0.001 A 
HETATM   22  C   UNK     0      12.166   2.793  19.194  0.00  0.00     0.000 A 
HETATM   23  C   UNK     0      11.870   3.531  20.341  0.00  0.00     0.001 A 
HETATM   24  C   UNK     0      11.121   2.953  21.367  0.00  0.00     0.014 A 
ENDBRANCH  13  19
BRANCH  17  25
HETATM   25  O   UNK     0       7.029  -0.479  26.239  0.00  0.00    -0.357 OA
HETATM   26  H   UNK     0       7.135  -0.926  27.093  0.00  0.00     0.217 HD
ENDBRANCH  17  25
BRANCH  18  27
HETATM   27  O   UNK     0       7.171  -3.204  26.213  0.00  0.00    -0.356 OA
HETATM   28  H   UNK     0       7.631  -4.052  26.338  0.00  0.00     0.218 HD
ENDBRANCH  18  27
ENDBRANCH   7   8
ENDBRANCH   5   7
BRANCH   6  29
HETATM   29  C   UNK     0      12.476  -6.785  23.023  0.00  0.00     0.172 C 
HETATM   30  O   UNK     0      12.774  -7.952  22.820  0.00  0.00    -0.648 OA
BRANCH  29  31
HETATM   31  O   UNK     0      12.695  -5.778  22.142  0.00  0.00    -0.774 OA
HETATM   32  H   UNK     0      13.362  -5.139  22.473  0.00  0.00     0.167 HD
ENDBRANCH  29  31
ENDBRANCH   6  29
BRANCH   3  33
HETATM   33  O   UNK     0       8.779  -5.489  26.936  0.00  0.00    -0.388 OA
HETATM   34  H   UNK     0       8.109  -6.098  27.291  0.00  0.00     0.210 HD
ENDBRANCH   3  33
BRANCH   4  35
HETATM   35  O   UNK     0      12.778  -7.860  25.787  0.00  0.00    -0.390 OA
HETATM   36  H   UNK     0      13.498  -7.507  25.237  0.00  0.00     0.210 HD
ENDBRANCH   4  35
BRANCH   2  37
HETATM   37  O   UNK     0      10.198  -8.064  27.110  0.00  0.00    -0.390 OA
HETATM   38  H   UNK     0       9.250  -7.949  27.289  0.00  0.00     0.210 HD
ENDBRANCH   2  37
TORSDOF 10
ENDMDL
MODEL 7
REMARK VINA RESULT:      -7.7      5.382      8.943
REMARK  10 active torsions:
REMARK  status: ('A' for Active; 'I' for Inactive)
REMARK    1  A    between atoms: O_2  and  C_15 
REMARK    2  A    between atoms: O_2  and  C_18 
REMARK    3  A    between atoms: O_3  and  C_12 
REMARK    4  A    between atoms: O_4  and  C_13 
REMARK    5  A    between atoms: O_5  and  C_14 
REMARK    6  A    between atoms: O_6  and  C_17 
REMARK    7  A    between atoms: O_9  and  C_20 
REMARK    8  A    between atoms: O_10  and  C_23 
REMARK    9  A    between atoms: C_16  and  C_17 
REMARK   10  A    between atoms: C_25  and  C_27 
ROOT
HETATM    1  O   UNK     0      13.486   2.275  25.490  0.00  0.00    -0.340 OA
HETATM    2  C   UNK     0      14.685   4.317  27.118  0.00  0.00     0.183 C 
HETATM    3  C   UNK     0      13.336   4.509  26.424  0.00  0.00     0.205 C 
HETATM    4  C   UNK     0      15.015   2.835  27.296  0.00  0.00     0.189 C 
HETATM    5  C   UNK     0      13.230   3.640  25.171  0.00  0.00     0.299 C 
HETATM    6  C   UNK     0      14.803   2.074  25.992  0.00  0.00     0.253 C 
ENDROOT
BRANCH   5   7
HETATM    7  O   UNK     0      11.906   3.773  24.653  0.00  0.00    -0.315 OA
BRANCH   7   8
HETATM    8  C   UNK     0      11.787   3.876  23.298  0.00  0.00     0.110 A 
HETATM    9  C   UNK     0      11.602   2.721  22.538  0.00  0.00     0.078 A 
HETATM   10  C   UNK     0      11.479   2.815  21.151  0.00  0.00     0.096 A 
HETATM   11  O   UNK     0      11.300   1.645  20.458  0.00  0.00    -0.309 OA
HETATM   12  C   UNK     0      11.543   4.061  20.530  0.00  0.00     0.084 A 
HETATM   13  C   UNK     0      11.168   1.709  19.079  0.00  0.00     0.090 A 
HETATM   14  C   UNK     0      11.217   2.845  18.367  0.00  0.00     0.094 A 
HETATM   15  C   UNK     0      11.412   4.130  19.066  0.00  0.00     0.190 A 
HETATM   16  O   UNK     0      11.460   5.189  18.455  0.00  0.00    -0.287 OA
HETATM   17  C   UNK     0      11.727   5.220  21.287  0.00  0.00     0.118 A 
HETATM   18  C   UNK     0      11.850   5.122  22.673  0.00  0.00     0.134 A 
BRANCH  13  19
HETATM   19  C   UNK     0      10.984   0.393  18.433  0.00  0.00    -0.002 A 
HETATM   20  C   UNK     0      11.603  -0.742  18.964  0.00  0.00     0.014 A 
HETATM   21  C   UNK     0      11.428  -1.985  18.354  0.00  0.00     0.001 A 
HETATM   22  C   UNK     0      10.635  -2.097  17.212  0.00  0.00     0.000 A 
HETATM   23  C   UNK     0      10.017  -0.965  16.679  0.00  0.00     0.001 A 
HETATM   24  C   UNK     0      10.191   0.277  17.289  0.00  0.00     0.014 A 
ENDBRANCH  13  19
BRANCH  17  25
HETATM   25  O   UNK     0      11.793   6.455  20.714  0.00  0.00    -0.357 OA
HETATM   26  H   UNK     0      10.908   6.837  20.615  0.00  0.00     0.217 HD
ENDBRANCH  17  25
BRANCH  18  27
HETATM   27  O   UNK     0      12.031   6.248  23.424  0.00  0.00    -0.356 OA
HETATM   28  H   UNK     0      12.254   6.983  22.827  0.00  0.00     0.218 HD
ENDBRANCH  18  27
ENDBRANCH   7   8
ENDBRANCH   5   7
BRANCH   6  29
HETATM   29  C   UNK     0      14.864   0.599  26.218  0.00  0.00     0.172 C 
HETATM   30  O   UNK     0      15.130  -0.232  25.362  0.00  0.00    -0.648 OA
BRANCH  29  31
HETATM   31  O   UNK     0      14.578   0.300  27.508  0.00  0.00    -0.774 OA
HETATM   32  H   UNK     0      15.117   0.828  28.135  0.00  0.00     0.167 HD
ENDBRANCH  29  31
ENDBRANCH   6  29
BRANCH   3  33
HETATM   33  O   UNK     0      13.194   5.876  26.034  0.00  0.00    -0.388 OA
HETATM   34  H   UNK     0      12.394   6.223  26.462  0.00  0.00     0.210 HD
ENDBRANCH   3  33
BRANCH   4  35
HETATM   35  O   UNK     0      16.380   2.704  27.685  0.00  0.00    -0.390 OA
HETATM   36  H   UNK     0      16.935   2.960  26.929  0.00  0.00     0.210 HD
ENDBRANCH   4  35
BRANCH   2  37
HETATM   37  O   UNK     0      14.645   4.920  28.413  0.00  0.00    -0.390 OA
HETATM   38  H   UNK     0      14.165   5.760  28.332  0.00  0.00     0.210 HD
ENDBRANCH   2  37
TORSDOF 10
ENDMDL
MODEL 8
REMARK VINA RESULT:      -7.5      2.243      8.422
REMARK  10 active torsions:
REMARK  status: ('A' for Active; 'I' for Inactive)
REMARK    1  A    between atoms: O_2  and  C_15 
REMARK    2  A    between atoms: O_2  and  C_18 
REMARK    3  A    between atoms: O_3  and  C_12 
REMARK    4  A    between atoms: O_4  and  C_13 
REMARK    5  A    between atoms: O_5  and  C_14 
REMARK    6  A    between atoms: O_6  and  C_17 
REMARK    7  A    between atoms: O_9  and  C_20 
REMARK    8  A    between atoms: O_10  and  C_23 
REMARK    9  A    between atoms: C_16  and  C_17 
REMARK   10  A    between atoms: C_25  and  C_27 
ROOT
HETATM    1  O   UNK     0       9.173  -1.508  24.141  0.00  0.00    -0.340 OA
HETATM    2  C   UNK     0       9.011  -4.313  24.741  0.00  0.00     0.183 C 
HETATM    3  C   UNK     0      10.130  -3.723  23.883  0.00  0.00     0.205 C 
HETATM    4  C   UNK     0       8.374  -3.250  25.635  0.00  0.00     0.189 C 
HETATM    5  C   UNK     0       9.674  -2.440  23.186  0.00  0.00     0.299 C 
HETATM    6  C   UNK     0       8.030  -2.002  24.831  0.00  0.00     0.253 C 
ENDROOT
BRANCH   5   7
HETATM    7  O   UNK     0      10.802  -1.880  22.512  0.00  0.00    -0.315 OA
BRANCH   7   8
HETATM    8  C   UNK     0      10.690  -1.723  21.162  0.00  0.00     0.110 A 
HETATM    9  C   UNK     0      11.451  -2.529  20.314  0.00  0.00     0.078 A 
HETATM   10  C   UNK     0      11.344  -2.377  18.931  0.00  0.00     0.096 A 
HETATM   11  O   UNK     0      12.117  -3.197  18.149  0.00  0.00    -0.309 OA
HETATM   12  C   UNK     0      10.479  -1.421  18.401  0.00  0.00     0.084 A 
HETATM   13  C   UNK     0      12.026  -3.073  16.771  0.00  0.00     0.090 A 
HETATM   14  C   UNK     0      11.236  -2.189  16.142  0.00  0.00     0.094 A 
HETATM   15  C   UNK     0      10.387  -1.280  16.940  0.00  0.00     0.190 A 
HETATM   16  O   UNK     0       9.652  -0.461  16.406  0.00  0.00    -0.287 OA
HETATM   17  C   UNK     0       9.716  -0.612  19.246  0.00  0.00     0.118 A 
HETATM   18  C   UNK     0       9.825  -0.767  20.628  0.00  0.00     0.134 A 
BRANCH  13  19
HETATM   19  C   UNK     0      12.903  -4.000  16.026  0.00  0.00    -0.002 A 
HETATM   20  C   UNK     0      13.998  -4.591  16.661  0.00  0.00     0.014 A 
HETATM   21  C   UNK     0      14.826  -5.467  15.957  0.00  0.00     0.001 A 
HETATM   22  C   UNK     0      14.560  -5.755  14.619  0.00  0.00     0.000 A 
HETATM   23  C   UNK     0      13.467  -5.166  13.982  0.00  0.00     0.001 A 
HETATM   24  C   UNK     0      12.640  -4.290  14.686  0.00  0.00     0.014 A 
ENDBRANCH  13  19
BRANCH  17  25
HETATM   25  O   UNK     0       8.860   0.333  18.764  0.00  0.00    -0.357 OA
HETATM   26  H   UNK     0       9.273   0.838  18.047  0.00  0.00     0.217 HD
ENDBRANCH  17  25
BRANCH  18  27
HETATM   27  O   UNK     0       9.084   0.018  21.465  0.00  0.00    -0.356 OA
HETATM   28  H   UNK     0       8.522  -0.559  22.011  0.00  0.00     0.218 HD
ENDBRANCH  18  27
ENDBRANCH   7   8
ENDBRANCH   5   7
BRANCH   6  29
HETATM   29  C   UNK     0       7.658  -0.870  25.732  0.00  0.00     0.172 C 
HETATM   30  O   UNK     0       8.372   0.088  25.987  0.00  0.00    -0.648 OA
BRANCH  29  31
HETATM   31  O   UNK     0       6.413  -1.050  26.237  0.00  0.00    -0.774 OA
HETATM   32  H   UNK     0       5.825  -1.519  25.606  0.00  0.00     0.167 HD
ENDBRANCH  29  31
ENDBRANCH   6  29
BRANCH   3  33
HETATM   33  O   UNK     0      10.506  -4.667  22.880  0.00  0.00    -0.388 OA
HETATM   34  H   UNK     0       9.715  -5.181  22.647  0.00  0.00     0.210 HD
ENDBRANCH   3  33
BRANCH   4  35
HETATM   35  O   UNK     0       7.174  -3.774  26.201  0.00  0.00    -0.390 OA
HETATM   36  H   UNK     0       6.804  -3.102  26.798  0.00  0.00     0.210 HD
ENDBRANCH   4  35
BRANCH   2  37
HETATM   37  O   UNK     0       9.546  -5.337  25.582  0.00  0.00    -0.390 OA
HETATM   38  H   UNK     0      10.068  -5.935  25.023  0.00  0.00     0.210 HD
ENDBRANCH   2  37
TORSDOF 10
ENDMDL
MODEL 9
REMARK VINA RESULT:      -7.5      1.911      2.750
REMARK  10 active torsions:
REMARK  status: ('A' for Active; 'I' for Inactive)
REMARK    1  A    between atoms: O_2  and  C_15 
REMARK    2  A    between atoms: O_2  and  C_18 
REMARK    3  A    between atoms: O_3  and  C_12 
REMARK    4  A    between atoms: O_4  and  C_13 
REMARK    5  A    between atoms: O_5  and  C_14 
REMARK    6  A    between atoms: O_6  and  C_17 
REMARK    7  A    between atoms: O_9  and  C_20 
REMARK    8  A    between atoms: O_10  and  C_23 
REMARK    9  A    between atoms: C_16  and  C_17 
REMARK   10  A    between atoms: C_25  and  C_27 
ROOT
HETATM    1  O   UNK     0      11.354  -2.187  19.376  0.00  0.00    -0.340 OA
HETATM    2  C   UNK     0       9.734  -0.200  18.078  0.00  0.00     0.183 C 
HETATM    3  C   UNK     0      10.119  -0.106  19.554  0.00  0.00     0.205 C 
HETATM    4  C   UNK     0      10.702  -1.095  17.304  0.00  0.00     0.189 C 
HETATM    5  C   UNK     0      10.379  -1.490  20.148  0.00  0.00     0.299 C 
HETATM    6  C   UNK     0      10.924  -2.412  18.038  0.00  0.00     0.253 C 
ENDROOT
BRANCH   5   7
HETATM    7  O   UNK     0      10.856  -1.315  21.482  0.00  0.00    -0.315 OA
BRANCH   7   8
HETATM    8  C   UNK     0      10.208  -2.012  22.460  0.00  0.00     0.110 A 
HETATM    9  C   UNK     0      10.461  -3.375  22.610  0.00  0.00     0.078 A 
HETATM   10  C   UNK     0       9.803  -4.097  23.607  0.00  0.00     0.096 A 
HETATM   11  O   UNK     0      10.092  -5.434  23.706  0.00  0.00    -0.309 OA
HETATM   12  C   UNK     0       8.896  -3.455  24.448  0.00  0.00     0.084 A 
HETATM   13  C   UNK     0       9.459  -6.175  24.692  0.00  0.00     0.090 A 
HETATM   14  C   UNK     0       8.564  -5.674  25.557  0.00  0.00     0.094 A 
HETATM   15  C   UNK     0       8.215  -4.240  25.489  0.00  0.00     0.190 A 
HETATM   16  O   UNK     0       7.406  -3.742  26.260  0.00  0.00    -0.287 OA
HETATM   17  C   UNK     0       8.640  -2.089  24.300  0.00  0.00     0.118 A 
HETATM   18  C   UNK     0       9.299  -1.371  23.303  0.00  0.00     0.134 A 
BRANCH  13  19
HETATM   19  C   UNK     0       9.839  -7.603  24.707  0.00  0.00    -0.002 A 
HETATM   20  C   UNK     0       9.441  -8.423  25.766  0.00  0.00     0.014 A 
HETATM   21  C   UNK     0       9.800  -9.772  25.779  0.00  0.00     0.001 A 
HETATM   22  C   UNK     0      10.556 -10.303  24.735  0.00  0.00     0.000 A 
HETATM   23  C   UNK     0      10.955  -9.487  23.677  0.00  0.00     0.001 A 
HETATM   24  C   UNK     0      10.597  -8.139  23.663  0.00  0.00     0.014 A 
ENDBRANCH  13  19
BRANCH  17  25
HETATM   25  O   UNK     0       7.760  -1.428  25.104  0.00  0.00    -0.357 OA
HETATM   26  H   UNK     0       7.117  -2.043  25.490  0.00  0.00     0.217 HD
ENDBRANCH  17  25
BRANCH  18  27
HETATM   27  O   UNK     0       9.057  -0.036  23.149  0.00  0.00    -0.356 OA
HETATM   28  H   UNK     0       8.190   0.167  23.541  0.00  0.00     0.218 HD
ENDBRANCH  18  27
ENDBRANCH   7   8
ENDBRANCH   5   7
BRANCH   6  29
HETATM   29  C   UNK     0      12.060  -3.175  17.437  0.00  0.00     0.172 C 
HETATM   30  O   UNK     0      12.295  -4.358  17.636  0.00  0.00    -0.648 OA
BRANCH  29  31
HETATM   31  O   UNK     0      12.804  -2.374  16.636  0.00  0.00    -0.774 OA
HETATM   32  H   UNK     0      13.043  -1.532  17.079  0.00  0.00     0.167 HD
ENDBRANCH  29  31
ENDBRANCH   6  29
BRANCH   3  33
HETATM   33  O   UNK     0       9.053   0.502  20.284  0.00  0.00    -0.388 OA
HETATM   34  H   UNK     0       9.077   0.149  21.189  0.00  0.00     0.210 HD
ENDBRANCH   3  33
BRANCH   4  35
HETATM   35  O   UNK     0      10.154  -1.374  16.018  0.00  0.00    -0.390 OA
HETATM   36  H   UNK     0       9.185  -1.348  16.091  0.00  0.00     0.210 HD
ENDBRANCH   4  35
BRANCH   2  37
HETATM   37  O   UNK     0       9.770   1.102  17.491  0.00  0.00    -0.390 OA
HETATM   38  H   UNK     0       9.526   1.742  18.180  0.00  0.00     0.210 HD
ENDBRANCH   2  37
TORSDOF 10
ENDMDL
MODEL 10
REMARK VINA RESULT:      -7.5      4.009      6.517
REMARK  10 active torsions:
REMARK  status: ('A' for Active; 'I' for Inactive)
REMARK    1  A    between atoms: O_2  and  C_15 
REMARK    2  A    between atoms: O_2  and  C_18 
REMARK    3  A    between atoms: O_3  and  C_12 
REMARK    4  A    between atoms: O_4  and  C_13 
REMARK    5  A    between atoms: O_5  and  C_14 
REMARK    6  A    between atoms: O_6  and  C_17 
REMARK    7  A    between atoms: O_9  and  C_20 
REMARK    8  A    between atoms: O_10  and  C_23 
REMARK    9  A    between atoms: C_16  and  C_17 
REMARK   10  A    between atoms: C_25  and  C_27 
ROOT
HETATM    1  O   UNK     0      12.679   4.377  22.313  0.00  0.00    -0.340 OA
HETATM    2  C   UNK     0      14.130   6.027  20.461  0.00  0.00     0.183 C 
HETATM    3  C   UNK     0      12.796   5.370  20.102  0.00  0.00     0.205 C 
HETATM    4  C   UNK     0      14.297   6.159  21.975  0.00  0.00     0.189 C 
HETATM    5  C   UNK     0      12.569   4.098  20.919  0.00  0.00     0.299 C 
HETATM    6  C   UNK     0      13.976   4.842  22.671  0.00  0.00     0.253 C 
ENDROOT
BRANCH   5   7
HETATM    7  O   UNK     0      11.257   3.615  20.627  0.00  0.00    -0.315 OA
BRANCH   7   8
HETATM    8  C   UNK     0      11.126   2.269  20.454  0.00  0.00     0.110 A 
HETATM    9  C   UNK     0      10.746   1.475  21.536  0.00  0.00     0.078 A 
HETATM   10  C   UNK     0      10.609   0.095  21.370  0.00  0.00     0.096 A 
HETATM   11  O   UNK     0      10.233  -0.633  22.470  0.00  0.00    -0.309 OA
HETATM   12  C   UNK     0      10.852  -0.483  20.126  0.00  0.00     0.084 A 
HETATM   13  C   UNK     0      10.082  -2.005  22.333  0.00  0.00     0.090 A 
HETATM   14  C   UNK     0      10.292  -2.678  21.191  0.00  0.00     0.094 A 
HETATM   15  C   UNK     0      10.702  -1.939  19.980  0.00  0.00     0.190 A 
HETATM   16  O   UNK     0      10.902  -2.515  18.918  0.00  0.00    -0.287 OA
HETATM   17  C   UNK     0      11.233   0.309  19.040  0.00  0.00     0.118 A 
HETATM   18  C   UNK     0      11.369   1.687  19.209  0.00  0.00     0.134 A 
BRANCH  13  19
HETATM   19  C   UNK     0       9.680  -2.691  23.578  0.00  0.00    -0.002 A 
HETATM   20  C   UNK     0       8.684  -2.144  24.390  0.00  0.00     0.014 A 
HETATM   21  C   UNK     0       8.304  -2.793  25.565  0.00  0.00     0.001 A 
HETATM   22  C   UNK     0       8.918  -3.991  25.931  0.00  0.00     0.000 A 
HETATM   23  C   UNK     0       9.914  -4.540  25.122  0.00  0.00     0.001 A 
HETATM   24  C   UNK     0      10.293  -3.890  23.947  0.00  0.00     0.014 A 
ENDBRANCH  13  19
BRANCH  17  25
HETATM   25  O   UNK     0      11.479  -0.223  17.809  0.00  0.00    -0.357 OA
HETATM   26  H   UNK     0      10.797  -0.869  17.571  0.00  0.00     0.217 HD
ENDBRANCH  17  25
BRANCH  18  27
HETATM   27  O   UNK     0      11.741   2.471  18.156  0.00  0.00    -0.356 OA
HETATM   28  H   UNK     0      10.983   2.553  17.551  0.00  0.00     0.218 HD
ENDBRANCH  18  27
ENDBRANCH   7   8
ENDBRANCH   5   7
BRANCH   6  29
HETATM   29  C   UNK     0      13.877   5.028  24.150  0.00  0.00     0.172 C 
HETATM   30  O   UNK     0      14.183   6.047  24.751  0.00  0.00    -0.648 OA
BRANCH  29  31
HETATM   31  O   UNK     0      13.402   3.906  24.744  0.00  0.00    -0.774 OA
HETATM   32  H   UNK     0      13.925   3.661  25.537  0.00  0.00     0.167 HD
ENDBRANCH  29  31
ENDBRANCH   6  29
BRANCH   3  33
HETATM   33  O   UNK     0      12.799   5.019  18.718  0.00  0.00    -0.388 OA
HETATM   34  H   UNK     0      12.419   4.128  18.640  0.00  0.00     0.210 HD
ENDBRANCH   3  33
BRANCH   4  35
HETATM   35  O   UNK     0      15.647   6.513  22.266  0.00  0.00    -0.390 OA
HETATM   36  H   UNK     0      16.204   6.210  21.528  0.00  0.00     0.210 HD
ENDBRANCH   4  35
BRANCH   2  37
HETATM   37  O   UNK     0      14.183   7.337  19.895  0.00  0.00    -0.390 OA
HETATM   38  H   UNK     0      13.485   7.396  19.222  0.00  0.00     0.210 HD
ENDBRANCH   2  37
TORSDOF 10
ENDMDL
