MODEL 1
REMARK VINA RESULT:      -3.8      0.000      0.000
REMARK  9 active torsions:
REMARK  status: ('A' for Active; 'I' for Inactive)
REMARK    1  A    between atoms: S_1  and  S_2 
REMARK    2  A    between atoms: S_1  and  C_15 
REMARK    3  A    between atoms: S_2  and  C_16 
REMARK    4  A    between atoms: N_5  and  C_7 
REMARK    5  A    between atoms: N_5  and  C_8 
REMARK    6  A    between atoms: N_5  and  C_15 
REMARK    7  A    between atoms: N_6  and  C_9 
REMARK    8  A    between atoms: N_6  and  C_10 
REMARK    9  A    between atoms: N_6  and  C_16 
ROOT
HETATM    1  S   MOL     1       9.655  -0.164  21.736  1.00  0.00    -0.020 SA
ENDROOT
BRANCH   1   2
HETATM    2  S   MOL     1       9.587  -2.004  22.665  1.00  0.00    -0.020 SA
BRANCH   2   3
HETATM    3  C   MOL     1       9.522  -1.535  24.379  1.00  0.00     0.147 C 
HETATM    4  S   MOL     1      10.931  -0.936  25.095  1.00  0.00    -0.052 SA
BRANCH   3   5
HETATM    5  N   MOL     1       8.274  -1.674  25.020  1.00  0.00    -0.367 N 
BRANCH   5   6
HETATM    6  C   MOL     1       7.562  -2.953  25.074  1.00  0.00     0.120 C 
HETATM    7  C   MOL     1       8.273  -3.947  25.967  1.00  0.00     0.026 C 
ENDBRANCH   5   6
BRANCH   5   8
HETATM    8  C   MOL     1       7.574  -0.585  25.708  1.00  0.00     0.120 C 
HETATM    9  C   MOL     1       7.325   0.586  24.782  1.00  0.00     0.026 C 
ENDBRANCH   5   8
ENDBRANCH   3   5
ENDBRANCH   2   3
ENDBRANCH   1   2
BRANCH   1  10
HETATM   10  C   MOL     1      10.838  -0.461  20.445  1.00  0.00     0.147 C 
HETATM   11  S   MOL     1      12.277  -1.254  20.847  1.00  0.00    -0.052 SA
BRANCH  10  12
HETATM   12  N   MOL     1      10.477  -0.030  19.153  1.00  0.00    -0.367 N 
BRANCH  12  13
HETATM   13  C   MOL     1      11.331   0.793  18.289  1.00  0.00     0.120 C 
HETATM   14  C   MOL     1      11.483   2.198  18.836  1.00  0.00     0.026 C 
ENDBRANCH  12  13
BRANCH  12  15
HETATM   15  C   MOL     1       9.181  -0.355  18.552  1.00  0.00     0.120 C 
HETATM   16  C   MOL     1       9.292  -0.527  17.051  1.00  0.00     0.026 C 
ENDBRANCH  12  15
ENDBRANCH  10  12
ENDBRANCH   1  10
TORSDOF 9
ENDMDL
MODEL 2
REMARK VINA RESULT:      -3.8      0.605      6.779
REMARK  9 active torsions:
REMARK  status: ('A' for Active; 'I' for Inactive)
REMARK    1  A    between atoms: S_1  and  S_2 
REMARK    2  A    between atoms: S_1  and  C_15 
REMARK    3  A    between atoms: S_2  and  C_16 
REMARK    4  A    between atoms: N_5  and  C_7 
REMARK    5  A    between atoms: N_5  and  C_8 
REMARK    6  A    between atoms: N_5  and  C_15 
REMARK    7  A    between atoms: N_6  and  C_9 
REMARK    8  A    between atoms: N_6  and  C_10 
REMARK    9  A    between atoms: N_6  and  C_16 
ROOT
HETATM    1  S   MOL     1       9.583  -1.982  22.333  1.00  0.00    -0.020 SA
ENDROOT
BRANCH   1   2
HETATM    2  S   MOL     1       9.978  -0.033  21.784  1.00  0.00    -0.020 SA
BRANCH   2   3
HETATM    3  C   MOL     1      10.927  -0.268  20.300  1.00  0.00     0.147 C 
HETATM    4  S   MOL     1      12.379  -1.128  20.408  1.00  0.00    -0.052 SA
BRANCH   3   5
HETATM    5  N   MOL     1      10.380   0.267  19.115  1.00  0.00    -0.367 N 
BRANCH   5   6
HETATM    6  C   MOL     1      11.146   1.144  18.226  1.00  0.00     0.120 C 
HETATM    7  C   MOL     1      11.672   2.359  18.963  1.00  0.00     0.026 C 
ENDBRANCH   5   6
BRANCH   5   8
HETATM    8  C   MOL     1       9.021  -0.006  18.637  1.00  0.00     0.120 C 
HETATM    9  C   MOL     1       9.024  -1.005  17.499  1.00  0.00     0.026 C 
ENDBRANCH   5   8
ENDBRANCH   3   5
ENDBRANCH   2   3
ENDBRANCH   1   2
BRANCH   1  10
HETATM   10  C   MOL     1       9.935  -1.939  24.074  1.00  0.00     0.147 C 
HETATM   11  S   MOL     1      11.554  -1.978  24.563  1.00  0.00    -0.052 SA
BRANCH  10  12
HETATM   12  N   MOL     1       8.823  -1.850  24.935  1.00  0.00    -0.367 N 
BRANCH  12  13
HETATM   13  C   MOL     1       8.581  -0.734  25.856  1.00  0.00     0.120 C 
HETATM   14  C   MOL     1       7.184  -0.172  25.690  1.00  0.00     0.026 C 
ENDBRANCH  12  13
BRANCH  12  15
HETATM   15  C   MOL     1       7.799  -2.895  25.002  1.00  0.00     0.120 C 
HETATM   16  C   MOL     1       8.178  -3.983  25.984  1.00  0.00     0.026 C 
ENDBRANCH  12  15
ENDBRANCH  10  12
ENDBRANCH   1  10
TORSDOF 9
ENDMDL
MODEL 3
REMARK VINA RESULT:      -3.8      1.689      6.590
REMARK  9 active torsions:
REMARK  status: ('A' for Active; 'I' for Inactive)
REMARK    1  A    between atoms: S_1  and  S_2 
REMARK    2  A    between atoms: S_1  and  C_15 
REMARK    3  A    between atoms: S_2  and  C_16 
REMARK    4  A    between atoms: N_5  and  C_7 
REMARK    5  A    between atoms: N_5  and  C_8 
REMARK    6  A    between atoms: N_5  and  C_15 
REMARK    7  A    between atoms: N_6  and  C_9 
REMARK    8  A    between atoms: N_6  and  C_10 
REMARK    9  A    between atoms: N_6  and  C_16 
ROOT
HETATM    1  S   MOL     1       9.580  -0.114  22.172  1.00  0.00    -0.020 SA
ENDROOT
BRANCH   1   2
HETATM    2  S   MOL     1      11.438   0.450  21.478  1.00  0.00    -0.020 SA
BRANCH   2   3
HETATM    3  C   MOL     1      11.179   0.441  19.719  1.00  0.00     0.147 C 
HETATM    4  S   MOL     1      11.432   1.879  18.868  1.00  0.00    -0.052 SA
BRANCH   3   5
HETATM    5  N   MOL     1      10.800  -0.792  19.148  1.00  0.00    -0.367 N 
BRANCH   5   6
HETATM    6  C   MOL     1       9.545  -0.958  18.410  1.00  0.00     0.120 C 
HETATM    7  C   MOL     1       9.786  -1.034  16.917  1.00  0.00     0.026 C 
ENDBRANCH   5   6
BRANCH   5   8
HETATM    8  C   MOL     1      11.610  -2.013  19.208  1.00  0.00     0.120 C 
HETATM    9  C   MOL     1      10.968  -3.061  20.093  1.00  0.00     0.026 C 
ENDBRANCH   5   8
ENDBRANCH   3   5
ENDBRANCH   2   3
ENDBRANCH   1   2
BRANCH   1  10
HETATM   10  C   MOL     1       9.811  -0.013  23.930  1.00  0.00     0.147 C 
HETATM   11  S   MOL     1      11.345  -0.354  24.555  1.00  0.00    -0.052 SA
BRANCH  10  12
HETATM   12  N   MOL     1       8.687   0.375  24.688  1.00  0.00    -0.367 N 
BRANCH  12  13
HETATM   13  C   MOL     1       8.121  -0.416  25.786  1.00  0.00     0.120 C 
HETATM   14  C   MOL     1       7.976  -1.874  25.401  1.00  0.00     0.026 C 
ENDBRANCH  12  13
BRANCH  12  15
HETATM   15  C   MOL     1       7.959   1.619  24.429  1.00  0.00     0.120 C 
HETATM   16  C   MOL     1       6.475   1.457  24.682  1.00  0.00     0.026 C 
ENDBRANCH  12  15
ENDBRANCH  10  12
ENDBRANCH   1  10
TORSDOF 9
ENDMDL
MODEL 4
REMARK VINA RESULT:      -3.7      3.247      7.425
REMARK  9 active torsions:
REMARK  status: ('A' for Active; 'I' for Inactive)
REMARK    1  A    between atoms: S_1  and  S_2 
REMARK    2  A    between atoms: S_1  and  C_15 
REMARK    3  A    between atoms: S_2  and  C_16 
REMARK    4  A    between atoms: N_5  and  C_7 
REMARK    5  A    between atoms: N_5  and  C_8 
REMARK    6  A    between atoms: N_5  and  C_15 
REMARK    7  A    between atoms: N_6  and  C_9 
REMARK    8  A    between atoms: N_6  and  C_10 
REMARK    9  A    between atoms: N_6  and  C_16 
ROOT
HETATM    1  S   MOL     1      10.146   2.039  23.806  1.00  0.00    -0.020 SA
ENDROOT
BRANCH   1   2
HETATM    2  S   MOL     1      10.443   2.305  21.783  1.00  0.00    -0.020 SA
BRANCH   2   3
HETATM    3  C   MOL     1      11.725   3.536  21.770  1.00  0.00     0.147 C 
HETATM    4  S   MOL     1      12.159   4.251  23.240  1.00  0.00    -0.052 SA
BRANCH   3   5
HETATM    5  N   MOL     1      12.316   3.812  20.520  1.00  0.00    -0.367 N 
BRANCH   5   6
HETATM    6  C   MOL     1      13.657   3.339  20.167  1.00  0.00     0.120 C 
HETATM    7  C   MOL     1      14.205   4.072  18.960  1.00  0.00     0.026 C 
ENDBRANCH   5   6
BRANCH   5   8
HETATM    8  C   MOL     1      11.662   4.568  19.448  1.00  0.00     0.120 C 
HETATM    9  C   MOL     1      11.099   5.879  19.957  1.00  0.00     0.026 C 
ENDBRANCH   5   8
ENDBRANCH   3   5
ENDBRANCH   2   3
ENDBRANCH   1   2
BRANCH   1  10
HETATM   10  C   MOL     1       9.300   0.477  23.839  1.00  0.00     0.147 C 
HETATM   11  S   MOL     1       9.438  -0.535  22.491  1.00  0.00    -0.052 SA
BRANCH  10  12
HETATM   12  N   MOL     1       8.583   0.178  25.015  1.00  0.00    -0.367 N 
BRANCH  12  13
HETATM   13  C   MOL     1       8.755  -1.051  25.796  1.00  0.00     0.120 C 
HETATM   14  C   MOL     1      10.213  -1.297  26.128  1.00  0.00     0.026 C 
ENDBRANCH  12  13
BRANCH  12  15
HETATM   15  C   MOL     1       7.566   1.080  25.563  1.00  0.00     0.120 C 
HETATM   16  C   MOL     1       6.449   1.326  24.571  1.00  0.00     0.026 C 
ENDBRANCH  12  15
ENDBRANCH  10  12
ENDBRANCH   1  10
TORSDOF 9
ENDMDL
MODEL 5
REMARK VINA RESULT:      -3.7      2.156      7.145
REMARK  9 active torsions:
REMARK  status: ('A' for Active; 'I' for Inactive)
REMARK    1  A    between atoms: S_1  and  S_2 
REMARK    2  A    between atoms: S_1  and  C_15 
REMARK    3  A    between atoms: S_2  and  C_16 
REMARK    4  A    between atoms: N_5  and  C_7 
REMARK    5  A    between atoms: N_5  and  C_8 
REMARK    6  A    between atoms: N_5  and  C_15 
REMARK    7  A    between atoms: N_6  and  C_9 
REMARK    8  A    between atoms: N_6  and  C_10 
REMARK    9  A    between atoms: N_6  and  C_16 
ROOT
HETATM    1  S   MOL     1       9.678  -2.041  22.178  1.00  0.00    -0.020 SA
ENDROOT
BRANCH   1   2
HETATM    2  S   MOL     1      10.695  -2.796  20.551  1.00  0.00    -0.020 SA
BRANCH   2   3
HETATM    3  C   MOL     1      10.427  -1.522  19.341  1.00  0.00     0.147 C 
HETATM    4  S   MOL     1       9.783  -0.049  19.864  1.00  0.00    -0.052 SA
BRANCH   3   5
HETATM    5  N   MOL     1      10.801  -1.827  18.016  1.00  0.00    -0.367 N 
BRANCH   5   6
HETATM    6  C   MOL     1      11.709  -2.931  17.695  1.00  0.00     0.120 C 
HETATM    7  C   MOL     1      12.199  -2.849  16.264  1.00  0.00     0.026 C 
ENDBRANCH   5   6
BRANCH   5   8
HETATM    8  C   MOL     1      10.317  -1.106  16.835  1.00  0.00     0.120 C 
HETATM    9  C   MOL     1       8.876  -1.453  16.526  1.00  0.00     0.026 C 
ENDBRANCH   5   8
ENDBRANCH   3   5
ENDBRANCH   2   3
ENDBRANCH   1   2
BRANCH   1  10
HETATM   10  C   MOL     1       9.904  -3.337  23.372  1.00  0.00     0.147 C 
HETATM   11  S   MOL     1      11.055  -4.533  23.044  1.00  0.00    -0.052 SA
BRANCH  10  12
HETATM   12  N   MOL     1       9.113  -3.261  24.536  1.00  0.00    -0.367 N 
BRANCH  12  13
HETATM   13  C   MOL     1       8.689  -2.005  25.165  1.00  0.00     0.120 C 
HETATM   14  C   MOL     1       9.758  -1.461  26.091  1.00  0.00     0.026 C 
ENDBRANCH  12  13
BRANCH  12  15
HETATM   15  C   MOL     1       8.649  -4.455  25.247  1.00  0.00     0.120 C 
HETATM   16  C   MOL     1       7.266  -4.871  24.792  1.00  0.00     0.026 C 
ENDBRANCH  12  15
ENDBRANCH  10  12
ENDBRANCH   1  10
TORSDOF 9
ENDMDL
MODEL 6
REMARK VINA RESULT:      -3.7      2.691      3.991
REMARK  9 active torsions:
REMARK  status: ('A' for Active; 'I' for Inactive)
REMARK    1  A    between atoms: S_1  and  S_2 
REMARK    2  A    between atoms: S_1  and  C_15 
REMARK    3  A    between atoms: S_2  and  C_16 
REMARK    4  A    between atoms: N_5  and  C_7 
REMARK    5  A    between atoms: N_5  and  C_8 
REMARK    6  A    between atoms: N_5  and  C_15 
REMARK    7  A    between atoms: N_6  and  C_9 
REMARK    8  A    between atoms: N_6  and  C_10 
REMARK    9  A    between atoms: N_6  and  C_16 
ROOT
HETATM    1  S   MOL     1       9.671   1.908  22.904  1.00  0.00    -0.020 SA
ENDROOT
BRANCH   1   2
HETATM    2  S   MOL     1       9.493  -0.132  22.664  1.00  0.00    -0.020 SA
BRANCH   2   3
HETATM    3  C   MOL     1       9.701  -0.706  24.334  1.00  0.00     0.147 C 
HETATM    4  S   MOL     1      11.273  -0.850  24.938  1.00  0.00    -0.052 SA
BRANCH   3   5
HETATM    5  N   MOL     1       8.520  -0.978  25.054  1.00  0.00    -0.367 N 
BRANCH   5   6
HETATM    6  C   MOL     1       7.853   0.036  25.875  1.00  0.00     0.120 C 
HETATM    7  C   MOL     1       6.737   0.720  25.115  1.00  0.00     0.026 C 
ENDBRANCH   5   6
BRANCH   5   8
HETATM    8  C   MOL     1       7.827  -2.271  25.046  1.00  0.00     0.120 C 
HETATM    9  C   MOL     1       8.576  -3.305  25.859  1.00  0.00     0.026 C 
ENDBRANCH   5   8
ENDBRANCH   3   5
ENDBRANCH   2   3
ENDBRANCH   1   2
BRANCH   1  10
HETATM   10  C   MOL     1      10.762   2.330  21.566  1.00  0.00     0.147 C 
HETATM   11  S   MOL     1      10.984   1.197  20.330  1.00  0.00    -0.052 SA
BRANCH  10  12
HETATM   12  N   MOL     1      11.354   3.608  21.620  1.00  0.00    -0.367 N 
BRANCH  12  13
HETATM   13  C   MOL     1      11.299   4.589  20.531  1.00  0.00     0.120 C 
HETATM   14  C   MOL     1      11.354   6.007  21.060  1.00  0.00     0.026 C 
ENDBRANCH  12  13
BRANCH  12  15
HETATM   15  C   MOL     1      12.109   4.072  22.786  1.00  0.00     0.120 C 
HETATM   16  C   MOL     1      13.405   3.306  22.951  1.00  0.00     0.026 C 
ENDBRANCH  12  15
ENDBRANCH  10  12
ENDBRANCH   1  10
TORSDOF 9
ENDMDL
MODEL 7
REMARK VINA RESULT:      -3.6      1.173      6.557
REMARK  9 active torsions:
REMARK  status: ('A' for Active; 'I' for Inactive)
REMARK    1  A    between atoms: S_1  and  S_2 
REMARK    2  A    between atoms: S_1  and  C_15 
REMARK    3  A    between atoms: S_2  and  C_16 
REMARK    4  A    between atoms: N_5  and  C_7 
REMARK    5  A    between atoms: N_5  and  C_8 
REMARK    6  A    between atoms: N_5  and  C_15 
REMARK    7  A    between atoms: N_6  and  C_9 
REMARK    8  A    between atoms: N_6  and  C_10 
REMARK    9  A    between atoms: N_6  and  C_16 
ROOT
HETATM    1  S   MOL     1       9.642  -0.436  22.434  1.00  0.00    -0.020 SA
ENDROOT
BRANCH   1   2
HETATM    2  S   MOL     1      11.657  -0.415  21.999  1.00  0.00    -0.020 SA
BRANCH   2   3
HETATM    3  C   MOL     1      11.639  -0.501  20.224  1.00  0.00     0.147 C 
HETATM    4  S   MOL     1      12.147  -1.936  19.489  1.00  0.00    -0.052 SA
BRANCH   3   5
HETATM    5  N   MOL     1      11.170   0.643  19.546  1.00  0.00    -0.367 N 
BRANCH   5   6
HETATM    6  C   MOL     1      10.425   0.556  18.287  1.00  0.00     0.120 C 
HETATM    7  C   MOL     1       9.030   0.007  18.505  1.00  0.00     0.026 C 
ENDBRANCH   5   6
BRANCH   5   8
HETATM    8  C   MOL     1      11.351   2.018  20.024  1.00  0.00     0.120 C 
HETATM    9  C   MOL     1      11.706   2.956  18.890  1.00  0.00     0.026 C 
ENDBRANCH   5   8
ENDBRANCH   3   5
ENDBRANCH   2   3
ENDBRANCH   1   2
BRANCH   1  10
HETATM   10  C   MOL     1       9.660  -0.350  24.208  1.00  0.00     0.147 C 
HETATM   11  S   MOL     1      11.081  -0.786  25.015  1.00  0.00    -0.052 SA
BRANCH  10  12
HETATM   12  N   MOL     1       8.477   0.107  24.825  1.00  0.00    -0.367 N 
BRANCH  12  13
HETATM   13  C   MOL     1       7.666  -0.695  25.747  1.00  0.00     0.120 C 
HETATM   14  C   MOL     1       7.626  -2.150  25.329  1.00  0.00     0.026 C 
ENDBRANCH  12  13
BRANCH  12  15
HETATM   15  C   MOL     1       7.932   1.444  24.579  1.00  0.00     0.120 C 
HETATM   16  C   MOL     1       6.418   1.440  24.603  1.00  0.00     0.026 C 
ENDBRANCH  12  15
ENDBRANCH  10  12
ENDBRANCH   1  10
TORSDOF 9
ENDMDL
MODEL 8
REMARK VINA RESULT:      -3.6      4.341      6.570
REMARK  9 active torsions:
REMARK  status: ('A' for Active; 'I' for Inactive)
REMARK    1  A    between atoms: S_1  and  S_2 
REMARK    2  A    between atoms: S_1  and  C_15 
REMARK    3  A    between atoms: S_2  and  C_16 
REMARK    4  A    between atoms: N_5  and  C_7 
REMARK    5  A    between atoms: N_5  and  C_8 
REMARK    6  A    between atoms: N_5  and  C_15 
REMARK    7  A    between atoms: N_6  and  C_9 
REMARK    8  A    between atoms: N_6  and  C_10 
REMARK    9  A    between atoms: N_6  and  C_16 
ROOT
HETATM    1  S   MOL     1      11.355   1.397  19.898  1.00  0.00    -0.020 SA
ENDROOT
BRANCH   1   2
HETATM    2  S   MOL     1       9.699   0.182  19.709  1.00  0.00    -0.020 SA
BRANCH   2   3
HETATM    3  C   MOL     1      10.450  -1.385  19.335  1.00  0.00     0.147 C 
HETATM    4  S   MOL     1      10.574  -2.527  20.576  1.00  0.00    -0.052 SA
BRANCH   3   5
HETATM    5  N   MOL     1      10.870  -1.577  18.003  1.00  0.00    -0.367 N 
BRANCH   5   6
HETATM    6  C   MOL     1      10.221  -0.905  16.874  1.00  0.00     0.120 C 
HETATM    7  C   MOL     1       8.849  -1.484  16.598  1.00  0.00     0.026 C 
ENDBRANCH   5   6
BRANCH   5   8
HETATM    8  C   MOL     1      11.994  -2.432  17.606  1.00  0.00     0.120 C 
HETATM    9  C   MOL     1      12.033  -2.635  16.106  1.00  0.00     0.026 C 
ENDBRANCH   5   8
ENDBRANCH   3   5
ENDBRANCH   2   3
ENDBRANCH   1   2
BRANCH   1  10
HETATM   10  C   MOL     1      10.856   2.474  21.221  1.00  0.00     0.147 C 
HETATM   11  S   MOL     1       9.862   1.841  22.434  1.00  0.00    -0.052 SA
BRANCH  10  12
HETATM   12  N   MOL     1      11.352   3.792  21.175  1.00  0.00    -0.367 N 
BRANCH  12  13
HETATM   13  C   MOL     1      11.383   4.620  19.965  1.00  0.00     0.120 C 
HETATM   14  C   MOL     1      11.323   6.096  20.302  1.00  0.00     0.026 C 
ENDBRANCH  12  13
BRANCH  12  15
HETATM   15  C   MOL     1      11.910   4.460  22.354  1.00  0.00     0.120 C 
HETATM   16  C   MOL     1      13.237   3.853  22.760  1.00  0.00     0.026 C 
ENDBRANCH  12  15
ENDBRANCH  10  12
ENDBRANCH   1  10
TORSDOF 9
ENDMDL
MODEL 9
REMARK VINA RESULT:      -3.6      4.531      7.250
REMARK  9 active torsions:
REMARK  status: ('A' for Active; 'I' for Inactive)
REMARK    1  A    between atoms: S_1  and  S_2 
REMARK    2  A    between atoms: S_1  and  C_15 
REMARK    3  A    between atoms: S_2  and  C_16 
REMARK    4  A    between atoms: N_5  and  C_7 
REMARK    5  A    between atoms: N_5  and  C_8 
REMARK    6  A    between atoms: N_5  and  C_15 
REMARK    7  A    between atoms: N_6  and  C_9 
REMARK    8  A    between atoms: N_6  and  C_10 
REMARK    9  A    between atoms: N_6  and  C_16 
ROOT
HETATM    1  S   MOL     1      12.270   0.763  19.777  1.00  0.00    -0.020 SA
ENDROOT
BRANCH   1   2
HETATM    2  S   MOL     1      11.677   2.567  18.975  1.00  0.00    -0.020 SA
BRANCH   2   3
HETATM    3  C   MOL     1      13.087   3.592  19.322  1.00  0.00     0.147 C 
HETATM    4  S   MOL     1      14.487   2.849  19.912  1.00  0.00    -0.052 SA
BRANCH   3   5
HETATM    5  N   MOL     1      12.944   4.968  19.052  1.00  0.00    -0.367 N 
BRANCH   5   6
HETATM    6  C   MOL     1      14.079   5.813  18.672  1.00  0.00     0.120 C 
HETATM    7  C   MOL     1      14.593   6.615  19.849  1.00  0.00     0.026 C 
ENDBRANCH   5   6
BRANCH   5   8
HETATM    8  C   MOL     1      11.668   5.690  19.098  1.00  0.00     0.120 C 
HETATM    9  C   MOL     1      11.181   5.865  20.521  1.00  0.00     0.026 C 
ENDBRANCH   5   8
ENDBRANCH   3   5
ENDBRANCH   2   3
ENDBRANCH   1   2
BRANCH   1  10
HETATM   10  C   MOL     1      10.842  -0.249  19.473  1.00  0.00     0.147 C 
HETATM   11  S   MOL     1       9.793  -0.559  20.763  1.00  0.00    -0.052 SA
BRANCH  10  12
HETATM   12  N   MOL     1      10.669  -0.707  18.151  1.00  0.00    -0.367 N 
BRANCH  12  13
HETATM   13  C   MOL     1       9.624  -0.225  17.241  1.00  0.00     0.120 C 
HETATM   14  C   MOL     1       8.969  -1.369  16.495  1.00  0.00     0.026 C 
ENDBRANCH  12  13
BRANCH  12  15
HETATM   15  C   MOL     1      11.525  -1.740  17.563  1.00  0.00     0.120 C 
HETATM   16  C   MOL     1      11.702  -2.915  18.501  1.00  0.00     0.026 C 
ENDBRANCH  12  15
ENDBRANCH  10  12
ENDBRANCH   1  10
TORSDOF 9
ENDMDL
MODEL 10
REMARK VINA RESULT:      -3.6      4.216      6.638
REMARK  9 active torsions:
REMARK  status: ('A' for Active; 'I' for Inactive)
REMARK    1  A    between atoms: S_1  and  S_2 
REMARK    2  A    between atoms: S_1  and  C_15 
REMARK    3  A    between atoms: S_2  and  C_16 
REMARK    4  A    between atoms: N_5  and  C_7 
REMARK    5  A    between atoms: N_5  and  C_8 
REMARK    6  A    between atoms: N_5  and  C_15 
REMARK    7  A    between atoms: N_6  and  C_9 
REMARK    8  A    between atoms: N_6  and  C_10 
REMARK    9  A    between atoms: N_6  and  C_16 
ROOT
HETATM    1  S   MOL     1      12.265   0.198  20.049  1.00  0.00    -0.020 SA
ENDROOT
BRANCH   1   2
HETATM    2  S   MOL     1      11.681   1.995  19.224  1.00  0.00    -0.020 SA
BRANCH   2   3
HETATM    3  C   MOL     1      11.888   3.102  20.599  1.00  0.00     0.147 C 
HETATM    4  S   MOL     1      11.005   2.796  22.009  1.00  0.00    -0.052 SA
BRANCH   3   5
HETATM    5  N   MOL     1      12.806   4.158  20.422  1.00  0.00    -0.367 N 
BRANCH   5   6
HETATM    6  C   MOL     1      12.426   5.562  20.594  1.00  0.00     0.120 C 
HETATM    7  C   MOL     1      11.190   5.905  19.789  1.00  0.00     0.026 C 
ENDBRANCH   5   6
BRANCH   5   8
HETATM    8  C   MOL     1      14.219   3.973  20.076  1.00  0.00     0.120 C 
HETATM    9  C   MOL     1      14.530   4.527  18.701  1.00  0.00     0.026 C 
ENDBRANCH   5   8
ENDBRANCH   3   5
ENDBRANCH   2   3
ENDBRANCH   1   2
BRANCH   1  10
HETATM   10  C   MOL     1      10.794  -0.778  19.852  1.00  0.00     0.147 C 
HETATM   11  S   MOL     1       9.929  -1.209  21.241  1.00  0.00    -0.052 SA
BRANCH  10  12
HETATM   12  N   MOL     1      10.433  -1.108  18.530  1.00  0.00    -0.367 N 
BRANCH  12  13
HETATM   13  C   MOL     1       9.152  -0.752  17.911  1.00  0.00     0.120 C 
HETATM   14  C   MOL     1       9.002  -1.386  16.544  1.00  0.00     0.026 C 
ENDBRANCH  12  13
BRANCH  12  15
HETATM   15  C   MOL     1      11.318  -1.867  17.644  1.00  0.00     0.120 C 
HETATM   16  C   MOL     1      11.765  -3.165  18.284  1.00  0.00     0.026 C 
ENDBRANCH  12  15
ENDBRANCH  10  12
ENDBRANCH   1  10
TORSDOF 9
ENDMDL
