MODEL 1
REMARK VINA RESULT:      -5.8      0.000      0.000
REMARK  7 active torsions:
REMARK  status: ('A' for Active; 'I' for Inactive)
REMARK    1  A    between atoms: O_2  and  C_10 
REMARK    2  A    between atoms: O_3  and  C_11 
REMARK    3  A    between atoms: O_4  and  C_14 
REMARK    4  A    between atoms: O_6  and  N_9 
REMARK    5  A    between atoms: N_7  and  C_12 
REMARK    6  A    between atoms: N_9  and  C_18 
REMARK    7  A    between atoms: C_13  and  C_14 
ROOT
HETATM    1  O   UNK     0      10.727  -4.309  25.138  0.00  0.00    -0.353 OA
HETATM    2  C   UNK     0       8.393  -4.391  25.536  0.00  0.00     0.198 C 
HETATM    3  C   UNK     0       8.977  -5.764  25.794  0.00  0.00     0.182 C 
HETATM    4  C   UNK     0       9.626  -3.508  25.597  0.00  0.00     0.264 C 
HETATM    5  C   UNK     0      10.307  -5.688  25.057  0.00  0.00     0.179 C 
ENDROOT
BRANCH   4   6
HETATM    6  N   UNK     0       9.512  -2.348  24.759  0.00  0.00    -0.278 N 
HETATM    7  C   UNK     0       9.635  -2.505  23.387  0.00  0.00     0.102 A 
HETATM    8  C   UNK     0       9.541  -1.486  22.535  0.00  0.00     0.070 A 
HETATM    9  C   UNK     0       9.296  -0.147  23.131  0.00  0.00     0.153 A 
HETATM   10  N   UNK     0       9.179   0.018  24.422  0.00  0.00    -0.174 NA
HETATM   11  C   UNK     0       9.277  -1.055  25.292  0.00  0.00     0.352 A 
HETATM   12  O   UNK     0       9.161  -0.882  26.506  0.00  0.00    -0.244 OA
BRANCH   9  13
HETATM   13  N   UNK     0       9.195   0.934  22.285  0.00  0.00    -0.251 N 
HETATM   14  H   UNK     0       9.302   0.928  21.277  0.00  0.00     0.196 HD
BRANCH  13  15
HETATM   15  O   UNK     0       8.814   2.084  22.913  0.00  0.00    -0.288 OA
HETATM   16  H   UNK     0       8.153   2.440  22.297  0.00  0.00     0.244 HD
ENDBRANCH  13  15
ENDBRANCH   9  13
ENDBRANCH   4   6
BRANCH   5  17
HETATM   17  C   UNK     0      10.202  -6.066  23.585  0.00  0.00     0.198 C 
BRANCH  17  18
HETATM   18  O   UNK     0       9.086  -6.921  23.416  0.00  0.00    -0.398 OA
HETATM   19  H   UNK     0       9.318  -7.561  22.720  0.00  0.00     0.209 HD
ENDBRANCH  17  18
ENDBRANCH   5  17
BRANCH   2  20
HETATM   20  O   UNK     0       7.419  -4.033  26.496  0.00  0.00    -0.388 OA
HETATM   21  H   UNK     0       7.551  -4.604  27.272  0.00  0.00     0.210 HD
ENDBRANCH   2  20
BRANCH   3  22
HETATM   22  O   UNK     0       9.253  -5.931  27.184  0.00  0.00    -0.390 OA
HETATM   23  H   UNK     0       9.704  -6.781  27.318  0.00  0.00     0.210 HD
ENDBRANCH   3  22
TORSDOF 7
ENDMDL
MODEL 2
REMARK VINA RESULT:      -5.8      2.739      4.638
REMARK  7 active torsions:
REMARK  status: ('A' for Active; 'I' for Inactive)
REMARK    1  A    between atoms: O_2  and  C_10 
REMARK    2  A    between atoms: O_3  and  C_11 
REMARK    3  A    between atoms: O_4  and  C_14 
REMARK    4  A    between atoms: O_6  and  N_9 
REMARK    5  A    between atoms: N_7  and  C_12 
REMARK    6  A    between atoms: N_9  and  C_18 
REMARK    7  A    between atoms: C_13  and  C_14 
ROOT
HETATM    1  O   UNK     0       9.422  -0.777  24.906  0.00  0.00    -0.353 OA
HETATM    2  C   UNK     0       7.536   0.522  24.300  0.00  0.00     0.198 C 
HETATM    3  C   UNK     0       7.289  -0.083  25.665  0.00  0.00     0.182 C 
HETATM    4  C   UNK     0       9.043   0.396  24.167  0.00  0.00     0.264 C 
HETATM    5  C   UNK     0       8.299  -1.221  25.698  0.00  0.00     0.179 C 
ENDROOT
BRANCH   4   6
HETATM    6  N   UNK     0       9.462   0.243  22.803  0.00  0.00    -0.278 N 
HETATM    7  C   UNK     0       9.580  -1.036  22.282  0.00  0.00     0.102 A 
HETATM    8  C   UNK     0       9.961  -1.271  21.028  0.00  0.00     0.070 A 
HETATM    9  C   UNK     0      10.262  -0.078  20.195  0.00  0.00     0.153 A 
HETATM   10  N   UNK     0      10.156   1.134  20.671  0.00  0.00    -0.174 NA
HETATM   11  C   UNK     0       9.756   1.358  21.977  0.00  0.00     0.352 A 
HETATM   12  O   UNK     0       9.660   2.508  22.408  0.00  0.00    -0.244 OA
BRANCH   9  13
HETATM   13  N   UNK     0      10.661  -0.278  18.893  0.00  0.00    -0.251 N 
HETATM   14  H   UNK     0      10.069  -0.516  18.107  0.00  0.00     0.196 HD
BRANCH  13  15
HETATM   15  O   UNK     0      11.985  -0.019  18.684  0.00  0.00    -0.288 OA
HETATM   16  H   UNK     0      12.005   0.164  17.730  0.00  0.00     0.244 HD
ENDBRANCH  13  15
ENDBRANCH   9  13
ENDBRANCH   4   6
BRANCH   5  17
HETATM   17  C   UNK     0       7.770  -2.513  25.087  0.00  0.00     0.198 C 
BRANCH  17  18
HETATM   18  O   UNK     0       7.129  -3.264  26.102  0.00  0.00    -0.398 OA
HETATM   19  H   UNK     0       6.974  -2.661  26.849  0.00  0.00     0.209 HD
ENDBRANCH  17  18
ENDBRANCH   5  17
BRANCH   2  20
HETATM   20  O   UNK     0       7.093   1.862  24.218  0.00  0.00    -0.388 OA
HETATM   21  H   UNK     0       6.798   2.126  25.105  0.00  0.00     0.210 HD
ENDBRANCH   2  20
BRANCH   3  22
HETATM   22  O   UNK     0       7.641   0.847  26.690  0.00  0.00    -0.390 OA
HETATM   23  H   UNK     0       7.379   1.740  26.411  0.00  0.00     0.210 HD
ENDBRANCH   3  22
TORSDOF 7
ENDMDL
MODEL 3
REMARK VINA RESULT:      -5.7      5.140      7.312
REMARK  7 active torsions:
REMARK  status: ('A' for Active; 'I' for Inactive)
REMARK    1  A    between atoms: O_2  and  C_10 
REMARK    2  A    between atoms: O_3  and  C_11 
REMARK    3  A    between atoms: O_4  and  C_14 
REMARK    4  A    between atoms: O_6  and  N_9 
REMARK    5  A    between atoms: N_7  and  C_12 
REMARK    6  A    between atoms: N_9  and  C_18 
REMARK    7  A    between atoms: C_13  and  C_14 
ROOT
HETATM    1  O   UNK     0      10.991   0.440  22.136  0.00  0.00    -0.353 OA
HETATM    2  C   UNK     0      10.340   2.692  21.792  0.00  0.00     0.198 C 
HETATM    3  C   UNK     0      10.432   2.437  23.281  0.00  0.00     0.182 C 
HETATM    4  C   UNK     0      11.148   1.539  21.224  0.00  0.00     0.264 C 
HETATM    5  C   UNK     0      10.369   0.917  23.349  0.00  0.00     0.179 C 
ENDROOT
BRANCH   4   6
HETATM    6  N   UNK     0      10.691   1.136  19.925  0.00  0.00    -0.278 N 
HETATM    7  C   UNK     0       9.775   0.100  19.834  0.00  0.00     0.102 A 
HETATM    8  C   UNK     0       9.295  -0.338  18.672  0.00  0.00     0.070 A 
HETATM    9  C   UNK     0       9.796   0.346  17.451  0.00  0.00     0.153 A 
HETATM   10  N   UNK     0      10.660   1.324  17.519  0.00  0.00    -0.174 NA
HETATM   11  C   UNK     0      11.145   1.766  18.738  0.00  0.00     0.352 A 
HETATM   12  O   UNK     0      11.957   2.691  18.784  0.00  0.00    -0.244 OA
BRANCH   9  13
HETATM   13  N   UNK     0       9.327  -0.078  16.229  0.00  0.00    -0.251 N 
HETATM   14  H   UNK     0       9.566   0.304  15.321  0.00  0.00     0.196 HD
BRANCH  13  15
HETATM   15  O   UNK     0       8.541  -1.191  16.303  0.00  0.00    -0.288 OA
HETATM   16  H   UNK     0       8.568  -1.393  17.253  0.00  0.00     0.244 HD
ENDBRANCH  13  15
ENDBRANCH   9  13
ENDBRANCH   4   6
BRANCH   5  17
HETATM   17  C   UNK     0       8.946   0.376  23.396  0.00  0.00     0.198 C 
BRANCH  17  18
HETATM   18  O   UNK     0       8.074   1.427  23.772  0.00  0.00    -0.398 OA
HETATM   19  H   UNK     0       7.955   1.993  22.990  0.00  0.00     0.209 HD
ENDBRANCH  17  18
ENDBRANCH   5  17
BRANCH   2  20
HETATM   20  O   UNK     0      10.865   3.954  21.431  0.00  0.00    -0.388 OA
HETATM   21  H   UNK     0      11.519   3.808  20.727  0.00  0.00     0.210 HD
ENDBRANCH   2  20
BRANCH   3  22
HETATM   22  O   UNK     0      11.708   2.846  23.776  0.00  0.00    -0.390 OA
HETATM   23  H   UNK     0      11.594   3.247  24.653  0.00  0.00     0.210 HD
ENDBRANCH   3  22
TORSDOF 7
ENDMDL
MODEL 4
REMARK VINA RESULT:      -5.7      6.245      9.066
REMARK  7 active torsions:
REMARK  status: ('A' for Active; 'I' for Inactive)
REMARK    1  A    between atoms: O_2  and  C_10 
REMARK    2  A    between atoms: O_3  and  C_11 
REMARK    3  A    between atoms: O_4  and  C_14 
REMARK    4  A    between atoms: O_6  and  N_9 
REMARK    5  A    between atoms: N_7  and  C_12 
REMARK    6  A    between atoms: N_9  and  C_18 
REMARK    7  A    between atoms: C_13  and  C_14 
ROOT
HETATM    1  O   UNK     0      14.922   4.009  24.995  0.00  0.00    -0.353 OA
HETATM    2  C   UNK     0      13.361   5.620  25.757  0.00  0.00     0.198 C 
HETATM    3  C   UNK     0      14.577   5.660  26.658  0.00  0.00     0.182 C 
HETATM    4  C   UNK     0      13.901   4.907  24.531  0.00  0.00     0.264 C 
HETATM    5  C   UNK     0      15.230   4.314  26.372  0.00  0.00     0.179 C 
ENDROOT
BRANCH   4   6
HETATM    6  N   UNK     0      12.891   4.150  23.847  0.00  0.00    -0.278 N 
HETATM    7  C   UNK     0      12.648   2.847  24.252  0.00  0.00     0.102 A 
HETATM    8  C   UNK     0      11.729   2.073  23.676  0.00  0.00     0.070 A 
HETATM    9  C   UNK     0      10.962   2.680  22.557  0.00  0.00     0.153 A 
HETATM   10  N   UNK     0      11.179   3.907  22.163  0.00  0.00    -0.174 NA
HETATM   11  C   UNK     0      12.138   4.696  22.776  0.00  0.00     0.352 A 
HETATM   12  O   UNK     0      12.328   5.851  22.393  0.00  0.00    -0.244 OA
BRANCH   9  13
HETATM   13  N   UNK     0      10.005   1.913  21.934  0.00  0.00    -0.251 N 
HETATM   14  H   UNK     0      10.137   1.316  21.126  0.00  0.00     0.196 HD
BRANCH  13  15
HETATM   15  O   UNK     0       8.798   1.923  22.572  0.00  0.00    -0.288 OA
HETATM   16  H   UNK     0       8.208   1.559  21.891  0.00  0.00     0.244 HD
ENDBRANCH  13  15
ENDBRANCH   9  13
ENDBRANCH   4   6
BRANCH   5  17
HETATM   17  C   UNK     0      14.688   3.186  27.240  0.00  0.00     0.198 C 
BRANCH  17  18
HETATM   18  O   UNK     0      15.781   2.460  27.773  0.00  0.00    -0.398 OA
HETATM   19  H   UNK     0      15.780   1.586  27.344  0.00  0.00     0.209 HD
ENDBRANCH  17  18
ENDBRANCH   5  17
BRANCH   2  20
HETATM   20  O   UNK     0      12.869   6.911  25.463  0.00  0.00    -0.388 OA
HETATM   21  H   UNK     0      13.237   7.176  24.603  0.00  0.00     0.210 HD
ENDBRANCH   2  20
BRANCH   3  22
HETATM   22  O   UNK     0      15.475   6.684  26.232  0.00  0.00    -0.390 OA
HETATM   23  H   UNK     0      14.988   7.520  26.150  0.00  0.00     0.210 HD
ENDBRANCH   3  22
TORSDOF 7
ENDMDL
MODEL 5
REMARK VINA RESULT:      -5.6     13.651     15.065
REMARK  7 active torsions:
REMARK  status: ('A' for Active; 'I' for Inactive)
REMARK    1  A    between atoms: O_2  and  C_10 
REMARK    2  A    between atoms: O_3  and  C_11 
REMARK    3  A    between atoms: O_4  and  C_14 
REMARK    4  A    between atoms: O_6  and  N_9 
REMARK    5  A    between atoms: N_7  and  C_12 
REMARK    6  A    between atoms: N_9  and  C_18 
REMARK    7  A    between atoms: C_13  and  C_14 
ROOT
HETATM    1  O   UNK     0      -4.919   1.367  30.295  0.00  0.00    -0.353 OA
HETATM    2  C   UNK     0      -4.497   3.008  28.639  0.00  0.00     0.198 C 
HETATM    3  C   UNK     0      -5.878   2.431  28.409  0.00  0.00     0.182 C 
HETATM    4  C   UNK     0      -4.223   2.605  30.077  0.00  0.00     0.264 C 
HETATM    5  C   UNK     0      -5.811   1.123  29.186  0.00  0.00     0.179 C 
ENDROOT
BRANCH   4   6
HETATM    6  N   UNK     0      -2.825   2.406  30.334  0.00  0.00    -0.278 N 
HETATM    7  C   UNK     0      -2.136   1.472  29.576  0.00  0.00     0.102 A 
HETATM    8  C   UNK     0      -0.839   1.224  29.745  0.00  0.00     0.070 A 
HETATM    9  C   UNK     0      -0.149   2.006  30.803  0.00  0.00     0.153 A 
HETATM   10  N   UNK     0      -0.784   2.889  31.527  0.00  0.00    -0.174 NA
HETATM   11  C   UNK     0      -2.133   3.135  31.335  0.00  0.00     0.352 A 
HETATM   12  O   UNK     0      -2.716   3.973  32.024  0.00  0.00    -0.244 OA
BRANCH   9  13
HETATM   13  N   UNK     0       1.192   1.778  31.011  0.00  0.00    -0.251 N 
HETATM   14  H   UNK     0       1.871   1.477  30.322  0.00  0.00     0.196 HD
BRANCH  13  15
HETATM   15  O   UNK     0       1.611   2.101  32.270  0.00  0.00    -0.288 OA
HETATM   16  H   UNK     0       2.135   1.320  32.514  0.00  0.00     0.244 HD
ENDBRANCH  13  15
ENDBRANCH   9  13
ENDBRANCH   4   6
BRANCH   5  17
HETATM   17  C   UNK     0      -5.247  -0.033  28.370  0.00  0.00     0.198 C 
BRANCH  17  18
HETATM   18  O   UNK     0      -5.926  -0.083  27.128  0.00  0.00    -0.398 OA
HETATM   19  H   UNK     0      -6.879  -0.062  27.321  0.00  0.00     0.209 HD
ENDBRANCH  17  18
ENDBRANCH   5  17
BRANCH   2  20
HETATM   20  O   UNK     0      -4.463   4.408  28.451  0.00  0.00    -0.388 OA
HETATM   21  H   UNK     0      -4.608   4.823  29.317  0.00  0.00     0.210 HD
ENDBRANCH   2  20
BRANCH   3  22
HETATM   22  O   UNK     0      -6.868   3.257  29.022  0.00  0.00    -0.390 OA
HETATM   23  H   UNK     0      -6.794   3.176  29.987  0.00  0.00     0.210 HD
ENDBRANCH   3  22
TORSDOF 7
ENDMDL
MODEL 6
REMARK VINA RESULT:      -5.4      5.890      7.332
REMARK  7 active torsions:
REMARK  status: ('A' for Active; 'I' for Inactive)
REMARK    1  A    between atoms: O_2  and  C_10 
REMARK    2  A    between atoms: O_3  and  C_11 
REMARK    3  A    between atoms: O_4  and  C_14 
REMARK    4  A    between atoms: O_6  and  N_9 
REMARK    5  A    between atoms: N_7  and  C_12 
REMARK    6  A    between atoms: N_9  and  C_18 
REMARK    7  A    between atoms: C_13  and  C_14 
ROOT
HETATM    1  O   UNK     0      11.583   0.478  19.023  0.00  0.00    -0.353 OA
HETATM    2  C   UNK     0       9.555   0.604  20.242  0.00  0.00     0.198 C 
HETATM    3  C   UNK     0       9.582  -0.704  19.481  0.00  0.00     0.182 C 
HETATM    4  C   UNK     0      11.020   1.003  20.237  0.00  0.00     0.264 C 
HETATM    5  C   UNK     0      10.640  -0.434  18.420  0.00  0.00     0.179 C 
ENDROOT
BRANCH   4   6
HETATM    6  N   UNK     0      11.202   2.426  20.258  0.00  0.00    -0.278 N 
HETATM    7  C   UNK     0      11.556   3.069  19.082  0.00  0.00     0.102 A 
HETATM    8  C   UNK     0      11.743   4.385  19.009  0.00  0.00     0.070 A 
HETATM    9  C   UNK     0      11.555   5.150  20.270  0.00  0.00     0.153 A 
HETATM   10  N   UNK     0      11.222   4.559  21.387  0.00  0.00    -0.174 NA
HETATM   11  C   UNK     0      11.029   3.189  21.441  0.00  0.00     0.352 A 
HETATM   12  O   UNK     0      10.713   2.649  22.502  0.00  0.00    -0.244 OA
BRANCH   9  13
HETATM   13  N   UNK     0      11.741   6.513  20.238  0.00  0.00    -0.251 N 
HETATM   14  H   UNK     0      11.072   7.224  20.510  0.00  0.00     0.196 HD
BRANCH  13  15
HETATM   15  O   UNK     0      13.008   6.881  19.890  0.00  0.00    -0.288 OA
HETATM   16  H   UNK     0      12.898   7.120  18.954  0.00  0.00     0.244 HD
ENDBRANCH  13  15
ENDBRANCH   9  13
ENDBRANCH   4   6
BRANCH   5  17
HETATM   17  C   UNK     0      10.080   0.224  17.166  0.00  0.00     0.198 C 
BRANCH  17  18
HETATM   18  O   UNK     0       8.861  -0.413  16.827  0.00  0.00    -0.398 OA
HETATM   19  H   UNK     0       8.995  -1.369  16.945  0.00  0.00     0.209 HD
ENDBRANCH  17  18
ENDBRANCH   5  17
BRANCH   2  20
HETATM   20  O   UNK     0       9.037   0.455  21.548  0.00  0.00    -0.388 OA
HETATM   21  H   UNK     0       8.291   1.072  21.639  0.00  0.00     0.210 HD
ENDBRANCH   2  20
BRANCH   3  22
HETATM   22  O   UNK     0      10.061  -1.755  20.322  0.00  0.00    -0.390 OA
HETATM   23  H   UNK     0       9.843  -1.547  21.245  0.00  0.00     0.210 HD
ENDBRANCH   3  22
TORSDOF 7
ENDMDL
MODEL 7
REMARK VINA RESULT:      -5.3      3.974      7.165
REMARK  7 active torsions:
REMARK  status: ('A' for Active; 'I' for Inactive)
REMARK    1  A    between atoms: O_2  and  C_10 
REMARK    2  A    between atoms: O_3  and  C_11 
REMARK    3  A    between atoms: O_4  and  C_14 
REMARK    4  A    between atoms: O_6  and  N_9 
REMARK    5  A    between atoms: N_7  and  C_12 
REMARK    6  A    between atoms: N_9  and  C_18 
REMARK    7  A    between atoms: C_13  and  C_14 
ROOT
HETATM    1  O   UNK     0       8.825   0.232  18.912  0.00  0.00    -0.353 OA
HETATM    2  C   UNK     0      11.192   0.179  18.830  0.00  0.00     0.198 C 
HETATM    3  C   UNK     0      10.670   0.607  17.475  0.00  0.00     0.182 C 
HETATM    4  C   UNK     0       9.993   0.434  19.725  0.00  0.00     0.264 C 
HETATM    5  C   UNK     0       9.223   0.136  17.527  0.00  0.00     0.179 C 
ENDROOT
BRANCH   4   6
HETATM    6  N   UNK     0       9.942  -0.464  20.844  0.00  0.00    -0.278 N 
HETATM    7  C   UNK     0      10.173  -1.813  20.625  0.00  0.00     0.102 A 
HETATM    8  C   UNK     0      10.148  -2.716  21.604  0.00  0.00     0.070 A 
HETATM    9  C   UNK     0       9.854  -2.203  22.967  0.00  0.00     0.153 A 
HETATM   10  N   UNK     0       9.634  -0.935  23.190  0.00  0.00    -0.174 NA
HETATM   11  C   UNK     0       9.666  -0.011  22.159  0.00  0.00     0.352 A 
HETATM   12  O   UNK     0       9.458   1.181  22.388  0.00  0.00    -0.244 OA
BRANCH   9  13
HETATM   13  N   UNK     0       9.817  -3.104  24.007  0.00  0.00    -0.251 N 
HETATM   14  H   UNK     0       9.473  -4.057  23.972  0.00  0.00     0.196 HD
BRANCH  13  15
HETATM   15  O   UNK     0      10.405  -2.643  25.148  0.00  0.00    -0.288 OA
HETATM   16  H   UNK     0      11.285  -3.053  25.101  0.00  0.00     0.244 HD
ENDBRANCH  13  15
ENDBRANCH   9  13
ENDBRANCH   4   6
BRANCH   5  17
HETATM   17  C   UNK     0       9.044  -1.309  17.082  0.00  0.00     0.198 C 
BRANCH  17  18
HETATM   18  O   UNK     0       9.945  -1.571  16.021  0.00  0.00    -0.398 OA
HETATM   19  H   UNK     0      10.086  -0.731  15.552  0.00  0.00     0.209 HD
ENDBRANCH  17  18
ENDBRANCH   5  17
BRANCH   2  20
HETATM   20  O   UNK     0      12.331   0.916  19.223  0.00  0.00    -0.388 OA
HETATM   21  H   UNK     0      13.113   0.448  18.887  0.00  0.00     0.210 HD
ENDBRANCH   2  20
BRANCH   3  22
HETATM   22  O   UNK     0      10.666   2.031  17.374  0.00  0.00    -0.390 OA
HETATM   23  H   UNK     0       9.876   2.312  16.882  0.00  0.00     0.210 HD
ENDBRANCH   3  22
TORSDOF 7
ENDMDL
MODEL 8
REMARK VINA RESULT:      -5.3      5.639      7.873
REMARK  7 active torsions:
REMARK  status: ('A' for Active; 'I' for Inactive)
REMARK    1  A    between atoms: O_2  and  C_10 
REMARK    2  A    between atoms: O_3  and  C_11 
REMARK    3  A    between atoms: O_4  and  C_14 
REMARK    4  A    between atoms: O_6  and  N_9 
REMARK    5  A    between atoms: N_7  and  C_12 
REMARK    6  A    between atoms: N_9  and  C_18 
REMARK    7  A    between atoms: C_13  and  C_14 
ROOT
HETATM    1  O   UNK     0      10.140   2.282  21.382  0.00  0.00    -0.353 OA
HETATM    2  C   UNK     0      12.270   1.245  21.348  0.00  0.00     0.198 C 
HETATM    3  C   UNK     0      12.304   2.389  22.339  0.00  0.00     0.182 C 
HETATM    4  C   UNK     0      10.779   1.009  21.191  0.00  0.00     0.264 C 
HETATM    5  C   UNK     0      11.104   3.220  21.908  0.00  0.00     0.179 C 
ENDROOT
BRANCH   4   6
HETATM    6  N   UNK     0      10.437   0.507  19.890  0.00  0.00    -0.278 N 
HETATM    7  C   UNK     0      10.781   1.257  18.776  0.00  0.00     0.102 A 
HETATM    8  C   UNK     0      10.506   0.868  17.533  0.00  0.00     0.070 A 
HETATM    9  C   UNK     0       9.798  -0.431  17.389  0.00  0.00     0.153 A 
HETATM   10  N   UNK     0       9.465  -1.149  18.429  0.00  0.00    -0.174 NA
HETATM   11  C   UNK     0       9.763  -0.728  19.714  0.00  0.00     0.352 A 
HETATM   12  O   UNK     0       9.445  -1.419  20.682  0.00  0.00    -0.244 OA
BRANCH   9  13
HETATM   13  N   UNK     0       9.492  -0.868  16.121  0.00  0.00    -0.251 N 
HETATM   14  H   UNK     0       9.578  -0.341  15.260  0.00  0.00     0.196 HD
BRANCH  13  15
HETATM   15  O   UNK     0       9.135  -2.184  16.070  0.00  0.00    -0.288 OA
HETATM   16  H   UNK     0       9.953  -2.626  16.352  0.00  0.00     0.244 HD
ENDBRANCH  13  15
ENDBRANCH   9  13
ENDBRANCH   4   6
BRANCH   5  17
HETATM   17  C   UNK     0      11.431   4.227  20.812  0.00  0.00     0.198 C 
BRANCH  17  18
HETATM   18  O   UNK     0      10.953   5.499  21.209  0.00  0.00    -0.398 OA
HETATM   19  H   UNK     0      10.255   5.349  21.870  0.00  0.00     0.209 HD
ENDBRANCH  17  18
ENDBRANCH   5  17
BRANCH   2  20
HETATM   20  O   UNK     0      12.954   0.103  21.824  0.00  0.00    -0.388 OA
HETATM   21  H   UNK     0      12.294  -0.488  22.222  0.00  0.00     0.210 HD
ENDBRANCH   2  20
BRANCH   3  22
HETATM   22  O   UNK     0      12.054   1.908  23.660  0.00  0.00    -0.390 OA
HETATM   23  H   UNK     0      12.117   2.649  24.284  0.00  0.00     0.210 HD
ENDBRANCH   3  22
TORSDOF 7
ENDMDL
MODEL 9
REMARK VINA RESULT:      -5.3      6.849      8.029
REMARK  7 active torsions:
REMARK  status: ('A' for Active; 'I' for Inactive)
REMARK    1  A    between atoms: O_2  and  C_10 
REMARK    2  A    between atoms: O_3  and  C_11 
REMARK    3  A    between atoms: O_4  and  C_14 
REMARK    4  A    between atoms: O_6  and  N_9 
REMARK    5  A    between atoms: N_7  and  C_12 
REMARK    6  A    between atoms: N_9  and  C_18 
REMARK    7  A    between atoms: C_13  and  C_14 
ROOT
HETATM    1  O   UNK     0      10.317   0.016  19.445  0.00  0.00    -0.353 OA
HETATM    2  C   UNK     0      10.692   1.422  17.576  0.00  0.00     0.198 C 
HETATM    3  C   UNK     0      10.023   0.150  17.099  0.00  0.00     0.182 C 
HETATM    4  C   UNK     0      10.388   1.399  19.063  0.00  0.00     0.264 C 
HETATM    5  C   UNK     0      10.289  -0.803  18.256  0.00  0.00     0.179 C 
ENDROOT
BRANCH   4   6
HETATM    6  N   UNK     0      11.406   2.047  19.841  0.00  0.00    -0.278 N 
HETATM    7  C   UNK     0      12.697   2.095  19.338  0.00  0.00     0.102 A 
HETATM    8  C   UNK     0      13.702   2.676  19.990  0.00  0.00     0.070 A 
HETATM    9  C   UNK     0      13.373   3.281  21.307  0.00  0.00     0.153 A 
HETATM   10  N   UNK     0      12.162   3.243  21.795  0.00  0.00    -0.174 NA
HETATM   11  C   UNK     0      11.129   2.636  21.101  0.00  0.00     0.352 A 
HETATM   12  O   UNK     0       9.993   2.612  21.575  0.00  0.00    -0.244 OA
BRANCH   9  13
HETATM   13  N   UNK     0      14.385   3.890  22.014  0.00  0.00    -0.251 N 
HETATM   14  H   UNK     0      15.332   3.551  22.131  0.00  0.00     0.196 HD
BRANCH  13  15
HETATM   15  O   UNK     0      14.045   5.117  22.504  0.00  0.00    -0.288 OA
HETATM   16  H   UNK     0      13.364   5.404  21.873  0.00  0.00     0.244 HD
ENDBRANCH  13  15
ENDBRANCH   9  13
ENDBRANCH   4   6
BRANCH   5  17
HETATM   17  C   UNK     0      11.626  -1.525  18.147  0.00  0.00     0.198 C 
BRANCH  17  18
HETATM   18  O   UNK     0      12.027  -1.530  16.789  0.00  0.00    -0.398 OA
HETATM   19  H   UNK     0      11.276  -1.863  16.269  0.00  0.00     0.209 HD
ENDBRANCH  17  18
ENDBRANCH   5  17
BRANCH   2  20
HETATM   20  O   UNK     0      10.178   2.571  16.933  0.00  0.00    -0.388 OA
HETATM   21  H   UNK     0      10.349   2.475  15.981  0.00  0.00     0.210 HD
ENDBRANCH   2  20
BRANCH   3  22
HETATM   22  O   UNK     0       8.612   0.340  17.001  0.00  0.00    -0.390 OA
HETATM   23  H   UNK     0       8.305  -0.001  16.144  0.00  0.00     0.210 HD
ENDBRANCH   3  22
TORSDOF 7
ENDMDL
MODEL 10
REMARK VINA RESULT:      -5.3      7.803      9.761
REMARK  7 active torsions:
REMARK  status: ('A' for Active; 'I' for Inactive)
REMARK    1  A    between atoms: O_2  and  C_10 
REMARK    2  A    between atoms: O_3  and  C_11 
REMARK    3  A    between atoms: O_4  and  C_14 
REMARK    4  A    between atoms: O_6  and  N_9 
REMARK    5  A    between atoms: N_7  and  C_12 
REMARK    6  A    between atoms: N_9  and  C_18 
REMARK    7  A    between atoms: C_13  and  C_14 
ROOT
HETATM    1  O   UNK     0      14.743   4.324  24.464  0.00  0.00    -0.353 OA
HETATM    2  C   UNK     0      12.921   5.700  25.095  0.00  0.00     0.198 C 
HETATM    3  C   UNK     0      13.327   4.858  26.286  0.00  0.00     0.182 C 
HETATM    4  C   UNK     0      14.151   5.608  24.210  0.00  0.00     0.264 C 
HETATM    5  C   UNK     0      14.122   3.738  25.628  0.00  0.00     0.179 C 
ENDROOT
BRANCH   4   6
HETATM    6  N   UNK     0      13.831   5.707  22.814  0.00  0.00    -0.278 N 
HETATM    7  C   UNK     0      12.554   5.361  22.399  0.00  0.00     0.102 A 
HETATM    8  C   UNK     0      12.170   5.423  21.125  0.00  0.00     0.070 A 
HETATM    9  C   UNK     0      13.190   5.887  20.150  0.00  0.00     0.153 A 
HETATM   10  N   UNK     0      14.398   6.216  20.525  0.00  0.00    -0.174 NA
HETATM   11  C   UNK     0      14.778   6.147  21.855  0.00  0.00     0.352 A 
HETATM   12  O   UNK     0      15.920   6.463  22.191  0.00  0.00    -0.244 OA
BRANCH   9  13
HETATM   13  N   UNK     0      12.834   5.964  18.823  0.00  0.00    -0.251 N 
HETATM   14  H   UNK     0      13.428   5.776  18.023  0.00  0.00     0.196 HD
BRANCH  13  15
HETATM   15  O   UNK     0      11.510   6.229  18.629  0.00  0.00    -0.288 OA
HETATM   16  H   UNK     0      11.251   5.524  18.013  0.00  0.00     0.244 HD
ENDBRANCH  13  15
ENDBRANCH   9  13
ENDBRANCH   4   6
BRANCH   5  17
HETATM   17  C   UNK     0      13.253   2.575  25.166  0.00  0.00     0.198 C 
BRANCH  17  18
HETATM   18  O   UNK     0      13.719   2.135  23.903  0.00  0.00    -0.398 OA
HETATM   19  H   UNK     0      14.220   1.315  24.053  0.00  0.00     0.209 HD
ENDBRANCH  17  18
ENDBRANCH   5  17
BRANCH   2  20
HETATM   20  O   UNK     0      12.612   7.030  25.460  0.00  0.00    -0.388 OA
HETATM   21  H   UNK     0      13.413   7.564  25.325  0.00  0.00     0.210 HD
ENDBRANCH   2  20
BRANCH   3  22
HETATM   22  O   UNK     0      14.216   5.590  27.130  0.00  0.00    -0.390 OA
HETATM   23  H   UNK     0      14.743   6.196  26.585  0.00  0.00     0.210 HD
ENDBRANCH   3  22
TORSDOF 7
ENDMDL
