MODEL 1
REMARK VINA RESULT:      -8.4      0.000      0.000
REMARK  10 active torsions:
REMARK  status: ('A' for Active; 'I' for Inactive)
REMARK    1  A    between atoms: O_2  and  C_15 
REMARK    2  A    between atoms: O_2  and  C_18 
REMARK    3  A    between atoms: O_3  and  C_12 
REMARK    4  A    between atoms: O_4  and  C_13 
REMARK    5  A    between atoms: O_5  and  C_14 
REMARK    6  A    between atoms: O_6  and  C_17 
REMARK    7  A    between atoms: O_9  and  C_19 
REMARK    8  A    between atoms: O_10  and  C_23 
REMARK    9  A    between atoms: C_16  and  C_17 
REMARK   10  A    between atoms: C_25  and  C_27 
ROOT
HETATM    1  O   UNK     0      10.623   0.268  19.351  0.00  0.00    -0.340 OA
HETATM    2  C   UNK     0      11.123   3.061  18.901  0.00  0.00     0.183 C 
HETATM    3  C   UNK     0      11.575   2.344  20.173  0.00  0.00     0.205 C 
HETATM    4  C   UNK     0      10.904   2.076  17.752  0.00  0.00     0.189 C 
HETATM    5  C   UNK     0      10.680   1.141  20.477  0.00  0.00     0.299 C 
HETATM    6  C   UNK     0      10.056   0.896  18.208  0.00  0.00     0.253 C 
ENDROOT
BRANCH   5   7
HETATM    7  O   UNK     0      11.236   0.451  21.595  0.00  0.00    -0.315 OA
BRANCH   7   8
HETATM    8  C   UNK     0      10.357   0.015  22.543  0.00  0.00     0.111 A 
HETATM    9  C   UNK     0      10.299  -1.336  22.888  0.00  0.00     0.137 A 
HETATM   10  C   UNK     0       9.394  -1.765  23.860  0.00  0.00     0.129 A 
HETATM   11  O   UNK     0       9.383  -3.104  24.156  0.00  0.00    -0.306 OA
HETATM   12  C   UNK     0       8.554  -0.845  24.484  0.00  0.00     0.084 A 
HETATM   13  C   UNK     0       8.500  -3.559  25.124  0.00  0.00     0.090 A 
HETATM   14  C   UNK     0       7.636  -2.774  25.788  0.00  0.00     0.094 A 
HETATM   15  C   UNK     0       7.609  -1.325  25.504  0.00  0.00     0.190 A 
HETATM   16  O   UNK     0       6.842  -0.574  26.090  0.00  0.00    -0.287 OA
HETATM   17  C   UNK     0       8.610   0.508  24.141  0.00  0.00     0.085 A 
HETATM   18  C   UNK     0       9.514   0.934  23.169  0.00  0.00     0.077 A 
BRANCH   9  19
HETATM   19  O   UNK     0      11.125  -2.231  22.273  0.00  0.00    -0.351 OA
HETATM   20  C   UNK     0      10.631  -2.865  21.096  0.00  0.00     0.210 C 
ENDBRANCH   9  19
BRANCH  13  21
HETATM   21  C   UNK     0       8.565  -5.015  25.359  0.00  0.00    -0.002 A 
HETATM   22  C   UNK     0       9.770  -5.612  25.739  0.00  0.00     0.014 A 
HETATM   23  C   UNK     0       9.831  -6.987  25.962  0.00  0.00     0.001 A 
HETATM   24  C   UNK     0       8.688  -7.771  25.806  0.00  0.00     0.000 A 
HETATM   25  C   UNK     0       7.483  -7.179  25.426  0.00  0.00     0.001 A 
HETATM   26  C   UNK     0       7.421  -5.803  25.203  0.00  0.00     0.014 A 
ENDBRANCH  13  21
BRANCH  17  27
HETATM   27  O   UNK     0       7.809   1.445  24.721  0.00  0.00    -0.360 OA
HETATM   28  H   UNK     0       7.739   1.290  25.675  0.00  0.00     0.217 HD
ENDBRANCH  17  27
ENDBRANCH   7   8
ENDBRANCH   5   7
BRANCH   6  29
HETATM   29  C   UNK     0      10.057  -0.192  17.182  0.00  0.00     0.172 C 
HETATM   30  O   UNK     0      10.758  -1.193  17.222  0.00  0.00    -0.648 OA
BRANCH  29  31
HETATM   31  O   UNK     0       9.175   0.083  16.192  0.00  0.00    -0.774 OA
HETATM   32  H   UNK     0       8.887  -0.729  15.721  0.00  0.00     0.167 HD
ENDBRANCH  29  31
ENDBRANCH   6  29
BRANCH   3  33
HETATM   33  O   UNK     0      11.502   3.245  21.276  0.00  0.00    -0.388 OA
HETATM   34  H   UNK     0      10.605   3.186  21.647  0.00  0.00     0.210 HD
ENDBRANCH   3  33
BRANCH   4  35
HETATM   35  O   UNK     0      10.227   2.743  16.688  0.00  0.00    -0.390 OA
HETATM   36  H   UNK     0      10.878   3.282  16.207  0.00  0.00     0.210 HD
ENDBRANCH   4  35
BRANCH   2  37
HETATM   37  O   UNK     0      12.127   3.994  18.498  0.00  0.00    -0.390 OA
HETATM   38  H   UNK     0      11.817   4.884  18.737  0.00  0.00     0.210 HD
ENDBRANCH   2  37
TORSDOF 10
ENDMDL
MODEL 2
REMARK VINA RESULT:      -7.9      1.307      1.622
REMARK  10 active torsions:
REMARK  status: ('A' for Active; 'I' for Inactive)
REMARK    1  A    between atoms: O_2  and  C_15 
REMARK    2  A    between atoms: O_2  and  C_18 
REMARK    3  A    between atoms: O_3  and  C_12 
REMARK    4  A    between atoms: O_4  and  C_13 
REMARK    5  A    between atoms: O_5  and  C_14 
REMARK    6  A    between atoms: O_6  and  C_17 
REMARK    7  A    between atoms: O_9  and  C_19 
REMARK    8  A    between atoms: O_10  and  C_23 
REMARK    9  A    between atoms: C_16  and  C_17 
REMARK   10  A    between atoms: C_25  and  C_27 
ROOT
HETATM    1  O   UNK     0      10.736  -0.237  19.066  0.00  0.00    -0.340 OA
HETATM    2  C   UNK     0      11.299   2.579  18.982  0.00  0.00     0.183 C 
HETATM    3  C   UNK     0      11.845   1.668  20.081  0.00  0.00     0.205 C 
HETATM    4  C   UNK     0      10.930   1.783  17.729  0.00  0.00     0.189 C 
HETATM    5  C   UNK     0      10.938   0.455  20.296  0.00  0.00     0.299 C 
HETATM    6  C   UNK     0      10.084   0.568  18.092  0.00  0.00     0.253 C 
ENDROOT
BRANCH   5   7
HETATM    7  O   UNK     0      11.574  -0.409  21.237  0.00  0.00    -0.315 OA
BRANCH   7   8
HETATM    8  C   UNK     0      10.762  -1.031  22.140  0.00  0.00     0.111 A 
HETATM    9  C   UNK     0      10.870  -2.405  22.361  0.00  0.00     0.137 A 
HETATM   10  C   UNK     0      10.033  -3.026  23.289  0.00  0.00     0.129 A 
HETATM   11  O   UNK     0      10.185  -4.378  23.462  0.00  0.00    -0.306 OA
HETATM   12  C   UNK     0       9.094  -2.274  23.992  0.00  0.00     0.084 A 
HETATM   13  C   UNK     0       9.373  -5.021  24.383  0.00  0.00     0.090 A 
HETATM   14  C   UNK     0       8.427  -4.410  25.115  0.00  0.00     0.094 A 
HETATM   15  C   UNK     0       8.223  -2.955  24.963  0.00  0.00     0.190 A 
HETATM   16  O   UNK     0       7.376  -2.358  25.613  0.00  0.00    -0.287 OA
HETATM   17  C   UNK     0       8.983  -0.899  23.774  0.00  0.00     0.085 A 
HETATM   18  C   UNK     0       9.820  -0.281  22.845  0.00  0.00     0.077 A 
BRANCH   9  19
HETATM   19  O   UNK     0      11.793  -3.134  21.669  0.00  0.00    -0.351 OA
HETATM   20  C   UNK     0      13.098  -3.230  22.235  0.00  0.00     0.210 C 
ENDBRANCH   9  19
BRANCH  13  21
HETATM   21  C   UNK     0       9.615  -6.474  24.485  0.00  0.00    -0.002 A 
HETATM   22  C   UNK     0       9.248  -7.168  25.642  0.00  0.00     0.014 A 
HETATM   23  C   UNK     0       9.476  -8.540  25.738  0.00  0.00     0.001 A 
HETATM   24  C   UNK     0      10.071  -9.225  24.679  0.00  0.00     0.000 A 
HETATM   25  C   UNK     0      10.439  -8.536  23.523  0.00  0.00     0.001 A 
HETATM   26  C   UNK     0      10.211  -7.163  23.426  0.00  0.00     0.014 A 
ENDBRANCH  13  21
BRANCH  17  27
HETATM   27  O   UNK     0       8.080  -0.122  24.435  0.00  0.00    -0.360 OA
HETATM   28  H   UNK     0       8.526   0.435  25.090  0.00  0.00     0.217 HD
ENDBRANCH  17  27
ENDBRANCH   7   8
ENDBRANCH   5   7
BRANCH   6  29
HETATM   29  C   UNK     0       9.941  -0.352  16.923  0.00  0.00     0.172 C 
HETATM   30  O   UNK     0      10.568  -1.391  16.768  0.00  0.00    -0.648 OA
BRANCH  29  31
HETATM   31  O   UNK     0       9.022   0.121  16.049  0.00  0.00    -0.774 OA
HETATM   32  H   UNK     0       8.650  -0.590  15.485  0.00  0.00     0.167 HD
ENDBRANCH  29  31
ENDBRANCH   6  29
BRANCH   3  33
HETATM   33  O   UNK     0      11.917   2.395  21.307  0.00  0.00    -0.388 OA
HETATM   34  H   UNK     0      11.506   1.849  21.998  0.00  0.00     0.210 HD
ENDBRANCH   3  33
BRANCH   4  35
HETATM   35  O   UNK     0      10.178   2.618  16.850  0.00  0.00    -0.390 OA
HETATM   36  H   UNK     0      10.327   2.310  15.941  0.00  0.00     0.210 HD
ENDBRANCH   4  35
BRANCH   2  37
HETATM   37  O   UNK     0      12.295   3.536  18.619  0.00  0.00    -0.390 OA
HETATM   38  H   UNK     0      13.113   3.305  19.090  0.00  0.00     0.210 HD
ENDBRANCH   2  37
TORSDOF 10
ENDMDL
MODEL 3
REMARK VINA RESULT:      -7.6      2.095      3.160
REMARK  10 active torsions:
REMARK  status: ('A' for Active; 'I' for Inactive)
REMARK    1  A    between atoms: O_2  and  C_15 
REMARK    2  A    between atoms: O_2  and  C_18 
REMARK    3  A    between atoms: O_3  and  C_12 
REMARK    4  A    between atoms: O_4  and  C_13 
REMARK    5  A    between atoms: O_5  and  C_14 
REMARK    6  A    between atoms: O_6  and  C_17 
REMARK    7  A    between atoms: O_9  and  C_19 
REMARK    8  A    between atoms: O_10  and  C_23 
REMARK    9  A    between atoms: C_16  and  C_17 
REMARK   10  A    between atoms: C_25  and  C_27 
ROOT
HETATM    1  O   UNK     0      11.417   3.488  20.601  0.00  0.00    -0.340 OA
HETATM    2  C   UNK     0      13.923   3.639  21.997  0.00  0.00     0.183 C 
HETATM    3  C   UNK     0      13.150   2.329  21.842  0.00  0.00     0.205 C 
HETATM    4  C   UNK     0      13.525   4.653  20.924  0.00  0.00     0.189 C 
HETATM    5  C   UNK     0      11.652   2.586  21.680  0.00  0.00     0.299 C 
HETATM    6  C   UNK     0      12.009   4.762  20.820  0.00  0.00     0.253 C 
ENDROOT
BRANCH   5   7
HETATM    7  O   UNK     0      11.017   1.338  21.412  0.00  0.00    -0.315 OA
BRANCH   7   8
HETATM    8  C   UNK     0      10.182   0.856  22.378  0.00  0.00     0.111 A 
HETATM    9  C   UNK     0      10.104  -0.514  22.629  0.00  0.00     0.137 A 
HETATM   10  C   UNK     0       9.245  -0.990  23.621  0.00  0.00     0.129 A 
HETATM   11  O   UNK     0       9.211  -2.346  23.821  0.00  0.00    -0.306 OA
HETATM   12  C   UNK     0       8.469  -0.097  24.357  0.00  0.00     0.084 A 
HETATM   13  C   UNK     0       8.372  -2.848  24.804  0.00  0.00     0.090 A 
HETATM   14  C   UNK     0       7.572  -2.092  25.574  0.00  0.00     0.094 A 
HETATM   15  C   UNK     0       7.571  -0.626  25.395  0.00  0.00     0.190 A 
HETATM   16  O   UNK     0       6.861   0.100  26.078  0.00  0.00    -0.287 OA
HETATM   17  C   UNK     0       8.545   1.275  24.109  0.00  0.00     0.085 A 
HETATM   18  C   UNK     0       9.403   1.749  23.117  0.00  0.00     0.077 A 
BRANCH   9  19
HETATM   19  O   UNK     0      10.867  -1.383  21.904  0.00  0.00    -0.351 OA
HETATM   20  C   UNK     0      10.304  -1.883  20.694  0.00  0.00     0.210 C 
ENDBRANCH   9  19
BRANCH  13  21
HETATM   21  C   UNK     0       8.408  -4.318  24.931  0.00  0.00    -0.002 A 
HETATM   22  C   UNK     0       9.594  -4.964  25.292  0.00  0.00     0.014 A 
HETATM   23  C   UNK     0       9.627  -6.353  25.413  0.00  0.00     0.001 A 
HETATM   24  C   UNK     0       8.476  -7.102  25.174  0.00  0.00     0.000 A 
HETATM   25  C   UNK     0       7.290  -6.462  24.813  0.00  0.00     0.001 A 
HETATM   26  C   UNK     0       7.256  -5.072  24.692  0.00  0.00     0.014 A 
ENDBRANCH  13  21
BRANCH  17  27
HETATM   27  O   UNK     0       7.806   2.188  24.801  0.00  0.00    -0.360 OA
HETATM   28  H   UNK     0       7.004   2.419  24.309  0.00  0.00     0.217 HD
ENDBRANCH  17  27
ENDBRANCH   7   8
ENDBRANCH   5   7
BRANCH   6  29
HETATM   29  C   UNK     0      11.610   5.541  19.609  0.00  0.00     0.172 C 
HETATM   30  O   UNK     0      11.213   5.053  18.560  0.00  0.00    -0.648 OA
BRANCH  29  31
HETATM   31  O   UNK     0      11.751   6.871  19.825  0.00  0.00    -0.774 OA
HETATM   32  H   UNK     0      11.930   7.361  18.995  0.00  0.00     0.167 HD
ENDBRANCH  29  31
ENDBRANCH   6  29
BRANCH   3  33
HETATM   33  O   UNK     0      13.343   1.525  23.005  0.00  0.00    -0.388 OA
HETATM   34  H   UNK     0      12.474   1.395  23.421  0.00  0.00     0.210 HD
ENDBRANCH   3  33
BRANCH   4  35
HETATM   35  O   UNK     0      14.054   5.932  21.269  0.00  0.00    -0.390 OA
HETATM   36  H   UNK     0      14.099   6.468  20.460  0.00  0.00     0.210 HD
ENDBRANCH   4  35
BRANCH   2  37
HETATM   37  O   UNK     0      15.323   3.385  21.867  0.00  0.00    -0.390 OA
HETATM   38  H   UNK     0      15.764   3.755  22.650  0.00  0.00     0.210 HD
ENDBRANCH   2  37
TORSDOF 10
ENDMDL
MODEL 4
REMARK VINA RESULT:      -7.5      2.051      9.074
REMARK  10 active torsions:
REMARK  status: ('A' for Active; 'I' for Inactive)
REMARK    1  A    between atoms: O_2  and  C_15 
REMARK    2  A    between atoms: O_2  and  C_18 
REMARK    3  A    between atoms: O_3  and  C_12 
REMARK    4  A    between atoms: O_4  and  C_13 
REMARK    5  A    between atoms: O_5  and  C_14 
REMARK    6  A    between atoms: O_6  and  C_17 
REMARK    7  A    between atoms: O_9  and  C_19 
REMARK    8  A    between atoms: O_10  and  C_23 
REMARK    9  A    between atoms: C_16  and  C_17 
REMARK   10  A    between atoms: C_25  and  C_27 
ROOT
HETATM    1  O   UNK     0       9.372  -1.680  23.935  0.00  0.00    -0.340 OA
HETATM    2  C   UNK     0       8.844  -4.392  24.725  0.00  0.00     0.183 C 
HETATM    3  C   UNK     0      10.034  -4.013  23.842  0.00  0.00     0.205 C 
HETATM    4  C   UNK     0       8.348  -3.194  25.536  0.00  0.00     0.189 C 
HETATM    5  C   UNK     0       9.752  -2.734  23.052  0.00  0.00     0.299 C 
HETATM    6  C   UNK     0       8.174  -1.972  24.643  0.00  0.00     0.253 C 
ENDROOT
BRANCH   5   7
HETATM    7  O   UNK     0      10.944  -2.374  22.357  0.00  0.00    -0.315 OA
BRANCH   7   8
HETATM    8  C   UNK     0      10.807  -1.498  21.320  0.00  0.00     0.111 A 
HETATM    9  C   UNK     0      11.502  -0.288  21.318  0.00  0.00     0.137 A 
HETATM   10  C   UNK     0      11.350   0.597  20.249  0.00  0.00     0.129 A 
HETATM   11  O   UNK     0      12.058   1.770  20.303  0.00  0.00    -0.306 OA
HETATM   12  C   UNK     0      10.506   0.270  19.189  0.00  0.00     0.084 A 
HETATM   13  C   UNK     0      11.933   2.665  19.252  0.00  0.00     0.090 A 
HETATM   14  C   UNK     0      11.148   2.469  18.180  0.00  0.00     0.094 A 
HETATM   15  C   UNK     0      10.364   1.222  18.076  0.00  0.00     0.190 A 
HETATM   16  O   UNK     0       9.640   1.001  17.115  0.00  0.00    -0.287 OA
HETATM   17  C   UNK     0       9.809  -0.940  19.188  0.00  0.00     0.085 A 
HETATM   18  C   UNK     0       9.962  -1.822  20.257  0.00  0.00     0.077 A 
BRANCH   9  19
HETATM   19  O   UNK     0      12.326   0.025  22.359  0.00  0.00    -0.351 OA
HETATM   20  C   UNK     0      11.764   0.793  23.420  0.00  0.00     0.210 C 
ENDBRANCH   9  19
BRANCH  13  21
HETATM   21  C   UNK     0      12.732   3.897  19.414  0.00  0.00    -0.002 A 
HETATM   22  C   UNK     0      14.065   3.930  18.994  0.00  0.00     0.014 A 
HETATM   23  C   UNK     0      14.819   5.093  19.146  0.00  0.00     0.001 A 
HETATM   24  C   UNK     0      14.244   6.228  19.719  0.00  0.00     0.000 A 
HETATM   25  C   UNK     0      12.914   6.199  20.140  0.00  0.00     0.001 A 
HETATM   26  C   UNK     0      12.159   5.035  19.987  0.00  0.00     0.014 A 
ENDBRANCH  13  21
BRANCH  17  27
HETATM   27  O   UNK     0       8.972  -1.304  18.176  0.00  0.00    -0.360 OA
HETATM   28  H   UNK     0       8.805  -0.553  17.587  0.00  0.00     0.217 HD
ENDBRANCH  17  27
ENDBRANCH   7   8
ENDBRANCH   5   7
BRANCH   6  29
HETATM   29  C   UNK     0       7.947  -0.741  25.459  0.00  0.00     0.172 C 
HETATM   30  O   UNK     0       8.707   0.216  25.511  0.00  0.00    -0.648 OA
BRANCH  29  31
HETATM   31  O   UNK     0       6.781  -0.827  26.143  0.00  0.00    -0.774 OA
HETATM   32  H   UNK     0       6.833  -0.381  27.016  0.00  0.00     0.167 HD
ENDBRANCH  29  31
ENDBRANCH   6  29
BRANCH   3  33
HETATM   33  O   UNK     0      10.287  -5.065  22.912  0.00  0.00    -0.388 OA
HETATM   34  H   UNK     0       9.864  -4.824  22.071  0.00  0.00     0.210 HD
ENDBRANCH   3  33
BRANCH   4  35
HETATM   35  O   UNK     0       7.087  -3.517  26.121  0.00  0.00    -0.390 OA
HETATM   36  H   UNK     0       6.953  -4.477  26.037  0.00  0.00     0.210 HD
ENDBRANCH   4  35
BRANCH   2  37
HETATM   37  O   UNK     0       9.238  -5.414  25.641  0.00  0.00    -0.390 OA
HETATM   38  H   UNK     0      10.209  -5.408  25.691  0.00  0.00     0.210 HD
ENDBRANCH   2  37
TORSDOF 10
ENDMDL
MODEL 5
REMARK VINA RESULT:      -7.4      4.945      8.498
REMARK  10 active torsions:
REMARK  status: ('A' for Active; 'I' for Inactive)
REMARK    1  A    between atoms: O_2  and  C_15 
REMARK    2  A    between atoms: O_2  and  C_18 
REMARK    3  A    between atoms: O_3  and  C_12 
REMARK    4  A    between atoms: O_4  and  C_13 
REMARK    5  A    between atoms: O_5  and  C_14 
REMARK    6  A    between atoms: O_6  and  C_17 
REMARK    7  A    between atoms: O_9  and  C_19 
REMARK    8  A    between atoms: O_10  and  C_23 
REMARK    9  A    between atoms: C_16  and  C_17 
REMARK   10  A    between atoms: C_25  and  C_27 
ROOT
HETATM    1  O   UNK     0      14.099   2.268  25.345  0.00  0.00    -0.340 OA
HETATM    2  C   UNK     0      14.794   4.517  26.991  0.00  0.00     0.183 C 
HETATM    3  C   UNK     0      13.424   4.382  26.327  0.00  0.00     0.205 C 
HETATM    4  C   UNK     0      15.483   3.160  27.132  0.00  0.00     0.189 C 
HETATM    5  C   UNK     0      13.506   3.532  25.057  0.00  0.00     0.299 C 
HETATM    6  C   UNK     0      15.435   2.391  25.818  0.00  0.00     0.253 C 
ENDROOT
BRANCH   5   7
HETATM    7  O   UNK     0      12.180   3.342  24.568  0.00  0.00    -0.315 OA
BRANCH   7   8
HETATM    8  C   UNK     0      11.990   3.523  23.229  0.00  0.00     0.111 A 
HETATM    9  C   UNK     0      11.713   2.436  22.400  0.00  0.00     0.137 A 
HETATM   10  C   UNK     0      11.521   2.639  21.032  0.00  0.00     0.129 A 
HETATM   11  O   UNK     0      11.251   1.533  20.268  0.00  0.00    -0.306 OA
HETATM   12  C   UNK     0      11.607   3.924  20.500  0.00  0.00     0.084 A 
HETATM   13  C   UNK     0      11.049   1.704  18.907  0.00  0.00     0.090 A 
HETATM   14  C   UNK     0      11.113   2.887  18.275  0.00  0.00     0.094 A 
HETATM   15  C   UNK     0      11.402   4.108  19.055  0.00  0.00     0.190 A 
HETATM   16  O   UNK     0      11.465   5.207  18.520  0.00  0.00    -0.287 OA
HETATM   17  C   UNK     0      11.884   5.014  21.327  0.00  0.00     0.085 A 
HETATM   18  C   UNK     0      12.076   4.809  22.693  0.00  0.00     0.077 A 
BRANCH   9  19
HETATM   19  O   UNK     0      11.629   1.181  22.928  0.00  0.00    -0.351 OA
HETATM   20  C   UNK     0      12.803   0.374  22.866  0.00  0.00     0.210 C 
ENDBRANCH   9  19
BRANCH  13  21
HETATM   21  C   UNK     0      10.774   0.449  18.178  0.00  0.00    -0.002 A 
HETATM   22  C   UNK     0      11.459  -0.722  18.512  0.00  0.00     0.014 A 
HETATM   23  C   UNK     0      11.198  -1.907  17.825  0.00  0.00     0.001 A 
HETATM   24  C   UNK     0      10.251  -1.926  16.801  0.00  0.00     0.000 A 
HETATM   25  C   UNK     0       9.565  -0.759  16.465  0.00  0.00     0.001 A 
HETATM   26  C   UNK     0       9.825   0.427  17.152  0.00  0.00     0.014 A 
ENDBRANCH  13  21
BRANCH  17  27
HETATM   27  O   UNK     0      11.980   6.288  20.854  0.00  0.00    -0.360 OA
HETATM   28  H   UNK     0      11.701   6.923  21.531  0.00  0.00     0.217 HD
ENDBRANCH  17  27
ENDBRANCH   7   8
ENDBRANCH   5   7
BRANCH   6  29
HETATM   29  C   UNK     0      15.864   0.972  26.011  0.00  0.00     0.172 C 
HETATM   30  O   UNK     0      16.117   0.187  25.109  0.00  0.00    -0.648 OA
BRANCH  29  31
HETATM   31  O   UNK     0      15.932   0.667  27.329  0.00  0.00    -0.774 OA
HETATM   32  H   UNK     0      15.960   1.471  27.891  0.00  0.00     0.167 HD
ENDBRANCH  29  31
ENDBRANCH   6  29
BRANCH   3  33
HETATM   33  O   UNK     0      12.941   5.675  25.968  0.00  0.00    -0.388 OA
HETATM   34  H   UNK     0      12.233   5.555  25.313  0.00  0.00     0.210 HD
ENDBRANCH   3  33
BRANCH   4  35
HETATM   35  O   UNK     0      16.848   3.364  27.493  0.00  0.00    -0.390 OA
HETATM   36  H   UNK     0      17.069   2.740  28.205  0.00  0.00     0.210 HD
ENDBRANCH   4  35
BRANCH   2  37
HETATM   37  O   UNK     0      14.637   5.071  28.298  0.00  0.00    -0.390 OA
HETATM   38  H   UNK     0      14.607   4.333  28.930  0.00  0.00     0.210 HD
ENDBRANCH   2  37
TORSDOF 10
ENDMDL
MODEL 6
REMARK VINA RESULT:      -7.4      4.509     10.524
REMARK  10 active torsions:
REMARK  status: ('A' for Active; 'I' for Inactive)
REMARK    1  A    between atoms: O_2  and  C_15 
REMARK    2  A    between atoms: O_2  and  C_18 
REMARK    3  A    between atoms: O_3  and  C_12 
REMARK    4  A    between atoms: O_4  and  C_13 
REMARK    5  A    between atoms: O_5  and  C_14 
REMARK    6  A    between atoms: O_6  and  C_17 
REMARK    7  A    between atoms: O_9  and  C_19 
REMARK    8  A    between atoms: O_10  and  C_23 
REMARK    9  A    between atoms: C_16  and  C_17 
REMARK   10  A    between atoms: C_25  and  C_27 
ROOT
HETATM    1  O   UNK     0      10.479   2.260  19.232  0.00  0.00    -0.340 OA
HETATM    2  C   UNK     0      10.491  -0.126  20.834  0.00  0.00     0.183 C 
HETATM    3  C   UNK     0      10.537   1.273  21.449  0.00  0.00     0.205 C 
HETATM    4  C   UNK     0       9.909  -0.095  19.420  0.00  0.00     0.189 C 
HETATM    5  C   UNK     0      11.162   2.282  20.484  0.00  0.00     0.299 C 
HETATM    6  C   UNK     0      10.571   0.995  18.587  0.00  0.00     0.253 C 
ENDROOT
BRANCH   5   7
HETATM    7  O   UNK     0      11.052   3.578  21.070  0.00  0.00    -0.315 OA
BRANCH   7   8
HETATM    8  C   UNK     0      12.207   4.294  21.190  0.00  0.00     0.111 A 
HETATM    9  C   UNK     0      12.737   4.973  20.092  0.00  0.00     0.137 A 
HETATM   10  C   UNK     0      13.920   5.702  20.232  0.00  0.00     0.129 A 
HETATM   11  O   UNK     0      14.392   6.348  19.119  0.00  0.00    -0.306 OA
HETATM   12  C   UNK     0      14.566   5.749  21.466  0.00  0.00     0.084 A 
HETATM   13  C   UNK     0      15.560   7.086  19.229  0.00  0.00     0.090 A 
HETATM   14  C   UNK     0      16.278   7.202  20.358  0.00  0.00     0.094 A 
HETATM   15  C   UNK     0      15.812   6.523  21.584  0.00  0.00     0.190 A 
HETATM   16  O   UNK     0      16.432   6.606  22.635  0.00  0.00    -0.287 OA
HETATM   17  C   UNK     0      14.039   5.070  22.566  0.00  0.00     0.085 A 
HETATM   18  C   UNK     0      12.858   4.343  22.424  0.00  0.00     0.077 A 
BRANCH   9  19
HETATM   19  O   UNK     0      12.098   4.923  18.888  0.00  0.00    -0.351 OA
HETATM   20  C   UNK     0      11.094   5.906  18.647  0.00  0.00     0.210 C 
ENDBRANCH   9  19
BRANCH  13  21
HETATM   21  C   UNK     0      15.982   7.734  17.971  0.00  0.00    -0.002 A 
HETATM   22  C   UNK     0      16.990   8.702  17.983  0.00  0.00     0.014 A 
HETATM   23  C   UNK     0      17.390   9.313  16.795  0.00  0.00     0.001 A 
HETATM   24  C   UNK     0      16.783   8.959  15.590  0.00  0.00     0.000 A 
HETATM   25  C   UNK     0      15.776   7.993  15.573  0.00  0.00     0.001 A 
HETATM   26  C   UNK     0      15.377   7.381  16.762  0.00  0.00     0.014 A 
ENDBRANCH  13  21
BRANCH  17  27
HETATM   27  O   UNK     0      14.635   5.085  23.792  0.00  0.00    -0.360 OA
HETATM   28  H   UNK     0      15.296   4.381  23.856  0.00  0.00     0.217 HD
ENDBRANCH  17  27
ENDBRANCH   7   8
ENDBRANCH   5   7
BRANCH   6  29
HETATM   29  C   UNK     0       9.836   1.209  17.304  0.00  0.00     0.172 C 
HETATM   30  O   UNK     0       9.092   0.394  16.777  0.00  0.00    -0.648 OA
BRANCH  29  31
HETATM   31  O   UNK     0      10.108   2.434  16.794  0.00  0.00    -0.774 OA
HETATM   32  H   UNK     0      10.448   3.050  17.478  0.00  0.00     0.167 HD
ENDBRANCH  29  31
ENDBRANCH   6  29
BRANCH   3  33
HETATM   33  O   UNK     0      11.327   1.243  22.636  0.00  0.00    -0.388 OA
HETATM   34  H   UNK     0      11.077   0.447  23.137  0.00  0.00     0.210 HD
ENDBRANCH   3  33
BRANCH   4  35
HETATM   35  O   UNK     0      10.141  -1.355  18.792  0.00  0.00    -0.390 OA
HETATM   36  H   UNK     0      11.087  -1.414  18.575  0.00  0.00     0.210 HD
ENDBRANCH   4  35
BRANCH   2  37
HETATM   37  O   UNK     0       9.664  -0.971  21.634  0.00  0.00    -0.390 OA
HETATM   38  H   UNK     0       9.568  -0.551  22.506  0.00  0.00     0.210 HD
ENDBRANCH   2  37
TORSDOF 10
ENDMDL
MODEL 7
REMARK VINA RESULT:      -7.3      4.539      9.009
REMARK  10 active torsions:
REMARK  status: ('A' for Active; 'I' for Inactive)
REMARK    1  A    between atoms: O_2  and  C_15 
REMARK    2  A    between atoms: O_2  and  C_18 
REMARK    3  A    between atoms: O_3  and  C_12 
REMARK    4  A    between atoms: O_4  and  C_13 
REMARK    5  A    between atoms: O_5  and  C_14 
REMARK    6  A    between atoms: O_6  and  C_17 
REMARK    7  A    between atoms: O_9  and  C_19 
REMARK    8  A    between atoms: O_10  and  C_23 
REMARK    9  A    between atoms: C_16  and  C_17 
REMARK   10  A    between atoms: C_25  and  C_27 
ROOT
HETATM    1  O   UNK     0      10.334   1.730  19.204  0.00  0.00    -0.340 OA
HETATM    2  C   UNK     0      10.378  -0.890  20.384  0.00  0.00     0.183 C 
HETATM    3  C   UNK     0      10.388   0.387  21.225  0.00  0.00     0.205 C 
HETATM    4  C   UNK     0       9.811  -0.634  18.987  0.00  0.00     0.189 C 
HETATM    5  C   UNK     0      11.003   1.555  20.451  0.00  0.00     0.299 C 
HETATM    6  C   UNK     0      10.459   0.593  18.358  0.00  0.00     0.253 C 
ENDROOT
BRANCH   5   7
HETATM    7  O   UNK     0      10.860   2.732  21.244  0.00  0.00    -0.315 OA
BRANCH   7   8
HETATM    8  C   UNK     0      11.848   3.667  21.132  0.00  0.00     0.111 A 
HETATM    9  C   UNK     0      12.902   3.697  22.046  0.00  0.00     0.137 A 
HETATM   10  C   UNK     0      13.904   4.660  21.917  0.00  0.00     0.129 A 
HETATM   11  O   UNK     0      14.913   4.640  22.845  0.00  0.00    -0.306 OA
HETATM   12  C   UNK     0      13.849   5.587  20.878  0.00  0.00     0.084 A 
HETATM   13  C   UNK     0      15.927   5.580  22.739  0.00  0.00     0.090 A 
HETATM   14  C   UNK     0      15.983   6.528  21.789  0.00  0.00     0.094 A 
HETATM   15  C   UNK     0      14.918   6.592  20.768  0.00  0.00     0.190 A 
HETATM   16  O   UNK     0      14.933   7.436  19.882  0.00  0.00    -0.287 OA
HETATM   17  C   UNK     0      12.796   5.560  19.962  0.00  0.00     0.085 A 
HETATM   18  C   UNK     0      11.795   4.597  20.093  0.00  0.00     0.077 A 
BRANCH   9  19
HETATM   19  O   UNK     0      12.948   2.786  23.060  0.00  0.00    -0.351 OA
HETATM   20  C   UNK     0      12.268   3.125  24.266  0.00  0.00     0.210 C 
ENDBRANCH   9  19
BRANCH  13  21
HETATM   21  C   UNK     0      16.957   5.474  23.791  0.00  0.00    -0.002 A 
HETATM   22  C   UNK     0      17.159   4.262  24.457  0.00  0.00     0.014 A 
HETATM   23  C   UNK     0      18.133   4.161  25.450  0.00  0.00     0.001 A 
HETATM   24  C   UNK     0      18.909   5.271  25.782  0.00  0.00     0.000 A 
HETATM   25  C   UNK     0      18.710   6.483  25.120  0.00  0.00     0.001 A 
HETATM   26  C   UNK     0      17.736   6.584  24.126  0.00  0.00     0.014 A 
ENDBRANCH  13  21
BRANCH  17  27
HETATM   27  O   UNK     0      12.698   6.445  18.930  0.00  0.00    -0.360 OA
HETATM   28  H   UNK     0      12.845   5.998  18.084  0.00  0.00     0.217 HD
ENDBRANCH  17  27
ENDBRANCH   7   8
ENDBRANCH   5   7
BRANCH   6  29
HETATM   29  C   UNK     0       9.734   1.005  17.118  0.00  0.00     0.172 C 
HETATM   30  O   UNK     0       8.960   0.297  16.490  0.00  0.00    -0.648 OA
BRANCH  29  31
HETATM   31  O   UNK     0      10.054   2.276  16.775  0.00  0.00    -0.774 OA
HETATM   32  H   UNK     0      10.453   2.325  15.880  0.00  0.00     0.167 HD
ENDBRANCH  29  31
ENDBRANCH   6  29
BRANCH   3  33
HETATM   33  O   UNK     0      11.165   0.173  22.402  0.00  0.00    -0.388 OA
HETATM   34  H   UNK     0      10.642   0.482  23.161  0.00  0.00     0.210 HD
ENDBRANCH   3  33
BRANCH   4  35
HETATM   35  O   UNK     0      10.076  -1.767  18.161  0.00  0.00    -0.390 OA
HETATM   36  H   UNK     0       9.246  -2.020  17.723  0.00  0.00     0.210 HD
ENDBRANCH   4  35
BRANCH   2  37
HETATM   37  O   UNK     0       9.559  -1.872  21.021  0.00  0.00    -0.390 OA
HETATM   38  H   UNK     0       9.893  -2.747  20.763  0.00  0.00     0.210 HD
ENDBRANCH   2  37
TORSDOF 10
ENDMDL
MODEL 8
REMARK VINA RESULT:      -7.2      4.016      5.848
REMARK  10 active torsions:
REMARK  status: ('A' for Active; 'I' for Inactive)
REMARK    1  A    between atoms: O_2  and  C_15 
REMARK    2  A    between atoms: O_2  and  C_18 
REMARK    3  A    between atoms: O_3  and  C_12 
REMARK    4  A    between atoms: O_4  and  C_13 
REMARK    5  A    between atoms: O_5  and  C_14 
REMARK    6  A    between atoms: O_6  and  C_17 
REMARK    7  A    between atoms: O_9  and  C_19 
REMARK    8  A    between atoms: O_10  and  C_23 
REMARK    9  A    between atoms: C_16  and  C_17 
REMARK   10  A    between atoms: C_25  and  C_27 
ROOT
HETATM    1  O   UNK     0      13.849   3.459  24.690  0.00  0.00    -0.340 OA
HETATM    2  C   UNK     0      15.794   2.215  26.401  0.00  0.00     0.183 C 
HETATM    3  C   UNK     0      15.023   1.435  25.335  0.00  0.00     0.205 C 
HETATM    4  C   UNK     0      15.822   3.711  26.087  0.00  0.00     0.189 C 
HETATM    5  C   UNK     0      13.672   2.088  25.041  0.00  0.00     0.299 C 
HETATM    6  C   UNK     0      14.427   4.218  25.746  0.00  0.00     0.253 C 
ENDROOT
BRANCH   5   7
HETATM    7  O   UNK     0      13.071   1.386  23.954  0.00  0.00    -0.315 OA
BRANCH   7   8
HETATM    8  C   UNK     0      11.788   0.960  24.136  0.00  0.00     0.111 A 
HETATM    9  C   UNK     0      11.518  -0.385  24.395  0.00  0.00     0.137 A 
HETATM   10  C   UNK     0      10.200  -0.805  24.580  0.00  0.00     0.129 A 
HETATM   11  O   UNK     0       9.997  -2.137  24.831  0.00  0.00    -0.306 OA
HETATM   12  C   UNK     0       9.158   0.118  24.504  0.00  0.00     0.084 A 
HETATM   13  C   UNK     0       8.699  -2.582  25.026  0.00  0.00     0.090 A 
HETATM   14  C   UNK     0       7.613  -1.795  24.971  0.00  0.00     0.094 A 
HETATM   15  C   UNK     0       7.778  -0.352  24.701  0.00  0.00     0.190 A 
HETATM   16  O   UNK     0       6.816   0.402  24.646  0.00  0.00    -0.287 OA
HETATM   17  C   UNK     0       9.425   1.464  24.244  0.00  0.00     0.085 A 
HETATM   18  C   UNK     0      10.743   1.881  24.060  0.00  0.00     0.077 A 
BRANCH   9  19
HETATM   19  O   UNK     0      12.543  -1.282  24.469  0.00  0.00    -0.351 OA
HETATM   20  C   UNK     0      12.974  -1.873  23.245  0.00  0.00     0.210 C 
ENDBRANCH   9  19
BRANCH  13  21
HETATM   21  C   UNK     0       8.593  -4.033  25.282  0.00  0.00    -0.002 A 
HETATM   22  C   UNK     0       9.681  -4.733  25.811  0.00  0.00     0.014 A 
HETATM   23  C   UNK     0       9.581  -6.103  26.055  0.00  0.00     0.001 A 
HETATM   24  C   UNK     0       8.394  -6.778  25.770  0.00  0.00     0.000 A 
HETATM   25  C   UNK     0       7.306  -6.082  25.242  0.00  0.00     0.001 A 
HETATM   26  C   UNK     0       7.406  -4.712  24.998  0.00  0.00     0.014 A 
ENDBRANCH  13  21
BRANCH  17  27
HETATM   27  O   UNK     0       8.441   2.404  24.160  0.00  0.00    -0.360 OA
HETATM   28  H   UNK     0       8.274   2.800  25.028  0.00  0.00     0.217 HD
ENDBRANCH  17  27
ENDBRANCH   7   8
ENDBRANCH   5   7
BRANCH   6  29
HETATM   29  C   UNK     0      14.481   5.602  25.185  0.00  0.00     0.172 C 
HETATM   30  O   UNK     0      14.206   5.903  24.032  0.00  0.00    -0.648 OA
BRANCH  29  31
HETATM   31  O   UNK     0      14.884   6.486  26.129  0.00  0.00    -0.774 OA
HETATM   32  H   UNK     0      14.238   7.214  26.249  0.00  0.00     0.167 HD
ENDBRANCH  29  31
ENDBRANCH   6  29
BRANCH   3  33
HETATM   33  O   UNK     0      14.786   0.107  25.799  0.00  0.00    -0.388 OA
HETATM   34  H   UNK     0      14.035  -0.252  25.296  0.00  0.00     0.210 HD
ENDBRANCH   3  33
BRANCH   4  35
HETATM   35  O   UNK     0      16.300   4.419  27.229  0.00  0.00    -0.390 OA
HETATM   36  H   UNK     0      15.558   4.924  27.603  0.00  0.00     0.210 HD
ENDBRANCH   4  35
BRANCH   2  37
HETATM   37  O   UNK     0      17.143   1.747  26.450  0.00  0.00    -0.390 OA
HETATM   38  H   UNK     0      17.150   0.918  26.957  0.00  0.00     0.210 HD
ENDBRANCH   2  37
TORSDOF 10
ENDMDL
MODEL 9
REMARK VINA RESULT:      -7.1      2.331      3.997
REMARK  10 active torsions:
REMARK  status: ('A' for Active; 'I' for Inactive)
REMARK    1  A    between atoms: O_2  and  C_15 
REMARK    2  A    between atoms: O_2  and  C_18 
REMARK    3  A    between atoms: O_3  and  C_12 
REMARK    4  A    between atoms: O_4  and  C_13 
REMARK    5  A    between atoms: O_5  and  C_14 
REMARK    6  A    between atoms: O_6  and  C_17 
REMARK    7  A    between atoms: O_9  and  C_19 
REMARK    8  A    between atoms: O_10  and  C_23 
REMARK    9  A    between atoms: C_16  and  C_17 
REMARK   10  A    between atoms: C_25  and  C_27 
ROOT
HETATM    1  O   UNK     0      12.379   3.426  22.176  0.00  0.00    -0.340 OA
HETATM    2  C   UNK     0      14.663   2.168  20.969  0.00  0.00     0.183 C 
HETATM    3  C   UNK     0      13.230   1.723  20.672  0.00  0.00     0.205 C 
HETATM    4  C   UNK     0      14.704   3.604  21.491  0.00  0.00     0.189 C 
HETATM    5  C   UNK     0      12.297   2.042  21.841  0.00  0.00     0.299 C 
HETATM    6  C   UNK     0      13.682   3.804  22.603  0.00  0.00     0.253 C 
ENDROOT
BRANCH   5   7
HETATM    7  O   UNK     0      10.966   1.721  21.442  0.00  0.00    -0.315 OA
BRANCH   7   8
HETATM    8  C   UNK     0      10.159   1.171  22.395  0.00  0.00     0.111 A 
HETATM    9  C   UNK     0      10.060  -0.215  22.526  0.00  0.00     0.137 A 
HETATM   10  C   UNK     0       9.230  -0.761  23.507  0.00  0.00     0.129 A 
HETATM   11  O   UNK     0       9.173  -2.129  23.587  0.00  0.00    -0.306 OA
HETATM   12  C   UNK     0       8.503   0.078  24.350  0.00  0.00     0.084 A 
HETATM   13  C   UNK     0       8.362  -2.700  24.556  0.00  0.00     0.090 A 
HETATM   14  C   UNK     0       7.610  -2.001  25.421  0.00  0.00     0.094 A 
HETATM   15  C   UNK     0       7.635  -0.525  25.373  0.00  0.00     0.190 A 
HETATM   16  O   UNK     0       6.968   0.150  26.145  0.00  0.00    -0.287 OA
HETATM   17  C   UNK     0       8.600   1.465  24.221  0.00  0.00     0.085 A 
HETATM   18  C   UNK     0       9.430   2.008  23.241  0.00  0.00     0.077 A 
BRANCH   9  19
HETATM   19  O   UNK     0      10.774  -1.029  21.697  0.00  0.00    -0.351 OA
HETATM   20  C   UNK     0      10.145  -1.428  20.482  0.00  0.00     0.210 C 
ENDBRANCH   9  19
BRANCH  13  21
HETATM   21  C   UNK     0       8.370  -4.177  24.551  0.00  0.00    -0.002 A 
HETATM   22  C   UNK     0       7.179  -4.886  24.726  0.00  0.00     0.014 A 
HETATM   23  C   UNK     0       7.186  -6.281  24.720  0.00  0.00     0.001 A 
HETATM   24  C   UNK     0       8.384  -6.972  24.539  0.00  0.00     0.000 A 
HETATM   25  C   UNK     0       9.575  -6.267  24.364  0.00  0.00     0.001 A 
HETATM   26  C   UNK     0       9.568  -4.872  24.370  0.00  0.00     0.014 A 
ENDBRANCH  13  21
BRANCH  17  27
HETATM   27  O   UNK     0       7.910   2.326  25.021  0.00  0.00    -0.360 OA
HETATM   28  H   UNK     0       8.171   2.213  25.946  0.00  0.00     0.217 HD
ENDBRANCH  17  27
ENDBRANCH   7   8
ENDBRANCH   5   7
BRANCH   6  29
HETATM   29  C   UNK     0      13.529   5.253  22.936  0.00  0.00     0.172 C 
HETATM   30  O   UNK     0      14.335   6.127  22.652  0.00  0.00    -0.648 OA
BRANCH  29  31
HETATM   31  O   UNK     0      12.370   5.472  23.602  0.00  0.00    -0.774 OA
HETATM   32  H   UNK     0      11.663   4.851  23.325  0.00  0.00     0.167 HD
ENDBRANCH  29  31
ENDBRANCH   6  29
BRANCH   3  33
HETATM   33  O   UNK     0      13.208   0.313  20.455  0.00  0.00    -0.388 OA
HETATM   34  H   UNK     0      12.597  -0.076  21.104  0.00  0.00     0.210 HD
ENDBRANCH   3  33
BRANCH   4  35
HETATM   35  O   UNK     0      16.005   3.875  22.010  0.00  0.00    -0.390 OA
HETATM   36  H   UNK     0      15.904   4.195  22.923  0.00  0.00     0.210 HD
ENDBRANCH   4  35
BRANCH   2  37
HETATM   37  O   UNK     0      15.438   2.110  19.770  0.00  0.00    -0.390 OA
HETATM   38  H   UNK     0      15.339   1.219  19.397  0.00  0.00     0.210 HD
ENDBRANCH   2  37
TORSDOF 10
ENDMDL
MODEL 10
REMARK VINA RESULT:      -7.0      4.232      7.283
REMARK  10 active torsions:
REMARK  status: ('A' for Active; 'I' for Inactive)
REMARK    1  A    between atoms: O_2  and  C_15 
REMARK    2  A    between atoms: O_2  and  C_18 
REMARK    3  A    between atoms: O_3  and  C_12 
REMARK    4  A    between atoms: O_4  and  C_13 
REMARK    5  A    between atoms: O_5  and  C_14 
REMARK    6  A    between atoms: O_6  and  C_17 
REMARK    7  A    between atoms: O_9  and  C_19 
REMARK    8  A    between atoms: O_10  and  C_23 
REMARK    9  A    between atoms: C_16  and  C_17 
REMARK   10  A    between atoms: C_25  and  C_27 
ROOT
HETATM    1  O   UNK     0      13.726   3.073  24.855  0.00  0.00    -0.340 OA
HETATM    2  C   UNK     0      15.366   3.761  27.111  0.00  0.00     0.183 C 
HETATM    3  C   UNK     0      15.472   2.409  26.405  0.00  0.00     0.205 C 
HETATM    4  C   UNK     0      14.748   4.821  26.199  0.00  0.00     0.189 C 
HETATM    5  C   UNK     0      14.151   2.032  25.732  0.00  0.00     0.299 C 
HETATM    6  C   UNK     0      13.479   4.294  25.542  0.00  0.00     0.253 C 
ENDROOT
BRANCH   5   7
HETATM    7  O   UNK     0      14.362   0.832  24.990  0.00  0.00    -0.315 OA
BRANCH   7   8
HETATM    8  C   UNK     0      13.246   0.181  24.551  0.00  0.00     0.111 A 
HETATM    9  C   UNK     0      12.965   0.098  23.186  0.00  0.00     0.137 A 
HETATM   10  C   UNK     0      11.820  -0.572  22.753  0.00  0.00     0.129 A 
HETATM   11  O   UNK     0      11.597  -0.620  21.401  0.00  0.00    -0.306 OA
HETATM   12  C   UNK     0      10.961  -1.155  23.683  0.00  0.00     0.084 A 
HETATM   13  C   UNK     0      10.471  -1.286  20.941  0.00  0.00     0.090 A 
HETATM   14  C   UNK     0       9.566  -1.880  21.736  0.00  0.00     0.094 A 
HETATM   15  C   UNK     0       9.761  -1.854  23.200  0.00  0.00     0.190 A 
HETATM   16  O   UNK     0       8.963  -2.387  23.959  0.00  0.00    -0.287 OA
HETATM   17  C   UNK     0      11.239  -1.074  25.050  0.00  0.00     0.085 A 
HETATM   18  C   UNK     0      12.384  -0.404  25.480  0.00  0.00     0.077 A 
BRANCH   9  19
HETATM   19  O   UNK     0      13.811   0.671  22.282  0.00  0.00    -0.351 OA
HETATM   20  C   UNK     0      14.898  -0.125  21.818  0.00  0.00     0.210 C 
ENDBRANCH   9  19
BRANCH  13  21
HETATM   21  C   UNK     0      10.323  -1.271  19.472  0.00  0.00    -0.002 A 
HETATM   22  C   UNK     0      11.139  -2.081  18.676  0.00  0.00     0.014 A 
HETATM   23  C   UNK     0      10.999  -2.068  17.289  0.00  0.00     0.001 A 
HETATM   24  C   UNK     0      10.044  -1.246  16.691  0.00  0.00     0.000 A 
HETATM   25  C   UNK     0       9.228  -0.436  17.482  0.00  0.00     0.001 A 
HETATM   26  C   UNK     0       9.367  -0.449  18.870  0.00  0.00     0.014 A 
ENDBRANCH  13  21
BRANCH  17  27
HETATM   27  O   UNK     0      10.431  -1.627  25.997  0.00  0.00    -0.360 OA
HETATM   28  H   UNK     0      10.367  -1.046  26.770  0.00  0.00     0.217 HD
ENDBRANCH  17  27
ENDBRANCH   7   8
ENDBRANCH   5   7
BRANCH   6  29
HETATM   29  C   UNK     0      13.016   5.212  24.458  0.00  0.00     0.172 C 
HETATM   30  O   UNK     0      13.393   5.171  23.295  0.00  0.00    -0.648 OA
BRANCH  29  31
HETATM   31  O   UNK     0      12.118   6.106  24.937  0.00  0.00    -0.774 OA
HETATM   32  H   UNK     0      12.428   7.031  24.830  0.00  0.00     0.167 HD
ENDBRANCH  29  31
ENDBRANCH   6  29
BRANCH   3  33
HETATM   33  O   UNK     0      15.791   1.399  27.360  0.00  0.00    -0.388 OA
HETATM   34  H   UNK     0      16.758   1.304  27.377  0.00  0.00     0.210 HD
ENDBRANCH   3  33
BRANCH   4  35
HETATM   35  O   UNK     0      14.417   5.971  26.977  0.00  0.00    -0.390 OA
HETATM   36  H   UNK     0      13.511   6.238  26.749  0.00  0.00     0.210 HD
ENDBRANCH   4  35
BRANCH   2  37
HETATM   37  O   UNK     0      16.672   4.206  27.484  0.00  0.00    -0.390 OA
HETATM   38  H   UNK     0      17.172   3.431  27.790  0.00  0.00     0.210 HD
ENDBRANCH   2  37
TORSDOF 10
ENDMDL
