MODEL 1
REMARK VINA RESULT:      -5.7      0.000      0.000
REMARK  7 active torsions:
REMARK  status: ('A' for Active; 'I' for Inactive)
REMARK    1  A    between atoms: O_2  and  C_10 
REMARK    2  A    between atoms: O_3  and  C_11 
REMARK    3  A    between atoms: O_4  and  C_14 
REMARK    4  A    between atoms: O_6  and  N_9 
REMARK    5  A    between atoms: N_7  and  C_12 
REMARK    6  A    between atoms: N_9  and  C_18 
REMARK    7  A    between atoms: C_13  and  C_14 
ROOT
HETATM    1  O   UNK     0      10.705  -4.283  25.126  0.00  0.00    -0.353 OA
HETATM    2  C   UNK     0       8.377  -4.360  25.558  0.00  0.00     0.198 C 
HETATM    3  C   UNK     0       8.965  -5.728  25.830  0.00  0.00     0.182 C 
HETATM    4  C   UNK     0       9.610  -3.475  25.586  0.00  0.00     0.264 C 
HETATM    5  C   UNK     0      10.285  -5.663  25.074  0.00  0.00     0.179 C 
ENDROOT
BRANCH   4   6
HETATM    6  N   UNK     0       9.483  -2.329  24.731  0.00  0.00    -0.278 N 
HETATM    7  C   UNK     0       9.828  -2.456  23.394  0.00  0.00     0.102 A 
HETATM    8  C   UNK     0       9.741  -1.448  22.529  0.00  0.00     0.070 A 
HETATM    9  C   UNK     0       9.249  -0.154  23.070  0.00  0.00     0.153 A 
HETATM   10  N   UNK     0       8.921  -0.018  24.327  0.00  0.00    -0.174 NA
HETATM   11  C   UNK     0       9.017  -1.079  25.211  0.00  0.00     0.352 A 
HETATM   12  O   UNK     0       8.700  -0.933  26.392  0.00  0.00    -0.244 OA
BRANCH   9  13
HETATM   13  N   UNK     0       9.147   0.914  22.208  0.00  0.00    -0.251 N 
HETATM   14  H   UNK     0       9.126   0.878  21.196  0.00  0.00     0.196 HD
BRANCH  13  15
HETATM   15  O   UNK     0       8.959   2.108  22.842  0.00  0.00    -0.288 OA
HETATM   16  H   UNK     0       8.856   1.831  23.768  0.00  0.00     0.244 HD
ENDBRANCH  13  15
ENDBRANCH   9  13
ENDBRANCH   4   6
BRANCH   5  17
HETATM   17  C   UNK     0      10.160  -6.066  23.610  0.00  0.00     0.198 C 
BRANCH  17  18
HETATM   18  O   UNK     0       9.043  -6.924  23.471  0.00  0.00    -0.398 OA
HETATM   19  H   UNK     0       9.129  -7.618  24.147  0.00  0.00     0.209 HD
ENDBRANCH  17  18
ENDBRANCH   5  17
BRANCH   2  20
HETATM   20  O   UNK     0       7.417  -3.986  26.525  0.00  0.00    -0.388 OA
HETATM   21  H   UNK     0       7.704  -3.142  26.911  0.00  0.00     0.210 HD
ENDBRANCH   2  20
BRANCH   3  22
HETATM   22  O   UNK     0       9.261  -5.871  27.220  0.00  0.00    -0.390 OA
HETATM   23  H   UNK     0       9.338  -6.816  27.431  0.00  0.00     0.210 HD
ENDBRANCH   3  22
TORSDOF 7
ENDMDL
MODEL 2
REMARK VINA RESULT:      -5.7      6.186      9.045
REMARK  7 active torsions:
REMARK  status: ('A' for Active; 'I' for Inactive)
REMARK    1  A    between atoms: O_2  and  C_10 
REMARK    2  A    between atoms: O_3  and  C_11 
REMARK    3  A    between atoms: O_4  and  C_14 
REMARK    4  A    between atoms: O_6  and  N_9 
REMARK    5  A    between atoms: N_7  and  C_12 
REMARK    6  A    between atoms: N_9  and  C_18 
REMARK    7  A    between atoms: C_13  and  C_14 
ROOT
HETATM    1  O   UNK     0      14.808   4.020  24.850  0.00  0.00    -0.353 OA
HETATM    2  C   UNK     0      13.279   5.618  25.699  0.00  0.00     0.198 C 
HETATM    3  C   UNK     0      14.529   5.642  26.553  0.00  0.00     0.182 C 
HETATM    4  C   UNK     0      13.771   4.926  24.440  0.00  0.00     0.264 C 
HETATM    5  C   UNK     0      15.169   4.301  26.219  0.00  0.00     0.179 C 
ENDROOT
BRANCH   4   6
HETATM    6  N   UNK     0      12.735   4.182  23.782  0.00  0.00    -0.278 N 
HETATM    7  C   UNK     0      12.351   2.962  24.316  0.00  0.00     0.102 A 
HETATM    8  C   UNK     0      11.398   2.207  23.773  0.00  0.00     0.070 A 
HETATM    9  C   UNK     0      10.753   2.739  22.545  0.00  0.00     0.153 A 
HETATM   10  N   UNK     0      11.104   3.886  22.028  0.00  0.00    -0.174 NA
HETATM   11  C   UNK     0      12.096   4.659  22.609  0.00  0.00     0.352 A 
HETATM   12  O   UNK     0      12.413   5.740  22.110  0.00  0.00    -0.244 OA
BRANCH   9  13
HETATM   13  N   UNK     0       9.765   1.987  21.951  0.00  0.00    -0.251 N 
HETATM   14  H   UNK     0       9.826   1.493  21.069  0.00  0.00     0.196 HD
BRANCH  13  15
HETATM   15  O   UNK     0       8.648   1.850  22.722  0.00  0.00    -0.288 OA
HETATM   16  H   UNK     0       8.401   2.776  22.885  0.00  0.00     0.244 HD
ENDBRANCH  13  15
ENDBRANCH   9  13
ENDBRANCH   4   6
BRANCH   5  17
HETATM   17  C   UNK     0      14.659   3.158  27.088  0.00  0.00     0.198 C 
BRANCH  17  18
HETATM   18  O   UNK     0      15.756   2.593  27.782  0.00  0.00    -0.398 OA
HETATM   19  H   UNK     0      15.520   1.672  27.989  0.00  0.00     0.209 HD
ENDBRANCH  17  18
ENDBRANCH   5  17
BRANCH   2  20
HETATM   20  O   UNK     0      12.778   6.915  25.446  0.00  0.00    -0.388 OA
HETATM   21  H   UNK     0      13.098   7.186  24.569  0.00  0.00     0.210 HD
ENDBRANCH   2  20
BRANCH   3  22
HETATM   22  O   UNK     0      15.412   6.673  26.111  0.00  0.00    -0.390 OA
HETATM   23  H   UNK     0      16.290   6.290  25.948  0.00  0.00     0.210 HD
ENDBRANCH   3  22
TORSDOF 7
ENDMDL
MODEL 3
REMARK VINA RESULT:      -5.7      5.162      7.328
REMARK  7 active torsions:
REMARK  status: ('A' for Active; 'I' for Inactive)
REMARK    1  A    between atoms: O_2  and  C_10 
REMARK    2  A    between atoms: O_3  and  C_11 
REMARK    3  A    between atoms: O_4  and  C_14 
REMARK    4  A    between atoms: O_6  and  N_9 
REMARK    5  A    between atoms: N_7  and  C_12 
REMARK    6  A    between atoms: N_9  and  C_18 
REMARK    7  A    between atoms: C_13  and  C_14 
ROOT
HETATM    1  O   UNK     0      11.016   0.483  22.133  0.00  0.00    -0.353 OA
HETATM    2  C   UNK     0      10.372   2.735  21.778  0.00  0.00     0.198 C 
HETATM    3  C   UNK     0      10.472   2.489  23.269  0.00  0.00     0.182 C 
HETATM    4  C   UNK     0      11.172   1.575  21.213  0.00  0.00     0.264 C 
HETATM    5  C   UNK     0      10.403   0.970  23.346  0.00  0.00     0.179 C 
ENDROOT
BRANCH   4   6
HETATM    6  N   UNK     0      10.705   1.166  19.919  0.00  0.00    -0.278 N 
HETATM    7  C   UNK     0       9.792   0.126  19.839  0.00  0.00     0.102 A 
HETATM    8  C   UNK     0       9.304  -0.318  18.683  0.00  0.00     0.070 A 
HETATM    9  C   UNK     0       9.793   0.363  17.456  0.00  0.00     0.153 A 
HETATM   10  N   UNK     0      10.654   1.344  17.513  0.00  0.00    -0.174 NA
HETATM   11  C   UNK     0      11.148   1.793  18.726  0.00  0.00     0.352 A 
HETATM   12  O   UNK     0      11.957   2.720  18.762  0.00  0.00    -0.244 OA
BRANCH   9  13
HETATM   13  N   UNK     0       9.315  -0.067  16.239  0.00  0.00    -0.251 N 
HETATM   14  H   UNK     0       9.527   0.327  15.330  0.00  0.00     0.196 HD
BRANCH  13  15
HETATM   15  O   UNK     0       8.564  -1.203  16.320  0.00  0.00    -0.288 OA
HETATM   16  H   UNK     0       8.072  -1.060  17.145  0.00  0.00     0.244 HD
ENDBRANCH  13  15
ENDBRANCH   9  13
ENDBRANCH   4   6
BRANCH   5  17
HETATM   17  C   UNK     0       8.978   0.434  23.405  0.00  0.00     0.198 C 
BRANCH  17  18
HETATM   18  O   UNK     0       8.109   1.498  23.749  0.00  0.00    -0.398 OA
HETATM   19  H   UNK     0       8.667   2.250  24.012  0.00  0.00     0.209 HD
ENDBRANCH  17  18
ENDBRANCH   5  17
BRANCH   2  20
HETATM   20  O   UNK     0      10.899   3.992  21.406  0.00  0.00    -0.388 OA
HETATM   21  H   UNK     0      10.165   4.629  21.407  0.00  0.00     0.210 HD
ENDBRANCH   2  20
BRANCH   3  22
HETATM   22  O   UNK     0      11.752   2.896  23.753  0.00  0.00    -0.390 OA
HETATM   23  H   UNK     0      11.660   3.210  24.667  0.00  0.00     0.210 HD
ENDBRANCH   3  22
TORSDOF 7
ENDMDL
MODEL 4
REMARK VINA RESULT:      -5.6     13.530     15.074
REMARK  7 active torsions:
REMARK  status: ('A' for Active; 'I' for Inactive)
REMARK    1  A    between atoms: O_2  and  C_10 
REMARK    2  A    between atoms: O_3  and  C_11 
REMARK    3  A    between atoms: O_4  and  C_14 
REMARK    4  A    between atoms: O_6  and  N_9 
REMARK    5  A    between atoms: N_7  and  C_12 
REMARK    6  A    between atoms: N_9  and  C_18 
REMARK    7  A    between atoms: C_13  and  C_14 
ROOT
HETATM    1  O   UNK     0      -4.951   1.419  30.388  0.00  0.00    -0.353 OA
HETATM    2  C   UNK     0      -4.538   3.000  28.673  0.00  0.00     0.198 C 
HETATM    3  C   UNK     0      -5.928   2.431  28.483  0.00  0.00     0.182 C 
HETATM    4  C   UNK     0      -4.246   2.642  30.119  0.00  0.00     0.264 C 
HETATM    5  C   UNK     0      -5.863   1.149  29.302  0.00  0.00     0.179 C 
ENDROOT
BRANCH   4   6
HETATM    6  N   UNK     0      -2.847   2.436  30.362  0.00  0.00    -0.278 N 
HETATM    7  C   UNK     0      -2.174   1.486  29.609  0.00  0.00     0.102 A 
HETATM    8  C   UNK     0      -0.876   1.230  29.765  0.00  0.00     0.070 A 
HETATM    9  C   UNK     0      -0.168   2.022  30.804  0.00  0.00     0.153 A 
HETATM   10  N   UNK     0      -0.787   2.921  31.523  0.00  0.00    -0.174 NA
HETATM   11  C   UNK     0      -2.137   3.174  31.343  0.00  0.00     0.352 A 
HETATM   12  O   UNK     0      -2.705   4.026  32.028  0.00  0.00    -0.244 OA
BRANCH   9  13
HETATM   13  N   UNK     0       1.174   1.787  30.999  0.00  0.00    -0.251 N 
HETATM   14  H   UNK     0       1.850   1.510  30.296  0.00  0.00     0.196 HD
BRANCH  13  15
HETATM   15  O   UNK     0       1.598   2.066  32.266  0.00  0.00    -0.288 OA
HETATM   16  H   UNK     0       2.021   2.933  32.150  0.00  0.00     0.244 HD
ENDBRANCH  13  15
ENDBRANCH   9  13
ENDBRANCH   4   6
BRANCH   5  17
HETATM   17  C   UNK     0      -5.324  -0.040  28.516  0.00  0.00     0.198 C 
BRANCH  17  18
HETATM   18  O   UNK     0      -5.836   0.020  27.197  0.00  0.00    -0.398 OA
HETATM   19  H   UNK     0      -5.105  -0.205  26.596  0.00  0.00     0.209 HD
ENDBRANCH  17  18
ENDBRANCH   5  17
BRANCH   2  20
HETATM   20  O   UNK     0      -4.492   4.393  28.438  0.00  0.00    -0.388 OA
HETATM   21  H   UNK     0      -3.556   4.648  28.377  0.00  0.00     0.210 HD
ENDBRANCH   2  20
BRANCH   3  22
HETATM   22  O   UNK     0      -6.900   3.287  29.083  0.00  0.00    -0.390 OA
HETATM   23  H   UNK     0      -7.114   2.951  29.969  0.00  0.00     0.210 HD
ENDBRANCH   3  22
TORSDOF 7
ENDMDL
MODEL 5
REMARK VINA RESULT:      -5.4      4.009      7.314
REMARK  7 active torsions:
REMARK  status: ('A' for Active; 'I' for Inactive)
REMARK    1  A    between atoms: O_2  and  C_10 
REMARK    2  A    between atoms: O_3  and  C_11 
REMARK    3  A    between atoms: O_4  and  C_14 
REMARK    4  A    between atoms: O_6  and  N_9 
REMARK    5  A    between atoms: N_7  and  C_12 
REMARK    6  A    between atoms: N_9  and  C_18 
REMARK    7  A    between atoms: C_13  and  C_14 
ROOT
HETATM    1  O   UNK     0       8.877   0.100  18.532  0.00  0.00    -0.353 OA
HETATM    2  C   UNK     0      10.935   1.236  18.821  0.00  0.00     0.198 C 
HETATM    3  C   UNK     0      10.620   1.174  17.342  0.00  0.00     0.182 C 
HETATM    4  C   UNK     0       9.579   0.959  19.444  0.00  0.00     0.264 C 
HETATM    5  C   UNK     0       9.596   0.049  17.281  0.00  0.00     0.179 C 
ENDROOT
BRANCH   4   6
HETATM    6  N   UNK     0       9.683   0.304  20.717  0.00  0.00    -0.278 N 
HETATM    7  C   UNK     0       9.730  -1.081  20.750  0.00  0.00     0.102 A 
HETATM    8  C   UNK     0       9.828  -1.772  21.884  0.00  0.00     0.070 A 
HETATM    9  C   UNK     0       9.885  -0.977  23.138  0.00  0.00     0.153 A 
HETATM   10  N   UNK     0       9.841   0.329  23.124  0.00  0.00    -0.174 NA
HETATM   11  C   UNK     0       9.741   1.029  21.934  0.00  0.00     0.352 A 
HETATM   12  O   UNK     0       9.704   2.260  21.940  0.00  0.00    -0.244 OA
BRANCH   9  13
HETATM   13  N   UNK     0       9.984  -1.653  24.332  0.00  0.00    -0.251 N 
HETATM   14  H   UNK     0       9.905  -2.654  24.472  0.00  0.00     0.196 HD
BRANCH  13  15
HETATM   15  O   UNK     0      10.320  -0.852  25.385  0.00  0.00    -0.288 OA
HETATM   16  H   UNK     0       9.470  -0.759  25.846  0.00  0.00     0.244 HD
ENDBRANCH  13  15
ENDBRANCH   9  13
ENDBRANCH   4   6
BRANCH   5  17
HETATM   17  C   UNK     0      10.226  -1.332  17.153  0.00  0.00     0.198 C 
BRANCH  17  18
HETATM   18  O   UNK     0       9.550  -2.045  16.132  0.00  0.00    -0.398 OA
HETATM   19  H   UNK     0       9.708  -1.570  15.299  0.00  0.00     0.209 HD
ENDBRANCH  17  18
ENDBRANCH   5  17
BRANCH   2  20
HETATM   20  O   UNK     0      11.464   2.489  19.204  0.00  0.00    -0.388 OA
HETATM   21  H   UNK     0      11.628   2.457  20.162  0.00  0.00     0.210 HD
ENDBRANCH   2  20
BRANCH   3  22
HETATM   22  O   UNK     0       9.976   2.377  16.922  0.00  0.00    -0.390 OA
HETATM   23  H   UNK     0      10.070   2.467  15.959  0.00  0.00     0.210 HD
ENDBRANCH   3  22
TORSDOF 7
ENDMDL
MODEL 6
REMARK VINA RESULT:      -5.4      5.529      7.100
REMARK  7 active torsions:
REMARK  status: ('A' for Active; 'I' for Inactive)
REMARK    1  A    between atoms: O_2  and  C_10 
REMARK    2  A    between atoms: O_3  and  C_11 
REMARK    3  A    between atoms: O_4  and  C_14 
REMARK    4  A    between atoms: O_6  and  N_9 
REMARK    5  A    between atoms: N_7  and  C_12 
REMARK    6  A    between atoms: N_9  and  C_18 
REMARK    7  A    between atoms: C_13  and  C_14 
ROOT
HETATM    1  O   UNK     0      12.034   0.307  19.753  0.00  0.00    -0.353 OA
HETATM    2  C   UNK     0       9.775   0.498  20.440  0.00  0.00     0.198 C 
HETATM    3  C   UNK     0      10.017  -0.918  19.960  0.00  0.00     0.182 C 
HETATM    4  C   UNK     0      11.189   0.991  20.691  0.00  0.00     0.264 C 
HETATM    5  C   UNK     0      11.285  -0.761  19.132  0.00  0.00     0.179 C 
ENDROOT
BRANCH   4   6
HETATM    6  N   UNK     0      11.319   2.406  20.491  0.00  0.00    -0.278 N 
HETATM    7  C   UNK     0      11.833   2.863  19.286  0.00  0.00     0.102 A 
HETATM    8  C   UNK     0      11.987   4.157  19.014  0.00  0.00     0.070 A 
HETATM    9  C   UNK     0      11.578   5.109  20.079  0.00  0.00     0.153 A 
HETATM   10  N   UNK     0      11.093   4.696  21.219  0.00  0.00    -0.174 NA
HETATM   11  C   UNK     0      10.938   3.345  21.483  0.00  0.00     0.352 A 
HETATM   12  O   UNK     0      10.477   2.973  22.563  0.00  0.00    -0.244 OA
BRANCH   9  13
HETATM   13  N   UNK     0      11.724   6.456  19.838  0.00  0.00    -0.251 N 
HETATM   14  H   UNK     0      10.982   7.129  19.685  0.00  0.00     0.196 HD
BRANCH  13  15
HETATM   15  O   UNK     0      13.016   6.888  19.921  0.00  0.00    -0.288 OA
HETATM   16  H   UNK     0      12.981   7.723  19.426  0.00  0.00     0.244 HD
ENDBRANCH  13  15
ENDBRANCH   9  13
ENDBRANCH   4   6
BRANCH   5  17
HETATM   17  C   UNK     0      11.015  -0.370  17.685  0.00  0.00     0.198 C 
BRANCH  17  18
HETATM   18  O   UNK     0      11.880  -1.114  16.846  0.00  0.00    -0.398 OA
HETATM   19  H   UNK     0      12.621  -0.530  16.609  0.00  0.00     0.209 HD
ENDBRANCH  17  18
ENDBRANCH   5  17
BRANCH   2  20
HETATM   20  O   UNK     0       8.970   0.539  21.601  0.00  0.00    -0.388 OA
HETATM   21  H   UNK     0       8.042   0.499  21.315  0.00  0.00     0.210 HD
ENDBRANCH   2  20
BRANCH   3  22
HETATM   22  O   UNK     0      10.316  -1.771  21.064  0.00  0.00    -0.390 OA
HETATM   23  H   UNK     0      10.883  -1.292  21.691  0.00  0.00     0.210 HD
ENDBRANCH   3  22
TORSDOF 7
ENDMDL
MODEL 7
REMARK VINA RESULT:      -5.2      2.596      5.779
REMARK  7 active torsions:
REMARK  status: ('A' for Active; 'I' for Inactive)
REMARK    1  A    between atoms: O_2  and  C_10 
REMARK    2  A    between atoms: O_3  and  C_11 
REMARK    3  A    between atoms: O_4  and  C_14 
REMARK    4  A    between atoms: O_6  and  N_9 
REMARK    5  A    between atoms: N_7  and  C_12 
REMARK    6  A    between atoms: N_9  and  C_18 
REMARK    7  A    between atoms: C_13  and  C_14 
ROOT
HETATM    1  O   UNK     0       9.964  -2.815  23.653  0.00  0.00    -0.353 OA
HETATM    2  C   UNK     0       8.744  -2.102  25.554  0.00  0.00     0.198 C 
HETATM    3  C   UNK     0       9.396  -0.893  24.916  0.00  0.00     0.182 C 
HETATM    4  C   UNK     0       8.793  -3.118  24.428  0.00  0.00     0.264 C 
HETATM    5  C   UNK     0      10.484  -1.531  24.062  0.00  0.00     0.179 C 
ENDROOT
BRANCH   4   6
HETATM    6  N   UNK     0       8.890  -4.467  24.910  0.00  0.00    -0.278 N 
HETATM    7  C   UNK     0      10.147  -5.031  25.060  0.00  0.00     0.102 A 
HETATM    8  C   UNK     0      10.331  -6.274  25.502  0.00  0.00     0.070 A 
HETATM    9  C   UNK     0       9.104  -7.045  25.831  0.00  0.00     0.153 A 
HETATM   10  N   UNK     0       7.912  -6.528  25.694  0.00  0.00    -0.174 NA
HETATM   11  C   UNK     0       7.742  -5.233  25.236  0.00  0.00     0.352 A 
HETATM   12  O   UNK     0       6.611  -4.761  25.115  0.00  0.00    -0.244 OA
BRANCH   9  13
HETATM   13  N   UNK     0       9.250  -8.335  26.289  0.00  0.00    -0.251 N 
HETATM   14  H   UNK     0      10.121  -8.825  26.453  0.00  0.00     0.196 HD
BRANCH  13  15
HETATM   15  O   UNK     0       8.069  -8.928  26.632  0.00  0.00    -0.288 OA
HETATM   16  H   UNK     0       7.444  -8.493  26.029  0.00  0.00     0.244 HD
ENDBRANCH  13  15
ENDBRANCH   9  13
ENDBRANCH   4   6
BRANCH   5  17
HETATM   17  C   UNK     0      11.783  -1.766  24.822  0.00  0.00     0.198 C 
BRANCH  17  18
HETATM   18  O   UNK     0      11.837  -0.868  25.915  0.00  0.00    -0.398 OA
HETATM   19  H   UNK     0      12.761  -0.577  26.001  0.00  0.00     0.209 HD
ENDBRANCH  17  18
ENDBRANCH   5  17
BRANCH   2  20
HETATM   20  O   UNK     0       7.426  -1.834  25.988  0.00  0.00    -0.388 OA
HETATM   21  H   UNK     0       6.931  -2.669  25.949  0.00  0.00     0.210 HD
ENDBRANCH   2  20
BRANCH   3  22
HETATM   22  O   UNK     0       8.476  -0.241  24.040  0.00  0.00    -0.390 OA
HETATM   23  H   UNK     0       7.838  -0.893  23.707  0.00  0.00     0.210 HD
ENDBRANCH   3  22
TORSDOF 7
ENDMDL
MODEL 8
REMARK VINA RESULT:      -5.1      2.103      5.718
REMARK  7 active torsions:
REMARK  status: ('A' for Active; 'I' for Inactive)
REMARK    1  A    between atoms: O_2  and  C_10 
REMARK    2  A    between atoms: O_3  and  C_11 
REMARK    3  A    between atoms: O_4  and  C_14 
REMARK    4  A    between atoms: O_6  and  N_9 
REMARK    5  A    between atoms: N_7  and  C_12 
REMARK    6  A    between atoms: N_9  and  C_18 
REMARK    7  A    between atoms: C_13  and  C_14 
ROOT
HETATM    1  O   UNK     0       9.072  -0.879  23.255  0.00  0.00    -0.353 OA
HETATM    2  C   UNK     0       8.217  -0.445  25.422  0.00  0.00     0.198 C 
HETATM    3  C   UNK     0       8.325   0.866  24.673  0.00  0.00     0.182 C 
HETATM    4  C   UNK     0       8.264  -1.459  24.292  0.00  0.00     0.264 C 
HETATM    5  C   UNK     0       9.299   0.515  23.555  0.00  0.00     0.179 C 
ENDROOT
BRANCH   4   6
HETATM    6  N   UNK     0       8.850  -2.705  24.697  0.00  0.00    -0.278 N 
HETATM    7  C   UNK     0      10.178  -2.949  24.384  0.00  0.00     0.102 A 
HETATM    8  C   UNK     0      10.802  -4.076  24.721  0.00  0.00     0.070 A 
HETATM    9  C   UNK     0       9.996  -5.081  25.462  0.00  0.00     0.153 A 
HETATM   10  N   UNK     0       8.743  -4.866  25.765  0.00  0.00    -0.174 NA
HETATM   11  C   UNK     0       8.112  -3.687  25.407  0.00  0.00     0.352 A 
HETATM   12  O   UNK     0       6.931  -3.500  25.702  0.00  0.00    -0.244 OA
BRANCH   9  13
HETATM   13  N   UNK     0      10.603  -6.261  25.827  0.00  0.00    -0.251 N 
HETATM   14  H   UNK     0      11.405  -6.693  25.385  0.00  0.00     0.196 HD
BRANCH  13  15
HETATM   15  O   UNK     0      10.089  -6.807  26.967  0.00  0.00    -0.288 OA
HETATM   16  H   UNK     0       9.723  -6.027  27.417  0.00  0.00     0.244 HD
ENDBRANCH  13  15
ENDBRANCH   9  13
ENDBRANCH   4   6
BRANCH   5  17
HETATM   17  C   UNK     0      10.759   0.683  23.955  0.00  0.00     0.198 C 
BRANCH  17  18
HETATM   18  O   UNK     0      11.094   2.057  23.883  0.00  0.00    -0.398 OA
HETATM   19  H   UNK     0      11.549   2.196  23.034  0.00  0.00     0.209 HD
ENDBRANCH  17  18
ENDBRANCH   5  17
BRANCH   2  20
HETATM   20  O   UNK     0       7.029  -0.533  26.182  0.00  0.00    -0.388 OA
HETATM   21  H   UNK     0       6.603   0.341  26.160  0.00  0.00     0.210 HD
ENDBRANCH   2  20
BRANCH   3  22
HETATM   22  O   UNK     0       7.072   1.199  24.075  0.00  0.00    -0.390 OA
HETATM   23  H   UNK     0       6.784   2.066  24.406  0.00  0.00     0.210 HD
ENDBRANCH   3  22
TORSDOF 7
ENDMDL
MODEL 9
REMARK VINA RESULT:      -5.1      5.904      8.333
REMARK  7 active torsions:
REMARK  status: ('A' for Active; 'I' for Inactive)
REMARK    1  A    between atoms: O_2  and  C_10 
REMARK    2  A    between atoms: O_3  and  C_11 
REMARK    3  A    between atoms: O_4  and  C_14 
REMARK    4  A    between atoms: O_6  and  N_9 
REMARK    5  A    between atoms: N_7  and  C_12 
REMARK    6  A    between atoms: N_9  and  C_18 
REMARK    7  A    between atoms: C_13  and  C_14 
ROOT
HETATM    1  O   UNK     0       9.241  -1.158  18.443  0.00  0.00    -0.353 OA
HETATM    2  C   UNK     0      11.118  -0.496  19.728  0.00  0.00     0.198 C 
HETATM    3  C   UNK     0      10.048   0.569  19.848  0.00  0.00     0.182 C 
HETATM    4  C   UNK     0      10.321  -1.688  19.228  0.00  0.00     0.264 C 
HETATM    5  C   UNK     0       9.163   0.269  18.646  0.00  0.00     0.179 C 
ENDROOT
BRANCH   4   6
HETATM    6  N   UNK     0      11.106  -2.568  18.410  0.00  0.00    -0.278 N 
HETATM    7  C   UNK     0      11.213  -2.296  17.054  0.00  0.00     0.102 A 
HETATM    8  C   UNK     0      11.921  -3.056  16.221  0.00  0.00     0.070 A 
HETATM    9  C   UNK     0      12.602  -4.234  16.819  0.00  0.00     0.153 A 
HETATM   10  N   UNK     0      12.509  -4.505  18.094  0.00  0.00    -0.174 NA
HETATM   11  C   UNK     0      11.771  -3.700  18.945  0.00  0.00     0.352 A 
HETATM   12  O   UNK     0      11.697  -3.969  20.145  0.00  0.00    -0.244 OA
BRANCH   9  13
HETATM   13  N   UNK     0      13.341  -5.047  15.992  0.00  0.00    -0.251 N 
HETATM   14  H   UNK     0      14.336  -5.232  16.053  0.00  0.00     0.196 HD
BRANCH  13  15
HETATM   15  O   UNK     0      12.587  -5.723  15.076  0.00  0.00    -0.288 OA
HETATM   16  H   UNK     0      12.543  -5.086  14.343  0.00  0.00     0.244 HD
ENDBRANCH  13  15
ENDBRANCH   9  13
ENDBRANCH   4   6
BRANCH   5  17
HETATM   17  C   UNK     0       9.630   0.956  17.369  0.00  0.00     0.198 C 
BRANCH  17  18
HETATM   18  O   UNK     0       9.041   0.300  16.261  0.00  0.00    -0.398 OA
HETATM   19  H   UNK     0       9.660   0.385  15.516  0.00  0.00     0.209 HD
ENDBRANCH  17  18
ENDBRANCH   5  17
BRANCH   2  20
HETATM   20  O   UNK     0      11.763  -0.750  20.959  0.00  0.00    -0.388 OA
HETATM   21  H   UNK     0      12.095  -1.663  20.932  0.00  0.00     0.210 HD
ENDBRANCH   2  20
BRANCH   3  22
HETATM   22  O   UNK     0       9.273   0.360  21.028  0.00  0.00    -0.390 OA
HETATM   23  H   UNK     0       8.637   1.088  21.123  0.00  0.00     0.210 HD
ENDBRANCH   3  22
TORSDOF 7
ENDMDL
MODEL 10
REMARK VINA RESULT:      -5.0     14.073     15.182
REMARK  7 active torsions:
REMARK  status: ('A' for Active; 'I' for Inactive)
REMARK    1  A    between atoms: O_2  and  C_10 
REMARK    2  A    between atoms: O_3  and  C_11 
REMARK    3  A    between atoms: O_4  and  C_14 
REMARK    4  A    between atoms: O_6  and  N_9 
REMARK    5  A    between atoms: N_7  and  C_12 
REMARK    6  A    between atoms: N_9  and  C_18 
REMARK    7  A    between atoms: C_13  and  C_14 
ROOT
HETATM    1  O   UNK     0      -1.256   2.383  30.985  0.00  0.00    -0.353 OA
HETATM    2  C   UNK     0      -3.220   3.681  31.255  0.00  0.00     0.198 C 
HETATM    3  C   UNK     0      -2.160   4.205  32.199  0.00  0.00     0.182 C 
HETATM    4  C   UNK     0      -2.392   2.884  30.262  0.00  0.00     0.264 C 
HETATM    5  C   UNK     0      -1.190   3.033  32.273  0.00  0.00     0.179 C 
ENDROOT
BRANCH   4   6
HETATM    6  N   UNK     0      -3.117   1.777  29.707  0.00  0.00    -0.278 N 
HETATM    7  C   UNK     0      -2.997   0.534  30.308  0.00  0.00     0.102 A 
HETATM    8  C   UNK     0      -3.633  -0.547  29.862  0.00  0.00     0.070 A 
HETATM    9  C   UNK     0      -4.494  -0.359  28.666  0.00  0.00     0.153 A 
HETATM   10  N   UNK     0      -4.618   0.806  28.086  0.00  0.00    -0.174 NA
HETATM   11  C   UNK     0      -3.950   1.919  28.567  0.00  0.00     0.352 A 
HETATM   12  O   UNK     0      -4.080   3.010  28.010  0.00  0.00    -0.244 OA
BRANCH   9  13
HETATM   13  N   UNK     0      -5.168  -1.452  28.171  0.00  0.00    -0.251 N 
HETATM   14  H   UNK     0      -5.242  -2.366  28.602  0.00  0.00     0.196 HD
BRANCH  13  15
HETATM   15  O   UNK     0      -5.869  -1.189  27.030  0.00  0.00    -0.288 OA
HETATM   16  H   UNK     0      -5.373  -0.441  26.657  0.00  0.00     0.244 HD
ENDBRANCH  13  15
ENDBRANCH   9  13
ENDBRANCH   4   6
BRANCH   5  17
HETATM   17  C   UNK     0      -1.561   2.011  33.340  0.00  0.00     0.198 C 
BRANCH  17  18
HETATM   18  O   UNK     0      -0.732   0.874  33.184  0.00  0.00    -0.398 OA
HETATM   19  H   UNK     0      -0.477   0.832  32.247  0.00  0.00     0.209 HD
ENDBRANCH  17  18
ENDBRANCH   5  17
BRANCH   2  20
HETATM   20  O   UNK     0      -3.954   4.721  30.641  0.00  0.00    -0.388 OA
HETATM   21  H   UNK     0      -4.164   4.435  29.736  0.00  0.00     0.210 HD
ENDBRANCH   2  20
BRANCH   3  22
HETATM   22  O   UNK     0      -1.472   5.308  31.608  0.00  0.00    -0.390 OA
HETATM   23  H   UNK     0      -0.750   5.583  32.196  0.00  0.00     0.210 HD
ENDBRANCH   3  22
TORSDOF 7
ENDMDL
