MODEL 1
REMARK VINA RESULT:     -11.8      0.000      0.000
REMARK  8 active torsions:
REMARK  status: ('A' for Active; 'I' for Inactive)
REMARK    1  A    between atoms: O_1  and  C_33 
REMARK    2  A    between atoms: O_1  and  C_49 
REMARK    3  A    between atoms: O_8  and  C_53 
REMARK    4  A    between atoms: O_12  and  C_56 
REMARK    5  A    between atoms: O_13  and  C_57 
REMARK    6  A    between atoms: O_14  and  C_59 
REMARK    7  A    between atoms: C_52  and  C_55 
REMARK    8  A    between atoms: C_58  and  C_60 
ROOT
HETATM    1  O   MOL     1      10.920   2.734  23.397  1.00  0.00     0.000 OA
ENDROOT
BRANCH   1   2
HETATM    2  C   MOL     1      10.779   1.786  23.686  1.00  0.00     0.007 C 
HETATM    3  C   MOL     1       9.778   1.430  23.911  1.00  0.00    -0.058 C 
HETATM    4  C   MOL     1       9.532   0.282  23.691  1.00  0.00    -0.007 C 
HETATM    5  C   MOL     1       8.807   1.613  24.064  1.00  0.00     0.027 C 
HETATM    6  C   MOL     1       9.416   2.353  23.780  1.00  0.00    -0.005 C 
HETATM    7  C   MOL     1      10.431  -0.275  24.209  1.00  0.00    -0.037 A 
HETATM    8  C   MOL     1       8.674   0.057  24.433  1.00  0.00     0.006 C 
HETATM    9  C   MOL     1      10.156  -1.388  23.935  1.00  0.00     0.013 A 
HETATM   10  C   MOL     1      11.421   0.036  23.892  1.00  0.00     0.014 C 
HETATM   11  C   MOL     1      11.374  -0.723  25.111  1.00  0.00     0.081 C 
HETATM   12  C   MOL     1      11.019  -1.924  24.403  1.00  0.00    -0.024 A 
HETATM   13  C   MOL     1       9.347  -1.590  24.713  1.00  0.00    -0.033 A 
HETATM   14  C   MOL     1       9.182  -2.571  24.858  1.00  0.00    -0.030 A 
HETATM   15  C   MOL     1       8.530  -0.945  24.682  1.00  0.00     0.011 C 
HETATM   16  C   MOL     1       8.547  -1.373  25.816  1.00  0.00     0.044 C 
HETATM   17  C   MOL     1       9.958  -3.202  24.894  1.00  0.00    -0.018 A 
HETATM   18  C   MOL     1       9.916  -4.098  25.621  1.00  0.00    -0.002 C 
HETATM   19  C   MOL     1      10.872  -2.884  24.643  1.00  0.00    -0.036 C 
HETATM   20  C   MOL     1       8.233  -2.877  25.166  1.00  0.00     0.041 A 
HETATM   21  C   MOL     1       8.881  -4.533  25.453  1.00  0.00    -0.059 C 
HETATM   22  C   MOL     1      10.669  -4.881  25.123  1.00  0.00     0.003 C 
HETATM   23  C   MOL     1       8.073  -3.875  25.417  1.00  0.00     0.009 C 
HETATM   24  C   MOL     1       8.705  -5.583  25.667  1.00  0.00     0.014 C 
HETATM   25  C   MOL     1       8.151  -4.658  26.617  1.00  0.00     0.028 C 
HETATM   26  C   MOL     1       9.537  -6.279  25.655  1.00  0.00     0.253 A 
HETATM   27  C   MOL     1      10.516  -5.936  25.333  1.00  0.00     0.003 A 
HETATM   28  O   MOL     1      10.291  -7.591  25.794  1.00  0.00    -0.382 OA
HETATM   29  C   MOL     1      11.307  -6.312  24.267  1.00  0.00     0.044 C 
HETATM   30  C   MOL     1      10.894  -6.845  25.510  1.00  0.00     0.080 A 
HETATM   31  O   MOL     1      11.866  -7.021  25.355  1.00  0.00     0.000 OA
HETATM   32  C   MOL     1       8.071  -2.421  24.055  1.00  0.00     0.025 C 
HETATM   33  C   MOL     1      11.597   1.074  23.628  1.00  0.00    -0.012 C 
HETATM   34  O   MOL     1      11.934  -1.606  24.151  1.00  0.00     0.000 OA
ENDBRANCH   1   2
BRANCH   1  35
HETATM   35  C   MOL     1      11.828   3.150  23.466  1.00  0.00    -0.027 A 
HETATM   36  O   MOL     1      12.269   3.235  24.362  1.00  0.00     0.000 OA
HETATM   37  C   MOL     1      13.130   3.737  24.452  1.00  0.00     0.096 A 
HETATM   38  C   MOL     1      13.598   4.069  23.627  1.00  0.00     0.133 A 
HETATM   39  C   MOL     1      13.087   4.114  22.762  1.00  0.00     0.055 A 
HETATM   40  O   MOL     1      13.066   5.350  22.151  1.00  0.00     0.000 OA
HETATM   41  C   MOL     1      12.248   3.568  22.661  1.00  0.00     0.007 A 
HETATM   42  H   MOL     1      14.079   4.774  21.996  1.00  0.00     0.000 HD
HETATM   43  O   MOL     1      13.066   4.448  21.061  1.00  0.00     0.000 OA
HETATM   44  C   MOL     1      12.159   4.031  20.992  1.00  0.00     0.057 A 
HETATM   45  C   MOL     1      13.464   4.909  20.266  1.00  0.00     0.071 C 
HETATM   46  O   MOL     1      11.762   3.571  21.787  1.00  0.00     0.000 OA
HETATM   47  C   MOL     1      11.741   3.904  20.086  1.00  0.00     0.154 A 
HETATM   48  C   MOL     1      12.115   4.408  19.302  1.00  0.00     0.211 A 
HETATM   49  C   MOL     1      13.047   4.781  19.361  1.00  0.00     0.146 C 
BRANCH  37  50
HETATM   50  C   MOL     1      13.152   4.597  25.531  1.00  0.00     0.297 C 
HETATM   51  O   MOL     1      14.497   4.174  25.423  1.00  0.00    -0.188 OA
HETATM   52  O   MOL     1      13.170   3.317  26.133  1.00  0.00    -0.188 OA
ENDBRANCH  37  50
BRANCH  38  53
HETATM   53  O   MOL     1      14.925   3.711  23.513  1.00  0.00    -0.395 OA
HETATM   54  H   MOL     1      14.451   3.413  24.548  1.00  0.00     0.210 HD
ENDBRANCH  38  53
BRANCH  47  55
HETATM   55  O   MOL     1      11.299   2.626  19.813  1.00  0.00    -0.393 OA
HETATM   56  H   MOL     1      11.620   3.222  18.850  1.00  0.00     0.210 HD
ENDBRANCH  47  55
BRANCH  48  57
HETATM   57  O   MOL     1      11.209   5.185  18.611  1.00  0.00    -0.392 OA
HETATM   58  H   MOL     1      10.726   4.227  19.094  1.00  0.00     0.210 HD
ENDBRANCH  48  57
BRANCH  49  59
HETATM   59  O   MOL     1      13.910   4.381  18.362  1.00  0.00    -0.399 OA
HETATM   60  H   MOL     1      13.773   5.548  18.417  1.00  0.00     0.209 HD
ENDBRANCH  49  59
BRANCH  45  61
HETATM   61  C   MOL     1      13.907   6.187  20.540  1.00  0.00     0.292 C 
HETATM   62  O   MOL     1      14.155   6.046  19.155  1.00  0.00    -0.188 OA
HETATM   63  O   MOL     1      15.103   5.436  20.470  1.00  0.00    -0.188 OA
ENDBRANCH  45  61
ENDBRANCH   1  35
TORSDOF 8
ENDMDL
MODEL 2
REMARK VINA RESULT:     -11.8      1.305      3.120
REMARK  8 active torsions:
REMARK  status: ('A' for Active; 'I' for Inactive)
REMARK    1  A    between atoms: O_1  and  C_33 
REMARK    2  A    between atoms: O_1  and  C_49 
REMARK    3  A    between atoms: O_8  and  C_53 
REMARK    4  A    between atoms: O_12  and  C_56 
REMARK    5  A    between atoms: O_13  and  C_57 
REMARK    6  A    between atoms: O_14  and  C_59 
REMARK    7  A    between atoms: C_52  and  C_55 
REMARK    8  A    between atoms: C_58  and  C_60 
ROOT
HETATM    1  O   MOL     1      10.157   2.521  23.654  1.00  0.00     0.000 OA
ENDROOT
BRANCH   1   2
HETATM    2  C   MOL     1      10.110   1.555  23.913  1.00  0.00     0.007 C 
HETATM    3  C   MOL     1       9.146   1.083  24.077  1.00  0.00    -0.058 C 
HETATM    4  C   MOL     1       9.042  -0.079  23.818  1.00  0.00    -0.007 C 
HETATM    5  C   MOL     1       8.154   1.152  24.184  1.00  0.00     0.027 C 
HETATM    6  C   MOL     1       8.688   1.963  23.949  1.00  0.00    -0.005 C 
HETATM    7  C   MOL     1       9.972  -0.547  24.368  1.00  0.00    -0.037 A 
HETATM    8  C   MOL     1       8.180  -0.420  24.509  1.00  0.00     0.006 C 
HETATM    9  C   MOL     1       9.839  -1.675  24.054  1.00  0.00     0.013 A 
HETATM   10  C   MOL     1      10.934  -0.118  24.110  1.00  0.00     0.014 C 
HETATM   11  C   MOL     1      10.914  -0.913  25.307  1.00  0.00     0.081 C 
HETATM   12  C   MOL     1      10.732  -2.125  24.553  1.00  0.00    -0.024 A 
HETATM   13  C   MOL     1       9.020  -1.989  24.785  1.00  0.00    -0.033 A 
HETATM   14  C   MOL     1       8.960  -2.985  24.897  1.00  0.00    -0.030 A 
HETATM   15  C   MOL     1       8.138  -1.438  24.726  1.00  0.00     0.011 C 
HETATM   16  C   MOL     1       8.148  -1.895  25.849  1.00  0.00     0.044 C 
HETATM   17  C   MOL     1       9.800  -3.527  24.959  1.00  0.00    -0.018 A 
HETATM   18  C   MOL     1       9.824  -4.443  25.662  1.00  0.00    -0.002 C 
HETATM   19  C   MOL     1      10.683  -3.102  24.763  1.00  0.00    -0.036 C 
HETATM   20  C   MOL     1       8.038  -3.405  25.149  1.00  0.00     0.041 A 
HETATM   21  C   MOL     1       8.854  -4.985  25.430  1.00  0.00    -0.059 C 
HETATM   22  C   MOL     1      10.683  -5.122  25.184  1.00  0.00     0.003 C 
HETATM   23  C   MOL     1       7.979  -4.421  25.368  1.00  0.00     0.009 C 
HETATM   24  C   MOL     1       8.787  -6.054  25.610  1.00  0.00     0.014 C 
HETATM   25  C   MOL     1       8.087  -5.225  26.551  1.00  0.00     0.028 C 
HETATM   26  C   MOL     1       9.692  -6.653  25.624  1.00  0.00     0.253 A 
HETATM   27  C   MOL     1      10.641  -6.193  25.362  1.00  0.00     0.003 A 
HETATM   28  O   MOL     1      10.582  -7.876  25.771  1.00  0.00    -0.382 OA
HETATM   29  C   MOL     1      11.521  -6.447  24.330  1.00  0.00     0.044 C 
HETATM   30  C   MOL     1      11.110  -7.060  25.537  1.00  0.00     0.080 A 
HETATM   31  O   MOL     1      12.102  -7.121  25.429  1.00  0.00     0.000 OA
HETATM   32  C   MOL     1       7.879  -2.937  24.042  1.00  0.00     0.025 C 
HETATM   33  C   MOL     1      11.005   0.940  23.881  1.00  0.00    -0.012 C 
HETATM   34  O   MOL     1      11.616  -1.699  24.357  1.00  0.00     0.000 OA
ENDBRANCH   1   2
BRANCH   1  35
HETATM   35  C   MOL     1      10.877   2.841  23.037  1.00  0.00    -0.027 A 
HETATM   36  O   MOL     1      10.933   2.472  22.106  1.00  0.00     0.000 OA
HETATM   37  C   MOL     1      11.706   2.713  21.517  1.00  0.00     0.096 A 
HETATM   38  C   MOL     1      12.369   3.401  21.828  1.00  0.00     0.133 A 
HETATM   39  C   MOL     1      12.393   3.650  22.801  1.00  0.00     0.055 A 
HETATM   40  O   MOL     1      13.618   3.505  23.420  1.00  0.00     0.000 OA
HETATM   41  C   MOL     1      11.593   3.449  23.377  1.00  0.00     0.007 A 
HETATM   42  H   MOL     1      13.546   4.472  22.753  1.00  0.00     0.000 HD
HETATM   43  O   MOL     1      13.054   4.627  24.072  1.00  0.00     0.000 OA
HETATM   44  C   MOL     1      12.334   4.307  24.690  1.00  0.00     0.057 A 
HETATM   45  C   MOL     1      13.797   5.196  24.427  1.00  0.00     0.071 C 
HETATM   46  O   MOL     1      11.591   3.738  24.335  1.00  0.00     0.000 OA
HETATM   47  C   MOL     1      12.251   4.715  25.605  1.00  0.00     0.154 A 
HETATM   48  C   MOL     1      13.022   5.244  25.975  1.00  0.00     0.211 A 
HETATM   49  C   MOL     1      13.715   5.603  25.342  1.00  0.00     0.146 C 
BRANCH  37  50
HETATM   50  C   MOL     1      12.243   1.631  20.851  1.00  0.00     0.297 C 
HETATM   51  O   MOL     1      12.001   2.564  19.816  1.00  0.00    -0.188 OA
HETATM   52  O   MOL     1      10.858   1.519  20.591  1.00  0.00    -0.188 OA
ENDBRANCH  37  50
BRANCH  38  53
HETATM   53  O   MOL     1      12.608   4.434  20.946  1.00  0.00    -0.395 OA
HETATM   54  H   MOL     1      13.491   3.658  21.002  1.00  0.00     0.210 HD
ENDBRANCH  38  53
BRANCH  47  55
HETATM   55  O   MOL     1      10.997   5.188  25.931  1.00  0.00    -0.393 OA
HETATM   56  H   MOL     1      11.501   4.572  26.798  1.00  0.00     0.210 HD
ENDBRANCH  47  55
BRANCH  48  57
HETATM   57  O   MOL     1      13.500   4.819  27.197  1.00  0.00    -0.392 OA
HETATM   58  H   MOL     1      12.750   4.059  26.702  1.00  0.00     0.210 HD
ENDBRANCH  48  57
BRANCH  49  59
HETATM   59  O   MOL     1      13.924   6.965  25.404  1.00  0.00    -0.399 OA
HETATM   60  H   MOL     1      14.540   6.440  24.551  1.00  0.00     0.209 HD
ENDBRANCH  49  59
BRANCH  45  61
HETATM   61  C   MOL     1      15.052   4.722  24.100  1.00  0.00     0.292 C 
HETATM   62  O   MOL     1      15.329   5.868  24.881  1.00  0.00    -0.188 OA
HETATM   63  O   MOL     1      14.872   5.808  23.211  1.00  0.00    -0.188 OA
ENDBRANCH  45  61
ENDBRANCH   1  35
TORSDOF 8
ENDMDL
MODEL 3
REMARK VINA RESULT:     -10.9      2.935      9.343
REMARK  8 active torsions:
REMARK  status: ('A' for Active; 'I' for Inactive)
REMARK    1  A    between atoms: O_1  and  C_33 
REMARK    2  A    between atoms: O_1  and  C_49 
REMARK    3  A    between atoms: O_8  and  C_53 
REMARK    4  A    between atoms: O_12  and  C_56 
REMARK    5  A    between atoms: O_13  and  C_57 
REMARK    6  A    between atoms: O_14  and  C_59 
REMARK    7  A    between atoms: C_52  and  C_55 
REMARK    8  A    between atoms: C_58  and  C_60 
ROOT
HETATM    1  O   MOL     1      10.497  -2.497  22.517  1.00  0.00     0.000 OA
ENDROOT
BRANCH   1   2
HETATM    2  C   MOL     1      10.941  -1.628  22.743  1.00  0.00     0.007 C 
HETATM    3  C   MOL     1      10.836  -0.776  22.077  1.00  0.00    -0.058 C 
HETATM    4  C   MOL     1      10.842   0.315  22.564  1.00  0.00    -0.007 C 
HETATM    5  C   MOL     1      10.540  -0.389  21.204  1.00  0.00     0.027 C 
HETATM    6  C   MOL     1      10.338  -1.344  21.421  1.00  0.00    -0.005 C 
HETATM    7  C   MOL     1      11.798   0.283  23.251  1.00  0.00    -0.037 A 
HETATM    8  C   MOL     1      11.215   0.981  21.696  1.00  0.00     0.006 C 
HETATM    9  C   MOL     1      11.736   1.360  23.725  1.00  0.00     0.013 A 
HETATM   10  C   MOL     1      11.829  -0.527  23.973  1.00  0.00     0.014 C 
HETATM   11  C   MOL     1      13.081   0.136  23.735  1.00  0.00     0.081 C 
HETATM   12  C   MOL     1      12.628   1.329  24.399  1.00  0.00    -0.024 A 
HETATM   13  C   MOL     1      12.155   1.979  22.864  1.00  0.00    -0.033 A 
HETATM   14  C   MOL     1      12.471   2.888  23.155  1.00  0.00    -0.030 A 
HETATM   15  C   MOL     1      11.637   1.896  21.964  1.00  0.00     0.011 C 
HETATM   16  C   MOL     1      12.754   2.247  21.651  1.00  0.00     0.044 C 
HETATM   17  C   MOL     1      12.973   2.983  24.016  1.00  0.00    -0.018 A 
HETATM   18  C   MOL     1      13.830   3.755  24.082  1.00  0.00    -0.002 C 
HETATM   19  C   MOL     1      13.030   2.210  24.649  1.00  0.00    -0.036 C 
HETATM   20  C   MOL     1      12.447   3.670  22.465  1.00  0.00     0.041 A 
HETATM   21  C   MOL     1      13.385   4.690  23.616  1.00  0.00    -0.059 C 
HETATM   22  C   MOL     1      13.890   3.987  25.252  1.00  0.00     0.003 C 
HETATM   23  C   MOL     1      12.864   4.590  22.718  1.00  0.00     0.009 C 
HETATM   24  C   MOL     1      13.776   5.662  23.900  1.00  0.00     0.014 C 
HETATM   25  C   MOL     1      14.155   5.203  22.593  1.00  0.00     0.028 C 
HETATM   26  C   MOL     1      14.274   5.780  24.857  1.00  0.00     0.253 A 
HETATM   27  C   MOL     1      14.288   4.950  25.558  1.00  0.00     0.003 A 
HETATM   28  O   MOL     1      15.034   6.454  25.987  1.00  0.00    -0.382 OA
HETATM   29  C   MOL     1      13.759   4.820  26.826  1.00  0.00     0.044 C 
HETATM   30  C   MOL     1      14.829   5.498  26.198  1.00  0.00     0.080 A 
HETATM   31  O   MOL     1      15.123   5.105  27.069  1.00  0.00     0.000 OA
HETATM   32  C   MOL     1      11.285   3.376  22.647  1.00  0.00     0.025 C 
HETATM   33  C   MOL     1      11.397  -1.489  23.718  1.00  0.00    -0.012 C 
HETATM   34  O   MOL     1      12.685   0.556  25.032  1.00  0.00     0.000 OA
ENDBRANCH   1   2
BRANCH   1  35
HETATM   35  C   MOL     1      10.921  -3.362  22.786  1.00  0.00    -0.027 A 
HETATM   36  O   MOL     1      11.778  -3.650  22.354  1.00  0.00     0.000 OA
HETATM   37  C   MOL     1      12.156  -4.558  22.544  1.00  0.00     0.096 A 
HETATM   38  C   MOL     1      11.725  -5.136  23.244  1.00  0.00     0.133 A 
HETATM   39  C   MOL     1      10.797  -4.911  23.559  1.00  0.00     0.055 A 
HETATM   40  O   MOL     1       9.869  -5.925  23.443  1.00  0.00     0.000 OA
HETATM   41  C   MOL     1      10.442  -3.982  23.408  1.00  0.00     0.007 A 
HETATM   42  H   MOL     1      10.590  -6.059  24.362  1.00  0.00     0.000 HD
HETATM   43  O   MOL     1       9.461  -5.242  24.613  1.00  0.00     0.000 OA
HETATM   44  C   MOL     1       9.036  -4.376  24.345  1.00  0.00     0.057 A 
HETATM   45  C   MOL     1       8.959  -5.882  25.196  1.00  0.00     0.071 C 
HETATM   46  O   MOL     1       9.539  -3.736  23.761  1.00  0.00     0.000 OA
HETATM   47  C   MOL     1       8.204  -4.067  24.815  1.00  0.00     0.154 A 
HETATM   48  C   MOL     1       7.678  -4.729  25.359  1.00  0.00     0.211 A 
HETATM   49  C   MOL     1       8.126  -5.574  25.666  1.00  0.00     0.146 C 
BRANCH  37  50
HETATM   50  C   MOL     1      12.587  -5.219  21.413  1.00  0.00     0.297 C 
HETATM   51  O   MOL     1      13.761  -5.107  22.193  1.00  0.00    -0.188 OA
HETATM   52  O   MOL     1      13.026  -3.892  21.202  1.00  0.00    -0.188 OA
ENDBRANCH  37  50
BRANCH  38  53
HETATM   53  O   MOL     1      12.575  -5.629  24.212  1.00  0.00    -0.395 OA
HETATM   54  H   MOL     1      13.006  -5.727  23.121  1.00  0.00     0.210 HD
ENDBRANCH  38  53
BRANCH  47  55
HETATM   55  O   MOL     1       8.251  -2.786  25.324  1.00  0.00    -0.393 OA
HETATM   56  H   MOL     1       7.620  -3.526  25.987  1.00  0.00     0.210 HD
ENDBRANCH  47  55
BRANCH  48  57
HETATM   57  O   MOL     1       6.349  -4.856  25.013  1.00  0.00    -0.392 OA
HETATM   58  H   MOL     1       7.044  -5.640  24.479  1.00  0.00     0.210 HD
ENDBRANCH  48  57
BRANCH  49  59
HETATM   59  O   MOL     1       8.097  -5.799  27.027  1.00  0.00    -0.399 OA
HETATM   60  H   MOL     1       7.041  -5.547  26.575  1.00  0.00     0.209 HD
ENDBRANCH  49  59
BRANCH  45  61
HETATM   61  C   MOL     1       8.912  -7.164  24.687  1.00  0.00     0.292 C 
HETATM   62  O   MOL     1       8.128  -7.251  25.860  1.00  0.00    -0.188 OA
HETATM   63  O   MOL     1       9.856  -7.265  25.735  1.00  0.00    -0.188 OA
ENDBRANCH  45  61
ENDBRANCH   1  35
TORSDOF 8
ENDMDL
MODEL 4
REMARK VINA RESULT:     -10.8      2.403      3.935
REMARK  8 active torsions:
REMARK  status: ('A' for Active; 'I' for Inactive)
REMARK    1  A    between atoms: O_1  and  C_33 
REMARK    2  A    between atoms: O_1  and  C_49 
REMARK    3  A    between atoms: O_8  and  C_53 
REMARK    4  A    between atoms: O_12  and  C_56 
REMARK    5  A    between atoms: O_13  and  C_57 
REMARK    6  A    between atoms: O_14  and  C_59 
REMARK    7  A    between atoms: C_52  and  C_55 
REMARK    8  A    between atoms: C_58  and  C_60 
ROOT
HETATM    1  O   MOL     1       9.820  -0.661  23.091  1.00  0.00     0.000 OA
ENDROOT
BRANCH   1   2
HETATM    2  C   MOL     1       9.926  -1.631  23.316  1.00  0.00     0.007 C 
HETATM    3  C   MOL     1       9.219  -2.113  23.985  1.00  0.00    -0.058 C 
HETATM    4  C   MOL     1       8.988  -3.272  23.809  1.00  0.00    -0.007 C 
HETATM    5  C   MOL     1       8.456  -2.055  24.629  1.00  0.00     0.027 C 
HETATM    6  C   MOL     1       8.768  -1.236  24.148  1.00  0.00    -0.005 C 
HETATM    7  C   MOL     1      10.067  -3.740  23.737  1.00  0.00    -0.037 A 
HETATM    8  C   MOL     1       8.660  -3.631  24.858  1.00  0.00     0.006 C 
HETATM    9  C   MOL     1       9.781  -4.864  23.533  1.00  0.00     0.013 A 
HETATM   10  C   MOL     1      10.720  -3.298  22.992  1.00  0.00     0.014 C 
HETATM   11  C   MOL     1      11.373  -4.109  23.982  1.00  0.00     0.081 C 
HETATM   12  C   MOL     1      10.801  -5.313  23.440  1.00  0.00    -0.024 A 
HETATM   13  C   MOL     1       9.511  -5.195  24.591  1.00  0.00    -0.033 A 
HETATM   14  C   MOL     1       9.524  -6.194  24.703  1.00  0.00    -0.030 A 
HETATM   15  C   MOL     1       8.747  -4.652  25.045  1.00  0.00     0.011 C 
HETATM   16  C   MOL     1       9.383  -5.123  25.963  1.00  0.00     0.044 C 
HETATM   17  C   MOL     1      10.256  -6.728  24.275  1.00  0.00    -0.018 A 
HETATM   18  C   MOL     1      10.669  -7.653  24.829  1.00  0.00    -0.002 C 
HETATM   19  C   MOL     1      10.878  -6.292  23.625  1.00  0.00    -0.036 C 
HETATM   20  C   MOL     1       8.901  -6.625  25.419  1.00  0.00     0.041 A 
HETATM   21  C   MOL     1       9.735  -8.201  25.171  1.00  0.00    -0.059 C 
HETATM   22  C   MOL     1      11.114  -8.318  23.942  1.00  0.00     0.003 C 
HETATM   23  C   MOL     1       8.975  -7.644  25.618  1.00  0.00     0.009 C 
HETATM   24  C   MOL     1       9.780  -9.273  25.340  1.00  0.00     0.014 C 
HETATM   25  C   MOL     1       9.726  -8.463  26.525  1.00  0.00     0.028 C 
HETATM   26  C   MOL     1      10.539  -9.863  24.836  1.00  0.00     0.253 A 
HETATM   27  C   MOL     1      11.178  -9.392  24.095  1.00  0.00     0.003 A 
HETATM   28  O   MOL     1      11.359 -11.080  24.441  1.00  0.00    -0.382 OA
HETATM   29  C   MOL     1      11.331  -9.624  22.744  1.00  0.00     0.044 C 
HETATM   30  C   MOL     1      11.665 -10.256  23.964  1.00  0.00     0.080 A 
HETATM   31  O   MOL     1      12.427 -10.307  23.318  1.00  0.00     0.000 OA
HETATM   32  C   MOL     1       8.150  -6.144  24.598  1.00  0.00     0.025 C 
HETATM   33  C   MOL     1      10.650  -2.236  22.779  1.00  0.00    -0.012 C 
HETATM   34  O   MOL     1      11.424  -4.876  22.789  1.00  0.00     0.000 OA
ENDBRANCH   1   2
BRANCH   1  35
HETATM   35  C   MOL     1      10.617  -0.118  22.824  1.00  0.00    -0.027 A 
HETATM   36  O   MOL     1      11.248   0.219  23.526  1.00  0.00     0.000 OA
HETATM   37  C   MOL     1      11.989   0.844  23.277  1.00  0.00     0.096 A 
HETATM   38  C   MOL     1      12.156   1.051  22.308  1.00  0.00     0.133 A 
HETATM   39  C   MOL     1      11.443   0.837  21.633  1.00  0.00     0.055 A 
HETATM   40  O   MOL     1      11.027   1.897  20.855  1.00  0.00     0.000 OA
HETATM   41  C   MOL     1      10.728   0.171  21.873  1.00  0.00     0.007 A 
HETATM   42  H   MOL     1      12.059   1.447  20.513  1.00  0.00     0.000 HD
HETATM   43  O   MOL     1      10.924   0.790  19.980  1.00  0.00     0.000 OA
HETATM   44  C   MOL     1      10.126   0.246  20.247  1.00  0.00     0.057 A 
HETATM   45  C   MOL     1      11.007   1.119  19.038  1.00  0.00     0.071 C 
HETATM   46  O   MOL     1      10.043  -0.083  21.189  1.00  0.00     0.000 OA
HETATM   47  C   MOL     1       9.524  -0.131  19.536  1.00  0.00     0.154 A 
HETATM   48  C   MOL     1       9.580   0.239  18.604  1.00  0.00     0.211 A 
HETATM   49  C   MOL     1      10.405   0.743  18.328  1.00  0.00     0.146 C 
BRANCH  37  50
HETATM   50  C   MOL     1      12.119   1.910  24.142  1.00  0.00     0.297 C 
HETATM   51  O   MOL     1      13.417   1.348  24.118  1.00  0.00    -0.188 OA
HETATM   52  O   MOL     1      12.038   0.795  25.008  1.00  0.00    -0.188 OA
ENDBRANCH  37  50
BRANCH  38  53
HETATM   53  O   MOL     1      13.453   0.865  21.877  1.00  0.00    -0.395 OA
HETATM   54  H   MOL     1      13.067   1.965  21.723  1.00  0.00     0.210 HD
ENDBRANCH  38  53
BRANCH  47  55
HETATM   55  O   MOL     1       9.282  -1.486  19.622  1.00  0.00    -0.393 OA
HETATM   56  H   MOL     1       8.306  -0.834  19.702  1.00  0.00     0.210 HD
ENDBRANCH  47  55
BRANCH  48  57
HETATM   57  O   MOL     1       8.395   0.715  18.083  1.00  0.00    -0.392 OA
HETATM   58  H   MOL     1       8.660  -0.371  17.716  1.00  0.00     0.210 HD
ENDBRANCH  48  57
BRANCH  49  59
HETATM   59  O   MOL     1      11.044   0.260  17.204  1.00  0.00    -0.399 OA
HETATM   60  H   MOL     1      10.010  -0.261  17.410  1.00  0.00     0.209 HD
ENDBRANCH  49  59
BRANCH  45  61
HETATM   61  C   MOL     1      11.250   2.475  18.953  1.00  0.00     0.292 C 
HETATM   62  O   MOL     1      11.094   2.086  17.602  1.00  0.00    -0.188 OA
HETATM   63  O   MOL     1      12.494   1.899  18.605  1.00  0.00    -0.188 OA
ENDBRANCH  45  61
ENDBRANCH   1  35
TORSDOF 8
ENDMDL
MODEL 5
REMARK VINA RESULT:     -10.8      2.349      9.642
REMARK  8 active torsions:
REMARK  status: ('A' for Active; 'I' for Inactive)
REMARK    1  A    between atoms: O_1  and  C_33 
REMARK    2  A    between atoms: O_1  and  C_49 
REMARK    3  A    between atoms: O_8  and  C_53 
REMARK    4  A    between atoms: O_12  and  C_56 
REMARK    5  A    between atoms: O_13  and  C_57 
REMARK    6  A    between atoms: O_14  and  C_59 
REMARK    7  A    between atoms: C_52  and  C_55 
REMARK    8  A    between atoms: C_58  and  C_60 
ROOT
HETATM    1  O   MOL     1      10.250  -2.375  22.135  1.00  0.00     0.000 OA
ENDROOT
BRANCH   1   2
HETATM    2  C   MOL     1      10.732  -1.511  21.982  1.00  0.00     0.007 C 
HETATM    3  C   MOL     1      10.468  -0.884  21.135  1.00  0.00    -0.058 C 
HETATM    4  C   MOL     1      10.587   0.298  21.259  1.00  0.00    -0.007 C 
HETATM    5  C   MOL     1       9.970  -0.749  20.279  1.00  0.00     0.027 C 
HETATM    6  C   MOL     1       9.830  -1.583  20.811  1.00  0.00    -0.005 C 
HETATM    7  C   MOL     1      11.680   0.402  21.686  1.00  0.00    -0.037 A 
HETATM    8  C   MOL     1      10.740   0.656  20.170  1.00  0.00     0.006 C 
HETATM    9  C   MOL     1      11.729   1.572  21.818  1.00  0.00     0.013 A 
HETATM   10  C   MOL     1      11.885  -0.163  22.590  1.00  0.00     0.014 C 
HETATM   11  C   MOL     1      13.042   0.314  21.885  1.00  0.00     0.081 C 
HETATM   12  C   MOL     1      12.756   1.678  22.246  1.00  0.00    -0.024 A 
HETATM   13  C   MOL     1      11.928   1.884  20.738  1.00  0.00    -0.033 A 
HETATM   14  C   MOL     1      12.301   2.814  20.664  1.00  0.00    -0.030 A 
HETATM   15  C   MOL     1      11.210   1.578  20.048  1.00  0.00     0.011 C 
HETATM   16  C   MOL     1      12.219   1.745  19.397  1.00  0.00     0.044 C 
HETATM   17  C   MOL     1      12.995   3.120  21.319  1.00  0.00    -0.018 A 
HETATM   18  C   MOL     1      13.839   3.818  20.952  1.00  0.00    -0.002 C 
HETATM   19  C   MOL     1      13.204   2.563  22.122  1.00  0.00    -0.036 C 
HETATM   20  C   MOL     1      12.111   3.361  19.797  1.00  0.00     0.041 A 
HETATM   21  C   MOL     1      13.293   4.605  20.343  1.00  0.00    -0.059 C 
HETATM   22  C   MOL     1      14.177   4.376  21.953  1.00  0.00     0.003 C 
HETATM   23  C   MOL     1      12.572   4.284  19.661  1.00  0.00     0.009 C 
HETATM   24  C   MOL     1      13.737   5.589  20.226  1.00  0.00     0.014 C 
HETATM   25  C   MOL     1      13.794   4.745  19.066  1.00  0.00     0.028 C 
HETATM   26  C   MOL     1      14.450   5.946  20.964  1.00  0.00     0.253 A 
HETATM   27  C   MOL     1      14.634   5.357  21.858  1.00  0.00     0.003 A 
HETATM   28  O   MOL     1      15.456   6.866  21.635  1.00  0.00    -0.382 OA
HETATM   29  C   MOL     1      14.423   5.638  23.192  1.00  0.00     0.044 C 
HETATM   30  C   MOL     1      15.310   6.029  22.162  1.00  0.00     0.080 A 
HETATM   31  O   MOL     1      15.805   5.887  23.020  1.00  0.00     0.000 OA
HETATM   32  C   MOL     1      11.027   3.213  20.320  1.00  0.00     0.025 C 
HETATM   33  C   MOL     1      11.408  -1.126  22.740  1.00  0.00    -0.012 C 
HETATM   34  O   MOL     1      12.966   1.120  23.051  1.00  0.00     0.000 OA
ENDBRANCH   1   2
BRANCH   1  35
HETATM   35  C   MOL     1      10.752  -3.183  22.445  1.00  0.00    -0.027 A 
HETATM   36  O   MOL     1      11.601  -3.448  21.982  1.00  0.00     0.000 OA
HETATM   37  C   MOL     1      12.056  -4.307  22.221  1.00  0.00     0.096 A 
HETATM   38  C   MOL     1      11.711  -4.851  22.993  1.00  0.00     0.133 A 
HETATM   39  C   MOL     1      10.790  -4.663  23.349  1.00  0.00     0.055 A 
HETATM   40  O   MOL     1       9.935  -5.745  23.378  1.00  0.00     0.000 OA
HETATM   41  C   MOL     1      10.359  -3.778  23.146  1.00  0.00     0.007 A 
HETATM   42  H   MOL     1      10.718  -5.749  24.256  1.00  0.00     0.000 HD
HETATM   43  O   MOL     1       9.549  -4.993  24.512  1.00  0.00     0.000 OA
HETATM   44  C   MOL     1       9.045  -4.185  24.203  1.00  0.00     0.057 A 
HETATM   45  C   MOL     1       9.131  -5.614  25.178  1.00  0.00     0.071 C 
HETATM   46  O   MOL     1       9.464  -3.565  23.537  1.00  0.00     0.000 OA
HETATM   47  C   MOL     1       8.222  -3.895  24.700  1.00  0.00     0.154 A 
HETATM   48  C   MOL     1       7.780  -4.541  25.331  1.00  0.00     0.211 A 
HETATM   49  C   MOL     1       8.308  -5.324  25.676  1.00  0.00     0.146 C 
BRANCH  37  50
HETATM   50  C   MOL     1      12.466  -5.033  21.122  1.00  0.00     0.297 C 
HETATM   51  O   MOL     1      13.662  -4.845  21.853  1.00  0.00    -0.188 OA
HETATM   52  O   MOL     1      12.867  -3.713  20.810  1.00  0.00    -0.188 OA
ENDBRANCH  37  50
BRANCH  38  53
HETATM   53  O   MOL     1      12.653  -5.198  23.940  1.00  0.00    -0.395 OA
HETATM   54  H   MOL     1      11.871  -4.410  24.330  1.00  0.00     0.210 HD
ENDBRANCH  38  53
BRANCH  47  55
HETATM   55  O   MOL     1       8.205  -2.575  25.099  1.00  0.00    -0.393 OA
HETATM   56  H   MOL     1       7.205  -3.145  25.340  1.00  0.00     0.210 HD
ENDBRANCH  47  55
BRANCH  48  57
HETATM   57  O   MOL     1       6.446  -4.789  25.085  1.00  0.00    -0.392 OA
HETATM   58  H   MOL     1       7.163  -5.300  24.306  1.00  0.00     0.210 HD
ENDBRANCH  48  57
BRANCH  49  59
HETATM   59  O   MOL     1       8.377  -5.432  27.049  1.00  0.00    -0.399 OA
HETATM   60  H   MOL     1       8.316  -4.319  26.674  1.00  0.00     0.209 HD
ENDBRANCH  49  59
BRANCH  45  61
HETATM   61  C   MOL     1       9.149  -6.935  24.780  1.00  0.00     0.292 C 
HETATM   62  O   MOL     1       8.433  -6.972  25.999  1.00  0.00    -0.188 OA
HETATM   63  O   MOL     1      10.149  -6.883  25.778  1.00  0.00    -0.188 OA
ENDBRANCH  45  61
ENDBRANCH   1  35
TORSDOF 8
ENDMDL
MODEL 6
REMARK VINA RESULT:     -10.7      2.949      9.114
REMARK  8 active torsions:
REMARK  status: ('A' for Active; 'I' for Inactive)
REMARK    1  A    between atoms: O_1  and  C_33 
REMARK    2  A    between atoms: O_1  and  C_49 
REMARK    3  A    between atoms: O_8  and  C_53 
REMARK    4  A    between atoms: O_12  and  C_56 
REMARK    5  A    between atoms: O_13  and  C_57 
REMARK    6  A    between atoms: O_14  and  C_59 
REMARK    7  A    between atoms: C_52  and  C_55 
REMARK    8  A    between atoms: C_58  and  C_60 
ROOT
HETATM    1  O   MOL     1       9.971   0.045  22.848  1.00  0.00     0.000 OA
ENDROOT
BRANCH   1   2
HETATM    2  C   MOL     1      10.786   0.599  23.026  1.00  0.00     0.007 C 
HETATM    3  C   MOL     1      10.824   1.631  22.690  1.00  0.00    -0.058 C 
HETATM    4  C   MOL     1      11.455   2.407  23.344  1.00  0.00    -0.007 C 
HETATM    5  C   MOL     1      10.434   2.387  22.163  1.00  0.00     0.027 C 
HETATM    6  C   MOL     1       9.941   1.520  22.234  1.00  0.00    -0.005 C 
HETATM    7  C   MOL     1      12.482   1.847  23.483  1.00  0.00    -0.037 A 
HETATM    8  C   MOL     1      11.746   3.216  22.572  1.00  0.00     0.006 C 
HETATM    9  C   MOL     1      13.045   2.634  24.155  1.00  0.00     0.013 A 
HETATM   10  C   MOL     1      12.419   0.852  23.911  1.00  0.00     0.014 C 
HETATM   11  C   MOL     1      13.665   1.170  23.271  1.00  0.00     0.081 C 
HETATM   12  C   MOL     1      14.015   2.100  24.312  1.00  0.00    -0.024 A 
HETATM   13  C   MOL     1      13.358   3.387  23.357  1.00  0.00    -0.033 A 
HETATM   14  C   MOL     1      14.105   3.988  23.660  1.00  0.00    -0.030 A 
HETATM   15  C   MOL     1      12.576   3.801  22.807  1.00  0.00     0.011 C 
HETATM   16  C   MOL     1      13.552   3.913  22.097  1.00  0.00     0.044 C 
HETATM   17  C   MOL     1      14.865   3.603  24.186  1.00  0.00    -0.018 A 
HETATM   18  C   MOL     1      15.930   4.016  24.014  1.00  0.00    -0.002 C 
HETATM   19  C   MOL     1      14.808   2.667  24.533  1.00  0.00    -0.036 C 
HETATM   20  C   MOL     1      14.173   4.945  23.250  1.00  0.00     0.041 A 
HETATM   21  C   MOL     1      15.787   5.142  24.026  1.00  0.00    -0.059 C 
HETATM   22  C   MOL     1      16.483   3.761  25.041  1.00  0.00     0.003 C 
HETATM   23  C   MOL     1      14.996   5.542  23.476  1.00  0.00     0.009 C 
HETATM   24  C   MOL     1      16.621   5.781  24.302  1.00  0.00     0.014 C 
HETATM   25  C   MOL     1      16.293   5.764  22.903  1.00  0.00     0.028 C 
HETATM   26  C   MOL     1      17.420   5.381  24.917  1.00  0.00     0.253 A 
HETATM   27  C   MOL     1      17.327   4.380  25.330  1.00  0.00     0.003 A 
HETATM   28  O   MOL     1      18.732   5.332  25.682  1.00  0.00    -0.382 OA
HETATM   29  C   MOL     1      17.269   3.936  26.635  1.00  0.00     0.044 C 
HETATM   30  C   MOL     1      18.233   4.468  25.748  1.00  0.00     0.080 A 
HETATM   31  O   MOL     1      18.616   3.708  26.273  1.00  0.00     0.000 OA
HETATM   32  C   MOL     1      13.138   4.946  23.881  1.00  0.00     0.025 C 
HETATM   33  C   MOL     1      11.565   0.223  23.681  1.00  0.00    -0.012 C 
HETATM   34  O   MOL     1      13.958   1.162  24.659  1.00  0.00     0.000 OA
ENDBRANCH   1   2
BRANCH   1  35
HETATM   35  C   MOL     1      10.061  -0.931  22.646  1.00  0.00    -0.027 A 
HETATM   36  O   MOL     1      10.554  -1.225  21.825  1.00  0.00     0.000 OA
HETATM   37  C   MOL     1      10.564  -2.192  21.564  1.00  0.00     0.096 A 
HETATM   38  C   MOL     1      10.162  -2.875  22.183  1.00  0.00     0.133 A 
HETATM   39  C   MOL     1       9.549  -2.567  22.917  1.00  0.00     0.055 A 
HETATM   40  O   MOL     1       8.298  -3.149  22.926  1.00  0.00     0.000 OA
HETATM   41  C   MOL     1       9.579  -1.604  23.207  1.00  0.00     0.007 A 
HETATM   42  H   MOL     1       9.138  -3.846  23.363  1.00  0.00     0.000 HD
HETATM   43  O   MOL     1       8.574  -2.946  24.299  1.00  0.00     0.000 OA
HETATM   44  C   MOL     1       8.483  -1.969  24.501  1.00  0.00     0.057 A 
HETATM   45  C   MOL     1       8.052  -3.614  24.830  1.00  0.00     0.071 C 
HETATM   46  O   MOL     1       9.006  -1.302  23.969  1.00  0.00     0.000 OA
HETATM   47  C   MOL     1       8.032  -1.681  25.351  1.00  0.00     0.154 A 
HETATM   48  C   MOL     1       7.468  -2.345  25.854  1.00  0.00     0.211 A 
HETATM   49  C   MOL     1       7.600  -3.326  25.680  1.00  0.00     0.146 C 
BRANCH  37  50
HETATM   50  C   MOL     1      10.328  -2.398  20.221  1.00  0.00     0.297 C 
HETATM   51  O   MOL     1      11.616  -2.950  20.415  1.00  0.00    -0.188 OA
HETATM   52  O   MOL     1      11.194  -1.280  20.232  1.00  0.00    -0.188 OA
ENDBRANCH  37  50
BRANCH  38  53
HETATM   53  O   MOL     1      10.981  -3.938  22.502  1.00  0.00    -0.395 OA
HETATM   54  H   MOL     1      10.815  -3.194  23.399  1.00  0.00     0.210 HD
ENDBRANCH  38  53
BRANCH  47  55
HETATM   55  O   MOL     1       8.749  -0.801  26.134  1.00  0.00    -0.393 OA
HETATM   56  H   MOL     1       9.145  -1.907  26.197  1.00  0.00     0.210 HD
ENDBRANCH  47  55
BRANCH  48  57
HETATM   57  O   MOL     1       6.167  -1.955  26.095  1.00  0.00    -0.392 OA
HETATM   58  H   MOL     1       6.803  -2.083  27.077  1.00  0.00     0.210 HD
ENDBRANCH  48  57
BRANCH  49  59
HETATM   59  O   MOL     1       7.886  -4.090  26.792  1.00  0.00    -0.399 OA
HETATM   60  H   MOL     1       6.779  -4.217  26.414  1.00  0.00     0.209 HD
ENDBRANCH  49  59
BRANCH  45  61
HETATM   61  C   MOL     1       7.334  -4.495  24.047  1.00  0.00     0.292 C 
HETATM   62  O   MOL     1       6.952  -4.844  25.363  1.00  0.00    -0.188 OA
HETATM   63  O   MOL     1       8.404  -5.285  24.528  1.00  0.00    -0.188 OA
ENDBRANCH  45  61
ENDBRANCH   1  35
TORSDOF 8
ENDMDL
MODEL 7
REMARK VINA RESULT:     -10.6      1.551      3.090
REMARK  8 active torsions:
REMARK  status: ('A' for Active; 'I' for Inactive)
REMARK    1  A    between atoms: O_1  and  C_33 
REMARK    2  A    between atoms: O_1  and  C_49 
REMARK    3  A    between atoms: O_8  and  C_53 
REMARK    4  A    between atoms: O_12  and  C_56 
REMARK    5  A    between atoms: O_13  and  C_57 
REMARK    6  A    between atoms: O_14  and  C_59 
REMARK    7  A    between atoms: C_52  and  C_55 
REMARK    8  A    between atoms: C_58  and  C_60 
ROOT
HETATM    1  O   MOL     1      10.567   1.731  22.029  1.00  0.00     0.000 OA
ENDROOT
BRANCH   1   2
HETATM    2  C   MOL     1      10.424   0.817  22.410  1.00  0.00     0.007 C 
HETATM    3  C   MOL     1       9.605   0.639  23.102  1.00  0.00    -0.058 C 
HETATM    4  C   MOL     1       9.096  -0.442  23.098  1.00  0.00    -0.007 C 
HETATM    5  C   MOL     1       8.868   0.988  23.681  1.00  0.00     0.027 C 
HETATM    6  C   MOL     1       9.384   1.615  23.097  1.00  0.00    -0.005 C 
HETATM    7  C   MOL     1      10.026  -1.162  23.166  1.00  0.00    -0.037 A 
HETATM    8  C   MOL     1       8.668  -0.528  24.168  1.00  0.00     0.006 C 
HETATM    9  C   MOL     1       9.473  -2.201  23.125  1.00  0.00     0.013 A 
HETATM   10  C   MOL     1      10.783  -1.024  22.402  1.00  0.00     0.014 C 
HETATM   11  C   MOL     1      11.194  -1.790  23.546  1.00  0.00     0.081 C 
HETATM   12  C   MOL     1      10.351  -2.893  23.166  1.00  0.00    -0.024 A 
HETATM   13  C   MOL     1       9.109  -2.274  24.204  1.00  0.00    -0.033 A 
HETATM   14  C   MOL     1       8.870  -3.213  24.472  1.00  0.00    -0.030 A 
HETATM   15  C   MOL     1       8.494  -1.494  24.519  1.00  0.00     0.011 C 
HETATM   16  C   MOL     1       8.975  -1.944  25.537  1.00  0.00     0.044 C 
HETATM   17  C   MOL     1       9.453  -3.973  24.180  1.00  0.00    -0.018 A 
HETATM   18  C   MOL     1       9.612  -4.864  24.897  1.00  0.00    -0.002 C 
HETATM   19  C   MOL     1      10.177  -3.816  23.508  1.00  0.00    -0.036 C 
HETATM   20  C   MOL     1       8.145  -3.354  25.209  1.00  0.00     0.041 A 
HETATM   21  C   MOL     1       8.565  -5.104  25.264  1.00  0.00    -0.059 C 
HETATM   22  C   MOL     1       9.895  -5.756  24.155  1.00  0.00     0.003 C 
HETATM   23  C   MOL     1       7.959  -4.312  25.570  1.00  0.00     0.009 C 
HETATM   24  C   MOL     1       8.338  -6.111  25.603  1.00  0.00     0.014 C 
HETATM   25  C   MOL     1       8.464  -5.124  26.639  1.00  0.00     0.028 C 
HETATM   26  C   MOL     1       8.936  -6.943  25.245  1.00  0.00     0.253 A 
HETATM   27  C   MOL     1       9.687  -6.772  24.479  1.00  0.00     0.003 A 
HETATM   28  O   MOL     1       9.434  -8.371  25.097  1.00  0.00    -0.382 OA
HETATM   29  C   MOL     1       9.803  -7.258  23.193  1.00  0.00     0.044 C 
HETATM   30  C   MOL     1       9.946  -7.738  24.516  1.00  0.00     0.080 A 
HETATM   31  O   MOL     1      10.684  -8.080  23.934  1.00  0.00     0.000 OA
HETATM   32  C   MOL     1       7.554  -2.850  24.278  1.00  0.00     0.025 C 
HETATM   33  C   MOL     1      10.984  -0.028  22.021  1.00  0.00    -0.012 C 
HETATM   34  O   MOL     1      11.075  -2.736  22.494  1.00  0.00     0.000 OA
ENDBRANCH   1   2
BRANCH   1  35
HETATM   35  C   MOL     1      10.801   1.841  21.062  1.00  0.00    -0.027 A 
HETATM   36  O   MOL     1      10.414   1.214  20.383  1.00  0.00     0.000 OA
HETATM   37  C   MOL     1      10.719   1.255  19.430  1.00  0.00     0.096 A 
HETATM   38  C   MOL     1      11.339   1.991  19.141  1.00  0.00     0.133 A 
HETATM   39  C   MOL     1      11.833   2.516  19.841  1.00  0.00     0.055 A 
HETATM   40  O   MOL     1      13.206   2.537  19.707  1.00  0.00     0.000 OA
HETATM   41  C   MOL     1      11.492   2.509  20.788  1.00  0.00     0.007 A 
HETATM   42  H   MOL     1      12.656   3.265  18.965  1.00  0.00     0.000 HD
HETATM   43  O   MOL     1      12.912   3.811  20.247  1.00  0.00     0.000 OA
HETATM   44  C   MOL     1      12.678   3.702  21.214  1.00  0.00     0.057 A 
HETATM   45  C   MOL     1      13.639   4.445  19.980  1.00  0.00     0.071 C 
HETATM   46  O   MOL     1      11.950   3.067  21.480  1.00  0.00     0.000 OA
HETATM   47  C   MOL     1      13.029   4.362  21.885  1.00  0.00     0.154 A 
HETATM   48  C   MOL     1      13.792   4.962  21.625  1.00  0.00     0.211 A 
HETATM   49  C   MOL     1      13.990   5.106  20.651  1.00  0.00     0.146 C 
BRANCH  37  50
HETATM   50  C   MOL     1      10.978   0.015  18.884  1.00  0.00     0.297 C 
HETATM   51  O   MOL     1      10.455   0.749  17.794  1.00  0.00    -0.188 OA
HETATM   52  O   MOL     1       9.578  -0.002  19.086  1.00  0.00    -0.188 OA
ENDBRANCH  37  50
BRANCH  38  53
HETATM   53  O   MOL     1      10.928   2.714  18.041  1.00  0.00    -0.395 OA
HETATM   54  H   MOL     1      10.512   3.138  19.056  1.00  0.00     0.210 HD
ENDBRANCH  38  53
BRANCH  47  55
HETATM   55  O   MOL     1      12.079   4.935  22.705  1.00  0.00    -0.393 OA
HETATM   56  H   MOL     1      12.126   5.425  21.636  1.00  0.00     0.210 HD
ENDBRANCH  47  55
BRANCH  48  57
HETATM   57  O   MOL     1      14.896   4.908  22.451  1.00  0.00    -0.392 OA
HETATM   58  H   MOL     1      14.824   5.909  21.838  1.00  0.00     0.210 HD
ENDBRANCH  48  57
BRANCH  49  59
HETATM   59  O   MOL     1      14.001   6.421  20.236  1.00  0.00    -0.399 OA
HETATM   60  H   MOL     1      14.910   6.146  20.930  1.00  0.00     0.209 HD
ENDBRANCH  49  59
BRANCH  45  61
HETATM   61  C   MOL     1      14.589   3.873  19.159  1.00  0.00     0.292 C 
HETATM   62  O   MOL     1      15.078   5.185  19.357  1.00  0.00    -0.188 OA
HETATM   63  O   MOL     1      13.831   4.671  18.271  1.00  0.00    -0.188 OA
ENDBRANCH  45  61
ENDBRANCH   1  35
TORSDOF 8
ENDMDL
MODEL 8
REMARK VINA RESULT:     -10.1      2.801      9.773
REMARK  8 active torsions:
REMARK  status: ('A' for Active; 'I' for Inactive)
REMARK    1  A    between atoms: O_1  and  C_33 
REMARK    2  A    between atoms: O_1  and  C_49 
REMARK    3  A    between atoms: O_8  and  C_53 
REMARK    4  A    between atoms: O_12  and  C_56 
REMARK    5  A    between atoms: O_13  and  C_57 
REMARK    6  A    between atoms: O_14  and  C_59 
REMARK    7  A    between atoms: C_52  and  C_55 
REMARK    8  A    between atoms: C_58  and  C_60 
ROOT
HETATM    1  O   MOL     1      10.982   1.210  21.502  1.00  0.00     0.000 OA
ENDROOT
BRANCH   1   2
HETATM    2  C   MOL     1      11.775   1.805  21.361  1.00  0.00     0.007 C 
HETATM    3  C   MOL     1      11.911   2.311  20.409  1.00  0.00    -0.058 C 
HETATM    4  C   MOL     1      12.448   3.378  20.417  1.00  0.00    -0.007 C 
HETATM    5  C   MOL     1      11.649   2.447  19.453  1.00  0.00     0.027 C 
HETATM    6  C   MOL     1      11.117   1.831  20.035  1.00  0.00    -0.005 C 
HETATM    7  C   MOL     1      13.413   3.173  21.062  1.00  0.00    -0.037 A 
HETATM    8  C   MOL     1      12.901   3.446  19.356  1.00  0.00     0.006 C 
HETATM    9  C   MOL     1      13.881   4.254  21.064  1.00  0.00     0.013 A 
HETATM   10  C   MOL     1      13.238   2.756  22.048  1.00  0.00     0.014 C 
HETATM   11  C   MOL     1      14.587   2.655  21.566  1.00  0.00     0.081 C 
HETATM   12  C   MOL     1      14.787   4.074  21.695  1.00  0.00    -0.024 A 
HETATM   13  C   MOL     1      14.357   4.266  20.027  1.00  0.00    -0.033 A 
HETATM   14  C   MOL     1      15.063   4.975  19.930  1.00  0.00    -0.030 A 
HETATM   15  C   MOL     1      13.700   4.104  19.235  1.00  0.00     0.011 C 
HETATM   16  C   MOL     1      14.788   3.782  18.809  1.00  0.00     0.044 C 
HETATM   17  C   MOL     1      15.704   5.138  20.682  1.00  0.00    -0.018 A 
HETATM   18  C   MOL     1      16.798   5.413  20.433  1.00  0.00    -0.002 C 
HETATM   19  C   MOL     1      15.552   4.707  21.571  1.00  0.00    -0.036 C 
HETATM   20  C   MOL     1      15.239   5.379  18.985  1.00  0.00     0.041 A 
HETATM   21  C   MOL     1      16.700   6.210  19.631  1.00  0.00    -0.059 C 
HETATM   22  C   MOL     1      17.154   5.998  21.412  1.00  0.00     0.003 C 
HETATM   23  C   MOL     1      16.033   6.038  18.848  1.00  0.00     0.009 C 
HETATM   24  C   MOL     1      17.497   6.936  19.502  1.00  0.00     0.014 C 
HETATM   25  C   MOL     1      17.417   5.921  18.489  1.00  0.00     0.028 C 
HETATM   26  C   MOL     1      18.161   7.155  20.332  1.00  0.00     0.253 A 
HETATM   27  C   MOL     1      17.959   6.720  21.307  1.00  0.00     0.003 A 
HETATM   28  O   MOL     1      19.318   7.775  21.098  1.00  0.00    -0.382 OA
HETATM   29  C   MOL     1      17.657   7.305  22.520  1.00  0.00     0.044 C 
HETATM   30  C   MOL     1      18.781   7.159  21.674  1.00  0.00     0.080 A 
HETATM   31  O   MOL     1      19.037   7.019  22.631  1.00  0.00     0.000 OA
HETATM   32  C   MOL     1      14.111   5.720  19.267  1.00  0.00     0.025 C 
HETATM   33  C   MOL     1      12.413   2.067  22.199  1.00  0.00    -0.012 C 
HETATM   34  O   MOL     1      14.634   3.642  22.585  1.00  0.00     0.000 OA
ENDBRANCH   1   2
BRANCH   1  35
HETATM   35  C   MOL     1      11.075   0.367  22.033  1.00  0.00    -0.027 A 
HETATM   36  O   MOL     1      11.760  -0.314  21.767  1.00  0.00     0.000 OA
HETATM   37  C   MOL     1      11.793  -1.201  22.232  1.00  0.00     0.096 A 
HETATM   38  C   MOL     1      11.202  -1.364  23.028  1.00  0.00     0.133 A 
HETATM   39  C   MOL     1      10.426  -0.748  23.193  1.00  0.00     0.055 A 
HETATM   40  O   MOL     1       9.194  -1.360  23.290  1.00  0.00     0.000 OA
HETATM   41  C   MOL     1      10.423   0.161  22.762  1.00  0.00     0.007 A 
HETATM   42  H   MOL     1       9.843  -1.468  24.265  1.00  0.00     0.000 HD
HETATM   43  O   MOL     1       9.088  -0.272  24.188  1.00  0.00     0.000 OA
HETATM   44  C   MOL     1       8.995   0.571  23.657  1.00  0.00     0.057 A 
HETATM   45  C   MOL     1       8.406  -0.500  24.885  1.00  0.00     0.071 C 
HETATM   46  O   MOL     1       9.678   0.798  22.961  1.00  0.00     0.000 OA
HETATM   47  C   MOL     1       8.340   1.273  23.956  1.00  0.00     0.154 A 
HETATM   48  C   MOL     1       7.627   1.025  24.619  1.00  0.00     0.211 A 
HETATM   49  C   MOL     1       7.752   0.202  25.183  1.00  0.00     0.146 C 
BRANCH  37  50
HETATM   50  C   MOL     1      11.929  -2.266  21.367  1.00  0.00     0.297 C 
HETATM   51  O   MOL     1      13.065  -2.377  22.200  1.00  0.00    -0.188 OA
HETATM   52  O   MOL     1      12.837  -1.312  20.853  1.00  0.00    -0.188 OA
ENDBRANCH  37  50
BRANCH  38  53
HETATM   53  O   MOL     1      11.845  -1.822  24.159  1.00  0.00    -0.395 OA
HETATM   54  H   MOL     1      11.672  -0.659  24.163  1.00  0.00     0.210 HD
ENDBRANCH  38  53
BRANCH  47  55
HETATM   55  O   MOL     1       8.857   2.545  24.092  1.00  0.00    -0.393 OA
HETATM   56  H   MOL     1       7.689   2.531  23.948  1.00  0.00     0.210 HD
ENDBRANCH  47  55
BRANCH  48  57
HETATM   57  O   MOL     1       6.332   1.277  24.218  1.00  0.00    -0.392 OA
HETATM   58  H   MOL     1       6.428   1.069  25.372  1.00  0.00     0.210 HD
ENDBRANCH  48  57
BRANCH  49  59
HETATM   59  O   MOL     1       7.679   0.403  26.546  1.00  0.00    -0.399 OA
HETATM   60  H   MOL     1       8.771   0.499  26.120  1.00  0.00     0.209 HD
ENDBRANCH  49  59
BRANCH  45  61
HETATM   61  C   MOL     1       7.890  -1.772  24.749  1.00  0.00     0.292 C 
HETATM   62  O   MOL     1       7.144  -1.230  25.822  1.00  0.00    -0.188 OA
HETATM   63  O   MOL     1       8.747  -1.886  25.868  1.00  0.00    -0.188 OA
ENDBRANCH  45  61
ENDBRANCH   1  35
TORSDOF 8
ENDMDL
MODEL 9
REMARK VINA RESULT:      -9.9      1.563      2.323
REMARK  8 active torsions:
REMARK  status: ('A' for Active; 'I' for Inactive)
REMARK    1  A    between atoms: O_1  and  C_33 
REMARK    2  A    between atoms: O_1  and  C_49 
REMARK    3  A    between atoms: O_8  and  C_53 
REMARK    4  A    between atoms: O_12  and  C_56 
REMARK    5  A    between atoms: O_13  and  C_57 
REMARK    6  A    between atoms: O_14  and  C_59 
REMARK    7  A    between atoms: C_52  and  C_55 
REMARK    8  A    between atoms: C_58  and  C_60 
ROOT
HETATM    1  O   MOL     1      12.901   3.380  23.379  1.00  0.00     0.000 OA
ENDROOT
BRANCH   1   2
HETATM    2  C   MOL     1      12.491   2.500  23.625  1.00  0.00     0.007 C 
HETATM    3  C   MOL     1      11.414   2.368  23.571  1.00  0.00    -0.058 C 
HETATM    4  C   MOL     1      10.999   1.281  23.299  1.00  0.00    -0.007 C 
HETATM    5  C   MOL     1      10.498   2.752  23.452  1.00  0.00     0.027 C 
HETATM    6  C   MOL     1      11.303   3.335  23.340  1.00  0.00    -0.005 C 
HETATM    7  C   MOL     1      11.590   0.588  24.046  1.00  0.00    -0.037 A 
HETATM    8  C   MOL     1       9.948   1.281  23.781  1.00  0.00     0.006 C 
HETATM    9  C   MOL     1      11.170  -0.461  23.715  1.00  0.00     0.013 A 
HETATM   10  C   MOL     1      12.671   0.673  24.009  1.00  0.00     0.014 C 
HETATM   11  C   MOL     1      12.144   0.019  25.174  1.00  0.00     0.081 C 
HETATM   12  C   MOL     1      11.744  -1.129  24.404  1.00  0.00    -0.024 A 
HETATM   13  C   MOL     1      10.159  -0.446  24.245  1.00  0.00    -0.033 A 
HETATM   14  C   MOL     1       9.758  -1.362  24.345  1.00  0.00    -0.030 A 
HETATM   15  C   MOL     1       9.535   0.347  23.987  1.00  0.00     0.011 C 
HETATM   16  C   MOL     1       9.160  -0.003  25.086  1.00  0.00     0.044 C 
HETATM   17  C   MOL     1      10.346  -2.133  24.596  1.00  0.00    -0.018 A 
HETATM   18  C   MOL     1       9.925  -2.955  25.290  1.00  0.00    -0.002 C 
HETATM   19  C   MOL     1      11.340  -2.022  24.601  1.00  0.00    -0.036 C 
HETATM   20  C   MOL     1       8.720  -1.452  24.385  1.00  0.00     0.041 A 
HETATM   21  C   MOL     1       8.904  -3.182  24.849  1.00  0.00    -0.059 C 
HETATM   22  C   MOL     1      10.600  -3.903  25.020  1.00  0.00     0.003 C 
HETATM   23  C   MOL     1       8.292  -2.378  24.590  1.00  0.00     0.009 C 
HETATM   24  C   MOL     1       8.459  -4.159  25.014  1.00  0.00     0.014 C 
HETATM   25  C   MOL     1       7.882  -3.083  25.770  1.00  0.00     0.028 C 
HETATM   26  C   MOL     1       9.099  -5.008  25.234  1.00  0.00     0.253 A 
HETATM   27  C   MOL     1      10.178  -4.890  25.188  1.00  0.00     0.003 A 
HETATM   28  O   MOL     1       9.495  -6.433  25.581  1.00  0.00    -0.382 OA
HETATM   29  C   MOL     1      11.126  -5.485  24.381  1.00  0.00     0.044 C 
HETATM   30  C   MOL     1      10.295  -5.844  25.468  1.00  0.00     0.080 A 
HETATM   31  O   MOL     1      11.213  -6.221  25.585  1.00  0.00     0.000 OA
HETATM   32  C   MOL     1       8.958  -1.043  23.269  1.00  0.00     0.025 C 
HETATM   33  C   MOL     1      13.125   1.636  23.796  1.00  0.00    -0.012 C 
HETATM   34  O   MOL     1      12.739  -1.018  24.409  1.00  0.00     0.000 OA
ENDBRANCH   1   2
BRANCH   1  35
HETATM   35  C   MOL     1      13.701   3.717  23.875  1.00  0.00    -0.027 A 
HETATM   36  O   MOL     1      13.690   3.744  24.877  1.00  0.00     0.000 OA
HETATM   37  C   MOL     1      14.446   4.171  25.376  1.00  0.00     0.096 A 
HETATM   38  C   MOL     1      15.258   4.482  24.873  1.00  0.00     0.133 A 
HETATM   39  C   MOL     1      15.202   4.589  23.875  1.00  0.00     0.055 A 
HETATM   40  O   MOL     1      15.540   5.837  23.394  1.00  0.00     0.000 OA
HETATM   41  C   MOL     1      14.468   4.118  23.374  1.00  0.00     0.007 A 
HETATM   42  H   MOL     1      16.473   5.181  23.681  1.00  0.00     0.000 HD
HETATM   43  O   MOL     1      15.980   4.962  22.372  1.00  0.00     0.000 OA
HETATM   44  C   MOL     1      15.179   4.625  21.875  1.00  0.00     0.057 A 
HETATM   45  C   MOL     1      16.724   5.407  21.872  1.00  0.00     0.071 C 
HETATM   46  O   MOL     1      14.435   4.180  22.376  1.00  0.00     0.000 OA
HETATM   47  C   MOL     1      15.213   4.554  20.873  1.00  0.00     0.154 A 
HETATM   48  C   MOL     1      15.935   5.043  20.374  1.00  0.00     0.211 A 
HETATM   49  C   MOL     1      16.758   5.336  20.870  1.00  0.00     0.146 C 
BRANCH  37  50
HETATM   50  C   MOL     1      14.028   5.000  26.396  1.00  0.00     0.297 C 
HETATM   51  O   MOL     1      14.815   4.034  27.064  1.00  0.00    -0.188 OA
HETATM   52  O   MOL     1      13.178   3.877  26.520  1.00  0.00    -0.188 OA
ENDBRANCH  37  50
BRANCH  38  53
HETATM   53  O   MOL     1      16.465   4.017  25.351  1.00  0.00    -0.395 OA
HETATM   54  H   MOL     1      15.855   4.630  26.149  1.00  0.00     0.210 HD
ENDBRANCH  38  53
BRANCH  47  55
HETATM   55  O   MOL     1      14.864   3.324  20.355  1.00  0.00    -0.393 OA
HETATM   56  H   MOL     1      14.428   4.228  19.739  1.00  0.00     0.210 HD
ENDBRANCH  47  55
BRANCH  48  57
HETATM   57  O   MOL     1      15.495   5.908  19.394  1.00  0.00    -0.392 OA
HETATM   58  H   MOL     1      16.028   4.952  18.963  1.00  0.00     0.210 HD
ENDBRANCH  48  57
BRANCH  49  59
HETATM   59  O   MOL     1      17.954   4.888  20.348  1.00  0.00    -0.399 OA
HETATM   60  H   MOL     1      17.021   4.304  19.936  1.00  0.00     0.209 HD
ENDBRANCH  49  59
BRANCH  45  61
HETATM   61  C   MOL     1      17.074   6.637  22.391  1.00  0.00     0.292 C 
HETATM   62  O   MOL     1      17.928   6.500  21.272  1.00  0.00    -0.188 OA
HETATM   63  O   MOL     1      18.112   5.787  22.840  1.00  0.00    -0.188 OA
ENDBRANCH  45  61
ENDBRANCH   1  35
TORSDOF 8
ENDMDL
MODEL 10
REMARK VINA RESULT:      -9.9      2.356     10.701
REMARK  8 active torsions:
REMARK  status: ('A' for Active; 'I' for Inactive)
REMARK    1  A    between atoms: O_1  and  C_33 
REMARK    2  A    between atoms: O_1  and  C_49 
REMARK    3  A    between atoms: O_8  and  C_53 
REMARK    4  A    between atoms: O_12  and  C_56 
REMARK    5  A    between atoms: O_13  and  C_57 
REMARK    6  A    between atoms: O_14  and  C_59 
REMARK    7  A    between atoms: C_52  and  C_55 
REMARK    8  A    between atoms: C_58  and  C_60 
ROOT
HETATM    1  O   MOL     1       9.808  -6.779  25.733  1.00  0.00     0.000 OA
ENDROOT
BRANCH   1   2
HETATM    2  C   MOL     1       9.808  -5.814  25.467  1.00  0.00     0.007 C 
HETATM    3  C   MOL     1       8.984  -5.170  25.762  1.00  0.00    -0.058 C 
HETATM    4  C   MOL     1       9.222  -4.016  25.962  1.00  0.00    -0.007 C 
HETATM    5  C   MOL     1       8.072  -5.053  26.155  1.00  0.00     0.027 C 
HETATM    6  C   MOL     1       8.504  -5.955  26.153  1.00  0.00    -0.005 C 
HETATM    7  C   MOL     1       9.828  -3.710  25.000  1.00  0.00    -0.037 A 
HETATM    8  C   MOL     1       8.206  -3.505  25.757  1.00  0.00     0.006 C 
HETATM    9  C   MOL     1      10.062  -2.586  25.265  1.00  0.00     0.013 A 
HETATM   10  C   MOL     1      10.704  -4.314  24.786  1.00  0.00     0.014 C 
HETATM   11  C   MOL     1      10.237  -3.496  23.700  1.00  0.00     0.081 C 
HETATM   12  C   MOL     1      10.660  -2.292  24.366  1.00  0.00    -0.024 A 
HETATM   13  C   MOL     1       9.059  -2.108  25.005  1.00  0.00    -0.033 A 
HETATM   14  C   MOL     1       9.124  -1.114  24.872  1.00  0.00    -0.030 A 
HETATM   15  C   MOL     1       8.239  -2.490  25.521  1.00  0.00     0.011 C 
HETATM   16  C   MOL     1       7.776  -2.012  24.508  1.00  0.00     0.044 C 
HETATM   17  C   MOL     1       9.905  -0.733  24.374  1.00  0.00    -0.018 A 
HETATM   18  C   MOL     1       9.740   0.183  23.690  1.00  0.00    -0.002 C 
HETATM   19  C   MOL     1      10.683  -1.318  24.144  1.00  0.00    -0.036 C 
HETATM   20  C   MOL     1       8.286  -0.527  25.073  1.00  0.00     0.041 A 
HETATM   21  C   MOL     1       9.118   0.886  24.328  1.00  0.00    -0.059 C 
HETATM   22  C   MOL     1      10.825   0.680  23.644  1.00  0.00     0.003 C 
HETATM   23  C   MOL     1       8.303   0.488  24.844  1.00  0.00     0.009 C 
HETATM   24  C   MOL     1       9.156   1.954  24.134  1.00  0.00     0.014 C 
HETATM   25  C   MOL     1       7.954   1.292  23.708  1.00  0.00     0.028 C 
HETATM   26  C   MOL     1      10.026   2.377  23.642  1.00  0.00     0.253 A 
HETATM   27  C   MOL     1      10.887   1.745  23.441  1.00  0.00     0.003 A 
HETATM   28  O   MOL     1      10.926   3.421  23.002  1.00  0.00    -0.382 OA
HETATM   29  C   MOL     1      12.187   1.806  23.896  1.00  0.00     0.044 C 
HETATM   30  C   MOL     1      11.351   2.516  23.003  1.00  0.00     0.080 A 
HETATM   31  O   MOL     1      12.263   2.393  22.611  1.00  0.00     0.000 OA
HETATM   32  C   MOL     1       8.611  -0.989  26.146  1.00  0.00     0.025 C 
HETATM   33  C   MOL     1      10.694  -5.373  25.021  1.00  0.00    -0.012 C 
HETATM   34  O   MOL     1      11.438  -2.877  24.136  1.00  0.00     0.000 OA
ENDBRANCH   1   2
BRANCH   1  35
HETATM   35  C   MOL     1      10.468  -7.411  25.326  1.00  0.00    -0.027 A 
HETATM   36  O   MOL     1      10.557  -7.465  24.330  1.00  0.00     0.000 OA
HETATM   37  C   MOL     1      11.142  -8.163  23.914  1.00  0.00     0.096 A 
HETATM   38  C   MOL     1      11.715  -8.742  24.503  1.00  0.00     0.133 A 
HETATM   39  C   MOL     1      11.514  -8.787  25.487  1.00  0.00     0.055 A 
HETATM   40  O   MOL     1      11.296 -10.053  25.989  1.00  0.00     0.000 OA
HETATM   41  C   MOL     1      10.965  -8.056  25.907  1.00  0.00     0.007 A 
HETATM   42  H   MOL     1      12.434  -9.811  25.817  1.00  0.00     0.000 HD
HETATM   43  O   MOL     1      11.923  -9.378  27.064  1.00  0.00     0.000 OA
HETATM   44  C   MOL     1      11.262  -8.745  27.471  1.00  0.00     0.057 A 
HETATM   45  C   MOL     1      12.382 -10.055  27.640  1.00  0.00     0.071 C 
HETATM   46  O   MOL     1      10.803  -8.068  26.894  1.00  0.00     0.000 OA
HETATM   47  C   MOL     1      11.212  -8.659  28.471  1.00  0.00     0.154 A 
HETATM   48  C   MOL     1      11.634  -9.370  29.043  1.00  0.00     0.211 A 
HETATM   49  C   MOL     1      12.332  -9.969  28.640  1.00  0.00     0.146 C 
BRANCH  37  50
HETATM   50  C   MOL     1      10.553  -8.804  22.845  1.00  0.00     0.297 C 
HETATM   51  O   MOL     1      11.713  -8.225  22.279  1.00  0.00    -0.188 OA
HETATM   52  O   MOL     1      10.208  -7.448  22.642  1.00  0.00    -0.188 OA
ENDBRANCH  37  50
BRANCH  38  53
HETATM   53  O   MOL     1      13.052  -8.786  24.169  1.00  0.00    -0.395 OA
HETATM   54  H   MOL     1      12.356  -8.510  23.261  1.00  0.00     0.210 HD
ENDBRANCH  38  53
BRANCH  47  55
HETATM   55  O   MOL     1      11.303  -7.373  28.960  1.00  0.00    -0.393 OA
HETATM   56  H   MOL     1      10.303  -7.914  29.262  1.00  0.00     0.210 HD
ENDBRANCH  47  55
BRANCH  48  57
HETATM   57  O   MOL     1      10.793  -9.970  29.958  1.00  0.00    -0.392 OA
HETATM   58  H   MOL     1      11.254  -8.959  30.345  1.00  0.00     0.210 HD
ENDBRANCH  48  57
BRANCH  49  59
HETATM   59  O   MOL     1      13.544  -9.993  29.298  1.00  0.00    -0.399 OA
HETATM   60  H   MOL     1      13.586 -10.483  28.230  1.00  0.00     0.209 HD
ENDBRANCH  49  59
BRANCH  45  61
HETATM   61  C   MOL     1      12.291 -11.342  27.150  1.00  0.00     0.292 C 
HETATM   62  O   MOL     1      13.013 -11.503  28.356  1.00  0.00    -0.188 OA
HETATM   63  O   MOL     1      13.614 -10.963  26.824  1.00  0.00    -0.188 OA
ENDBRANCH  45  61
ENDBRANCH   1  35
TORSDOF 8
ENDMDL
