MODEL 1
REMARK VINA RESULT:      -7.6      0.000      0.000
REMARK  16 active torsions:
REMARK  status: ('A' for Active; 'I' for Inactive)
REMARK    1  A    between atoms: N_3  and  C_13 
REMARK    2  A    between atoms: C_6  and  C_37 
REMARK    3  A    between atoms: C_13  and  C_14 
REMARK    4  A    between atoms: C_13  and  C_17 
REMARK       I    between atoms: C_14  and  N_15 
REMARK    5  A    between atoms: N_15  and  C_16 
REMARK    6  A    between atoms: C_16  and  C_27 
REMARK    7  A    between atoms: C_16  and  C_28 
REMARK    8  A    between atoms: C_25  and  C_27 
REMARK    9  A    between atoms: C_28  and  C_29 
REMARK   10  A    between atoms: C_29  and  C_30 
REMARK   11  A    between atoms: C_29  and  O_36 
REMARK   12  A    between atoms: C_30  and  N_31 
REMARK   13  A    between atoms: C_30  and  C_37 
REMARK       I    between atoms: N_31  and  C_32 
REMARK   14  A    between atoms: C_32  and  C_33 
REMARK   15  A    between atoms: C_33  and  O_34 
REMARK   16  A    between atoms: O_34  and  C_35 
ROOT
HETATM    1  C   UNK     0      15.437   1.491  27.156  0.00  0.00     0.126 C 
HETATM    2  C   UNK     0      15.190   2.462  24.855  0.00  0.00     0.130 C 
HETATM    3  N   UNK     0      14.790   3.770  25.495  0.00  0.00    -0.320 N 
HETATM    4  C   UNK     0      14.722   3.906  26.875  0.00  0.00     0.319 C 
HETATM    5  N   UNK     0      15.032   2.824  27.645  0.00  0.00    -0.343 N 
HETATM    6  O   UNK     0      14.397   4.953  27.407  0.00  0.00    -0.247 OA
HETATM    7  C   UNK     0      16.062   1.563  25.758  0.00  0.00     0.040 C 
HETATM    8  H   UNK     0      14.956   3.023  28.643  0.00  0.00     0.164 HD
ENDROOT
BRANCH   3   9
HETATM    9  C   UNK     0      14.449   4.953  24.631  0.00  0.00     0.184 C 
BRANCH   9  10
HETATM   10  C   UNK     0      12.930   4.926  24.305  0.00  0.00     0.241 C 
HETATM   11  N   UNK     0      12.542   3.766  23.689  0.00  0.00    -0.354 N 
HETATM   12  H   UNK     0      13.309   3.109  23.542  0.00  0.00     0.162 HD
HETATM   13  O   UNK     0      12.189   5.869  24.586  0.00  0.00    -0.271 OA
BRANCH  11  14
HETATM   14  C   UNK     0      11.159   3.458  23.264  0.00  0.00     0.091 C 
BRANCH  14  15
HETATM   15  C   UNK     0      11.121   3.056  21.772  0.00  0.00     0.063 C 
BRANCH  15  16
HETATM   16  C   UNK     0      11.766   3.982  20.779  0.00  0.00    -0.056 A 
HETATM   17  C   UNK     0      11.306   5.320  20.645  0.00  0.00     0.007 A 
HETATM   18  C   UNK     0      11.904   6.201  19.716  0.00  0.00     0.001 A 
HETATM   19  C   UNK     0      12.974   5.750  18.908  0.00  0.00     0.000 A 
HETATM   20  C   UNK     0      13.439   4.419  19.036  0.00  0.00     0.001 A 
HETATM   21  C   UNK     0      12.836   3.541  19.968  0.00  0.00     0.007 A 
ENDBRANCH  15  16
ENDBRANCH  14  15
BRANCH  14  22
HETATM   22  C   UNK     0      10.579   2.261  24.050  0.00  0.00     0.059 C 
BRANCH  22  23
HETATM   23  C   UNK     0       9.267   1.603  23.585  0.00  0.00     0.143 C 
BRANCH  23  24
HETATM   24  C   UNK     0       9.248   0.056  23.492  0.00  0.00     0.117 C 
BRANCH  24  25
HETATM   25  N   UNK     0      10.056  -0.348  22.317  0.00  0.00    -0.352 N 
HETATM   26  C   UNK     0       9.891  -1.528  21.640  0.00  0.00     0.242 C 
HETATM   27  O   UNK     0       9.053  -2.393  21.917  0.00  0.00    -0.271 OA
HETATM   28  H   UNK     0      10.796   0.244  21.939  0.00  0.00     0.163 HD
BRANCH  26  29
HETATM   29  C   UNK     0      10.869  -1.735  20.467  0.00  0.00     0.278 C 
BRANCH  29  30
HETATM   30  O   UNK     0      10.195  -2.189  19.279  0.00  0.00    -0.341 OA
BRANCH  30  31
HETATM   31  C   UNK     0      11.058  -2.700  18.291  0.00  0.00     0.081 A 
HETATM   32  C   UNK     0      11.824  -3.899  18.501  0.00  0.00    -0.028 A 
HETATM   33  C   UNK     0      12.676  -4.366  17.465  0.00  0.00     0.009 A 
HETATM   34  C   UNK     0      11.758  -4.686  19.789  0.00  0.00     0.051 C 
HETATM   35  C   UNK     0      12.775  -3.672  16.240  0.00  0.00     0.001 A 
HETATM   36  C   UNK     0      12.025  -2.498  16.023  0.00  0.00     0.009 A 
HETATM   37  C   UNK     0      11.166  -2.003  17.034  0.00  0.00    -0.028 A 
HETATM   38  C   UNK     0      10.386  -0.761  16.771  0.00  0.00     0.051 C 
ENDBRANCH  30  31
ENDBRANCH  29  30
ENDBRANCH  26  29
ENDBRANCH  24  25
BRANCH  24  39
HETATM   39  C   UNK     0       9.867  -0.582  24.771  0.00  0.00     0.066 C 
BRANCH  39  40
HETATM   40  C   UNK     0       9.307  -1.943  25.135  0.00  0.00    -0.056 A 
HETATM   41  C   UNK     0      10.186  -3.023  25.391  0.00  0.00     0.007 A 
HETATM   42  C   UNK     0       9.686  -4.305  25.727  0.00  0.00     0.001 A 
HETATM   43  C   UNK     0       8.297  -4.520  25.813  0.00  0.00     0.000 A 
HETATM   44  C   UNK     0       7.411  -3.450  25.561  0.00  0.00     0.001 A 
HETATM   45  C   UNK     0       7.910  -2.170  25.224  0.00  0.00     0.007 A 
ENDBRANCH  39  40
ENDBRANCH  24  39
ENDBRANCH  23  24
BRANCH  23  46
HETATM   46  O   UNK     0       8.294   1.974  24.532  0.00  0.00    -0.393 OA
HETATM   47  H   UNK     0       8.615   1.662  25.370  0.00  0.00     0.210 HD
ENDBRANCH  23  46
ENDBRANCH  22  23
ENDBRANCH  14  22
ENDBRANCH  11  14
ENDBRANCH   9  10
BRANCH   9  48
HETATM   48  C   UNK     0      15.340   5.008  23.328  0.00  0.00     0.010 C 
HETATM   49  C   UNK     0      14.734   5.873  22.206  0.00  0.00     0.012 C 
HETATM   50  C   UNK     0      16.753   5.545  23.650  0.00  0.00     0.012 C 
ENDBRANCH   9  48
ENDBRANCH   3   9
TORSDOF 16
ENDMDL
MODEL 2
REMARK VINA RESULT:      -7.6      2.244      6.827
REMARK  16 active torsions:
REMARK  status: ('A' for Active; 'I' for Inactive)
REMARK    1  A    between atoms: N_3  and  C_13 
REMARK    2  A    between atoms: C_6  and  C_37 
REMARK    3  A    between atoms: C_13  and  C_14 
REMARK    4  A    between atoms: C_13  and  C_17 
REMARK       I    between atoms: C_14  and  N_15 
REMARK    5  A    between atoms: N_15  and  C_16 
REMARK    6  A    between atoms: C_16  and  C_27 
REMARK    7  A    between atoms: C_16  and  C_28 
REMARK    8  A    between atoms: C_25  and  C_27 
REMARK    9  A    between atoms: C_28  and  C_29 
REMARK   10  A    between atoms: C_29  and  C_30 
REMARK   11  A    between atoms: C_29  and  O_36 
REMARK   12  A    between atoms: C_30  and  N_31 
REMARK   13  A    between atoms: C_30  and  C_37 
REMARK       I    between atoms: N_31  and  C_32 
REMARK   14  A    between atoms: C_32  and  C_33 
REMARK   15  A    between atoms: C_33  and  O_34 
REMARK   16  A    between atoms: O_34  and  C_35 
ROOT
HETATM    1  C   UNK     0      18.261   3.089  24.685  0.00  0.00     0.126 C 
HETATM    2  C   UNK     0      16.083   3.842  23.691  0.00  0.00     0.130 C 
HETATM    3  N   UNK     0      15.370   3.089  24.788  0.00  0.00    -0.320 N 
HETATM    4  C   UNK     0      16.075   2.387  25.756  0.00  0.00     0.319 C 
HETATM    5  N   UNK     0      17.437   2.398  25.696  0.00  0.00    -0.343 N 
HETATM    6  O   UNK     0      15.514   1.770  26.646  0.00  0.00    -0.247 OA
HETATM    7  C   UNK     0      17.518   4.276  24.059  0.00  0.00     0.040 C 
HETATM    8  H   UNK     0      17.864   1.859  26.450  0.00  0.00     0.164 HD
ENDROOT
BRANCH   3   9
HETATM    9  C   UNK     0      13.866   3.084  24.838  0.00  0.00     0.184 C 
BRANCH   9  10
HETATM   10  C   UNK     0      13.333   1.843  24.070  0.00  0.00     0.241 C 
HETATM   11  N   UNK     0      12.275   1.246  24.701  0.00  0.00    -0.354 N 
HETATM   12  H   UNK     0      12.009   1.707  25.570  0.00  0.00     0.162 HD
HETATM   13  O   UNK     0      13.839   1.469  23.011  0.00  0.00    -0.271 OA
BRANCH  11  14
HETATM   14  C   UNK     0      11.562   0.048  24.203  0.00  0.00     0.091 C 
BRANCH  14  15
HETATM   15  C   UNK     0      11.340  -0.970  25.344  0.00  0.00     0.063 C 
BRANCH  15  16
HETATM   16  C   UNK     0      10.370  -2.092  25.104  0.00  0.00    -0.056 A 
HETATM   17  C   UNK     0      10.695  -3.139  24.200  0.00  0.00     0.007 A 
HETATM   18  C   UNK     0       9.791  -4.200  23.966  0.00  0.00     0.001 A 
HETATM   19  C   UNK     0       8.546  -4.225  24.638  0.00  0.00     0.000 A 
HETATM   20  C   UNK     0       8.215  -3.187  25.541  0.00  0.00     0.001 A 
HETATM   21  C   UNK     0       9.124  -2.126  25.772  0.00  0.00     0.007 A 
ENDBRANCH  15  16
ENDBRANCH  14  15
BRANCH  14  22
HETATM   22  C   UNK     0      10.161   0.408  23.663  0.00  0.00     0.059 C 
BRANCH  22  23
HETATM   23  C   UNK     0      10.002   1.547  22.640  0.00  0.00     0.143 C 
BRANCH  23  24
HETATM   24  C   UNK     0      10.217   1.190  21.147  0.00  0.00     0.117 C 
BRANCH  24  25
HETATM   25  N   UNK     0      11.599   1.572  20.774  0.00  0.00    -0.352 N 
HETATM   26  C   UNK     0      11.925   2.251  19.629  0.00  0.00     0.242 C 
HETATM   27  O   UNK     0      11.116   2.632  18.776  0.00  0.00    -0.271 OA
HETATM   28  H   UNK     0      12.402   1.345  21.361  0.00  0.00     0.163 HD
BRANCH  26  29
HETATM   29  C   UNK     0      13.434   2.511  19.447  0.00  0.00     0.278 C 
BRANCH  29  30
HETATM   30  O   UNK     0      13.684   3.680  18.646  0.00  0.00    -0.341 OA
BRANCH  30  31
HETATM   31  C   UNK     0      14.372   4.704  19.326  0.00  0.00     0.081 A 
HETATM   32  C   UNK     0      15.795   4.655  19.529  0.00  0.00    -0.028 A 
HETATM   33  C   UNK     0      16.431   5.720  20.221  0.00  0.00     0.009 A 
HETATM   34  C   UNK     0      16.644   3.509  19.031  0.00  0.00     0.051 C 
HETATM   35  C   UNK     0      15.688   6.817  20.706  0.00  0.00     0.001 A 
HETATM   36  C   UNK     0      14.293   6.875  20.509  0.00  0.00     0.009 A 
HETATM   37  C   UNK     0      13.625   5.832  19.824  0.00  0.00    -0.028 A 
HETATM   38  C   UNK     0      12.150   5.926  19.631  0.00  0.00     0.051 C 
ENDBRANCH  30  31
ENDBRANCH  29  30
ENDBRANCH  26  29
ENDBRANCH  24  25
BRANCH  24  39
HETATM   39  C   UNK     0      10.038  -0.339  20.914  0.00  0.00     0.066 C 
BRANCH  39  40
HETATM   40  C   UNK     0      10.040  -0.763  19.458  0.00  0.00    -0.056 A 
HETATM   41  C   UNK     0       9.073  -0.237  18.568  0.00  0.00     0.007 A 
HETATM   42  C   UNK     0       9.053  -0.622  17.204  0.00  0.00     0.001 A 
HETATM   43  C   UNK     0      10.004  -1.538  16.717  0.00  0.00     0.000 A 
HETATM   44  C   UNK     0      10.974  -2.069  17.595  0.00  0.00     0.001 A 
HETATM   45  C   UNK     0      10.994  -1.685  18.956  0.00  0.00     0.007 A 
ENDBRANCH  39  40
ENDBRANCH  24  39
ENDBRANCH  23  24
BRANCH  23  46
HETATM   46  O   UNK     0       8.676   2.001  22.773  0.00  0.00    -0.393 OA
HETATM   47  H   UNK     0       8.150   1.224  22.926  0.00  0.00     0.210 HD
ENDBRANCH  23  46
ENDBRANCH  22  23
ENDBRANCH  14  22
ENDBRANCH  11  14
ENDBRANCH   9  10
BRANCH   9  48
HETATM   48  C   UNK     0      13.254   4.434  24.292  0.00  0.00     0.010 C 
HETATM   49  C   UNK     0      12.508   4.273  22.953  0.00  0.00     0.012 C 
HETATM   50  C   UNK     0      12.281   5.053  25.323  0.00  0.00     0.012 C 
ENDBRANCH   9  48
ENDBRANCH   3   9
TORSDOF 16
ENDMDL
MODEL 3
REMARK VINA RESULT:      -7.6      2.256      6.279
REMARK  16 active torsions:
REMARK  status: ('A' for Active; 'I' for Inactive)
REMARK    1  A    between atoms: N_3  and  C_13 
REMARK    2  A    between atoms: C_6  and  C_37 
REMARK    3  A    between atoms: C_13  and  C_14 
REMARK    4  A    between atoms: C_13  and  C_17 
REMARK       I    between atoms: C_14  and  N_15 
REMARK    5  A    between atoms: N_15  and  C_16 
REMARK    6  A    between atoms: C_16  and  C_27 
REMARK    7  A    between atoms: C_16  and  C_28 
REMARK    8  A    between atoms: C_25  and  C_27 
REMARK    9  A    between atoms: C_28  and  C_29 
REMARK   10  A    between atoms: C_29  and  C_30 
REMARK   11  A    between atoms: C_29  and  O_36 
REMARK   12  A    between atoms: C_30  and  N_31 
REMARK   13  A    between atoms: C_30  and  C_37 
REMARK       I    between atoms: N_31  and  C_32 
REMARK   14  A    between atoms: C_32  and  C_33 
REMARK   15  A    between atoms: C_33  and  O_34 
REMARK   16  A    between atoms: O_34  and  C_35 
ROOT
HETATM    1  C   UNK     0      16.357   6.026  25.772  0.00  0.00     0.126 C 
HETATM    2  C   UNK     0      15.494   4.577  23.914  0.00  0.00     0.130 C 
HETATM    3  N   UNK     0      14.121   5.155  24.157  0.00  0.00    -0.320 N 
HETATM    4  C   UNK     0      13.903   6.102  25.149  0.00  0.00     0.319 C 
HETATM    5  N   UNK     0      14.967   6.504  25.901  0.00  0.00    -0.343 N 
HETATM    6  O   UNK     0      12.800   6.575  25.361  0.00  0.00    -0.247 OA
HETATM    7  C   UNK     0      16.650   5.496  24.363  0.00  0.00     0.040 C 
HETATM    8  H   UNK     0      14.708   7.202  26.598  0.00  0.00     0.164 HD
ENDROOT
BRANCH   3   9
HETATM    9  C   UNK     0      12.957   4.697  23.321  0.00  0.00     0.184 C 
BRANCH   9  10
HETATM   10  C   UNK     0      12.566   3.253  23.737  0.00  0.00     0.241 C 
HETATM   11  N   UNK     0      11.935   2.566  22.734  0.00  0.00    -0.354 N 
HETATM   12  H   UNK     0      11.823   3.111  21.879  0.00  0.00     0.162 HD
HETATM   13  O   UNK     0      12.813   2.812  24.861  0.00  0.00    -0.271 OA
BRANCH  11  14
HETATM   14  C   UNK     0      11.451   1.172  22.841  0.00  0.00     0.091 C 
BRANCH  14  15
HETATM   15  C   UNK     0       9.947   1.087  22.494  0.00  0.00     0.063 C 
BRANCH  15  16
HETATM   16  C   UNK     0       8.979   0.855  23.619  0.00  0.00    -0.056 A 
HETATM   17  C   UNK     0       8.579  -0.466  23.959  0.00  0.00     0.007 A 
HETATM   18  C   UNK     0       7.670  -0.697  25.016  0.00  0.00     0.001 A 
HETATM   19  C   UNK     0       7.149   0.396  25.748  0.00  0.00     0.000 A 
HETATM   20  C   UNK     0       7.543   1.715  25.416  0.00  0.00     0.001 A 
HETATM   21  C   UNK     0       8.454   1.941  24.356  0.00  0.00     0.007 A 
ENDBRANCH  15  16
ENDBRANCH  14  15
BRANCH  14  22
HETATM   22  C   UNK     0      12.179   0.242  21.845  0.00  0.00     0.059 C 
BRANCH  22  23
HETATM   23  C   UNK     0      12.241  -1.272  22.115  0.00  0.00     0.143 C 
BRANCH  23  24
HETATM   24  C   UNK     0      11.476  -2.196  21.132  0.00  0.00     0.117 C 
BRANCH  24  25
HETATM   25  N   UNK     0      11.168  -3.464  21.833  0.00  0.00    -0.352 N 
HETATM   26  C   UNK     0      12.033  -4.524  21.917  0.00  0.00     0.242 C 
HETATM   27  O   UNK     0      13.169  -4.553  21.430  0.00  0.00    -0.271 OA
HETATM   28  H   UNK     0      10.276  -3.623  22.301  0.00  0.00     0.163 HD
BRANCH  26  29
HETATM   29  C   UNK     0      11.476  -5.745  22.676  0.00  0.00     0.278 C 
BRANCH  29  30
HETATM   30  O   UNK     0      11.556  -5.572  24.103  0.00  0.00    -0.341 OA
BRANCH  30  31
HETATM   31  C   UNK     0      10.304  -5.543  24.747  0.00  0.00     0.081 A 
HETATM   32  C   UNK     0       9.496  -6.725  24.886  0.00  0.00    -0.028 A 
HETATM   33  C   UNK     0       8.242  -6.631  25.547  0.00  0.00     0.009 A 
HETATM   34  C   UNK     0       9.932  -8.069  24.354  0.00  0.00     0.051 C 
HETATM   35  C   UNK     0       7.787  -5.401  26.067  0.00  0.00     0.001 A 
HETATM   36  C   UNK     0       8.572  -4.238  25.938  0.00  0.00     0.009 A 
HETATM   37  C   UNK     0       9.827  -4.294  25.284  0.00  0.00    -0.028 A 
HETATM   38  C   UNK     0      10.634  -3.045  25.168  0.00  0.00     0.051 C 
ENDBRANCH  30  31
ENDBRANCH  29  30
ENDBRANCH  26  29
ENDBRANCH  24  25
BRANCH  24  39
HETATM   39  C   UNK     0      10.140  -1.535  20.680  0.00  0.00     0.066 C 
BRANCH  39  40
HETATM   40  C   UNK     0      10.042  -1.258  19.192  0.00  0.00    -0.056 A 
HETATM   41  C   UNK     0       9.227  -0.199  18.723  0.00  0.00     0.007 A 
HETATM   42  C   UNK     0       9.116   0.075  17.337  0.00  0.00     0.001 A 
HETATM   43  C   UNK     0       9.823  -0.709  16.405  0.00  0.00     0.000 A 
HETATM   44  C   UNK     0      10.639  -1.766  16.861  0.00  0.00     0.001 A 
HETATM   45  C   UNK     0      10.750  -2.040  18.245  0.00  0.00     0.007 A 
ENDBRANCH  39  40
ENDBRANCH  24  39
ENDBRANCH  23  24
BRANCH  23  46
HETATM   46  O   UNK     0      13.602  -1.621  22.039  0.00  0.00    -0.393 OA
HETATM   47  H   UNK     0      13.638  -2.415  21.517  0.00  0.00     0.210 HD
ENDBRANCH  23  46
ENDBRANCH  22  23
ENDBRANCH  14  22
ENDBRANCH  11  14
ENDBRANCH   9  10
BRANCH   9  48
HETATM   48  C   UNK     0      13.260   4.813  21.775  0.00  0.00     0.010 C 
HETATM   49  C   UNK     0      12.005   5.083  20.922  0.00  0.00     0.012 C 
HETATM   50  C   UNK     0      14.290   5.933  21.498  0.00  0.00     0.012 C 
ENDBRANCH   9  48
ENDBRANCH   3   9
TORSDOF 16
ENDMDL
MODEL 4
REMARK VINA RESULT:      -7.5      2.768      9.471
REMARK  16 active torsions:
REMARK  status: ('A' for Active; 'I' for Inactive)
REMARK    1  A    between atoms: N_3  and  C_13 
REMARK    2  A    between atoms: C_6  and  C_37 
REMARK    3  A    between atoms: C_13  and  C_14 
REMARK    4  A    between atoms: C_13  and  C_17 
REMARK       I    between atoms: C_14  and  N_15 
REMARK    5  A    between atoms: N_15  and  C_16 
REMARK    6  A    between atoms: C_16  and  C_27 
REMARK    7  A    between atoms: C_16  and  C_28 
REMARK    8  A    between atoms: C_25  and  C_27 
REMARK    9  A    between atoms: C_28  and  C_29 
REMARK   10  A    between atoms: C_29  and  C_30 
REMARK   11  A    between atoms: C_29  and  O_36 
REMARK   12  A    between atoms: C_30  and  N_31 
REMARK   13  A    between atoms: C_30  and  C_37 
REMARK       I    between atoms: N_31  and  C_32 
REMARK   14  A    between atoms: C_32  and  C_33 
REMARK   15  A    between atoms: C_33  and  O_34 
REMARK   16  A    between atoms: O_34  and  C_35 
ROOT
HETATM    1  C   UNK     0      11.280  -2.102  16.075  0.00  0.00     0.126 C 
HETATM    2  C   UNK     0      11.712  -2.131  18.546  0.00  0.00     0.130 C 
HETATM    3  N   UNK     0      10.322  -1.581  18.753  0.00  0.00    -0.320 N 
HETATM    4  C   UNK     0       9.484  -1.315  17.679  0.00  0.00     0.319 C 
HETATM    5  N   UNK     0       9.949  -1.567  16.422  0.00  0.00    -0.343 N 
HETATM    6  O   UNK     0       8.360  -0.867  17.829  0.00  0.00    -0.247 OA
HETATM    7  C   UNK     0      11.888  -2.912  17.227  0.00  0.00     0.040 C 
HETATM    8  H   UNK     0       9.262  -1.344  15.701  0.00  0.00     0.164 HD
ENDROOT
BRANCH   3   9
HETATM    9  C   UNK     0       9.825  -1.305  20.147  0.00  0.00     0.184 C 
BRANCH   9  10
HETATM   10  C   UNK     0      10.069   0.191  20.488  0.00  0.00     0.241 C 
HETATM   11  N   UNK     0       9.525   0.553  21.691  0.00  0.00    -0.354 N 
HETATM   12  H   UNK     0       9.047  -0.212  22.167  0.00  0.00     0.162 HD
HETATM   13  O   UNK     0      10.690   0.937  19.729  0.00  0.00    -0.271 OA
BRANCH  11  14
HETATM   14  C   UNK     0       9.600   1.910  22.277  0.00  0.00     0.091 C 
BRANCH  14  15
HETATM   15  C   UNK     0       9.116   1.900  23.746  0.00  0.00     0.063 C 
BRANCH  15  16
HETATM   16  C   UNK     0       9.129   0.589  24.480  0.00  0.00    -0.056 A 
HETATM   17  C   UNK     0       7.909  -0.074  24.785  0.00  0.00     0.007 A 
HETATM   18  C   UNK     0       7.910  -1.307  25.475  0.00  0.00     0.001 A 
HETATM   19  C   UNK     0       9.135  -1.894  25.868  0.00  0.00     0.000 A 
HETATM   20  C   UNK     0      10.354  -1.240  25.567  0.00  0.00     0.001 A 
HETATM   21  C   UNK     0      10.350  -0.005  24.876  0.00  0.00     0.007 A 
ENDBRANCH  15  16
ENDBRANCH  14  15
BRANCH  14  22
HETATM   22  C   UNK     0      11.052   2.435  22.303  0.00  0.00     0.059 C 
BRANCH  22  23
HETATM   23  C   UNK     0      11.378   3.819  21.713  0.00  0.00     0.143 C 
BRANCH  23  24
HETATM   24  C   UNK     0      12.664   4.518  22.222  0.00  0.00     0.117 C 
BRANCH  24  25
HETATM   25  N   UNK     0      13.111   5.479  21.186  0.00  0.00    -0.352 N 
HETATM   26  C   UNK     0      14.111   5.224  20.283  0.00  0.00     0.242 C 
HETATM   27  O   UNK     0      14.755   4.171  20.217  0.00  0.00    -0.271 OA
HETATM   28  H   UNK     0      12.690   6.402  21.085  0.00  0.00     0.163 HD
BRANCH  26  29
HETATM   29  C   UNK     0      14.414   6.389  19.320  0.00  0.00     0.278 C 
BRANCH  29  30
HETATM   30  O   UNK     0      15.084   7.475  19.986  0.00  0.00    -0.341 OA
BRANCH  30  31
HETATM   31  C   UNK     0      16.480   7.486  19.800  0.00  0.00     0.081 A 
HETATM   32  C   UNK     0      17.077   7.939  18.573  0.00  0.00    -0.028 A 
HETATM   33  C   UNK     0      18.493   7.928  18.447  0.00  0.00     0.009 A 
HETATM   34  C   UNK     0      16.254   8.430  17.406  0.00  0.00     0.051 C 
HETATM   35  C   UNK     0      19.311   7.482  19.506  0.00  0.00     0.001 A 
HETATM   36  C   UNK     0      18.735   7.039  20.714  0.00  0.00     0.009 A 
HETATM   37  C   UNK     0      17.328   7.036  20.875  0.00  0.00    -0.028 A 
HETATM   38  C   UNK     0      16.752   6.562  22.166  0.00  0.00     0.051 C 
ENDBRANCH  30  31
ENDBRANCH  29  30
ENDBRANCH  26  29
ENDBRANCH  24  25
BRANCH  24  39
HETATM   39  C   UNK     0      12.384   5.297  23.542  0.00  0.00     0.066 C 
BRANCH  39  40
HETATM   40  C   UNK     0      13.076   4.735  24.768  0.00  0.00    -0.056 A 
HETATM   41  C   UNK     0      13.357   5.579  25.870  0.00  0.00     0.007 A 
HETATM   42  C   UNK     0      14.007   5.077  27.024  0.00  0.00     0.001 A 
HETATM   43  C   UNK     0      14.384   3.722  27.089  0.00  0.00     0.000 A 
HETATM   44  C   UNK     0      14.109   2.871  25.996  0.00  0.00     0.001 A 
HETATM   45  C   UNK     0      13.460   3.372  24.844  0.00  0.00     0.007 A 
ENDBRANCH  39  40
ENDBRANCH  24  39
ENDBRANCH  23  24
BRANCH  23  46
HETATM   46  O   UNK     0      11.533   3.620  20.329  0.00  0.00    -0.393 OA
HETATM   47  H   UNK     0      12.414   3.913  20.121  0.00  0.00     0.210 HD
ENDBRANCH  23  46
ENDBRANCH  22  23
ENDBRANCH  14  22
ENDBRANCH  11  14
ENDBRANCH   9  10
BRANCH   9  48
HETATM   48  C   UNK     0      10.478  -2.275  21.208  0.00  0.00     0.010 C 
HETATM   49  C   UNK     0      11.687  -1.661  21.940  0.00  0.00     0.012 C 
HETATM   50  C   UNK     0       9.438  -2.715  22.265  0.00  0.00     0.012 C 
ENDBRANCH   9  48
ENDBRANCH   3   9
TORSDOF 16
ENDMDL
MODEL 5
REMARK VINA RESULT:      -7.3      2.956      9.422
REMARK  16 active torsions:
REMARK  status: ('A' for Active; 'I' for Inactive)
REMARK    1  A    between atoms: N_3  and  C_13 
REMARK    2  A    between atoms: C_6  and  C_37 
REMARK    3  A    between atoms: C_13  and  C_14 
REMARK    4  A    between atoms: C_13  and  C_17 
REMARK       I    between atoms: C_14  and  N_15 
REMARK    5  A    between atoms: N_15  and  C_16 
REMARK    6  A    between atoms: C_16  and  C_27 
REMARK    7  A    between atoms: C_16  and  C_28 
REMARK    8  A    between atoms: C_25  and  C_27 
REMARK    9  A    between atoms: C_28  and  C_29 
REMARK   10  A    between atoms: C_29  and  C_30 
REMARK   11  A    between atoms: C_29  and  O_36 
REMARK   12  A    between atoms: C_30  and  N_31 
REMARK   13  A    between atoms: C_30  and  C_37 
REMARK       I    between atoms: N_31  and  C_32 
REMARK   14  A    between atoms: C_32  and  C_33 
REMARK   15  A    between atoms: C_33  and  O_34 
REMARK   16  A    between atoms: O_34  and  C_35 
ROOT
HETATM    1  C   UNK     0      11.565  -9.522  25.597  0.00  0.00     0.126 C 
HETATM    2  C   UNK     0      10.917  -7.230  26.385  0.00  0.00     0.130 C 
HETATM    3  N   UNK     0      10.284  -6.990  25.036  0.00  0.00    -0.320 N 
HETATM    4  C   UNK     0      10.303  -7.964  24.047  0.00  0.00     0.319 C 
HETATM    5  N   UNK     0      10.909  -9.153  24.326  0.00  0.00    -0.343 N 
HETATM    6  O   UNK     0       9.801  -7.785  22.951  0.00  0.00    -0.247 OA
HETATM    7  C   UNK     0      11.009  -8.719  26.779  0.00  0.00     0.040 C 
HETATM    8  H   UNK     0      10.869  -9.804  23.541  0.00  0.00     0.164 HD
ENDROOT
BRANCH   3   9
HETATM    9  C   UNK     0       9.623  -5.671  24.743  0.00  0.00     0.184 C 
BRANCH   9  10
HETATM   10  C   UNK     0      10.631  -4.746  24.006  0.00  0.00     0.241 C 
HETATM   11  N   UNK     0      10.110  -4.202  22.863  0.00  0.00    -0.354 N 
HETATM   12  H   UNK     0       9.150  -4.490  22.678  0.00  0.00     0.162 HD
HETATM   13  O   UNK     0      11.768  -4.553  24.438  0.00  0.00    -0.271 OA
BRANCH  11  14
HETATM   14  C   UNK     0      10.837  -3.283  21.959  0.00  0.00     0.091 C 
BRANCH  14  15
HETATM   15  C   UNK     0      10.720  -3.752  20.491  0.00  0.00     0.063 C 
BRANCH  15  16
HETATM   16  C   UNK     0      11.960  -3.722  19.644  0.00  0.00    -0.056 A 
HETATM   17  C   UNK     0      13.151  -3.123  20.138  0.00  0.00     0.007 A 
HETATM   18  C   UNK     0      14.324  -3.089  19.350  0.00  0.00     0.001 A 
HETATM   19  C   UNK     0      14.319  -3.658  18.055  0.00  0.00     0.000 A 
HETATM   20  C   UNK     0      13.138  -4.257  17.556  0.00  0.00     0.001 A 
HETATM   21  C   UNK     0      11.965  -4.289  18.348  0.00  0.00     0.007 A 
ENDBRANCH  15  16
ENDBRANCH  14  15
BRANCH  14  22
HETATM   22  C   UNK     0      10.245  -1.857  22.007  0.00  0.00     0.059 C 
BRANCH  22  23
HETATM   23  C   UNK     0      11.120  -0.679  22.475  0.00  0.00     0.143 C 
BRANCH  23  24
HETATM   24  C   UNK     0      11.046   0.628  21.645  0.00  0.00     0.117 C 
BRANCH  24  25
HETATM   25  N   UNK     0      11.699   1.708  22.421  0.00  0.00    -0.352 N 
HETATM   26  C   UNK     0      11.422   3.041  22.264  0.00  0.00     0.242 C 
HETATM   27  O   UNK     0      10.599   3.505  21.469  0.00  0.00    -0.271 OA
HETATM   28  H   UNK     0      12.406   1.514  23.131  0.00  0.00     0.163 HD
BRANCH  26  29
HETATM   29  C   UNK     0      12.250   3.976  23.169  0.00  0.00     0.278 C 
BRANCH  29  30
HETATM   30  O   UNK     0      12.204   5.341  22.713  0.00  0.00    -0.341 OA
BRANCH  30  31
HETATM   31  C   UNK     0      13.306   5.718  21.922  0.00  0.00     0.081 A 
HETATM   32  C   UNK     0      13.151   6.113  20.547  0.00  0.00    -0.028 A 
HETATM   33  C   UNK     0      14.302   6.484  19.801  0.00  0.00     0.009 A 
HETATM   34  C   UNK     0      11.805   6.151  19.863  0.00  0.00     0.051 C 
HETATM   35  C   UNK     0      15.583   6.471  20.390  0.00  0.00     0.001 A 
HETATM   36  C   UNK     0      15.745   6.087  21.737  0.00  0.00     0.009 A 
HETATM   37  C   UNK     0      14.621   5.711  22.511  0.00  0.00    -0.028 A 
HETATM   38  C   UNK     0      14.827   5.313  23.933  0.00  0.00     0.051 C 
ENDBRANCH  30  31
ENDBRANCH  29  30
ENDBRANCH  26  29
ENDBRANCH  24  25
BRANCH  24  39
HETATM   39  C   UNK     0      11.793   0.462  20.288  0.00  0.00     0.066 C 
BRANCH  39  40
HETATM   40  C   UNK     0      10.925  -0.021  19.142  0.00  0.00    -0.056 A 
HETATM   41  C   UNK     0      11.523  -0.620  18.007  0.00  0.00     0.007 A 
HETATM   42  C   UNK     0      10.733  -1.074  16.922  0.00  0.00     0.001 A 
HETATM   43  C   UNK     0       9.333  -0.933  16.962  0.00  0.00     0.000 A 
HETATM   44  C   UNK     0       8.725  -0.338  18.089  0.00  0.00     0.001 A 
HETATM   45  C   UNK     0       9.514   0.116  19.172  0.00  0.00     0.007 A 
ENDBRANCH  39  40
ENDBRANCH  24  39
ENDBRANCH  23  24
BRANCH  23  46
HETATM   46  O   UNK     0      10.683  -0.370  23.777  0.00  0.00    -0.393 OA
HETATM   47  H   UNK     0       9.786  -0.067  23.685  0.00  0.00     0.210 HD
ENDBRANCH  23  46
ENDBRANCH  22  23
ENDBRANCH  14  22
ENDBRANCH  11  14
ENDBRANCH   9  10
BRANCH   9  48
HETATM   48  C   UNK     0       9.040  -5.000  26.049  0.00  0.00     0.010 C 
HETATM   49  C   UNK     0       8.885  -3.471  25.937  0.00  0.00     0.012 C 
HETATM   50  C   UNK     0       7.664  -5.606  26.412  0.00  0.00     0.012 C 
ENDBRANCH   9  48
ENDBRANCH   3   9
TORSDOF 16
ENDMDL
MODEL 6
REMARK VINA RESULT:      -7.3      1.584      2.607
REMARK  16 active torsions:
REMARK  status: ('A' for Active; 'I' for Inactive)
REMARK    1  A    between atoms: N_3  and  C_13 
REMARK    2  A    between atoms: C_6  and  C_37 
REMARK    3  A    between atoms: C_13  and  C_14 
REMARK    4  A    between atoms: C_13  and  C_17 
REMARK       I    between atoms: C_14  and  N_15 
REMARK    5  A    between atoms: N_15  and  C_16 
REMARK    6  A    between atoms: C_16  and  C_27 
REMARK    7  A    between atoms: C_16  and  C_28 
REMARK    8  A    between atoms: C_25  and  C_27 
REMARK    9  A    between atoms: C_28  and  C_29 
REMARK   10  A    between atoms: C_29  and  C_30 
REMARK   11  A    between atoms: C_29  and  O_36 
REMARK   12  A    between atoms: C_30  and  N_31 
REMARK   13  A    between atoms: C_30  and  C_37 
REMARK       I    between atoms: N_31  and  C_32 
REMARK   14  A    between atoms: C_32  and  C_33 
REMARK   15  A    between atoms: C_33  and  O_34 
REMARK   16  A    between atoms: O_34  and  C_35 
ROOT
HETATM    1  C   UNK     0      15.463   1.582  27.072  0.00  0.00     0.126 C 
HETATM    2  C   UNK     0      15.371   2.532  24.752  0.00  0.00     0.130 C 
HETATM    3  N   UNK     0      14.979   3.859  25.356  0.00  0.00    -0.320 N 
HETATM    4  C   UNK     0      14.842   4.014  26.729  0.00  0.00     0.319 C 
HETATM    5  N   UNK     0      15.075   2.932  27.525  0.00  0.00    -0.343 N 
HETATM    6  O   UNK     0      14.523   5.077  27.232  0.00  0.00    -0.247 OA
HETATM    7  C   UNK     0      16.164   1.617  25.709  0.00  0.00     0.040 C 
HETATM    8  H   UNK     0      14.954   3.145  28.516  0.00  0.00     0.164 HD
ENDROOT
BRANCH   3   9
HETATM    9  C   UNK     0      14.722   5.041  24.462  0.00  0.00     0.184 C 
BRANCH   9  10
HETATM   10  C   UNK     0      13.225   5.052  24.047  0.00  0.00     0.241 C 
HETATM   11  N   UNK     0      12.843   3.897  23.419  0.00  0.00    -0.354 N 
HETATM   12  H   UNK     0      13.598   3.218  23.323  0.00  0.00     0.162 HD
HETATM   13  O   UNK     0      12.495   6.018  24.275  0.00  0.00    -0.271 OA
BRANCH  11  14
HETATM   14  C   UNK     0      11.479   3.622  22.915  0.00  0.00     0.091 C 
BRANCH  14  15
HETATM   15  C   UNK     0      11.528   3.095  21.462  0.00  0.00     0.063 C 
BRANCH  15  16
HETATM   16  C   UNK     0      12.428   3.803  20.490  0.00  0.00    -0.056 A 
HETATM   17  C   UNK     0      12.143   5.137  20.089  0.00  0.00     0.007 A 
HETATM   18  C   UNK     0      12.983   5.813  19.175  0.00  0.00     0.001 A 
HETATM   19  C   UNK     0      14.122   5.160  18.651  0.00  0.00     0.000 A 
HETATM   20  C   UNK     0      14.414   3.832  19.045  0.00  0.00     0.001 A 
HETATM   21  C   UNK     0      13.570   3.159  19.960  0.00  0.00     0.007 A 
ENDBRANCH  15  16
ENDBRANCH  14  15
BRANCH  14  22
HETATM   22  C   UNK     0      10.777   2.527  23.749  0.00  0.00     0.059 C 
BRANCH  22  23
HETATM   23  C   UNK     0       9.501   1.854  23.212  0.00  0.00     0.143 C 
BRANCH  23  24
HETATM   24  C   UNK     0       9.494   0.305  23.146  0.00  0.00     0.117 C 
BRANCH  24  25
HETATM   25  N   UNK     0      10.296  -0.113  21.973  0.00  0.00    -0.352 N 
HETATM   26  C   UNK     0      10.110  -1.290  21.296  0.00  0.00     0.242 C 
HETATM   27  O   UNK     0       9.257  -2.140  21.573  0.00  0.00    -0.271 OA
HETATM   28  H   UNK     0      11.046   0.466  21.595  0.00  0.00     0.163 HD
BRANCH  26  29
HETATM   29  C   UNK     0      11.086  -1.514  20.124  0.00  0.00     0.278 C 
BRANCH  29  30
HETATM   30  O   UNK     0      11.884  -2.698  20.309  0.00  0.00    -0.341 OA
BRANCH  30  31
HETATM   31  C   UNK     0      12.713  -2.657  21.446  0.00  0.00     0.081 A 
HETATM   32  C   UNK     0      13.700  -1.626  21.627  0.00  0.00    -0.028 A 
HETATM   33  C   UNK     0      14.505  -1.637  22.798  0.00  0.00     0.009 A 
HETATM   34  C   UNK     0      13.913  -0.524  20.616  0.00  0.00     0.051 C 
HETATM   35  C   UNK     0      14.347  -2.641  23.777  0.00  0.00     0.001 A 
HETATM   36  C   UNK     0      13.381  -3.654  23.609  0.00  0.00     0.009 A 
HETATM   37  C   UNK     0      12.561  -3.674  22.455  0.00  0.00    -0.028 A 
HETATM   38  C   UNK     0      11.548  -4.758  22.311  0.00  0.00     0.051 C 
ENDBRANCH  30  31
ENDBRANCH  29  30
ENDBRANCH  26  29
ENDBRANCH  24  25
BRANCH  24  39
HETATM   39  C   UNK     0      10.129  -0.304  24.431  0.00  0.00     0.066 C 
BRANCH  39  40
HETATM   40  C   UNK     0       9.487  -1.594  24.905  0.00  0.00    -0.056 A 
HETATM   41  C   UNK     0      10.298  -2.705  25.240  0.00  0.00     0.007 A 
HETATM   42  C   UNK     0       9.720  -3.922  25.680  0.00  0.00     0.001 A 
HETATM   43  C   UNK     0       8.322  -4.039  25.789  0.00  0.00     0.000 A 
HETATM   44  C   UNK     0       7.503  -2.937  25.458  0.00  0.00     0.001 A 
HETATM   45  C   UNK     0       8.079  -1.723  25.019  0.00  0.00     0.007 A 
ENDBRANCH  39  40
ENDBRANCH  24  39
ENDBRANCH  23  24
BRANCH  23  46
HETATM   46  O   UNK     0       8.467   2.238  24.086  0.00  0.00    -0.393 OA
HETATM   47  H   UNK     0       8.879   2.373  24.932  0.00  0.00     0.210 HD
ENDBRANCH  23  46
ENDBRANCH  22  23
ENDBRANCH  14  22
ENDBRANCH  11  14
ENDBRANCH   9  10
BRANCH   9  48
HETATM   48  C   UNK     0      15.689   5.059  23.214  0.00  0.00     0.010 C 
HETATM   49  C   UNK     0      15.218   5.996  22.085  0.00  0.00     0.012 C 
HETATM   50  C   UNK     0      17.119   5.476  23.631  0.00  0.00     0.012 C 
ENDBRANCH   9  48
ENDBRANCH   3   9
TORSDOF 16
ENDMDL
MODEL 7
REMARK VINA RESULT:      -7.2      1.831      8.967
REMARK  16 active torsions:
REMARK  status: ('A' for Active; 'I' for Inactive)
REMARK    1  A    between atoms: N_3  and  C_13 
REMARK    2  A    between atoms: C_6  and  C_37 
REMARK    3  A    between atoms: C_13  and  C_14 
REMARK    4  A    between atoms: C_13  and  C_17 
REMARK       I    between atoms: C_14  and  N_15 
REMARK    5  A    between atoms: N_15  and  C_16 
REMARK    6  A    between atoms: C_16  and  C_27 
REMARK    7  A    between atoms: C_16  and  C_28 
REMARK    8  A    between atoms: C_25  and  C_27 
REMARK    9  A    between atoms: C_28  and  C_29 
REMARK   10  A    between atoms: C_29  and  C_30 
REMARK   11  A    between atoms: C_29  and  O_36 
REMARK   12  A    between atoms: C_30  and  N_31 
REMARK   13  A    between atoms: C_30  and  C_37 
REMARK       I    between atoms: N_31  and  C_32 
REMARK   14  A    between atoms: C_32  and  C_33 
REMARK   15  A    between atoms: C_33  and  O_34 
REMARK   16  A    between atoms: O_34  and  C_35 
ROOT
HETATM    1  C   UNK     0      13.361  -5.410  20.198  0.00  0.00     0.126 C 
HETATM    2  C   UNK     0      11.160  -4.230  19.962  0.00  0.00     0.130 C 
HETATM    3  N   UNK     0      11.843  -2.957  20.401  0.00  0.00    -0.320 N 
HETATM    4  C   UNK     0      13.195  -2.936  20.714  0.00  0.00     0.319 C 
HETATM    5  N   UNK     0      13.898  -4.099  20.612  0.00  0.00    -0.343 N 
HETATM    6  O   UNK     0      13.760  -1.917  21.074  0.00  0.00    -0.247 OA
HETATM    7  C   UNK     0      12.111  -5.264  19.323  0.00  0.00     0.040 C 
HETATM    8  H   UNK     0      14.881  -3.982  20.859  0.00  0.00     0.164 HD
ENDROOT
BRANCH   3   9
HETATM    9  C   UNK     0      11.051  -1.682  20.511  0.00  0.00     0.184 C 
BRANCH   9  10
HETATM   10  C   UNK     0      10.090  -1.782  21.727  0.00  0.00     0.241 C 
HETATM   11  N   UNK     0      10.489  -1.006  22.782  0.00  0.00    -0.354 N 
HETATM   12  H   UNK     0      11.351  -0.491  22.602  0.00  0.00     0.162 HD
HETATM   13  O   UNK     0       9.086  -2.497  21.703  0.00  0.00    -0.271 OA
BRANCH  11  14
HETATM   14  C   UNK     0       9.770  -0.898  24.070  0.00  0.00     0.091 C 
BRANCH  14  15
HETATM   15  C   UNK     0      10.403  -1.829  25.130  0.00  0.00     0.063 C 
BRANCH  15  16
HETATM   16  C   UNK     0       9.808  -3.197  25.307  0.00  0.00    -0.056 A 
HETATM   17  C   UNK     0       8.481  -3.344  25.794  0.00  0.00     0.007 A 
HETATM   18  C   UNK     0       7.910  -4.626  25.965  0.00  0.00     0.001 A 
HETATM   19  C   UNK     0       8.665  -5.779  25.648  0.00  0.00     0.000 A 
HETATM   20  C   UNK     0       9.987  -5.642  25.162  0.00  0.00     0.001 A 
HETATM   21  C   UNK     0      10.555  -4.356  24.994  0.00  0.00     0.007 A 
ENDBRANCH  15  16
ENDBRANCH  14  15
BRANCH  14  22
HETATM   22  C   UNK     0       9.851   0.532  24.646  0.00  0.00     0.059 C 
BRANCH  22  23
HETATM   23  C   UNK     0       9.414   1.731  23.785  0.00  0.00     0.143 C 
BRANCH  23  24
HETATM   24  C   UNK     0      10.536   2.641  23.222  0.00  0.00     0.117 C 
BRANCH  24  25
HETATM   25  N   UNK     0      11.775   2.380  23.992  0.00  0.00    -0.352 N 
HETATM   26  C   UNK     0      12.498   3.351  24.636  0.00  0.00     0.242 C 
HETATM   27  O   UNK     0      12.208   4.551  24.661  0.00  0.00    -0.271 OA
HETATM   28  H   UNK     0      12.167   1.443  24.087  0.00  0.00     0.163 HD
BRANCH  26  29
HETATM   29  C   UNK     0      13.764   2.837  25.349  0.00  0.00     0.278 C 
BRANCH  29  30
HETATM   30  O   UNK     0      14.801   2.487  24.413  0.00  0.00    -0.341 OA
BRANCH  30  31
HETATM   31  C   UNK     0      15.056   3.477  23.445  0.00  0.00     0.081 A 
HETATM   32  C   UNK     0      15.498   4.797  23.809  0.00  0.00    -0.028 A 
HETATM   33  C   UNK     0      15.740   5.751  22.785  0.00  0.00     0.009 A 
HETATM   34  C   UNK     0      15.715   5.209  25.246  0.00  0.00     0.051 C 
HETATM   35  C   UNK     0      15.557   5.420  21.426  0.00  0.00     0.001 A 
HETATM   36  C   UNK     0      15.128   4.128  21.060  0.00  0.00     0.009 A 
HETATM   37  C   UNK     0      14.876   3.151  22.053  0.00  0.00    -0.028 A 
HETATM   38  C   UNK     0      14.425   1.794  21.630  0.00  0.00     0.051 C 
ENDBRANCH  30  31
ENDBRANCH  29  30
ENDBRANCH  26  29
ENDBRANCH  24  25
BRANCH  24  39
HETATM   39  C   UNK     0      10.802   2.325  21.720  0.00  0.00     0.066 C 
BRANCH  39  40
HETATM   40  C   UNK     0      11.295   3.503  20.902  0.00  0.00    -0.056 A 
HETATM   41  C   UNK     0      11.764   3.298  19.582  0.00  0.00     0.007 A 
HETATM   42  C   UNK     0      12.235   4.383  18.800  0.00  0.00     0.001 A 
HETATM   43  C   UNK     0      12.239   5.686  19.333  0.00  0.00     0.000 A 
HETATM   44  C   UNK     0      11.772   5.902  20.648  0.00  0.00     0.001 A 
HETATM   45  C   UNK     0      11.303   4.819  21.429  0.00  0.00     0.007 A 
ENDBRANCH  39  40
ENDBRANCH  24  39
ENDBRANCH  23  24
BRANCH  23  46
HETATM   46  O   UNK     0       8.730   1.185  22.683  0.00  0.00    -0.393 OA
HETATM   47  H   UNK     0       8.336   0.378  22.996  0.00  0.00     0.210 HD
ENDBRANCH  23  46
ENDBRANCH  22  23
ENDBRANCH  14  22
ENDBRANCH  11  14
ENDBRANCH   9  10
BRANCH   9  48
HETATM   48  C   UNK     0      10.287  -1.344  19.170  0.00  0.00     0.010 C 
HETATM   49  C   UNK     0       9.437  -0.062  19.255  0.00  0.00     0.012 C 
HETATM   50  C   UNK     0      11.280  -1.196  17.994  0.00  0.00     0.012 C 
ENDBRANCH   9  48
ENDBRANCH   3   9
TORSDOF 16
ENDMDL
MODEL 8
REMARK VINA RESULT:      -7.2      1.493      3.648
REMARK  16 active torsions:
REMARK  status: ('A' for Active; 'I' for Inactive)
REMARK    1  A    between atoms: N_3  and  C_13 
REMARK    2  A    between atoms: C_6  and  C_37 
REMARK    3  A    between atoms: C_13  and  C_14 
REMARK    4  A    between atoms: C_13  and  C_17 
REMARK       I    between atoms: C_14  and  N_15 
REMARK    5  A    between atoms: N_15  and  C_16 
REMARK    6  A    between atoms: C_16  and  C_27 
REMARK    7  A    between atoms: C_16  and  C_28 
REMARK    8  A    between atoms: C_25  and  C_27 
REMARK    9  A    between atoms: C_28  and  C_29 
REMARK   10  A    between atoms: C_29  and  C_30 
REMARK   11  A    between atoms: C_29  and  O_36 
REMARK   12  A    between atoms: C_30  and  N_31 
REMARK   13  A    between atoms: C_30  and  C_37 
REMARK       I    between atoms: N_31  and  C_32 
REMARK   14  A    between atoms: C_32  and  C_33 
REMARK   15  A    between atoms: C_33  and  O_34 
REMARK   16  A    between atoms: O_34  and  C_35 
ROOT
HETATM    1  C   UNK     0      15.717   5.691  25.849  0.00  0.00     0.126 C 
HETATM    2  C   UNK     0      15.609   5.088  23.416  0.00  0.00     0.130 C 
HETATM    3  N   UNK     0      14.159   5.506  23.419  0.00  0.00    -0.320 N 
HETATM    4  C   UNK     0      13.548   5.980  24.573  0.00  0.00     0.319 C 
HETATM    5  N   UNK     0      14.296   6.064  25.710  0.00  0.00    -0.343 N 
HETATM    6  O   UNK     0      12.377   6.318  24.593  0.00  0.00    -0.247 OA
HETATM    7  C   UNK     0      16.460   5.767  24.510  0.00  0.00     0.040 C 
HETATM    8  H   UNK     0      13.762   6.425  26.500  0.00  0.00     0.164 HD
ENDROOT
BRANCH   3   9
HETATM    9  C   UNK     0      13.347   5.405  22.157  0.00  0.00     0.184 C 
BRANCH   9  10
HETATM   10  C   UNK     0      12.443   4.144  22.230  0.00  0.00     0.241 C 
HETATM   11  N   UNK     0      13.105   3.046  22.713  0.00  0.00    -0.354 N 
HETATM   12  H   UNK     0      14.081   3.231  22.943  0.00  0.00     0.162 HD
HETATM   13  O   UNK     0      11.262   4.171  21.881  0.00  0.00    -0.271 OA
BRANCH  11  14
HETATM   14  C   UNK     0      12.500   1.709  22.896  0.00  0.00     0.091 C 
BRANCH  14  15
HETATM   15  C   UNK     0      13.496   0.747  23.585  0.00  0.00     0.063 C 
BRANCH  15  16
HETATM   16  C   UNK     0      14.423   1.320  24.618  0.00  0.00    -0.056 A 
HETATM   17  C   UNK     0      13.923   1.719  25.887  0.00  0.00     0.007 A 
HETATM   18  C   UNK     0      14.786   2.259  26.868  0.00  0.00     0.001 A 
HETATM   19  C   UNK     0      16.165   2.405  26.588  0.00  0.00     0.000 A 
HETATM   20  C   UNK     0      16.671   2.009  25.327  0.00  0.00     0.001 A 
HETATM   21  C   UNK     0      15.803   1.469  24.348  0.00  0.00     0.007 A 
ENDBRANCH  15  16
ENDBRANCH  14  15
BRANCH  14  22
HETATM   22  C   UNK     0      11.256   1.771  23.808  0.00  0.00     0.059 C 
BRANCH  22  23
HETATM   23  C   UNK     0       9.924   1.161  23.332  0.00  0.00     0.143 C 
BRANCH  23  24
HETATM   24  C   UNK     0       9.799  -0.383  23.379  0.00  0.00     0.117 C 
BRANCH  24  25
HETATM   25  N   UNK     0      10.803  -0.959  22.455  0.00  0.00    -0.352 N 
HETATM   26  C   UNK     0      10.512  -1.876  21.479  0.00  0.00     0.242 C 
HETATM   27  O   UNK     0       9.387  -2.330  21.245  0.00  0.00    -0.271 OA
HETATM   28  H   UNK     0      11.789  -0.698  22.495  0.00  0.00     0.163 HD
BRANCH  26  29
HETATM   29  C   UNK     0      11.731  -2.346  20.660  0.00  0.00     0.278 C 
BRANCH  29  30
HETATM   30  O   UNK     0      12.196  -1.326  19.757  0.00  0.00    -0.341 OA
BRANCH  30  31
HETATM   31  C   UNK     0      11.331  -1.082  18.674  0.00  0.00     0.081 A 
HETATM   32  C   UNK     0      11.088  -2.072  17.660  0.00  0.00    -0.028 A 
HETATM   33  C   UNK     0      10.202  -1.766  16.592  0.00  0.00     0.009 A 
HETATM   34  C   UNK     0      11.742  -3.433  17.686  0.00  0.00     0.051 C 
HETATM   35  C   UNK     0       9.561  -0.511  16.520  0.00  0.00     0.001 A 
HETATM   36  C   UNK     0       9.790   0.465  17.510  0.00  0.00     0.009 A 
HETATM   37  C   UNK     0      10.667   0.195  18.588  0.00  0.00    -0.028 A 
HETATM   38  C   UNK     0      10.885   1.249  19.620  0.00  0.00     0.051 C 
ENDBRANCH  30  31
ENDBRANCH  29  30
ENDBRANCH  26  29
ENDBRANCH  24  25
BRANCH  24  39
HETATM   39  C   UNK     0      10.075  -0.916  24.817  0.00  0.00     0.066 C 
BRANCH  39  40
HETATM   40  C   UNK     0       9.478  -2.278  25.113  0.00  0.00    -0.056 A 
HETATM   41  C   UNK     0       8.079  -2.414  25.286  0.00  0.00     0.007 A 
HETATM   42  C   UNK     0       7.500  -3.675  25.569  0.00  0.00     0.001 A 
HETATM   43  C   UNK     0       8.316  -4.817  25.680  0.00  0.00     0.000 A 
HETATM   44  C   UNK     0       9.712  -4.694  25.509  0.00  0.00     0.001 A 
HETATM   45  C   UNK     0      10.291  -3.434  25.227  0.00  0.00     0.007 A 
ENDBRANCH  39  40
ENDBRANCH  24  39
ENDBRANCH  23  24
BRANCH  23  46
HETATM   46  O   UNK     0       8.935   1.685  24.185  0.00  0.00    -0.393 OA
HETATM   47  H   UNK     0       9.158   1.384  25.058  0.00  0.00     0.210 HD
ENDBRANCH  23  46
ENDBRANCH  22  23
ENDBRANCH  14  22
ENDBRANCH  11  14
ENDBRANCH   9  10
BRANCH   9  48
HETATM   48  C   UNK     0      14.259   5.413  20.867  0.00  0.00     0.010 C 
HETATM   49  C   UNK     0      13.676   4.597  19.697  0.00  0.00     0.012 C 
HETATM   50  C   UNK     0      14.509   6.858  20.378  0.00  0.00     0.012 C 
ENDBRANCH   9  48
ENDBRANCH   3   9
TORSDOF 16
ENDMDL
MODEL 9
REMARK VINA RESULT:      -7.2      2.394      8.899
REMARK  16 active torsions:
REMARK  status: ('A' for Active; 'I' for Inactive)
REMARK    1  A    between atoms: N_3  and  C_13 
REMARK    2  A    between atoms: C_6  and  C_37 
REMARK    3  A    between atoms: C_13  and  C_14 
REMARK    4  A    between atoms: C_13  and  C_17 
REMARK       I    between atoms: C_14  and  N_15 
REMARK    5  A    between atoms: N_15  and  C_16 
REMARK    6  A    between atoms: C_16  and  C_27 
REMARK    7  A    between atoms: C_16  and  C_28 
REMARK    8  A    between atoms: C_25  and  C_27 
REMARK    9  A    between atoms: C_28  and  C_29 
REMARK   10  A    between atoms: C_29  and  C_30 
REMARK   11  A    between atoms: C_29  and  O_36 
REMARK   12  A    between atoms: C_30  and  N_31 
REMARK   13  A    between atoms: C_30  and  C_37 
REMARK       I    between atoms: N_31  and  C_32 
REMARK   14  A    between atoms: C_32  and  C_33 
REMARK   15  A    between atoms: C_33  and  O_34 
REMARK   16  A    between atoms: O_34  and  C_35 
ROOT
HETATM    1  C   UNK     0      14.750  -1.196  20.609  0.00  0.00     0.126 C 
HETATM    2  C   UNK     0      13.407  -2.348  22.390  0.00  0.00     0.130 C 
HETATM    3  N   UNK     0      12.505  -2.884  21.304  0.00  0.00    -0.320 N 
HETATM    4  C   UNK     0      12.728  -2.582  19.968  0.00  0.00     0.319 C 
HETATM    5  N   UNK     0      13.791  -1.787  19.655  0.00  0.00    -0.343 N 
HETATM    6  O   UNK     0      12.007  -3.004  19.080  0.00  0.00    -0.247 OA
HETATM    7  C   UNK     0      14.833  -2.007  21.908  0.00  0.00     0.040 C 
HETATM    8  H   UNK     0      13.873  -1.626  18.651  0.00  0.00     0.164 HD
ENDROOT
BRANCH   3   9
HETATM    9  C   UNK     0      11.335  -3.757  21.667  0.00  0.00     0.184 C 
BRANCH   9  10
HETATM   10  C   UNK     0      10.184  -2.868  22.211  0.00  0.00     0.241 C 
HETATM   11  N   UNK     0      10.328  -2.571  23.540  0.00  0.00    -0.354 N 
HETATM   12  H   UNK     0      11.163  -2.981  23.959  0.00  0.00     0.162 HD
HETATM   13  O   UNK     0       9.258  -2.492  21.491  0.00  0.00    -0.271 OA
BRANCH  11  14
HETATM   14  C   UNK     0       9.388  -1.742  24.327  0.00  0.00     0.091 C 
BRANCH  14  15
HETATM   15  C   UNK     0       8.975  -2.468  25.628  0.00  0.00     0.063 C 
BRANCH  15  16
HETATM   16  C   UNK     0       8.536  -3.901  25.523  0.00  0.00    -0.056 A 
HETATM   17  C   UNK     0       9.262  -4.924  26.192  0.00  0.00     0.007 A 
HETATM   18  C   UNK     0       8.859  -6.275  26.101  0.00  0.00     0.001 A 
HETATM   19  C   UNK     0       7.719  -6.619  25.337  0.00  0.00     0.000 A 
HETATM   20  C   UNK     0       6.990  -5.607  24.668  0.00  0.00     0.001 A 
HETATM   21  C   UNK     0       7.398  -4.255  24.762  0.00  0.00     0.007 A 
ENDBRANCH  15  16
ENDBRANCH  14  15
BRANCH  14  22
HETATM   22  C   UNK     0      10.036  -0.410  24.762  0.00  0.00     0.059 C 
BRANCH  22  23
HETATM   23  C   UNK     0      11.001   0.320  23.809  0.00  0.00     0.143 C 
BRANCH  23  24
HETATM   24  C   UNK     0      10.821   1.852  23.660  0.00  0.00     0.117 C 
BRANCH  24  25
HETATM   25  N   UNK     0      12.154   2.456  23.429  0.00  0.00    -0.352 N 
HETATM   26  C   UNK     0      12.514   3.710  23.851  0.00  0.00     0.242 C 
HETATM   27  O   UNK     0      11.781   4.484  24.475  0.00  0.00    -0.271 OA
HETATM   28  H   UNK     0      12.895   1.960  22.932  0.00  0.00     0.163 HD
BRANCH  26  29
HETATM   29  C   UNK     0      13.948   4.126  23.469  0.00  0.00     0.278 C 
BRANCH  29  30
HETATM   30  O   UNK     0      13.984   5.433  22.866  0.00  0.00    -0.341 OA
BRANCH  30  31
HETATM   31  C   UNK     0      14.018   5.413  21.458  0.00  0.00     0.081 A 
HETATM   32  C   UNK     0      12.840   5.657  20.669  0.00  0.00    -0.028 A 
HETATM   33  C   UNK     0      12.939   5.625  19.252  0.00  0.00     0.009 A 
HETATM   34  C   UNK     0      11.495   5.947  21.291  0.00  0.00     0.051 C 
HETATM   35  C   UNK     0      14.171   5.362  18.617  0.00  0.00     0.001 A 
HETATM   36  C   UNK     0      15.331   5.126  19.382  0.00  0.00     0.009 A 
HETATM   37  C   UNK     0      15.270   5.149  20.796  0.00  0.00    -0.028 A 
HETATM   38  C   UNK     0      16.516   4.897  21.575  0.00  0.00     0.051 C 
ENDBRANCH  30  31
ENDBRANCH  29  30
ENDBRANCH  26  29
ENDBRANCH  24  25
BRANCH  24  39
HETATM   39  C   UNK     0       9.902   2.184  22.447  0.00  0.00     0.066 C 
BRANCH  39  40
HETATM   40  C   UNK     0      10.411   1.682  21.110  0.00  0.00    -0.056 A 
HETATM   41  C   UNK     0      11.459   2.368  20.450  0.00  0.00     0.007 A 
HETATM   42  C   UNK     0      11.947   1.920  19.198  0.00  0.00     0.001 A 
HETATM   43  C   UNK     0      11.392   0.777  18.593  0.00  0.00     0.000 A 
HETATM   44  C   UNK     0      10.347   0.083  19.242  0.00  0.00     0.001 A 
HETATM   45  C   UNK     0       9.859   0.531  20.492  0.00  0.00     0.007 A 
ENDBRANCH  39  40
ENDBRANCH  24  39
ENDBRANCH  23  24
BRANCH  23  46
HETATM   46  O   UNK     0      12.291   0.102  24.329  0.00  0.00    -0.393 OA
HETATM   47  H   UNK     0      12.804   0.862  24.077  0.00  0.00     0.210 HD
ENDBRANCH  23  46
ENDBRANCH  22  23
ENDBRANCH  14  22
ENDBRANCH  11  14
ENDBRANCH   9  10
BRANCH   9  48
HETATM   48  C   UNK     0      11.742  -4.897  22.682  0.00  0.00     0.010 C 
HETATM   49  C   UNK     0      10.628  -5.935  22.918  0.00  0.00     0.012 C 
HETATM   50  C   UNK     0      13.008  -5.640  22.196  0.00  0.00     0.012 C 
ENDBRANCH   9  48
ENDBRANCH   3   9
TORSDOF 16
ENDMDL
MODEL 10
REMARK VINA RESULT:      -7.1      2.319      9.180
REMARK  16 active torsions:
REMARK  status: ('A' for Active; 'I' for Inactive)
REMARK    1  A    between atoms: N_3  and  C_13 
REMARK    2  A    between atoms: C_6  and  C_37 
REMARK    3  A    between atoms: C_13  and  C_14 
REMARK    4  A    between atoms: C_13  and  C_17 
REMARK       I    between atoms: C_14  and  N_15 
REMARK    5  A    between atoms: N_15  and  C_16 
REMARK    6  A    between atoms: C_16  and  C_27 
REMARK    7  A    between atoms: C_16  and  C_28 
REMARK    8  A    between atoms: C_25  and  C_27 
REMARK    9  A    between atoms: C_28  and  C_29 
REMARK   10  A    between atoms: C_29  and  C_30 
REMARK   11  A    between atoms: C_29  and  O_36 
REMARK   12  A    between atoms: C_30  and  N_31 
REMARK   13  A    between atoms: C_30  and  C_37 
REMARK       I    between atoms: N_31  and  C_32 
REMARK   14  A    between atoms: C_32  and  C_33 
REMARK   15  A    between atoms: C_33  and  O_34 
REMARK   16  A    between atoms: O_34  and  C_35 
ROOT
HETATM    1  C   UNK     0      14.917  -0.319  21.140  0.00  0.00     0.126 C 
HETATM    2  C   UNK     0      13.251  -1.354  22.705  0.00  0.00     0.130 C 
HETATM    3  N   UNK     0      12.745  -2.184  21.550  0.00  0.00    -0.320 N 
HETATM    4  C   UNK     0      13.301  -2.071  20.283  0.00  0.00     0.319 C 
HETATM    5  N   UNK     0      14.325  -1.189  20.105  0.00  0.00    -0.343 N 
HETATM    6  O   UNK     0      12.901  -2.731  19.339  0.00  0.00    -0.247 OA
HETATM    7  C   UNK     0      14.714  -0.889  22.548  0.00  0.00     0.040 C 
HETATM    8  H   UNK     0      14.668  -1.181  19.144  0.00  0.00     0.164 HD
ENDROOT
BRANCH   3   9
HETATM    9  C   UNK     0      11.611  -3.150  21.763  0.00  0.00     0.184 C 
BRANCH   9  10
HETATM   10  C   UNK     0      10.296  -2.354  21.980  0.00  0.00     0.241 C 
HETATM   11  N   UNK     0      10.171  -1.879  23.258  0.00  0.00    -0.354 N 
HETATM   12  H   UNK     0      10.957  -2.124  23.860  0.00  0.00     0.162 HD
HETATM   13  O   UNK     0       9.478  -2.192  21.073  0.00  0.00    -0.271 OA
BRANCH  11  14
HETATM   14  C   UNK     0       9.025  -1.085  23.755  0.00  0.00     0.091 C 
BRANCH  14  15
HETATM   15  C   UNK     0       8.527  -1.633  25.113  0.00  0.00     0.063 C 
BRANCH  15  16
HETATM   16  C   UNK     0       8.343  -3.118  25.245  0.00  0.00    -0.056 A 
HETATM   17  C   UNK     0       9.165  -3.866  26.130  0.00  0.00     0.007 A 
HETATM   18  C   UNK     0       9.001  -5.264  26.263  0.00  0.00     0.001 A 
HETATM   19  C   UNK     0       8.007  -5.930  25.510  0.00  0.00     0.000 A 
HETATM   20  C   UNK     0       7.183  -5.192  24.626  0.00  0.00     0.001 A 
HETATM   21  C   UNK     0       7.351  -3.793  24.496  0.00  0.00     0.007 A 
ENDBRANCH  15  16
ENDBRANCH  14  15
BRANCH  14  22
HETATM   22  C   UNK     0       9.421   0.387  24.001  0.00  0.00     0.059 C 
BRANCH  22  23
HETATM   23  C   UNK     0       9.284   1.418  22.865  0.00  0.00     0.143 C 
BRANCH  23  24
HETATM   24  C   UNK     0      10.516   2.312  22.572  0.00  0.00     0.117 C 
BRANCH  24  25
HETATM   25  N   UNK     0      11.639   1.847  23.419  0.00  0.00    -0.352 N 
HETATM   26  C   UNK     0      12.421   2.676  24.181  0.00  0.00     0.242 C 
HETATM   27  O   UNK     0      12.287   3.902  24.260  0.00  0.00    -0.271 OA
HETATM   28  H   UNK     0      11.897   0.862  23.484  0.00  0.00     0.163 HD
BRANCH  26  29
HETATM   29  C   UNK     0      13.545   1.961  24.957  0.00  0.00     0.278 C 
BRANCH  29  30
HETATM   30  O   UNK     0      14.814   2.071  24.286  0.00  0.00    -0.341 OA
BRANCH  30  31
HETATM   31  C   UNK     0      15.509   3.262  24.569  0.00  0.00     0.081 A 
HETATM   32  C   UNK     0      16.023   3.546  25.882  0.00  0.00    -0.028 A 
HETATM   33  C   UNK     0      16.717   4.765  26.104  0.00  0.00     0.009 A 
HETATM   34  C   UNK     0      15.852   2.592  27.041  0.00  0.00     0.051 C 
HETATM   35  C   UNK     0      16.909   5.691  25.057  0.00  0.00     0.001 A 
HETATM   36  C   UNK     0      16.411   5.421  23.766  0.00  0.00     0.009 A 
HETATM   37  C   UNK     0      15.714   4.216  23.508  0.00  0.00    -0.028 A 
HETATM   38  C   UNK     0      15.203   3.961  22.131  0.00  0.00     0.051 C 
ENDBRANCH  30  31
ENDBRANCH  29  30
ENDBRANCH  26  29
ENDBRANCH  24  25
BRANCH  24  39
HETATM   39  C   UNK     0      10.935   2.200  21.076  0.00  0.00     0.066 C 
BRANCH  39  40
HETATM   40  C   UNK     0      11.623   3.431  20.517  0.00  0.00    -0.056 A 
HETATM   41  C   UNK     0      12.645   3.290  19.548  0.00  0.00     0.007 A 
HETATM   42  C   UNK     0      13.305   4.425  19.015  0.00  0.00     0.001 A 
HETATM   43  C   UNK     0      12.946   5.716  19.447  0.00  0.00     0.000 A 
HETATM   44  C   UNK     0      11.927   5.869  20.412  0.00  0.00     0.001 A 
HETATM   45  C   UNK     0      11.269   4.736  20.944  0.00  0.00     0.007 A 
ENDBRANCH  39  40
ENDBRANCH  24  39
ENDBRANCH  23  24
BRANCH  23  46
HETATM   46  O   UNK     0       9.024   0.673  21.700  0.00  0.00    -0.393 OA
HETATM   47  H   UNK     0       9.013   1.302  20.987  0.00  0.00     0.210 HD
ENDBRANCH  23  46
ENDBRANCH  22  23
ENDBRANCH  14  22
ENDBRANCH  11  14
ENDBRANCH   9  10
BRANCH   9  48
HETATM   48  C   UNK     0      11.906  -4.154  22.946  0.00  0.00     0.010 C 
HETATM   49  C   UNK     0      10.849  -5.266  23.086  0.00  0.00     0.012 C 
HETATM   50  C   UNK     0      13.293  -4.817  22.773  0.00  0.00     0.012 C 
ENDBRANCH   9  48
ENDBRANCH   3   9
TORSDOF 16
ENDMDL
