MODEL 1
REMARK VINA RESULT:      -6.5      0.000      0.000
REMARK  20 active torsions:
REMARK  status: ('A' for Active; 'I' for Inactive)
REMARK    1  A    between atoms: C_3  and  C_7 
REMARK    2  A    between atoms: C_7  and  C_8 
REMARK    3  A    between atoms: C_8  and  N_9 
REMARK    4  A    between atoms: C_8  and  C_10 
REMARK    5  A    between atoms: C_10  and  O_11 
REMARK    6  A    between atoms: C_10  and  C_12 
REMARK    7  A    between atoms: C_12  and  C_13 
REMARK    8  A    between atoms: C_13  and  C_14 
REMARK    9  A    between atoms: C_13  and  N_21 
REMARK   10  A    between atoms: C_14  and  C_15 
REMARK   11  A    between atoms: N_21  and  P_22 
REMARK   12  A    between atoms: P_22  and  O_23 
REMARK   13  A    between atoms: P_22  and  O_24 
REMARK   14  A    between atoms: O_23  and  C_26 
REMARK   15  A    between atoms: O_24  and  C_27 
REMARK   16  A    between atoms: C_26  and  C_33 
REMARK   17  A    between atoms: C_35  and  C_40 
REMARK   18  A    between atoms: C_36  and  O_39 
REMARK   19  A    between atoms: C_37  and  O_38 
REMARK   20  A    between atoms: C_50  and  N_51 
ROOT
HETATM    1  C   MOL     1       6.850  -5.495  24.404  1.00 -0.25     0.001 A 
HETATM    2  C   MOL     1       7.392  -4.234  24.511  1.00 -0.30     0.007 A 
HETATM    3  C   MOL     1       8.188  -3.908  25.588  1.00 -0.25    -0.056 A 
HETATM    4  C   MOL     1       8.438  -4.856  26.557  1.00 -0.33     0.007 A 
HETATM    5  C   MOL     1       7.896  -6.117  26.452  1.00 -0.34     0.001 A 
HETATM    6  C   MOL     1       7.101  -6.436  25.375  1.00 -0.27     0.000 A 
ENDROOT
BRANCH   3   7
HETATM    7  C   MOL     1       8.790  -2.515  25.703  1.00 -0.43     0.074 C 
BRANCH   7   8
HETATM    8  C   MOL     1      10.217  -2.369  25.131  1.00 -0.43     0.216 C 
BRANCH   8   9
HETATM    9  N   MOL     1      11.045  -1.544  26.080  1.00  0.05    -0.072 N 
HETATM   10  H   MOL     1      11.139  -1.950  26.888  1.00 -0.64     0.274 HD
HETATM   11  H   MOL     1      11.884  -1.400  25.756  1.00 -0.76     0.274 HD
HETATM   12  H   MOL     1      10.686  -0.723  26.229  1.00 -0.15     0.274 HD
ENDBRANCH   8   9
BRANCH   8  13
HETATM   13  C   MOL     1      10.160  -1.723  23.727  1.00 -0.29     0.150 C 
BRANCH  13  14
HETATM   14  O   MOL     1       8.977  -0.912  23.606  1.00  0.06    -0.393 OA
HETATM   15  H   MOL     1       8.440  -0.923  24.456  1.00 -0.27     0.210 HD
ENDBRANCH  13  14
BRANCH  13  16
HETATM   16  C   MOL     1      10.157  -2.795  22.616  1.00 -0.14     0.054 C 
BRANCH  16  17
HETATM   17  C   MOL     1      11.050  -4.000  22.983  1.00 -0.12     0.073 C 
BRANCH  17  18
HETATM   18  C   MOL     1      10.268  -5.312  22.746  1.00 -0.13     0.058 C 
BRANCH  18  19
HETATM   19  C   MOL     1      10.515  -6.416  23.762  1.00 -0.16    -0.057 A 
HETATM   20  C   MOL     1      11.184  -6.144  24.936  1.00 -0.21     0.007 A 
HETATM   21  C   MOL     1      11.412  -7.143  25.855  1.00 -0.25     0.001 A 
HETATM   22  C   MOL     1      10.971  -8.422  25.604  1.00 -0.37     0.000 A 
HETATM   23  C   MOL     1      10.302  -8.700  24.433  1.00 -0.40     0.001 A 
HETATM   24  C   MOL     1      10.075  -7.698  23.516  1.00 -0.21     0.007 A 
ENDBRANCH  18  19
ENDBRANCH  17  18
BRANCH  17  25
HETATM   25  N   MOL     1      12.258  -3.993  22.147  1.00  0.15    -0.221 NA
HETATM   26  H   MOL     1      12.115  -3.396  21.322  1.00  0.32     0.134 HD
BRANCH  25  27
HETATM   27  P   MOL     1      13.513  -3.594  22.882  1.00  0.09     0.413 P 
HETATM   28  O   MOL     1      13.219  -3.223  24.311  1.00  0.07    -0.239 OA
BRANCH  27  29
HETATM   29  O   MOL     1      14.265  -2.382  22.139  1.00  0.12    -0.299 OA
BRANCH  29  30
HETATM   30  C   MOL     1      14.629  -1.221  22.901  1.00 -0.20     0.214 C 
BRANCH  30  31
HETATM   31  C   MOL     1      13.784  -0.019  22.450  1.00 -0.04     0.180 C 
HETATM   32  O   MOL     1      12.462  -0.424  22.058  1.00  0.26    -0.347 OA
HETATM   33  C   MOL     1      11.981   0.409  20.985  1.00 -0.04     0.222 C 
HETATM   34  C   MOL     1      13.131   1.390  20.657  1.00 -0.10     0.205 C 
HETATM   35  C   MOL     1      10.806   1.147  21.464  1.00 -0.21     0.107 C 
HETATM   36  C   MOL     1      14.379   0.711  21.237  1.00 -0.06     0.182 C 
HETATM   37  N   MOL     1       9.896   1.718  21.836  1.00  0.07    -0.193 NA
BRANCH  33  38
HETATM   38  C   MOL     1      11.592  -0.557  19.872  1.00 -0.19     0.088 A 
HETATM   39  N   MOL     1      10.811  -0.155  18.840  1.00 -0.03    -0.229 N 
HETATM   40  C   MOL     1      10.666  -1.254  18.053  1.00 -0.22     0.104 A 
HETATM   41  N   MOL     1      10.218   1.030  18.513  1.00  0.23    -0.160 NA
HETATM   42  C   MOL     1      11.332  -2.319  18.567  1.00 -0.37     0.038 A 
HETATM   43  C   MOL     1       9.882  -1.122  16.877  1.00 -0.44     0.151 A 
HETATM   44  C   MOL     1      11.927  -1.860  19.746  1.00 -0.17     0.034 A 
HETATM   45  N   MOL     1       9.294   0.034  16.542  1.00 -0.19    -0.221 NA
HETATM   46  C   MOL     1       9.506   1.074  17.412  1.00 -0.33     0.258 A 
BRANCH  43  47
HETATM   47  N   MOL     1       9.695  -2.189  16.030  1.00 -0.25    -0.382 N 
HETATM   48  H   MOL     1      10.352  -2.452  15.507  1.00 -0.27     0.157 HD
HETATM   49  H   MOL     1       8.922  -2.612  16.009  1.00 -0.19     0.157 HD
ENDBRANCH  43  47
ENDBRANCH  33  38
BRANCH  34  50
HETATM   50  O   MOL     1      13.272   1.658  19.253  1.00  0.41    -0.388 OA
HETATM   51  H   MOL     1      12.439   1.408  18.747  1.00 -0.42     0.210 HD
ENDBRANCH  34  50
BRANCH  36  52
HETATM   52  O   MOL     1      14.920  -0.206  20.274  1.00  0.07    -0.390 OA
HETATM   53  H   MOL     1      14.746   0.107  19.333  1.00 -0.09     0.210 HD
ENDBRANCH  36  52
ENDBRANCH  30  31
ENDBRANCH  29  30
ENDBRANCH  27  29
BRANCH  27  54
HETATM   54  O   MOL     1      14.598  -4.786  22.819  1.00  0.13    -0.260 OA
BRANCH  54  55
HETATM   55  C   MOL     1      14.232  -6.101  22.739  1.00 -0.29     0.080 A 
HETATM   56  C   MOL     1      13.639  -6.626  21.606  1.00 -0.28     0.037 A 
HETATM   57  C   MOL     1      13.286  -7.954  21.556  1.00 -0.40     0.003 A 
HETATM   58  C   MOL     1      13.524  -8.771  22.637  1.00 -0.35     0.000 A 
HETATM   59  C   MOL     1      14.114  -8.257  23.769  1.00 -0.47     0.003 A 
HETATM   60  C   MOL     1      14.464  -6.929  23.821  1.00 -0.37     0.037 A 
ENDBRANCH  54  55
ENDBRANCH  27  54
ENDBRANCH  25  27
ENDBRANCH  17  25
ENDBRANCH  16  17
ENDBRANCH  13  16
ENDBRANCH   8  13
ENDBRANCH   7   8
ENDBRANCH   3   7
TORSDOF 20
ENDMDL
MODEL 2
REMARK VINA RESULT:      -6.4      4.095      9.387
REMARK  20 active torsions:
REMARK  status: ('A' for Active; 'I' for Inactive)
REMARK    1  A    between atoms: C_3  and  C_7 
REMARK    2  A    between atoms: C_7  and  C_8 
REMARK    3  A    between atoms: C_8  and  N_9 
REMARK    4  A    between atoms: C_8  and  C_10 
REMARK    5  A    between atoms: C_10  and  O_11 
REMARK    6  A    between atoms: C_10  and  C_12 
REMARK    7  A    between atoms: C_12  and  C_13 
REMARK    8  A    between atoms: C_13  and  C_14 
REMARK    9  A    between atoms: C_13  and  N_21 
REMARK   10  A    between atoms: C_14  and  C_15 
REMARK   11  A    between atoms: N_21  and  P_22 
REMARK   12  A    between atoms: P_22  and  O_23 
REMARK   13  A    between atoms: P_22  and  O_24 
REMARK   14  A    between atoms: O_23  and  C_26 
REMARK   15  A    between atoms: O_24  and  C_27 
REMARK   16  A    between atoms: C_26  and  C_33 
REMARK   17  A    between atoms: C_35  and  C_40 
REMARK   18  A    between atoms: C_36  and  O_39 
REMARK   19  A    between atoms: C_37  and  O_38 
REMARK   20  A    between atoms: C_50  and  N_51 
ROOT
HETATM    1  C   MOL     1      18.538   4.538  24.275  1.00 -0.25     0.001 A 
HETATM    2  C   MOL     1      17.577   4.070  25.142  1.00 -0.30     0.007 A 
HETATM    3  C   MOL     1      16.667   4.937  25.707  1.00 -0.25    -0.056 A 
HETATM    4  C   MOL     1      16.728   6.279  25.396  1.00 -0.33     0.007 A 
HETATM    5  C   MOL     1      17.689   6.749  24.530  1.00 -0.34     0.001 A 
HETATM    6  C   MOL     1      18.594   5.878  23.970  1.00 -0.27     0.000 A 
ENDROOT
BRANCH   3   7
HETATM    7  C   MOL     1      15.603   4.417  26.663  1.00 -0.43     0.074 C 
BRANCH   7   8
HETATM    8  C   MOL     1      14.255   4.048  26.004  1.00 -0.43     0.216 C 
BRANCH   8   9
HETATM    9  N   MOL     1      13.180   4.953  26.544  1.00  0.05    -0.072 N 
HETATM   10  H   MOL     1      12.763   4.589  27.266  1.00 -0.64     0.274 HD
HETATM   11  H   MOL     1      13.518   5.755  26.810  1.00 -0.76     0.274 HD
HETATM   12  H   MOL     1      12.541   5.138  25.927  1.00 -0.15     0.274 HD
ENDBRANCH   8   9
BRANCH   8  13
HETATM   13  C   MOL     1      13.926   2.561  26.270  1.00 -0.29     0.150 C 
BRANCH  13  14
HETATM   14  O   MOL     1      14.911   1.990  27.150  1.00  0.06    -0.393 OA
HETATM   15  H   MOL     1      14.515   1.772  28.048  1.00 -0.27     0.210 HD
ENDBRANCH  13  14
BRANCH  13  16
HETATM   16  C   MOL     1      13.887   1.751  24.957  1.00 -0.14     0.054 C 
BRANCH  16  17
HETATM   17  C   MOL     1      13.754   2.671  23.722  1.00 -0.12     0.073 C 
BRANCH  17  18
HETATM   18  C   MOL     1      15.106   2.726  22.975  1.00 -0.13     0.058 C 
BRANCH  18  19
HETATM   19  C   MOL     1      15.387   4.018  22.222  1.00 -0.16    -0.057 A 
HETATM   20  C   MOL     1      16.260   4.024  21.156  1.00 -0.21     0.007 A 
HETATM   21  C   MOL     1      16.517   5.193  20.475  1.00 -0.25     0.001 A 
HETATM   22  C   MOL     1      15.903   6.362  20.859  1.00 -0.37     0.000 A 
HETATM   23  C   MOL     1      15.030   6.361  21.923  1.00 -0.40     0.001 A 
HETATM   24  C   MOL     1      14.773   5.192  22.602  1.00 -0.21     0.007 A 
ENDBRANCH  18  19
ENDBRANCH  17  18
BRANCH  17  25
HETATM   25  N   MOL     1      12.719   2.144  22.823  1.00  0.15    -0.221 NA
HETATM   26  H   MOL     1      12.755   1.117  22.803  1.00  0.32     0.134 HD
BRANCH  25  27
HETATM   27  P   MOL     1      11.325   2.622  23.143  1.00  0.09     0.413 P 
HETATM   28  O   MOL     1      11.327   3.594  24.293  1.00  0.07    -0.239 OA
BRANCH  27  29
HETATM   29  O   MOL     1      10.343   1.389  23.463  1.00  0.12    -0.299 OA
BRANCH  29  30
HETATM   30  C   MOL     1      10.757   0.405  24.421  1.00 -0.20     0.214 C 
BRANCH  30  31
HETATM   31  C   MOL     1      11.286  -0.840  23.691  1.00 -0.04     0.180 C 
HETATM   32  O   MOL     1      11.861  -0.498  22.419  1.00  0.26    -0.347 OA
HETATM   33  C   MOL     1      11.635  -1.555  21.468  1.00 -0.04     0.222 C 
HETATM   34  C   MOL     1      10.807  -2.630  22.211  1.00 -0.10     0.205 C 
HETATM   35  C   MOL     1      12.937  -2.104  21.069  1.00 -0.21     0.107 C 
HETATM   36  C   MOL     1      10.191  -1.874  23.395  1.00 -0.06     0.182 C 
HETATM   37  N   MOL     1      13.945  -2.529  20.761  1.00  0.07    -0.193 NA
BRANCH  33  38
HETATM   38  C   MOL     1      10.948  -0.887  20.282  1.00 -0.19     0.088 A 
HETATM   39  N   MOL     1      10.959  -1.460  19.055  1.00 -0.03    -0.229 N 
HETATM   40  C   MOL     1      10.269  -0.605  18.254  1.00 -0.22     0.104 A 
HETATM   41  N   MOL     1      11.493  -2.615  18.558  1.00  0.23    -0.160 NA
HETATM   42  C   MOL     1       9.834   0.477  18.950  1.00 -0.37     0.038 A 
HETATM   43  C   MOL     1      10.118  -0.958  16.888  1.00 -0.44     0.151 A 
HETATM   44  C   MOL     1      10.280   0.288  20.261  1.00 -0.17     0.034 A 
HETATM   45  N   MOL     1      10.635  -2.088  16.386  1.00 -0.19    -0.221 NA
HETATM   46  C   MOL     1      11.314  -2.872  17.284  1.00 -0.33     0.258 A 
BRANCH  43  47
HETATM   47  N   MOL     1       9.429  -0.145  16.020  1.00 -0.25    -0.382 N 
HETATM   48  H   MOL     1       8.597  -0.339  15.807  1.00 -0.27     0.157 HD
HETATM   49  H   MOL     1       9.813   0.569  15.677  1.00 -0.19     0.157 HD
ENDBRANCH  43  47
ENDBRANCH  33  38
BRANCH  34  50
HETATM   50  O   MOL     1       9.803  -3.247  21.390  1.00  0.41    -0.388 OA
HETATM   51  H   MOL     1       9.026  -3.570  21.942  1.00 -0.42     0.210 HD
ENDBRANCH  34  50
BRANCH  36  52
HETATM   52  O   MOL     1       8.964  -1.250  22.984  1.00  0.07    -0.390 OA
HETATM   53  H   MOL     1       9.017  -0.934  22.030  1.00 -0.09     0.210 HD
ENDBRANCH  36  52
ENDBRANCH  30  31
ENDBRANCH  29  30
ENDBRANCH  27  29
BRANCH  27  54
HETATM   54  O   MOL     1      10.653   3.292  21.838  1.00  0.13    -0.260 OA
BRANCH  54  55
HETATM   55  C   MOL     1      11.374   4.036  20.947  1.00 -0.29     0.080 A 
HETATM   56  C   MOL     1      11.302   5.417  20.923  1.00 -0.28     0.037 A 
HETATM   57  C   MOL     1      12.044   6.138  20.017  1.00 -0.40     0.003 A 
HETATM   58  C   MOL     1      12.866   5.485  19.126  1.00 -0.35     0.000 A 
HETATM   59  C   MOL     1      12.943   4.112  19.143  1.00 -0.47     0.003 A 
HETATM   60  C   MOL     1      12.200   3.391  20.047  1.00 -0.37     0.037 A 
ENDBRANCH  54  55
ENDBRANCH  27  54
ENDBRANCH  25  27
ENDBRANCH  17  25
ENDBRANCH  16  17
ENDBRANCH  13  16
ENDBRANCH   8  13
ENDBRANCH   7   8
ENDBRANCH   3   7
TORSDOF 20
ENDMDL
MODEL 3
REMARK VINA RESULT:      -6.0      3.288      7.026
REMARK  20 active torsions:
REMARK  status: ('A' for Active; 'I' for Inactive)
REMARK    1  A    between atoms: C_3  and  C_7 
REMARK    2  A    between atoms: C_7  and  C_8 
REMARK    3  A    between atoms: C_8  and  N_9 
REMARK    4  A    between atoms: C_8  and  C_10 
REMARK    5  A    between atoms: C_10  and  O_11 
REMARK    6  A    between atoms: C_10  and  C_12 
REMARK    7  A    between atoms: C_12  and  C_13 
REMARK    8  A    between atoms: C_13  and  C_14 
REMARK    9  A    between atoms: C_13  and  N_21 
REMARK   10  A    between atoms: C_14  and  C_15 
REMARK   11  A    between atoms: N_21  and  P_22 
REMARK   12  A    between atoms: P_22  and  O_23 
REMARK   13  A    between atoms: P_22  and  O_24 
REMARK   14  A    between atoms: O_23  and  C_26 
REMARK   15  A    between atoms: O_24  and  C_27 
REMARK   16  A    between atoms: C_26  and  C_33 
REMARK   17  A    between atoms: C_35  and  C_40 
REMARK   18  A    between atoms: C_36  and  O_39 
REMARK   19  A    between atoms: C_37  and  O_38 
REMARK   20  A    between atoms: C_50  and  N_51 
ROOT
HETATM    1  C   MOL     1      14.669  -3.460  17.723  1.00 -0.25     0.001 A 
HETATM    2  C   MOL     1      14.348  -3.431  19.062  1.00 -0.30     0.007 A 
HETATM    3  C   MOL     1      13.186  -4.017  19.512  1.00 -0.25    -0.056 A 
HETATM    4  C   MOL     1      12.345  -4.635  18.611  1.00 -0.33     0.007 A 
HETATM    5  C   MOL     1      12.664  -4.665  17.272  1.00 -0.34     0.001 A 
HETATM    6  C   MOL     1      13.826  -4.077  16.829  1.00 -0.27     0.000 A 
ENDROOT
BRANCH   3   7
HETATM    7  C   MOL     1      12.834  -3.986  20.993  1.00 -0.43     0.074 C 
BRANCH   7   8
HETATM    8  C   MOL     1      12.231  -2.655  21.494  1.00 -0.43     0.216 C 
BRANCH   8   9
HETATM    9  N   MOL     1      13.115  -2.090  22.573  1.00  0.05    -0.072 N 
HETATM   10  H   MOL     1      12.684  -1.463  23.071  1.00 -0.64     0.274 HD
HETATM   11  H   MOL     1      13.398  -2.737  23.148  1.00 -0.76     0.274 HD
HETATM   12  H   MOL     1      13.865  -1.702  22.238  1.00 -0.15     0.274 HD
ENDBRANCH   8   9
BRANCH   8  13
HETATM   13  C   MOL     1      10.792  -2.889  22.012  1.00 -0.29     0.150 C 
BRANCH  13  14
HETATM   14  O   MOL     1      10.413  -4.262  21.807  1.00  0.06    -0.393 OA
HETATM   15  H   MOL     1       9.446  -4.411  22.041  1.00 -0.27     0.210 HD
ENDBRANCH  13  14
BRANCH  13  16
HETATM   16  C   MOL     1       9.781  -1.970  21.294  1.00 -0.14     0.054 C 
BRANCH  16  17
HETATM   17  C   MOL     1      10.011  -0.483  21.645  1.00 -0.12     0.073 C 
BRANCH  17  18
HETATM   18  C   MOL     1       9.697   0.392  20.410  1.00 -0.13     0.058 C 
BRANCH  18  19
HETATM   19  C   MOL     1       9.960  -0.259  19.061  1.00 -0.16    -0.057 A 
HETATM   20  C   MOL     1       8.916  -0.520  18.200  1.00 -0.21     0.007 A 
HETATM   21  C   MOL     1       9.152  -1.112  16.979  1.00 -0.25     0.001 A 
HETATM   22  C   MOL     1      10.436  -1.447  16.615  1.00 -0.37     0.000 A 
HETATM   23  C   MOL     1      11.483  -1.188  17.471  1.00 -0.40     0.001 A 
HETATM   24  C   MOL     1      11.244  -0.595  18.690  1.00 -0.21     0.007 A 
ENDBRANCH  18  19
ENDBRANCH  17  18
BRANCH  17  25
HETATM   25  N   MOL     1       9.131  -0.096  22.756  1.00  0.15    -0.221 NA
HETATM   26  H   MOL     1       8.597  -0.911  23.086  1.00  0.32     0.134 HD
BRANCH  25  27
HETATM   27  P   MOL     1       9.846   0.573  23.903  1.00  0.09     0.413 P 
HETATM   28  O   MOL     1       9.408   2.005  24.064  1.00  0.07    -0.239 OA
BRANCH  27  29
HETATM   29  O   MOL     1      11.441   0.499  23.720  1.00  0.12    -0.299 OA
BRANCH  29  30
HETATM   30  C   MOL     1      12.268   0.381  24.887  1.00 -0.20     0.214 C 
BRANCH  30  31
HETATM   31  C   MOL     1      13.319   1.503  24.895  1.00 -0.04     0.180 C 
HETATM   32  O   MOL     1      12.724   2.780  24.606  1.00  0.26    -0.347 OA
HETATM   33  C   MOL     1      13.647   3.606  23.872  1.00 -0.04     0.222 C 
HETATM   34  C   MOL     1      14.912   2.743  23.651  1.00 -0.10     0.205 C 
HETATM   35  C   MOL     1      13.971   4.779  24.694  1.00 -0.21     0.107 C 
HETATM   36  C   MOL     1      14.420   1.303  23.844  1.00 -0.06     0.182 C 
HETATM   37  N   MOL     1      14.223   5.687  25.331  1.00  0.07    -0.193 NA
BRANCH  33  38
HETATM   38  C   MOL     1      12.897   4.024  22.612  1.00 -0.19     0.088 A 
HETATM   39  N   MOL     1      13.402   4.963  21.778  1.00 -0.03    -0.229 N 
HETATM   40  C   MOL     1      12.487   5.086  20.781  1.00 -0.22     0.104 A 
HETATM   41  N   MOL     1      14.543   5.714  21.783  1.00  0.23    -0.160 NA
HETATM   42  C   MOL     1      11.432   4.252  20.976  1.00 -0.37     0.038 A 
HETATM   43  C   MOL     1      12.760   6.017  19.745  1.00 -0.44     0.151 A 
HETATM   44  C   MOL     1      11.705   3.570  22.165  1.00 -0.17     0.034 A 
HETATM   45  N   MOL     1      13.875   6.761  19.736  1.00 -0.19    -0.221 NA
HETATM   46  C   MOL     1      14.725   6.556  20.794  1.00 -0.33     0.258 A 
BRANCH  43  47
HETATM   47  N   MOL     1      11.882   6.191  18.702  1.00 -0.25    -0.382 N 
HETATM   48  H   MOL     1      12.074   5.861  17.909  1.00 -0.27     0.157 HD
HETATM   49  H   MOL     1      11.128   6.631  18.822  1.00 -0.19     0.157 HD
ENDBRANCH  43  47
ENDBRANCH  33  38
BRANCH  34  50
HETATM   50  O   MOL     1      15.516   2.933  22.361  1.00  0.41    -0.388 OA
HETATM   51  H   MOL     1      16.350   3.491  22.426  1.00 -0.42     0.210 HD
ENDBRANCH  34  50
BRANCH  36  52
HETATM   52  O   MOL     1      13.893   0.803  22.606  1.00  0.07    -0.390 OA
HETATM   53  H   MOL     1      13.758   1.545  21.939  1.00 -0.09     0.210 HD
ENDBRANCH  36  52
ENDBRANCH  30  31
ENDBRANCH  29  30
ENDBRANCH  27  29
BRANCH  27  54
HETATM   54  O   MOL     1       9.599  -0.250  25.268  1.00  0.13    -0.260 OA
BRANCH  54  55
HETATM   55  C   MOL     1       9.200  -1.558  25.270  1.00 -0.29     0.080 A 
HETATM   56  C   MOL     1       7.876  -1.916  25.090  1.00 -0.28     0.037 A 
HETATM   57  C   MOL     1       7.508  -3.241  25.093  1.00 -0.40     0.003 A 
HETATM   58  C   MOL     1       8.458  -4.220  25.273  1.00 -0.35     0.000 A 
HETATM   59  C   MOL     1       9.777  -3.872  25.453  1.00 -0.47     0.003 A 
HETATM   60  C   MOL     1      10.146  -2.548  25.453  1.00 -0.37     0.037 A 
ENDBRANCH  54  55
ENDBRANCH  27  54
ENDBRANCH  25  27
ENDBRANCH  17  25
ENDBRANCH  16  17
ENDBRANCH  13  16
ENDBRANCH   8  13
ENDBRANCH   7   8
ENDBRANCH   3   7
TORSDOF 20
ENDMDL
MODEL 4
REMARK VINA RESULT:      -5.9      4.303     10.263
REMARK  20 active torsions:
REMARK  status: ('A' for Active; 'I' for Inactive)
REMARK    1  A    between atoms: C_3  and  C_7 
REMARK    2  A    between atoms: C_7  and  C_8 
REMARK    3  A    between atoms: C_8  and  N_9 
REMARK    4  A    between atoms: C_8  and  C_10 
REMARK    5  A    between atoms: C_10  and  O_11 
REMARK    6  A    between atoms: C_10  and  C_12 
REMARK    7  A    between atoms: C_12  and  C_13 
REMARK    8  A    between atoms: C_13  and  C_14 
REMARK    9  A    between atoms: C_13  and  N_21 
REMARK   10  A    between atoms: C_14  and  C_15 
REMARK   11  A    between atoms: N_21  and  P_22 
REMARK   12  A    between atoms: P_22  and  O_23 
REMARK   13  A    between atoms: P_22  and  O_24 
REMARK   14  A    between atoms: O_23  and  C_26 
REMARK   15  A    between atoms: O_24  and  C_27 
REMARK   16  A    between atoms: C_26  and  C_33 
REMARK   17  A    between atoms: C_35  and  C_40 
REMARK   18  A    between atoms: C_36  and  O_39 
REMARK   19  A    between atoms: C_37  and  O_38 
REMARK   20  A    between atoms: C_50  and  N_51 
ROOT
HETATM    1  C   MOL     1      18.905   4.894  23.213  1.00 -0.25     0.001 A 
HETATM    2  C   MOL     1      18.203   3.974  23.959  1.00 -0.30     0.007 A 
HETATM    3  C   MOL     1      17.353   4.392  24.960  1.00 -0.25    -0.056 A 
HETATM    4  C   MOL     1      17.212   5.740  25.209  1.00 -0.33     0.007 A 
HETATM    5  C   MOL     1      17.914   6.661  24.465  1.00 -0.34     0.001 A 
HETATM    6  C   MOL     1      18.761   6.238  23.467  1.00 -0.27     0.000 A 
ENDROOT
BRANCH   3   7
HETATM    7  C   MOL     1      16.575   3.373  25.781  1.00 -0.43     0.074 C 
BRANCH   7   8
HETATM    8  C   MOL     1      15.368   3.944  26.557  1.00 -0.43     0.216 C 
BRANCH   8   9
HETATM    9  N   MOL     1      15.072   3.051  27.732  1.00  0.05    -0.072 N 
HETATM   10  H   MOL     1      14.666   3.504  28.408  1.00 -0.64     0.274 HD
HETATM   11  H   MOL     1      14.519   2.365  27.502  1.00 -0.76     0.274 HD
HETATM   12  H   MOL     1      15.822   2.668  28.074  1.00 -0.15     0.274 HD
ENDBRANCH   8   9
BRANCH   8  13
HETATM   13  C   MOL     1      14.144   4.062  25.619  1.00 -0.29     0.150 C 
BRANCH  13  14
HETATM   14  O   MOL     1      12.964   4.360  26.386  1.00  0.06    -0.393 OA
HETATM   15  H   MOL     1      12.581   3.529  26.803  1.00 -0.27     0.210 HD
ENDBRANCH  13  14
BRANCH  13  16
HETATM   16  C   MOL     1      13.918   2.757  24.826  1.00 -0.14     0.054 C 
BRANCH  16  17
HETATM   17  C   MOL     1      13.532   3.041  23.357  1.00 -0.12     0.073 C 
BRANCH  17  18
HETATM   18  C   MOL     1      14.762   2.818  22.449  1.00 -0.13     0.058 C 
BRANCH  18  19
HETATM   19  C   MOL     1      15.337   4.069  21.803  1.00 -0.16    -0.057 A 
HETATM   20  C   MOL     1      14.967   5.317  22.256  1.00 -0.21     0.007 A 
HETATM   21  C   MOL     1      15.485   6.451  21.670  1.00 -0.25     0.001 A 
HETATM   22  C   MOL     1      16.374   6.341  20.626  1.00 -0.37     0.000 A 
HETATM   23  C   MOL     1      16.747   5.097  20.170  1.00 -0.40     0.001 A 
HETATM   24  C   MOL     1      16.229   3.965  20.758  1.00 -0.21     0.007 A 
ENDBRANCH  18  19
ENDBRANCH  17  18
BRANCH  17  25
HETATM   25  N   MOL     1      12.450   2.136  22.946  1.00  0.15    -0.221 NA
HETATM   26  H   MOL     1      12.482   1.271  23.500  1.00  0.32     0.134 HD
BRANCH  25  27
HETATM   27  P   MOL     1      11.075   2.755  23.004  1.00  0.09     0.413 P 
HETATM   28  O   MOL     1      11.034   3.915  23.963  1.00  0.07    -0.239 OA
BRANCH  27  29
HETATM   29  O   MOL     1       9.961   1.667  23.403  1.00  0.12    -0.299 OA
BRANCH  29  30
HETATM   30  C   MOL     1      10.314   0.615  24.313  1.00 -0.20     0.214 C 
BRANCH  30  31
HETATM   31  C   MOL     1      10.972  -0.541  23.541  1.00 -0.04     0.180 C 
HETATM   32  O   MOL     1       9.994  -1.495  23.093  1.00  0.26    -0.347 OA
HETATM   33  C   MOL     1      10.551  -2.823  23.106  1.00 -0.04     0.222 C 
HETATM   34  C   MOL     1      11.991  -2.679  23.654  1.00 -0.10     0.205 C 
HETATM   35  C   MOL     1      10.581  -3.325  21.726  1.00 -0.21     0.107 C 
HETATM   36  C   MOL     1      11.978  -1.333  24.389  1.00 -0.06     0.182 C 
HETATM   37  N   MOL     1      10.606  -3.712  20.657  1.00  0.07    -0.193 NA
BRANCH  33  38
HETATM   38  C   MOL     1       9.594  -3.651  23.957  1.00 -0.19     0.088 A 
HETATM   39  N   MOL     1       9.722  -4.996  24.043  1.00 -0.03    -0.229 N 
HETATM   40  C   MOL     1       8.718  -5.399  24.867  1.00 -0.22     0.104 A 
HETATM   41  N   MOL     1      10.589  -5.898  23.496  1.00  0.23    -0.160 NA
HETATM   42  C   MOL     1       7.976  -4.343  25.290  1.00 -0.37     0.038 A 
HETATM   43  C   MOL     1       8.609  -6.786  25.142  1.00 -0.44     0.151 A 
HETATM   44  C   MOL     1       8.549  -3.216  24.695  1.00 -0.17     0.034 A 
HETATM   45  N   MOL     1       9.452  -7.684  24.614  1.00 -0.19    -0.221 NA
HETATM   46  C   MOL     1      10.422  -7.165  23.794  1.00 -0.33     0.258 A 
BRANCH  43  47
HETATM   47  N   MOL     1       7.621  -7.266  25.970  1.00 -0.25    -0.382 N 
HETATM   48  H   MOL     1       7.822  -7.853  26.596  1.00 -0.27     0.157 HD
HETATM   49  H   MOL     1       6.790  -6.990  25.880  1.00 -0.19     0.157 HD
ENDBRANCH  43  47
ENDBRANCH  33  38
BRANCH  34  50
HETATM   50  O   MOL     1      12.384  -3.756  24.519  1.00  0.41    -0.388 OA
HETATM   51  H   MOL     1      12.639  -4.574  23.992  1.00 -0.42     0.210 HD
ENDBRANCH  34  50
BRANCH  36  52
HETATM   52  O   MOL     1      11.512  -1.522  25.734  1.00  0.07    -0.390 OA
HETATM   53  H   MOL     1      10.511  -1.432  25.790  1.00 -0.09     0.210 HD
ENDBRANCH  36  52
ENDBRANCH  30  31
ENDBRANCH  29  30
ENDBRANCH  27  29
BRANCH  27  54
HETATM   54  O   MOL     1      10.614   3.224  21.531  1.00  0.13    -0.260 OA
BRANCH  54  55
HETATM   55  C   MOL     1      11.374   4.058  20.759  1.00 -0.29     0.080 A 
HETATM   56  C   MOL     1      11.344   5.431  20.922  1.00 -0.28     0.037 A 
HETATM   57  C   MOL     1      12.124   6.242  20.132  1.00 -0.40     0.003 A 
HETATM   58  C   MOL     1      12.943   5.690  19.174  1.00 -0.35     0.000 A 
HETATM   59  C   MOL     1      12.979   4.324  19.005  1.00 -0.47     0.003 A 
HETATM   60  C   MOL     1      12.197   3.513  19.792  1.00 -0.37     0.037 A 
ENDBRANCH  54  55
ENDBRANCH  27  54
ENDBRANCH  25  27
ENDBRANCH  17  25
ENDBRANCH  16  17
ENDBRANCH  13  16
ENDBRANCH   8  13
ENDBRANCH   7   8
ENDBRANCH   3   7
TORSDOF 20
ENDMDL
MODEL 5
REMARK VINA RESULT:      -5.8      3.604      8.523
REMARK  20 active torsions:
REMARK  status: ('A' for Active; 'I' for Inactive)
REMARK    1  A    between atoms: C_3  and  C_7 
REMARK    2  A    between atoms: C_7  and  C_8 
REMARK    3  A    between atoms: C_8  and  N_9 
REMARK    4  A    between atoms: C_8  and  C_10 
REMARK    5  A    between atoms: C_10  and  O_11 
REMARK    6  A    between atoms: C_10  and  C_12 
REMARK    7  A    between atoms: C_12  and  C_13 
REMARK    8  A    between atoms: C_13  and  C_14 
REMARK    9  A    between atoms: C_13  and  N_21 
REMARK   10  A    between atoms: C_14  and  C_15 
REMARK   11  A    between atoms: N_21  and  P_22 
REMARK   12  A    between atoms: P_22  and  O_23 
REMARK   13  A    between atoms: P_22  and  O_24 
REMARK   14  A    between atoms: O_23  and  C_26 
REMARK   15  A    between atoms: O_24  and  C_27 
REMARK   16  A    between atoms: C_26  and  C_33 
REMARK   17  A    between atoms: C_35  and  C_40 
REMARK   18  A    between atoms: C_36  and  O_39 
REMARK   19  A    between atoms: C_37  and  O_38 
REMARK   20  A    between atoms: C_50  and  N_51 
ROOT
HETATM    1  C   MOL     1      15.354   3.563  20.636  1.00 -0.25     0.001 A 
HETATM    2  C   MOL     1      15.478   3.688  22.001  1.00 -0.30     0.007 A 
HETATM    3  C   MOL     1      15.450   4.933  22.592  1.00 -0.25    -0.056 A 
HETATM    4  C   MOL     1      15.295   6.053  21.803  1.00 -0.33     0.007 A 
HETATM    5  C   MOL     1      15.171   5.930  20.438  1.00 -0.34     0.001 A 
HETATM    6  C   MOL     1      15.201   4.684  19.855  1.00 -0.27     0.000 A 
ENDROOT
BRANCH   3   7
HETATM    7  C   MOL     1      15.585   5.070  24.101  1.00 -0.43     0.074 C 
BRANCH   7   8
HETATM    8  C   MOL     1      14.663   6.127  24.748  1.00 -0.43     0.216 C 
BRANCH   8   9
HETATM    9  N   MOL     1      15.204   6.487  26.106  1.00  0.05    -0.072 N 
HETATM   10  H   MOL     1      14.547   6.518  26.734  1.00 -0.64     0.274 HD
HETATM   11  H   MOL     1      15.818   5.879  26.394  1.00 -0.76     0.274 HD
HETATM   12  H   MOL     1      15.622   7.293  26.110  1.00 -0.15     0.274 HD
ENDBRANCH   8   9
BRANCH   8  13
HETATM   13  C   MOL     1      13.219   5.580  24.845  1.00 -0.29     0.150 C 
BRANCH  13  14
HETATM   14  O   MOL     1      12.400   6.487  25.606  1.00  0.06    -0.393 OA
HETATM   15  H   MOL     1      12.239   6.139  26.536  1.00 -0.27     0.210 HD
ENDBRANCH  13  14
BRANCH  13  16
HETATM   16  C   MOL     1      13.190   4.188  25.513  1.00 -0.14     0.054 C 
BRANCH  16  17
HETATM   17  C   MOL     1      12.814   3.080  24.505  1.00 -0.12     0.073 C 
BRANCH  17  18
HETATM   18  C   MOL     1      13.300   1.713  25.038  1.00 -0.13     0.058 C 
BRANCH  18  19
HETATM   19  C   MOL     1      14.579   1.181  24.409  1.00 -0.16    -0.057 A 
HETATM   20  C   MOL     1      15.804   1.488  24.961  1.00 -0.21     0.007 A 
HETATM   21  C   MOL     1      16.963   1.009  24.391  1.00 -0.25     0.001 A 
HETATM   22  C   MOL     1      16.901   0.223  23.264  1.00 -0.37     0.000 A 
HETATM   23  C   MOL     1      15.679  -0.087  22.709  1.00 -0.40     0.001 A 
HETATM   24  C   MOL     1      14.522   0.392  23.281  1.00 -0.21     0.007 A 
ENDBRANCH  18  19
ENDBRANCH  17  18
BRANCH  17  25
HETATM   25  N   MOL     1      11.355   3.045  24.330  1.00  0.15    -0.221 NA
HETATM   26  H   MOL     1      10.993   3.997  24.184  1.00  0.32     0.134 HD
BRANCH  25  27
HETATM   27  P   MOL     1      10.889   2.123  23.231  1.00  0.09     0.413 P 
HETATM   28  O   MOL     1       9.441   2.362  22.891  1.00  0.07    -0.239 OA
BRANCH  27  29
HETATM   29  O   MOL     1      11.118   0.582  23.625  1.00  0.12    -0.299 OA
BRANCH  29  30
HETATM   30  C   MOL     1      10.326  -0.424  22.977  1.00 -0.20     0.214 C 
BRANCH  30  31
HETATM   31  C   MOL     1      11.203  -1.643  22.648  1.00 -0.04     0.180 C 
HETATM   32  O   MOL     1      11.982  -1.423  21.459  1.00  0.26    -0.347 OA
HETATM   33  C   MOL     1      12.151  -2.658  20.737  1.00 -0.04     0.222 C 
HETATM   34  C   MOL     1      11.367  -3.730  21.531  1.00 -0.10     0.205 C 
HETATM   35  C   MOL     1      13.582  -2.988  20.715  1.00 -0.21     0.107 C 
HETATM   36  C   MOL     1      10.387  -2.918  22.387  1.00 -0.06     0.182 C 
HETATM   37  N   MOL     1      14.689  -3.243  20.699  1.00  0.07    -0.193 NA
BRANCH  33  38
HETATM   38  C   MOL     1      11.644  -2.370  19.328  1.00 -0.19     0.088 A 
HETATM   39  N   MOL     1      10.723  -1.404  19.101  1.00 -0.03    -0.229 N 
HETATM   40  C   MOL     1      10.505  -1.425  17.759  1.00 -0.22     0.104 A 
HETATM   41  N   MOL     1      10.058  -0.526  19.909  1.00  0.23    -0.160 NA
HETATM   42  C   MOL     1      11.263  -2.375  17.153  1.00 -0.37     0.038 A 
HETATM   43  C   MOL     1       9.569  -0.500  17.229  1.00 -0.44     0.151 A 
HETATM   44  C   MOL     1      11.996  -2.983  18.176  1.00 -0.17     0.034 A 
HETATM   45  N   MOL     1       8.910   0.368  18.008  1.00 -0.19    -0.221 NA
HETATM   46  C   MOL     1       9.205   0.297  19.346  1.00 -0.33     0.258 A 
BRANCH  43  47
HETATM   47  N   MOL     1       9.301  -0.460  15.881  1.00 -0.25    -0.382 N 
HETATM   48  H   MOL     1       9.097   0.306  15.498  1.00 -0.27     0.157 HD
HETATM   49  H   MOL     1       9.334  -1.196  15.398  1.00 -0.19     0.157 HD
ENDBRANCH  43  47
ENDBRANCH  33  38
BRANCH  34  50
HETATM   50  O   MOL     1      10.687  -4.679  20.694  1.00  0.41    -0.388 OA
HETATM   51  H   MOL     1       9.689  -4.598  20.786  1.00 -0.42     0.210 HD
ENDBRANCH  34  50
BRANCH  36  52
HETATM   52  O   MOL     1       9.197  -2.645  21.630  1.00  0.07    -0.390 OA
HETATM   53  H   MOL     1       8.508  -2.172  22.190  1.00 -0.09     0.210 HD
ENDBRANCH  36  52
ENDBRANCH  30  31
ENDBRANCH  29  30
ENDBRANCH  27  29
BRANCH  27  54
HETATM   54  O   MOL     1      11.814   2.305  21.923  1.00  0.13    -0.260 OA
BRANCH  54  55
HETATM   55  C   MOL     1      11.708   3.391  21.099  1.00 -0.29     0.080 A 
HETATM   56  C   MOL     1      11.686   3.263  19.723  1.00 -0.28     0.037 A 
HETATM   57  C   MOL     1      11.574   4.376  18.922  1.00 -0.40     0.003 A 
HETATM   58  C   MOL     1      11.482   5.626  19.489  1.00 -0.35     0.000 A 
HETATM   59  C   MOL     1      11.505   5.763  20.859  1.00 -0.47     0.003 A 
HETATM   60  C   MOL     1      11.619   4.651  21.659  1.00 -0.37     0.037 A 
ENDBRANCH  54  55
ENDBRANCH  27  54
ENDBRANCH  25  27
ENDBRANCH  17  25
ENDBRANCH  16  17
ENDBRANCH  13  16
ENDBRANCH   8  13
ENDBRANCH   7   8
ENDBRANCH   3   7
TORSDOF 20
ENDMDL
MODEL 6
REMARK VINA RESULT:      -5.8      3.271      8.633
REMARK  20 active torsions:
REMARK  status: ('A' for Active; 'I' for Inactive)
REMARK    1  A    between atoms: C_3  and  C_7 
REMARK    2  A    between atoms: C_7  and  C_8 
REMARK    3  A    between atoms: C_8  and  N_9 
REMARK    4  A    between atoms: C_8  and  C_10 
REMARK    5  A    between atoms: C_10  and  O_11 
REMARK    6  A    between atoms: C_10  and  C_12 
REMARK    7  A    between atoms: C_12  and  C_13 
REMARK    8  A    between atoms: C_13  and  C_14 
REMARK    9  A    between atoms: C_13  and  N_21 
REMARK   10  A    between atoms: C_14  and  C_15 
REMARK   11  A    between atoms: N_21  and  P_22 
REMARK   12  A    between atoms: P_22  and  O_23 
REMARK   13  A    between atoms: P_22  and  O_24 
REMARK   14  A    between atoms: O_23  and  C_26 
REMARK   15  A    between atoms: O_24  and  C_27 
REMARK   16  A    between atoms: C_26  and  C_33 
REMARK   17  A    between atoms: C_35  and  C_40 
REMARK   18  A    between atoms: C_36  and  O_39 
REMARK   19  A    between atoms: C_37  and  O_38 
REMARK   20  A    between atoms: C_50  and  N_51 
ROOT
HETATM    1  C   MOL     1      14.416   4.785  23.728  1.00 -0.25     0.001 A 
HETATM    2  C   MOL     1      15.033   3.976  24.656  1.00 -0.30     0.007 A 
HETATM    3  C   MOL     1      14.472   3.791  25.901  1.00 -0.25    -0.056 A 
HETATM    4  C   MOL     1      13.286   4.423  26.211  1.00 -0.33     0.007 A 
HETATM    5  C   MOL     1      12.669   5.233  25.285  1.00 -0.34     0.001 A 
HETATM    6  C   MOL     1      13.234   5.413  24.043  1.00 -0.27     0.000 A 
ENDROOT
BRANCH   3   7
HETATM    7  C   MOL     1      15.154   2.895  26.924  1.00 -0.43     0.074 C 
BRANCH   7   8
HETATM    8  C   MOL     1      15.222   1.399  26.542  1.00 -0.43     0.216 C 
BRANCH   8   9
HETATM    9  N   MOL     1      16.376   1.184  25.600  1.00  0.05    -0.072 N 
HETATM   10  H   MOL     1      16.919   1.913  25.558  1.00 -0.64     0.274 HD
HETATM   11  H   MOL     1      16.895   0.483  25.860  1.00 -0.76     0.274 HD
HETATM   12  H   MOL     1      16.103   1.000  24.754  1.00 -0.15     0.274 HD
ENDBRANCH   8   9
BRANCH   8  13
HETATM   13  C   MOL     1      13.885   0.956  25.903  1.00 -0.29     0.150 C 
BRANCH  13  14
HETATM   14  O   MOL     1      13.152   0.126  26.822  1.00  0.06    -0.393 OA
HETATM   15  H   MOL     1      13.623   0.060  27.708  1.00 -0.27     0.210 HD
ENDBRANCH  13  14
BRANCH  13  16
HETATM   16  C   MOL     1      14.122   0.175  24.592  1.00 -0.14     0.054 C 
BRANCH  16  17
HETATM   17  C   MOL     1      12.877   0.202  23.679  1.00 -0.12     0.073 C 
BRANCH  17  18
HETATM   18  C   MOL     1      13.324   0.303  22.203  1.00 -0.13     0.058 C 
BRANCH  18  19
HETATM   19  C   MOL     1      12.784   1.499  21.434  1.00 -0.16    -0.057 A 
HETATM   20  C   MOL     1      13.050   1.638  20.089  1.00 -0.21     0.007 A 
HETATM   21  C   MOL     1      12.565   2.722  19.392  1.00 -0.25     0.001 A 
HETATM   22  C   MOL     1      11.810   3.673  20.038  1.00 -0.37     0.000 A 
HETATM   23  C   MOL     1      11.541   3.539  21.382  1.00 -0.40     0.001 A 
HETATM   24  C   MOL     1      12.026   2.454  22.076  1.00 -0.21     0.007 A 
ENDBRANCH  18  19
ENDBRANCH  17  18
BRANCH  17  25
HETATM   25  N   MOL     1      12.096  -1.028  23.871  1.00  0.15    -0.221 NA
HETATM   26  H   MOL     1      12.553  -1.633  24.565  1.00  0.32     0.134 HD
BRANCH  25  27
HETATM   27  P   MOL     1      10.653  -0.789  24.239  1.00  0.09     0.413 P 
HETATM   28  O   MOL     1      10.376   0.675  24.454  1.00  0.07    -0.239 OA
BRANCH  27  29
HETATM   29  O   MOL     1      10.237  -1.629  25.545  1.00  0.12    -0.299 OA
BRANCH  29  30
HETATM   30  C   MOL     1       8.859  -1.989  25.728  1.00 -0.20     0.214 C 
BRANCH  30  31
HETATM   31  C   MOL     1       8.747  -3.501  25.983  1.00 -0.04     0.180 C 
HETATM   32  O   MOL     1      10.006  -4.163  25.771  1.00  0.26    -0.347 OA
HETATM   33  C   MOL     1       9.791  -5.487  25.245  1.00 -0.04     0.222 C 
HETATM   34  C   MOL     1       8.261  -5.638  25.077  1.00 -0.10     0.205 C 
HETATM   35  C   MOL     1      10.293  -6.459  26.224  1.00 -0.21     0.107 C 
HETATM   36  C   MOL     1       7.743  -4.194  25.051  1.00 -0.06     0.182 C 
HETATM   37  N   MOL     1      10.680  -7.212  26.983  1.00  0.07    -0.193 NA
BRANCH  33  38
HETATM   38  C   MOL     1      10.612  -5.545  23.961  1.00 -0.19     0.088 A 
HETATM   39  N   MOL     1      10.854  -6.725  23.341  1.00 -0.03    -0.229 N 
HETATM   40  C   MOL     1      11.603  -6.409  22.252  1.00 -0.22     0.104 A 
HETATM   41  N   MOL     1      10.511  -8.020  23.609  1.00  0.23    -0.160 NA
HETATM   42  C   MOL     1      11.830  -5.072  22.182  1.00 -0.37     0.038 A 
HETATM   43  C   MOL     1      12.009  -7.470  21.401  1.00 -0.44     0.151 A 
HETATM   44  C   MOL     1      11.187  -4.521  23.294  1.00 -0.17     0.034 A 
HETATM   45  N   MOL     1      11.680  -8.745  21.651  1.00 -0.19    -0.221 NA
HETATM   46  C   MOL     1      10.926  -8.946  22.779  1.00 -0.33     0.258 A 
BRANCH  43  47
HETATM   47  N   MOL     1      12.765  -7.226  20.279  1.00 -0.25    -0.382 N 
HETATM   48  H   MOL     1      12.467  -6.670  19.664  1.00 -0.27     0.157 HD
HETATM   49  H   MOL     1      13.545  -7.621  20.171  1.00 -0.19     0.157 HD
ENDBRANCH  43  47
ENDBRANCH  33  38
BRANCH  34  50
HETATM   50  O   MOL     1       7.884  -6.363  23.895  1.00  0.41    -0.388 OA
HETATM   51  H   MOL     1       6.887  -6.481  23.841  1.00 -0.42     0.210 HD
ENDBRANCH  34  50
BRANCH  36  52
HETATM   52  O   MOL     1       7.814  -3.681  23.712  1.00  0.07    -0.390 OA
HETATM   53  H   MOL     1       8.118  -2.721  23.704  1.00 -0.09     0.210 HD
ENDBRANCH  36  52
ENDBRANCH  30  31
ENDBRANCH  29  30
ENDBRANCH  27  29
BRANCH  27  54
HETATM   54  O   MOL     1       9.682  -1.387  23.098  1.00  0.13    -0.260 OA
BRANCH  54  55
HETATM   55  C   MOL     1       9.811  -1.050  21.780  1.00 -0.29     0.080 A 
HETATM   56  C   MOL     1       9.428   0.190  21.303  1.00 -0.28     0.037 A 
HETATM   57  C   MOL     1       9.575   0.500  19.971  1.00 -0.40     0.003 A 
HETATM   58  C   MOL     1      10.108  -0.425  19.104  1.00 -0.35     0.000 A 
HETATM   59  C   MOL     1      10.493  -1.662  19.570  1.00 -0.47     0.003 A 
HETATM   60  C   MOL     1      10.343  -1.973  20.900  1.00 -0.37     0.037 A 
ENDBRANCH  54  55
ENDBRANCH  27  54
ENDBRANCH  25  27
ENDBRANCH  17  25
ENDBRANCH  16  17
ENDBRANCH  13  16
ENDBRANCH   8  13
ENDBRANCH   7   8
ENDBRANCH   3   7
TORSDOF 20
ENDMDL
MODEL 7
REMARK VINA RESULT:      -5.8      3.763      6.718
REMARK  20 active torsions:
REMARK  status: ('A' for Active; 'I' for Inactive)
REMARK    1  A    between atoms: C_3  and  C_7 
REMARK    2  A    between atoms: C_7  and  C_8 
REMARK    3  A    between atoms: C_8  and  N_9 
REMARK    4  A    between atoms: C_8  and  C_10 
REMARK    5  A    between atoms: C_10  and  O_11 
REMARK    6  A    between atoms: C_10  and  C_12 
REMARK    7  A    between atoms: C_12  and  C_13 
REMARK    8  A    between atoms: C_13  and  C_14 
REMARK    9  A    between atoms: C_13  and  N_21 
REMARK   10  A    between atoms: C_14  and  C_15 
REMARK   11  A    between atoms: N_21  and  P_22 
REMARK   12  A    between atoms: P_22  and  O_23 
REMARK   13  A    between atoms: P_22  and  O_24 
REMARK   14  A    between atoms: O_23  and  C_26 
REMARK   15  A    between atoms: O_24  and  C_27 
REMARK   16  A    between atoms: C_26  and  C_33 
REMARK   17  A    between atoms: C_35  and  C_40 
REMARK   18  A    between atoms: C_36  and  O_39 
REMARK   19  A    between atoms: C_37  and  O_38 
REMARK   20  A    between atoms: C_50  and  N_51 
ROOT
HETATM    1  C   MOL     1      12.903  -7.770  21.358  1.00 -0.25     0.001 A 
HETATM    2  C   MOL     1      12.242  -7.720  22.564  1.00 -0.30     0.007 A 
HETATM    3  C   MOL     1      10.880  -7.517  22.604  1.00 -0.25    -0.056 A 
HETATM    4  C   MOL     1      10.184  -7.363  21.424  1.00 -0.33     0.007 A 
HETATM    5  C   MOL     1      10.844  -7.411  20.217  1.00 -0.34     0.001 A 
HETATM    6  C   MOL     1      12.204  -7.615  20.184  1.00 -0.27     0.000 A 
ENDROOT
BRANCH   3   7
HETATM    7  C   MOL     1      10.150  -7.465  23.938  1.00 -0.43     0.074 C 
BRANCH   7   8
HETATM    8  C   MOL     1       9.694  -6.057  24.381  1.00 -0.43     0.216 C 
BRANCH   8   9
HETATM    9  N   MOL     1       8.265  -5.847  23.956  1.00  0.05    -0.072 N 
HETATM   10  H   MOL     1       7.813  -5.316  24.540  1.00 -0.64     0.274 HD
HETATM   11  H   MOL     1       8.213  -5.447  23.140  1.00 -0.76     0.274 HD
HETATM   12  H   MOL     1       7.806  -6.627  23.887  1.00 -0.15     0.274 HD
ENDBRANCH   8   9
BRANCH   8  13
HETATM   13  C   MOL     1      10.625  -4.984  23.770  1.00 -0.29     0.150 C 
BRANCH  13  14
HETATM   14  O   MOL     1      11.739  -4.742  24.648  1.00  0.06    -0.393 OA
HETATM   15  H   MOL     1      12.374  -5.522  24.655  1.00 -0.27     0.210 HD
ENDBRANCH  13  14
BRANCH  13  16
HETATM   16  C   MOL     1       9.871  -3.658  23.530  1.00 -0.14     0.054 C 
BRANCH  16  17
HETATM   17  C   MOL     1      10.539  -2.815  22.421  1.00 -0.12     0.073 C 
BRANCH  17  18
HETATM   18  C   MOL     1      10.391  -3.539  21.064  1.00 -0.13     0.058 C 
BRANCH  18  19
HETATM   19  C   MOL     1      11.694  -3.886  20.360  1.00 -0.16    -0.057 A 
HETATM   20  C   MOL     1      11.711  -4.113  19.001  1.00 -0.21     0.007 A 
HETATM   21  C   MOL     1      12.889  -4.430  18.363  1.00 -0.25     0.001 A 
HETATM   22  C   MOL     1      14.057  -4.524  19.083  1.00 -0.37     0.000 A 
HETATM   23  C   MOL     1      14.046  -4.300  20.441  1.00 -0.40     0.001 A 
HETATM   24  C   MOL     1      12.867  -3.981  21.077  1.00 -0.21     0.007 A 
ENDBRANCH  18  19
ENDBRANCH  17  18
BRANCH  17  25
HETATM   25  N   MOL     1       9.892  -1.497  22.345  1.00  0.15    -0.221 NA
HETATM   26  H   MOL     1       9.254  -1.369  23.141  1.00  0.32     0.134 HD
BRANCH  25  27
HETATM   27  P   MOL     1      10.858  -0.343  22.246  1.00  0.09     0.413 P 
HETATM   28  O   MOL     1      12.286  -0.821  22.228  1.00  0.07    -0.239 OA
BRANCH  27  29
HETATM   29  O   MOL     1      10.641   0.706  23.444  1.00  0.12    -0.299 OA
BRANCH  29  30
HETATM   30  C   MOL     1      10.573   2.106  23.136  1.00 -0.20     0.214 C 
BRANCH  30  31
HETATM   31  C   MOL     1      11.732   2.846  23.823  1.00 -0.04     0.180 C 
HETATM   32  O   MOL     1      11.750   4.239  23.468  1.00  0.26    -0.347 OA
HETATM   33  C   MOL     1      13.105   4.723  23.412  1.00 -0.04     0.222 C 
HETATM   34  C   MOL     1      14.008   3.505  23.721  1.00 -0.10     0.205 C 
HETATM   35  C   MOL     1      13.271   5.752  24.447  1.00 -0.21     0.107 C 
HETATM   36  C   MOL     1      13.111   2.294  23.436  1.00 -0.06     0.182 C 
HETATM   37  N   MOL     1      13.399   6.548  25.249  1.00  0.07    -0.193 NA
BRANCH  33  38
HETATM   38  C   MOL     1      13.257   5.330  22.022  1.00 -0.19     0.088 A 
HETATM   39  N   MOL     1      14.404   5.949  21.652  1.00 -0.03    -0.229 N 
HETATM   40  C   MOL     1      14.190   6.364  20.376  1.00 -0.22     0.104 A 
HETATM   41  N   MOL     1      15.590   6.193  22.284  1.00  0.23    -0.160 NA
HETATM   42  C   MOL     1      12.948   6.022  19.949  1.00 -0.37     0.038 A 
HETATM   43  C   MOL     1      15.244   7.055  19.723  1.00 -0.44     0.151 A 
HETATM   44  C   MOL     1      12.350   5.355  21.021  1.00 -0.17     0.034 A 
HETATM   45  N   MOL     1      16.413   7.302  20.329  1.00 -0.19    -0.221 NA
HETATM   46  C   MOL     1      16.516   6.840  21.617  1.00 -0.33     0.258 A 
BRANCH  43  47
HETATM   47  N   MOL     1      15.102   7.501  18.430  1.00 -0.25    -0.382 N 
HETATM   48  H   MOL     1      14.701   8.270  18.274  1.00 -0.27     0.157 HD
HETATM   49  H   MOL     1      15.410   7.024  17.757  1.00 -0.19     0.157 HD
ENDBRANCH  43  47
ENDBRANCH  33  38
BRANCH  34  50
HETATM   50  O   MOL     1      15.213   3.474  22.939  1.00  0.41    -0.388 OA
HETATM   51  H   MOL     1      15.607   2.549  22.911  1.00 -0.42     0.210 HD
ENDBRANCH  34  50
BRANCH  36  52
HETATM   52  O   MOL     1      13.180   1.960  22.041  1.00  0.07    -0.390 OA
HETATM   53  H   MOL     1      12.289   2.083  21.591  1.00 -0.09     0.210 HD
ENDBRANCH  36  52
ENDBRANCH  30  31
ENDBRANCH  29  30
ENDBRANCH  27  29
BRANCH  27  54
HETATM   54  O   MOL     1      10.540   0.536  20.931  1.00  0.13    -0.260 OA
BRANCH  54  55
HETATM   55  C   MOL     1      10.450  -0.020  19.686  1.00 -0.29     0.080 A 
HETATM   56  C   MOL     1      11.575  -0.369  18.960  1.00 -0.28     0.037 A 
HETATM   57  C   MOL     1      11.450  -0.930  17.711  1.00 -0.40     0.003 A 
HETATM   58  C   MOL     1      10.201  -1.150  17.176  1.00 -0.35     0.000 A 
HETATM   59  C   MOL     1       9.077  -0.806  17.891  1.00 -0.47     0.003 A 
HETATM   60  C   MOL     1       9.201  -0.242  19.138  1.00 -0.37     0.037 A 
ENDBRANCH  54  55
ENDBRANCH  27  54
ENDBRANCH  25  27
ENDBRANCH  17  25
ENDBRANCH  16  17
ENDBRANCH  13  16
ENDBRANCH   8  13
ENDBRANCH   7   8
ENDBRANCH   3   7
TORSDOF 20
ENDMDL
MODEL 8
REMARK VINA RESULT:      -5.7      3.806      8.962
REMARK  20 active torsions:
REMARK  status: ('A' for Active; 'I' for Inactive)
REMARK    1  A    between atoms: C_3  and  C_7 
REMARK    2  A    between atoms: C_7  and  C_8 
REMARK    3  A    between atoms: C_8  and  N_9 
REMARK    4  A    between atoms: C_8  and  C_10 
REMARK    5  A    between atoms: C_10  and  O_11 
REMARK    6  A    between atoms: C_10  and  C_12 
REMARK    7  A    between atoms: C_12  and  C_13 
REMARK    8  A    between atoms: C_13  and  C_14 
REMARK    9  A    between atoms: C_13  and  N_21 
REMARK   10  A    between atoms: C_14  and  C_15 
REMARK   11  A    between atoms: N_21  and  P_22 
REMARK   12  A    between atoms: P_22  and  O_23 
REMARK   13  A    between atoms: P_22  and  O_24 
REMARK   14  A    between atoms: O_23  and  C_26 
REMARK   15  A    between atoms: O_24  and  C_27 
REMARK   16  A    between atoms: C_26  and  C_33 
REMARK   17  A    between atoms: C_35  and  C_40 
REMARK   18  A    between atoms: C_36  and  O_39 
REMARK   19  A    between atoms: C_37  and  O_38 
REMARK   20  A    between atoms: C_50  and  N_51 
ROOT
HETATM    1  C   MOL     1      16.890   4.416  23.302  1.00 -0.25     0.001 A 
HETATM    2  C   MOL     1      16.480   3.551  22.312  1.00 -0.30     0.007 A 
HETATM    3  C   MOL     1      15.696   4.003  21.274  1.00 -0.25    -0.056 A 
HETATM    4  C   MOL     1      15.325   5.330  21.234  1.00 -0.33     0.007 A 
HETATM    5  C   MOL     1      15.732   6.196  22.223  1.00 -0.34     0.001 A 
HETATM    6  C   MOL     1      16.515   5.738  23.258  1.00 -0.27     0.000 A 
ENDROOT
BRANCH   3   7
HETATM    7  C   MOL     1      15.246   3.047  20.179  1.00 -0.43     0.074 C 
BRANCH   7   8
HETATM    8  C   MOL     1      13.811   2.499  20.338  1.00 -0.43     0.216 C 
BRANCH   8   9
HETATM    9  N   MOL     1      13.830   1.006  20.145  1.00  0.05    -0.072 N 
HETATM   10  H   MOL     1      14.157   0.575  20.876  1.00 -0.64     0.274 HD
HETATM   11  H   MOL     1      12.995   0.676  19.994  1.00 -0.76     0.274 HD
HETATM   12  H   MOL     1      14.336   0.755  19.434  1.00 -0.15     0.274 HD
ENDBRANCH   8   9
BRANCH   8  13
HETATM   13  C   MOL     1      12.868   3.184  19.321  1.00 -0.29     0.150 C 
BRANCH  13  14
HETATM   14  O   MOL     1      13.587   4.188  18.583  1.00  0.06    -0.393 OA
HETATM   15  H   MOL     1      12.957   4.819  18.118  1.00 -0.27     0.210 HD
ENDBRANCH  13  14
BRANCH  13  16
HETATM   16  C   MOL     1      11.662   3.839  20.029  1.00 -0.14     0.054 C 
BRANCH  16  17
HETATM   17  C   MOL     1      11.600   3.456  21.524  1.00 -0.12     0.073 C 
BRANCH  17  18
HETATM   18  C   MOL     1      11.678   4.736  22.387  1.00 -0.13     0.058 C 
BRANCH  18  19
HETATM   19  C   MOL     1      12.553   4.640  23.627  1.00 -0.16    -0.057 A 
HETATM   20  C   MOL     1      12.773   5.752  24.411  1.00 -0.21     0.007 A 
HETATM   21  C   MOL     1      13.568   5.667  25.532  1.00 -0.25     0.001 A 
HETATM   22  C   MOL     1      14.148   4.468  25.874  1.00 -0.37     0.000 A 
HETATM   23  C   MOL     1      13.932   3.353  25.094  1.00 -0.40     0.001 A 
HETATM   24  C   MOL     1      13.136   3.441  23.974  1.00 -0.21     0.007 A 
ENDBRANCH  18  19
ENDBRANCH  17  18
BRANCH  17  25
HETATM   25  N   MOL     1      10.340   2.755  21.803  1.00  0.15    -0.221 NA
HETATM   26  H   MOL     1       9.610   3.062  21.146  1.00  0.32     0.134 HD
BRANCH  25  27
HETATM   27  P   MOL     1      10.459   1.251  21.801  1.00  0.09     0.413 P 
HETATM   28  O   MOL     1      11.559   0.786  22.719  1.00  0.07    -0.239 OA
BRANCH  27  29
HETATM   29  O   MOL     1      10.703   0.686  20.316  1.00  0.12    -0.299 OA
BRANCH  29  30
HETATM   30  C   MOL     1       9.617   0.043  19.632  1.00 -0.20     0.214 C 
BRANCH  30  31
HETATM   31  C   MOL     1      10.036  -1.375  19.209  1.00 -0.04     0.180 C 
HETATM   32  O   MOL     1      10.627  -2.096  20.304  1.00  0.26    -0.347 OA
HETATM   33  C   MOL     1      11.655  -2.982  19.821  1.00 -0.04     0.222 C 
HETATM   34  C   MOL     1      11.734  -2.754  18.293  1.00 -0.10     0.205 C 
HETATM   35  C   MOL     1      11.246  -4.363  20.108  1.00 -0.21     0.107 C 
HETATM   36  C   MOL     1      11.083  -1.381  18.086  1.00 -0.06     0.182 C 
HETATM   37  N   MOL     1      10.928  -5.432  20.329  1.00  0.07    -0.193 NA
BRANCH  33  38
HETATM   38  C   MOL     1      12.904  -2.616  20.615  1.00 -0.19     0.088 A 
HETATM   39  N   MOL     1      12.861  -2.484  21.962  1.00 -0.03    -0.229 N 
HETATM   40  C   MOL     1      14.128  -2.156  22.330  1.00 -0.22     0.104 A 
HETATM   41  N   MOL     1      11.867  -2.609  22.891  1.00  0.23    -0.160 NA
HETATM   42  C   MOL     1      14.949  -2.080  21.251  1.00 -0.37     0.038 A 
HETATM   43  C   MOL     1      14.382  -1.953  23.711  1.00 -0.44     0.151 A 
HETATM   44  C   MOL     1      14.148  -2.378  20.145  1.00 -0.17     0.034 A 
HETATM   45  N   MOL     1      13.418  -2.072  24.635  1.00 -0.19    -0.221 NA
HETATM   46  C   MOL     1      12.178  -2.403  24.149  1.00 -0.33     0.258 A 
BRANCH  43  47
HETATM   47  N   MOL     1      15.640  -1.623  24.158  1.00 -0.25    -0.382 N 
HETATM   48  H   MOL     1      15.746  -1.316  24.976  1.00 -0.27     0.157 HD
HETATM   49  H   MOL     1      16.339  -1.719  23.631  1.00 -0.19     0.157 HD
ENDBRANCH  43  47
ENDBRANCH  33  38
BRANCH  34  50
HETATM   50  O   MOL     1      13.074  -2.794  17.777  1.00  0.41    -0.388 OA
HETATM   51  H   MOL     1      13.107  -2.489  16.819  1.00 -0.42     0.210 HD
ENDBRANCH  34  50
BRANCH  36  52
HETATM   52  O   MOL     1      12.065  -0.349  18.265  1.00  0.07    -0.390 OA
HETATM   53  H   MOL     1      12.113  -0.053  19.226  1.00 -0.09     0.210 HD
ENDBRANCH  36  52
ENDBRANCH  30  31
ENDBRANCH  29  30
ENDBRANCH  27  29
BRANCH  27  54
HETATM   54  O   MOL     1       9.053   0.580  22.219  1.00  0.13    -0.260 OA
BRANCH  54  55
HETATM   55  C   MOL     1       8.650   0.483  23.521  1.00 -0.29     0.080 A 
HETATM   56  C   MOL     1       8.883  -0.654  24.274  1.00 -0.28     0.037 A 
HETATM   57  C   MOL     1       8.469  -0.720  25.583  1.00 -0.40     0.003 A 
HETATM   58  C   MOL     1       7.819   0.351  26.154  1.00 -0.35     0.000 A 
HETATM   59  C   MOL     1       7.583   1.486  25.413  1.00 -0.47     0.003 A 
HETATM   60  C   MOL     1       7.995   1.550  24.103  1.00 -0.37     0.037 A 
ENDBRANCH  54  55
ENDBRANCH  27  54
ENDBRANCH  25  27
ENDBRANCH  17  25
ENDBRANCH  16  17
ENDBRANCH  13  16
ENDBRANCH   8  13
ENDBRANCH   7   8
ENDBRANCH   3   7
TORSDOF 20
ENDMDL
MODEL 9
REMARK VINA RESULT:      -5.7      4.827     10.116
REMARK  20 active torsions:
REMARK  status: ('A' for Active; 'I' for Inactive)
REMARK    1  A    between atoms: C_3  and  C_7 
REMARK    2  A    between atoms: C_7  and  C_8 
REMARK    3  A    between atoms: C_8  and  N_9 
REMARK    4  A    between atoms: C_8  and  C_10 
REMARK    5  A    between atoms: C_10  and  O_11 
REMARK    6  A    between atoms: C_10  and  C_12 
REMARK    7  A    between atoms: C_12  and  C_13 
REMARK    8  A    between atoms: C_13  and  C_14 
REMARK    9  A    between atoms: C_13  and  N_21 
REMARK   10  A    between atoms: C_14  and  C_15 
REMARK   11  A    between atoms: N_21  and  P_22 
REMARK   12  A    between atoms: P_22  and  O_23 
REMARK   13  A    between atoms: P_22  and  O_24 
REMARK   14  A    between atoms: O_23  and  C_26 
REMARK   15  A    between atoms: O_24  and  C_27 
REMARK   16  A    between atoms: C_26  and  C_33 
REMARK   17  A    between atoms: C_35  and  C_40 
REMARK   18  A    between atoms: C_36  and  O_39 
REMARK   19  A    between atoms: C_37  and  O_38 
REMARK   20  A    between atoms: C_50  and  N_51 
ROOT
HETATM    1  C   MOL     1      20.293   3.374  24.750  1.00 -0.25     0.001 A 
HETATM    2  C   MOL     1      19.046   2.813  24.910  1.00 -0.30     0.007 A 
HETATM    3  C   MOL     1      18.066   3.484  25.609  1.00 -0.25    -0.056 A 
HETATM    4  C   MOL     1      18.344   4.722  26.147  1.00 -0.33     0.007 A 
HETATM    5  C   MOL     1      19.591   5.283  25.990  1.00 -0.34     0.001 A 
HETATM    6  C   MOL     1      20.566   4.608  25.291  1.00 -0.27     0.000 A 
ENDROOT
BRANCH   3   7
HETATM    7  C   MOL     1      16.686   2.864  25.781  1.00 -0.43     0.074 C 
BRANCH   7   8
HETATM    8  C   MOL     1      15.665   3.741  26.540  1.00 -0.43     0.216 C 
BRANCH   8   9
HETATM    9  N   MOL     1      15.125   2.965  27.711  1.00  0.05    -0.072 N 
HETATM   10  H   MOL     1      14.217   3.000  27.750  1.00 -0.64     0.274 HD
HETATM   11  H   MOL     1      15.355   2.085  27.666  1.00 -0.76     0.274 HD
HETATM   12  H   MOL     1      15.443   3.270  28.505  1.00 -0.15     0.274 HD
ENDBRANCH   8   9
BRANCH   8  13
HETATM   13  C   MOL     1      14.531   4.179  25.585  1.00 -0.29     0.150 C 
BRANCH  13  14
HETATM   14  O   MOL     1      13.273   4.181  26.283  1.00  0.06    -0.393 OA
HETATM   15  H   MOL     1      12.917   3.247  26.394  1.00 -0.27     0.210 HD
ENDBRANCH  13  14
BRANCH  13  16
HETATM   16  C   MOL     1      14.432   3.238  24.364  1.00 -0.14     0.054 C 
BRANCH  16  17
HETATM   17  C   MOL     1      14.526   4.018  23.034  1.00 -0.12     0.073 C 
BRANCH  17  18
HETATM   18  C   MOL     1      15.874   3.704  22.347  1.00 -0.13     0.058 C 
BRANCH  18  19
HETATM   19  C   MOL     1      16.932   4.792  22.449  1.00 -0.16    -0.057 A 
HETATM   20  C   MOL     1      18.157   4.629  21.840  1.00 -0.21     0.007 A 
HETATM   21  C   MOL     1      19.117   5.612  21.934  1.00 -0.25     0.001 A 
HETATM   22  C   MOL     1      18.856   6.762  22.641  1.00 -0.37     0.000 A 
HETATM   23  C   MOL     1      17.634   6.930  23.252  1.00 -0.40     0.001 A 
HETATM   24  C   MOL     1      16.675   5.947  23.155  1.00 -0.21     0.007 A 
ENDBRANCH  18  19
ENDBRANCH  17  18
BRANCH  17  25
HETATM   25  N   MOL     1      13.422   3.621  22.149  1.00  0.15    -0.221 NA
HETATM   26  H   MOL     1      13.012   2.734  22.469  1.00  0.32     0.134 HD
BRANCH  25  27
HETATM   27  P   MOL     1      12.353   4.674  21.989  1.00  0.09     0.413 P 
HETATM   28  O   MOL     1      12.359   5.643  23.141  1.00  0.07    -0.239 OA
BRANCH  27  29
HETATM   29  O   MOL     1      10.897   4.010  21.831  1.00  0.12    -0.299 OA
BRANCH  29  30
HETATM   30  C   MOL     1      10.760   2.592  22.002  1.00 -0.20     0.214 C 
BRANCH  30  31
HETATM   31  C   MOL     1      10.735   1.903  20.628  1.00 -0.04     0.180 C 
HETATM   32  O   MOL     1       9.815   0.798  20.612  1.00  0.26    -0.347 OA
HETATM   33  C   MOL     1      10.305  -0.247  19.751  1.00 -0.04     0.222 C 
HETATM   34  C   MOL     1      11.673   0.241  19.220  1.00 -0.10     0.205 C 
HETATM   35  C   MOL     1       9.359  -0.411  18.640  1.00 -0.21     0.107 C 
HETATM   36  C   MOL     1      12.097   1.324  20.221  1.00 -0.06     0.182 C 
HETATM   37  N   MOL     1       8.627  -0.537  17.779  1.00  0.07    -0.193 NA
BRANCH  33  38
HETATM   38  C   MOL     1      10.336  -1.501  20.619  1.00 -0.19     0.088 A 
HETATM   39  N   MOL     1      10.783  -2.680  20.126  1.00 -0.03    -0.229 N 
HETATM   40  C   MOL     1      10.668  -3.563  21.153  1.00 -0.22     0.104 A 
HETATM   41  N   MOL     1      11.266  -3.072  18.910  1.00  0.23    -0.160 NA
HETATM   42  C   MOL     1      10.163  -2.965  22.262  1.00 -0.37     0.038 A 
HETATM   43  C   MOL     1      11.073  -4.903  20.918  1.00 -0.44     0.151 A 
HETATM   44  C   MOL     1       9.949  -1.630  21.907  1.00 -0.17     0.034 A 
HETATM   45  N   MOL     1      11.548  -5.303  19.731  1.00 -0.19    -0.221 NA
HETATM   46  C   MOL     1      11.616  -4.328  18.768  1.00 -0.33     0.258 A 
BRANCH  43  47
HETATM   47  N   MOL     1      10.989  -5.851  21.911  1.00 -0.25    -0.382 N 
HETATM   48  H   MOL     1      11.407  -6.620  21.817  1.00 -0.27     0.157 HD
HETATM   49  H   MOL     1      10.522  -5.692  22.640  1.00 -0.19     0.157 HD
ENDBRANCH  43  47
ENDBRANCH  33  38
BRANCH  34  50
HETATM   50  O   MOL     1      12.653  -0.804  19.117  1.00  0.41    -0.388 OA
HETATM   51  H   MOL     1      13.512  -0.463  18.720  1.00 -0.42     0.210 HD
ENDBRANCH  34  50
BRANCH  36  52
HETATM   52  O   MOL     1      12.773   0.716  21.332  1.00  0.07    -0.390 OA
HETATM   53  H   MOL     1      13.008   1.398  22.034  1.00 -0.09     0.210 HD
ENDBRANCH  36  52
ENDBRANCH  30  31
ENDBRANCH  29  30
ENDBRANCH  27  29
BRANCH  27  54
HETATM   54  O   MOL     1      12.548   5.456  20.591  1.00  0.13    -0.260 OA
BRANCH  54  55
HETATM   55  C   MOL     1      13.782   5.682  20.048  1.00 -0.29     0.080 A 
HETATM   56  C   MOL     1      14.360   4.796  19.158  1.00 -0.28     0.037 A 
HETATM   57  C   MOL     1      15.602   5.054  18.626  1.00 -0.40     0.003 A 
HETATM   58  C   MOL     1      16.277   6.201  18.977  1.00 -0.35     0.000 A 
HETATM   59  C   MOL     1      15.709   7.088  19.863  1.00 -0.47     0.003 A 
HETATM   60  C   MOL     1      14.469   6.829  20.397  1.00 -0.37     0.037 A 
ENDBRANCH  54  55
ENDBRANCH  27  54
ENDBRANCH  25  27
ENDBRANCH  17  25
ENDBRANCH  16  17
ENDBRANCH  13  16
ENDBRANCH   8  13
ENDBRANCH   7   8
ENDBRANCH   3   7
TORSDOF 20
ENDMDL
MODEL 10
REMARK VINA RESULT:      -5.5     17.104     21.285
REMARK  20 active torsions:
REMARK  status: ('A' for Active; 'I' for Inactive)
REMARK    1  A    between atoms: C_3  and  C_7 
REMARK    2  A    between atoms: C_7  and  C_8 
REMARK    3  A    between atoms: C_8  and  N_9 
REMARK    4  A    between atoms: C_8  and  C_10 
REMARK    5  A    between atoms: C_10  and  O_11 
REMARK    6  A    between atoms: C_10  and  C_12 
REMARK    7  A    between atoms: C_12  and  C_13 
REMARK    8  A    between atoms: C_13  and  C_14 
REMARK    9  A    between atoms: C_13  and  N_21 
REMARK   10  A    between atoms: C_14  and  C_15 
REMARK   11  A    between atoms: N_21  and  P_22 
REMARK   12  A    between atoms: P_22  and  O_23 
REMARK   13  A    between atoms: P_22  and  O_24 
REMARK   14  A    between atoms: O_23  and  C_26 
REMARK   15  A    between atoms: O_24  and  C_27 
REMARK   16  A    between atoms: C_26  and  C_33 
REMARK   17  A    between atoms: C_35  and  C_40 
REMARK   18  A    between atoms: C_36  and  O_39 
REMARK   19  A    between atoms: C_37  and  O_38 
REMARK   20  A    between atoms: C_50  and  N_51 
ROOT
HETATM    1  C   MOL     1      -1.867   0.517  32.461  1.00 -0.25     0.001 A 
HETATM    2  C   MOL     1      -2.589   0.229  31.325  1.00 -0.30     0.007 A 
HETATM    3  C   MOL     1      -2.271   0.830  30.127  1.00 -0.25    -0.056 A 
HETATM    4  C   MOL     1      -1.222   1.723  30.075  1.00 -0.33     0.007 A 
HETATM    5  C   MOL     1      -0.500   2.014  31.210  1.00 -0.34     0.001 A 
HETATM    6  C   MOL     1      -0.823   1.411  32.403  1.00 -0.27     0.000 A 
ENDROOT
BRANCH   3   7
HETATM    7  C   MOL     1      -3.068   0.507  28.871  1.00 -0.43     0.074 C 
BRANCH   7   8
HETATM    8  C   MOL     1      -4.307  -0.388  29.094  1.00 -0.43     0.216 C 
BRANCH   8   9
HETATM    9  N   MOL     1      -4.073  -1.724  28.441  1.00  0.05    -0.072 N 
HETATM   10  H   MOL     1      -4.138  -2.408  29.037  1.00 -0.64     0.274 HD
HETATM   11  H   MOL     1      -4.681  -1.887  27.783  1.00 -0.76     0.274 HD
HETATM   12  H   MOL     1      -3.255  -1.780  28.051  1.00 -0.15     0.274 HD
ENDBRANCH   8   9
BRANCH   8  13
HETATM   13  C   MOL     1      -5.568   0.303  28.525  1.00 -0.29     0.150 C 
BRANCH  13  14
HETATM   14  O   MOL     1      -5.983  -0.353  27.314  1.00  0.06    -0.393 OA
HETATM   15  H   MOL     1      -5.528  -1.244  27.207  1.00 -0.27     0.210 HD
ENDBRANCH  13  14
BRANCH  13  16
HETATM   16  C   MOL     1      -5.304   1.795  28.229  1.00 -0.14     0.054 C 
BRANCH  16  17
HETATM   17  C   MOL     1      -5.810   2.702  29.373  1.00 -0.12     0.073 C 
BRANCH  17  18
HETATM   18  C   MOL     1      -4.927   3.968  29.454  1.00 -0.13     0.058 C 
BRANCH  18  19
HETATM   19  C   MOL     1      -4.157   4.148  30.753  1.00 -0.16    -0.057 A 
HETATM   20  C   MOL     1      -3.166   5.102  30.847  1.00 -0.21     0.007 A 
HETATM   21  C   MOL     1      -2.466   5.265  32.022  1.00 -0.25     0.001 A 
HETATM   22  C   MOL     1      -2.753   4.472  33.109  1.00 -0.37     0.000 A 
HETATM   23  C   MOL     1      -3.742   3.517  33.021  1.00 -0.40     0.001 A 
HETATM   24  C   MOL     1      -4.441   3.358  31.846  1.00 -0.21     0.007 A 
ENDBRANCH  18  19
ENDBRANCH  17  18
BRANCH  17  25
HETATM   25  N   MOL     1      -7.203   3.093  29.115  1.00  0.15    -0.221 NA
HETATM   26  H   MOL     1      -7.540   2.652  28.250  1.00  0.32     0.134 HD
BRANCH  25  27
HETATM   27  P   MOL     1      -8.143   2.809  30.259  1.00  0.09     0.413 P 
HETATM   28  O   MOL     1      -7.535   1.845  31.245  1.00  0.07    -0.239 OA
BRANCH  27  29
HETATM   29  O   MOL     1      -9.552   2.244  29.731  1.00  0.12    -0.299 OA
BRANCH  29  30
HETATM   30  C   MOL     1     -10.071   2.729  28.484  1.00 -0.20     0.214 C 
BRANCH  30  31
HETATM   31  C   MOL     1     -10.508   1.545  27.607  1.00 -0.04     0.180 C 
HETATM   32  O   MOL     1     -10.660   0.345  28.385  1.00  0.26    -0.347 OA
HETATM   33  C   MOL     1     -10.294  -0.807  27.602  1.00 -0.04     0.222 C 
HETATM   34  C   MOL     1      -9.834  -0.263  26.229  1.00 -0.10     0.205 C 
HETATM   35  C   MOL     1     -11.484  -1.652  27.439  1.00 -0.21     0.107 C 
HETATM   36  C   MOL     1      -9.495   1.207  26.504  1.00 -0.06     0.182 C 
HETATM   37  N   MOL     1     -12.406  -2.305  27.313  1.00  0.07    -0.193 NA
BRANCH  33  38
HETATM   38  C   MOL     1      -9.232  -1.529  28.423  1.00 -0.19     0.088 A 
HETATM   39  N   MOL     1      -8.715  -2.712  28.011  1.00 -0.03    -0.229 N 
HETATM   40  C   MOL     1      -7.815  -3.061  28.968  1.00 -0.22     0.104 A 
HETATM   41  N   MOL     1      -8.933  -3.508  26.923  1.00  0.23    -0.160 NA
HETATM   42  C   MOL     1      -7.763  -2.132  29.957  1.00 -0.37     0.038 A 
HETATM   43  C   MOL     1      -7.108  -4.279  28.794  1.00 -0.44     0.151 A 
HETATM   44  C   MOL     1      -8.685  -1.145  29.597  1.00 -0.17     0.034 A 
HETATM   45  N   MOL     1      -7.310  -5.071  27.732  1.00 -0.19    -0.221 NA
HETATM   46  C   MOL     1      -8.243  -4.621  26.833  1.00 -0.33     0.258 A 
BRANCH  43  47
HETATM   47  N   MOL     1      -6.180  -4.695  29.719  1.00 -0.25    -0.382 N 
HETATM   48  H   MOL     1      -6.360  -4.633  30.578  1.00 -0.27     0.157 HD
HETATM   49  H   MOL     1      -5.406  -5.025  29.457  1.00 -0.19     0.157 HD
ENDBRANCH  43  47
ENDBRANCH  33  38
BRANCH  34  50
HETATM   50  O   MOL     1      -8.714  -0.975  25.678  1.00  0.41    -0.388 OA
HETATM   51  H   MOL     1      -7.899  -0.388  25.621  1.00 -0.42     0.210 HD
ENDBRANCH  34  50
BRANCH  36  52
HETATM   52  O   MOL     1      -8.142   1.312  26.971  1.00  0.07    -0.390 OA
HETATM   53  H   MOL     1      -8.109   1.583  27.940  1.00 -0.09     0.210 HD
ENDBRANCH  36  52
ENDBRANCH  30  31
ENDBRANCH  29  30
ENDBRANCH  27  29
BRANCH  27  54
HETATM   54  O   MOL     1      -8.556   4.183  30.995  1.00  0.13    -0.260 OA
BRANCH  54  55
HETATM   55  C   MOL     1      -7.898   4.645  32.101  1.00 -0.29     0.080 A 
HETATM   56  C   MOL     1      -7.965   3.989  33.317  1.00 -0.28     0.037 A 
HETATM   57  C   MOL     1      -7.288   4.476  34.410  1.00 -0.40     0.003 A 
HETATM   58  C   MOL     1      -6.536   5.623  34.298  1.00 -0.35     0.000 A 
HETATM   59  C   MOL     1      -6.463   6.283  33.093  1.00 -0.47     0.003 A 
HETATM   60  C   MOL     1      -7.142   5.797  32.001  1.00 -0.37     0.037 A 
ENDBRANCH  54  55
ENDBRANCH  27  54
ENDBRANCH  25  27
ENDBRANCH  17  25
ENDBRANCH  16  17
ENDBRANCH  13  16
ENDBRANCH   8  13
ENDBRANCH   7   8
ENDBRANCH   3   7
TORSDOF 20
ENDMDL
