MODEL 1
REMARK VINA RESULT:      -6.8      0.000      0.000
REMARK  13 active torsions:
REMARK  status: ('A' for Active; 'I' for Inactive)
REMARK    1  A    between atoms: C_5  and  N_6 
REMARK    2  A    between atoms: C_9  and  N_10 
REMARK    3  A    between atoms: N_10  and  C_11 
REMARK    4  A    between atoms: C_11  and  C_12 
REMARK    5  A    between atoms: C_12  and  C_13 
REMARK    6  A    between atoms: C_13  and  C_14 
REMARK    7  A    between atoms: C_14  and  C_15 
REMARK    8  A    between atoms: C_15  and  C_16 
REMARK    9  A    between atoms: C_16  and  N_17 
REMARK       I    between atoms: N_17  and  C_18 
REMARK   10  A    between atoms: C_18  and  C_20 
REMARK   11  A    between atoms: C_25  and  N_26 
REMARK       I    between atoms: N_26  and  C_27 
REMARK   12  A    between atoms: C_27  and  C_29 
REMARK   13  A    between atoms: C_29  and  C_30 
ROOT
HETATM    1  O   MOL     1      12.982  -4.136  15.799  1.00 -0.03    -0.273 OA
HETATM    2  C   MOL     1      12.421  -3.567  16.720  1.00 -0.41     0.224 C 
HETATM    3  C   MOL     1      12.928  -3.666  18.141  1.00 -0.27     0.106 C 
HETATM    4  C   MOL     1      12.630  -2.400  18.948  1.00 -0.23     0.044 C 
HETATM    5  C   MOL     1      11.110  -2.221  18.892  1.00 -0.30     0.180 C 
HETATM    6  C   MOL     1      10.616  -2.103  17.467  1.00 -0.49     0.247 C 
HETATM    7  O   MOL     1       9.648  -1.418  17.182  1.00 -0.12    -0.271 OA
HETATM    8  N   MOL     1      11.318  -2.802  16.548  1.00 -0.04    -0.296 N 
HETATM    9  HN  MOL     1      11.023  -2.743  15.720  1.00 -0.27     0.171 HD
ENDROOT
BRANCH   5  10
HETATM   10  N   MOL     1      10.689  -1.069  19.704  1.00  0.05    -0.337 N 
HETATM   11  C   MOL     1      11.183   0.296  19.451  1.00 -0.25     0.138 C 
HETATM   12  C   MOL     1      10.989   0.729  20.916  1.00 -0.27     0.070 C 
HETATM   13  C   MOL     1      11.184   2.144  21.418  1.00 -0.20     0.011 C 
HETATM   14  C   MOL     1       9.608   0.180  21.284  1.00 -0.40     0.112 C 
HETATM   15  C   MOL     1      10.619   2.507  22.580  1.00 -0.28     0.025 C 
HETATM   16  C   MOL     1       9.822   1.544  23.341  1.00 -0.47    -0.001 C 
HETATM   17  C   MOL     1       9.346   0.454  22.743  1.00 -0.52    -0.012 C 
HETATM   18  C   MOL     1       9.842  -1.199  20.737  1.00 -0.44     0.229 C 
HETATM   19  O   MOL     1       9.354  -2.238  21.160  1.00 -0.63    -0.273 OA
BRANCH  13  20
HETATM   20  N   MOL     1      11.972   2.910  20.609  1.00  0.04    -0.393 N 
HETATM   21  HN  MOL     1      12.714   2.557  20.291  1.00 -0.01     0.159 HD
BRANCH  20  22
HETATM   22  C   MOL     1      11.399   4.060  19.895  1.00 -0.24     0.119 C 
BRANCH  22  23
HETATM   23  C   MOL     1      11.339   5.350  20.728  1.00 -0.09     0.020 C 
BRANCH  23  24
HETATM   24  C   MOL     1      12.306   6.367  20.103  1.00 -0.19     0.002 C 
BRANCH  24  25
HETATM   25  C   MOL     1      13.731   5.795  20.062  1.00 -0.35     0.002 C 
BRANCH  25  26
HETATM   26  C   MOL     1      14.718   6.933  20.362  1.00 -0.42     0.020 C 
BRANCH  26  27
HETATM   27  C   MOL     1      15.833   6.434  21.291  1.00 -0.29     0.123 C 
BRANCH  27  28
HETATM   28  N   MOL     1      15.251   6.155  22.612  1.00 -0.04    -0.357 N 
HETATM   29  C   MOL     1      15.722   5.128  23.354  1.00 -0.29     0.254 C 
HETATM   30  O   MOL     1      16.633   4.396  22.974  1.00 -0.19    -0.268 OA
HETATM   31  HN  MOL     1      14.611   6.674  22.920  1.00 -0.09     0.162 HD
BRANCH  29  32
HETATM   32  C   MOL     1      15.127   4.831  24.687  1.00 -0.21     0.061 A 
HETATM   33  C   MOL     1      15.282   5.710  25.742  1.00 -0.36     0.038 A 
HETATM   34  C   MOL     1      14.712   5.446  26.961  1.00 -0.38     0.117 A 
HETATM   35  N   MOL     1      13.980   4.347  27.224  1.00 -0.12    -0.271 NA
HETATM   36  C   MOL     1      13.832   3.496  26.197  1.00 -0.27     0.146 A 
HETATM   37  C   MOL     1      14.377   3.685  24.938  1.00 -0.14     0.068 A 
BRANCH  37  38
HETATM   38  N   MOL     1      14.180   2.725  23.938  1.00  0.07    -0.325 N 
HETATM   39  C   MOL     1      14.795   1.527  23.858  1.00 -0.29     0.226 C 
HETATM   40  O   MOL     1      15.598   1.100  24.675  1.00 -0.10    -0.273 OA
HETATM   41  HN  MOL     1      13.600   2.924  23.309  1.00  0.05     0.169 HD
BRANCH  39  42
HETATM   42  C   MOL     1      14.369   0.718  22.649  1.00 -0.34     0.141 C 
BRANCH  42  43
HETATM   43  C   MOL     1      13.477  -0.435  23.072  1.00 -0.21    -0.048 A 
HETATM   44  C   MOL     1      13.462  -1.602  22.341  1.00 -0.31     0.007 A 
HETATM   45  C   MOL     1      12.653  -2.647  22.725  1.00 -0.36     0.002 A 
HETATM   46  C   MOL     1      11.858  -2.529  23.842  1.00 -0.30     0.024 A 
HETATM   47  C   MOL     1      11.872  -1.364  24.576  1.00 -0.25     0.034 A 
HETATM   48 CL   MOL     1      10.868  -1.212  25.988  1.00 -0.85    -0.084 Cl
HETATM   49  C   MOL     1      12.682  -0.318  24.190  1.00 -0.22     0.031 A 
ENDBRANCH  42  43
ENDBRANCH  39  42
ENDBRANCH  37  38
ENDBRANCH  29  32
ENDBRANCH  27  28
ENDBRANCH  26  27
ENDBRANCH  25  26
ENDBRANCH  24  25
ENDBRANCH  23  24
ENDBRANCH  22  23
ENDBRANCH  20  22
ENDBRANCH  13  20
ENDBRANCH   5  10
TORSDOF 13
ENDMDL
MODEL 2
REMARK VINA RESULT:      -6.8      4.054      7.546
REMARK  13 active torsions:
REMARK  status: ('A' for Active; 'I' for Inactive)
REMARK    1  A    between atoms: C_5  and  N_6 
REMARK    2  A    between atoms: C_9  and  N_10 
REMARK    3  A    between atoms: N_10  and  C_11 
REMARK    4  A    between atoms: C_11  and  C_12 
REMARK    5  A    between atoms: C_12  and  C_13 
REMARK    6  A    between atoms: C_13  and  C_14 
REMARK    7  A    between atoms: C_14  and  C_15 
REMARK    8  A    between atoms: C_15  and  C_16 
REMARK    9  A    between atoms: C_16  and  N_17 
REMARK       I    between atoms: N_17  and  C_18 
REMARK   10  A    between atoms: C_18  and  C_20 
REMARK   11  A    between atoms: C_25  and  N_26 
REMARK       I    between atoms: N_26  and  C_27 
REMARK   12  A    between atoms: C_27  and  C_29 
REMARK   13  A    between atoms: C_29  and  C_30 
ROOT
HETATM    1  O   MOL     1       9.607  -0.117  16.499  1.00 -0.03    -0.273 OA
HETATM    2  C   MOL     1       9.934   0.438  17.534  1.00 -0.41     0.224 C 
HETATM    3  C   MOL     1       9.319   0.063  18.864  1.00 -0.27     0.106 C 
HETATM    4  C   MOL     1      10.297   0.260  20.025  1.00 -0.23     0.044 C 
HETATM    5  C   MOL     1      10.706   1.735  19.978  1.00 -0.30     0.180 C 
HETATM    6  C   MOL     1      11.338   2.095  18.651  1.00 -0.49     0.247 C 
HETATM    7  O   MOL     1      12.213   2.940  18.568  1.00 -0.12    -0.271 OA
HETATM    8  N   MOL     1      10.868   1.416  17.580  1.00 -0.04    -0.296 N 
HETATM    9  HN  MOL     1      11.227   1.634  16.806  1.00 -0.27     0.171 HD
ENDROOT
BRANCH   5  10
HETATM   10  N   MOL     1      11.593   2.068  21.103  1.00  0.05    -0.337 N 
HETATM   11  C   MOL     1      12.474   1.070  21.734  1.00 -0.25     0.138 C 
HETATM   12  C   MOL     1      12.477   1.803  23.088  1.00 -0.27     0.070 C 
HETATM   13  C   MOL     1      13.331   1.401  24.271  1.00 -0.20     0.011 C 
HETATM   14  C   MOL     1      12.682   3.273  22.711  1.00 -0.40     0.112 C 
HETATM   15  C   MOL     1      13.571   2.301  25.238  1.00 -0.28     0.025 C 
HETATM   16  C   MOL     1      13.016   3.652  25.137  1.00 -0.47    -0.001 C 
HETATM   17  C   MOL     1      12.599   4.114  23.959  1.00 -0.52    -0.012 C 
HETATM   18  C   MOL     1      11.637   3.300  21.633  1.00 -0.44     0.229 C 
HETATM   19  O   MOL     1      10.958   4.264  21.307  1.00 -0.63    -0.273 OA
BRANCH  13  20
HETATM   20  N   MOL     1      13.751   0.103  24.232  1.00  0.04    -0.393 N 
HETATM   21  HN  MOL     1      13.172  -0.516  23.989  1.00 -0.01     0.159 HD
BRANCH  20  22
HETATM   22  C   MOL     1      15.181  -0.206  24.102  1.00 -0.24     0.119 C 
BRANCH  22  23
HETATM   23  C   MOL     1      15.493  -1.708  24.002  1.00 -0.09     0.020 C 
BRANCH  23  24
HETATM   24  C   MOL     1      14.160  -2.469  23.947  1.00 -0.19     0.002 C 
BRANCH  24  25
HETATM   25  C   MOL     1      14.258  -3.651  22.971  1.00 -0.35     0.002 C 
BRANCH  25  26
HETATM   26  C   MOL     1      13.157  -3.496  21.911  1.00 -0.42     0.020 C 
BRANCH  26  27
HETATM   27  C   MOL     1      11.910  -4.290  22.325  1.00 -0.29     0.123 C 
BRANCH  27  28
HETATM   28  N   MOL     1      10.917  -3.351  22.867  1.00 -0.04    -0.357 N 
HETATM   29  C   MOL     1      10.550  -3.434  24.166  1.00 -0.29     0.254 C 
HETATM   30  O   MOL     1      11.014  -4.271  24.936  1.00 -0.19    -0.268 OA
HETATM   31  HN  MOL     1      10.583  -2.728  22.345  1.00 -0.09     0.162 HD
BRANCH  29  32
HETATM   32  C   MOL     1       9.534  -2.495  24.719  1.00 -0.21     0.061 A 
HETATM   33  C   MOL     1       9.858  -1.179  24.984  1.00 -0.36     0.038 A 
HETATM   34  C   MOL     1       8.914  -0.310  25.470  1.00 -0.38     0.117 A 
HETATM   35  N   MOL     1       7.637  -0.655  25.719  1.00 -0.12    -0.271 NA
HETATM   36  C   MOL     1       7.326  -1.936  25.460  1.00 -0.27     0.146 A 
HETATM   37  C   MOL     1       8.219  -2.875  24.974  1.00 -0.14     0.068 A 
BRANCH  37  38
HETATM   38  N   MOL     1       7.799  -4.193  24.755  1.00  0.07    -0.325 N 
HETATM   39  C   MOL     1       7.626  -5.137  25.702  1.00 -0.29     0.226 C 
HETATM   40  O   MOL     1       7.789  -4.959  26.901  1.00 -0.10    -0.273 OA
HETATM   41  HN  MOL     1       7.631  -4.419  23.923  1.00  0.05     0.169 HD
BRANCH  39  42
HETATM   42  C   MOL     1       7.170  -6.469  25.141  1.00 -0.34     0.141 C 
BRANCH  42  43
HETATM   43  C   MOL     1       8.360  -7.383  24.915  1.00 -0.21    -0.048 A 
HETATM   44  C   MOL     1       8.664  -8.363  25.833  1.00 -0.31     0.007 A 
HETATM   45  C   MOL     1       9.743  -9.193  25.627  1.00 -0.36     0.002 A 
HETATM   46  C   MOL     1      10.522  -9.045  24.502  1.00 -0.30     0.024 A 
HETATM   47  C   MOL     1      10.220  -8.066  23.582  1.00 -0.25     0.034 A 
HETATM   48 CL   MOL     1      11.203  -7.876  22.160  1.00 -0.85    -0.084 Cl
HETATM   49  C   MOL     1       9.140  -7.236  23.789  1.00 -0.22     0.031 A 
ENDBRANCH  42  43
ENDBRANCH  39  42
ENDBRANCH  37  38
ENDBRANCH  29  32
ENDBRANCH  27  28
ENDBRANCH  26  27
ENDBRANCH  25  26
ENDBRANCH  24  25
ENDBRANCH  23  24
ENDBRANCH  22  23
ENDBRANCH  20  22
ENDBRANCH  13  20
ENDBRANCH   5  10
TORSDOF 13
ENDMDL
MODEL 3
REMARK VINA RESULT:      -6.7      2.887      7.810
REMARK  13 active torsions:
REMARK  status: ('A' for Active; 'I' for Inactive)
REMARK    1  A    between atoms: C_5  and  N_6 
REMARK    2  A    between atoms: C_9  and  N_10 
REMARK    3  A    between atoms: N_10  and  C_11 
REMARK    4  A    between atoms: C_11  and  C_12 
REMARK    5  A    between atoms: C_12  and  C_13 
REMARK    6  A    between atoms: C_13  and  C_14 
REMARK    7  A    between atoms: C_14  and  C_15 
REMARK    8  A    between atoms: C_15  and  C_16 
REMARK    9  A    between atoms: C_16  and  N_17 
REMARK       I    between atoms: N_17  and  C_18 
REMARK   10  A    between atoms: C_18  and  C_20 
REMARK   11  A    between atoms: C_25  and  N_26 
REMARK       I    between atoms: N_26  and  C_27 
REMARK   12  A    between atoms: C_27  and  C_29 
REMARK   13  A    between atoms: C_29  and  C_30 
ROOT
HETATM    1  O   MOL     1      20.594   7.925  18.904  1.00 -0.03    -0.273 OA
HETATM    2  C   MOL     1      19.483   7.442  19.033  1.00 -0.41     0.224 C 
HETATM    3  C   MOL     1      19.285   6.028  19.531  1.00 -0.27     0.106 C 
HETATM    4  C   MOL     1      17.977   5.870  20.311  1.00 -0.23     0.044 C 
HETATM    5  C   MOL     1      16.866   6.300  19.348  1.00 -0.30     0.180 C 
HETATM    6  C   MOL     1      17.063   7.722  18.871  1.00 -0.49     0.247 C 
HETATM    7  O   MOL     1      16.116   8.447  18.615  1.00 -0.12    -0.271 OA
HETATM    8  N   MOL     1      18.348   8.123  18.753  1.00 -0.04    -0.296 N 
HETATM    9  HN  MOL     1      18.463   8.947  18.463  1.00 -0.27     0.171 HD
ENDROOT
BRANCH   5  10
HETATM   10  N   MOL     1      15.542   6.117  19.963  1.00  0.05    -0.337 N 
HETATM   11  C   MOL     1      15.242   6.564  21.334  1.00 -0.25     0.138 C 
HETATM   12  C   MOL     1      14.141   5.504  21.529  1.00 -0.27     0.070 C 
HETATM   13  C   MOL     1      13.237   5.430  22.741  1.00 -0.20     0.011 C 
HETATM   14  C   MOL     1      13.341   5.559  20.224  1.00 -0.40     0.112 C 
HETATM   15  C   MOL     1      12.079   4.758  22.650  1.00 -0.28     0.025 C 
HETATM   16  C   MOL     1      11.701   4.114  21.391  1.00 -0.47    -0.001 C 
HETATM   17  C   MOL     1      12.286   4.484  20.253  1.00 -0.52    -0.012 C 
HETATM   18  C   MOL     1      14.534   5.515  19.313  1.00 -0.44     0.229 C 
HETATM   19  O   MOL     1      14.573   5.021  18.195  1.00 -0.63    -0.273 OA
BRANCH  13  20
HETATM   20  N   MOL     1      13.742   6.057  23.843  1.00  0.04    -0.393 N 
HETATM   21  HN  MOL     1      14.129   6.841  23.737  1.00 -0.01     0.159 HD
BRANCH  20  22
HETATM   22  C   MOL     1      13.239   5.716  25.181  1.00 -0.24     0.119 C 
BRANCH  22  23
HETATM   23  C   MOL     1      14.341   5.487  26.227  1.00 -0.09     0.020 C 
BRANCH  23  24
HETATM   24  C   MOL     1      14.884   4.062  26.044  1.00 -0.19     0.002 C 
BRANCH  24  25
HETATM   25  C   MOL     1      13.742   3.095  25.694  1.00 -0.35     0.002 C 
BRANCH  25  26
HETATM   26  C   MOL     1      14.231   2.150  24.586  1.00 -0.42     0.020 C 
BRANCH  26  27
HETATM   27  C   MOL     1      13.241   0.991  24.407  1.00 -0.29     0.123 C 
BRANCH  27  28
HETATM   28  N   MOL     1      12.512   1.189  23.146  1.00 -0.04    -0.357 N 
HETATM   29  C   MOL     1      12.125   0.120  22.415  1.00 -0.29     0.254 C 
HETATM   30  O   MOL     1      12.356  -1.038  22.757  1.00 -0.19    -0.268 OA
HETATM   31  HN  MOL     1      12.314   2.005  22.885  1.00 -0.09     0.162 HD
BRANCH  29  32
HETATM   32  C   MOL     1      11.398   0.313  21.129  1.00 -0.21     0.061 A 
HETATM   33  C   MOL     1      12.089   0.509  19.949  1.00 -0.36     0.038 A 
HETATM   34  C   MOL     1      11.417   0.661  18.763  1.00 -0.38     0.117 A 
HETATM   35  N   MOL     1      10.076   0.633  18.652  1.00 -0.12    -0.271 NA
HETATM   36  C   MOL     1       9.408   0.442  19.801  1.00 -0.27     0.146 A 
HETATM   37  C   MOL     1      10.009   0.285  21.039  1.00 -0.14     0.068 A 
BRANCH  37  38
HETATM   38  N   MOL     1       9.220   0.111  22.183  1.00  0.07    -0.325 N 
HETATM   39  C   MOL     1       8.956   1.050  23.113  1.00 -0.29     0.226 C 
HETATM   40  O   MOL     1       9.352   2.206  23.068  1.00 -0.10    -0.273 OA
HETATM   41  HN  MOL     1       8.865  -0.684  22.299  1.00  0.05     0.169 HD
BRANCH  39  42
HETATM   42  C   MOL     1       8.073   0.545  24.237  1.00 -0.34     0.141 C 
BRANCH  42  43
HETATM   43  C   MOL     1       8.607  -0.768  24.778  1.00 -0.21    -0.048 A 
HETATM   44  C   MOL     1       9.876  -0.834  25.307  1.00 -0.31     0.007 A 
HETATM   45  C   MOL     1      10.359  -2.026  25.799  1.00 -0.36     0.002 A 
HETATM   46  C   MOL     1       9.573  -3.155  25.763  1.00 -0.30     0.024 A 
HETATM   47  C   MOL     1       8.303  -3.092  25.236  1.00 -0.25     0.034 A 
HETATM   48 CL   MOL     1       7.308  -4.518  25.190  1.00 -0.85    -0.084 Cl
HETATM   49  C   MOL     1       7.821  -1.899  24.744  1.00 -0.22     0.031 A 
ENDBRANCH  42  43
ENDBRANCH  39  42
ENDBRANCH  37  38
ENDBRANCH  29  32
ENDBRANCH  27  28
ENDBRANCH  26  27
ENDBRANCH  25  26
ENDBRANCH  24  25
ENDBRANCH  23  24
ENDBRANCH  22  23
ENDBRANCH  20  22
ENDBRANCH  13  20
ENDBRANCH   5  10
TORSDOF 13
ENDMDL
MODEL 4
REMARK VINA RESULT:      -6.6      3.570      8.873
REMARK  13 active torsions:
REMARK  status: ('A' for Active; 'I' for Inactive)
REMARK    1  A    between atoms: C_5  and  N_6 
REMARK    2  A    between atoms: C_9  and  N_10 
REMARK    3  A    between atoms: N_10  and  C_11 
REMARK    4  A    between atoms: C_11  and  C_12 
REMARK    5  A    between atoms: C_12  and  C_13 
REMARK    6  A    between atoms: C_13  and  C_14 
REMARK    7  A    between atoms: C_14  and  C_15 
REMARK    8  A    between atoms: C_15  and  C_16 
REMARK    9  A    between atoms: C_16  and  N_17 
REMARK       I    between atoms: N_17  and  C_18 
REMARK   10  A    between atoms: C_18  and  C_20 
REMARK   11  A    between atoms: C_25  and  N_26 
REMARK       I    between atoms: N_26  and  C_27 
REMARK   12  A    between atoms: C_27  and  C_29 
REMARK   13  A    between atoms: C_29  and  C_30 
ROOT
HETATM    1  O   MOL     1      15.962  -0.268  27.753  1.00 -0.03    -0.273 OA
HETATM    2  C   MOL     1      15.634   0.538  26.899  1.00 -0.41     0.224 C 
HETATM    3  C   MOL     1      16.016   0.356  25.448  1.00 -0.27     0.106 C 
HETATM    4  C   MOL     1      14.971   0.951  24.499  1.00 -0.23     0.044 C 
HETATM    5  C   MOL     1      14.858   2.429  24.882  1.00 -0.30     0.180 C 
HETATM    6  C   MOL     1      14.457   2.600  26.331  1.00 -0.49     0.247 C 
HETATM    7  O   MOL     1      13.773   3.541  26.698  1.00 -0.12    -0.271 OA
HETATM    8  N   MOL     1      14.904   1.644  27.175  1.00 -0.04    -0.296 N 
HETATM    9  HN  MOL     1      14.681   1.750  28.020  1.00 -0.27     0.171 HD
ENDROOT
BRANCH   5  10
HETATM   10  N   MOL     1      13.931   3.133  23.981  1.00  0.05    -0.337 N 
HETATM   11  C   MOL     1      12.674   2.525  23.514  1.00 -0.25     0.138 C 
HETATM   12  C   MOL     1      12.654   3.357  22.218  1.00 -0.27     0.070 C 
HETATM   13  C   MOL     1      11.510   3.361  21.227  1.00 -0.20     0.011 C 
HETATM   14  C   MOL     1      13.010   4.772  22.683  1.00 -0.40     0.112 C 
HETATM   15  C   MOL     1      11.397   4.385  20.366  1.00 -0.28     0.025 C 
HETATM   16  C   MOL     1      12.367   5.481  20.397  1.00 -0.47    -0.001 C 
HETATM   17  C   MOL     1      13.124   5.668  21.476  1.00 -0.52    -0.012 C 
HETATM   18  C   MOL     1      14.190   4.366  23.518  1.00 -0.44     0.229 C 
HETATM   19  O   MOL     1      15.192   5.034  23.729  1.00 -0.63    -0.273 OA
BRANCH  13  20
HETATM   20  N   MOL     1      10.708   2.260  21.307  1.00  0.04    -0.393 N 
HETATM   21  HN  MOL     1      10.193   2.168  22.016  1.00 -0.01     0.159 HD
BRANCH  20  22
HETATM   22  C   MOL     1      10.335   1.529  20.088  1.00 -0.24     0.119 C 
BRANCH  22  23
HETATM   23  C   MOL     1       9.630   0.188  20.351  1.00 -0.09     0.020 C 
BRANCH  23  24
HETATM   24  C   MOL     1       9.707  -0.104  21.856  1.00 -0.19     0.002 C 
BRANCH  24  25
HETATM   25  C   MOL     1       9.780  -1.618  22.105  1.00 -0.35     0.002 C 
BRANCH  25  26
HETATM   26  C   MOL     1      10.772  -2.226  21.102  1.00 -0.42     0.020 C 
BRANCH  26  27
HETATM   27  C   MOL     1      11.905  -2.943  21.850  1.00 -0.29     0.123 C 
BRANCH  27  28
HETATM   28  N   MOL     1      11.565  -4.370  21.956  1.00 -0.04    -0.357 N 
HETATM   29  C   MOL     1      11.715  -5.012  23.136  1.00 -0.29     0.254 C 
HETATM   30  O   MOL     1      12.129  -4.455  24.149  1.00 -0.19    -0.268 OA
HETATM   31  HN  MOL     1      11.247  -4.791  21.253  1.00 -0.09     0.162 HD
BRANCH  29  32
HETATM   32  C   MOL     1      11.387  -6.461  23.248  1.00 -0.21     0.061 A 
HETATM   33  C   MOL     1      12.300  -7.425  22.867  1.00 -0.36     0.038 A 
HETATM   34  C   MOL     1      12.005  -8.758  22.995  1.00 -0.38     0.117 A 
HETATM   35  N   MOL     1      10.841  -9.224  23.485  1.00 -0.12    -0.271 NA
HETATM   36  C   MOL     1       9.955  -8.284  23.854  1.00 -0.27     0.146 A 
HETATM   37  C   MOL     1      10.173  -6.921  23.754  1.00 -0.14     0.068 A 
BRANCH  37  38
HETATM   38  N   MOL     1       9.175  -6.021  24.148  1.00  0.07    -0.325 N 
HETATM   39  C   MOL     1       8.901  -5.648  25.414  1.00 -0.29     0.226 C 
HETATM   40  O   MOL     1       9.514  -6.027  26.401  1.00 -0.10    -0.273 OA
HETATM   41  HN  MOL     1       8.687  -5.669  23.508  1.00  0.05     0.169 HD
BRANCH  39  42
HETATM   42  C   MOL     1       7.753  -4.663  25.510  1.00 -0.34     0.141 C 
BRANCH  42  43
HETATM   43  C   MOL     1       8.279  -3.241  25.559  1.00 -0.21    -0.048 A 
HETATM   44  C   MOL     1       9.612  -3.004  25.812  1.00 -0.31     0.007 A 
HETATM   45  C   MOL     1      10.089  -1.714  25.856  1.00 -0.36     0.002 A 
HETATM   46  C   MOL     1       9.234  -0.655  25.646  1.00 -0.30     0.024 A 
HETATM   47  C   MOL     1       7.902  -0.889  25.391  1.00 -0.25     0.034 A 
HETATM   48 CL   MOL     1       6.820   0.447  25.126  1.00 -0.85    -0.084 Cl
HETATM   49  C   MOL     1       7.425  -2.181  25.348  1.00 -0.22     0.031 A 
ENDBRANCH  42  43
ENDBRANCH  39  42
ENDBRANCH  37  38
ENDBRANCH  29  32
ENDBRANCH  27  28
ENDBRANCH  26  27
ENDBRANCH  25  26
ENDBRANCH  24  25
ENDBRANCH  23  24
ENDBRANCH  22  23
ENDBRANCH  20  22
ENDBRANCH  13  20
ENDBRANCH   5  10
TORSDOF 13
ENDMDL
MODEL 5
REMARK VINA RESULT:      -6.4      2.725      7.382
REMARK  13 active torsions:
REMARK  status: ('A' for Active; 'I' for Inactive)
REMARK    1  A    between atoms: C_5  and  N_6 
REMARK    2  A    between atoms: C_9  and  N_10 
REMARK    3  A    between atoms: N_10  and  C_11 
REMARK    4  A    between atoms: C_11  and  C_12 
REMARK    5  A    between atoms: C_12  and  C_13 
REMARK    6  A    between atoms: C_13  and  C_14 
REMARK    7  A    between atoms: C_14  and  C_15 
REMARK    8  A    between atoms: C_15  and  C_16 
REMARK    9  A    between atoms: C_16  and  N_17 
REMARK       I    between atoms: N_17  and  C_18 
REMARK   10  A    between atoms: C_18  and  C_20 
REMARK   11  A    between atoms: C_25  and  N_26 
REMARK       I    between atoms: N_26  and  C_27 
REMARK   12  A    between atoms: C_27  and  C_29 
REMARK   13  A    between atoms: C_29  and  C_30 
ROOT
HETATM    1  O   MOL     1      20.638   3.087  19.829  1.00 -0.03    -0.273 OA
HETATM    2  C   MOL     1      19.505   3.504  19.659  1.00 -0.41     0.224 C 
HETATM    3  C   MOL     1      18.350   2.570  19.381  1.00 -0.27     0.106 C 
HETATM    4  C   MOL     1      17.027   3.112  19.929  1.00 -0.23     0.044 C 
HETATM    5  C   MOL     1      16.832   4.479  19.266  1.00 -0.30     0.180 C 
HETATM    6  C   MOL     1      17.985   5.412  19.566  1.00 -0.49     0.247 C 
HETATM    7  O   MOL     1      17.822   6.616  19.668  1.00 -0.12    -0.271 OA
HETATM    8  N   MOL     1      19.191   4.819  19.712  1.00 -0.04    -0.296 N 
HETATM    9  HN  MOL     1      19.864   5.363  19.874  1.00 -0.27     0.171 HD
ENDROOT
BRANCH   5  10
HETATM   10  N   MOL     1      15.545   5.072  19.658  1.00  0.05    -0.337 N 
HETATM   11  C   MOL     1      15.155   5.249  21.067  1.00 -0.25     0.138 C 
HETATM   12  C   MOL     1      13.650   5.176  20.749  1.00 -0.27     0.070 C 
HETATM   13  C   MOL     1      12.554   5.421  21.764  1.00 -0.20     0.011 C 
HETATM   14  C   MOL     1      13.491   6.064  19.512  1.00 -0.40     0.112 C 
HETATM   15  C   MOL     1      11.322   5.731  21.330  1.00 -0.28     0.025 C 
HETATM   16  C   MOL     1      11.053   5.834  19.895  1.00 -0.47    -0.001 C 
HETATM   17  C   MOL     1      12.062   5.990  19.039  1.00 -0.52    -0.012 C 
HETATM   18  C   MOL     1      14.640   5.470  18.750  1.00 -0.44     0.229 C 
HETATM   19  O   MOL     1      14.726   5.369  17.534  1.00 -0.63    -0.273 OA
BRANCH  13  20
HETATM   20  N   MOL     1      12.956   5.262  23.058  1.00  0.04    -0.393 N 
HETATM   21  HN  MOL     1      13.454   5.891  23.422  1.00 -0.01     0.159 HD
BRANCH  20  22
HETATM   22  C   MOL     1      12.209   4.373  23.959  1.00 -0.24     0.119 C 
BRANCH  22  23
HETATM   23  C   MOL     1      12.961   3.088  24.340  1.00 -0.09     0.020 C 
BRANCH  23  24
HETATM   24  C   MOL     1      14.449   3.293  24.017  1.00 -0.19     0.002 C 
BRANCH  24  25
HETATM   25  C   MOL     1      14.965   2.155  23.124  1.00 -0.35     0.002 C 
BRANCH  25  26
HETATM   26  C   MOL     1      13.804   1.185  22.856  1.00 -0.42     0.020 C 
BRANCH  26  27
HETATM   27  C   MOL     1      14.121   0.308  21.636  1.00 -0.29     0.123 C 
BRANCH  27  28
HETATM   28  N   MOL     1      13.053   0.487  20.642  1.00 -0.04    -0.357 N 
HETATM   29  C   MOL     1      12.095  -0.457  20.504  1.00 -0.29     0.254 C 
HETATM   30  O   MOL     1      12.069  -1.482  21.180  1.00 -0.19    -0.268 OA
HETATM   31  HN  MOL     1      13.033   1.220  20.157  1.00 -0.09     0.162 HD
BRANCH  29  32
HETATM   32  C   MOL     1      11.018  -0.290  19.489  1.00 -0.21     0.061 A 
HETATM   33  C   MOL     1      11.249  -0.578  18.157  1.00 -0.36     0.038 A 
HETATM   34  C   MOL     1      10.248  -0.447  17.229  1.00 -0.38     0.117 A 
HETATM   35  N   MOL     1       8.999  -0.041  17.527  1.00 -0.12    -0.271 NA
HETATM   36  C   MOL     1       8.778   0.238  18.821  1.00 -0.27     0.146 A 
HETATM   37  C   MOL     1       9.733   0.136  19.818  1.00 -0.14     0.068 A 
BRANCH  37  38
HETATM   38  N   MOL     1       9.406   0.471  21.138  1.00  0.07    -0.325 N 
HETATM   39  C   MOL     1       9.846   1.552  21.814  1.00 -0.29     0.226 C 
HETATM   40  O   MOL     1      10.577   2.414  21.349  1.00 -0.10    -0.273 OA
HETATM   41  HN  MOL     1       8.863  -0.076  21.559  1.00  0.05     0.169 HD
BRANCH  39  42
HETATM   42  C   MOL     1       9.315   1.626  23.231  1.00 -0.34     0.141 C 
BRANCH  42  43
HETATM   43  C   MOL     1       9.618   0.340  23.977  1.00 -0.21    -0.048 A 
HETATM   44  C   MOL     1      10.918   0.012  24.290  1.00 -0.31     0.007 A 
HETATM   45  C   MOL     1      11.193  -1.154  24.968  1.00 -0.36     0.002 A 
HETATM   46  C   MOL     1      10.168  -1.995  25.336  1.00 -0.30     0.024 A 
HETATM   47  C   MOL     1       8.867  -1.669  25.025  1.00 -0.25     0.034 A 
HETATM   48 CL   MOL     1       7.569  -2.731  25.489  1.00 -0.85    -0.084 Cl
HETATM   49  C   MOL     1       8.593  -0.502  24.346  1.00 -0.22     0.031 A 
ENDBRANCH  42  43
ENDBRANCH  39  42
ENDBRANCH  37  38
ENDBRANCH  29  32
ENDBRANCH  27  28
ENDBRANCH  26  27
ENDBRANCH  25  26
ENDBRANCH  24  25
ENDBRANCH  23  24
ENDBRANCH  22  23
ENDBRANCH  20  22
ENDBRANCH  13  20
ENDBRANCH   5  10
TORSDOF 13
ENDMDL
MODEL 6
REMARK VINA RESULT:      -6.4      3.932      7.291
REMARK  13 active torsions:
REMARK  status: ('A' for Active; 'I' for Inactive)
REMARK    1  A    between atoms: C_5  and  N_6 
REMARK    2  A    between atoms: C_9  and  N_10 
REMARK    3  A    between atoms: N_10  and  C_11 
REMARK    4  A    between atoms: C_11  and  C_12 
REMARK    5  A    between atoms: C_12  and  C_13 
REMARK    6  A    between atoms: C_13  and  C_14 
REMARK    7  A    between atoms: C_14  and  C_15 
REMARK    8  A    between atoms: C_15  and  C_16 
REMARK    9  A    between atoms: C_16  and  N_17 
REMARK       I    between atoms: N_17  and  C_18 
REMARK   10  A    between atoms: C_18  and  C_20 
REMARK   11  A    between atoms: C_25  and  N_26 
REMARK       I    between atoms: N_26  and  C_27 
REMARK   12  A    between atoms: C_27  and  C_29 
REMARK   13  A    between atoms: C_29  and  C_30 
ROOT
HETATM    1  O   MOL     1      16.051  -3.757  21.152  1.00 -0.03    -0.273 OA
HETATM    2  C   MOL     1      15.110  -4.310  21.696  1.00 -0.41     0.224 C 
HETATM    3  C   MOL     1      14.875  -4.196  23.185  1.00 -0.27     0.106 C 
HETATM    4  C   MOL     1      13.387  -4.266  23.540  1.00 -0.23     0.044 C 
HETATM    5  C   MOL     1      12.891  -5.604  22.982  1.00 -0.30     0.180 C 
HETATM    6  C   MOL     1      13.113  -5.700  21.488  1.00 -0.49     0.247 C 
HETATM    7  O   MOL     1      12.349  -6.319  20.767  1.00 -0.12    -0.271 OA
HETATM    8  N   MOL     1      14.206  -5.056  21.020  1.00 -0.04    -0.296 N 
HETATM    9  HN  MOL     1      14.342  -5.122  20.152  1.00 -0.27     0.171 HD
ENDROOT
BRANCH   5  10
HETATM   10  N   MOL     1      11.479  -5.823  23.330  1.00  0.05    -0.337 N 
HETATM   11  C   MOL     1      10.453  -4.780  23.159  1.00 -0.25     0.138 C 
HETATM   12  C   MOL     1       9.566  -5.349  24.281  1.00 -0.27     0.070 C 
HETATM   13  C   MOL     1       8.183  -4.832  24.616  1.00 -0.20     0.011 C 
HETATM   14  C   MOL     1       9.561  -6.858  24.019  1.00 -0.40     0.112 C 
HETATM   15  C   MOL     1       7.343  -5.618  25.308  1.00 -0.28     0.025 C 
HETATM   16  C   MOL     1       7.764  -6.957  25.723  1.00 -0.47    -0.001 C 
HETATM   17  C   MOL     1       8.800  -7.544  25.125  1.00 -0.52    -0.012 C 
HETATM   18  C   MOL     1      11.047  -6.986  23.843  1.00 -0.44     0.229 C 
HETATM   19  O   MOL     1      11.727  -7.964  24.120  1.00 -0.63    -0.273 OA
BRANCH  13  20
HETATM   20  N   MOL     1       7.952  -3.559  24.183  1.00  0.04    -0.393 N 
HETATM   21  HN  MOL     1       7.545  -3.447  23.410  1.00 -0.01     0.159 HD
BRANCH  20  22
HETATM   22  C   MOL     1       7.911  -2.449  25.145  1.00 -0.24     0.119 C 
BRANCH  22  23
HETATM   23  C   MOL     1       9.272  -2.113  25.775  1.00 -0.09     0.020 C 
BRANCH  23  24
HETATM   24  C   MOL     1      10.051  -1.232  24.787  1.00 -0.19     0.002 C 
BRANCH  24  25
HETATM   25  C   MOL     1       9.090  -0.560  23.796  1.00 -0.35     0.002 C 
BRANCH  25  26
HETATM   26  C   MOL     1       9.062   0.946  24.094  1.00 -0.42     0.020 C 
BRANCH  26  27
HETATM   27  C   MOL     1       9.309   1.744  22.806  1.00 -0.29     0.123 C 
BRANCH  27  28
HETATM   28  N   MOL     1       9.360   0.804  21.677  1.00 -0.04    -0.357 N 
HETATM   29  C   MOL     1      10.130   1.084  20.602  1.00 -0.29     0.254 C 
HETATM   30  O   MOL     1      10.807   2.106  20.515  1.00 -0.19    -0.268 OA
HETATM   31  HN  MOL     1       8.903   0.055  21.719  1.00 -0.09     0.162 HD
BRANCH  29  32
HETATM   32  C   MOL     1      10.177   0.143  19.447  1.00 -0.21     0.061 A 
HETATM   33  C   MOL     1       9.064  -0.056  18.653  1.00 -0.36     0.038 A 
HETATM   34  C   MOL     1       9.117  -0.903  17.575  1.00 -0.38     0.117 A 
HETATM   35  N   MOL     1      10.219  -1.587  17.214  1.00 -0.12    -0.271 NA
HETATM   36  C   MOL     1      11.298  -1.391  17.989  1.00 -0.27     0.146 A 
HETATM   37  C   MOL     1      11.327  -0.558  19.094  1.00 -0.14     0.068 A 
BRANCH  37  38
HETATM   38  N   MOL     1      12.500  -0.438  19.849  1.00  0.07    -0.325 N 
HETATM   39  C   MOL     1      12.836  -1.190  20.917  1.00 -0.29     0.226 C 
HETATM   40  O   MOL     1      12.165  -2.112  21.358  1.00 -0.10    -0.273 OA
HETATM   41  HN  MOL     1      13.066   0.185  19.599  1.00  0.05     0.169 HD
BRANCH  39  42
HETATM   42  C   MOL     1      14.171  -0.805  21.521  1.00 -0.34     0.141 C 
BRANCH  42  43
HETATM   43  C   MOL     1      13.973  -0.200  22.899  1.00 -0.21    -0.048 A 
HETATM   44  C   MOL     1      12.978   0.728  23.111  1.00 -0.31     0.007 A 
HETATM   45  C   MOL     1      12.798   1.275  24.361  1.00 -0.36     0.002 A 
HETATM   46  C   MOL     1      13.613   0.896  25.403  1.00 -0.30     0.024 A 
HETATM   47  C   MOL     1      14.608  -0.033  25.194  1.00 -0.25     0.034 A 
HETATM   48 CL   MOL     1      15.639  -0.515  26.510  1.00 -0.85    -0.084 Cl
HETATM   49  C   MOL     1      14.787  -0.580  23.943  1.00 -0.22     0.031 A 
ENDBRANCH  42  43
ENDBRANCH  39  42
ENDBRANCH  37  38
ENDBRANCH  29  32
ENDBRANCH  27  28
ENDBRANCH  26  27
ENDBRANCH  25  26
ENDBRANCH  24  25
ENDBRANCH  23  24
ENDBRANCH  22  23
ENDBRANCH  20  22
ENDBRANCH  13  20
ENDBRANCH   5  10
TORSDOF 13
ENDMDL
MODEL 7
REMARK VINA RESULT:      -6.2      2.351      7.727
REMARK  13 active torsions:
REMARK  status: ('A' for Active; 'I' for Inactive)
REMARK    1  A    between atoms: C_5  and  N_6 
REMARK    2  A    between atoms: C_9  and  N_10 
REMARK    3  A    between atoms: N_10  and  C_11 
REMARK    4  A    between atoms: C_11  and  C_12 
REMARK    5  A    between atoms: C_12  and  C_13 
REMARK    6  A    between atoms: C_13  and  C_14 
REMARK    7  A    between atoms: C_14  and  C_15 
REMARK    8  A    between atoms: C_15  and  C_16 
REMARK    9  A    between atoms: C_16  and  N_17 
REMARK       I    between atoms: N_17  and  C_18 
REMARK   10  A    between atoms: C_18  and  C_20 
REMARK   11  A    between atoms: C_25  and  N_26 
REMARK       I    between atoms: N_26  and  C_27 
REMARK   12  A    between atoms: C_27  and  C_29 
REMARK   13  A    between atoms: C_29  and  C_30 
ROOT
HETATM    1  O   MOL     1      11.049   5.421  18.282  1.00 -0.03    -0.273 OA
HETATM    2  C   MOL     1      11.696   5.011  19.230  1.00 -0.41     0.224 C 
HETATM    3  C   MOL     1      13.206   4.950  19.193  1.00 -0.27     0.106 C 
HETATM    4  C   MOL     1      13.824   5.153  20.580  1.00 -0.23     0.044 C 
HETATM    5  C   MOL     1      13.227   4.055  21.464  1.00 -0.30     0.180 C 
HETATM    6  C   MOL     1      11.717   4.136  21.510  1.00 -0.49     0.247 C 
HETATM    7  O   MOL     1      11.090   3.812  22.504  1.00 -0.12    -0.271 OA
HETATM    8  N   MOL     1      11.125   4.589  20.382  1.00 -0.04    -0.296 N 
HETATM    9  HN  MOL     1      10.245   4.625  20.404  1.00 -0.27     0.171 HD
ENDROOT
BRANCH   5  10
HETATM   10  N   MOL     1      13.809   4.098  22.815  1.00  0.05    -0.337 N 
HETATM   11  C   MOL     1      14.477   2.935  23.423  1.00 -0.25     0.138 C 
HETATM   12  C   MOL     1      14.154   3.392  24.857  1.00 -0.27     0.070 C 
HETATM   13  C   MOL     1      14.671   2.708  26.105  1.00 -0.20     0.011 C 
HETATM   14  C   MOL     1      14.482   4.888  24.851  1.00 -0.40     0.112 C 
HETATM   15  C   MOL     1      14.680   3.385  27.264  1.00 -0.28     0.025 C 
HETATM   16  C   MOL     1      14.201   4.767  27.310  1.00 -0.47    -0.001 C 
HETATM   17  C   MOL     1      14.106   5.476  26.186  1.00 -0.52    -0.012 C 
HETATM   18  C   MOL     1      13.746   5.199  23.580  1.00 -0.44     0.229 C 
HETATM   19  O   MOL     1      13.195   6.255  23.303  1.00 -0.63    -0.273 OA
BRANCH  13  20
HETATM   20  N   MOL     1      15.056   1.414  25.903  1.00  0.04    -0.393 N 
HETATM   21  HN  MOL     1      15.917   1.226  25.924  1.00 -0.01     0.159 HD
BRANCH  20  22
HETATM   22  C   MOL     1      14.108   0.316  26.140  1.00 -0.24     0.119 C 
BRANCH  22  23
HETATM   23  C   MOL     1      14.159  -0.797  25.082  1.00 -0.09     0.020 C 
BRANCH  23  24
HETATM   24  C   MOL     1      13.157  -0.446  23.972  1.00 -0.19     0.002 C 
BRANCH  24  25
HETATM   25  C   MOL     1      11.743  -0.300  24.554  1.00 -0.35     0.002 C 
BRANCH  25  26
HETATM   26  C   MOL     1      10.971   0.716  23.700  1.00 -0.42     0.020 C 
BRANCH  26  27
HETATM   27  C   MOL     1       9.752   0.043  23.053  1.00 -0.29     0.123 C 
BRANCH  27  28
HETATM   28  N   MOL     1       9.905   0.104  21.592  1.00 -0.04    -0.357 N 
HETATM   29  C   MOL     1       9.692  -1.003  20.845  1.00 -0.29     0.254 C 
HETATM   30  O   MOL     1       9.369  -2.083  21.333  1.00 -0.19    -0.268 OA
HETATM   31  HN  MOL     1      10.116   0.868  21.212  1.00 -0.09     0.162 HD
BRANCH  29  32
HETATM   32  C   MOL     1       9.859  -0.952  19.365  1.00 -0.21     0.061 A 
HETATM   33  C   MOL     1       9.095  -0.096  18.596  1.00 -0.36     0.038 A 
HETATM   34  C   MOL     1       9.269  -0.033  17.237  1.00 -0.38     0.117 A 
HETATM   35  N   MOL     1      10.166  -0.775  16.562  1.00 -0.12    -0.271 NA
HETATM   36  C   MOL     1      10.906  -1.607  17.312  1.00 -0.27     0.146 A 
HETATM   37  C   MOL     1      10.791  -1.733  18.686  1.00 -0.14     0.068 A 
BRANCH  37  38
HETATM   38  N   MOL     1      11.599  -2.646  19.376  1.00  0.07    -0.325 N 
HETATM   39  C   MOL     1      12.679  -2.341  20.124  1.00 -0.29     0.226 C 
HETATM   40  O   MOL     1      13.088  -1.208  20.327  1.00 -0.10    -0.273 OA
HETATM   41  HN  MOL     1      11.376  -3.493  19.314  1.00  0.05     0.169 HD
BRANCH  39  42
HETATM   42  C   MOL     1      13.343  -3.558  20.734  1.00 -0.34     0.141 C 
BRANCH  42  43
HETATM   43  C   MOL     1      12.382  -4.274  21.666  1.00 -0.21    -0.048 A 
HETATM   44  C   MOL     1      11.959  -5.552  21.375  1.00 -0.31     0.007 A 
HETATM   45  C   MOL     1      11.088  -6.200  22.221  1.00 -0.36     0.002 A 
HETATM   46  C   MOL     1      10.639  -5.574  23.361  1.00 -0.30     0.024 A 
HETATM   47  C   MOL     1      11.062  -4.297  23.655  1.00 -0.25     0.034 A 
HETATM   48 CL   MOL     1      10.496  -3.503  25.095  1.00 -0.85    -0.084 Cl
HETATM   49  C   MOL     1      11.933  -3.648  22.807  1.00 -0.22     0.031 A 
ENDBRANCH  42  43
ENDBRANCH  39  42
ENDBRANCH  37  38
ENDBRANCH  29  32
ENDBRANCH  27  28
ENDBRANCH  26  27
ENDBRANCH  25  26
ENDBRANCH  24  25
ENDBRANCH  23  24
ENDBRANCH  22  23
ENDBRANCH  20  22
ENDBRANCH  13  20
ENDBRANCH   5  10
TORSDOF 13
ENDMDL
MODEL 8
REMARK VINA RESULT:      -6.1      3.280      9.591
REMARK  13 active torsions:
REMARK  status: ('A' for Active; 'I' for Inactive)
REMARK    1  A    between atoms: C_5  and  N_6 
REMARK    2  A    between atoms: C_9  and  N_10 
REMARK    3  A    between atoms: N_10  and  C_11 
REMARK    4  A    between atoms: C_11  and  C_12 
REMARK    5  A    between atoms: C_12  and  C_13 
REMARK    6  A    between atoms: C_13  and  C_14 
REMARK    7  A    between atoms: C_14  and  C_15 
REMARK    8  A    between atoms: C_15  and  C_16 
REMARK    9  A    between atoms: C_16  and  N_17 
REMARK       I    between atoms: N_17  and  C_18 
REMARK   10  A    between atoms: C_18  and  C_20 
REMARK   11  A    between atoms: C_25  and  N_26 
REMARK       I    between atoms: N_26  and  C_27 
REMARK   12  A    between atoms: C_27  and  C_29 
REMARK   13  A    between atoms: C_29  and  C_30 
ROOT
HETATM    1  O   MOL     1      19.087   4.530  26.741  1.00 -0.03    -0.273 OA
HETATM    2  C   MOL     1      18.201   4.706  25.923  1.00 -0.41     0.224 C 
HETATM    3  C   MOL     1      18.217   4.020  24.576  1.00 -0.27     0.106 C 
HETATM    4  C   MOL     1      16.805   3.744  24.053  1.00 -0.23     0.044 C 
HETATM    5  C   MOL     1      16.111   5.109  23.994  1.00 -0.30     0.180 C 
HETATM    6  C   MOL     1      16.083   5.778  25.350  1.00 -0.49     0.247 C 
HETATM    7  O   MOL     1      15.163   6.505  25.685  1.00 -0.12    -0.271 OA
HETATM    8  N   MOL     1      17.139   5.512  26.152  1.00 -0.04    -0.296 N 
HETATM    9  HN  MOL     1      17.128   5.912  26.937  1.00 -0.27     0.171 HD
ENDROOT
BRANCH   5  10
HETATM   10  N   MOL     1      14.759   4.984  23.428  1.00  0.05    -0.337 N 
HETATM   11  C   MOL     1      13.777   4.013  23.941  1.00 -0.25     0.138 C 
HETATM   12  C   MOL     1      13.042   3.916  22.592  1.00 -0.27     0.070 C 
HETATM   13  C   MOL     1      11.756   3.145  22.378  1.00 -0.20     0.011 C 
HETATM   14  C   MOL     1      12.916   5.371  22.134  1.00 -0.40     0.112 C 
HETATM   15  C   MOL     1      10.991   3.437  21.314  1.00 -0.28     0.025 C 
HETATM   16  C   MOL     1      11.397   4.492  20.384  1.00 -0.47    -0.001 C 
HETATM   17  C   MOL     1      12.297   5.400  20.760  1.00 -0.52    -0.012 C 
HETATM   18  C   MOL     1      14.348   5.738  22.396  1.00 -0.44     0.229 C 
HETATM   19  O   MOL     1      15.009   6.563  21.781  1.00 -0.63    -0.273 OA
BRANCH  13  20
HETATM   20  N   MOL     1      11.531   2.179  23.315  1.00  0.04    -0.393 N 
HETATM   21  HN  MOL     1      12.194   1.952  23.849  1.00 -0.01     0.159 HD
BRANCH  20  22
HETATM   22  C   MOL     1      10.161   1.890  23.761  1.00 -0.24     0.119 C 
BRANCH  22  23
HETATM   23  C   MOL     1       9.569   0.598  23.175  1.00 -0.09     0.020 C 
BRANCH  23  24
HETATM   24  C   MOL     1       9.069  -0.269  24.340  1.00 -0.19     0.002 C 
BRANCH  24  25
HETATM   25  C   MOL     1       9.030  -1.748  23.929  1.00 -0.35     0.002 C 
BRANCH  25  26
HETATM   26  C   MOL     1      10.042  -2.517  24.791  1.00 -0.42     0.020 C 
BRANCH  26  27
HETATM   27  C   MOL     1       9.532  -3.940  25.060  1.00 -0.29     0.123 C 
BRANCH  27  28
HETATM   28  N   MOL     1       9.720  -4.741  23.841  1.00 -0.04    -0.357 N 
HETATM   29  C   MOL     1      10.926  -5.287  23.572  1.00 -0.29     0.254 C 
HETATM   30  O   MOL     1      11.899  -5.147  24.309  1.00 -0.19    -0.268 OA
HETATM   31  HN  MOL     1       9.036  -4.876  23.305  1.00 -0.09     0.162 HD
BRANCH  29  32
HETATM   32  C   MOL     1      11.128  -6.089  22.333  1.00 -0.21     0.061 A 
HETATM   33  C   MOL     1      11.474  -7.425  22.403  1.00 -0.36     0.038 A 
HETATM   34  C   MOL     1      11.634  -8.166  21.260  1.00 -0.38     0.117 A 
HETATM   35  N   MOL     1      11.472  -7.673  20.018  1.00 -0.12    -0.271 NA
HETATM   36  C   MOL     1      11.135  -6.375  19.954  1.00 -0.27     0.146 A 
HETATM   37  C   MOL     1      10.959  -5.557  21.057  1.00 -0.14     0.068 A 
BRANCH  37  38
HETATM   38  N   MOL     1      10.627  -4.208  20.882  1.00  0.07    -0.325 N 
HETATM   39  C   MOL     1      11.492  -3.173  20.872  1.00 -0.29     0.226 C 
HETATM   40  O   MOL     1      12.704  -3.278  20.988  1.00 -0.10    -0.273 OA
HETATM   41  HN  MOL     1       9.776  -4.024  20.765  1.00  0.05     0.169 HD
BRANCH  39  42
HETATM   42  C   MOL     1      10.816  -1.833  20.667  1.00 -0.34     0.141 C 
BRANCH  42  43
HETATM   43  C   MOL     1      10.539  -1.600  19.193  1.00 -0.21    -0.048 A 
HETATM   44  C   MOL     1       9.510  -0.771  18.805  1.00 -0.31     0.007 A 
HETATM   45  C   MOL     1       9.260  -0.559  17.468  1.00 -0.36     0.002 A 
HETATM   46  C   MOL     1      10.040  -1.175  16.515  1.00 -0.30     0.024 A 
HETATM   47  C   MOL     1      11.071  -2.002  16.901  1.00 -0.25     0.034 A 
HETATM   48 CL   MOL     1      12.058  -2.781  15.699  1.00 -0.85    -0.084 Cl
HETATM   49  C   MOL     1      11.320  -2.214  18.239  1.00 -0.22     0.031 A 
ENDBRANCH  42  43
ENDBRANCH  39  42
ENDBRANCH  37  38
ENDBRANCH  29  32
ENDBRANCH  27  28
ENDBRANCH  26  27
ENDBRANCH  25  26
ENDBRANCH  24  25
ENDBRANCH  23  24
ENDBRANCH  22  23
ENDBRANCH  20  22
ENDBRANCH  13  20
ENDBRANCH   5  10
TORSDOF 13
ENDMDL
MODEL 9
REMARK VINA RESULT:      -6.1      4.309      7.124
REMARK  13 active torsions:
REMARK  status: ('A' for Active; 'I' for Inactive)
REMARK    1  A    between atoms: C_5  and  N_6 
REMARK    2  A    between atoms: C_9  and  N_10 
REMARK    3  A    between atoms: N_10  and  C_11 
REMARK    4  A    between atoms: C_11  and  C_12 
REMARK    5  A    between atoms: C_12  and  C_13 
REMARK    6  A    between atoms: C_13  and  C_14 
REMARK    7  A    between atoms: C_14  and  C_15 
REMARK    8  A    between atoms: C_15  and  C_16 
REMARK    9  A    between atoms: C_16  and  N_17 
REMARK       I    between atoms: N_17  and  C_18 
REMARK   10  A    between atoms: C_18  and  C_20 
REMARK   11  A    between atoms: C_25  and  N_26 
REMARK       I    between atoms: N_26  and  C_27 
REMARK   12  A    between atoms: C_27  and  C_29 
REMARK   13  A    between atoms: C_29  and  C_30 
ROOT
HETATM    1  O   MOL     1      15.021  -6.458  19.611  1.00 -0.03    -0.273 OA
HETATM    2  C   MOL     1      14.096  -6.534  20.401  1.00 -0.41     0.224 C 
HETATM    3  C   MOL     1      14.330  -6.592  21.893  1.00 -0.27     0.106 C 
HETATM    4  C   MOL     1      13.186  -5.946  22.681  1.00 -0.23     0.044 C 
HETATM    5  C   MOL     1      11.920  -6.703  22.268  1.00 -0.30     0.180 C 
HETATM    6  C   MOL     1      11.685  -6.622  20.776  1.00 -0.49     0.247 C 
HETATM    7  O   MOL     1      10.560  -6.610  20.306  1.00 -0.12    -0.271 OA
HETATM    8  N   MOL     1      12.800  -6.563  20.014  1.00 -0.04    -0.296 N 
HETATM    9  HN  MOL     1      12.663  -6.528  19.144  1.00 -0.27     0.171 HD
ENDROOT
BRANCH   5  10
HETATM   10  N   MOL     1      10.754  -6.220  23.023  1.00  0.05    -0.337 N 
HETATM   11  C   MOL     1      10.423  -4.789  23.133  1.00 -0.25     0.138 C 
HETATM   12  C   MOL     1       9.703  -4.972  24.482  1.00 -0.27     0.070 C 
HETATM   13  C   MOL     1       8.943  -3.874  25.195  1.00 -0.20     0.011 C 
HETATM   14  C   MOL     1       8.841  -6.220  24.274  1.00 -0.40     0.112 C 
HETATM   15  C   MOL     1       8.034  -4.209  26.125  1.00 -0.28     0.025 C 
HETATM   16  C   MOL     1       7.785  -5.618  26.433  1.00 -0.47    -0.001 C 
HETATM   17  C   MOL     1       8.159  -6.564  25.573  1.00 -0.52    -0.012 C 
HETATM   18  C   MOL     1       9.931  -7.059  23.672  1.00 -0.44     0.229 C 
HETATM   19  O   MOL     1      10.043  -8.274  23.763  1.00 -0.63    -0.273 OA
BRANCH  13  20
HETATM   20  N   MOL     1       9.308  -2.615  24.815  1.00  0.04    -0.393 N 
HETATM   21  HN  MOL     1      10.077  -2.511  24.399  1.00 -0.01     0.159 HD
BRANCH  20  22
HETATM   22  C   MOL     1       8.287  -1.572  24.644  1.00 -0.24     0.119 C 
BRANCH  22  23
HETATM   23  C   MOL     1       8.660  -0.219  25.271  1.00 -0.09     0.020 C 
BRANCH  23  24
HETATM   24  C   MOL     1       8.077   0.893  24.387  1.00 -0.19     0.002 C 
BRANCH  24  25
HETATM   25  C   MOL     1       9.123   1.992  24.148  1.00 -0.35     0.002 C 
BRANCH  25  26
HETATM   26  C   MOL     1       9.454   2.028  22.649  1.00 -0.42     0.020 C 
BRANCH  26  27
HETATM   27  C   MOL     1      10.656   1.121  22.351  1.00 -0.29     0.123 C 
BRANCH  27  28
HETATM   28  N   MOL     1      10.632   0.767  20.925  1.00 -0.04    -0.357 N 
HETATM   29  C   MOL     1      10.301  -0.488  20.547  1.00 -0.29     0.254 C 
HETATM   30  O   MOL     1      10.010  -1.370  21.352  1.00 -0.19    -0.268 OA
HETATM   31  HN  MOL     1      10.816   1.382  20.325  1.00 -0.09     0.162 HD
BRANCH  29  32
HETATM   32  C   MOL     1      10.288  -0.859  19.104  1.00 -0.21     0.061 A 
HETATM   33  C   MOL     1       9.112  -0.842  18.380  1.00 -0.36     0.038 A 
HETATM   34  C   MOL     1       9.107  -1.158  17.046  1.00 -0.38     0.117 A 
HETATM   35  N   MOL     1      10.210  -1.501  16.354  1.00 -0.12    -0.271 NA
HETATM   36  C   MOL     1      11.351  -1.517  17.061  1.00 -0.27     0.146 A 
HETATM   37  C   MOL     1      11.441  -1.215  18.409  1.00 -0.14     0.068 A 
BRANCH  37  38
HETATM   38  N   MOL     1      12.679  -1.280  19.060  1.00  0.07    -0.325 N 
HETATM   39  C   MOL     1      13.198  -2.366  19.669  1.00 -0.29     0.226 C 
HETATM   40  O   MOL     1      12.662  -3.464  19.710  1.00 -0.10    -0.273 OA
HETATM   41  HN  MOL     1      13.158  -0.544  19.068  1.00  0.05     0.169 HD
BRANCH  39  42
HETATM   42  C   MOL     1      14.556  -2.110  20.288  1.00 -0.34     0.141 C 
BRANCH  42  43
HETATM   43  C   MOL     1      14.480  -2.234  21.799  1.00 -0.21    -0.048 A 
HETATM   44  C   MOL     1      15.372  -3.039  22.472  1.00 -0.31     0.007 A 
HETATM   45  C   MOL     1      15.303  -3.151  23.843  1.00 -0.36     0.002 A 
HETATM   46  C   MOL     1      14.343  -2.458  24.544  1.00 -0.30     0.024 A 
HETATM   47  C   MOL     1      13.451  -1.651  23.873  1.00 -0.25     0.034 A 
HETATM   48 CL   MOL     1      12.236  -0.775  24.756  1.00 -0.85    -0.084 Cl
HETATM   49  C   MOL     1      13.520  -1.540  22.501  1.00 -0.22     0.031 A 
ENDBRANCH  42  43
ENDBRANCH  39  42
ENDBRANCH  37  38
ENDBRANCH  29  32
ENDBRANCH  27  28
ENDBRANCH  26  27
ENDBRANCH  25  26
ENDBRANCH  24  25
ENDBRANCH  23  24
ENDBRANCH  22  23
ENDBRANCH  20  22
ENDBRANCH  13  20
ENDBRANCH   5  10
TORSDOF 13
ENDMDL
MODEL 10
REMARK VINA RESULT:      -6.0      3.427      8.331
REMARK  13 active torsions:
REMARK  status: ('A' for Active; 'I' for Inactive)
REMARK    1  A    between atoms: C_5  and  N_6 
REMARK    2  A    between atoms: C_9  and  N_10 
REMARK    3  A    between atoms: N_10  and  C_11 
REMARK    4  A    between atoms: C_11  and  C_12 
REMARK    5  A    between atoms: C_12  and  C_13 
REMARK    6  A    between atoms: C_13  and  C_14 
REMARK    7  A    between atoms: C_14  and  C_15 
REMARK    8  A    between atoms: C_15  and  C_16 
REMARK    9  A    between atoms: C_16  and  N_17 
REMARK       I    between atoms: N_17  and  C_18 
REMARK   10  A    between atoms: C_18  and  C_20 
REMARK   11  A    between atoms: C_25  and  N_26 
REMARK       I    between atoms: N_26  and  C_27 
REMARK   12  A    between atoms: C_27  and  C_29 
REMARK   13  A    between atoms: C_29  and  C_30 
ROOT
HETATM    1  O   MOL     1      16.277  -3.628  26.579  1.00 -0.03    -0.273 OA
HETATM    2  C   MOL     1      16.170  -2.488  26.161  1.00 -0.41     0.224 C 
HETATM    3  C   MOL     1      16.136  -2.187  24.679  1.00 -0.27     0.106 C 
HETATM    4  C   MOL     1      15.288  -0.952  24.363  1.00 -0.23     0.044 C 
HETATM    5  C   MOL     1      15.909   0.194  25.167  1.00 -0.30     0.180 C 
HETATM    6  C   MOL     1      15.921  -0.109  26.649  1.00 -0.49     0.247 C 
HETATM    7  O   MOL     1      15.804   0.773  27.483  1.00 -0.12    -0.271 OA
HETATM    8  N   MOL     1      16.066  -1.413  26.975  1.00 -0.04    -0.296 N 
HETATM    9  HN  MOL     1      16.085  -1.588  27.838  1.00 -0.27     0.171 HD
ENDROOT
BRANCH   5  10
HETATM   10  N   MOL     1      15.222   1.463  24.883  1.00  0.05    -0.337 N 
HETATM   11  C   MOL     1      13.756   1.560  24.783  1.00 -0.25     0.138 C 
HETATM   12  C   MOL     1      13.817   2.777  23.840  1.00 -0.27     0.070 C 
HETATM   13  C   MOL     1      12.604   3.559  23.382  1.00 -0.20     0.011 C 
HETATM   14  C   MOL     1      14.872   3.685  24.477  1.00 -0.40     0.112 C 
HETATM   15  C   MOL     1      12.771   4.805  22.911  1.00 -0.28     0.025 C 
HETATM   16  C   MOL     1      14.110   5.393  22.851  1.00 -0.47    -0.001 C 
HETATM   17  C   MOL     1      15.098   4.875  23.580  1.00 -0.52    -0.012 C 
HETATM   18  C   MOL     1      15.897   2.606  24.681  1.00 -0.44     0.229 C 
HETATM   19  O   MOL     1      17.111   2.749  24.663  1.00 -0.63    -0.273 OA
BRANCH  13  20
HETATM   20  N   MOL     1      11.433   2.864  23.477  1.00  0.04    -0.393 N 
HETATM   21  HN  MOL     1      11.079   2.749  24.276  1.00 -0.01     0.159 HD
BRANCH  20  22
HETATM   22  C   MOL     1      10.547   2.749  22.311  1.00 -0.24     0.119 C 
BRANCH  22  23
HETATM   23  C   MOL     1       9.445   1.688  22.461  1.00 -0.09     0.020 C 
BRANCH  23  24
HETATM   24  C   MOL     1       9.704   0.912  23.760  1.00 -0.19     0.002 C 
BRANCH  24  25
HETATM   25  C   MOL     1       8.642  -0.180  23.953  1.00 -0.35     0.002 C 
BRANCH  25  26
HETATM   26  C   MOL     1       7.985   0.020  25.327  1.00 -0.42     0.020 C 
BRANCH  26  27
HETATM   27  C   MOL     1       7.248  -1.258  25.751  1.00 -0.29     0.123 C 
BRANCH  27  28
HETATM   28  N   MOL     1       8.232  -2.341  25.889  1.00 -0.04    -0.357 N 
HETATM   29  C   MOL     1       8.099  -3.470  25.157  1.00 -0.29     0.254 C 
HETATM   30  O   MOL     1       7.178  -3.643  24.363  1.00 -0.19    -0.268 OA
HETATM   31  HN  MOL     1       8.913  -2.238  26.435  1.00 -0.09     0.162 HD
BRANCH  29  32
HETATM   32  C   MOL     1       9.084  -4.578  25.302  1.00 -0.21     0.061 A 
HETATM   33  C   MOL     1       9.053  -5.412  26.402  1.00 -0.36     0.038 A 
HETATM   34  C   MOL     1       9.945  -6.448  26.521  1.00 -0.38     0.117 A 
HETATM   35  N   MOL     1      10.892  -6.728  25.606  1.00 -0.12    -0.271 NA
HETATM   36  C   MOL     1      10.920  -5.914  24.539  1.00 -0.27     0.146 A 
HETATM   37  C   MOL     1      10.060  -4.847  24.345  1.00 -0.14     0.068 A 
BRANCH  37  38
HETATM   38  N   MOL     1      10.184  -4.045  23.204  1.00  0.07    -0.325 N 
HETATM   39  C   MOL     1      10.884  -2.896  23.115  1.00 -0.29     0.226 C 
HETATM   40  O   MOL     1      11.537  -2.406  24.025  1.00 -0.10    -0.273 OA
HETATM   41  HN  MOL     1       9.768  -4.323  22.481  1.00  0.05     0.169 HD
BRANCH  39  42
HETATM   42  C   MOL     1      10.815  -2.261  21.741  1.00 -0.34     0.141 C 
BRANCH  42  43
HETATM   43  C   MOL     1      12.166  -1.687  21.355  1.00 -0.21    -0.048 A 
HETATM   44  C   MOL     1      13.267  -2.509  21.270  1.00 -0.31     0.007 A 
HETATM   45  C   MOL     1      14.492  -1.989  20.919  1.00 -0.36     0.002 A 
HETATM   46  C   MOL     1      14.619  -0.645  20.651  1.00 -0.30     0.024 A 
HETATM   47  C   MOL     1      13.519   0.179  20.734  1.00 -0.25     0.034 A 
HETATM   48 CL   MOL     1      13.676   1.878  20.396  1.00 -0.85    -0.084 Cl
HETATM   49  C   MOL     1      12.293  -0.343  21.086  1.00 -0.22     0.031 A 
ENDBRANCH  42  43
ENDBRANCH  39  42
ENDBRANCH  37  38
ENDBRANCH  29  32
ENDBRANCH  27  28
ENDBRANCH  26  27
ENDBRANCH  25  26
ENDBRANCH  24  25
ENDBRANCH  23  24
ENDBRANCH  22  23
ENDBRANCH  20  22
ENDBRANCH  13  20
ENDBRANCH   5  10
TORSDOF 13
ENDMDL
