MODEL 1
REMARK VINA RESULT:      -8.1      0.000      0.000
REMARK  15 active torsions:
REMARK  status: ('A' for Active; 'I' for Inactive)
REMARK    1  A    between atoms: O_2  and  C_18 
REMARK    2  A    between atoms: O_2  and  C_22 
REMARK    3  A    between atoms: O_4  and  C_14 
REMARK    4  A    between atoms: O_5  and  C_21 
REMARK    5  A    between atoms: O_5  and  C_25 
REMARK    6  A    between atoms: O_6  and  C_15 
REMARK    7  A    between atoms: O_7  and  C_16 
REMARK    8  A    between atoms: O_8  and  C_17 
REMARK    9  A    between atoms: O_9  and  C_19 
REMARK   10  A    between atoms: O_10  and  C_20 
REMARK   11  A    between atoms: O_11  and  C_30 
REMARK   12  A    between atoms: O_12  and  C_32 
REMARK   13  A    between atoms: C_13  and  C_22 
REMARK   14  A    between atoms: C_25  and  C_26 
REMARK   15  A    between atoms: C_26  and  C_27 
ROOT
HETATM    1  O   UNK     0       9.212  -0.827  23.374  0.00  0.00    -0.348 OA
HETATM    2  C   UNK     0       8.604  -1.214  24.608  0.00  0.00     0.180 C 
HETATM    3  C   UNK     0       7.498  -0.223  24.978  0.00  0.00     0.180 C 
HETATM    4  C   UNK     0       8.044   1.204  25.035  0.00  0.00     0.183 C 
HETATM    5  C   UNK     0       8.849   1.539  23.780  0.00  0.00     0.204 C 
HETATM    6  C   UNK     0       9.861   0.440  23.458  0.00  0.00     0.291 C 
ENDROOT
BRANCH   2   7
HETATM    7  C   UNK     0       8.060  -2.628  24.429  0.00  0.00     0.205 C 
BRANCH   7   8
HETATM    8  O   UNK     0       9.143  -3.512  24.180  0.00  0.00    -0.356 OA
BRANCH   8   9
HETATM    9  C   UNK     0       9.563  -4.170  25.370  0.00  0.00     0.291 C 
HETATM   10  O   UNK     0      10.812  -4.850  25.208  0.00  0.00    -0.351 OA
HETATM   11  C   UNK     0      10.775  -5.927  24.265  0.00  0.00     0.152 C 
HETATM   12  C   UNK     0       9.746  -6.988  24.679  0.00  0.00     0.178 C 
HETATM   13  C   UNK     0      12.189  -6.499  24.188  0.00  0.00     0.042 C 
HETATM   14  C   UNK     0       8.378  -6.339  24.887  0.00  0.00     0.183 C 
HETATM   15  C   UNK     0       8.477  -5.141  25.833  0.00  0.00     0.204 C 
BRANCH  12  16
HETATM   16  O   UNK     0       9.619  -7.976  23.660  0.00  0.00    -0.390 OA
HETATM   17  H   UNK     0       9.856  -7.566  22.811  0.00  0.00     0.210 HD
ENDBRANCH  12  16
BRANCH  14  18
HETATM   18  O   UNK     0       7.476  -7.306  25.422  0.00  0.00    -0.390 OA
HETATM   19  H   UNK     0       7.955  -7.807  26.104  0.00  0.00     0.210 HD
ENDBRANCH  14  18
BRANCH  15  20
HETATM   20  O   UNK     0       8.821  -5.584  27.146  0.00  0.00    -0.388 OA
HETATM   21  H   UNK     0       8.100  -5.323  27.743  0.00  0.00     0.210 HD
ENDBRANCH  15  20
ENDBRANCH   8   9
ENDBRANCH   7   8
ENDBRANCH   2   7
BRANCH   6  22
HETATM   22  O   UNK     0      10.467   0.755  22.204  0.00  0.00    -0.358 OA
BRANCH  22  23
HETATM   23  C   UNK     0      11.537  -0.130  21.912  0.00  0.00     0.175 C 
BRANCH  23  24
HETATM   24  C   UNK     0      12.273   0.346  20.665  0.00  0.00     0.065 C 
BRANCH  24  25
HETATM   25  C   UNK     0      11.410   0.283  19.429  0.00  0.00    -0.053 A 
HETATM   26  C   UNK     0      11.184   1.435  18.676  0.00  0.00     0.046 A 
HETATM   27  C   UNK     0      10.387   1.375  17.533  0.00  0.00     0.099 A 
HETATM   28  C   UNK     0       9.815   0.164  17.143  0.00  0.00     0.098 A 
HETATM   29  C   UNK     0      10.042  -0.987  17.896  0.00  0.00     0.040 A 
HETATM   30  C   UNK     0      10.839  -0.929  19.039  0.00  0.00     0.010 A 
BRANCH  27  31
HETATM   31  O   UNK     0      10.175   2.507  16.804  0.00  0.00    -0.358 OA
HETATM   32  H   UNK     0      10.979   2.713  16.298  0.00  0.00     0.217 HD
ENDBRANCH  27  31
BRANCH  28  33
HETATM   33  O   UNK     0       9.035   0.094  16.028  0.00  0.00    -0.358 OA
HETATM   34  H   UNK     0       8.699   0.983  15.820  0.00  0.00     0.217 HD
ENDBRANCH  28  33
ENDBRANCH  24  25
ENDBRANCH  23  24
ENDBRANCH  22  23
ENDBRANCH   6  22
BRANCH   3  35
HETATM   35  O   UNK     0       6.958  -0.574  26.249  0.00  0.00    -0.390 OA
HETATM   36  H   UNK     0       7.164  -1.509  26.415  0.00  0.00     0.210 HD
ENDBRANCH   3  35
BRANCH   5  37
HETATM   37  O   UNK     0       9.564   2.757  23.986  0.00  0.00    -0.388 OA
HETATM   38  H   UNK     0       9.043   3.482  23.599  0.00  0.00     0.210 HD
ENDBRANCH   5  37
BRANCH   4  39
HETATM   39  O   UNK     0       6.935   2.097  25.142  0.00  0.00    -0.390 OA
HETATM   40  H   UNK     0       6.118   1.579  25.046  0.00  0.00     0.210 HD
ENDBRANCH   4  39
TORSDOF 15
ENDMDL
MODEL 2
REMARK VINA RESULT:      -7.8      3.168      9.607
REMARK  15 active torsions:
REMARK  status: ('A' for Active; 'I' for Inactive)
REMARK    1  A    between atoms: O_2  and  C_18 
REMARK    2  A    between atoms: O_2  and  C_22 
REMARK    3  A    between atoms: O_4  and  C_14 
REMARK    4  A    between atoms: O_5  and  C_21 
REMARK    5  A    between atoms: O_5  and  C_25 
REMARK    6  A    between atoms: O_6  and  C_15 
REMARK    7  A    between atoms: O_7  and  C_16 
REMARK    8  A    between atoms: O_8  and  C_17 
REMARK    9  A    between atoms: O_9  and  C_19 
REMARK   10  A    between atoms: O_10  and  C_20 
REMARK   11  A    between atoms: O_11  and  C_30 
REMARK   12  A    between atoms: O_12  and  C_32 
REMARK   13  A    between atoms: C_13  and  C_22 
REMARK   14  A    between atoms: C_25  and  C_26 
REMARK   15  A    between atoms: C_26  and  C_27 
ROOT
HETATM    1  O   UNK     0      11.210   0.174  19.584  0.00  0.00    -0.348 OA
HETATM    2  C   UNK     0      11.324   1.288  18.697  0.00  0.00     0.180 C 
HETATM    3  C   UNK     0      10.138   1.307  17.730  0.00  0.00     0.180 C 
HETATM    4  C   UNK     0      10.036  -0.016  16.970  0.00  0.00     0.183 C 
HETATM    5  C   UNK     0      10.099  -1.208  17.925  0.00  0.00     0.204 C 
HETATM    6  C   UNK     0      11.268  -1.077  18.901  0.00  0.00     0.291 C 
ENDROOT
BRANCH   2   7
HETATM    7  C   UNK     0      11.378   2.551  19.550  0.00  0.00     0.205 C 
BRANCH   7   8
HETATM    8  O   UNK     0      12.216   3.504  18.912  0.00  0.00    -0.356 OA
BRANCH   8   9
HETATM    9  C   UNK     0      11.806   4.836  19.205  0.00  0.00     0.291 C 
HETATM   10  O   UNK     0      12.823   5.798  18.906  0.00  0.00    -0.351 OA
HETATM   11  C   UNK     0      14.007   5.666  19.699  0.00  0.00     0.152 C 
HETATM   12  C   UNK     0      13.689   5.811  21.194  0.00  0.00     0.178 C 
HETATM   13  C   UNK     0      14.988   6.733  19.217  0.00  0.00     0.042 C 
HETATM   14  C   UNK     0      12.596   4.821  21.596  0.00  0.00     0.183 C 
HETATM   15  C   UNK     0      11.384   4.936  20.669  0.00  0.00     0.204 C 
BRANCH  12  16
HETATM   16  O   UNK     0      14.848   5.534  21.974  0.00  0.00    -0.390 OA
HETATM   17  H   UNK     0      15.602   5.431  21.369  0.00  0.00     0.210 HD
ENDBRANCH  12  16
BRANCH  14  18
HETATM   18  O   UNK     0      12.203   5.077  22.942  0.00  0.00    -0.390 OA
HETATM   19  H   UNK     0      12.847   5.698  23.323  0.00  0.00     0.210 HD
ENDBRANCH  14  18
BRANCH  15  20
HETATM   20  O   UNK     0      10.748   6.202  20.853  0.00  0.00    -0.388 OA
HETATM   21  H   UNK     0      11.197   6.843  20.275  0.00  0.00     0.210 HD
ENDBRANCH  15  20
ENDBRANCH   8   9
ENDBRANCH   7   8
ENDBRANCH   2   7
BRANCH   6  22
HETATM   22  O   UNK     0      11.175  -2.146  19.844  0.00  0.00    -0.358 OA
BRANCH  22  23
HETATM   23  C   UNK     0      10.021  -2.016  20.659  0.00  0.00     0.175 C 
BRANCH  23  24
HETATM   24  C   UNK     0      10.245  -2.733  21.986  0.00  0.00     0.065 C 
BRANCH  24  25
HETATM   25  C   UNK     0       9.414  -2.149  23.102  0.00  0.00    -0.053 A 
HETATM   26  C   UNK     0       8.711  -2.991  23.963  0.00  0.00     0.046 A 
HETATM   27  C   UNK     0       7.945  -2.451  24.995  0.00  0.00     0.099 A 
HETATM   28  C   UNK     0       7.880  -1.068  25.165  0.00  0.00     0.098 A 
HETATM   29  C   UNK     0       8.582  -0.226  24.304  0.00  0.00     0.040 A 
HETATM   30  C   UNK     0       9.350  -0.765  23.272  0.00  0.00     0.010 A 
BRANCH  27  31
HETATM   31  O   UNK     0       7.265  -3.284  25.831  0.00  0.00    -0.358 OA
HETATM   32  H   UNK     0       6.330  -3.308  25.563  0.00  0.00     0.217 HD
ENDBRANCH  27  31
BRANCH  28  33
HETATM   33  O   UNK     0       7.134  -0.528  26.170  0.00  0.00    -0.358 OA
HETATM   34  H   UNK     0       6.257  -0.292  25.822  0.00  0.00     0.217 HD
ENDBRANCH  28  33
ENDBRANCH  24  25
ENDBRANCH  23  24
ENDBRANCH  22  23
ENDBRANCH   6  22
BRANCH   3  35
HETATM   35  O   UNK     0      10.307   2.373  16.799  0.00  0.00    -0.390 OA
HETATM   36  H   UNK     0      11.259   2.555  16.720  0.00  0.00     0.210 HD
ENDBRANCH   3  35
BRANCH   5  37
HETATM   37  O   UNK     0      10.277  -2.408  17.174  0.00  0.00    -0.388 OA
HETATM   38  H   UNK     0      11.228  -2.614  17.154  0.00  0.00     0.210 HD
ENDBRANCH   5  37
BRANCH   4  39
HETATM   39  O   UNK     0       8.788  -0.030  16.274  0.00  0.00    -0.390 OA
HETATM   40  H   UNK     0       8.551  -0.957  16.096  0.00  0.00     0.210 HD
ENDBRANCH   4  39
TORSDOF 15
ENDMDL
MODEL 3
REMARK VINA RESULT:      -7.8      1.606      7.941
REMARK  15 active torsions:
REMARK  status: ('A' for Active; 'I' for Inactive)
REMARK    1  A    between atoms: O_2  and  C_18 
REMARK    2  A    between atoms: O_2  and  C_22 
REMARK    3  A    between atoms: O_4  and  C_14 
REMARK    4  A    between atoms: O_5  and  C_21 
REMARK    5  A    between atoms: O_5  and  C_25 
REMARK    6  A    between atoms: O_6  and  C_15 
REMARK    7  A    between atoms: O_7  and  C_16 
REMARK    8  A    between atoms: O_8  and  C_17 
REMARK    9  A    between atoms: O_9  and  C_19 
REMARK   10  A    between atoms: O_10  and  C_20 
REMARK   11  A    between atoms: O_11  and  C_30 
REMARK   12  A    between atoms: O_12  and  C_32 
REMARK   13  A    between atoms: C_13  and  C_22 
REMARK   14  A    between atoms: C_25  and  C_26 
REMARK   15  A    between atoms: C_26  and  C_27 
ROOT
HETATM    1  O   UNK     0       9.613  -1.246  23.951  0.00  0.00    -0.348 OA
HETATM    2  C   UNK     0       9.490  -0.309  22.879  0.00  0.00     0.180 C 
HETATM    3  C   UNK     0       9.214   1.089  23.437  0.00  0.00     0.180 C 
HETATM    4  C   UNK     0       7.974   1.082  24.332  0.00  0.00     0.183 C 
HETATM    5  C   UNK     0       8.040  -0.047  25.360  0.00  0.00     0.204 C 
HETATM    6  C   UNK     0       8.409  -1.377  24.703  0.00  0.00     0.291 C 
ENDROOT
BRANCH   2   7
HETATM    7  C   UNK     0      10.788  -0.352  22.079  0.00  0.00     0.205 C 
BRANCH   7   8
HETATM    8  O   UNK     0      10.552   0.185  20.785  0.00  0.00    -0.356 OA
BRANCH   8   9
HETATM    9  C   UNK     0       9.606  -0.597  20.063  0.00  0.00     0.291 C 
HETATM   10  O   UNK     0      10.084  -1.918  19.790  0.00  0.00    -0.351 OA
HETATM   11  C   UNK     0      11.230  -1.961  18.932  0.00  0.00     0.152 C 
HETATM   12  C   UNK     0      10.927  -1.313  17.574  0.00  0.00     0.178 C 
HETATM   13  C   UNK     0      11.624  -3.430  18.789  0.00  0.00     0.042 C 
HETATM   14  C   UNK     0      10.395   0.106  17.777  0.00  0.00     0.183 C 
HETATM   15  C   UNK     0       9.229   0.118  18.767  0.00  0.00     0.204 C 
BRANCH  12  16
HETATM   16  O   UNK     0      12.113  -1.234  16.789  0.00  0.00    -0.390 OA
HETATM   17  H   UNK     0      12.871  -1.159  17.394  0.00  0.00     0.210 HD
ENDBRANCH  12  16
BRANCH  14  18
HETATM   18  O   UNK     0       9.972   0.633  16.522  0.00  0.00    -0.390 OA
HETATM   19  H   UNK     0       9.021   0.450  16.433  0.00  0.00     0.210 HD
ENDBRANCH  14  18
BRANCH  15  20
HETATM   20  O   UNK     0       8.106  -0.563  18.205  0.00  0.00    -0.388 OA
HETATM   21  H   UNK     0       7.404   0.094  18.062  0.00  0.00     0.210 HD
ENDBRANCH  15  20
ENDBRANCH   8   9
ENDBRANCH   7   8
ENDBRANCH   2   7
BRANCH   6  22
HETATM   22  O   UNK     0       8.591  -2.344  25.738  0.00  0.00    -0.358 OA
BRANCH  22  23
HETATM   23  C   UNK     0       7.575  -3.334  25.703  0.00  0.00     0.175 C 
BRANCH  23  24
HETATM   24  C   UNK     0       7.733  -4.187  24.450  0.00  0.00     0.065 C 
BRANCH  24  25
HETATM   25  C   UNK     0       8.432  -5.495  24.729  0.00  0.00    -0.053 A 
HETATM   26  C   UNK     0       7.793  -6.483  25.477  0.00  0.00     0.046 A 
HETATM   27  C   UNK     0       8.440  -7.692  25.733  0.00  0.00     0.099 A 
HETATM   28  C   UNK     0       9.726  -7.912  25.241  0.00  0.00     0.098 A 
HETATM   29  C   UNK     0      10.365  -6.925  24.493  0.00  0.00     0.040 A 
HETATM   30  C   UNK     0       9.719  -5.716  24.236  0.00  0.00     0.010 A 
BRANCH  27  31
HETATM   31  O   UNK     0       7.804  -8.650  26.463  0.00  0.00    -0.358 OA
HETATM   32  H   UNK     0       7.413  -8.239  27.253  0.00  0.00     0.217 HD
ENDBRANCH  27  31
BRANCH  28  33
HETATM   33  O   UNK     0      10.368  -9.090  25.485  0.00  0.00    -0.358 OA
HETATM   34  H   UNK     0      10.959  -9.288  24.738  0.00  0.00     0.217 HD
ENDBRANCH  28  33
ENDBRANCH  24  25
ENDBRANCH  23  24
ENDBRANCH  22  23
ENDBRANCH   6  22
BRANCH   3  35
HETATM   35  O   UNK     0       9.011   1.996  22.357  0.00  0.00    -0.390 OA
HETATM   36  H   UNK     0       8.070   1.968  22.114  0.00  0.00     0.210 HD
ENDBRANCH   3  35
BRANCH   5  37
HETATM   37  O   UNK     0       6.765  -0.196  25.984  0.00  0.00    -0.388 OA
HETATM   38  H   UNK     0       6.087   0.124  25.364  0.00  0.00     0.210 HD
ENDBRANCH   5  37
BRANCH   4  39
HETATM   39  O   UNK     0       7.909   2.338  25.008  0.00  0.00    -0.390 OA
HETATM   40  H   UNK     0       8.337   3.007  24.446  0.00  0.00     0.210 HD
ENDBRANCH   4  39
TORSDOF 15
ENDMDL
MODEL 4
REMARK VINA RESULT:      -7.8      3.436      9.931
REMARK  15 active torsions:
REMARK  status: ('A' for Active; 'I' for Inactive)
REMARK    1  A    between atoms: O_2  and  C_18 
REMARK    2  A    between atoms: O_2  and  C_22 
REMARK    3  A    between atoms: O_4  and  C_14 
REMARK    4  A    between atoms: O_5  and  C_21 
REMARK    5  A    between atoms: O_5  and  C_25 
REMARK    6  A    between atoms: O_6  and  C_15 
REMARK    7  A    between atoms: O_7  and  C_16 
REMARK    8  A    between atoms: O_8  and  C_17 
REMARK    9  A    between atoms: O_9  and  C_19 
REMARK   10  A    between atoms: O_10  and  C_20 
REMARK   11  A    between atoms: O_11  and  C_30 
REMARK   12  A    between atoms: O_12  and  C_32 
REMARK   13  A    between atoms: C_13  and  C_22 
REMARK   14  A    between atoms: C_25  and  C_26 
REMARK   15  A    between atoms: C_26  and  C_27 
ROOT
HETATM    1  O   UNK     0      11.237   0.246  19.584  0.00  0.00    -0.348 OA
HETATM    2  C   UNK     0      11.357   1.347  18.681  0.00  0.00     0.180 C 
HETATM    3  C   UNK     0      10.152   1.380  17.738  0.00  0.00     0.180 C 
HETATM    4  C   UNK     0      10.004   0.050  16.998  0.00  0.00     0.183 C 
HETATM    5  C   UNK     0      10.062  -1.131  17.966  0.00  0.00     0.204 C 
HETATM    6  C   UNK     0      11.253  -1.014  18.916  0.00  0.00     0.291 C 
ENDROOT
BRANCH   2   7
HETATM    7  C   UNK     0      11.456   2.619  19.516  0.00  0.00     0.205 C 
BRANCH   7   8
HETATM    8  O   UNK     0      12.344   3.524  18.876  0.00  0.00    -0.356 OA
BRANCH   8   9
HETATM    9  C   UNK     0      13.664   3.414  19.396  0.00  0.00     0.291 C 
HETATM   10  O   UNK     0      13.763   3.893  20.741  0.00  0.00    -0.351 OA
HETATM   11  C   UNK     0      13.497   5.292  20.887  0.00  0.00     0.152 C 
HETATM   12  C   UNK     0      14.474   6.129  20.048  0.00  0.00     0.178 C 
HETATM   13  C   UNK     0      13.602   5.612  22.376  0.00  0.00     0.042 C 
HETATM   14  C   UNK     0      14.439   5.670  18.590  0.00  0.00     0.183 C 
HETATM   15  C   UNK     0      14.641   4.157  18.486  0.00  0.00     0.204 C 
BRANCH  12  16
HETATM   16  O   UNK     0      14.106   7.505  20.090  0.00  0.00    -0.390 OA
HETATM   17  H   UNK     0      13.150   7.567  19.921  0.00  0.00     0.210 HD
ENDBRANCH  12  16
BRANCH  14  18
HETATM   18  O   UNK     0      15.461   6.347  17.861  0.00  0.00    -0.390 OA
HETATM   19  H   UNK     0      15.025   6.938  17.224  0.00  0.00     0.210 HD
ENDBRANCH  14  18
BRANCH  15  20
HETATM   20  O   UNK     0      15.965   3.813  18.896  0.00  0.00    -0.388 OA
HETATM   21  H   UNK     0      16.510   4.616  18.837  0.00  0.00     0.210 HD
ENDBRANCH  15  20
ENDBRANCH   8   9
ENDBRANCH   7   8
ENDBRANCH   2   7
BRANCH   6  22
HETATM   22  O   UNK     0      11.157  -2.068  19.874  0.00  0.00    -0.358 OA
BRANCH  22  23
HETATM   23  C   UNK     0      10.040  -1.888  20.730  0.00  0.00     0.175 C 
BRANCH  23  24
HETATM   24  C   UNK     0      10.304  -2.564  22.070  0.00  0.00     0.065 C 
BRANCH  24  25
HETATM   25  C   UNK     0       9.417  -2.029  23.168  0.00  0.00    -0.053 A 
HETATM   26  C   UNK     0       8.729  -2.911  24.001  0.00  0.00     0.046 A 
HETATM   27  C   UNK     0       7.911  -2.416  25.017  0.00  0.00     0.099 A 
HETATM   28  C   UNK     0       7.781  -1.039  25.199  0.00  0.00     0.098 A 
HETATM   29  C   UNK     0       8.470  -0.158  24.366  0.00  0.00     0.040 A 
HETATM   30  C   UNK     0       9.288  -0.652  23.351  0.00  0.00     0.010 A 
BRANCH  27  31
HETATM   31  O   UNK     0       7.245  -3.287  25.825  0.00  0.00    -0.358 OA
HETATM   32  H   UNK     0       7.461  -3.086  26.753  0.00  0.00     0.217 HD
ENDBRANCH  27  31
BRANCH  28  33
HETATM   33  O   UNK     0       6.985  -0.544  26.188  0.00  0.00    -0.358 OA
HETATM   34  H   UNK     0       7.473   0.144  26.672  0.00  0.00     0.217 HD
ENDBRANCH  28  33
ENDBRANCH  24  25
ENDBRANCH  23  24
ENDBRANCH  22  23
ENDBRANCH   6  22
BRANCH   3  35
HETATM   35  O   UNK     0      10.325   2.430  16.790  0.00  0.00    -0.390 OA
HETATM   36  H   UNK     0       9.896   3.228  17.144  0.00  0.00     0.210 HD
ENDBRANCH   3  35
BRANCH   5  37
HETATM   37  O   UNK     0      10.197  -2.344  17.227  0.00  0.00    -0.388 OA
HETATM   38  H   UNK     0      10.211  -2.120  16.280  0.00  0.00     0.210 HD
ENDBRANCH   5  37
BRANCH   4  39
HETATM   39  O   UNK     0       8.742   0.055  16.328  0.00  0.00    -0.390 OA
HETATM   40  H   UNK     0       8.254   0.849  16.607  0.00  0.00     0.210 HD
ENDBRANCH   4  39
TORSDOF 15
ENDMDL
MODEL 5
REMARK VINA RESULT:      -7.8      3.542      9.256
REMARK  15 active torsions:
REMARK  status: ('A' for Active; 'I' for Inactive)
REMARK    1  A    between atoms: O_2  and  C_18 
REMARK    2  A    between atoms: O_2  and  C_22 
REMARK    3  A    between atoms: O_4  and  C_14 
REMARK    4  A    between atoms: O_5  and  C_21 
REMARK    5  A    between atoms: O_5  and  C_25 
REMARK    6  A    between atoms: O_6  and  C_15 
REMARK    7  A    between atoms: O_7  and  C_16 
REMARK    8  A    between atoms: O_8  and  C_17 
REMARK    9  A    between atoms: O_9  and  C_19 
REMARK   10  A    between atoms: O_10  and  C_20 
REMARK   11  A    between atoms: O_11  and  C_30 
REMARK   12  A    between atoms: O_12  and  C_32 
REMARK   13  A    between atoms: C_13  and  C_22 
REMARK   14  A    between atoms: C_25  and  C_26 
REMARK   15  A    between atoms: C_26  and  C_27 
ROOT
HETATM    1  O   UNK     0      11.334  -0.164  19.108  0.00  0.00    -0.348 OA
HETATM    2  C   UNK     0      11.335   1.064  18.378  0.00  0.00     0.180 C 
HETATM    3  C   UNK     0      10.067   1.165  17.528  0.00  0.00     0.180 C 
HETATM    4  C   UNK     0       9.933  -0.046  16.604  0.00  0.00     0.183 C 
HETATM    5  C   UNK     0      10.117  -1.352  17.375  0.00  0.00     0.204 C 
HETATM    6  C   UNK     0      11.365  -1.307  18.256  0.00  0.00     0.291 C 
ENDROOT
BRANCH   2   7
HETATM    7  C   UNK     0      11.430   2.201  19.390  0.00  0.00     0.205 C 
BRANCH   7   8
HETATM    8  O   UNK     0      12.323   3.187  18.895  0.00  0.00    -0.356 OA
BRANCH   8   9
HETATM    9  C   UNK     0      11.803   4.500  19.079  0.00  0.00     0.291 C 
HETATM   10  O   UNK     0      12.748   5.516  18.727  0.00  0.00    -0.351 OA
HETATM   11  C   UNK     0      13.920   5.537  19.550  0.00  0.00     0.152 C 
HETATM   12  C   UNK     0      13.555   5.766  21.024  0.00  0.00     0.178 C 
HETATM   13  C   UNK     0      14.825   6.641  19.008  0.00  0.00     0.042 C 
HETATM   14  C   UNK     0      12.533   4.723  21.479  0.00  0.00     0.183 C 
HETATM   15  C   UNK     0      11.339   4.673  20.524  0.00  0.00     0.204 C 
BRANCH  12  16
HETATM   16  O   UNK     0      14.712   5.640  21.844  0.00  0.00    -0.390 OA
HETATM   17  H   UNK     0      15.031   4.724  21.778  0.00  0.00     0.210 HD
ENDBRANCH  12  16
BRANCH  14  18
HETATM   18  O   UNK     0      12.088   5.045  22.795  0.00  0.00    -0.390 OA
HETATM   19  H   UNK     0      11.506   4.325  23.092  0.00  0.00     0.210 HD
ENDBRANCH  14  18
BRANCH  15  20
HETATM   20  O   UNK     0      10.602   5.894  20.600  0.00  0.00    -0.388 OA
HETATM   21  H   UNK     0      10.121   5.895  21.445  0.00  0.00     0.210 HD
ENDBRANCH  15  20
ENDBRANCH   8   9
ENDBRANCH   7   8
ENDBRANCH   2   7
BRANCH   6  22
HETATM   22  O   UNK     0      11.390  -2.497  19.046  0.00  0.00    -0.358 OA
BRANCH  22  23
HETATM   23  C   UNK     0      11.501  -2.196  20.428  0.00  0.00     0.175 C 
BRANCH  23  24
HETATM   24  C   UNK     0      10.265  -2.700  21.165  0.00  0.00     0.065 C 
BRANCH  24  25
HETATM   25  C   UNK     0       9.735  -1.692  22.154  0.00  0.00    -0.053 A 
HETATM   26  C   UNK     0       9.680  -0.341  21.812  0.00  0.00     0.046 A 
HETATM   27  C   UNK     0       9.188   0.591  22.726  0.00  0.00     0.099 A 
HETATM   28  C   UNK     0       8.752   0.171  23.983  0.00  0.00     0.098 A 
HETATM   29  C   UNK     0       8.807  -1.179  24.325  0.00  0.00     0.040 A 
HETATM   30  C   UNK     0       9.298  -2.112  23.411  0.00  0.00     0.010 A 
BRANCH  27  31
HETATM   31  O   UNK     0       9.137   1.907  22.379  0.00  0.00    -0.358 OA
HETATM   32  H   UNK     0       8.210   2.200  22.384  0.00  0.00     0.217 HD
ENDBRANCH  27  31
BRANCH  28  33
HETATM   33  O   UNK     0       8.270   1.072  24.884  0.00  0.00    -0.358 OA
HETATM   34  H   UNK     0       8.805   1.883  24.839  0.00  0.00     0.217 HD
ENDBRANCH  28  33
ENDBRANCH  24  25
ENDBRANCH  23  24
ENDBRANCH  22  23
ENDBRANCH   6  22
BRANCH   3  35
HETATM   35  O   UNK     0      10.120   2.354  16.743  0.00  0.00    -0.390 OA
HETATM   36  H   UNK     0       9.690   3.066  17.248  0.00  0.00     0.210 HD
ENDBRANCH   3  35
BRANCH   5  37
HETATM   37  O   UNK     0      10.261  -2.431  16.452  0.00  0.00    -0.388 OA
HETATM   38  H   UNK     0      10.846  -2.137  15.733  0.00  0.00     0.210 HD
ENDBRANCH   5  37
BRANCH   4  39
HETATM   39  O   UNK     0       8.628  -0.016  16.023  0.00  0.00    -0.390 OA
HETATM   40  H   UNK     0       8.003  -0.401  16.661  0.00  0.00     0.210 HD
ENDBRANCH   4  39
TORSDOF 15
ENDMDL
MODEL 6
REMARK VINA RESULT:      -7.7      1.534      8.253
REMARK  15 active torsions:
REMARK  status: ('A' for Active; 'I' for Inactive)
REMARK    1  A    between atoms: O_2  and  C_18 
REMARK    2  A    between atoms: O_2  and  C_22 
REMARK    3  A    between atoms: O_4  and  C_14 
REMARK    4  A    between atoms: O_5  and  C_21 
REMARK    5  A    between atoms: O_5  and  C_25 
REMARK    6  A    between atoms: O_6  and  C_15 
REMARK    7  A    between atoms: O_7  and  C_16 
REMARK    8  A    between atoms: O_8  and  C_17 
REMARK    9  A    between atoms: O_9  and  C_19 
REMARK   10  A    between atoms: O_10  and  C_20 
REMARK   11  A    between atoms: O_11  and  C_30 
REMARK   12  A    between atoms: O_12  and  C_32 
REMARK   13  A    between atoms: C_13  and  C_22 
REMARK   14  A    between atoms: C_25  and  C_26 
REMARK   15  A    between atoms: C_26  and  C_27 
ROOT
HETATM    1  O   UNK     0       9.552  -1.314  23.750  0.00  0.00    -0.348 OA
HETATM    2  C   UNK     0       9.368  -0.372  22.691  0.00  0.00     0.180 C 
HETATM    3  C   UNK     0       9.207   1.036  23.268  0.00  0.00     0.180 C 
HETATM    4  C   UNK     0       8.059   1.082  24.277  0.00  0.00     0.183 C 
HETATM    5  C   UNK     0       8.176  -0.049  25.299  0.00  0.00     0.204 C 
HETATM    6  C   UNK     0       8.422  -1.393  24.615  0.00  0.00     0.291 C 
ENDROOT
BRANCH   2   7
HETATM    7  C   UNK     0      10.579  -0.471  21.770  0.00  0.00     0.205 C 
BRANCH   7   8
HETATM    8  O   UNK     0      10.162  -0.245  20.431  0.00  0.00    -0.356 OA
BRANCH   8   9
HETATM    9  C   UNK     0      11.252  -0.353  19.522  0.00  0.00     0.291 C 
HETATM   10  O   UNK     0      12.012   0.857  19.434  0.00  0.00    -0.351 OA
HETATM   11  C   UNK     0      11.283   1.970  18.903  0.00  0.00     0.152 C 
HETATM   12  C   UNK     0      10.770   1.668  17.488  0.00  0.00     0.178 C 
HETATM   13  C   UNK     0      12.226   3.171  18.925  0.00  0.00     0.042 C 
HETATM   14  C   UNK     0       9.954   0.376  17.491  0.00  0.00     0.183 C 
HETATM   15  C   UNK     0      10.736  -0.765  18.145  0.00  0.00     0.204 C 
BRANCH  12  16
HETATM   16  O   UNK     0       9.929   2.724  17.032  0.00  0.00    -0.390 OA
HETATM   17  H   UNK     0       9.013   2.396  17.020  0.00  0.00     0.210 HD
ENDBRANCH  12  16
BRANCH  14  18
HETATM   18  O   UNK     0       9.621   0.028  16.148  0.00  0.00    -0.390 OA
HETATM   19  H   UNK     0       9.088  -0.785  16.179  0.00  0.00     0.210 HD
ENDBRANCH  14  18
BRANCH  15  20
HETATM   20  O   UNK     0      11.866  -1.106  17.340  0.00  0.00    -0.388 OA
HETATM   21  H   UNK     0      12.546  -0.427  17.487  0.00  0.00     0.210 HD
ENDBRANCH  15  20
ENDBRANCH   8   9
ENDBRANCH   7   8
ENDBRANCH   2   7
BRANCH   6  22
HETATM   22  O   UNK     0       8.660  -2.367  25.632  0.00  0.00    -0.358 OA
BRANCH  22  23
HETATM   23  C   UNK     0       7.967  -3.575  25.362  0.00  0.00     0.175 C 
BRANCH  23  24
HETATM   24  C   UNK     0       8.417  -4.655  26.339  0.00  0.00     0.065 C 
BRANCH  24  25
HETATM   25  C   UNK     0       9.227  -5.736  25.666  0.00  0.00    -0.053 A 
HETATM   26  C   UNK     0       9.066  -5.983  24.303  0.00  0.00     0.046 A 
HETATM   27  C   UNK     0       9.817  -6.981  23.682  0.00  0.00     0.099 A 
HETATM   28  C   UNK     0      10.728  -7.732  24.424  0.00  0.00     0.098 A 
HETATM   29  C   UNK     0      10.890  -7.485  25.786  0.00  0.00     0.040 A 
HETATM   30  C   UNK     0      10.140  -6.487  26.408  0.00  0.00     0.010 A 
BRANCH  27  31
HETATM   31  O   UNK     0       9.652  -7.212  22.349  0.00  0.00    -0.358 OA
HETATM   32  H   UNK     0       9.436  -6.373  21.907  0.00  0.00     0.217 HD
ENDBRANCH  27  31
BRANCH  28  33
HETATM   33  O   UNK     0      11.468  -8.710  23.828  0.00  0.00    -0.358 OA
HETATM   34  H   UNK     0      12.040  -9.126  24.495  0.00  0.00     0.217 HD
ENDBRANCH  28  33
ENDBRANCH  24  25
ENDBRANCH  23  24
ENDBRANCH  22  23
ENDBRANCH   6  22
BRANCH   3  35
HETATM   35  O   UNK     0       8.941   1.951  22.209  0.00  0.00    -0.390 OA
HETATM   36  H   UNK     0       8.576   2.764  22.598  0.00  0.00     0.210 HD
ENDBRANCH   3  35
BRANCH   5  37
HETATM   37  O   UNK     0       6.961  -0.141  26.043  0.00  0.00    -0.388 OA
HETATM   38  H   UNK     0       6.428   0.649  25.851  0.00  0.00     0.210 HD
ENDBRANCH   5  37
BRANCH   4  39
HETATM   39  O   UNK     0       8.115   2.341  24.952  0.00  0.00    -0.390 OA
HETATM   40  H   UNK     0       7.959   3.043  24.297  0.00  0.00     0.210 HD
ENDBRANCH   4  39
TORSDOF 15
ENDMDL
MODEL 7
REMARK VINA RESULT:      -7.6      3.270      7.033
REMARK  15 active torsions:
REMARK  status: ('A' for Active; 'I' for Inactive)
REMARK    1  A    between atoms: O_2  and  C_18 
REMARK    2  A    between atoms: O_2  and  C_22 
REMARK    3  A    between atoms: O_4  and  C_14 
REMARK    4  A    between atoms: O_5  and  C_21 
REMARK    5  A    between atoms: O_5  and  C_25 
REMARK    6  A    between atoms: O_6  and  C_15 
REMARK    7  A    between atoms: O_7  and  C_16 
REMARK    8  A    between atoms: O_8  and  C_17 
REMARK    9  A    between atoms: O_9  and  C_19 
REMARK   10  A    between atoms: O_10  and  C_20 
REMARK   11  A    between atoms: O_11  and  C_30 
REMARK   12  A    between atoms: O_12  and  C_32 
REMARK   13  A    between atoms: C_13  and  C_22 
REMARK   14  A    between atoms: C_25  and  C_26 
REMARK   15  A    between atoms: C_26  and  C_27 
ROOT
HETATM    1  O   UNK     0      11.535   1.202  19.745  0.00  0.00    -0.348 OA
HETATM    2  C   UNK     0      10.501   0.241  19.963  0.00  0.00     0.180 C 
HETATM    3  C   UNK     0      10.113  -0.417  18.637  0.00  0.00     0.180 C 
HETATM    4  C   UNK     0       9.704   0.636  17.607  0.00  0.00     0.183 C 
HETATM    5  C   UNK     0      10.740   1.755  17.519  0.00  0.00     0.204 C 
HETATM    6  C   UNK     0      11.116   2.276  18.905  0.00  0.00     0.291 C 
ENDROOT
BRANCH   2   7
HETATM    7  C   UNK     0      11.025  -0.779  20.969  0.00  0.00     0.205 C 
BRANCH   7   8
HETATM    8  O   UNK     0      10.183  -0.775  22.113  0.00  0.00    -0.356 OA
BRANCH   8   9
HETATM    9  C   UNK     0      10.565   0.238  23.037  0.00  0.00     0.291 C 
HETATM   10  O   UNK     0      10.856  -0.288  24.336  0.00  0.00    -0.351 OA
HETATM   11  C   UNK     0       9.732  -0.886  24.991  0.00  0.00     0.152 C 
HETATM   12  C   UNK     0       8.594   0.129  25.172  0.00  0.00     0.178 C 
HETATM   13  C   UNK     0      10.233  -1.428  26.328  0.00  0.00     0.042 C 
HETATM   14  C   UNK     0       8.229   0.752  23.824  0.00  0.00     0.183 C 
HETATM   15  C   UNK     0       9.470   1.301  23.119  0.00  0.00     0.204 C 
BRANCH  12  16
HETATM   16  O   UNK     0       7.435  -0.516  25.692  0.00  0.00    -0.390 OA
HETATM   17  H   UNK     0       7.331  -1.367  25.232  0.00  0.00     0.210 HD
ENDBRANCH  12  16
BRANCH  14  18
HETATM   18  O   UNK     0       7.286   1.801  24.033  0.00  0.00    -0.390 OA
HETATM   19  H   UNK     0       6.935   2.057  23.163  0.00  0.00     0.210 HD
ENDBRANCH  14  18
BRANCH  15  20
HETATM   20  O   UNK     0       9.996   2.410  23.850  0.00  0.00    -0.388 OA
HETATM   21  H   UNK     0       9.956   2.186  24.795  0.00  0.00     0.210 HD
ENDBRANCH  15  20
ENDBRANCH   8   9
ENDBRANCH   7   8
ENDBRANCH   2   7
BRANCH   6  22
HETATM   22  O   UNK     0      12.184   3.211  18.750  0.00  0.00    -0.358 OA
BRANCH  22  23
HETATM   23  C   UNK     0      11.868   4.460  19.345  0.00  0.00     0.175 C 
BRANCH  23  24
HETATM   24  C   UNK     0      11.324   4.236  20.752  0.00  0.00     0.065 C 
BRANCH  24  25
HETATM   25  C   UNK     0      12.296   4.674  21.819  0.00  0.00    -0.053 A 
HETATM   26  C   UNK     0      11.834   5.348  22.949  0.00  0.00     0.046 A 
HETATM   27  C   UNK     0      12.733   5.751  23.937  0.00  0.00     0.099 A 
HETATM   28  C   UNK     0      14.094   5.482  23.793  0.00  0.00     0.098 A 
HETATM   29  C   UNK     0      14.556   4.809  22.663  0.00  0.00     0.040 A 
HETATM   30  C   UNK     0      13.658   4.404  21.676  0.00  0.00     0.010 A 
BRANCH  27  31
HETATM   31  O   UNK     0      12.270   6.407  25.037  0.00  0.00    -0.358 OA
HETATM   32  H   UNK     0      11.976   5.753  25.695  0.00  0.00     0.217 HD
ENDBRANCH  27  31
BRANCH  28  33
HETATM   33  O   UNK     0      14.982   5.872  24.751  0.00  0.00    -0.358 OA
HETATM   34  H   UNK     0      15.055   6.841  24.740  0.00  0.00     0.217 HD
ENDBRANCH  28  33
ENDBRANCH  24  25
ENDBRANCH  23  24
ENDBRANCH  22  23
ENDBRANCH   6  22
BRANCH   3  35
HETATM   35  O   UNK     0       9.026  -1.312  18.856  0.00  0.00    -0.390 OA
HETATM   36  H   UNK     0       8.958  -1.897  18.082  0.00  0.00     0.210 HD
ENDBRANCH   3  35
BRANCH   5  37
HETATM   37  O   UNK     0      10.202   2.841  16.765  0.00  0.00    -0.388 OA
HETATM   38  H   UNK     0      10.077   2.539  15.848  0.00  0.00     0.210 HD
ENDBRANCH   5  37
BRANCH   4  39
HETATM   39  O   UNK     0       9.591  -0.009  16.337  0.00  0.00    -0.390 OA
HETATM   40  H   UNK     0      10.481  -0.281  16.055  0.00  0.00     0.210 HD
ENDBRANCH   4  39
TORSDOF 15
ENDMDL
MODEL 8
REMARK VINA RESULT:      -7.5      3.826      7.162
REMARK  15 active torsions:
REMARK  status: ('A' for Active; 'I' for Inactive)
REMARK    1  A    between atoms: O_2  and  C_18 
REMARK    2  A    between atoms: O_2  and  C_22 
REMARK    3  A    between atoms: O_4  and  C_14 
REMARK    4  A    between atoms: O_5  and  C_21 
REMARK    5  A    between atoms: O_5  and  C_25 
REMARK    6  A    between atoms: O_6  and  C_15 
REMARK    7  A    between atoms: O_7  and  C_16 
REMARK    8  A    between atoms: O_8  and  C_17 
REMARK    9  A    between atoms: O_9  and  C_19 
REMARK   10  A    between atoms: O_10  and  C_20 
REMARK   11  A    between atoms: O_11  and  C_30 
REMARK   12  A    between atoms: O_12  and  C_32 
REMARK   13  A    between atoms: C_13  and  C_22 
REMARK   14  A    between atoms: C_25  and  C_26 
REMARK   15  A    between atoms: C_26  and  C_27 
ROOT
HETATM    1  O   UNK     0      11.122   1.319  19.890  0.00  0.00    -0.348 OA
HETATM    2  C   UNK     0      10.072   0.357  20.009  0.00  0.00     0.180 C 
HETATM    3  C   UNK     0       9.877  -0.369  18.676  0.00  0.00     0.180 C 
HETATM    4  C   UNK     0       9.610   0.628  17.548  0.00  0.00     0.183 C 
HETATM    5  C   UNK     0      10.643   1.754  17.550  0.00  0.00     0.204 C 
HETATM    6  C   UNK     0      10.819   2.346  18.948  0.00  0.00     0.291 C 
ENDROOT
BRANCH   2   7
HETATM    7  C   UNK     0      10.455  -0.607  21.127  0.00  0.00     0.205 C 
BRANCH   7   8
HETATM    8  O   UNK     0       9.535  -0.459  22.200  0.00  0.00    -0.356 OA
BRANCH   8   9
HETATM    9  C   UNK     0       9.987   0.507  23.142  0.00  0.00     0.291 C 
HETATM   10  O   UNK     0      10.438  -0.090  24.363  0.00  0.00    -0.351 OA
HETATM   11  C   UNK     0       9.414  -0.772  25.096  0.00  0.00     0.152 C 
HETATM   12  C   UNK     0       8.273   0.185  25.469  0.00  0.00     0.178 C 
HETATM   13  C   UNK     0      10.078  -1.378  26.330  0.00  0.00     0.042 C 
HETATM   14  C   UNK     0       7.740   0.879  24.215  0.00  0.00     0.183 C 
HETATM   15  C   UNK     0       8.877   1.519  23.416  0.00  0.00     0.204 C 
BRANCH  12  16
HETATM   16  O   UNK     0       7.201  -0.535  26.068  0.00  0.00    -0.390 OA
HETATM   17  H   UNK     0       7.532  -0.945  26.886  0.00  0.00     0.210 HD
ENDBRANCH  12  16
BRANCH  14  18
HETATM   18  O   UNK     0       6.794   1.876  24.597  0.00  0.00    -0.390 OA
HETATM   19  H   UNK     0       6.555   2.375  23.797  0.00  0.00     0.210 HD
ENDBRANCH  14  18
BRANCH  15  20
HETATM   20  O   UNK     0       9.446   2.599  24.159  0.00  0.00    -0.388 OA
HETATM   21  H   UNK     0      10.234   2.903  23.678  0.00  0.00     0.210 HD
ENDBRANCH  15  20
ENDBRANCH   8   9
ENDBRANCH   7   8
ENDBRANCH   2   7
BRANCH   6  22
HETATM   22  O   UNK     0      11.894   3.285  18.897  0.00  0.00    -0.358 OA
BRANCH  22  23
HETATM   23  C   UNK     0      11.562   4.486  19.574  0.00  0.00     0.175 C 
BRANCH  23  24
HETATM   24  C   UNK     0      12.394   5.636  19.019  0.00  0.00     0.065 C 
BRANCH  24  25
HETATM   25  C   UNK     0      13.563   5.982  19.909  0.00  0.00    -0.053 A 
HETATM   26  C   UNK     0      14.534   6.879  19.469  0.00  0.00     0.046 A 
HETATM   27  C   UNK     0      15.613   7.199  20.294  0.00  0.00     0.099 A 
HETATM   28  C   UNK     0      15.720   6.620  21.558  0.00  0.00     0.098 A 
HETATM   29  C   UNK     0      14.749   5.723  21.998  0.00  0.00     0.040 A 
HETATM   30  C   UNK     0      13.669   5.403  21.175  0.00  0.00     0.010 A 
BRANCH  27  31
HETATM   31  O   UNK     0      16.555   8.079  19.853  0.00  0.00    -0.358 OA
HETATM   32  H   UNK     0      16.179   8.976  19.861  0.00  0.00     0.217 HD
ENDBRANCH  27  31
BRANCH  28  33
HETATM   33  O   UNK     0      16.770   6.925  22.372  0.00  0.00    -0.358 OA
HETATM   34  H   UNK     0      16.467   6.914  23.296  0.00  0.00     0.217 HD
ENDBRANCH  28  33
ENDBRANCH  24  25
ENDBRANCH  23  24
ENDBRANCH  22  23
ENDBRANCH   6  22
BRANCH   3  35
HETATM   35  O   UNK     0       8.773  -1.264  18.784  0.00  0.00    -0.390 OA
HETATM   36  H   UNK     0       7.956  -0.738  18.764  0.00  0.00     0.210 HD
ENDBRANCH   3  35
BRANCH   5  37
HETATM   37  O   UNK     0      10.211   2.797  16.676  0.00  0.00    -0.388 OA
HETATM   38  H   UNK     0       9.410   2.491  16.215  0.00  0.00     0.210 HD
ENDBRANCH   5  37
BRANCH   4  39
HETATM   39  O   UNK     0       9.679  -0.078  16.308  0.00  0.00    -0.390 OA
HETATM   40  H   UNK     0      10.460  -0.658  16.332  0.00  0.00     0.210 HD
ENDBRANCH   4  39
TORSDOF 15
ENDMDL
MODEL 9
REMARK VINA RESULT:      -7.4      4.641      9.267
REMARK  15 active torsions:
REMARK  status: ('A' for Active; 'I' for Inactive)
REMARK    1  A    between atoms: O_2  and  C_18 
REMARK    2  A    between atoms: O_2  and  C_22 
REMARK    3  A    between atoms: O_4  and  C_14 
REMARK    4  A    between atoms: O_5  and  C_21 
REMARK    5  A    between atoms: O_5  and  C_25 
REMARK    6  A    between atoms: O_6  and  C_15 
REMARK    7  A    between atoms: O_7  and  C_16 
REMARK    8  A    between atoms: O_8  and  C_17 
REMARK    9  A    between atoms: O_9  and  C_19 
REMARK   10  A    between atoms: O_10  and  C_20 
REMARK   11  A    between atoms: O_11  and  C_30 
REMARK   12  A    between atoms: O_12  and  C_32 
REMARK   13  A    between atoms: C_13  and  C_22 
REMARK   14  A    between atoms: C_25  and  C_26 
REMARK   15  A    between atoms: C_26  and  C_27 
ROOT
HETATM    1  O   UNK     0      13.500   3.568  25.088  0.00  0.00    -0.348 OA
HETATM    2  C   UNK     0      13.602   4.955  25.416  0.00  0.00     0.180 C 
HETATM    3  C   UNK     0      15.061   5.316  25.702  0.00  0.00     0.180 C 
HETATM    4  C   UNK     0      15.636   4.427  26.805  0.00  0.00     0.183 C 
HETATM    5  C   UNK     0      15.356   2.951  26.526  0.00  0.00     0.204 C 
HETATM    6  C   UNK     0      13.889   2.720  26.167  0.00  0.00     0.291 C 
ENDROOT
BRANCH   2   7
HETATM    7  C   UNK     0      13.043   5.749  24.240  0.00  0.00     0.205 C 
BRANCH   7   8
HETATM    8  O   UNK     0      13.203   4.988  23.051  0.00  0.00    -0.356 OA
BRANCH   8   9
HETATM    9  C   UNK     0      11.963   4.811  22.375  0.00  0.00     0.291 C 
HETATM   10  O   UNK     0      11.767   3.463  21.937  0.00  0.00    -0.351 OA
HETATM   11  C   UNK     0      12.711   3.022  20.955  0.00  0.00     0.152 C 
HETATM   12  C   UNK     0      12.655   3.906  19.701  0.00  0.00     0.178 C 
HETATM   13  C   UNK     0      12.381   1.564  20.643  0.00  0.00     0.042 C 
HETATM   14  C   UNK     0      12.844   5.374  20.084  0.00  0.00     0.183 C 
HETATM   15  C   UNK     0      11.875   5.779  21.196  0.00  0.00     0.204 C 
BRANCH  12  16
HETATM   16  O   UNK     0      13.695   3.546  18.797  0.00  0.00    -0.390 OA
HETATM   17  H   UNK     0      13.563   4.043  17.971  0.00  0.00     0.210 HD
ENDBRANCH  12  16
BRANCH  14  18
HETATM   18  O   UNK     0      12.632   6.190  18.935  0.00  0.00    -0.390 OA
HETATM   19  H   UNK     0      13.247   5.889  18.244  0.00  0.00     0.210 HD
ENDBRANCH  14  18
BRANCH  15  20
HETATM   20  O   UNK     0      10.533   5.749  20.708  0.00  0.00    -0.388 OA
HETATM   21  H   UNK     0      10.351   6.609  20.294  0.00  0.00     0.210 HD
ENDBRANCH  15  20
ENDBRANCH   8   9
ENDBRANCH   7   8
ENDBRANCH   2   7
BRANCH   6  22
HETATM   22  O   UNK     0      13.739   1.353  25.784  0.00  0.00    -0.358 OA
BRANCH  22  23
HETATM   23  C   UNK     0      13.100   1.238  24.522  0.00  0.00     0.175 C 
BRANCH  23  24
HETATM   24  C   UNK     0      12.597  -0.188  24.329  0.00  0.00     0.065 C 
BRANCH  24  25
HETATM   25  C   UNK     0      11.155  -0.349  24.744  0.00  0.00    -0.053 A 
HETATM   26  C   UNK     0      10.156   0.367  24.087  0.00  0.00     0.046 A 
HETATM   27  C   UNK     0       8.823   0.216  24.470  0.00  0.00     0.099 A 
HETATM   28  C   UNK     0       8.490  -0.651  25.510  0.00  0.00     0.098 A 
HETATM   29  C   UNK     0       9.490  -1.368  26.167  0.00  0.00     0.040 A 
HETATM   30  C   UNK     0      10.822  -1.218  25.784  0.00  0.00     0.010 A 
BRANCH  27  31
HETATM   31  O   UNK     0       7.855   0.920  23.819  0.00  0.00    -0.358 OA
HETATM   32  H   UNK     0       7.749   1.786  24.250  0.00  0.00     0.217 HD
ENDBRANCH  27  31
BRANCH  28  33
HETATM   33  O   UNK     0       7.191  -0.807  25.893  0.00  0.00    -0.358 OA
HETATM   34  H   UNK     0       6.932  -1.735  25.761  0.00  0.00     0.217 HD
ENDBRANCH  28  33
ENDBRANCH  24  25
ENDBRANCH  23  24
ENDBRANCH  22  23
ENDBRANCH   6  22
BRANCH   3  35
HETATM   35  O   UNK     0      15.137   6.680  26.108  0.00  0.00    -0.390 OA
HETATM   36  H   UNK     0      15.764   7.135  25.520  0.00  0.00     0.210 HD
ENDBRANCH   3  35
BRANCH   5  37
HETATM   37  O   UNK     0      15.656   2.183  27.692  0.00  0.00    -0.388 OA
HETATM   38  H   UNK     0      15.626   1.241  27.449  0.00  0.00     0.210 HD
ENDBRANCH   5  37
BRANCH   4  39
HETATM   39  O   UNK     0      17.047   4.643  26.857  0.00  0.00    -0.390 OA
HETATM   40  H   UNK     0      17.237   5.222  27.614  0.00  0.00     0.210 HD
ENDBRANCH   4  39
TORSDOF 15
ENDMDL
MODEL 10
REMARK VINA RESULT:      -7.4      2.565      6.955
REMARK  15 active torsions:
REMARK  status: ('A' for Active; 'I' for Inactive)
REMARK    1  A    between atoms: O_2  and  C_18 
REMARK    2  A    between atoms: O_2  and  C_22 
REMARK    3  A    between atoms: O_4  and  C_14 
REMARK    4  A    between atoms: O_5  and  C_21 
REMARK    5  A    between atoms: O_5  and  C_25 
REMARK    6  A    between atoms: O_6  and  C_15 
REMARK    7  A    between atoms: O_7  and  C_16 
REMARK    8  A    between atoms: O_8  and  C_17 
REMARK    9  A    between atoms: O_9  and  C_19 
REMARK   10  A    between atoms: O_10  and  C_20 
REMARK   11  A    between atoms: O_11  and  C_30 
REMARK   12  A    between atoms: O_12  and  C_32 
REMARK   13  A    between atoms: C_13  and  C_22 
REMARK   14  A    between atoms: C_25  and  C_26 
REMARK   15  A    between atoms: C_26  and  C_27 
ROOT
HETATM    1  O   UNK     0      10.360  -1.173  23.581  0.00  0.00    -0.348 OA
HETATM    2  C   UNK     0       9.265  -0.416  23.064  0.00  0.00     0.180 C 
HETATM    3  C   UNK     0       8.499   0.244  24.213  0.00  0.00     0.180 C 
HETATM    4  C   UNK     0       8.039  -0.800  25.230  0.00  0.00     0.183 C 
HETATM    5  C   UNK     0       9.189  -1.720  25.636  0.00  0.00     0.204 C 
HETATM    6  C   UNK     0       9.936  -2.250  24.413  0.00  0.00     0.291 C 
ENDROOT
BRANCH   2   7
HETATM    7  C   UNK     0       9.834   0.617  22.097  0.00  0.00     0.205 C 
BRANCH   7   8
HETATM    8  O   UNK     0       9.310   0.375  20.799  0.00  0.00    -0.356 OA
BRANCH   8   9
HETATM    9  C   UNK     0      10.252  -0.304  19.976  0.00  0.00     0.291 C 
HETATM   10  O   UNK     0      11.427   0.475  19.734  0.00  0.00    -0.351 OA
HETATM   11  C   UNK     0      11.191   1.678  18.993  0.00  0.00     0.152 C 
HETATM   12  C   UNK     0      10.576   1.369  17.621  0.00  0.00     0.178 C 
HETATM   13  C   UNK     0      12.533   2.396  18.871  0.00  0.00     0.042 C 
HETATM   14  C   UNK     0       9.314   0.523  17.790  0.00  0.00     0.183 C 
HETATM   15  C   UNK     0       9.590  -0.706  18.659  0.00  0.00     0.204 C 
BRANCH  12  16
HETATM   16  O   UNK     0      10.215   2.578  16.959  0.00  0.00    -0.390 OA
HETATM   17  H   UNK     0       9.339   2.850  17.285  0.00  0.00     0.210 HD
ENDBRANCH  12  16
BRANCH  14  18
HETATM   18  O   UNK     0       8.848   0.115  16.506  0.00  0.00    -0.390 OA
HETATM   19  H   UNK     0       9.621   0.050  15.920  0.00  0.00     0.210 HD
ENDBRANCH  14  18
BRANCH  15  20
HETATM   20  O   UNK     0      10.479  -1.593  17.979  0.00  0.00    -0.388 OA
HETATM   21  H   UNK     0      11.336  -1.558  18.435  0.00  0.00     0.210 HD
ENDBRANCH  15  20
ENDBRANCH   8   9
ENDBRANCH   7   8
ENDBRANCH   2   7
BRANCH   6  22
HETATM   22  O   UNK     0      11.074  -2.980  24.874  0.00  0.00    -0.358 OA
BRANCH  22  23
HETATM   23  C   UNK     0      11.713  -3.666  23.809  0.00  0.00     0.175 C 
BRANCH  23  24
HETATM   24  C   UNK     0      10.677  -4.433  22.996  0.00  0.00     0.065 C 
BRANCH  24  25
HETATM   25  C   UNK     0      11.133  -4.689  21.580  0.00  0.00    -0.053 A 
HETATM   26  C   UNK     0      10.925  -5.938  20.995  0.00  0.00     0.046 A 
HETATM   27  C   UNK     0      11.344  -6.173  19.686  0.00  0.00     0.099 A 
HETATM   28  C   UNK     0      11.973  -5.160  18.962  0.00  0.00     0.098 A 
HETATM   29  C   UNK     0      12.181  -3.911  19.548  0.00  0.00     0.040 A 
HETATM   30  C   UNK     0      11.761  -3.675  20.856  0.00  0.00     0.010 A 
BRANCH  27  31
HETATM   31  O   UNK     0      11.134  -7.396  19.124  0.00  0.00    -0.358 OA
HETATM   32  H   UNK     0      11.480  -8.082  19.721  0.00  0.00     0.217 HD
ENDBRANCH  27  31
BRANCH  28  33
HETATM   33  O   UNK     0      12.387  -5.378  17.682  0.00  0.00    -0.358 OA
HETATM   34  H   UNK     0      13.355  -5.480  17.676  0.00  0.00     0.217 HD
ENDBRANCH  28  33
ENDBRANCH  24  25
ENDBRANCH  23  24
ENDBRANCH  22  23
ENDBRANCH   6  22
BRANCH   3  35
HETATM   35  O   UNK     0       7.362   0.927  23.690  0.00  0.00    -0.390 OA
HETATM   36  H   UNK     0       7.534   1.124  22.754  0.00  0.00     0.210 HD
ENDBRANCH   3  35
BRANCH   5  37
HETATM   37  O   UNK     0       8.671  -2.835  26.361  0.00  0.00    -0.388 OA
HETATM   38  H   UNK     0       8.794  -3.632  25.817  0.00  0.00     0.210 HD
ENDBRANCH   5  37
BRANCH   4  39
HETATM   39  O   UNK     0       7.552  -0.110  26.383  0.00  0.00    -0.390 OA
HETATM   40  H   UNK     0       6.779   0.417  26.116  0.00  0.00     0.210 HD
ENDBRANCH   4  39
TORSDOF 15
ENDMDL
