MODEL 1
REMARK VINA RESULT:      -6.8      0.000      0.000
REMARK  4 active torsions:
REMARK  status: ('A' for Active; 'I' for Inactive)
REMARK    1  A    between atoms: O_2  and  C_9 
REMARK    2  A    between atoms: O_3  and  C_14 
REMARK    3  A    between atoms: O_4  and  C_15 
REMARK    4  A    between atoms: C_8  and  C_12 
ROOT
HETATM    1  O   UNK     0       9.816  -1.704  20.363  0.00  0.00    -0.309 OA
HETATM    2  O   UNK     0      11.840   1.625  21.555  0.00  0.00    -0.287 OA
HETATM    3  C   UNK     0      10.636   0.522  19.846  0.00  0.00     0.084 A 
HETATM    4  C   UNK     0       9.957  -0.645  19.504  0.00  0.00     0.096 A 
HETATM    5  C   UNK     0      10.384  -1.610  21.625  0.00  0.00     0.090 A 
HETATM    6  C   UNK     0      10.747   1.570  18.930  0.00  0.00     0.118 A 
HETATM    7  C   UNK     0      11.232   0.629  21.187  0.00  0.00     0.190 A 
HETATM    8  C   UNK     0      11.056  -0.538  22.074  0.00  0.00     0.094 A 
HETATM    9  C   UNK     0       9.381  -0.771  18.239  0.00  0.00     0.077 A 
HETATM   10  C   UNK     0      10.171   1.442  17.665  0.00  0.00     0.133 A 
HETATM   11  C   UNK     0       9.490   0.274  17.321  0.00  0.00     0.104 A 
ENDROOT
BRANCH   5  12
HETATM   12  C   UNK     0      10.168  -2.803  22.470  0.00  0.00    -0.002 A 
HETATM   13  C   UNK     0       9.189  -2.789  23.466  0.00  0.00     0.014 A 
HETATM   14  C   UNK     0       8.985  -3.915  24.265  0.00  0.00     0.001 A 
HETATM   15  C   UNK     0       9.761  -5.057  24.069  0.00  0.00     0.000 A 
HETATM   16  C   UNK     0      10.739  -5.075  23.075  0.00  0.00     0.001 A 
HETATM   17  C   UNK     0      10.943  -3.949  22.278  0.00  0.00     0.014 A 
ENDBRANCH   5  12
BRANCH   6  18
HETATM   18  O   UNK     0      11.406   2.727  19.229  0.00  0.00    -0.357 OA
HETATM   19  H   UNK     0      10.791   3.391  19.578  0.00  0.00     0.217 HD
ENDBRANCH   6  18
BRANCH  11  20
HETATM   20  O   UNK     0       8.925   0.140  16.088  0.00  0.00    -0.358 OA
HETATM   21  H   UNK     0       9.634  -0.035  15.444  0.00  0.00     0.217 HD
ENDBRANCH  11  20
BRANCH  10  22
HETATM   22  O   UNK     0      10.272   2.458  16.761  0.00  0.00    -0.356 OA
HETATM   23  H   UNK     0      11.027   2.274  16.174  0.00  0.00     0.218 HD
ENDBRANCH  10  22
TORSDOF 4
ENDMDL
MODEL 2
REMARK VINA RESULT:      -6.8      3.316      6.978
REMARK  4 active torsions:
REMARK  status: ('A' for Active; 'I' for Inactive)
REMARK    1  A    between atoms: O_2  and  C_9 
REMARK    2  A    between atoms: O_3  and  C_14 
REMARK    3  A    between atoms: O_4  and  C_15 
REMARK    4  A    between atoms: C_8  and  C_12 
ROOT
HETATM    1  O   UNK     0       9.903  -0.158  22.312  0.00  0.00    -0.309 OA
HETATM    2  O   UNK     0       7.806   1.812  25.196  0.00  0.00    -0.287 OA
HETATM    3  C   UNK     0       8.472  -0.258  24.271  0.00  0.00     0.084 A 
HETATM    4  C   UNK     0       9.210  -0.868  23.258  0.00  0.00     0.096 A 
HETATM    5  C   UNK     0       9.860   1.227  22.362  0.00  0.00     0.090 A 
HETATM    6  C   UNK     0       7.786  -1.032  25.210  0.00  0.00     0.118 A 
HETATM    7  C   UNK     0       8.431   1.211  24.334  0.00  0.00     0.190 A 
HETATM    8  C   UNK     0       9.191   1.930  23.291  0.00  0.00     0.094 A 
HETATM    9  C   UNK     0       9.266  -2.260  23.178  0.00  0.00     0.077 A 
HETATM   10  C   UNK     0       7.843  -2.424  25.127  0.00  0.00     0.133 A 
HETATM   11  C   UNK     0       8.582  -3.036  24.113  0.00  0.00     0.104 A 
ENDROOT
BRANCH   5  12
HETATM   12  C   UNK     0      10.644   1.891  21.301  0.00  0.00    -0.002 A 
HETATM   13  C   UNK     0      10.980   1.196  20.137  0.00  0.00     0.014 A 
HETATM   14  C   UNK     0      11.721   1.822  19.135  0.00  0.00     0.001 A 
HETATM   15  C   UNK     0      12.129   3.146  19.294  0.00  0.00     0.000 A 
HETATM   16  C   UNK     0      11.796   3.844  20.455  0.00  0.00     0.001 A 
HETATM   17  C   UNK     0      11.056   3.217  21.457  0.00  0.00     0.014 A 
ENDBRANCH   5  12
BRANCH   6  18
HETATM   18  O   UNK     0       7.053  -0.471  26.214  0.00  0.00    -0.357 OA
HETATM   19  H   UNK     0       6.662   0.368  25.926  0.00  0.00     0.217 HD
ENDBRANCH   6  18
BRANCH  11  20
HETATM   20  O   UNK     0       8.643  -4.395  24.024  0.00  0.00    -0.358 OA
HETATM   21  H   UNK     0       8.838  -4.633  23.101  0.00  0.00     0.217 HD
ENDBRANCH  11  20
BRANCH  10  22
HETATM   22  O   UNK     0       7.178  -3.192  26.037  0.00  0.00    -0.356 OA
HETATM   23  H   UNK     0       7.832  -3.715  26.534  0.00  0.00     0.218 HD
ENDBRANCH  10  22
TORSDOF 4
ENDMDL
MODEL 3
REMARK VINA RESULT:      -6.7      2.852      4.513
REMARK  4 active torsions:
REMARK  status: ('A' for Active; 'I' for Inactive)
REMARK    1  A    between atoms: O_2  and  C_9 
REMARK    2  A    between atoms: O_3  and  C_14 
REMARK    3  A    between atoms: O_4  and  C_15 
REMARK    4  A    between atoms: C_8  and  C_12 
ROOT
HETATM    1  O   UNK     0       9.116  -2.456  23.645  0.00  0.00    -0.309 OA
HETATM    2  O   UNK     0       7.613   0.446  26.077  0.00  0.00    -0.287 OA
HETATM    3  C   UNK     0       8.777  -0.094  24.093  0.00  0.00     0.084 A 
HETATM    4  C   UNK     0       9.266  -1.136  23.307  0.00  0.00     0.096 A 
HETATM    5  C   UNK     0       8.456  -2.765  24.825  0.00  0.00     0.090 A 
HETATM    6  C   UNK     0       8.959   1.234  23.698  0.00  0.00     0.118 A 
HETATM    7  C   UNK     0       8.069  -0.418  25.341  0.00  0.00     0.190 A 
HETATM    8  C   UNK     0       7.936  -1.853  25.662  0.00  0.00     0.094 A 
HETATM    9  C   UNK     0       9.939  -0.856  22.118  0.00  0.00     0.077 A 
HETATM   10  C   UNK     0       9.634   1.511  22.508  0.00  0.00     0.133 A 
HETATM   11  C   UNK     0      10.122   0.468  21.721  0.00  0.00     0.104 A 
ENDROOT
BRANCH   5  12
HETATM   12  C   UNK     0       8.346  -4.214  25.090  0.00  0.00    -0.002 A 
HETATM   13  C   UNK     0       9.354  -4.878  25.793  0.00  0.00     0.014 A 
HETATM   14  C   UNK     0       9.251  -6.247  26.043  0.00  0.00     0.001 A 
HETATM   15  C   UNK     0       8.138  -6.956  25.589  0.00  0.00     0.000 A 
HETATM   16  C   UNK     0       7.130  -6.297  24.886  0.00  0.00     0.001 A 
HETATM   17  C   UNK     0       7.234  -4.928  24.636  0.00  0.00     0.014 A 
ENDBRANCH   5  12
BRANCH   6  18
HETATM   18  O   UNK     0       8.496   2.279  24.441  0.00  0.00    -0.357 OA
HETATM   19  H   UNK     0       9.232   2.798  24.801  0.00  0.00     0.217 HD
ENDBRANCH   6  18
BRANCH  11  20
HETATM   20  O   UNK     0      10.783   0.731  20.557  0.00  0.00    -0.358 OA
HETATM   21  H   UNK     0      10.963   1.687  20.517  0.00  0.00     0.217 HD
ENDBRANCH  11  20
BRANCH  10  22
HETATM   22  O   UNK     0       9.816   2.803  22.111  0.00  0.00    -0.356 OA
HETATM   23  H   UNK     0       9.007   3.305  22.315  0.00  0.00     0.218 HD
ENDBRANCH  10  22
TORSDOF 4
ENDMDL
MODEL 4
REMARK VINA RESULT:      -6.6      2.292      3.914
REMARK  4 active torsions:
REMARK  status: ('A' for Active; 'I' for Inactive)
REMARK    1  A    between atoms: O_2  and  C_9 
REMARK    2  A    between atoms: O_3  and  C_14 
REMARK    3  A    between atoms: O_4  and  C_15 
REMARK    4  A    between atoms: C_8  and  C_12 
ROOT
HETATM    1  O   UNK     0      11.848  -1.104  19.497  0.00  0.00    -0.309 OA
HETATM    2  O   UNK     0       9.569  -0.030  16.295  0.00  0.00    -0.287 OA
HETATM    3  C   UNK     0      10.921   0.658  18.107  0.00  0.00     0.084 A 
HETATM    4  C   UNK     0      11.686   0.222  19.187  0.00  0.00     0.096 A 
HETATM    5  C   UNK     0      11.214  -2.050  18.705  0.00  0.00     0.090 A 
HETATM    6  C   UNK     0      10.792   2.023  17.837  0.00  0.00     0.118 A 
HETATM    7  C   UNK     0      10.253  -0.343  17.259  0.00  0.00     0.190 A 
HETATM    8  C   UNK     0      10.456  -1.756  17.637  0.00  0.00     0.094 A 
HETATM    9  C   UNK     0      12.331   1.150  20.005  0.00  0.00     0.077 A 
HETATM   10  C   UNK     0      11.437   2.950  18.658  0.00  0.00     0.133 A 
HETATM   11  C   UNK     0      12.204   2.514  19.738  0.00  0.00     0.104 A 
ENDROOT
BRANCH   5  12
HETATM   12  C   UNK     0      11.459  -3.445  19.125  0.00  0.00    -0.002 A 
HETATM   13  C   UNK     0      11.056  -3.879  20.390  0.00  0.00     0.014 A 
HETATM   14  C   UNK     0      11.287  -5.196  20.787  0.00  0.00     0.001 A 
HETATM   15  C   UNK     0      11.923  -6.083  19.918  0.00  0.00     0.000 A 
HETATM   16  C   UNK     0      12.327  -5.654  18.654  0.00  0.00     0.001 A 
HETATM   17  C   UNK     0      12.096  -4.336  18.259  0.00  0.00     0.014 A 
ENDBRANCH   5  12
BRANCH   6  18
HETATM   18  O   UNK     0      10.051   2.486  16.791  0.00  0.00    -0.357 OA
HETATM   19  H   UNK     0       9.471   3.211  17.075  0.00  0.00     0.217 HD
ENDBRANCH   6  18
BRANCH  11  20
HETATM   20  O   UNK     0      12.837   3.412  20.545  0.00  0.00    -0.358 OA
HETATM   21  H   UNK     0      12.209   3.704  21.229  0.00  0.00     0.217 HD
ENDBRANCH  11  20
BRANCH  10  22
HETATM   22  O   UNK     0      11.320   4.284  18.405  0.00  0.00    -0.356 OA
HETATM   23  H   UNK     0      11.822   4.771  19.083  0.00  0.00     0.218 HD
ENDBRANCH  10  22
TORSDOF 4
ENDMDL
MODEL 5
REMARK VINA RESULT:      -6.5      2.602      3.608
REMARK  4 active torsions:
REMARK  status: ('A' for Active; 'I' for Inactive)
REMARK    1  A    between atoms: O_2  and  C_9 
REMARK    2  A    between atoms: O_3  and  C_14 
REMARK    3  A    between atoms: O_4  and  C_15 
REMARK    4  A    between atoms: C_8  and  C_12 
ROOT
HETATM    1  O   UNK     0       9.259   0.047  21.178  0.00  0.00    -0.309 OA
HETATM    2  O   UNK     0      12.655  -2.185  21.470  0.00  0.00    -0.287 OA
HETATM    3  C   UNK     0      11.098  -1.089  20.071  0.00  0.00     0.084 A 
HETATM    4  C   UNK     0       9.933  -0.326  20.043  0.00  0.00     0.096 A 
HETATM    5  C   UNK     0       9.758  -0.362  22.406  0.00  0.00     0.090 A 
HETATM    6  C   UNK     0      11.743  -1.438  18.882  0.00  0.00     0.118 A 
HETATM    7  C   UNK     0      11.635  -1.517  21.372  0.00  0.00     0.190 A 
HETATM    8  C   UNK     0      10.873  -1.093  22.564  0.00  0.00     0.094 A 
HETATM    9  C   UNK     0       9.404   0.095  18.822  0.00  0.00     0.077 A 
HETATM   10  C   UNK     0      11.212  -1.017  17.662  0.00  0.00     0.133 A 
HETATM   11  C   UNK     0      10.045  -0.252  17.633  0.00  0.00     0.104 A 
ENDROOT
BRANCH   5  12
HETATM   12  C   UNK     0       8.960   0.098  23.560  0.00  0.00    -0.002 A 
HETATM   13  C   UNK     0       8.686   1.457  23.727  0.00  0.00     0.014 A 
HETATM   14  C   UNK     0       7.932   1.893  24.818  0.00  0.00     0.001 A 
HETATM   15  C   UNK     0       7.451   0.968  25.745  0.00  0.00     0.000 A 
HETATM   16  C   UNK     0       7.722  -0.390  25.582  0.00  0.00     0.001 A 
HETATM   17  C   UNK     0       8.476  -0.824  24.492  0.00  0.00     0.014 A 
ENDBRANCH   5  12
BRANCH   6  18
HETATM   18  O   UNK     0      12.885  -2.184  18.871  0.00  0.00    -0.357 OA
HETATM   19  H   UNK     0      13.355  -2.106  19.715  0.00  0.00     0.217 HD
ENDBRANCH   6  18
BRANCH  11  20
HETATM   20  O   UNK     0       9.519   0.163  16.446  0.00  0.00    -0.358 OA
HETATM   21  H   UNK     0       8.581   0.385  16.588  0.00  0.00     0.217 HD
ENDBRANCH  11  20
BRANCH  10  22
HETATM   22  O   UNK     0      11.832  -1.350  16.495  0.00  0.00    -0.356 OA
HETATM   23  H   UNK     0      11.244  -1.112  15.755  0.00  0.00     0.218 HD
ENDBRANCH  10  22
TORSDOF 4
ENDMDL
MODEL 6
REMARK VINA RESULT:      -6.4      2.956      5.932
REMARK  4 active torsions:
REMARK  status: ('A' for Active; 'I' for Inactive)
REMARK    1  A    between atoms: O_2  and  C_9 
REMARK    2  A    between atoms: O_3  and  C_14 
REMARK    3  A    between atoms: O_4  and  C_15 
REMARK    4  A    between atoms: C_8  and  C_12 
ROOT
HETATM    1  O   UNK     0       9.506  -1.643  21.524  0.00  0.00    -0.309 OA
HETATM    2  O   UNK     0       9.469   2.348  22.339  0.00  0.00    -0.287 OA
HETATM    3  C   UNK     0       9.064   0.149  23.102  0.00  0.00     0.084 A 
HETATM    4  C   UNK     0       9.101  -1.201  22.757  0.00  0.00     0.096 A 
HETATM    5  C   UNK     0       9.887  -0.704  20.578  0.00  0.00     0.090 A 
HETATM    6  C   UNK     0       8.643   0.542  24.374  0.00  0.00     0.118 A 
HETATM    7  C   UNK     0       9.475   1.148  22.103  0.00  0.00     0.190 A 
HETATM    8  C   UNK     0       9.900   0.622  20.790  0.00  0.00     0.094 A 
HETATM    9  C   UNK     0       8.718  -2.168  23.687  0.00  0.00     0.077 A 
HETATM   10  C   UNK     0       8.260  -0.427  25.302  0.00  0.00     0.133 A 
HETATM   11  C   UNK     0       8.297  -1.779  24.958  0.00  0.00     0.104 A 
ENDROOT
BRANCH   5  12
HETATM   12  C   UNK     0      10.309  -1.289  19.289  0.00  0.00    -0.002 A 
HETATM   13  C   UNK     0       9.646  -0.940  18.109  0.00  0.00     0.014 A 
HETATM   14  C   UNK     0      10.044  -1.491  16.891  0.00  0.00     0.001 A 
HETATM   15  C   UNK     0      11.107  -2.395  16.850  0.00  0.00     0.000 A 
HETATM   16  C   UNK     0      11.771  -2.746  18.025  0.00  0.00     0.001 A 
HETATM   17  C   UNK     0      11.372  -2.194  19.243  0.00  0.00     0.014 A 
ENDBRANCH   5  12
BRANCH   6  18
HETATM   18  O   UNK     0       8.593   1.853  24.747  0.00  0.00    -0.357 OA
HETATM   19  H   UNK     0       7.740   2.061  25.159  0.00  0.00     0.217 HD
ENDBRANCH   6  18
BRANCH  11  20
HETATM   20  O   UNK     0       7.924  -2.733  25.859  0.00  0.00    -0.358 OA
HETATM   21  H   UNK     0       7.333  -3.362  25.409  0.00  0.00     0.217 HD
ENDBRANCH  11  20
BRANCH  10  22
HETATM   22  O   UNK     0       7.848  -0.057  26.548  0.00  0.00    -0.356 OA
HETATM   23  H   UNK     0       8.423   0.665  26.860  0.00  0.00     0.218 HD
ENDBRANCH  10  22
TORSDOF 4
ENDMDL
MODEL 7
REMARK VINA RESULT:      -6.4      5.361      8.100
REMARK  4 active torsions:
REMARK  status: ('A' for Active; 'I' for Inactive)
REMARK    1  A    between atoms: O_2  and  C_9 
REMARK    2  A    between atoms: O_3  and  C_14 
REMARK    3  A    between atoms: O_4  and  C_15 
REMARK    4  A    between atoms: C_8  and  C_12 
ROOT
HETATM    1  O   UNK     0       8.368  -3.058  25.269  0.00  0.00    -0.309 OA
HETATM    2  O   UNK     0      12.248  -3.873  24.333  0.00  0.00    -0.287 OA
HETATM    3  C   UNK     0      10.156  -4.689  25.067  0.00  0.00     0.084 A 
HETATM    4  C   UNK     0       8.841  -4.341  25.370  0.00  0.00     0.096 A 
HETATM    5  C   UNK     0       9.241  -2.063  24.855  0.00  0.00     0.090 A 
HETATM    6  C   UNK     0      10.582  -6.014  25.187  0.00  0.00     0.118 A 
HETATM    7  C   UNK     0      11.082  -3.638  24.618  0.00  0.00     0.190 A 
HETATM    8  C   UNK     0      10.526  -2.273  24.529  0.00  0.00     0.094 A 
HETATM    9  C   UNK     0       7.942  -5.319  25.796  0.00  0.00     0.077 A 
HETATM   10  C   UNK     0       9.681  -6.990  25.614  0.00  0.00     0.133 A 
HETATM   11  C   UNK     0       8.364  -6.643  25.918  0.00  0.00     0.104 A 
ENDROOT
BRANCH   5  12
HETATM   12  C   UNK     0       8.628  -0.721  24.776  0.00  0.00    -0.002 A 
HETATM   13  C   UNK     0       7.409  -0.469  25.409  0.00  0.00     0.014 A 
HETATM   14  C   UNK     0       6.829   0.798  25.335  0.00  0.00     0.001 A 
HETATM   15  C   UNK     0       7.468   1.816  24.627  0.00  0.00     0.000 A 
HETATM   16  C   UNK     0       8.685   1.568  23.994  0.00  0.00     0.001 A 
HETATM   17  C   UNK     0       9.264   0.301  24.068  0.00  0.00     0.014 A 
ENDBRANCH   5  12
BRANCH   6  18
HETATM   18  O   UNK     0      11.860  -6.391  24.899  0.00  0.00    -0.357 OA
HETATM   19  H   UNK     0      12.442  -5.617  24.837  0.00  0.00     0.217 HD
ENDBRANCH   6  18
BRANCH  11  20
HETATM   20  O   UNK     0       7.477  -7.590  26.336  0.00  0.00    -0.358 OA
HETATM   21  H   UNK     0       6.923  -7.202  27.036  0.00  0.00     0.217 HD
ENDBRANCH  11  20
BRANCH  10  22
HETATM   22  O   UNK     0      10.084  -8.287  25.734  0.00  0.00    -0.356 OA
HETATM   23  H   UNK     0      11.034  -8.295  25.948  0.00  0.00     0.218 HD
ENDBRANCH  10  22
TORSDOF 4
ENDMDL
MODEL 8
REMARK VINA RESULT:      -6.3      3.445      5.545
REMARK  4 active torsions:
REMARK  status: ('A' for Active; 'I' for Inactive)
REMARK    1  A    between atoms: O_2  and  C_9 
REMARK    2  A    between atoms: O_3  and  C_14 
REMARK    3  A    between atoms: O_4  and  C_15 
REMARK    4  A    between atoms: C_8  and  C_12 
ROOT
HETATM    1  O   UNK     0      12.500   1.624  20.902  0.00  0.00    -0.309 OA
HETATM    2  O   UNK     0      11.177   4.520  18.361  0.00  0.00    -0.287 OA
HETATM    3  C   UNK     0      11.338   2.215  18.854  0.00  0.00     0.084 A 
HETATM    4  C   UNK     0      11.817   1.276  19.765  0.00  0.00     0.096 A 
HETATM    5  C   UNK     0      12.730   2.969  21.149  0.00  0.00     0.090 A 
HETATM    6  C   UNK     0      10.646   1.802  17.712  0.00  0.00     0.118 A 
HETATM    7  C   UNK     0      11.572   3.643  19.116  0.00  0.00     0.190 A 
HETATM    8  C   UNK     0      12.314   3.966  20.351  0.00  0.00     0.094 A 
HETATM    9  C   UNK     0      11.606  -0.085  19.540  0.00  0.00     0.077 A 
HETATM   10  C   UNK     0      10.438   0.440  17.489  0.00  0.00     0.133 A 
HETATM   11  C   UNK     0      10.917  -0.500  18.401  0.00  0.00     0.104 A 
ENDROOT
BRANCH   5  12
HETATM   12  C   UNK     0      13.469   3.231  22.401  0.00  0.00    -0.002 A 
HETATM   13  C   UNK     0      13.939   2.167  23.175  0.00  0.00     0.014 A 
HETATM   14  C   UNK     0      14.636   2.414  24.357  0.00  0.00     0.001 A 
HETATM   15  C   UNK     0      14.866   3.727  24.769  0.00  0.00     0.000 A 
HETATM   16  C   UNK     0      14.398   4.792  24.000  0.00  0.00     0.001 A 
HETATM   17  C   UNK     0      13.700   4.544  22.817  0.00  0.00     0.014 A 
ENDBRANCH   5  12
BRANCH   6  18
HETATM   18  O   UNK     0      10.164   2.692  16.798  0.00  0.00    -0.357 OA
HETATM   19  H   UNK     0      10.715   3.489  16.770  0.00  0.00     0.217 HD
ENDBRANCH   6  18
BRANCH  11  20
HETATM   20  O   UNK     0      10.718  -1.833  18.190  0.00  0.00    -0.358 OA
HETATM   21  H   UNK     0      11.426  -2.159  17.607  0.00  0.00     0.217 HD
ENDBRANCH  11  20
BRANCH  10  22
HETATM   22  O   UNK     0       9.764   0.025  16.379  0.00  0.00    -0.356 OA
HETATM   23  H   UNK     0       9.131   0.720  16.124  0.00  0.00     0.218 HD
ENDBRANCH  10  22
TORSDOF 4
ENDMDL
MODEL 9
REMARK VINA RESULT:      -6.3      4.278      5.580
REMARK  4 active torsions:
REMARK  status: ('A' for Active; 'I' for Inactive)
REMARK    1  A    between atoms: O_2  and  C_9 
REMARK    2  A    between atoms: O_3  and  C_14 
REMARK    3  A    between atoms: O_4  and  C_15 
REMARK    4  A    between atoms: C_8  and  C_12 
ROOT
HETATM    1  O   UNK     0      10.791   3.318  22.119  0.00  0.00    -0.309 OA
HETATM    2  O   UNK     0      14.113   4.433  24.197  0.00  0.00    -0.287 OA
HETATM    3  C   UNK     0      12.767   4.721  22.276  0.00  0.00     0.084 A 
HETATM    4  C   UNK     0      11.615   4.292  21.618  0.00  0.00     0.096 A 
HETATM    5  C   UNK     0      11.124   2.729  23.329  0.00  0.00     0.090 A 
HETATM    6  C   UNK     0      13.569   5.719  21.719  0.00  0.00     0.118 A 
HETATM    7  C   UNK     0      13.119   4.104  23.565  0.00  0.00     0.190 A 
HETATM    8  C   UNK     0      12.201   3.058  24.060  0.00  0.00     0.094 A 
HETATM    9  C   UNK     0      11.258   4.863  20.396  0.00  0.00     0.077 A 
HETATM   10  C   UNK     0      13.210   6.287  20.495  0.00  0.00     0.133 A 
HETATM   11  C   UNK     0      12.057   5.859  19.836  0.00  0.00     0.104 A 
ENDROOT
BRANCH   5  12
HETATM   12  C   UNK     0      10.167   1.697  23.777  0.00  0.00    -0.002 A 
HETATM   13  C   UNK     0      10.601   0.390  24.009  0.00  0.00     0.014 A 
HETATM   14  C   UNK     0       9.698  -0.585  24.433  0.00  0.00     0.001 A 
HETATM   15  C   UNK     0       8.356  -0.255  24.625  0.00  0.00     0.000 A 
HETATM   16  C   UNK     0       7.918   1.049  24.395  0.00  0.00     0.001 A 
HETATM   17  C   UNK     0       8.822   2.023  23.971  0.00  0.00     0.014 A 
ENDBRANCH   5  12
BRANCH   6  18
HETATM   18  O   UNK     0      14.703   6.163  22.333  0.00  0.00    -0.357 OA
HETATM   19  H   UNK     0      14.601   6.144  23.298  0.00  0.00     0.217 HD
ENDBRANCH   6  18
BRANCH  11  20
HETATM   20  O   UNK     0      11.700   6.409  18.641  0.00  0.00    -0.358 OA
HETATM   21  H   UNK     0      12.436   6.285  18.015  0.00  0.00     0.217 HD
ENDBRANCH  11  20
BRANCH  10  22
HETATM   22  O   UNK     0      13.985   7.263  19.941  0.00  0.00    -0.356 OA
HETATM   23  H   UNK     0      14.910   7.105  20.200  0.00  0.00     0.218 HD
ENDBRANCH  10  22
TORSDOF 4
ENDMDL
MODEL 10
REMARK VINA RESULT:      -6.3      2.515      3.831
REMARK  4 active torsions:
REMARK  status: ('A' for Active; 'I' for Inactive)
REMARK    1  A    between atoms: O_2  and  C_9 
REMARK    2  A    between atoms: O_3  and  C_14 
REMARK    3  A    between atoms: O_4  and  C_15 
REMARK    4  A    between atoms: C_8  and  C_12 
ROOT
HETATM    1  O   UNK     0      10.673  -1.961  20.522  0.00  0.00    -0.309 OA
HETATM    2  O   UNK     0       8.833   0.447  17.800  0.00  0.00    -0.287 OA
HETATM    3  C   UNK     0      10.289  -1.371  18.198  0.00  0.00     0.084 A 
HETATM    4  C   UNK     0      10.886  -2.158  19.182  0.00  0.00     0.096 A 
HETATM    5  C   UNK     0       9.835  -0.929  20.913  0.00  0.00     0.090 A 
HETATM    6  C   UNK     0      10.541  -1.618  16.846  0.00  0.00     0.118 A 
HETATM    7  C   UNK     0       9.391  -0.280  18.609  0.00  0.00     0.190 A 
HETATM    8  C   UNK     0       9.198  -0.108  20.063  0.00  0.00     0.094 A 
HETATM    9  C   UNK     0      11.739  -3.200  18.818  0.00  0.00     0.077 A 
HETATM   10  C   UNK     0      11.396  -2.660  16.485  0.00  0.00     0.133 A 
HETATM   11  C   UNK     0      11.993  -3.449  17.470  0.00  0.00     0.104 A 
ENDROOT
BRANCH   5  12
HETATM   12  C   UNK     0       9.673  -0.810  22.377  0.00  0.00    -0.002 A 
HETATM   13  C   UNK     0       9.183   0.374  22.935  0.00  0.00     0.014 A 
HETATM   14  C   UNK     0       9.030   0.487  24.316  0.00  0.00     0.001 A 
HETATM   15  C   UNK     0       9.366  -0.584  25.145  0.00  0.00     0.000 A 
HETATM   16  C   UNK     0       9.855  -1.767  24.592  0.00  0.00     0.001 A 
HETATM   17  C   UNK     0      10.009  -1.879  23.210  0.00  0.00     0.014 A 
ENDBRANCH   5  12
BRANCH   6  18
HETATM   18  O   UNK     0       9.976  -0.869  15.857  0.00  0.00    -0.357 OA
HETATM   19  H   UNK     0      10.512  -0.082  15.673  0.00  0.00     0.217 HD
ENDBRANCH   6  18
BRANCH  11  20
HETATM   20  O   UNK     0      12.831  -4.469  17.126  0.00  0.00    -0.358 OA
HETATM   21  H   UNK     0      12.582  -5.256  17.643  0.00  0.00     0.217 HD
ENDBRANCH  11  20
BRANCH  10  22
HETATM   22  O   UNK     0      11.650  -2.913  15.170  0.00  0.00    -0.356 OA
HETATM   23  H   UNK     0      11.510  -2.090  14.667  0.00  0.00     0.218 HD
ENDBRANCH  10  22
TORSDOF 4
ENDMDL
