MODEL 1
REMARK VINA RESULT:      -6.6      0.000      0.000
REMARK  4 active torsions:
REMARK  status: ('A' for Active; 'I' for Inactive)
REMARK    1  A    between atoms: O_2  and  C_9 
REMARK    2  A    between atoms: O_3  and  C_11 
REMARK    3  A    between atoms: O_4  and  C_14 
REMARK    4  A    between atoms: C_8  and  C_13 
ROOT
HETATM    1  O   UNK     0       9.199  -2.169  23.569  0.00  0.00    -0.306 OA
HETATM    2  O   UNK     0       7.102   0.163  26.170  0.00  0.00    -0.287 OA
HETATM    3  C   UNK     0       8.547   0.053  24.303  0.00  0.00     0.084 A 
HETATM    4  C   UNK     0       9.239  -0.802  23.448  0.00  0.00     0.129 A 
HETATM    5  C   UNK     0       8.443  -2.719  24.593  0.00  0.00     0.090 A 
HETATM    6  C   UNK     0      10.012  -0.278  22.412  0.00  0.00     0.136 A 
HETATM    7  C   UNK     0       7.737  -0.527  25.384  0.00  0.00     0.190 A 
HETATM    8  C   UNK     0       8.623   1.437  24.132  0.00  0.00     0.085 A 
HETATM    9  C   UNK     0       7.729  -2.001  25.474  0.00  0.00     0.094 A 
HETATM   10  C   UNK     0      10.091   1.105  22.237  0.00  0.00     0.104 A 
HETATM   11  C   UNK     0       9.398   1.960  23.095  0.00  0.00     0.077 A 
ENDROOT
BRANCH   5  12
HETATM   12  C   UNK     0       8.466  -4.195  24.629  0.00  0.00    -0.002 A 
HETATM   13  C   UNK     0       7.271  -4.914  24.703  0.00  0.00     0.014 A 
HETATM   14  C   UNK     0       7.291  -6.308  24.736  0.00  0.00     0.001 A 
HETATM   15  C   UNK     0       8.509  -6.988  24.695  0.00  0.00     0.000 A 
HETATM   16  C   UNK     0       9.705  -6.274  24.622  0.00  0.00     0.001 A 
HETATM   17  C   UNK     0       9.683  -4.880  24.589  0.00  0.00     0.014 A 
ENDBRANCH   5  12
BRANCH   6  18
HETATM   18  O   UNK     0      10.691  -1.108  21.570  0.00  0.00    -0.351 OA
HETATM   19  C   UNK     0      10.042  -1.467  20.352  0.00  0.00     0.210 C 
ENDBRANCH   6  18
BRANCH   8  20
HETATM   20  O   UNK     0       7.965   2.314  24.940  0.00  0.00    -0.360 OA
HETATM   21  H   UNK     0       7.238   1.871  25.402  0.00  0.00     0.217 HD
ENDBRANCH   8  20
BRANCH  10  22
HETATM   22  O   UNK     0      10.843   1.633  21.232  0.00  0.00    -0.358 OA
HETATM   23  H   UNK     0      10.489   2.508  20.996  0.00  0.00     0.217 HD
ENDBRANCH  10  22
TORSDOF 4
ENDMDL
MODEL 2
REMARK VINA RESULT:      -6.4      1.405      1.994
REMARK  4 active torsions:
REMARK  status: ('A' for Active; 'I' for Inactive)
REMARK    1  A    between atoms: O_2  and  C_9 
REMARK    2  A    between atoms: O_3  and  C_11 
REMARK    3  A    between atoms: O_4  and  C_14 
REMARK    4  A    between atoms: C_8  and  C_13 
ROOT
HETATM    1  O   UNK     0       9.222  -2.373  22.816  0.00  0.00    -0.306 OA
HETATM    2  O   UNK     0       8.745   1.267  24.583  0.00  0.00    -0.287 OA
HETATM    3  C   UNK     0       9.400   0.045  22.670  0.00  0.00     0.084 A 
HETATM    4  C   UNK     0       9.539  -1.230  22.125  0.00  0.00     0.129 A 
HETATM    5  C   UNK     0       8.753  -2.250  24.115  0.00  0.00     0.090 A 
HETATM    6  C   UNK     0      10.014  -1.386  20.823  0.00  0.00     0.136 A 
HETATM    7  C   UNK     0       8.894   0.179  24.043  0.00  0.00     0.190 A 
HETATM    8  C   UNK     0       9.737   1.174  21.919  0.00  0.00     0.085 A 
HETATM    9  C   UNK     0       8.571  -1.080  24.745  0.00  0.00     0.094 A 
HETATM   10  C   UNK     0      10.352  -0.261  20.069  0.00  0.00     0.104 A 
HETATM   11  C   UNK     0      10.213   1.016  20.616  0.00  0.00     0.077 A 
ENDROOT
BRANCH   5  12
HETATM   12  C   UNK     0       8.439  -3.540  24.764  0.00  0.00    -0.002 A 
HETATM   13  C   UNK     0       7.305  -4.260  24.382  0.00  0.00     0.014 A 
HETATM   14  C   UNK     0       7.008  -5.477  24.993  0.00  0.00     0.001 A 
HETATM   15  C   UNK     0       7.845  -5.979  25.990  0.00  0.00     0.000 A 
HETATM   16  C   UNK     0       8.978  -5.263  26.375  0.00  0.00     0.001 A 
HETATM   17  C   UNK     0       9.275  -4.045  25.763  0.00  0.00     0.014 A 
ENDBRANCH   5  12
BRANCH   6  18
HETATM   18  O   UNK     0      10.152  -2.630  20.283  0.00  0.00    -0.351 OA
HETATM   19  C   UNK     0      11.415  -3.271  20.448  0.00  0.00     0.210 C 
ENDBRANCH   6  18
BRANCH   8  20
HETATM   20  O   UNK     0       9.619   2.440  22.405  0.00  0.00    -0.360 OA
HETATM   21  H   UNK     0       9.191   3.016  21.754  0.00  0.00     0.217 HD
ENDBRANCH   8  20
BRANCH  10  22
HETATM   22  O   UNK     0      10.819  -0.395  18.797  0.00  0.00    -0.358 OA
HETATM   23  H   UNK     0      11.726  -0.746  18.827  0.00  0.00     0.217 HD
ENDBRANCH  10  22
TORSDOF 4
ENDMDL
MODEL 3
REMARK VINA RESULT:      -6.3      2.104      6.196
REMARK  4 active torsions:
REMARK  status: ('A' for Active; 'I' for Inactive)
REMARK    1  A    between atoms: O_2  and  C_9 
REMARK    2  A    between atoms: O_3  and  C_11 
REMARK    3  A    between atoms: O_4  and  C_14 
REMARK    4  A    between atoms: C_8  and  C_13 
ROOT
HETATM    1  O   UNK     0       9.294  -0.334  22.043  0.00  0.00    -0.306 OA
HETATM    2  O   UNK     0      10.711  -4.121  22.543  0.00  0.00    -0.287 OA
HETATM    3  C   UNK     0       9.592  -2.265  23.486  0.00  0.00     0.084 A 
HETATM    4  C   UNK     0       9.131  -0.972  23.247  0.00  0.00     0.129 A 
HETATM    5  C   UNK     0       9.953  -1.005  21.024  0.00  0.00     0.090 A 
HETATM    6  C   UNK     0       8.469  -0.270  24.255  0.00  0.00     0.136 A 
HETATM    7  C   UNK     0      10.283  -2.983  22.405  0.00  0.00     0.190 A 
HETATM    8  C   UNK     0       9.398  -2.866  24.732  0.00  0.00     0.085 A 
HETATM    9  C   UNK     0      10.435  -2.253  21.130  0.00  0.00     0.094 A 
HETATM   10  C   UNK     0       8.273  -0.866  25.502  0.00  0.00     0.104 A 
HETATM   11  C   UNK     0       8.736  -2.161  25.739  0.00  0.00     0.077 A 
ENDROOT
BRANCH   5  12
HETATM   12  C   UNK     0      10.068  -0.230  19.772  0.00  0.00    -0.002 A 
HETATM   13  C   UNK     0       9.240  -0.523  18.686  0.00  0.00     0.014 A 
HETATM   14  C   UNK     0       9.347   0.208  17.504  0.00  0.00     0.001 A 
HETATM   15  C   UNK     0      10.284   1.236  17.404  0.00  0.00     0.000 A 
HETATM   16  C   UNK     0      11.113   1.533  18.485  0.00  0.00     0.001 A 
HETATM   17  C   UNK     0      11.005   0.801  19.668  0.00  0.00     0.014 A 
ENDBRANCH   5  12
BRANCH   6  18
HETATM   18  O   UNK     0       8.015   0.996  24.029  0.00  0.00    -0.351 OA
HETATM   19  C   UNK     0       8.946   2.060  24.213  0.00  0.00     0.210 C 
ENDBRANCH   6  18
BRANCH   8  20
HETATM   20  O   UNK     0       9.828  -4.126  25.014  0.00  0.00    -0.360 OA
HETATM   21  H   UNK     0      10.248  -4.525  24.237  0.00  0.00     0.217 HD
ENDBRANCH   8  20
BRANCH  10  22
HETATM   22  O   UNK     0       7.631  -0.194  26.496  0.00  0.00    -0.358 OA
HETATM   23  H   UNK     0       7.630  -0.741  27.301  0.00  0.00     0.217 HD
ENDBRANCH  10  22
TORSDOF 4
ENDMDL
MODEL 4
REMARK VINA RESULT:      -6.3      3.342      5.486
REMARK  4 active torsions:
REMARK  status: ('A' for Active; 'I' for Inactive)
REMARK    1  A    between atoms: O_2  and  C_9 
REMARK    2  A    between atoms: O_3  and  C_11 
REMARK    3  A    between atoms: O_4  and  C_14 
REMARK    4  A    between atoms: C_8  and  C_13 
ROOT
HETATM    1  O   UNK     0       9.686   0.361  21.591  0.00  0.00    -0.306 OA
HETATM    2  O   UNK     0      11.447   4.005  21.119  0.00  0.00    -0.287 OA
HETATM    3  C   UNK     0      10.912   1.907  20.173  0.00  0.00     0.084 A 
HETATM    4  C   UNK     0      10.291   0.680  20.401  0.00  0.00     0.129 A 
HETATM    5  C   UNK     0       9.702   1.300  22.611  0.00  0.00     0.090 A 
HETATM    6  C   UNK     0      10.264  -0.286  19.395  0.00  0.00     0.136 A 
HETATM    7  C   UNK     0      10.922   2.907  21.250  0.00  0.00     0.190 A 
HETATM    8  C   UNK     0      11.511   2.177  18.941  0.00  0.00     0.085 A 
HETATM    9  C   UNK     0      10.261   2.515  22.511  0.00  0.00     0.094 A 
HETATM   10  C   UNK     0      10.862  -0.021  18.162  0.00  0.00     0.104 A 
HETATM   11  C   UNK     0      11.484   1.209  17.936  0.00  0.00     0.077 A 
ENDROOT
BRANCH   5  12
HETATM   12  C   UNK     0       9.019   0.856  23.844  0.00  0.00    -0.002 A 
HETATM   13  C   UNK     0       9.361  -0.361  24.437  0.00  0.00     0.014 A 
HETATM   14  C   UNK     0       8.718  -0.780  25.601  0.00  0.00     0.001 A 
HETATM   15  C   UNK     0       7.729   0.019  26.177  0.00  0.00     0.000 A 
HETATM   16  C   UNK     0       7.385   1.236  25.588  0.00  0.00     0.001 A 
HETATM   17  C   UNK     0       8.029   1.654  24.423  0.00  0.00     0.014 A 
ENDBRANCH   5  12
BRANCH   6  18
HETATM   18  O   UNK     0       9.658  -1.489  19.609  0.00  0.00    -0.351 OA
HETATM   19  C   UNK     0      10.445  -2.510  20.217  0.00  0.00     0.210 C 
ENDBRANCH   6  18
BRANCH   8  20
HETATM   20  O   UNK     0      12.129   3.359  18.669  0.00  0.00    -0.360 OA
HETATM   21  H   UNK     0      13.052   3.210  18.414  0.00  0.00     0.217 HD
ENDBRANCH   8  20
BRANCH  10  22
HETATM   22  O   UNK     0      10.846  -0.953  17.170  0.00  0.00    -0.358 OA
HETATM   23  H   UNK     0      11.437  -1.686  17.413  0.00  0.00     0.217 HD
ENDBRANCH  10  22
TORSDOF 4
ENDMDL
MODEL 5
REMARK VINA RESULT:      -6.3      2.484      6.609
REMARK  4 active torsions:
REMARK  status: ('A' for Active; 'I' for Inactive)
REMARK    1  A    between atoms: O_2  and  C_9 
REMARK    2  A    between atoms: O_3  and  C_11 
REMARK    3  A    between atoms: O_4  and  C_14 
REMARK    4  A    between atoms: C_8  and  C_13 
ROOT
HETATM    1  O   UNK     0       9.364  -2.929  23.107  0.00  0.00    -0.306 OA
HETATM    2  O   UNK     0      12.434  -5.602  23.298  0.00  0.00    -0.287 OA
HETATM    3  C   UNK     0      10.447  -4.768  24.268  0.00  0.00     0.084 A 
HETATM    4  C   UNK     0       9.425  -3.829  24.142  0.00  0.00     0.129 A 
HETATM    5  C   UNK     0      10.369  -2.954  22.152  0.00  0.00     0.090 A 
HETATM    6  C   UNK     0       8.404  -3.777  25.091  0.00  0.00     0.136 A 
HETATM    7  C   UNK     0      11.508  -4.803  23.251  0.00  0.00     0.190 A 
HETATM    8  C   UNK     0      10.457  -5.661  25.342  0.00  0.00     0.085 A 
HETATM    9  C   UNK     0      11.399  -3.813  22.161  0.00  0.00     0.094 A 
HETATM   10  C   UNK     0       8.410  -4.666  26.166  0.00  0.00     0.104 A 
HETATM   11  C   UNK     0       9.435  -5.606  26.291  0.00  0.00     0.077 A 
ENDROOT
BRANCH   5  12
HETATM   12  C   UNK     0      10.203  -1.949  21.082  0.00  0.00    -0.002 A 
HETATM   13  C   UNK     0      10.548  -2.262  19.765  0.00  0.00     0.014 A 
HETATM   14  C   UNK     0      10.391  -1.314  18.754  0.00  0.00     0.001 A 
HETATM   15  C   UNK     0       9.889  -0.049  19.058  0.00  0.00     0.000 A 
HETATM   16  C   UNK     0       9.544   0.269  20.371  0.00  0.00     0.001 A 
HETATM   17  C   UNK     0       9.701  -0.680  21.382  0.00  0.00     0.014 A 
ENDBRANCH   5  12
BRANCH   6  18
HETATM   18  O   UNK     0       7.400  -2.861  24.974  0.00  0.00    -0.351 OA
HETATM   19  C   UNK     0       7.630  -1.574  25.543  0.00  0.00     0.210 C 
ENDBRANCH   6  18
BRANCH   8  20
HETATM   20  O   UNK     0      11.432  -6.596  25.509  0.00  0.00    -0.360 OA
HETATM   21  H   UNK     0      11.349  -7.297  24.845  0.00  0.00     0.217 HD
ENDBRANCH   8  20
BRANCH  10  22
HETATM   22  O   UNK     0       7.422  -4.628  27.102  0.00  0.00    -0.358 OA
HETATM   23  H   UNK     0       6.565  -4.781  26.666  0.00  0.00     0.217 HD
ENDBRANCH  10  22
TORSDOF 4
ENDMDL
MODEL 6
REMARK VINA RESULT:      -6.2      3.183      5.573
REMARK  4 active torsions:
REMARK  status: ('A' for Active; 'I' for Inactive)
REMARK    1  A    between atoms: O_2  and  C_9 
REMARK    2  A    between atoms: O_3  and  C_11 
REMARK    3  A    between atoms: O_4  and  C_14 
REMARK    4  A    between atoms: C_8  and  C_13 
ROOT
HETATM    1  O   UNK     0       9.968   1.502  21.976  0.00  0.00    -0.306 OA
HETATM    2  O   UNK     0      10.442  -1.697  19.498  0.00  0.00    -0.287 OA
HETATM    3  C   UNK     0      10.809   0.606  19.880  0.00  0.00     0.084 A 
HETATM    4  C   UNK     0      10.613   1.657  20.775  0.00  0.00     0.129 A 
HETATM    5  C   UNK     0       9.484   0.246  22.308  0.00  0.00     0.090 A 
HETATM    6  C   UNK     0      11.085   2.933  20.466  0.00  0.00     0.136 A 
HETATM    7  C   UNK     0      10.304  -0.729  20.234  0.00  0.00     0.190 A 
HETATM    8  C   UNK     0      11.474   0.821  18.671  0.00  0.00     0.085 A 
HETATM    9  C   UNK     0       9.615  -0.843  21.535  0.00  0.00     0.094 A 
HETATM   10  C   UNK     0      11.750   3.153  19.258  0.00  0.00     0.104 A 
HETATM   11  C   UNK     0      11.944   2.099  18.363  0.00  0.00     0.077 A 
ENDROOT
BRANCH   5  12
HETATM   12  C   UNK     0       8.812   0.190  23.623  0.00  0.00    -0.002 A 
HETATM   13  C   UNK     0       8.164   1.319  24.128  0.00  0.00     0.014 A 
HETATM   14  C   UNK     0       7.530   1.268  25.368  0.00  0.00     0.001 A 
HETATM   15  C   UNK     0       7.541   0.085  26.108  0.00  0.00     0.000 A 
HETATM   16  C   UNK     0       8.187  -1.045  25.607  0.00  0.00     0.001 A 
HETATM   17  C   UNK     0       8.822  -0.992  24.366  0.00  0.00     0.014 A 
ENDBRANCH   5  12
BRANCH   6  18
HETATM   18  O   UNK     0      10.898   3.966  21.335  0.00  0.00    -0.351 OA
HETATM   19  C   UNK     0      11.948   4.227  22.265  0.00  0.00     0.210 C 
ENDBRANCH   6  18
BRANCH   8  20
HETATM   20  O   UNK     0      11.690  -0.172  17.766  0.00  0.00    -0.360 OA
HETATM   21  H   UNK     0      11.203   0.003  16.946  0.00  0.00     0.217 HD
ENDBRANCH   8  20
BRANCH  10  22
HETATM   22  O   UNK     0      12.215   4.393  18.941  0.00  0.00    -0.358 OA
HETATM   23  H   UNK     0      12.093   4.543  17.987  0.00  0.00     0.217 HD
ENDBRANCH  10  22
TORSDOF 4
ENDMDL
MODEL 7
REMARK VINA RESULT:      -6.2      2.426      6.023
REMARK  4 active torsions:
REMARK  status: ('A' for Active; 'I' for Inactive)
REMARK    1  A    between atoms: O_2  and  C_9 
REMARK    2  A    between atoms: O_3  and  C_11 
REMARK    3  A    between atoms: O_4  and  C_14 
REMARK    4  A    between atoms: C_8  and  C_13 
ROOT
HETATM    1  O   UNK     0       9.592  -2.898  24.247  0.00  0.00    -0.306 OA
HETATM    2  O   UNK     0       7.542  -5.156  26.949  0.00  0.00    -0.287 OA
HETATM    3  C   UNK     0       9.217  -5.063  25.285  0.00  0.00     0.084 A 
HETATM    4  C   UNK     0       9.880  -4.234  24.382  0.00  0.00     0.129 A 
HETATM    5  C   UNK     0       8.592  -2.356  25.040  0.00  0.00     0.090 A 
HETATM    6  C   UNK     0      10.886  -4.753  23.567  0.00  0.00     0.136 A 
HETATM    7  C   UNK     0       8.163  -4.488  26.134  0.00  0.00     0.190 A 
HETATM    8  C   UNK     0       9.553  -6.415  25.380  0.00  0.00     0.085 A 
HETATM    9  C   UNK     0       7.889  -3.048  25.948  0.00  0.00     0.094 A 
HETATM   10  C   UNK     0      11.225  -6.104  23.658  0.00  0.00     0.104 A 
HETATM   11  C   UNK     0      10.559  -6.933  24.563  0.00  0.00     0.077 A 
ENDROOT
BRANCH   5  12
HETATM   12  C   UNK     0       8.368  -0.912  24.818  0.00  0.00    -0.002 A 
HETATM   13  C   UNK     0       9.153  -0.213  23.899  0.00  0.00     0.014 A 
HETATM   14  C   UNK     0       8.942   1.149  23.689  0.00  0.00     0.001 A 
HETATM   15  C   UNK     0       7.943   1.817  24.397  0.00  0.00     0.000 A 
HETATM   16  C   UNK     0       7.156   1.122  25.316  0.00  0.00     0.001 A 
HETATM   17  C   UNK     0       7.368  -0.241  25.526  0.00  0.00     0.014 A 
ENDBRANCH   5  12
BRANCH   6  18
HETATM   18  O   UNK     0      11.540  -3.948  22.681  0.00  0.00    -0.351 OA
HETATM   19  C   UNK     0      10.991  -3.851  21.369  0.00  0.00     0.210 C 
ENDBRANCH   6  18
BRANCH   8  20
HETATM   20  O   UNK     0       8.936  -7.265  26.246  0.00  0.00    -0.360 OA
HETATM   21  H   UNK     0       8.352  -6.776  26.845  0.00  0.00     0.217 HD
ENDBRANCH   8  20
BRANCH  10  22
HETATM   22  O   UNK     0      12.204  -6.626  22.869  0.00  0.00    -0.358 OA
HETATM   23  H   UNK     0      12.730  -5.900  22.493  0.00  0.00     0.217 HD
ENDBRANCH  10  22
TORSDOF 4
ENDMDL
MODEL 8
REMARK VINA RESULT:      -6.1      1.834      5.366
REMARK  4 active torsions:
REMARK  status: ('A' for Active; 'I' for Inactive)
REMARK    1  A    between atoms: O_2  and  C_9 
REMARK    2  A    between atoms: O_3  and  C_11 
REMARK    3  A    between atoms: O_4  and  C_14 
REMARK    4  A    between atoms: C_8  and  C_13 
ROOT
HETATM    1  O   UNK     0       9.727  -1.594  21.655  0.00  0.00    -0.306 OA
HETATM    2  O   UNK     0       9.589   2.456  22.083  0.00  0.00    -0.287 OA
HETATM    3  C   UNK     0       9.227   0.331  23.051  0.00  0.00     0.084 A 
HETATM    4  C   UNK     0       9.299  -1.045  22.838  0.00  0.00     0.129 A 
HETATM    5  C   UNK     0      10.095  -0.740  20.626  0.00  0.00     0.090 A 
HETATM    6  C   UNK     0       8.931  -1.929  23.852  0.00  0.00     0.136 A 
HETATM    7  C   UNK     0       9.625   1.239  21.965  0.00  0.00     0.190 A 
HETATM    8  C   UNK     0       8.784   0.833  24.276  0.00  0.00     0.085 A 
HETATM    9  C   UNK     0      10.075   0.599  20.712  0.00  0.00     0.094 A 
HETATM   10  C   UNK     0       8.488  -1.431  25.079  0.00  0.00     0.104 A 
HETATM   11  C   UNK     0       8.415  -0.052  25.290  0.00  0.00     0.077 A 
ENDROOT
BRANCH   5  12
HETATM   12  C   UNK     0      10.544  -1.434  19.402  0.00  0.00    -0.002 A 
HETATM   13  C   UNK     0      11.479  -2.469  19.484  0.00  0.00     0.014 A 
HETATM   14  C   UNK     0      11.902  -3.125  18.329  0.00  0.00     0.001 A 
HETATM   15  C   UNK     0      11.391  -2.749  17.087  0.00  0.00     0.000 A 
HETATM   16  C   UNK     0      10.457  -1.717  17.000  0.00  0.00     0.001 A 
HETATM   17  C   UNK     0      10.034  -1.060  18.156  0.00  0.00     0.014 A 
ENDBRANCH   5  12
BRANCH   6  18
HETATM   18  O   UNK     0       9.000  -3.275  23.652  0.00  0.00    -0.351 OA
HETATM   19  C   UNK     0      10.214  -3.923  24.024  0.00  0.00     0.210 C 
ENDBRANCH   6  18
BRANCH   8  20
HETATM   20  O   UNK     0       8.696   2.167  24.533  0.00  0.00    -0.360 OA
HETATM   21  H   UNK     0       8.430   2.320  25.452  0.00  0.00     0.217 HD
ENDBRANCH   8  20
BRANCH  10  22
HETATM   22  O   UNK     0       8.123  -2.279  26.079  0.00  0.00    -0.358 OA
HETATM   23  H   UNK     0       8.301  -1.855  26.936  0.00  0.00     0.217 HD
ENDBRANCH  10  22
TORSDOF 4
ENDMDL
MODEL 9
REMARK VINA RESULT:      -6.1      1.913      6.133
REMARK  4 active torsions:
REMARK  status: ('A' for Active; 'I' for Inactive)
REMARK    1  A    between atoms: O_2  and  C_9 
REMARK    2  A    between atoms: O_3  and  C_11 
REMARK    3  A    between atoms: O_4  and  C_14 
REMARK    4  A    between atoms: C_8  and  C_13 
ROOT
HETATM    1  O   UNK     0      10.036   0.203  23.114  0.00  0.00    -0.306 OA
HETATM    2  O   UNK     0       7.165   1.526  25.684  0.00  0.00    -0.287 OA
HETATM    3  C   UNK     0       8.254  -0.316  24.682  0.00  0.00     0.084 A 
HETATM    4  C   UNK     0       9.254  -0.700  23.790  0.00  0.00     0.129 A 
HETATM    5  C   UNK     0       9.814   1.555  23.324  0.00  0.00     0.090 A 
HETATM    6  C   UNK     0       9.497  -2.054  23.554  0.00  0.00     0.136 A 
HETATM    7  C   UNK     0       8.023   1.118  24.913  0.00  0.00     0.190 A 
HETATM    8  C   UNK     0       7.489  -1.279  25.343  0.00  0.00     0.085 A 
HETATM    9  C   UNK     0       8.889   2.048  24.160  0.00  0.00     0.094 A 
HETATM   10  C   UNK     0       8.734  -3.020  24.212  0.00  0.00     0.104 A 
HETATM   11  C   UNK     0       7.732  -2.632  25.105  0.00  0.00     0.077 A 
ENDROOT
BRANCH   5  12
HETATM   12  C   UNK     0      10.714   2.437  22.552  0.00  0.00    -0.002 A 
HETATM   13  C   UNK     0      10.799   2.311  21.164  0.00  0.00     0.014 A 
HETATM   14  C   UNK     0      11.647   3.144  20.435  0.00  0.00     0.001 A 
HETATM   15  C   UNK     0      12.413   4.106  21.092  0.00  0.00     0.000 A 
HETATM   16  C   UNK     0      12.331   4.236  22.478  0.00  0.00     0.001 A 
HETATM   17  C   UNK     0      11.482   3.402  23.207  0.00  0.00     0.014 A 
ENDBRANCH   5  12
BRANCH   6  18
HETATM   18  O   UNK     0      10.473  -2.438  22.684  0.00  0.00    -0.351 OA
HETATM   19  C   UNK     0      10.104  -2.565  21.312  0.00  0.00     0.210 C 
ENDBRANCH   6  18
BRANCH   8  20
HETATM   20  O   UNK     0       6.502  -0.954  26.223  0.00  0.00    -0.360 OA
HETATM   21  H   UNK     0       6.551  -1.516  27.011  0.00  0.00     0.217 HD
ENDBRANCH   8  20
BRANCH  10  22
HETATM   22  O   UNK     0       8.957  -4.345  23.993  0.00  0.00    -0.358 OA
HETATM   23  H   UNK     0       8.159  -4.846  24.237  0.00  0.00     0.217 HD
ENDBRANCH  10  22
TORSDOF 4
ENDMDL
MODEL 10
REMARK VINA RESULT:      -5.8      2.198      4.972
REMARK  4 active torsions:
REMARK  status: ('A' for Active; 'I' for Inactive)
REMARK    1  A    between atoms: O_2  and  C_9 
REMARK    2  A    between atoms: O_3  and  C_11 
REMARK    3  A    between atoms: O_4  and  C_14 
REMARK    4  A    between atoms: C_8  and  C_13 
ROOT
HETATM    1  O   UNK     0      10.011  -2.484  21.952  0.00  0.00    -0.306 OA
HETATM    2  O   UNK     0      10.052   1.467  20.961  0.00  0.00    -0.287 OA
HETATM    3  C   UNK     0       9.421  -0.196  22.516  0.00  0.00     0.084 A 
HETATM    4  C   UNK     0       9.442  -1.562  22.794  0.00  0.00     0.129 A 
HETATM    5  C   UNK     0      10.581  -2.036  20.770  0.00  0.00     0.090 A 
HETATM    6  C   UNK     0       8.872  -2.043  23.973  0.00  0.00     0.136 A 
HETATM    7  C   UNK     0      10.032   0.283  21.268  0.00  0.00     0.190 A 
HETATM    8  C   UNK     0       8.829   0.698  23.411  0.00  0.00     0.085 A 
HETATM    9  C   UNK     0      10.628  -0.749  20.395  0.00  0.00     0.094 A 
HETATM   10  C   UNK     0       8.279  -1.154  24.870  0.00  0.00     0.104 A 
HETATM   11  C   UNK     0       8.258   0.214  24.589  0.00  0.00     0.077 A 
ENDROOT
BRANCH   5  12
HETATM   12  C   UNK     0      11.167  -3.109  19.942  0.00  0.00    -0.002 A 
HETATM   13  C   UNK     0      11.611  -2.834  18.647  0.00  0.00     0.014 A 
HETATM   14  C   UNK     0      12.165  -3.846  17.865  0.00  0.00     0.001 A 
HETATM   15  C   UNK     0      12.279  -5.139  18.377  0.00  0.00     0.000 A 
HETATM   16  C   UNK     0      11.837  -5.419  19.670  0.00  0.00     0.001 A 
HETATM   17  C   UNK     0      11.282  -4.405  20.452  0.00  0.00     0.014 A 
ENDBRANCH   5  12
BRANCH   6  18
HETATM   18  O   UNK     0       8.890  -3.377  24.253  0.00  0.00    -0.351 OA
HETATM   19  C   UNK     0       9.974  -3.858  25.045  0.00  0.00     0.210 C 
ENDBRANCH   6  18
BRANCH   8  20
HETATM   20  O   UNK     0       8.783   2.039  23.185  0.00  0.00    -0.360 OA
HETATM   21  H   UNK     0       9.529   2.483  23.615  0.00  0.00     0.217 HD
ENDBRANCH   8  20
BRANCH  10  22
HETATM   22  O   UNK     0       7.717  -1.607  26.024  0.00  0.00    -0.358 OA
HETATM   23  H   UNK     0       8.368  -2.148  26.504  0.00  0.00     0.217 HD
ENDBRANCH  10  22
TORSDOF 4
ENDMDL
