REMARK  19 active torsions:
REMARK  status: ('A' for Active; 'I' for Inactive)
REMARK    1  A    between atoms: O_3  and  C_16 
REMARK    2  A    between atoms: O_5  and  C_29 
REMARK    3  A    between atoms: O_5  and  C_41 
REMARK    4  A    between atoms: N_8  and  C_14 
REMARK       I    between atoms: N_8  and  C_22 
REMARK    5  A    between atoms: N_9  and  C_17 
REMARK       I    between atoms: N_9  and  C_29 
REMARK    6  A    between atoms: N_10  and  C_20 
REMARK       I    between atoms: N_10  and  C_32 
REMARK       I    between atoms: N_11  and  C_32 
REMARK    7  A    between atoms: N_11  and  C_39 
REMARK    8  A    between atoms: C_14  and  C_15 
REMARK    9  A    between atoms: C_14  and  C_18 
REMARK   10  A    between atoms: C_15  and  C_16 
REMARK   11  A    between atoms: C_16  and  C_17 
REMARK   12  A    between atoms: C_17  and  C_19 
REMARK   13  A    between atoms: C_18  and  C_23 
REMARK   14  A    between atoms: C_19  and  C_24 
REMARK   15  A    between atoms: C_20  and  C_21 
REMARK   16  A    between atoms: C_20  and  C_22 
REMARK   17  A    between atoms: C_39  and  C_42 
REMARK   18  A    between atoms: C_41  and  C_43 
REMARK   19  A    between atoms: C_44  and  C_46 
ROOT
HETATM    1  S   MOL     1      10.047  -8.399  23.534  1.00 -0.58    -0.084 SA
HETATM    2  N   MOL     1       9.631  -5.856  23.495  1.00 -0.06    -0.248 NA
HETATM    3  C   MOL     1      10.481  -6.136  22.433  1.00 -0.20     0.060 A 
HETATM    4  C   MOL     1       9.300  -6.919  24.174  1.00 -0.29     0.078 A 
HETATM    5  C   MOL     1      10.814  -7.403  22.285  1.00 -0.26     0.080 A 
ENDROOT
BRANCH   4   6
HETATM    6  C   MOL     1       8.385  -6.885  25.380  1.00 -0.41     0.037 C 
HETATM    7  C   MOL     1       8.174  -8.282  25.982  1.00 -0.48     0.016 C 
HETATM    8  C   MOL     1       7.013  -6.296  25.024  1.00 -0.63     0.016 C 
ENDBRANCH   4   6
BRANCH   3   9
HETATM    9  C   MOL     1      10.974  -5.036  21.514  1.00 -0.25     0.186 C 
BRANCH   9  10
HETATM   10  N   MOL     1      11.282  -3.817  22.280  1.00  0.06    -0.333 N 
HETATM   11  C   MOL     1      10.534  -2.704  22.079  1.00 -0.20     0.319 C 
HETATM   12  O   MOL     1       9.599  -2.702  21.270  1.00 -0.21    -0.247 OA
HETATM   13  N   MOL     1      10.843  -1.591  22.781  1.00  0.06    -0.329 N 
HETATM   14  H   MOL     1      11.515  -1.587  23.345  1.00  0.02     0.165 HD
HETATM   15  C   MOL     1      12.399  -3.857  23.244  1.00 -0.19     0.154 C 
BRANCH  13  16
HETATM   16  C   MOL     1      10.068  -0.359  22.572  1.00 -0.15     0.181 C 
BRANCH  16  17
HETATM   17  C   MOL     1       9.689   0.312  23.910  1.00 -0.26     0.009 C 
HETATM   18  C   MOL     1       8.762   1.512  23.656  1.00 -0.49     0.012 C 
HETATM   19  C   MOL     1       8.941  -0.675  24.823  1.00 -0.46     0.012 C 
ENDBRANCH  16  17
BRANCH  16  20
HETATM   20  C   MOL     1      10.885   0.582  21.709  1.00 -0.16     0.241 C 
HETATM   21  O   MOL     1      12.015   0.940  22.016  1.00  0.11    -0.271 OA
HETATM   22  N   MOL     1      10.241   0.955  20.590  1.00  0.03    -0.354 N 
HETATM   23  H   MOL     1       9.416   0.690  20.433  1.00 -0.09     0.162 HD
BRANCH  22  24
HETATM   24  C   MOL     1      10.924   1.812  19.608  1.00 -0.24     0.091 C 
BRANCH  24  25
HETATM   25  C   MOL     1      10.912   3.254  20.157  1.00 -0.18     0.059 C 
BRANCH  25  26
HETATM   26  C   MOL     1      11.773   4.215  19.310  1.00 -0.37     0.143 C 
BRANCH  26  27
HETATM   27  O   MOL     1      12.687   3.479  18.480  1.00 -0.11    -0.393 OA
HETATM   28  H   MOL     1      13.423   3.064  19.025  1.00 -0.19     0.210 HD
ENDBRANCH  26  27
BRANCH  26  29
HETATM   29  C   MOL     1      12.550   5.167  20.241  1.00 -0.27     0.119 C 
BRANCH  29  30
HETATM   30  N   MOL     1      13.062   6.297  19.451  1.00 -0.03    -0.329 N 
HETATM   31  C   MOL     1      14.192   6.159  18.728  1.00 -0.30     0.361 C 
HETATM   32  O   MOL     1      14.876   5.139  18.670  1.00  0.10    -0.238 OA
HETATM   33  H   MOL     1      12.620   7.060  19.450  1.00 -0.19     0.165 HD
BRANCH  31  34
HETATM   34  O   MOL     1      14.545   7.270  18.033  1.00  0.00    -0.299 OA
BRANCH  34  35
HETATM   35  C   MOL     1      15.731   7.174  17.225  1.00 -0.28     0.228 C 
BRANCH  35  36
HETATM   36  C   MOL     1      15.350   7.135  15.759  1.00 -0.20     0.025 A 
HETATM   37  S   MOL     1      14.388   8.396  14.964  1.00 -1.45    -0.084 SA
HETATM   38  C   MOL     1      14.514   7.476  13.450  1.00 -0.46     0.166 A 
HETATM   39  N   MOL     1      15.198   6.376  13.589  1.00 -0.08    -0.265 NA
HETATM   40  C   MOL     1      15.661   6.196  14.886  1.00 -0.25     0.133 A 
ENDBRANCH  35  36
ENDBRANCH  34  35
ENDBRANCH  31  34
ENDBRANCH  29  30
BRANCH  29  41
HETATM   41  C   MOL     1      11.636   5.690  21.370  1.00 -0.41     0.066 C 
BRANCH  41  42
HETATM   42  C   MOL     1      12.052   5.279  22.775  1.00 -0.22    -0.056 A 
HETATM   43  C   MOL     1      11.918   6.162  23.824  1.00 -0.38     0.007 A 
HETATM   44  C   MOL     1      12.295   5.793  25.095  1.00 -0.44     0.001 A 
HETATM   45  C   MOL     1      12.808   4.537  25.323  1.00 -0.36     0.000 A 
HETATM   46  C   MOL     1      12.945   3.651  24.279  1.00 -0.20     0.001 A 
HETATM   47  C   MOL     1      12.568   4.022  23.009  1.00 -0.15     0.007 A 
ENDBRANCH  41  42
ENDBRANCH  29  41
ENDBRANCH  26  29
ENDBRANCH  25  26
ENDBRANCH  24  25
BRANCH  24  48
HETATM   48  C   MOL     1      10.249   1.748  18.220  1.00 -0.32     0.063 C 
BRANCH  48  49
HETATM   49  C   MOL     1      10.246   0.371  17.571  1.00 -0.23    -0.056 A 
HETATM   50  C   MOL     1       9.302   0.057  16.617  1.00 -0.15     0.007 A 
HETATM   51  C   MOL     1       9.295  -1.187  16.030  1.00 -0.08     0.001 A 
HETATM   52  C   MOL     1      10.235  -2.125  16.393  1.00 -0.43     0.000 A 
HETATM   53  C   MOL     1      11.180  -1.816  17.345  1.00 -0.33     0.001 A 
HETATM   54  C   MOL     1      11.184  -0.571  17.932  1.00 -0.12     0.007 A 
ENDBRANCH  48  49
ENDBRANCH  24  48
ENDBRANCH  22  24
ENDBRANCH  16  20
ENDBRANCH  13  16
ENDBRANCH   9  10
ENDBRANCH   3   9
TORSDOF 19
