REMARK  4 active torsions:
REMARK  status: ('A' for Active; 'I' for Inactive)
REMARK    1  A    between atoms: O_2  and  C_9 
REMARK    2  A    between atoms: O_3  and  C_11 
REMARK    3  A    between atoms: O_4  and  C_14 
REMARK    4  A    between atoms: C_8  and  C_13 
ROOT
HETATM    1  O   UNK     0       0.320  -0.519   0.115  0.00  0.00    -0.306 OA
HETATM    2  O   UNK     0      -0.983   3.318  -0.308  0.00  0.00    -0.287 OA
HETATM    3  C   UNK     0      -1.539   1.037  -0.041  0.00  0.00     0.084 A 
HETATM    4  C   UNK     0      -1.026  -0.251   0.101  0.00  0.00     0.129 A 
HETATM    5  C   UNK     0       1.205   0.539  -0.027  0.00  0.00     0.090 A 
HETATM    6  C   UNK     0      -1.892  -1.336   0.240  0.00  0.00     0.136 A 
HETATM    7  C   UNK     0      -0.603   2.162  -0.182  0.00  0.00     0.190 A 
HETATM    8  C   UNK     0      -2.919   1.251  -0.047  0.00  0.00     0.085 A 
HETATM    9  C   UNK     0       0.834   1.821  -0.164  0.00  0.00     0.094 A 
HETATM   10  C   UNK     0      -3.272  -1.127   0.234  0.00  0.00     0.104 A 
HETATM   11  C   UNK     0      -3.784   0.164   0.091  0.00  0.00     0.077 A 
ENDROOT
BRANCH   5  12
HETATM   12  C   UNK     0       2.627   0.140   0.007  0.00  0.00    -0.002 A 
HETATM   13  C   UNK     0       3.590   1.016   0.513  0.00  0.00     0.014 A 
HETATM   14  C   UNK     0       4.932   0.640   0.546  0.00  0.00     0.001 A 
HETATM   15  C   UNK     0       5.316  -0.615   0.073  0.00  0.00     0.000 A 
HETATM   16  C   UNK     0       4.358  -1.493  -0.433  0.00  0.00     0.001 A 
HETATM   17  C   UNK     0       3.015  -1.116  -0.466  0.00  0.00     0.014 A 
ENDBRANCH   5  12
BRANCH   6  18
HETATM   18  O   UNK     0      -1.398  -2.599   0.380  0.00  0.00    -0.351 OA
HETATM   19  C   UNK     0      -1.181  -3.345  -0.816  0.00  0.00     0.210 C 
ENDBRANCH   6  18
BRANCH   8  20
HETATM   20  O   UNK     0      -3.469   2.489  -0.182  0.00  0.00    -0.360 OA
HETATM   21  H   UNK     0      -2.777   3.161  -0.272  0.00  0.00     0.217 HD
ENDBRANCH   8  20
BRANCH  10  22
HETATM   22  O   UNK     0      -4.131  -2.175   0.367  0.00  0.00    -0.358 OA
HETATM   23  H   UNK     0      -5.045  -1.842   0.340  0.00  0.00     0.217 HD
ENDBRANCH  10  22
TORSDOF 4
