DAR_D
  xed2sdf_05210316543D
 
 82 86  0  0  1  0  0  0  0  0999 V2000
    8.9612  -10.6802   26.0854 O   0  0  0  0  0  0  0  0  0  0  0  0
    8.9692   -9.4642   26.1674 C   0  0  0  0  0  0  0  0  0  0  0  0
   10.1522   -8.7152   26.7374 C   0  0  0  0  0  0  0  0  0  0  0  0
   10.3182   -7.3322   26.1014 C   0  0  0  0  0  0  0  0  0  0  0  0
    8.9982   -6.5982   26.3554 C   0  0  0  0  0  0  0  0  0  0  0  0
    9.0632   -5.2172   25.8534 N   0  0  0  0  0  0  0  0  0  0  0  0
   10.0242   -4.7992   24.8184 C   0  0  0  0  0  0  0  0  0  0  0  0
   10.0492   -3.3402   25.3104 C   0  0  0  0  0  0  0  0  0  0  0  0
   10.7742   -2.2162   24.6014 C   0  0  0  0  0  0  0  0  0  0  0  0
   11.7682   -2.6412   23.7684 N   0  0  0  0  0  0  0  0  0  0  0  0
   11.6392   -2.4642   22.3154 C   0  0  0  0  0  0  0  0  0  0  0  0
   12.4662   -1.2992   21.7484 C   0  0  0  0  0  0  0  0  0  0  0  0
   11.5062   -0.3362   21.0344 C   0  0  0  0  0  0  0  0  0  0  0  0
   12.1512    0.2108   19.7524 C   0  0  0  0  0  0  0  0  0  0  0  0
   11.0402    0.4738   18.7254 C   0  0  0  0  0  0  0  0  0  0  0  0
   10.4212    1.8588   18.9604 C   0  0  0  0  0  0  0  0  0  0  0  0
   11.5012    2.8558   18.9834 N   0  0  0  0  0  0  0  0  0  0  0  0
   11.4172    3.9218   19.8104 C   0  0  0  0  0  0  0  0  0  0  0  0
   10.4632    4.1068   20.5624 O   0  0  0  0  0  0  0  0  0  0  0  0
   12.5012    4.9438   19.8294 C   0  0  0  0  0  0  0  0  0  0  0  0
   12.9402    5.5308   18.6584 C   0  0  0  0  0  0  0  0  0  0  0  0
   13.9202    6.4898   18.6814 C   0  0  0  0  0  0  0  0  0  0  0  0
   14.5162    6.9248   19.8074 N   0  0  0  0  0  0  0  0  0  0  0  0
   14.0872    6.3518   20.9434 C   0  0  0  0  0  0  0  0  0  0  0  0
   13.1072    5.3758   21.0064 C   0  0  0  0  0  0  0  0  0  0  0  0
   12.7442    4.8268   22.2424 N   0  0  0  0  0  0  0  0  0  0  0  0
   11.9782    5.4218   23.1794 C   0  0  0  0  0  0  0  0  0  0  0  0
   11.4662    6.5258   23.0624 O   0  0  0  0  0  0  0  0  0  0  0  0
   11.7742    4.5668   24.4134 C   0  0  0  0  0  0  0  0  0  0  0  0
   12.9402    4.7328   25.3704 C   0  0  0  0  0  0  0  0  0  0  0  0
   13.4542    5.9848   25.6244 C   0  0  0  0  0  0  0  0  0  0  0  0
   14.5112    6.1348   26.4934 C   0  0  0  0  0  0  0  0  0  0  0  0
   15.0572    5.0328   27.1114 C   0  0  0  0  0  0  0  0  0  0  0  0
   14.5442    3.7798   26.8604 C   0  0  0  0  0  0  0  0  0  0  0  0
   15.2322    2.3858   27.6404 Cl  0  0  0  0  0  0  0  0  0  0  0  0
   13.4862    3.6308   25.9904 C   0  0  0  0  0  0  0  0  0  0  0  0
   10.4202   -0.9472   24.8594 C   0  0  0  0  0  0  0  0  0  0  0  0
    9.3432   -0.6642   25.8094 C   0  0  0  0  0  0  0  0  0  0  0  0
    8.4762   -1.6212   26.1364 C   0  0  0  0  0  0  0  0  0  0  0  0
    8.5742   -3.0052   25.5484 C   0  0  0  0  0  0  0  0  0  0  0  0
    8.2592   -4.2512   26.3254 C   0  0  0  0  0  0  0  0  0  0  0  0
    7.4302   -4.3572   27.2184 O   0  0  0  0  0  0  0  0  0  0  0  0
    7.8232   -7.3462   25.7644 C   0  0  0  0  0  0  0  0  0  0  0  0
    6.8462   -6.7602   25.3294 O   0  0  0  0  0  0  0  0  0  0  0  0
    7.9372   -8.6932   25.7534 N   0  0  0  0  0  0  0  0  0  0  0  0
    8.8562   -6.5592   27.3444 H   0  0  0  0  0  0  0  0  0  0  0  0
   10.6692   -3.3582   26.0944 H   0  0  0  0  0  0  0  0  0  0  0  0
    7.9052   -2.8782   24.8164 H   0  0  0  0  0  0  0  0  0  0  0  0
   10.9822   -9.2492   26.5764 H   0  0  0  0  0  0  0  0  0  0  0  0
    9.9922   -8.5852   27.7164 H   0  0  0  0  0  0  0  0  0  0  0  0
   10.4912   -7.4172   25.1194 H   0  0  0  0  0  0  0  0  0  0  0  0
   11.0962   -6.8382   26.4904 H   0  0  0  0  0  0  0  0  0  0  0  0
    9.6762   -4.9002   23.8864 H   0  0  0  0  0  0  0  0  0  0  0  0
   10.8902   -5.2932   24.7384 H   0  0  0  0  0  0  0  0  0  0  0  0
   12.3202   -3.2632   24.0594 H   0  0  0  0  0  0  0  0  0  0  0  0
   10.6762   -2.3012   22.1024 H   0  0  0  0  0  0  0  0  0  0  0  0
   11.9912   -3.2992   21.8914 H   0  0  0  0  0  0  0  0  0  0  0  0
   13.1442   -1.6472   21.1014 H   0  0  0  0  0  0  0  0  0  0  0  0
   12.9472   -0.8252   22.4854 H   0  0  0  0  0  0  0  0  0  0  0  0
   11.2862    0.4248   21.6454 H   0  0  0  0  0  0  0  0  0  0  0  0
   10.6722   -0.8302   20.7894 H   0  0  0  0  0  0  0  0  0  0  0  0
   12.8012   -0.4562   19.3884 H   0  0  0  0  0  0  0  0  0  0  0  0
   12.6422    1.0598   19.9504 H   0  0  0  0  0  0  0  0  0  0  0  0
   10.3332   -0.2272   18.8144 H   0  0  0  0  0  0  0  0  0  0  0  0
   11.4322    0.4438   17.8054 H   0  0  0  0  0  0  0  0  0  0  0  0
    9.9312    1.8678   19.8314 H   0  0  0  0  0  0  0  0  0  0  0  0
    9.7742    2.0738   18.2274 H   0  0  0  0  0  0  0  0  0  0  0  0
   12.2062    2.7398   18.4714 H   0  0  0  0  0  0  0  0  0  0  0  0
   12.5382    5.2548   17.7854 H   0  0  0  0  0  0  0  0  0  0  0  0
   14.2102    6.8878   17.8104 H   0  0  0  0  0  0  0  0  0  0  0  0
   14.5042    6.6488   21.8024 H   0  0  0  0  0  0  0  0  0  0  0  0
   13.0432    4.0198   22.4174 H   0  0  0  0  0  0  0  0  0  0  0  0
   11.7002    3.6068   24.1434 H   0  0  0  0  0  0  0  0  0  0  0  0
   10.9342    4.8568   24.8744 H   0  0  0  0  0  0  0  0  0  0  0  0
   13.0582    6.7868   25.1774 H   0  0  0  0  0  0  0  0  0  0  0  0
   14.8822    7.0458   26.6754 H   0  0  0  0  0  0  0  0  0  0  0  0
   15.8252    5.1428   27.7414 H   0  0  0  0  0  0  0  0  0  0  0  0
   13.1132    2.7208   25.8104 H   0  0  0  0  0  0  0  0  0  0  0  0
   10.8932   -0.1932   24.4014 H   0  0  0  0  0  0  0  0  0  0  0  0
    9.2582    0.2468   26.2134 H   0  0  0  0  0  0  0  0  0  0  0  0
    7.7442   -1.4172   26.7854 H   0  0  0  0  0  0  0  0  0  0  0  0
    7.2482   -9.1292   25.4204 H   0  0  0  0  0  0  0  0  0  0  0  0
  1  2  2  0
  2  3  1  0
  2 45  1  0
  3  4  1  0
  4  5  1  0
  5  6  1  0
  5 43  1  0
  6  7  1  0
  6 41  1  0
  7  8  1  0
  8  9  1  0
  8 40  1  0
  9 10  1  0
  9 37  2  0
 10 11  1  0
 11 12  1  0
 12 13  1  0
 13 14  1  0
 14 15  1  0
 15 16  1  0
 16 17  1  0
 17 18  1  0
 18 19  2  0
 18 20  1  0
 20 21  2  0
 20 25  1  0
 21 22  1  0
 22 23  2  0
 23 24  1  0
 24 25  2  0
 25 26  1  0
 26 27  1  0
 27 28  2  0
 27 29  1  0
 29 30  1  0
 30 31  2  0
 30 36  1  0
 31 32  1  0
 32 33  2  0
 33 34  1  0
 34 35  1  0
 34 36  2  0
 37 38  1  0
 38 39  2  0
 39 40  1  0
 40 41  1  0
 41 42  2  0
 43 44  2  0
 43 45  1  0
  3 49  1  0
  3 50  1  0
  4 51  1  0
  4 52  1  0
  5 46  1  0
  7 53  1  0
  7 54  1  0
  8 47  1  0
 10 55  1  0
 11 56  1  0
 11 57  1  0
 12 58  1  0
 12 59  1  0
 13 60  1  0
 13 61  1  0
 14 62  1  0
 14 63  1  0
 15 64  1  0
 15 65  1  0
 16 66  1  0
 16 67  1  0
 17 68  1  0
 21 69  1  0
 22 70  1  0
 24 71  1  0
 26 72  1  0
 29 73  1  0
 29 74  1  0
 31 75  1  0
 32 76  1  0
 33 77  1  0
 36 78  1  0
 37 79  1  0
 38 80  1  0
 39 81  1  0
 40 48  1  0
 45 82  1  0
M  END
>  <BioMolTech Lead Finder dG>
-10.774

>  <BioMolTech Lead Finder VSscore>
-12.18

>  <BioMolTech Lead Finder Rank score>
-5.451

>  <BioMolTech Lead Finder LE>
-0.239

>  <BioMolTech Lead Finder Structure Name>
/var/folders/xd/y7jw_xv579q2qqq7kks92xd80000gn/T/LeadFinder_21449_1/Ligand_1.sdf

>  <BioMolTech Lead Finder SDF id>
0

>  <BioMolTech Lead Finder Pose rank>
0

>  <BioMolTech Lead Finder version>
2001 1, 19 January 2019

>  <LF dG>
-10.774

>  <LF VSscore>
-12.18

>  <LF Rank Score>
-5.451

>  <LF LE>
-0.239

>  <Preferred Pose_cresset>
true

>  <Favorite_cresset>
false

>  <Protein_cresset>
6Y2F_P

>  <MW_cresset>
633.1

>  <#Atoms_cresset>
45

>  <SlogP_cresset>
2.9

>  <TPSA_cresset>
149.6

>  <Flexibility_cresset>
10.4

>  <#RB_cresset>
13

>  <Rof5_cresset>
2

>  <Filename_cresset>
DAR-DIA-9e4459de-1.mol

>  <Confs_cresset>
0

>  <Poses_cresset>
10

>  <_cresset_fieldpoints>
    -5       9.915211     -12.197187      26.446434    -13.1155
    -5       6.188268      -3.307334      27.843357    -18.0479
    -5      15.728210       8.406813      19.810434    -10.7835
    -5      10.113136       5.738099      21.500465    -20.0779
    -5      16.431210       4.857812      24.368433     -1.3715
    -5      12.166210       5.360813      28.503433     -2.6360
    -5       6.043295      -5.368603      26.370823    -22.1549
    -5      16.998211       2.992813      29.496433     -1.3350
    -5      13.116211       0.701813      28.132435     -1.2245
    -5       8.128210      -0.494187      23.657434     -4.8040
    -6      10.758211      -6.828187      28.924435      5.3630
    -6       8.059211      -8.198187      28.616434      5.1445
    -6       5.793211     -10.075188      24.614433      5.4185
    -6      10.560210      -2.906188      19.451433      3.6630
    -6      13.103210       2.200813      23.011435     12.2680
    -6      13.626211       2.801813      17.188435      8.6410
    -6      13.018210      -4.893188      24.779434     13.5610
    -6       8.372211      -0.353187      20.024433      3.0590
    -6      16.786211       7.236813      28.190434      2.8230
    -7       9.926210     -11.635187      28.147434     -1.1370
    -7       7.274210      -8.515188      28.491434     -2.0105
    -7      12.614210      -5.633187      22.945435     -1.8760
    -7       8.889211      -7.472188      23.067434     -2.3140
    -7      12.887211      -4.786188      26.326433     -2.1280
    -7      11.258210      -2.921187      19.032433     -2.2870
    -7      14.640211       2.526813      19.642433     -2.5740
    -7      10.800211       3.982813      16.578434     -2.1220
    -7       8.526211      -1.102187      22.679434     -3.1840
    -7      10.357210       2.528813      22.367434     -3.4910
    -7      13.004210       1.645813      23.235434     -3.5950
    -7      16.527210       8.380812      19.767433     -1.0275
    -7      12.971210       8.353813      23.310434     -2.2910
    -7      10.610210       7.622813      25.022434     -1.9110
    -7      11.752211       5.142813      28.559433     -1.8740
    -7      10.633211       2.211812      26.317434     -2.1955
    -7      17.034210       7.510813      28.314434     -0.9780
    -7       9.888210       6.479813      21.249434     -2.3415
    -7      15.503210       4.437813      23.324434     -3.0840
    -7      10.570210      -4.653187      28.316433     -2.6155
    -7       7.059211      -5.197187      23.598434     -2.5465
    -7       5.513211      -2.934187      26.603434     -1.5645
    -7       5.896211      -6.088187      27.575434     -1.8085
    -8       9.654211      -7.729187      26.463434      5.6035
    -8       9.577210      -2.028188      25.399433      7.0375
    -8      11.328211       0.218813      19.873434      5.8890
    -8      12.120211      -0.532187      20.778435      5.7895
    -8      11.746211      -1.311187      21.554434      5.6505
    -8      13.996210       4.880813      26.236433      7.1940
    -8      13.204210       5.628813      19.751434      5.3680
    -8      14.629210       3.594813      26.957434      5.6110

$$$$
Untitled
  xed2sdf_05210316543D
 
 30 32  0  0  0  0  0  0  0  0999 V2000
   10.6597    2.3686   18.5317 O   0  0  0  0  0  0  0  0  0  0  0  0
   12.4737   -2.1204   18.3967 O   0  0  0  0  0  0  0  0  0  0  0  0
   10.4497   -2.8434   16.7577 O   0  0  0  0  0  0  0  0  0  0  0  0
    8.5437   -1.0104   16.0177 O   0  0  0  0  0  0  0  0  0  0  0  0
   13.5867   -0.0974   19.8327 O   0  0  0  0  0  0  0  0  0  0  0  0
   11.6277    0.1366   18.5257 C   0  0  0  0  0  0  0  0  0  0  0  0
   10.6567    1.0656   18.1327 C   0  0  0  0  0  0  0  0  0  0  0  0
   11.6457    2.7836   19.3907 C   0  0  0  0  0  0  0  0  0  0  0  0
   11.5487   -1.1844   18.0507 C   0  0  0  0  0  0  0  0  0  0  0  0
   12.6707    0.6106   19.4187 C   0  0  0  0  0  0  0  0  0  0  0  0
   12.6357    1.9636   19.8407 C   0  0  0  0  0  0  0  0  0  0  0  0
   11.6047    4.2056   19.8127 C   0  0  0  0  0  0  0  0  0  0  0  0
    9.6347    0.6616   17.2947 C   0  0  0  0  0  0  0  0  0  0  0  0
   10.5227   -1.5574   17.2167 C   0  0  0  0  0  0  0  0  0  0  0  0
    9.5587   -0.6334   16.8377 C   0  0  0  0  0  0  0  0  0  0  0  0
   11.8547    5.1996   18.8797 C   0  0  0  0  0  0  0  0  0  0  0  0
   11.3197    4.5756   21.1187 C   0  0  0  0  0  0  0  0  0  0  0  0
   11.8307    6.5246   19.2427 C   0  0  0  0  0  0  0  0  0  0  0  0
   11.2917    5.9016   21.4787 C   0  0  0  0  0  0  0  0  0  0  0  0
   11.5487    6.8776   20.5427 C   0  0  0  0  0  0  0  0  0  0  0  0
   13.4077   -1.8304   18.1757 H   0  0  0  0  0  0  0  0  0  0  0  0
   10.0337   -2.8834   15.8427 H   0  0  0  0  0  0  0  0  0  0  0  0
    8.8717   -1.6014   15.2727 H   0  0  0  0  0  0  0  0  0  0  0  0
   13.3337    2.3136   20.4657 H   0  0  0  0  0  0  0  0  0  0  0  0
    8.9377    1.3226   17.0147 H   0  0  0  0  0  0  0  0  0  0  0  0
   12.0557    4.9496   17.9327 H   0  0  0  0  0  0  0  0  0  0  0  0
   11.1327    3.8716   21.8047 H   0  0  0  0  0  0  0  0  0  0  0  0
   12.0167    7.2326   18.5617 H   0  0  0  0  0  0  0  0  0  0  0  0
   11.0837    6.1576   22.4227 H   0  0  0  0  0  0  0  0  0  0  0  0
   11.5307    7.8426   20.8067 H   0  0  0  0  0  0  0  0  0  0  0  0
  1  7  1  0
  1  8  1  0
  2  9  1  0
  3 14  1  0
  4 15  1  0
  5 10  2  0
  6  7  2  0
  6  9  1  0
  6 10  1  0
  7 13  1  0
  8 11  2  0
  8 12  1  0
  9 14  2  0
 10 11  1  0
 12 16  2  0
 12 17  1  0
 13 15  2  0
 14 15  1  0
 16 18  1  0
 17 19  2  0
 18 20  2  0
 19 20  1  0
  2 21  1  0
  3 22  1  0
  4 23  1  0
 11 24  1  0
 13 25  1  0
 16 26  1  0
 17 27  1  0
 18 28  1  0
 19 29  1  0
 20 30  1  0
M  END
>  <BioMolTech Lead Finder dG>
-6.334

>  <BioMolTech Lead Finder VSscore>
-7.792

>  <BioMolTech Lead Finder Rank score>
-10.577

>  <BioMolTech Lead Finder LE>
-0.317

>  <BioMolTech Lead Finder Structure Name>
/var/folders/xd/y7jw_xv579q2qqq7kks92xd80000gn/T/LeadFinder_21446_1/Ligand_1.sdf

>  <BioMolTech Lead Finder SDF id>
0

>  <BioMolTech Lead Finder Pose rank>
0

>  <BioMolTech Lead Finder version>
2001 1, 19 January 2019

>  <PUBCHEM_COMPOUND_CID>
5281605

>  <PUBCHEM_COMPOUND_CANONICALIZED>
1

>  <PUBCHEM_CACTVS_COMPLEXITY>
413

>  <PUBCHEM_CACTVS_HBOND_ACCEPTOR>
5

>  <PUBCHEM_CACTVS_HBOND_DONOR>
3

>  <PUBCHEM_CACTVS_ROTATABLE_BOND>
1

>  <PUBCHEM_CACTVS_SUBSKEYS>
AAADccBwOAAAAAAAAAAAAAAAAAAAAAAAAAAwYIAAAAAAAACBQAAAGgAACAAADASAmAAwBoAABgCIAqBSAAACCAAkIAAIiAEGiMgNJzaGNRqCeWGl4BUJuQfK7LzOIQABCAAIQABCAAIQABCAAAAAAAAAAA==

>  <PUBCHEM_IUPAC_OPENEYE_NAME>
5,6,7-trihydroxy-2-phenyl-chromen-4-one

>  <PUBCHEM_IUPAC_CAS_NAME>
5,6,7-trihydroxy-2-phenyl-1-benzopyran-4-one

>  <PUBCHEM_IUPAC_NAME_MARKUP>
5,6,7-trihydroxy-2-phenylchromen-4-one

>  <PUBCHEM_IUPAC_NAME>
5,6,7-trihydroxy-2-phenylchromen-4-one

>  <PUBCHEM_IUPAC_SYSTEMATIC_NAME>
5,6,7-tris(oxidanyl)-2-phenyl-chromen-4-one

>  <PUBCHEM_IUPAC_TRADITIONAL_NAME>
5,6,7-trihydroxy-2-phenyl-chromone

>  <PUBCHEM_IUPAC_INCHI>
InChI=1S/C15H10O5/c16-9-6-11(8-4-2-1-3-5-8)20-12-7-10(17)14(18)15(19)13(9)12/h1-7,17-19H

>  <PUBCHEM_IUPAC_INCHIKEY>
FXNFHKRTJBSTCS-UHFFFAOYSA-N

>  <PUBCHEM_XLOGP3>
1.7

>  <PUBCHEM_EXACT_MASS>
270.052823

>  <PUBCHEM_MOLECULAR_FORMULA>
C15H10O5

>  <PUBCHEM_MOLECULAR_WEIGHT>
270.24

>  <PUBCHEM_OPENEYE_CAN_SMILES>
C1=CC=C(C=C1)C2=CC(=O)C3=C(O2)C=C(C(=C3O)O)O

>  <PUBCHEM_OPENEYE_ISO_SMILES>
C1=CC=C(C=C1)C2=CC(=O)C3=C(O2)C=C(C(=C3O)O)O

>  <PUBCHEM_CACTVS_TPSA>
87

>  <PUBCHEM_MONOISOTOPIC_WEIGHT>
270.052823

>  <PUBCHEM_TOTAL_CHARGE>
0

>  <PUBCHEM_HEAVY_ATOM_COUNT>
20

>  <PUBCHEM_ATOM_DEF_STEREO_COUNT>
0

>  <PUBCHEM_ATOM_UDEF_STEREO_COUNT>
0

>  <PUBCHEM_BOND_DEF_STEREO_COUNT>
0

>  <PUBCHEM_BOND_UDEF_STEREO_COUNT>
0

>  <PUBCHEM_ISOTOPIC_ATOM_COUNT>
0

>  <PUBCHEM_COMPONENT_COUNT>
1

>  <PUBCHEM_CACTVS_TAUTO_COUNT>
-1

>  <PUBCHEM_COORDINATE_TYPE>
1
5
255

>  <PUBCHEM_BONDANNOTATIONS>
1  7  8
1  8  8
10  11  8
12  16  8
12  17  8
13  15  8
14  15  8
16  18  8
17  19  8
18  20  8
19  20  8
6  10  8
6  7  8
6  9  8
7  13  8
8  11  8
9  14  8

>  <LF dG>
-6.334

>  <LF VSscore>
-7.792

>  <LF Rank Score>
-10.577

>  <LF LE>
-0.317

>  <Preferred Pose_cresset>
true

>  <Favorite_cresset>
false

>  <Protein_cresset>
6Y2F_P

>  <MW_cresset>
270.2

>  <#Atoms_cresset>
20

>  <SlogP_cresset>
2.3

>  <TPSA_cresset>
87

>  <Flexibility_cresset>
1.7

>  <#RB_cresset>
4

>  <Rof5_cresset>
0

>  <Filename_cresset>
Baicalein.sdf

>  <Confs_cresset>
0

>  <Poses_cresset>
10

>  <_cresset_fieldpoints>
    -5       8.761731       3.810643      19.008667     -2.9040
    -5       8.682732       5.482643      19.527668     -3.1080
    -5      13.182732      -1.993357      20.427668    -11.4310
    -5      14.926731      -0.000357      21.163668     -9.7745
    -5      14.486732       5.613643      20.882668     -2.5605
    -6      11.050732       8.611643      23.059668      2.9975
    -6      12.497731       6.610643      16.198668      3.2870
    -6      12.573731       3.277643      16.561666      3.2235
    -6       9.597732      -2.684357      14.146667     11.4105
    -6      14.357731      -1.320357      16.647667      2.1770
    -6      10.653731       4.678643      24.201668      2.7400
    -6      11.996731       9.622643      19.090668      3.1325
    -6       8.791731       2.970643      15.375668      1.9490
    -7       8.644732       3.784643      18.507668     -2.4380
    -7      13.260732       2.749643      16.889668     -2.6040
    -7      12.956732      -2.322357      20.800667     -1.6915
    -7      12.572731       0.752643      15.301667     -1.8210
    -7      14.782731      -0.056357      17.413668     -1.7645
    -7      12.745731      -4.034357      16.806667     -1.3780
    -7      10.803731      -1.734357      13.904667     -1.3755
    -7       7.851731      -3.470357      16.321667     -1.4965
    -7       8.299731       0.396643      13.985667     -1.2060
    -7      12.059731       6.623643      15.830667     -0.9945
    -7       8.988731      -0.826357      20.449667     -1.8130
    -7      11.954731       9.913643      19.074667     -0.9675
    -7      14.741732       4.612643      20.721668     -2.0470
    -7      10.112731       1.311643      21.461668     -2.5835
    -7      11.019732       8.728643      23.343668     -0.9675
    -8      11.576732       5.542643      20.179667      7.1525
    -8      10.599731      -0.218357      17.690668      6.5990
    -8      11.875731       1.254643      19.071667      5.0150

$$$$
Untitled
  xed2sdf_05210316543D
 
 49 52  0  0  1  0  0  0  0  0999 V2000
   10.2482    0.3725   19.6978 O   0  0  0  0  0  0  0  0  0  0  0  0
   11.0472    0.8115   21.9788 O   0  0  0  0  0  0  0  0  0  0  0  0
   11.8402    4.0525   18.4408 O   0  0  0  0  0  0  0  0  0  0  0  0
   11.8002    3.3675   21.2328 O   0  0  0  0  0  0  0  0  0  0  0  0
    9.9522    2.6345   16.7678 O   0  0  0  0  0  0  0  0  0  0  0  0
    8.1742   -0.6015   17.5168 O   0  5  0  0  0  0  0  0  0  0  0  0
   10.3242   -0.4675   16.7588 O   0  0  0  0  0  0  0  0  0  0  0  0
    8.9992   -2.8355   24.1008 O   0  0  0  0  0  0  0  0  0  0  0  0
    9.5372    2.6195   23.4658 O   0  0  0  0  0  0  0  0  0  0  0  0
    7.7492    1.6555   25.2858 O   0  0  0  0  0  0  0  0  0  0  0  0
    6.6992   -0.4165   26.3958 O   0  0  0  0  0  0  0  0  0  0  0  0
   10.9232    3.0825   18.9678 C   0  0  0  0  0  0  0  0  0  0  0  0
   11.5272    2.3985   20.2098 C   0  0  0  0  0  0  0  0  0  0  0  0
   10.5822    2.0225   17.9028 C   0  0  0  0  0  0  0  0  0  0  0  0
   10.5372    1.3395   20.7328 C   0  0  0  0  0  0  0  0  0  0  0  0
    9.6472    0.9695   18.5288 C   0  0  0  0  0  0  0  0  0  0  0  0
    9.3582   -0.1145   17.5218 C   0  0  0  0  0  0  0  0  0  0  0  0
   10.1662    0.3785   22.8808 C   0  0  0  0  0  0  0  0  0  0  0  0
    9.9962   -0.9785   23.0528 C   0  0  0  0  0  0  0  0  0  0  0  0
    9.4002    1.2675   23.6348 C   0  0  0  0  0  0  0  0  0  0  0  0
    9.0982   -1.4835   23.9738 C   0  0  0  0  0  0  0  0  0  0  0  0
    8.3402   -0.5895   24.7308 C   0  0  0  0  0  0  0  0  0  0  0  0
    8.4962    0.7895   24.5508 C   0  0  0  0  0  0  0  0  0  0  0  0
    7.4042   -1.1385   25.6908 C   0  0  0  0  0  0  0  0  0  0  0  0
    8.1122   -3.3375   25.0198 C   0  0  0  0  0  0  0  0  0  0  0  0
    7.3222   -2.5495   25.8068 C   0  0  0  0  0  0  0  0  0  0  0  0
    8.0542   -4.8175   25.1348 C   0  0  0  0  0  0  0  0  0  0  0  0
    9.0322   -5.5595   25.7818 C   0  0  0  0  0  0  0  0  0  0  0  0
    6.9792   -5.4895   24.5738 C   0  0  0  0  0  0  0  0  0  0  0  0
    8.9382   -6.9275   25.8588 C   0  0  0  0  0  0  0  0  0  0  0  0
    6.8862   -6.8585   24.6498 C   0  0  0  0  0  0  0  0  0  0  0  0
    7.8662   -7.5795   25.2918 C   0  0  0  0  0  0  0  0  0  0  0  0
   10.0822    3.5555   19.2308 H   0  0  0  0  0  0  0  0  0  0  0  0
   12.3882    1.9585   19.9568 H   0  0  0  0  0  0  0  0  0  0  0  0
   11.4242    1.5825   17.5888 H   0  0  0  0  0  0  0  0  0  0  0  0
    9.6432    1.7285   20.9508 H   0  0  0  0  0  0  0  0  0  0  0  0
    8.8002    1.4265   18.7988 H   0  0  0  0  0  0  0  0  0  0  0  0
   12.7932    3.8035   18.6418 H   0  0  0  0  0  0  0  0  0  0  0  0
   10.9812    3.5555   21.7868 H   0  0  0  0  0  0  0  0  0  0  0  0
   10.4212    2.3895   15.9118 H   0  0  0  0  0  0  0  0  0  0  0  0
    8.6532    3.0935   23.5218 H   0  0  0  0  0  0  0  0  0  0  0  0
    7.2342    2.2885   24.6978 H   0  0  0  0  0  0  0  0  0  0  0  0
   10.5352   -1.6135   22.4978 H   0  0  0  0  0  0  0  0  0  0  0  0
    6.6892   -2.9635   26.4598 H   0  0  0  0  0  0  0  0  0  0  0  0
    9.8142   -5.0925   26.1968 H   0  0  0  0  0  0  0  0  0  0  0  0
    6.2622   -4.9715   24.1078 H   0  0  0  0  0  0  0  0  0  0  0  0
    9.6502   -7.4505   26.3268 H   0  0  0  0  0  0  0  0  0  0  0  0
    6.1062   -7.3295   24.2388 H   0  0  0  0  0  0  0  0  0  0  0  0
    7.8012   -8.5765   25.3458 H   0  0  0  0  0  0  0  0  0  0  0  0
  1 15  1  0
  1 16  1  0
  2 18  1  0
  6 17  1  0
  7 17  2  0
  8 21  1  0
  8 25  1  0
  9 20  1  0
 10 23  1  0
 11 24  2  0
 12  3  1  0
 12 13  1  0
 12 14  1  0
 13  4  1  0
 13 15  1  0
 14  5  1  0
 14 16  1  0
 15  2  1  0
 16 17  1  0
 18 19  2  0
 18 20  1  0
 19 21  1  0
 20 23  2  0
 21 22  2  0
 22 23  1  0
 22 24  1  0
 24 26  1  0
 25 26  2  0
 25 27  1  0
 27 28  2  0
 27 29  1  0
 28 30  1  0
 29 31  2  0
 30 32  2  0
 31 32  1  0
  3 38  1  0
  4 39  1  0
  5 40  1  0
  9 41  1  0
 10 42  1  0
 12 33  1  0
 13 34  1  0
 14 35  1  0
 15 36  1  0
 16 37  1  0
 19 43  1  0
 26 44  1  0
 28 45  1  0
 29 46  1  0
 30 47  1  0
 31 48  1  0
 32 49  1  0
M  CHG  1   6  -1
M  END
>  <BioMolTech Lead Finder dG>
-8.167

>  <BioMolTech Lead Finder VSscore>
-11.483

>  <BioMolTech Lead Finder Rank score>
-12.722

>  <BioMolTech Lead Finder LE>
-0.255

>  <BioMolTech Lead Finder Structure Name>
/var/folders/xd/y7jw_xv579q2qqq7kks92xd80000gn/T/LeadFinder_21448_1/Ligand_1.sdf

>  <BioMolTech Lead Finder SDF id>
0

>  <BioMolTech Lead Finder Pose rank>
0

>  <BioMolTech Lead Finder version>
2001 1, 19 January 2019

>  <PUBCHEM_COMPOUND_CID>
64982

>  <PUBCHEM_COMPOUND_CANONICALIZED>
1

>  <PUBCHEM_CACTVS_COMPLEXITY>
748

>  <PUBCHEM_CACTVS_HBOND_ACCEPTOR>
11

>  <PUBCHEM_CACTVS_HBOND_DONOR>
6

>  <PUBCHEM_CACTVS_ROTATABLE_BOND>
4

>  <PUBCHEM_CACTVS_SUBSKEYS>
AAADceB4PAAAAAAAAAAAAAAAAAAAAAAAAAA0YIEAAAAAAACBQAAAGgAACAAADBSwmAMwDoAABgCIAqDSCAICCAAkIAAIiAFGiMgdNzaGNR6ieWOl4BUPuQfK7LzOIQABCAAIQABCAAIQABCAAAAAAAAAAA==

>  <PUBCHEM_IUPAC_OPENEYE_NAME>
(2S,3S,4S,5R,6S)-6-(5,6-dihydroxy-4-oxo-2-phenyl-chromen-7-yl)oxy-3,4,5-trihydroxy-tetrahydropyran-2-carboxylic acid

>  <PUBCHEM_IUPAC_CAS_NAME>
(2S,3S,4S,5R,6S)-6-[(5,6-dihydroxy-4-oxo-2-phenyl-1-benzopyran-7-yl)oxy]-3,4,5-trihydroxy-2-oxanecarboxylic acid

>  <PUBCHEM_IUPAC_NAME_MARKUP>
(2<I>S</I>,3<I>S</I>,4<I>S</I>,5<I>R</I>,6<I>S</I>)-6-(5,6-dihydroxy-4-oxo-2-phenylchromen-7-yl)oxy-3,4,5-trihydroxyoxane-2-carboxylic acid

>  <PUBCHEM_IUPAC_NAME>
(2S,3S,4S,5R,6S)-6-(5,6-dihydroxy-4-oxo-2-phenylchromen-7-yl)oxy-3,4,5-trihydroxyoxane-2-carboxylic acid

>  <PUBCHEM_IUPAC_SYSTEMATIC_NAME>
(2S,3S,4S,5R,6S)-6-[5,6-bis(oxidanyl)-4-oxidanylidene-2-phenyl-chromen-7-yl]oxy-3,4,5-tris(oxidanyl)oxane-2-carboxylic acid

>  <PUBCHEM_IUPAC_TRADITIONAL_NAME>
(2S,3S,4S,5R,6S)-6-(5,6-dihydroxy-4-keto-2-phenyl-chromen-7-yl)oxy-3,4,5-trihydroxy-tetrahydropyran-2-carboxylic acid

>  <PUBCHEM_IUPAC_INCHI>
InChI=1S/C21H18O11/c22-9-6-10(8-4-2-1-3-5-8)30-11-7-12(14(23)15(24)13(9)11)31-21-18(27)16(25)17(26)19(32-21)20(28)29/h1-7,16-19,21,23-27H,(H,28,29)/t16-,17-,18+,19-,21+/m0/s1

>  <PUBCHEM_IUPAC_INCHIKEY>
IKIIZLYTISPENI-ZFORQUDYSA-N

>  <PUBCHEM_XLOGP3_AA>
1.1

>  <PUBCHEM_EXACT_MASS>
446.084911

>  <PUBCHEM_MOLECULAR_FORMULA>
C21H18O11

>  <PUBCHEM_MOLECULAR_WEIGHT>
446.4

>  <PUBCHEM_OPENEYE_CAN_SMILES>
C1=CC=C(C=C1)C2=CC(=O)C3=C(C(=C(C=C3O2)OC4C(C(C(C(O4)C(=O)O)O)O)O)O)O

>  <PUBCHEM_OPENEYE_ISO_SMILES>
C1=CC=C(C=C1)C2=CC(=O)C3=C(C(=C(C=C3O2)O[C@H]4[C@@H]([C@H]([C@@H]([C@H](O4)C(=O)O)O)O)O)O)O

>  <PUBCHEM_CACTVS_TPSA>
183

>  <PUBCHEM_MONOISOTOPIC_WEIGHT>
446.084911

>  <PUBCHEM_TOTAL_CHARGE>
0

>  <PUBCHEM_HEAVY_ATOM_COUNT>
32

>  <PUBCHEM_ATOM_DEF_STEREO_COUNT>
5

>  <PUBCHEM_ATOM_UDEF_STEREO_COUNT>
0

>  <PUBCHEM_BOND_DEF_STEREO_COUNT>
0

>  <PUBCHEM_BOND_UDEF_STEREO_COUNT>
0

>  <PUBCHEM_ISOTOPIC_ATOM_COUNT>
0

>  <PUBCHEM_COMPONENT_COUNT>
1

>  <PUBCHEM_CACTVS_TAUTO_COUNT>
-1

>  <PUBCHEM_COORDINATE_TYPE>
1
5
255

>  <PUBCHEM_BONDANNOTATIONS>
16  17  5
18  19  8
18  20  8
19  21  8
15  2  5
20  23  8
21  22  8
22  23  8
22  24  8
24  26  8
25  26  8
27  28  8
27  29  8
28  30  8
29  31  8
12  3  5
30  32  8
31  32  8
13  4  6
14  5  6
8  21  8
8  25  8

>  <LF dG>
-8.167

>  <LF VSscore>
-11.483

>  <LF Rank Score>
-12.722

>  <LF LE>
-0.255

>  <Preferred Pose_cresset>
true

>  <Favorite_cresset>
false

>  <Protein_cresset>
6Y2F_P

>  <MW_cresset>
445.4

>  <#Atoms_cresset>
32

>  <SlogP_cresset>
1.1

>  <TPSA_cresset>
186

>  <Flexibility_cresset>
7.6

>  <#RB_cresset>
9

>  <Rof5_cresset>
1

>  <Filename_cresset>
Baicalin.sdf

>  <Confs_cresset>
0

>  <Poses_cresset>
10

>  <_cresset_fieldpoints>
    -5      10.992235      -1.391456      19.680817     -7.8785
    -5       8.243235      -1.910456      16.177816    -11.0315
    -5      13.058235       2.653544      22.487816    -11.9965
    -5      10.737916       4.601685      16.974758    -15.5476
    -5       9.695235      -4.267456      22.787817     -3.9330
    -5      11.218235       3.065544      24.340816     -6.1605
    -5       9.464235      -1.857456      15.760817    -10.7725
    -5       7.073115       1.332930      27.047424    -21.6756
    -5       9.457235      -6.226456      22.695816     -3.1010
    -5       6.510235      -6.286456      27.796816     -2.3360
    -6      13.844234       2.268544      18.188816      8.9195
    -6       6.918899       3.414874      23.202747     17.8740
    -6       9.092235       3.863544      21.789816     13.8830
    -6      12.058235       1.930544      15.125816      7.5900
    -6       4.378235      -5.760456      23.175816      2.8900
    -6      11.517235      -6.178456      27.334816      2.8105
    -6       5.741235      -3.134456      23.243816      3.0795
    -6      10.618235      -3.220456      26.702816      2.7550
    -6      11.844234      -3.223456      22.165817      1.2290
    -6       9.503235      -9.856457      26.485817      2.6730
    -6       5.898235      -9.718456      24.360817      2.6760
    -7      11.400235      -1.632456      19.977818     -2.4535
    -7      12.345235       2.856544      23.499817     -2.3155
    -7      13.985235       2.004544      17.850817     -1.6430
    -7      12.298235       3.950544      16.051817     -1.5680
    -7      12.528234       5.522544      20.368816     -1.5720
    -7       8.755235       4.030544      21.485817     -2.6735
    -7      12.332235      -0.719456      18.984818     -2.4610
    -7       7.815235       3.666544      17.627817     -1.6630
    -7       7.760235       2.018544      16.039816     -1.6235
    -7       9.845235      -4.430456      22.443817     -2.4570
    -7       7.562235      -0.089456      20.833817     -2.9090
    -7      11.572235       0.608544      15.086817     -1.4910
    -7      11.426235      -0.276456      26.192816     -1.8510
    -7      10.212235      -2.510456      26.955816     -2.6005
    -7       8.726235       3.936544      25.653816     -1.5415
    -7       5.223235       0.984544      24.850817     -1.7925
    -7       8.196235       1.069544      27.813816     -1.6410
    -7       6.067235      -2.551456      22.987816     -2.6175
    -7      11.986235      -6.277456      27.248817     -0.9880
    -7       9.642235     -10.171455      26.587816     -0.9675
    -7       6.334235      -5.204456      27.936817     -2.0495
    -7       5.770235     -10.044456      24.258816     -0.9670
    -7       3.929235      -5.929456      23.196817     -0.9945
    -8      10.576235       2.097544      19.248817      5.1515
    -8       9.239235      -0.137456      23.809816      6.6100
    -8       7.959235      -6.202456      25.216816      7.1520
    -8       8.029235      -1.771456      25.071815      5.0275

$$$$
Untitled
  xed2sdf_05210316543D
 
 62 64  0  0  1  0  0  0  0  0999 V2000
   13.4110    3.5849   18.9097 O   0  0  0  0  0  0  0  0  0  0  0  0
   11.7930    1.0899   18.6697 O   0  0  0  0  0  0  0  0  0  0  0  0
   10.8920   -1.0491   19.3647 O   0  0  0  0  0  0  0  0  0  0  0  0
   10.6620    2.8559   21.3207 O   0  0  0  0  0  0  0  0  0  0  0  0
   14.2430    5.6729   18.0517 O   0  0  0  0  0  0  0  0  0  0  0  0
   10.0610    5.5389   20.5027 O   0  0  0  0  0  0  0  0  0  0  0  0
   12.3270    7.0739   19.5647 O   0  0  0  0  0  0  0  0  0  0  0  0
    8.2340    0.1499   18.7457 O   0  0  0  0  0  0  0  0  0  0  0  0
    8.5470   -0.2191   16.0077 O   0  0  0  0  0  0  0  0  0  0  0  0
   10.3740   -2.4491   15.9647 O   0  0  0  0  0  0  0  0  0  0  0  0
   12.6680    8.6639   14.1437 O   0  0  0  0  0  0  0  0  0  0  0  0
   14.1340    7.2299   12.3087 O   0  0  0  0  0  0  0  0  0  0  0  0
   12.7470    2.9189   20.0037 C   0  0  0  0  0  0  0  0  0  0  0  0
   11.3190    3.4749   20.2037 C   0  0  0  0  0  0  0  0  0  0  0  0
   11.3870    4.9959   20.4267 C   0  0  0  0  0  0  0  0  0  0  0  0
   12.1660    5.6749   19.2867 C   0  0  0  0  0  0  0  0  0  0  0  0
    9.4710    0.5409   18.1327 C   0  0  0  0  0  0  0  0  0  0  0  0
   10.6410    0.3529   19.1207 C   0  0  0  0  0  0  0  0  0  0  0  0
    9.7110   -0.2741   16.8457 C   0  0  0  0  0  0  0  0  0  0  0  0
   10.0540   -1.7411   17.1727 C   0  0  0  0  0  0  0  0  0  0  0  0
   13.5460    5.0089   19.1217 C   0  0  0  0  0  0  0  0  0  0  0  0
   12.7020    1.4019   19.7427 C   0  0  0  0  0  0  0  0  0  0  0  0
   11.2330   -1.7721   18.1647 C   0  0  0  0  0  0  0  0  0  0  0  0
   11.5760   -3.2281   18.5197 C   0  0  0  0  0  0  0  0  0  0  0  0
   15.5050    6.2099   18.4767 C   0  0  0  0  0  0  0  0  0  0  0  0
   15.8270    7.4889   17.6847 C   0  0  0  0  0  0  0  0  0  0  0  0
   15.3700    7.4299   16.2387 C   0  0  0  0  0  0  0  0  0  0  0  0
   14.2210    8.0829   15.8427 C   0  0  0  0  0  0  0  0  0  0  0  0
   16.1030    6.7179   15.3147 C   0  0  0  0  0  0  0  0  0  0  0  0
   13.8050    8.0209   14.5317 C   0  0  0  0  0  0  0  0  0  0  0  0
   15.6920    6.6519   14.0017 C   0  0  0  0  0  0  0  0  0  0  0  0
   14.5430    7.2999   13.6067 C   0  0  0  0  0  0  0  0  0  0  0  0
   13.2650    3.0899   20.8427 H   0  0  0  0  0  0  0  0  0  0  0  0
   10.7890    3.2689   19.3797 H   0  0  0  0  0  0  0  0  0  0  0  0
   11.8650    5.1709   21.2877 H   0  0  0  0  0  0  0  0  0  0  0  0
   11.6510    5.5709   18.4357 H   0  0  0  0  0  0  0  0  0  0  0  0
    9.4160    1.5089   17.8867 H   0  0  0  0  0  0  0  0  0  0  0  0
   10.3960    0.7349   20.0117 H   0  0  0  0  0  0  0  0  0  0  0  0
   10.4890    0.1279   16.3627 H   0  0  0  0  0  0  0  0  0  0  0  0
    9.2660   -2.1911   17.5927 H   0  0  0  0  0  0  0  0  0  0  0  0
   14.0850    5.1069   19.9577 H   0  0  0  0  0  0  0  0  0  0  0  0
   12.0270   -1.3391   17.7377 H   0  0  0  0  0  0  0  0  0  0  0  0
    9.6780    2.7369   21.1507 H   0  0  0  0  0  0  0  0  0  0  0  0
    9.8960    6.2059   19.7677 H   0  0  0  0  0  0  0  0  0  0  0  0
   11.9780    7.6399   18.8097 H   0  0  0  0  0  0  0  0  0  0  0  0
    7.9290    0.8299   19.4207 H   0  0  0  0  0  0  0  0  0  0  0  0
    8.6180    0.5229   15.3317 H   0  0  0  0  0  0  0  0  0  0  0  0
    9.7520   -3.2261   15.8197 H   0  0  0  0  0  0  0  0  0  0  0  0
   11.8700    8.0519   14.1727 H   0  0  0  0  0  0  0  0  0  0  0  0
   14.4550    8.0229   11.7787 H   0  0  0  0  0  0  0  0  0  0  0  0
   13.6180    1.0819   19.4997 H   0  0  0  0  0  0  0  0  0  0  0  0
   12.3830    0.9459   20.5727 H   0  0  0  0  0  0  0  0  0  0  0  0
   10.9560   -3.8381   18.0257 H   0  0  0  0  0  0  0  0  0  0  0  0
   12.5210   -3.4251   18.2587 H   0  0  0  0  0  0  0  0  0  0  0  0
   11.4740   -3.3671   19.5047 H   0  0  0  0  0  0  0  0  0  0  0  0
   16.2230    5.5319   18.3217 H   0  0  0  0  0  0  0  0  0  0  0  0
   15.4560    6.4309   19.4507 H   0  0  0  0  0  0  0  0  0  0  0  0
   16.8160    7.6339   17.7027 H   0  0  0  0  0  0  0  0  0  0  0  0
   15.3320    8.2399   18.1207 H   0  0  0  0  0  0  0  0  0  0  0  0
   13.6890    8.6039   16.5107 H   0  0  0  0  0  0  0  0  0  0  0  0
   16.9380    6.2469   15.5987 H   0  0  0  0  0  0  0  0  0  0  0  0
   16.2280    6.1329   13.3357 H   0  0  0  0  0  0  0  0  0  0  0  0
  1 13  1  0
  1 21  1  0
  2 22  1  0
  3 18  1  0
  3 23  1  0
  5 25  1  0
 11 30  1  0
 12 32  1  0
 13 14  1  0
 13 22  1  0
 14  4  1  0
 14 15  1  0
 15  6  1  0
 15 16  1  0
 16  7  1  0
 16 21  1  0
 17  8  1  0
 17 18  1  0
 17 19  1  0
 18  2  1  0
 19  9  1  0
 19 20  1  0
 20 10  1  0
 20 23  1  0
 21  5  1  0
 23 24  1  0
 25 26  1  0
 26 27  1  0
 27 28  2  0
 27 29  1  0
 28 30  1  0
 29 31  2  0
 30 32  2  0
 31 32  1  0
  4 43  1  0
  6 44  1  0
  7 45  1  0
  8 46  1  0
  9 47  1  0
 10 48  1  0
 11 49  1  0
 12 50  1  0
 13 33  1  0
 14 34  1  0
 15 35  1  0
 16 36  1  0
 17 37  1  0
 18 38  1  0
 19 39  1  0
 20 40  1  0
 21 41  1  0
 22 51  1  0
 22 52  1  0
 23 42  1  0
 24 53  1  0
 24 54  1  0
 24 55  1  0
 25 56  1  0
 25 57  1  0
 26 58  1  0
 26 59  1  0
 28 60  1  0
 29 61  1  0
 31 62  1  0
M  END
>  <BioMolTech Lead Finder dG>
-5.812

>  <BioMolTech Lead Finder VSscore>
-12.952

>  <BioMolTech Lead Finder Rank score>
-10.232

>  <BioMolTech Lead Finder LE>
-0.182

>  <BioMolTech Lead Finder Structure Name>
/var/folders/xd/y7jw_xv579q2qqq7kks92xd80000gn/T/LeadFinder_22003_1/Ligand_1.sdf

>  <BioMolTech Lead Finder SDF id>
0

>  <BioMolTech Lead Finder Pose rank>
0

>  <BioMolTech Lead Finder version>
2001 1, 19 January 2019

>  <PUBCHEM_COMPOUND_CID>
69634125

>  <PUBCHEM_COMPOUND_CANONICALIZED>
1

>  <PUBCHEM_CACTVS_COMPLEXITY>
581

>  <PUBCHEM_CACTVS_HBOND_ACCEPTOR>
12

>  <PUBCHEM_CACTVS_HBOND_DONOR>
8

>  <PUBCHEM_CACTVS_ROTATABLE_BOND>
7

>  <PUBCHEM_CACTVS_SUBSKEYS>
AAADceB4PAAAAAAAAAAAAAAAAAAAAAAAAAA0SIAAAAAAAAABAAAAGgAACAAADBSwmAMyDoAABgCAAiBCAAACAAAgIAAIiAAGiIgZNiKCERKicAElwBEPmAfA4LwOIAABAAAAQABAAAIAAACAAAAAAAAAAA==

>  <PUBCHEM_IUPAC_OPENEYE_NAME>
(2R,3R,4R,5R,6S)-2-[[(2R,3S,4S,5R,6R)-6-[2-(3,4-dihydroxyphenyl)ethoxy]-3,4,5-trihydroxy-tetrahydropyran-2-yl]methoxy]-6-methyl-tetrahydropyran-3,4,5-triol

>  <PUBCHEM_IUPAC_CAS_NAME>
(2R,3R,4R,5R,6S)-2-[[(2R,3S,4S,5R,6R)-6-[2-(3,4-dihydroxyphenyl)ethoxy]-3,4,5-trihydroxy-2-oxanyl]methoxy]-6-methyloxane-3,4,5-triol

>  <PUBCHEM_IUPAC_NAME_MARKUP>
(2<I>R</I>,3<I>R</I>,4<I>R</I>,5<I>R</I>,6<I>S</I>)-2-[[(2<I>R</I>,3<I>S</I>,4<I>S</I>,5<I>R</I>,6<I>R</I>)-6-[2-(3,4-dihydroxyphenyl)ethoxy]-3,4,5-trihydroxyoxan-2-yl]methoxy]-6-methyloxane-3,4,5-tri

>  <PUBCHEM_IUPAC_NAME>
(2R,3R,4R,5R,6S)-2-[[(2R,3S,4S,5R,6R)-6-[2-(3,4-dihydroxyphenyl)ethoxy]-3,4,5-trihydroxyoxan-2-yl]methoxy]-6-methyloxane-3,4,5-triol

>  <PUBCHEM_IUPAC_SYSTEMATIC_NAME>
(2R,3R,4R,5R,6S)-2-[[(2R,3S,4S,5R,6R)-6-[2-[3,4-bis(oxidanyl)phenyl]ethoxy]-3,4,5-tris(oxidanyl)oxan-2-yl]methoxy]-6-methyl-oxane-3,4,5-triol

>  <PUBCHEM_IUPAC_TRADITIONAL_NAME>
(2R,3R,4R,5R,6S)-2-[[(2R,3S,4S,5R,6R)-6-[2-(3,4-dihydroxyphenyl)ethoxy]-3,4,5-trihydroxy-tetrahydropyran-2-yl]methoxy]-6-methyl-tetrahydropyran-3,4,5-triol

>  <PUBCHEM_IUPAC_INCHI>
InChI=1S/C20H30O12/c1-8-13(23)15(25)17(27)20(31-8)30-7-12-14(24)16(26)18(28)19(32-12)29-5-4-9-2-3-10(21)11(22)6-9/h2-3,6,8,12-28H,4-5,7H2,1H3/t8-,12+,13-,14+,15+,16-,17+,18+,19+,20+/m0/s1

>  <PUBCHEM_IUPAC_INCHIKEY>
QIMGUQIHCNDUKU-OJJLXHDHSA-N

>  <PUBCHEM_XLOGP3_AA>
-2.5

>  <PUBCHEM_EXACT_MASS>
462.173726

>  <PUBCHEM_MOLECULAR_FORMULA>
C20H30O12

>  <PUBCHEM_MOLECULAR_WEIGHT>
462.4

>  <PUBCHEM_OPENEYE_CAN_SMILES>
CC1C(C(C(C(O1)OCC2C(C(C(C(O2)OCCC3=CC(=C(C=C3)O)O)O)O)O)O)O)O

>  <PUBCHEM_OPENEYE_ISO_SMILES>
C[C@H]1[C@@H]([C@H]([C@H]([C@@H](O1)OC[C@@H]2[C@H]([C@@H]([C@H]([C@@H](O2)OCCC3=CC(=C(C=C3)O)O)O)O)O)O)O)O

>  <PUBCHEM_CACTVS_TPSA>
199

>  <PUBCHEM_MONOISOTOPIC_WEIGHT>
462.173726

>  <PUBCHEM_TOTAL_CHARGE>
0

>  <PUBCHEM_HEAVY_ATOM_COUNT>
32

>  <PUBCHEM_ATOM_DEF_STEREO_COUNT>
10

>  <PUBCHEM_ATOM_UDEF_STEREO_COUNT>
0

>  <PUBCHEM_BOND_DEF_STEREO_COUNT>
0

>  <PUBCHEM_BOND_UDEF_STEREO_COUNT>
0

>  <PUBCHEM_ISOTOPIC_ATOM_COUNT>
0

>  <PUBCHEM_COMPONENT_COUNT>
1

>  <PUBCHEM_CACTVS_TAUTO_COUNT>
-1

>  <PUBCHEM_COORDINATE_TYPE>
1
5
255

>  <PUBCHEM_BONDANNOTATIONS>
20  10  5
13  22  5
18  2  5
23  24  6
27  28  8
27  29  8
28  30  8
29  31  8
30  32  8
31  32  8
14  4  6
21  5  5
15  6  5
16  7  6
17  8  6
19  9  6

>  <LF dG>
-5.812

>  <LF VSscore>
-12.952

>  <LF Rank Score>
-10.232

>  <LF LE>
-0.182

>  <Preferred Pose_cresset>
true

>  <Favorite_cresset>
false

>  <Protein_cresset>
6Y2F_P

>  <MW_cresset>
462.4

>  <#Atoms_cresset>
32

>  <SlogP_cresset>
-0.4

>  <TPSA_cresset>
198.8

>  <Flexibility_cresset>
15.9

>  <#RB_cresset>
15

>  <Rof5_cresset>
2

>  <Filename_cresset>
Forsythoside E.sdf

>  <Confs_cresset>
0

>  <Poses_cresset>
10

>  <_cresset_fieldpoints>
    -5      14.084011       4.635864      16.344652    -10.5740
    -5       7.072011      -0.635136      17.287653    -12.8335
    -5      11.165010       3.042864      23.078653     -7.0080
    -5       9.394011       5.592864      22.252653     -6.7230
    -5      12.830010       7.799864      21.190653     -5.5240
    -5      11.744011      -2.046136      14.857653     -9.4650
    -5      16.448011       9.860865      14.602653     -3.9215
    -5      13.029011      10.652864      13.710653     -3.6215
    -5      13.382010       5.330864      11.892653     -4.5680
    -6      10.169011       7.372864      18.306652     11.7855
    -6       8.362011       2.436864      20.026653     12.2595
    -6       9.076011       2.278864      15.350653      6.0325
    -6       9.025011      -4.703135      16.462652      3.8250
    -6      15.198010       9.077864      10.576653      4.2350
    -6      15.771011       4.837864      21.407654      3.5065
    -6      17.959011       6.882864      20.039654      2.8755
    -6      18.572010       5.931864      17.365652      2.8620
    -7      12.138011      -1.519136      21.389652     -2.2000
    -7       8.183011       3.231864      19.517653     -2.2650
    -7      11.807011       1.717864      23.012653     -1.9005
    -7       9.111011       4.427864      22.587652     -1.5280
    -7       8.491011       0.905864      21.628653     -1.7090
    -7      10.743011       0.902864      22.561653     -2.0590
    -7      10.579011       8.143864      20.815653     -1.6345
    -7      11.686010       2.862864      16.938652     -3.5795
    -7      13.973011       8.425864      20.382652     -2.3060
    -7       6.687011      -1.220136      17.491653     -1.7840
    -7       8.879011      -1.752136      14.099653     -1.6270
    -7      12.692011      -2.577136      15.345653     -1.7670
    -7       8.666011      -4.739136      17.214653     -1.4215
    -7      12.007010       8.441864      11.725653     -1.5225
    -7      11.155011       7.320864      16.595654     -2.1890
    -7      15.746011       6.400864      10.589653     -1.2535
    -7      14.161011       4.923864      22.485653     -1.9460
    -7      12.496011      -1.431136      15.101653     -1.7905
    -7       8.639010      -1.929136      20.208652     -2.5140
    -7      18.693010       5.738864      17.294653     -1.7295
    -7      16.770012      10.025864      14.493652     -1.8240
    -7      13.197011       4.797864      16.005653     -3.3010
    -8      12.207011       4.451864      19.957653      5.1520
    -8      10.968011      -2.593136      17.955652      4.4780
    -8      10.314011      -0.602136      17.661654      4.8175
    -8      12.299011       2.418864      20.270653      3.9340
    -8      14.997011       7.353864      14.968653      6.9170

$$$$
Untitled
  xed2sdf_05210316543D
 
 94 97  0  0  1  0  0  0  0  0999 V2000
   12.7408    1.9191   20.3590 O   0  0  0  0  0  0  0  0  0  0  0  0
    9.1008   -1.8659   21.9010 O   0  0  0  0  0  0  0  0  0  0  0  0
    9.0218   -0.5779   26.8360 O   0  0  0  0  0  0  0  0  0  0  0  0
   11.5778    6.0711   22.4250 O   0  0  0  0  0  0  0  0  0  0  0  0
   13.5978    6.4081   24.2450 O   0  0  0  0  0  0  0  0  0  0  0  0
    8.1108   -0.2449   24.7930 N   0  0  0  0  0  0  0  0  0  0  0  0
    9.8688    0.1131   22.7300 N   0  0  0  0  0  0  0  0  0  0  0  0
   12.7888    4.4711   21.3430 N   0  0  0  0  0  0  0  0  0  0  0  0
    7.7948    1.2671   26.5670 N   0  0  0  0  0  0  0  0  0  0  0  0
   10.2178    0.6461   21.4050 C   0  0  0  0  0  0  0  0  0  0  0  0
    8.8358   -1.4119   24.2440 C   0  0  0  0  0  0  0  0  0  0  0  0
   10.6328    2.1211   21.5720 C   0  0  0  0  0  0  0  0  0  0  0  0
   11.4768    2.6001   20.3720 C   0  0  0  0  0  0  0  0  0  0  0  0
    8.2778   -2.8569   24.3250 C   0  0  0  0  0  0  0  0  0  0  0  0
   11.6958    4.1261   20.4230 C   0  0  0  0  0  0  0  0  0  0  0  0
    9.0038    0.5211   20.4560 C   0  0  0  0  0  0  0  0  0  0  0  0
    9.2868   -1.0949   22.8330 C   0  0  0  0  0  0  0  0  0  0  0  0
    7.2438    0.5551   23.9080 C   0  0  0  0  0  0  0  0  0  0  0  0
    6.2148    1.3691   24.6980 C   0  0  0  0  0  0  0  0  0  0  0  0
   12.0508    4.6641   19.0190 C   0  0  0  0  0  0  0  0  0  0  0  0
    8.3298    0.1191   26.0850 C   0  0  0  0  0  0  0  0  0  0  0  0
    7.0708   -3.0149   25.2750 C   0  0  0  0  0  0  0  0  0  0  0  0
    9.3918   -3.8519   24.6920 C   0  0  0  0  0  0  0  0  0  0  0  0
    7.0028    2.1791   25.7290 C   0  0  0  0  0  0  0  0  0  0  0  0
    9.3348    0.0331   19.0540 C   0  0  0  0  0  0  0  0  0  0  0  0
   13.5308    4.9551   18.8080 C   0  0  0  0  0  0  0  0  0  0  0  0
   12.6198    5.4601   22.2350 C   0  0  0  0  0  0  0  0  0  0  0  0
    9.2618    0.8971   17.9830 C   0  0  0  0  0  0  0  0  0  0  0  0
    9.7098   -1.2759   18.8430 C   0  0  0  0  0  0  0  0  0  0  0  0
   14.4248    3.9201   18.6420 C   0  0  0  0  0  0  0  0  0  0  0  0
   13.9858    6.2551   18.7820 C   0  0  0  0  0  0  0  0  0  0  0  0
   13.8908    5.7731   22.9850 C   0  0  0  0  0  0  0  0  0  0  0  0
    9.5608    0.4581   16.7140 C   0  0  0  0  0  0  0  0  0  0  0  0
   10.0098   -1.7169   17.5750 C   0  0  0  0  0  0  0  0  0  0  0  0
    9.9358   -0.8499   16.5100 C   0  0  0  0  0  0  0  0  0  0  0  0
   15.7628    4.1821   18.4560 C   0  0  0  0  0  0  0  0  0  0  0  0
   15.3228    6.5191   18.5960 C   0  0  0  0  0  0  0  0  0  0  0  0
   16.2128    5.4821   18.4330 C   0  0  0  0  0  0  0  0  0  0  0  0
   13.9718    5.7521   25.3510 C   0  0  0  0  0  0  0  0  0  0  0  0
   13.0248    5.0811   26.1160 C   0  0  0  0  0  0  0  0  0  0  0  0
   15.3028    5.7391   25.7560 C   0  0  0  0  0  0  0  0  0  0  0  0
   13.4088    4.4021   27.2480 C   0  0  0  0  0  0  0  0  0  0  0  0
   15.6678    5.0521   26.8900 C   0  0  0  0  0  0  0  0  0  0  0  0
   11.5398    5.0301   25.7920 C   0  0  0  0  0  0  0  0  0  0  0  0
   16.4278    6.4491   25.0170 C   0  0  0  0  0  0  0  0  0  0  0  0
   14.7278    4.3831   27.6360 C   0  0  0  0  0  0  0  0  0  0  0  0
   10.9758    0.1291   21.0070 H   0  0  0  0  0  0  0  0  0  0  0  0
    9.5678   -1.4999   24.9190 H   0  0  0  0  0  0  0  0  0  0  0  0
   10.9788    2.3851   19.5320 H   0  0  0  0  0  0  0  0  0  0  0  0
   10.8448    4.5411   20.7450 H   0  0  0  0  0  0  0  0  0  0  0  0
   12.8998    1.4581   19.4800 H   0  0  0  0  0  0  0  0  0  0  0  0
   10.0408    0.5931   23.4480 H   0  0  0  0  0  0  0  0  0  0  0  0
   13.5608    4.0511   21.2800 H   0  0  0  0  0  0  0  0  0  0  0  0
    7.9478    1.4851   27.4060 H   0  0  0  0  0  0  0  0  0  0  0  0
   11.1688    2.2181   22.4110 H   0  0  0  0  0  0  0  0  0  0  0  0
    9.8058    2.6801   21.6210 H   0  0  0  0  0  0  0  0  0  0  0  0
    7.9338   -3.0659   23.4100 H   0  0  0  0  0  0  0  0  0  0  0  0
    8.5718    1.4201   20.3810 H   0  0  0  0  0  0  0  0  0  0  0  0
    8.4028   -0.1709   20.8580 H   0  0  0  0  0  0  0  0  0  0  0  0
    6.7618   -0.0609   23.2830 H   0  0  0  0  0  0  0  0  0  0  0  0
    7.8228    1.1961   23.4040 H   0  0  0  0  0  0  0  0  0  0  0  0
    5.5668    0.7591   25.1550 H   0  0  0  0  0  0  0  0  0  0  0  0
    5.6868    1.9671   24.0950 H   0  0  0  0  0  0  0  0  0  0  0  0
   11.5398    5.5111   18.8690 H   0  0  0  0  0  0  0  0  0  0  0  0
   11.8098    3.9431   18.3700 H   0  0  0  0  0  0  0  0  0  0  0  0
    7.2688   -3.7379   25.9360 H   0  0  0  0  0  0  0  0  0  0  0  0
    6.9048   -2.1539   25.7560 H   0  0  0  0  0  0  0  0  0  0  0  0
    6.2558   -3.2539   24.7460 H   0  0  0  0  0  0  0  0  0  0  0  0
    9.0958   -4.3969   25.4770 H   0  0  0  0  0  0  0  0  0  0  0  0
    9.5778   -4.4529   23.9150 H   0  0  0  0  0  0  0  0  0  0  0  0
   10.2268   -3.3519   24.9240 H   0  0  0  0  0  0  0  0  0  0  0  0
    7.6128    2.8171   25.2590 H   0  0  0  0  0  0  0  0  0  0  0  0
    6.3668    2.6931   26.3040 H   0  0  0  0  0  0  0  0  0  0  0  0
    8.9898    1.8491   18.1300 H   0  0  0  0  0  0  0  0  0  0  0  0
    9.7628   -1.9089   19.6160 H   0  0  0  0  0  0  0  0  0  0  0  0
   14.0998    2.9741   18.6580 H   0  0  0  0  0  0  0  0  0  0  0  0
   13.3408    7.0111   18.9000 H   0  0  0  0  0  0  0  0  0  0  0  0
   14.3938    4.9241   23.1520 H   0  0  0  0  0  0  0  0  0  0  0  0
   14.4438    6.3971   22.4320 H   0  0  0  0  0  0  0  0  0  0  0  0
    9.5058    1.0891   15.9400 H   0  0  0  0  0  0  0  0  0  0  0  0
   10.2818   -2.6679   17.4270 H   0  0  0  0  0  0  0  0  0  0  0  0
   10.1538   -1.1699   15.5870 H   0  0  0  0  0  0  0  0  0  0  0  0
   16.4088    3.4271   18.3370 H   0  0  0  0  0  0  0  0  0  0  0  0
   15.6488    7.4651   18.5790 H   0  0  0  0  0  0  0  0  0  0  0  0
   17.1848    5.6731   18.2980 H   0  0  0  0  0  0  0  0  0  0  0  0
   12.7238    3.9181   27.7920 H   0  0  0  0  0  0  0  0  0  0  0  0
   16.6268    5.0401   27.1740 H   0  0  0  0  0  0  0  0  0  0  0  0
   11.0738    4.4851   26.4890 H   0  0  0  0  0  0  0  0  0  0  0  0
   11.1638    5.9561   25.7810 H   0  0  0  0  0  0  0  0  0  0  0  0
   11.4058    4.6131   24.8930 H   0  0  0  0  0  0  0  0  0  0  0  0
   17.2868    6.2901   25.5030 H   0  0  0  0  0  0  0  0  0  0  0  0
   16.4968    6.0941   24.0850 H   0  0  0  0  0  0  0  0  0  0  0  0
   16.2388    7.4301   24.9780 H   0  0  0  0  0  0  0  0  0  0  0  0
   15.0008    3.8831   28.4580 H   0  0  0  0  0  0  0  0  0  0  0  0
  2 17  2  0
  3 21  2  0
  4 27  2  0
  5 32  1  0
  5 39  1  0
  6 11  1  0
  6 18  1  0
  6 21  1  0
  7 17  1  0
  8 27  1  0
  9 21  1  0
  9 24  1  0
 10  7  1  0
 10 12  1  0
 10 16  1  0
 11 14  1  0
 11 17  1  0
 12 13  1  0
 13  1  1  0
 13 15  1  0
 14 22  1  0
 14 23  1  0
 15  8  1  0
 15 20  1  0
 16 25  1  0
 18 19  1  0
 19 24  1  0
 20 26  1  0
 25 28  2  0
 25 29  1  0
 26 30  2  0
 26 31  1  0
 27 32  1  0
 28 33  1  0
 29 34  2  0
 30 36  1  0
 31 37  2  0
 33 35  2  0
 34 35  1  0
 36 38  2  0
 37 38  1  0
 39 40  2  0
 39 41  1  0
 40 42  1  0
 40 44  1  0
 41 43  2  0
 41 45  1  0
 42 46  2  0
 43 46  1  0
  1 51  1  0
  7 52  1  0
  8 53  1  0
  9 54  1  0
 10 47  1  0
 11 48  1  0
 12 55  1  0
 12 56  1  0
 13 49  1  0
 14 57  1  0
 15 50  1  0
 16 58  1  0
 16 59  1  0
 18 60  1  0
 18 61  1  0
 19 62  1  0
 19 63  1  0
 20 64  1  0
 20 65  1  0
 22 66  1  0
 22 67  1  0
 22 68  1  0
 23 69  1  0
 23 70  1  0
 23 71  1  0
 24 72  1  0
 24 73  1  0
 28 74  1  0
 29 75  1  0
 30 76  1  0
 31 77  1  0
 32 78  1  0
 32 79  1  0
 33 80  1  0
 34 81  1  0
 35 82  1  0
 36 83  1  0
 37 84  1  0
 38 85  1  0
 42 86  1  0
 43 87  1  0
 44 88  1  0
 44 89  1  0
 44 90  1  0
 45 91  1  0
 45 92  1  0
 45 93  1  0
 46 94  1  0
M  END
>  <BioMolTech Lead Finder dG>
-9.962

>  <BioMolTech Lead Finder VSscore>
-11.669

>  <BioMolTech Lead Finder Rank score>
-13.118

>  <BioMolTech Lead Finder LE>
-0.217

>  <BioMolTech Lead Finder Structure Name>
/var/folders/xd/y7jw_xv579q2qqq7kks92xd80000gn/T/LeadFinder_21446_1/Ligand_1.sdf

>  <BioMolTech Lead Finder SDF id>
0

>  <BioMolTech Lead Finder Pose rank>
0

>  <BioMolTech Lead Finder version>
2001 1, 19 January 2019

>  <PUBCHEM_COMPOUND_CID>
92727

>  <PUBCHEM_COMPOUND_CANONICALIZED>
1

>  <PUBCHEM_CACTVS_COMPLEXITY>
940

>  <PUBCHEM_CACTVS_HBOND_ACCEPTOR>
5

>  <PUBCHEM_CACTVS_HBOND_DONOR>
4

>  <PUBCHEM_CACTVS_ROTATABLE_BOND>
15

>  <PUBCHEM_CACTVS_SUBSKEYS>
AAADcfB/uAAAAAAAAAAAAAAAAAAAAAAAAAA8YMEAAAAAAAABUAAAHgAQCAAADTzhmAYzBoPABgCIAiFSEAICCAAgIAAIiIHMCIiOdjKE8T+XeCCu1hOYqAeQwPAOAAACAAAIAAAAAAQAABAAAAAAAAAAAA==

>  <PUBCHEM_IUPAC_OPENEYE_NAME>
(2S)-N-[(1S,3S,4S)-1-benzyl-4-[[2-(2,6-dimethylphenoxy)acetyl]amino]-3-hydroxy-5-phenyl-pentyl]-3-methyl-2-(2-oxohexahydropyrimidin-1-yl)butanamide

>  <PUBCHEM_IUPAC_CAS_NAME>
(2S)-N-[(2S,4S,5S)-5-[[2-(2,6-dimethylphenoxy)-1-oxoethyl]amino]-4-hydroxy-1,6-diphenylhexan-2-yl]-3-methyl-2-(2-oxo-1,3-diazinan-1-yl)butanamide

>  <PUBCHEM_IUPAC_NAME_MARKUP>
(2<I>S</I>)-<I>N</I>-[(2<I>S</I>,4<I>S</I>,5<I>S</I>)-5-[[2-(2,6-dimethylphenoxy)acetyl]amino]-4-hydroxy-1,6-diphenylhexan-2-yl]-3-methyl-2-(2-oxo-1,3-diazinan-1-yl)butanamide

>  <PUBCHEM_IUPAC_NAME>
(2S)-N-[(2S,4S,5S)-5-[[2-(2,6-dimethylphenoxy)acetyl]amino]-4-hydroxy-1,6-diphenylhexan-2-yl]-3-methyl-2-(2-oxo-1,3-diazinan-1-yl)butanamide

>  <PUBCHEM_IUPAC_SYSTEMATIC_NAME>
(2S)-N-[(2S,4S,5S)-5-[2-(2,6-dimethylphenoxy)ethanoylamino]-4-oxidanyl-1,6-diphenyl-hexan-2-yl]-3-methyl-2-(2-oxidanylidene-1,3-diazinan-1-yl)butanamide

>  <PUBCHEM_IUPAC_TRADITIONAL_NAME>
(2S)-N-[(1S,3S,4S)-1-benzyl-4-[[2-(2,6-dimethylphenoxy)acetyl]amino]-3-hydroxy-5-phenyl-pentyl]-2-(2-ketohexahydropyrimidin-1-yl)-3-methyl-butyramide

>  <PUBCHEM_IUPAC_INCHI>
InChI=1S/C37H48N4O5/c1-25(2)34(41-20-12-19-38-37(41)45)36(44)39-30(21-28-15-7-5-8-16-28)23-32(42)31(22-29-17-9-6-10-18-29)40-33(43)24-46-35-26(3)13-11-14-27(35)4/h5-11,13-18,25,30-32,34,42H,12,19-24H2

>  <PUBCHEM_IUPAC_INCHIKEY>
KJHKTHWMRKYKJE-SUGCFTRWSA-N

>  <PUBCHEM_XLOGP3_AA>
5.9

>  <PUBCHEM_EXACT_MASS>
628.362471

>  <PUBCHEM_MOLECULAR_FORMULA>
C37H48N4O5

>  <PUBCHEM_MOLECULAR_WEIGHT>
628.8

>  <PUBCHEM_OPENEYE_CAN_SMILES>
CC1=C(C(=CC=C1)C)OCC(=O)NC(CC2=CC=CC=C2)C(CC(CC3=CC=CC=C3)NC(=O)C(C(C)C)N4CCCNC4=O)O

>  <PUBCHEM_OPENEYE_ISO_SMILES>
CC1=C(C(=CC=C1)C)OCC(=O)N[C@@H](CC2=CC=CC=C2)[C@H](C[C@H](CC3=CC=CC=C3)NC(=O)[C@H](C(C)C)N4CCCNC4=O)O

>  <PUBCHEM_CACTVS_TPSA>
120

>  <PUBCHEM_MONOISOTOPIC_WEIGHT>
628.362471

>  <PUBCHEM_TOTAL_CHARGE>
0

>  <PUBCHEM_HEAVY_ATOM_COUNT>
46

>  <PUBCHEM_ATOM_DEF_STEREO_COUNT>
4

>  <PUBCHEM_ATOM_UDEF_STEREO_COUNT>
0

>  <PUBCHEM_BOND_DEF_STEREO_COUNT>
0

>  <PUBCHEM_BOND_UDEF_STEREO_COUNT>
0

>  <PUBCHEM_ISOTOPIC_ATOM_COUNT>
0

>  <PUBCHEM_COMPONENT_COUNT>
1

>  <PUBCHEM_CACTVS_TAUTO_COUNT>
-1

>  <PUBCHEM_COORDINATE_TYPE>
1
5
255

>  <PUBCHEM_BONDANNOTATIONS>
13  1  6
11  17  5
25  28  8
25  29  8
26  30  8
26  31  8
28  33  8
29  34  8
30  36  8
31  37  8
33  35  8
34  35  8
36  38  8
37  38  8
39  40  8
39  41  8
40  42  8
41  43  8
42  46  8
43  46  8
10  7  6
15  8  5

>  <LF dG>
-9.962

>  <LF VSscore>
-11.669

>  <LF Rank Score>
-13.118

>  <LF LE>
-0.217

>  <Preferred Pose_cresset>
true

>  <Favorite_cresset>
false

>  <Protein_cresset>
6Y2F_P

>  <MW_cresset>
628.8

>  <#Atoms_cresset>
46

>  <SlogP_cresset>
4.7

>  <TPSA_cresset>
120

>  <Flexibility_cresset>
16.1

>  <#RB_cresset>
16

>  <Rof5_cresset>
1

>  <Filename_cresset>
Lopinavir.sdf

>  <Confs_cresset>
0

>  <Poses_cresset>
10

>  <_cresset_fieldpoints>
    -5      13.594777       1.377091      21.914015     -6.8090
    -5      14.402777       2.397091      25.182014     -4.3150
    -5       8.534777      -3.437909      21.240013     -9.8780
    -5       9.759777      -2.051908      27.445015    -12.2400
    -5      11.486777       7.382092      23.582014    -15.2050
    -5      11.986777      -0.969909      23.013014     -4.6195
    -5       9.633777      -0.989909      28.410015    -11.9015
    -5       6.907777      -1.514909      17.769014     -4.8165
    -5      14.515778       5.459091      15.758015     -3.4185
    -6      15.671777       3.676091      21.857014      3.7530
    -6      12.621777       1.625091      17.770014      8.4060
    -6       7.426777       3.215091      28.535015      4.2815
    -6       9.697777       2.621091      24.247015      4.7560
    -6      18.818777       3.700091      18.118015      2.9830
    -6       7.352777       2.932091      21.906013      6.2245
    -6       8.900777       3.699091      19.232014      7.6910
    -6      18.864777       5.153091      26.981014      2.3490
    -6      18.300777       7.768091      18.393015      2.7325
    -7      14.802777       2.009091      21.394014     -2.6745
    -7      12.524777       1.577091      17.341015     -3.5525
    -7       6.737777      -1.924909      21.422014     -3.2255
    -7      10.188777       2.239091      25.118013     -3.7945
    -7      12.098777      -1.132909      23.572014     -2.4145
    -7       9.228777      -2.696908      27.695015     -2.2985
    -7      11.500777       7.593091      20.565014     -2.6330
    -7       8.593777       3.878091      19.425014     -3.1725
    -7      11.356777       7.857091      23.975014     -2.3520
    -7       9.628777       4.795092      23.091015     -3.0880
    -7      14.489777       8.918091      23.707014     -1.9895
    -7       9.002777       3.787091      27.718014     -1.7370
    -7       7.006777      -5.777909      23.451014     -1.4985
    -7       7.360777       3.198091      21.934013     -2.7295
    -7       4.624777      -1.448909      23.788013     -2.0040
    -7       5.851777      -0.530909      27.459015     -2.4015
    -7      11.352777      -2.564909      21.516014     -2.8185
    -7       9.218777       3.937091      23.708014     -3.0450
    -7       8.260777      -0.162909      13.651014     -0.9580
    -7      10.933777      -3.712909      14.983014     -0.9690
    -7       6.466777      -1.139909      17.660015     -1.8470
    -7      12.828777      -0.655909      19.424015     -2.7345
    -7      19.126778       3.739091      18.323013     -0.9705
    -7      13.211777       2.715091      23.703014     -3.8880
    -7      14.096777       5.234091      15.462014     -1.8410
    -7      13.785777       7.863091      28.010014     -1.9925
    -7      17.695778       3.537091      29.107014     -1.0045
    -7      16.512777       4.662091      21.705013     -2.9200
    -8      10.098777       1.456091      20.658014      5.6855
    -8      10.826777       3.062091      20.834015      5.0030
    -8       6.786777       1.582091      24.573013      4.9585
    -8       8.426777      -2.943909      24.772015      5.8100
    -8       9.638777      -0.405909      17.788013      7.2065
    -8       9.690777       0.440091      20.076014      5.6140
    -8      14.006777       5.486092      22.271013      2.8860
    -8      11.502777       3.768091      19.588015      5.0395
    -8      14.358777       5.052092      26.521015      7.0760
    -8      14.867777       5.217092      18.625013      7.1940
    -8      15.476777       5.702091      25.833014      5.4880

$$$$
Untitled
  xed2sdf_05210316543D
 
 33 35  0  0  0  0  0  0  0  0999 V2000
    9.1112   -2.8894   24.0744 O   0  0  0  0  0  0  0  0  0  0  0  0
   10.4482   -4.2504   22.1734 O   0  0  0  0  0  0  0  0  0  0  0  0
    8.3152   -7.0914   26.3444 O   0  0  0  0  0  0  0  0  0  0  0  0
   10.7192   -6.9684   22.2924 O   0  0  0  0  0  0  0  0  0  0  0  0
    7.4222   -4.7024   27.2664 O   0  0  0  0  0  0  0  0  0  0  0  0
    8.6682   -4.9584   25.2704 C   0  0  0  0  0  0  0  0  0  0  0  0
    9.2222   -4.2424   24.2034 C   0  0  0  0  0  0  0  0  0  0  0  0
    8.3822   -2.2004   25.0094 C   0  0  0  0  0  0  0  0  0  0  0  0
    9.9172   -4.9234   23.2124 C   0  0  0  0  0  0  0  0  0  0  0  0
    7.9402   -4.1974   26.2714 C   0  0  0  0  0  0  0  0  0  0  0  0
    8.8282   -6.3534   25.3234 C   0  0  0  0  0  0  0  0  0  0  0  0
    7.8082   -2.7974   26.0924 C   0  0  0  0  0  0  0  0  0  0  0  0
    8.2442   -0.7374   24.7994 C   0  0  0  0  0  0  0  0  0  0  0  0
   10.0522   -6.2974   23.2694 C   0  0  0  0  0  0  0  0  0  0  0  0
    9.5092   -7.0034   24.3294 C   0  0  0  0  0  0  0  0  0  0  0  0
    7.0282   -0.0824   24.9234 C   0  0  0  0  0  0  0  0  0  0  0  0
    9.3652    0.0056   24.4594 C   0  0  0  0  0  0  0  0  0  0  0  0
    6.9392    1.2736   24.7184 C   0  0  0  0  0  0  0  0  0  0  0  0
    9.2752    1.3606   24.2574 C   0  0  0  0  0  0  0  0  0  0  0  0
    8.0612    1.9976   24.3864 C   0  0  0  0  0  0  0  0  0  0  0  0
   11.7802   -3.7244   22.3404 C   0  0  0  0  0  0  0  0  0  0  0  0
    8.6722   -6.8054   27.2364 H   0  0  0  0  0  0  0  0  0  0  0  0
   10.2732   -6.8674   21.3964 H   0  0  0  0  0  0  0  0  0  0  0  0
    7.2972   -2.2514   26.7564 H   0  0  0  0  0  0  0  0  0  0  0  0
    9.6162   -7.9964   24.3684 H   0  0  0  0  0  0  0  0  0  0  0  0
    6.2082   -0.6014   25.1634 H   0  0  0  0  0  0  0  0  0  0  0  0
   10.2492   -0.4514   24.3604 H   0  0  0  0  0  0  0  0  0  0  0  0
    6.0562    1.7356   24.8104 H   0  0  0  0  0  0  0  0  0  0  0  0
   10.0922    1.8856   24.0164 H   0  0  0  0  0  0  0  0  0  0  0  0
    7.9962    2.9846   24.2394 H   0  0  0  0  0  0  0  0  0  0  0  0
   12.1102   -3.9594   23.2554 H   0  0  0  0  0  0  0  0  0  0  0  0
   12.3882   -4.1174   21.6514 H   0  0  0  0  0  0  0  0  0  0  0  0
   11.7652   -2.7304   22.2324 H   0  0  0  0  0  0  0  0  0  0  0  0
  1  7  1  0
  1  8  1  0
  2  9  1  0
  2 21  1  0
  3 11  1  0
  4 14  1  0
  5 10  2  0
  6  7  2  0
  6 10  1  0
  6 11  1  0
  7  9  1  0
  8 12  2  0
  8 13  1  0
  9 14  2  0
 10 12  1  0
 11 15  2  0
 13 16  2  0
 13 17  1  0
 14 15  1  0
 16 18  1  0
 17 19  2  0
 18 20  2  0
 19 20  1  0
  3 22  1  0
  4 23  1  0
 12 24  1  0
 15 25  1  0
 16 26  1  0
 17 27  1  0
 18 28  1  0
 19 29  1  0
 20 30  1  0
 21 31  1  0
 21 32  1  0
 21 33  1  0
M  END
>  <BioMolTech Lead Finder dG>
-6.434

>  <BioMolTech Lead Finder VSscore>
-7.672

>  <BioMolTech Lead Finder Rank score>
-10.335

>  <BioMolTech Lead Finder LE>
-0.306

>  <BioMolTech Lead Finder Structure Name>
/var/folders/xd/y7jw_xv579q2qqq7kks92xd80000gn/T/LeadFinder_21449_1/Ligand_1.sdf

>  <BioMolTech Lead Finder SDF id>
0

>  <BioMolTech Lead Finder Pose rank>
0

>  <BioMolTech Lead Finder version>
2001 1, 19 January 2019

>  <PUBCHEM_COMPOUND_CID>
5281703

>  <PUBCHEM_COMPOUND_CANONICALIZED>
1

>  <PUBCHEM_CACTVS_COMPLEXITY>
426

>  <PUBCHEM_CACTVS_HBOND_ACCEPTOR>
5

>  <PUBCHEM_CACTVS_HBOND_DONOR>
2

>  <PUBCHEM_CACTVS_ROTATABLE_BOND>
2

>  <PUBCHEM_CACTVS_SUBSKEYS>
AAADccB4OAAAAAAAAAAAAAAAAAAAAAAAAAAwYIAAAAAAAACBQAAAGgAACAAADASAmAIyBoAABgCIAqBSAAACCAAkIAAIiAEGiMgNJzaGNRqCeWOl4BULuQfK7LzOIQABCAAIQABCAAIQABCAAAAAAAAAAA==

>  <PUBCHEM_IUPAC_OPENEYE_NAME>
5,7-dihydroxy-8-methoxy-2-phenyl-chromen-4-one

>  <PUBCHEM_IUPAC_CAS_NAME>
5,7-dihydroxy-8-methoxy-2-phenyl-1-benzopyran-4-one

>  <PUBCHEM_IUPAC_NAME_MARKUP>
5,7-dihydroxy-8-methoxy-2-phenylchromen-4-one

>  <PUBCHEM_IUPAC_NAME>
5,7-dihydroxy-8-methoxy-2-phenylchromen-4-one

>  <PUBCHEM_IUPAC_SYSTEMATIC_NAME>
8-methoxy-5,7-bis(oxidanyl)-2-phenyl-chromen-4-one

>  <PUBCHEM_IUPAC_TRADITIONAL_NAME>
5,7-dihydroxy-8-methoxy-2-phenyl-chromone

>  <PUBCHEM_IUPAC_INCHI>
InChI=1S/C16H12O5/c1-20-15-12(19)7-10(17)14-11(18)8-13(21-16(14)15)9-5-3-2-4-6-9/h2-8,17,19H,1H3

>  <PUBCHEM_IUPAC_INCHIKEY>
XLTFNNCXVBYBSX-UHFFFAOYSA-N

>  <PUBCHEM_XLOGP3_AA>
3

>  <PUBCHEM_EXACT_MASS>
284.068473

>  <PUBCHEM_MOLECULAR_FORMULA>
C16H12O5

>  <PUBCHEM_MOLECULAR_WEIGHT>
284.26

>  <PUBCHEM_OPENEYE_CAN_SMILES>
COC1=C(C=C(C2=C1OC(=CC2=O)C3=CC=CC=C3)O)O

>  <PUBCHEM_OPENEYE_ISO_SMILES>
COC1=C(C=C(C2=C1OC(=CC2=O)C3=CC=CC=C3)O)O

>  <PUBCHEM_CACTVS_TPSA>
76

>  <PUBCHEM_MONOISOTOPIC_WEIGHT>
284.068473

>  <PUBCHEM_TOTAL_CHARGE>
0

>  <PUBCHEM_HEAVY_ATOM_COUNT>
21

>  <PUBCHEM_ATOM_DEF_STEREO_COUNT>
0

>  <PUBCHEM_ATOM_UDEF_STEREO_COUNT>
0

>  <PUBCHEM_BOND_DEF_STEREO_COUNT>
0

>  <PUBCHEM_BOND_UDEF_STEREO_COUNT>
0

>  <PUBCHEM_ISOTOPIC_ATOM_COUNT>
0

>  <PUBCHEM_COMPONENT_COUNT>
1

>  <PUBCHEM_CACTVS_TAUTO_COUNT>
-1

>  <PUBCHEM_COORDINATE_TYPE>
1
5
255

>  <PUBCHEM_BONDANNOTATIONS>
1  7  8
1  8  8
10  12  8
11  15  8
13  16  8
13  17  8
14  15  8
16  18  8
17  19  8
18  20  8
19  20  8
6  10  8
6  11  8
6  7  8
7  9  8
8  12  8
9  14  8

>  <LF dG>
-6.434

>  <LF VSscore>
-7.672

>  <LF Rank Score>
-10.335

>  <LF LE>
-0.306

>  <Preferred Pose_cresset>
true

>  <Favorite_cresset>
false

>  <Protein_cresset>
6Y2F_P

>  <MW_cresset>
284.3

>  <#Atoms_cresset>
21

>  <SlogP_cresset>
2.6

>  <TPSA_cresset>
76

>  <Flexibility_cresset>
1.7

>  <#RB_cresset>
4

>  <Rof5_cresset>
0

>  <Filename_cresset>
Wogonin.sdf

>  <Confs_cresset>
0

>  <Poses_cresset>
10

>  <_cresset_fieldpoints>
    -5       9.047210      -2.296435      22.007429     -5.9450
    -5       6.567699      -6.393187      26.991970    -17.1590
    -5       6.222210      -4.261436      28.674429    -14.8020
    -5      12.457210      -7.675435      22.672430     -7.3160
    -5       8.739209       1.356564      27.390430     -2.2355
    -6       9.320210      -7.054436      19.829430      7.7640
    -6      11.927210      -1.681435      24.536430      4.5480
    -6      10.257210      -6.849436      28.308430      5.7510
    -6       4.162210       0.020565      25.577429      3.1040
    -6       5.098209      -1.435436      26.626431      3.3465
    -6       5.835210       4.088565      24.483429      2.8035
    -6      10.077209       4.208565      23.651430      2.8200
    -7       6.012210      -3.301435      23.658430     -2.5530
    -7      12.134210      -4.879436      25.793430     -2.2415
    -7       9.829209      -5.108436      28.409430     -1.7630
    -7      13.140209      -6.698436      22.237431     -1.6740
    -7       6.525209      -5.692435      22.708429     -1.8625
    -7      12.505210      -6.584435      20.807430     -1.6880
    -7      10.877210      -5.518435      19.747429     -1.6635
    -7       9.923209      -9.240436      21.714430     -1.2540
    -7       5.931210      -6.674436      26.851429     -1.6880
    -7       9.674210      -8.998436      27.159430     -1.2515
    -7      11.452209      -2.402436      25.494431     -2.9285
    -7       8.835210      -0.401436      27.957430     -1.9955
    -7       5.429210      -0.794436      27.685429     -1.3735
    -7       5.671209       4.414564      24.443430     -0.9675
    -7      10.115210       4.583564      23.584429     -0.9675
    -7       8.952209      -1.913436      21.759430     -2.9970
    -8       8.150209       0.632564      24.592430      7.1515
    -8       9.353209      -5.634436      24.297430      6.6065
    -8       8.378210      -3.727436      25.404430      5.0035
    -8      12.590210      -3.415436      22.486429      2.5260
    -8       7.642210      -1.305435      25.363430      5.2795

$$$$
Untitled
  xed2sdf_05210316543D
 
 52 55  0  0  1  0  0  0  0  0999 V2000
   10.1997    0.5723   20.0160 O   0  0  0  0  0  0  0  0  0  0  0  0
   10.9037    1.2163   22.2660 O   0  0  0  0  0  0  0  0  0  0  0  0
   12.1907    3.9193   18.4240 O   0  0  0  0  0  0  0  0  0  0  0  0
   11.9317    3.6033   21.2700 O   0  0  0  0  0  0  0  0  0  0  0  0
   10.2957    2.4483   16.8140 O   0  0  0  0  0  0  0  0  0  0  0  0
    8.1867   -0.2677   17.5210 O   0  5  0  0  0  0  0  0  0  0  0  0
   10.4017   -0.8167   17.4470 O   0  0  0  0  0  0  0  0  0  0  0  0
    9.0267   -2.7107   24.0630 O   0  0  0  0  0  0  0  0  0  0  0  0
   10.8727   -1.4677   22.5120 O   0  0  0  0  0  0  0  0  0  0  0  0
    7.1357    1.5843   25.1030 O   0  0  0  0  0  0  0  0  0  0  0  0
    6.1607   -0.6167   26.0070 O   0  0  0  0  0  0  0  0  0  0  0  0
   11.1617    3.1053   19.0050 C   0  0  0  0  0  0  0  0  0  0  0  0
   11.6257    2.5373   20.3600 C   0  0  0  0  0  0  0  0  0  0  0  0
   10.7977    1.9463   18.0610 C   0  0  0  0  0  0  0  0  0  0  0  0
   10.5137    1.6393   20.9400 C   0  0  0  0  0  0  0  0  0  0  0  0
    9.7337    1.0643   18.7410 C   0  0  0  0  0  0  0  0  0  0  0  0
    9.4167   -0.0947   17.8320 C   0  0  0  0  0  0  0  0  0  0  0  0
    9.9747    0.6453   23.0370 C   0  0  0  0  0  0  0  0  0  0  0  0
    9.9437   -0.7337   23.1570 C   0  0  0  0  0  0  0  0  0  0  0  0
    9.0267    1.4193   23.6940 C   0  0  0  0  0  0  0  0  0  0  0  0
    8.9877   -1.3537   23.9500 C   0  0  0  0  0  0  0  0  0  0  0  0
    8.0367   -0.5677   24.6030 C   0  0  0  0  0  0  0  0  0  0  0  0
    8.0637    0.8243   24.4660 C   0  0  0  0  0  0  0  0  0  0  0  0
    7.0407   -1.2387   25.4130 C   0  0  0  0  0  0  0  0  0  0  0  0
    8.0837   -3.3287   24.8460 C   0  0  0  0  0  0  0  0  0  0  0  0
    7.1037   -2.6517   25.5120 C   0  0  0  0  0  0  0  0  0  0  0  0
    8.1867   -4.8077   24.9450 C   0  0  0  0  0  0  0  0  0  0  0  0
   12.0727   -1.7997   23.2390 C   0  0  0  0  0  0  0  0  0  0  0  0
    9.2287   -5.4467   24.2890 C   0  0  0  0  0  0  0  0  0  0  0  0
    7.2847   -5.5807   25.6630 C   0  0  0  0  0  0  0  0  0  0  0  0
    9.3697   -6.8117   24.3510 C   0  0  0  0  0  0  0  0  0  0  0  0
    7.4267   -6.9467   25.7230 C   0  0  0  0  0  0  0  0  0  0  0  0
    8.4687   -7.5647   25.0690 C   0  0  0  0  0  0  0  0  0  0  0  0
   10.3557    3.6783   19.1490 H   0  0  0  0  0  0  0  0  0  0  0  0
   12.4537    1.9933   20.2250 H   0  0  0  0  0  0  0  0  0  0  0  0
   11.6167    1.4053   17.8710 H   0  0  0  0  0  0  0  0  0  0  0  0
    9.6537    2.1373   21.0490 H   0  0  0  0  0  0  0  0  0  0  0  0
    8.9137    1.6113   18.9070 H   0  0  0  0  0  0  0  0  0  0  0  0
   13.1067    3.5683   18.6490 H   0  0  0  0  0  0  0  0  0  0  0  0
   11.2387    3.6753   21.9960 H   0  0  0  0  0  0  0  0  0  0  0  0
   10.7707    2.0263   16.0330 H   0  0  0  0  0  0  0  0  0  0  0  0
    6.8317    2.3533   24.5290 H   0  0  0  0  0  0  0  0  0  0  0  0
    9.0477    2.4153   23.6030 H   0  0  0  0  0  0  0  0  0  0  0  0
    6.4347   -3.1477   26.0650 H   0  0  0  0  0  0  0  0  0  0  0  0
   12.0167   -1.4077   24.1570 H   0  0  0  0  0  0  0  0  0  0  0  0
   12.1647   -2.7937   23.3010 H   0  0  0  0  0  0  0  0  0  0  0  0
   12.8687   -1.4287   22.7610 H   0  0  0  0  0  0  0  0  0  0  0  0
    9.8857   -4.9057   23.7640 H   0  0  0  0  0  0  0  0  0  0  0  0
    6.5257   -5.1407   26.1410 H   0  0  0  0  0  0  0  0  0  0  0  0
   10.1267   -7.2577   23.8750 H   0  0  0  0  0  0  0  0  0  0  0  0
    6.7707   -7.4937   26.2440 H   0  0  0  0  0  0  0  0  0  0  0  0
    8.5707   -8.5587   25.1150 H   0  0  0  0  0  0  0  0  0  0  0  0
  1 15  1  0
  1 16  1  0
  2 18  1  0
  6 17  1  0
  7 17  2  0
  8 21  1  0
  8 25  1  0
  9 19  1  0
  9 28  1  0
 10 23  1  0
 11 24  2  0
 12  3  1  0
 12 13  1  0
 12 14  1  0
 13  4  1  0
 13 15  1  0
 14  5  1  0
 14 16  1  0
 15  2  1  0
 16 17  1  0
 18 19  2  0
 18 20  1  0
 19 21  1  0
 20 23  2  0
 21 22  2  0
 22 23  1  0
 22 24  1  0
 24 26  1  0
 25 26  2  0
 25 27  1  0
 27 29  2  0
 27 30  1  0
 29 31  1  0
 30 32  2  0
 31 33  2  0
 32 33  1  0
  3 39  1  0
  4 40  1  0
  5 41  1  0
 10 42  1  0
 12 34  1  0
 13 35  1  0
 14 36  1  0
 15 37  1  0
 16 38  1  0
 20 43  1  0
 26 44  1  0
 28 45  1  0
 28 46  1  0
 28 47  1  0
 29 48  1  0
 30 49  1  0
 31 50  1  0
 32 51  1  0
 33 52  1  0
M  CHG  1   6  -1
M  END
>  <BioMolTech Lead Finder dG>
-7.583

>  <BioMolTech Lead Finder VSscore>
-11.127

>  <BioMolTech Lead Finder Rank score>
-11.993

>  <BioMolTech Lead Finder LE>
-0.23

>  <BioMolTech Lead Finder Structure Name>
/var/folders/xd/y7jw_xv579q2qqq7kks92xd80000gn/T/LeadFinder_21449_1/Ligand_1.sdf

>  <BioMolTech Lead Finder SDF id>
0

>  <BioMolTech Lead Finder Pose rank>
0

>  <BioMolTech Lead Finder version>
2001 1, 19 January 2019

>  <PUBCHEM_COMPOUND_CID>
3084961

>  <PUBCHEM_COMPOUND_CANONICALIZED>
1

>  <PUBCHEM_CACTVS_COMPLEXITY>
763

>  <PUBCHEM_CACTVS_HBOND_ACCEPTOR>
11

>  <PUBCHEM_CACTVS_HBOND_DONOR>
5

>  <PUBCHEM_CACTVS_ROTATABLE_BOND>
5

>  <PUBCHEM_CACTVS_SUBSKEYS>
AAADceB4PAAAAAAAAAAAAAAAAAAAAAAAAAA0YIEAAAAAAACBQAAAGgAACAAADBSwmAMyDoAABgCIAqDSCAICCAAkIAAIiAFGiMgdNzaGNR6ieWKl4BUPuQfK7LzOIQABCAAIQABCAAIQABCAAAAAAAAAAA==

>  <PUBCHEM_IUPAC_OPENEYE_NAME>
(2S,3S,4S,5R,6S)-3,4,5-trihydroxy-6-(5-hydroxy-8-methoxy-4-oxo-2-phenyl-chromen-7-yl)oxy-tetrahydropyran-2-carboxylic acid

>  <PUBCHEM_IUPAC_CAS_NAME>
(2S,3S,4S,5R,6S)-3,4,5-trihydroxy-6-[(5-hydroxy-8-methoxy-4-oxo-2-phenyl-1-benzopyran-7-yl)oxy]-2-oxanecarboxylic acid

>  <PUBCHEM_IUPAC_NAME_MARKUP>
(2<I>S</I>,3<I>S</I>,4<I>S</I>,5<I>R</I>,6<I>S</I>)-3,4,5-trihydroxy-6-(5-hydroxy-8-methoxy-4-oxo-2-phenylchromen-7-yl)oxyoxane-2-carboxylic acid

>  <PUBCHEM_IUPAC_NAME>
(2S,3S,4S,5R,6S)-3,4,5-trihydroxy-6-(5-hydroxy-8-methoxy-4-oxo-2-phenylchromen-7-yl)oxyoxane-2-carboxylic acid

>  <PUBCHEM_IUPAC_SYSTEMATIC_NAME>
(2S,3S,4S,5R,6S)-6-(8-methoxy-5-oxidanyl-4-oxidanylidene-2-phenyl-chromen-7-yl)oxy-3,4,5-tris(oxidanyl)oxane-2-carboxylic acid

>  <PUBCHEM_IUPAC_TRADITIONAL_NAME>
(2S,3S,4S,5R,6S)-3,4,5-trihydroxy-6-(5-hydroxy-4-keto-8-methoxy-2-phenyl-chromen-7-yl)oxy-tetrahydropyran-2-carboxylic acid

>  <PUBCHEM_IUPAC_INCHI>
InChI=1S/C22H20O11/c1-30-18-13(32-22-17(27)15(25)16(26)20(33-22)21(28)29)8-11(24)14-10(23)7-12(31-19(14)18)9-5-3-2-4-6-9/h2-8,15-17,20,22,24-27H,1H3,(H,28,29)/t15-,16-,17+,20-,22+/m0/s1

>  <PUBCHEM_IUPAC_INCHIKEY>
LNOHXHDWGCMVCO-NTKSAMNMSA-N

>  <PUBCHEM_XLOGP3_AA>
1.4

>  <PUBCHEM_EXACT_MASS>
460.100561

>  <PUBCHEM_MOLECULAR_FORMULA>
C22H20O11

>  <PUBCHEM_MOLECULAR_WEIGHT>
460.4

>  <PUBCHEM_OPENEYE_CAN_SMILES>
COC1=C(C=C(C2=C1OC(=CC2=O)C3=CC=CC=C3)O)OC4C(C(C(C(O4)C(=O)O)O)O)O

>  <PUBCHEM_OPENEYE_ISO_SMILES>
COC1=C(C=C(C2=C1OC(=CC2=O)C3=CC=CC=C3)O)O[C@H]4[C@@H]([C@H]([C@@H]([C@H](O4)C(=O)O)O)O)O

>  <PUBCHEM_CACTVS_TPSA>
172

>  <PUBCHEM_MONOISOTOPIC_WEIGHT>
460.100561

>  <PUBCHEM_TOTAL_CHARGE>
0

>  <PUBCHEM_HEAVY_ATOM_COUNT>
33

>  <PUBCHEM_ATOM_DEF_STEREO_COUNT>
5

>  <PUBCHEM_ATOM_UDEF_STEREO_COUNT>
0

>  <PUBCHEM_BOND_DEF_STEREO_COUNT>
0

>  <PUBCHEM_BOND_UDEF_STEREO_COUNT>
0

>  <PUBCHEM_ISOTOPIC_ATOM_COUNT>
0

>  <PUBCHEM_COMPONENT_COUNT>
1

>  <PUBCHEM_CACTVS_TAUTO_COUNT>
-1

>  <PUBCHEM_COORDINATE_TYPE>
1
5
255

>  <PUBCHEM_BONDANNOTATIONS>
16  17  5
18  19  8
18  20  8
19  21  8
15  2  5
20  23  8
21  22  8
22  23  8
22  24  8
24  26  8
25  26  8
27  29  8
27  30  8
29  31  8
12  3  5
30  32  8
31  33  8
32  33  8
13  4  6
14  5  6
8  21  8
8  25  8

>  <LF dG>
-7.583

>  <LF VSscore>
-11.127

>  <LF Rank Score>
-11.993

>  <LF LE>
-0.23

>  <Preferred Pose_cresset>
true

>  <Favorite_cresset>
false

>  <Protein_cresset>
6Y2F_P

>  <MW_cresset>
459.4

>  <#Atoms_cresset>
33

>  <SlogP_cresset>
1.4

>  <TPSA_cresset>
175

>  <Flexibility_cresset>
7.6

>  <#RB_cresset>
9

>  <Rof5_cresset>
1

>  <Filename_cresset>
Wogonoside.sdf

>  <Confs_cresset>
0

>  <Poses_cresset>
10

>  <_cresset_fieldpoints>
    -5       9.493686      -2.142667      16.422020    -10.9840
    -5      12.372685       5.130333      20.202019    -13.1955
    -5      11.215361       4.342287      16.832012    -15.9015
    -5      10.763685      -1.230667      20.326019    -13.3575
    -5       6.070728       1.156374      26.635067    -22.6835
    -5       8.216685      -1.800667      16.445019    -11.1650
    -5      10.019686      -6.049667      27.387020     -2.5800
    -5       6.773685      -6.497667      22.540020     -2.9280
    -6      12.386685       1.228333      15.530020      8.0890
    -6      14.001685       1.883333      18.496019      9.3980
    -6       9.372685       3.956333      22.320019     13.9015
    -6       7.374685       3.714333      23.298019     11.3245
    -6       5.002686      -4.521667      27.209019      3.6030
    -6      12.071686      -5.144667      23.354019      3.2060
    -6      11.444685      -3.300667      25.673019      2.5710
    -6       6.930685      -9.846667      26.428019      2.6900
    -6      10.353685      -9.707667      24.055019      2.6335
    -7      12.019686      -0.952667      19.973019     -3.3730
    -7      13.486685       1.196333      22.789019     -2.3345
    -7      11.076685      -0.091667      26.303019     -2.2935
    -7      12.660686       2.728333      23.558020     -2.1910
    -7      12.727686       3.501333      16.083019     -1.5800
    -7      14.177685       1.555333      18.294020     -1.6390
    -7       8.065685       1.963333      16.060019     -1.7155
    -7       9.119685       4.443333      21.877020     -2.2520
    -7      13.162685       5.423333      20.168018     -1.5325
    -7       8.200686       3.734333      17.370020     -1.6700
    -7       7.596685      -0.091667      20.813019     -3.0740
    -7       6.572685      -2.984667      22.388020     -2.4285
    -7       9.342686      -3.635667      21.593019     -2.7215
    -7      11.616686      -0.038667      15.562019     -1.5585
    -7       4.801685       0.863333      24.432018     -1.7580
    -7       7.923685       3.700333      20.207020     -2.0260
    -7       7.272685       0.975333      27.656019     -1.6485
    -7       8.021686       3.870333      25.855019     -1.2685
    -7      10.818686      -2.972667      26.075020     -2.9675
    -7       6.458685      -6.259667      22.351019     -1.7850
    -7      10.158686      -5.603667      27.629019     -1.7955
    -7      10.603685      -9.946668      23.919020     -0.9675
    -7       6.852685     -10.213667      26.456020     -0.9675
    -8      10.712686       2.191333      19.382019      5.1670
    -8       8.983685       0.051333      23.834019      6.6140
    -8       8.326685      -6.190667      25.008018      7.1510
    -8       7.424685      -4.182667      25.426020      5.4425
    -8       7.816685      -1.781667      24.889019      5.0135
    -8      12.782685      -1.981667      23.719019      2.5270

$$$$
Untitled
  xed2sdf_05210316543D
 
 31 32  0  0  1  0  0  0  0  0999 V2000
   11.0415    3.6408   20.1541 O   0  0  0  0  0  0  0  0  0  0  0  0
   14.2615    2.8618   19.6811 O   0  0  0  0  0  0  0  0  0  0  0  0
   14.0105    5.4398   19.2041 O   0  0  0  0  0  0  0  0  0  0  0  0
   11.8655    7.2598   20.1591 O   0  0  0  0  0  0  0  0  0  0  0  0
   10.4155    3.5478   17.5161 O   0  0  0  0  0  0  0  0  0  0  0  0
    8.1735   -1.5912   16.6041 O   0  0  0  0  0  0  0  0  0  0  0  0
   11.1245    1.7318   18.6671 N   0  0  0  0  0  0  0  0  0  0  0  0
    9.6805    1.6478   16.7611 N   0  0  0  0  0  0  0  0  0  0  0  0
    8.9305   -0.4812   16.0811 N   0  0  0  0  0  0  0  0  0  0  0  0
   13.0625    3.1818   18.9611 C   0  0  0  0  0  0  0  0  0  0  0  0
   12.7995    4.6938   19.0151 C   0  0  0  0  0  0  0  0  0  0  0  0
   11.8405    2.5518   19.6551 C   0  0  0  0  0  0  0  0  0  0  0  0
   11.8525    4.8208   20.2131 C   0  0  0  0  0  0  0  0  0  0  0  0
   11.0135    6.1058   20.1361 C   0  0  0  0  0  0  0  0  0  0  0  0
   11.1205    0.3978   18.7931 C   0  0  0  0  0  0  0  0  0  0  0  0
   10.4285    2.3218   17.6741 C   0  0  0  0  0  0  0  0  0  0  0  0
   10.3965   -0.3362   17.9281 C   0  0  0  0  0  0  0  0  0  0  0  0
    9.6485    0.3058   16.8911 C   0  0  0  0  0  0  0  0  0  0  0  0
   13.1855    2.8478   18.0271 H   0  0  0  0  0  0  0  0  0  0  0  0
   12.4155    5.0608   18.1681 H   0  0  0  0  0  0  0  0  0  0  0  0
   12.0845    1.9538   20.4181 H   0  0  0  0  0  0  0  0  0  0  0  0
   12.3445    4.8918   21.0811 H   0  0  0  0  0  0  0  0  0  0  0  0
   14.6335    1.9718   19.3931 H   0  0  0  0  0  0  0  0  0  0  0  0
   13.8995    6.3958   18.9111 H   0  0  0  0  0  0  0  0  0  0  0  0
   11.9845    7.6458   19.2381 H   0  0  0  0  0  0  0  0  0  0  0  0
    8.5495   -2.4702   16.2921 H   0  0  0  0  0  0  0  0  0  0  0  0
    8.9165   -0.3162   15.2171 H   0  0  0  0  0  0  0  0  0  0  0  0
   10.4815    6.1038   19.2891 H   0  0  0  0  0  0  0  0  0  0  0  0
   10.3995    6.1388   20.9241 H   0  0  0  0  0  0  0  0  0  0  0  0
   11.6475   -0.0452   19.5181 H   0  0  0  0  0  0  0  0  0  0  0  0
   10.3815   -1.3322   18.0101 H   0  0  0  0  0  0  0  0  0  0  0  0
  1 12  1  0
  1 13  1  0
  4 14  1  0
  5 16  2  0
  6  9  1  0
  7 15  1  0
  7 16  1  0
  8 16  1  0
  8 18  2  0
  9 18  1  0
 10  2  1  0
 10 11  1  0
 10 12  1  0
 11  3  1  0
 11 13  1  0
 12  7  1  0
 13 14  1  0
 15 17  2  0
 17 18  1  0
  2 23  1  0
  3 24  1  0
  4 25  1  0
  6 26  1  0
  9 27  1  0
 10 19  1  0
 11 20  1  0
 12 21  1  0
 13 22  1  0
 14 28  1  0
 14 29  1  0
 15 30  1  0
 17 31  1  0
M  END
>  <BioMolTech Lead Finder dG>
-6.088

>  <BioMolTech Lead Finder VSscore>
-7.246

>  <BioMolTech Lead Finder Rank score>
-8.231

>  <BioMolTech Lead Finder LE>
-0.338

>  <BioMolTech Lead Finder Structure Name>
/var/folders/xd/y7jw_xv579q2qqq7kks92xd80000gn/T/LeadFinder_22003_1/Ligand_1.sdf

>  <BioMolTech Lead Finder SDF id>
0

>  <BioMolTech Lead Finder Pose rank>
0

>  <BioMolTech Lead Finder version>
2001 1, 19 January 2019

>  <PUBCHEM_COMPOUND_CID>
197020

>  <PUBCHEM_COMPOUND_CANONICALIZED>
1

>  <PUBCHEM_CACTVS_COMPLEXITY>
398

>  <PUBCHEM_CACTVS_HBOND_ACCEPTOR>
6

>  <PUBCHEM_CACTVS_HBOND_DONOR>
5

>  <PUBCHEM_CACTVS_ROTATABLE_BOND>
3

>  <PUBCHEM_CACTVS_SUBSKEYS>
AAADccBzOAAAAAAAAAAAAAAAAAAAASAAAAAgAAAAAAAAAAAAAAAAHgAUCAAACBThgAYBAANQBgCoACJmdACAAAEAAgAoAAAYABCDEAIAgAAOQAAHFgITAADwMAIAAAAAAAAAAAAAAAAAAAAAAAAAAAAAAA==

>  <PUBCHEM_IUPAC_OPENEYE_NAME>
1-[(2R,3R,4S,5R)-3,4-dihydroxy-5-(hydroxymethyl)tetrahydrofuran-2-yl]-4-(hydroxyamino)pyrimidin-2-one

>  <PUBCHEM_IUPAC_CAS_NAME>
1-[(2R,3R,4S,5R)-3,4-dihydroxy-5-(hydroxymethyl)-2-oxolanyl]-4-(hydroxyamino)-2-pyrimidinone

>  <PUBCHEM_IUPAC_NAME_MARKUP>
1-[(2<I>R</I>,3<I>R</I>,4<I>S</I>,5<I>R</I>)-3,4-dihydroxy-5-(hydroxymethyl)oxolan-2-yl]-4-(hydroxyamino)pyrimidin-2-one

>  <PUBCHEM_IUPAC_NAME>
1-[(2R,3R,4S,5R)-3,4-dihydroxy-5-(hydroxymethyl)oxolan-2-yl]-4-(hydroxyamino)pyrimidin-2-one

>  <PUBCHEM_IUPAC_SYSTEMATIC_NAME>
1-[(2R,3R,4S,5R)-5-(hydroxymethyl)-3,4-bis(oxidanyl)oxolan-2-yl]-4-(oxidanylamino)pyrimidin-2-one

>  <PUBCHEM_IUPAC_TRADITIONAL_NAME>
1-[(2R,3R,4S,5R)-3,4-dihydroxy-5-methylol-tetrahydrofuran-2-yl]-4-(hydroxyamino)pyrimidin-2-one

>  <PUBCHEM_IUPAC_INCHI>
InChI=1S/C9H13N3O6/c13-3-4-6(14)7(15)8(18-4)12-2-1-5(11-17)10-9(12)16/h1-2,4,6-8,13-15,17H,3H2,(H,10,11,16)/t4-,6-,7-,8-/m1/s1

>  <PUBCHEM_IUPAC_INCHIKEY>
XCUAIINAJCDIPM-XVFCMESISA-N

>  <PUBCHEM_XLOGP3>
-2.2

>  <PUBCHEM_EXACT_MASS>
259.080435

>  <PUBCHEM_MOLECULAR_FORMULA>
C9H13N3O6

>  <PUBCHEM_MOLECULAR_WEIGHT>
259.22

>  <PUBCHEM_OPENEYE_CAN_SMILES>
C1=CN(C(=O)N=C1NO)C2C(C(C(O2)CO)O)O

>  <PUBCHEM_OPENEYE_ISO_SMILES>
C1=CN(C(=O)N=C1NO)[C@H]2[C@@H]([C@@H]([C@H](O2)CO)O)O

>  <PUBCHEM_CACTVS_TPSA>
135

>  <PUBCHEM_MONOISOTOPIC_WEIGHT>
259.080435

>  <PUBCHEM_TOTAL_CHARGE>
0

>  <PUBCHEM_HEAVY_ATOM_COUNT>
18

>  <PUBCHEM_ATOM_DEF_STEREO_COUNT>
4

>  <PUBCHEM_ATOM_UDEF_STEREO_COUNT>
0

>  <PUBCHEM_BOND_DEF_STEREO_COUNT>
0

>  <PUBCHEM_BOND_UDEF_STEREO_COUNT>
0

>  <PUBCHEM_ISOTOPIC_ATOM_COUNT>
0

>  <PUBCHEM_COMPONENT_COUNT>
1

>  <PUBCHEM_CACTVS_TAUTO_COUNT>
-1

>  <PUBCHEM_COORDINATE_TYPE>
1
5
255

>  <PUBCHEM_BONDANNOTATIONS>
13  14  6
15  17  8
17  18  8
10  2  5
11  3  5
12  7  6
7  15  8
7  16  8
8  16  8
8  18  8

>  <LF dG>
-6.088

>  <LF VSscore>
-7.246

>  <LF Rank Score>
-8.231

>  <LF LE>
-0.338

>  <Preferred Pose_cresset>
true

>  <Favorite_cresset>
false

>  <Protein_cresset>
6Y2F_P

>  <MW_cresset>
259.2

>  <#Atoms_cresset>
18

>  <SlogP_cresset>
-1.3

>  <TPSA_cresset>
134.8

>  <Flexibility_cresset>
5.7

>  <#RB_cresset>
7

>  <Rof5_cresset>
0

>  <Filename_cresset>
?-D-N4-hydroxycytidine (NHC; EIDD-1931).sdf

>  <Confs_cresset>
0

>  <Poses_cresset>
10

>  <_cresset_fieldpoints>
    -5       9.283497       3.873286      16.252739    -17.2229
    -5      12.822487       7.627816      21.685066     -9.8375
    -5      15.270487       4.467816      20.196068    -15.0305
    -6       9.124487      -2.453184      14.575067      9.4890
    -6      12.307487      -2.089184      19.202066      8.0380
    -6      13.878488       0.313816      19.305067     11.0900
    -6      12.979487       7.513816      17.804068      8.3130
    -6      10.146487      -3.184184      16.311068      9.0735
    -7       8.732488       3.833817      19.489067     -2.3525
    -7      15.036488       4.465816      21.340067     -1.8545
    -7      14.118487       3.131816      22.070066     -1.8660
    -7      12.696487       0.971816      16.302067     -2.2590
    -7      14.009487       0.148816      20.497066     -1.6305
    -7      12.646487       7.394816      17.139067     -1.4915
    -7      12.109488       3.879817      15.790067     -1.8825
    -7      14.107488       7.072816      21.087067     -1.9330
    -7      11.599487       7.192816      17.031067     -1.5035
    -7       7.573487      -0.771183      18.779066     -1.4535
    -7       6.923487      -1.884183      14.617067     -0.9330
    -7       7.615487       2.127816      15.765067     -1.2570
    -7      10.743487      -2.318183      15.563066     -1.5495
    -7      10.422487       5.724816      16.718067     -1.8075
    -7      10.499487       9.303816      19.998066     -0.9490
    -7       8.743487       1.888816      20.055067     -2.0305
    -8      12.367487       3.916816      19.275066      4.0800
    -8      11.782487       5.329816      19.403067      3.9575
    -8      10.496488      -0.176183      17.990067      3.8625
    -8      11.426487       1.539816      18.864067      2.4205

$$$$
