W_DAR_D
  xed2sdf_05210316543D
 
 82 86  0  0  1  0  0  0  0  0999 V2000
   11.1691    1.5233   17.1153 O   0  0  0  0  0  0  0  0  0  0  0  0
   11.1021    1.2973   18.3113 C   0  0  0  0  0  0  0  0  0  0  0  0
   12.1151    1.8593   19.2833 C   0  0  0  0  0  0  0  0  0  0  0  0
   11.5061    2.1223   20.6623 C   0  0  0  0  0  0  0  0  0  0  0  0
   10.9461    0.7763   21.1313 C   0  0  0  0  0  0  0  0  0  0  0  0
   10.3961    0.8833   22.4923 N   0  0  0  0  0  0  0  0  0  0  0  0
   10.8291    0.0013   23.5893 C   0  0  0  0  0  0  0  0  0  0  0  0
    9.4911    0.1353   24.3383 C   0  0  0  0  0  0  0  0  0  0  0  0
    9.2261   -0.4387   25.7133 C   0  0  0  0  0  0  0  0  0  0  0  0
   10.0681   -1.4567   26.0583 N   0  0  0  0  0  0  0  0  0  0  0  0
    9.6601   -2.8527   25.8483 C   0  0  0  0  0  0  0  0  0  0  0  0
    9.9541   -3.3887   24.4383 C   0  0  0  0  0  0  0  0  0  0  0  0
    8.6591   -3.9957   23.8783 C   0  0  0  0  0  0  0  0  0  0  0  0
    8.6541   -5.5187   24.0683 C   0  0  0  0  0  0  0  0  0  0  0  0
    8.6921   -5.8197   25.5743 C   0  0  0  0  0  0  0  0  0  0  0  0
   10.1301   -6.1297   26.0143 C   0  0  0  0  0  0  0  0  0  0  0  0
   10.0831   -6.8067   27.3193 N   0  0  0  0  0  0  0  0  0  0  0  0
   11.2061   -7.3527   27.8363 C   0  0  0  0  0  0  0  0  0  0  0  0
   12.2911   -7.3127   27.2603 O   0  0  0  0  0  0  0  0  0  0  0  0
   11.1631   -8.0527   29.1513 C   0  0  0  0  0  0  0  0  0  0  0  0
   11.6591   -7.4477   30.2903 C   0  0  0  0  0  0  0  0  0  0  0  0
   11.5971   -8.0837   31.5033 C   0  0  0  0  0  0  0  0  0  0  0  0
   11.0631   -9.3067   31.6813 N   0  0  0  0  0  0  0  0  0  0  0  0
   10.5821   -9.8907   30.5713 C   0  0  0  0  0  0  0  0  0  0  0  0
   10.6101   -9.3207   29.3113 C   0  0  0  0  0  0  0  0  0  0  0  0
   10.0981  -10.0227   28.2123 N   0  0  0  0  0  0  0  0  0  0  0  0
   10.7761  -10.9057   27.4523 C   0  0  0  0  0  0  0  0  0  0  0  0
   11.9371  -11.2407   27.6393 O   0  0  0  0  0  0  0  0  0  0  0  0
    9.9411  -11.4907   26.3303 C   0  0  0  0  0  0  0  0  0  0  0  0
   10.5131  -11.0927   24.9823 C   0  0  0  0  0  0  0  0  0  0  0  0
   11.1761  -12.0207   24.2103 C   0  0  0  0  0  0  0  0  0  0  0  0
   11.6931  -11.6597   22.9873 C   0  0  0  0  0  0  0  0  0  0  0  0
   11.5491  -10.3697   22.5323 C   0  0  0  0  0  0  0  0  0  0  0  0
   10.8851   -9.4397   23.3003 C   0  0  0  0  0  0  0  0  0  0  0  0
   10.7001   -7.8077   22.7273 Cl  0  0  0  0  0  0  0  0  0  0  0  0
   10.3671   -9.8027   24.5243 C   0  0  0  0  0  0  0  0  0  0  0  0
    8.2101    0.0543   26.4413 C   0  0  0  0  0  0  0  0  0  0  0  0
    7.3811    1.1353   25.9063 C   0  0  0  0  0  0  0  0  0  0  0  0
    7.8281    1.8773   24.8943 C   0  0  0  0  0  0  0  0  0  0  0  0
    9.1801    1.6323   24.2763 C   0  0  0  0  0  0  0  0  0  0  0  0
    9.4511    1.7833   22.8073 C   0  0  0  0  0  0  0  0  0  0  0  0
    8.9081    2.5733   22.0473 O   0  0  0  0  0  0  0  0  0  0  0  0
    9.9191    0.2313   20.1623 C   0  0  0  0  0  0  0  0  0  0  0  0
    8.9741   -0.4377   20.5433 O   0  0  0  0  0  0  0  0  0  0  0  0
   10.1251    0.5423   18.8623 N   0  0  0  0  0  0  0  0  0  0  0  0
   11.7031    0.1233   21.1563 H   0  0  0  0  0  0  0  0  0  0  0  0
    8.8821   -0.5007   23.8633 H   0  0  0  0  0  0  0  0  0  0  0  0
    9.6811    2.3283   24.7913 H   0  0  0  0  0  0  0  0  0  0  0  0
   12.4741    2.7173   18.9163 H   0  0  0  0  0  0  0  0  0  0  0  0
   12.8441    1.1823   19.3933 H   0  0  0  0  0  0  0  0  0  0  0  0
   10.7761    2.8033   20.5983 H   0  0  0  0  0  0  0  0  0  0  0  0
   12.1831    2.4833   21.3023 H   0  0  0  0  0  0  0  0  0  0  0  0
   11.6111    0.3563   24.1013 H   0  0  0  0  0  0  0  0  0  0  0  0
   11.1641   -0.9137   23.3653 H   0  0  0  0  0  0  0  0  0  0  0  0
   10.6951   -1.2957   26.6553 H   0  0  0  0  0  0  0  0  0  0  0  0
    8.6771   -2.9227   26.0153 H   0  0  0  0  0  0  0  0  0  0  0  0
   10.1981   -3.4077   26.4843 H   0  0  0  0  0  0  0  0  0  0  0  0
   10.6681   -4.0877   24.4823 H   0  0  0  0  0  0  0  0  0  0  0  0
   10.2731   -2.6487   23.8463 H   0  0  0  0  0  0  0  0  0  0  0  0
    8.5891   -3.7827   22.9043 H   0  0  0  0  0  0  0  0  0  0  0  0
    7.8801   -3.6057   24.3703 H   0  0  0  0  0  0  0  0  0  0  0  0
    9.4541   -5.9187   23.6213 H   0  0  0  0  0  0  0  0  0  0  0  0
    7.8301   -5.9127   23.6613 H   0  0  0  0  0  0  0  0  0  0  0  0
    8.1071   -6.6057   25.7703 H   0  0  0  0  0  0  0  0  0  0  0  0
    8.3641   -5.0187   26.0753 H   0  0  0  0  0  0  0  0  0  0  0  0
   10.6521   -5.2807   26.0903 H   0  0  0  0  0  0  0  0  0  0  0  0
   10.5751   -6.7197   25.3403 H   0  0  0  0  0  0  0  0  0  0  0  0
    9.3251   -6.8327   27.7633 H   0  0  0  0  0  0  0  0  0  0  0  0
   12.0691   -6.5377   30.2283 H   0  0  0  0  0  0  0  0  0  0  0  0
   11.9691   -7.6117   32.3023 H   0  0  0  0  0  0  0  0  0  0  0  0
   10.1761  -10.8007   30.6623 H   0  0  0  0  0  0  0  0  0  0  0  0
    9.2591   -9.8707   28.0053 H   0  0  0  0  0  0  0  0  0  0  0  0
    9.0031  -11.1527   26.4063 H   0  0  0  0  0  0  0  0  0  0  0  0
    9.9511  -12.4877   26.4043 H   0  0  0  0  0  0  0  0  0  0  0  0
   11.2811  -12.9587   24.5403 H   0  0  0  0  0  0  0  0  0  0  0  0
   12.1751  -12.3357   22.4293 H   0  0  0  0  0  0  0  0  0  0  0  0
   11.9251  -10.1077   21.6433 H   0  0  0  0  0  0  0  0  0  0  0  0
    9.8841   -9.1267   25.0813 H   0  0  0  0  0  0  0  0  0  0  0  0
    8.0211   -0.3167   27.3503 H   0  0  0  0  0  0  0  0  0  0  0  0
    6.4801    1.3163   26.2993 H   0  0  0  0  0  0  0  0  0  0  0  0
    7.2541    2.6133   24.5353 H   0  0  0  0  0  0  0  0  0  0  0  0
    9.5341    0.2153   18.2973 H   0  0  0  0  0  0  0  0  0  0  0  0
  1  2  2  0
  2  3  1  0
  2 45  1  0
  3  4  1  0
  4  5  1  0
  5  6  1  0
  5 43  1  0
  6  7  1  0
  6 41  1  0
  7  8  1  0
  8  9  1  0
  8 40  1  0
  9 10  1  0
  9 37  2  0
 10 11  1  0
 11 12  1  0
 12 13  1  0
 13 14  1  0
 14 15  1  0
 15 16  1  0
 16 17  1  0
 17 18  1  0
 18 19  2  0
 18 20  1  0
 20 21  2  0
 20 25  1  0
 21 22  1  0
 22 23  2  0
 23 24  1  0
 24 25  2  0
 25 26  1  0
 26 27  1  0
 27 28  2  0
 27 29  1  0
 29 30  1  0
 30 31  2  0
 30 36  1  0
 31 32  1  0
 32 33  2  0
 33 34  1  0
 34 35  1  0
 34 36  2  0
 37 38  1  0
 38 39  2  0
 39 40  1  0
 40 41  1  0
 41 42  2  0
 43 44  2  0
 43 45  1  0
  3 49  1  0
  3 50  1  0
  4 51  1  0
  4 52  1  0
  5 46  1  0
  7 53  1  0
  7 54  1  0
  8 47  1  0
 10 55  1  0
 11 56  1  0
 11 57  1  0
 12 58  1  0
 12 59  1  0
 13 60  1  0
 13 61  1  0
 14 62  1  0
 14 63  1  0
 15 64  1  0
 15 65  1  0
 16 66  1  0
 16 67  1  0
 17 68  1  0
 21 69  1  0
 22 70  1  0
 24 71  1  0
 26 72  1  0
 29 73  1  0
 29 74  1  0
 31 75  1  0
 32 76  1  0
 33 77  1  0
 36 78  1  0
 37 79  1  0
 38 80  1  0
 39 81  1  0
 40 48  1  0
 45 82  1  0
M  END
>  <BioMolTech Lead Finder dG>
-9.887

>  <BioMolTech Lead Finder VSscore>
-11.128

>  <BioMolTech Lead Finder Rank score>
-4.379

>  <BioMolTech Lead Finder LE>
-0.22

>  <BioMolTech Lead Finder Structure Name>
/var/folders/xd/y7jw_xv579q2qqq7kks92xd80000gn/T/LeadFinder_23195_1/Ligand_1.sdf

>  <BioMolTech Lead Finder SDF id>
0

>  <BioMolTech Lead Finder Pose rank>
0

>  <BioMolTech Lead Finder version>
2001 1, 19 January 2019

>  <LF dG>
-9.887

>  <LF VSscore>
-11.128

>  <LF Rank Score>
-4.379

>  <LF LE>
-0.22

>  <Preferred Pose_cresset>
true

>  <Favorite_cresset>
false

>  <Protein_cresset>
6Y2F_P

>  <MW_cresset>
633.1

>  <#Atoms_cresset>
45

>  <SlogP_cresset>
2.9

>  <TPSA_cresset>
149.6

>  <Flexibility_cresset>
10.4

>  <#RB_cresset>
13

>  <Rof5_cresset>
2

>  <Filename_cresset>
DAR-DIA-9e4459de-1.mol

>  <Confs_cresset>
0

>  <Poses_cresset>
10

>  <_cresset_fieldpoints>
    -5      12.185148       2.514307      16.028261     -8.7085
    -5       7.656149      -0.037694      21.803261    -11.4250
    -5      11.656149     -10.419693      33.212261     -6.3340
    -5       8.703149     -11.458694      22.004261     -1.9285
    -5      13.261148      -9.338694      27.346260    -14.1275
    -5       8.548149       3.053307      27.165260     -3.7740
    -5       7.564149       3.634306      22.288261    -12.9980
    -6      12.490149      -0.471694      26.511261      8.7765
    -6      13.653149       0.048306      22.189260      7.5120
    -6       7.850149      -8.528693      27.669262     13.6735
    -6      12.837149     -11.964693      20.121262      2.3610
    -6      11.577148      -5.065693      22.445261      3.6235
    -6       8.824148      -1.186693      17.086262      2.9540
    -7       7.195148       0.114306      22.003262     -2.7825
    -7      12.071149      -1.506693      18.974260     -2.0395
    -7      13.526149       1.342307      16.403261     -1.1370
    -7      10.231149      -2.444693      21.299261     -3.0215
    -7      13.884149       0.776307      22.567261     -1.9300
    -7      12.119148       3.004307      23.826262     -2.4235
    -7      12.979149      -7.555694      24.918261     -2.8395
    -7       8.352149       2.606307      19.669262     -2.4900
    -7      12.764149      -2.012693      25.261261     -2.3625
    -7      10.201149      -4.580693      28.828260     -2.9335
    -7       9.370149      -1.912694      28.836262     -1.7570
    -7      12.791149      -3.995693      26.250261     -2.0370
    -7       6.565149      -1.440693      24.457260     -3.0825
    -7      12.459148      -5.744693      23.831261     -2.6410
    -7      11.413149      -4.993693      22.081261     -2.3240
    -7      13.039148      -5.021693      32.201260     -0.9195
    -7       7.769149      -8.891693      26.419262     -3.1240
    -7      13.103148      -9.459694      26.374262     -3.4820
    -7       8.045149      -7.188693      29.933262     -1.9335
    -7       8.459148     -12.128694      29.133261     -2.0660
    -7       8.130149     -11.487694      22.533260     -1.8805
    -7      12.609149     -14.934694      23.300261     -0.9985
    -7      12.598148     -13.413692      26.880260     -1.9380
    -7      13.271149     -14.595694      23.731260     -0.9980
    -7      13.266149     -11.775694      19.973261     -0.9775
    -7       7.518148      -8.543694      23.893261     -2.5405
    -7       8.645149       4.662306      23.279261     -1.6430
    -7      11.305149       1.312306      26.815262     -2.3370
    -7       7.602149      -1.458694      22.078260     -2.7705
    -8      11.522149       1.423306      20.146261      5.5800
    -8       9.178148      -4.618693      24.793261      6.6400
    -8       8.577148       0.752306      25.192261      7.0340
    -8      11.150148      -8.430694      30.059261      5.3645
    -8      10.854149      -9.210693      23.237261      5.6405
    -8      11.029149     -10.730694      23.761261      7.1945

$$$$
DAR_D
  xed2sdf_05210316543D
 
 82 86  0  0  1  0  0  0  0  0999 V2000
    8.9612  -10.6802   26.0854 O   0  0  0  0  0  0  0  0  0  0  0  0
    8.9692   -9.4642   26.1674 C   0  0  0  0  0  0  0  0  0  0  0  0
   10.1522   -8.7152   26.7374 C   0  0  0  0  0  0  0  0  0  0  0  0
   10.3182   -7.3322   26.1014 C   0  0  0  0  0  0  0  0  0  0  0  0
    8.9982   -6.5982   26.3554 C   0  0  0  0  0  0  0  0  0  0  0  0
    9.0632   -5.2172   25.8534 N   0  0  0  0  0  0  0  0  0  0  0  0
   10.0242   -4.7992   24.8184 C   0  0  0  0  0  0  0  0  0  0  0  0
   10.0492   -3.3402   25.3104 C   0  0  0  0  0  0  0  0  0  0  0  0
   10.7742   -2.2162   24.6014 C   0  0  0  0  0  0  0  0  0  0  0  0
   11.7682   -2.6412   23.7684 N   0  0  0  0  0  0  0  0  0  0  0  0
   11.6392   -2.4642   22.3154 C   0  0  0  0  0  0  0  0  0  0  0  0
   12.4662   -1.2992   21.7484 C   0  0  0  0  0  0  0  0  0  0  0  0
   11.5062   -0.3362   21.0344 C   0  0  0  0  0  0  0  0  0  0  0  0
   12.1512    0.2108   19.7524 C   0  0  0  0  0  0  0  0  0  0  0  0
   11.0402    0.4738   18.7254 C   0  0  0  0  0  0  0  0  0  0  0  0
   10.4212    1.8588   18.9604 C   0  0  0  0  0  0  0  0  0  0  0  0
   11.5012    2.8558   18.9834 N   0  0  0  0  0  0  0  0  0  0  0  0
   11.4172    3.9218   19.8104 C   0  0  0  0  0  0  0  0  0  0  0  0
   10.4632    4.1068   20.5624 O   0  0  0  0  0  0  0  0  0  0  0  0
   12.5012    4.9438   19.8294 C   0  0  0  0  0  0  0  0  0  0  0  0
   12.9402    5.5308   18.6584 C   0  0  0  0  0  0  0  0  0  0  0  0
   13.9202    6.4898   18.6814 C   0  0  0  0  0  0  0  0  0  0  0  0
   14.5162    6.9248   19.8074 N   0  0  0  0  0  0  0  0  0  0  0  0
   14.0872    6.3518   20.9434 C   0  0  0  0  0  0  0  0  0  0  0  0
   13.1072    5.3758   21.0064 C   0  0  0  0  0  0  0  0  0  0  0  0
   12.7442    4.8268   22.2424 N   0  0  0  0  0  0  0  0  0  0  0  0
   11.9782    5.4218   23.1794 C   0  0  0  0  0  0  0  0  0  0  0  0
   11.4662    6.5258   23.0624 O   0  0  0  0  0  0  0  0  0  0  0  0
   11.7742    4.5668   24.4134 C   0  0  0  0  0  0  0  0  0  0  0  0
   12.9402    4.7328   25.3704 C   0  0  0  0  0  0  0  0  0  0  0  0
   13.4542    5.9848   25.6244 C   0  0  0  0  0  0  0  0  0  0  0  0
   14.5112    6.1348   26.4934 C   0  0  0  0  0  0  0  0  0  0  0  0
   15.0572    5.0328   27.1114 C   0  0  0  0  0  0  0  0  0  0  0  0
   14.5442    3.7798   26.8604 C   0  0  0  0  0  0  0  0  0  0  0  0
   15.2322    2.3858   27.6404 Cl  0  0  0  0  0  0  0  0  0  0  0  0
   13.4862    3.6308   25.9904 C   0  0  0  0  0  0  0  0  0  0  0  0
   10.4202   -0.9472   24.8594 C   0  0  0  0  0  0  0  0  0  0  0  0
    9.3432   -0.6642   25.8094 C   0  0  0  0  0  0  0  0  0  0  0  0
    8.4762   -1.6212   26.1364 C   0  0  0  0  0  0  0  0  0  0  0  0
    8.5742   -3.0052   25.5484 C   0  0  0  0  0  0  0  0  0  0  0  0
    8.2592   -4.2512   26.3254 C   0  0  0  0  0  0  0  0  0  0  0  0
    7.4302   -4.3572   27.2184 O   0  0  0  0  0  0  0  0  0  0  0  0
    7.8232   -7.3462   25.7644 C   0  0  0  0  0  0  0  0  0  0  0  0
    6.8462   -6.7602   25.3294 O   0  0  0  0  0  0  0  0  0  0  0  0
    7.9372   -8.6932   25.7534 N   0  0  0  0  0  0  0  0  0  0  0  0
    8.8562   -6.5592   27.3444 H   0  0  0  0  0  0  0  0  0  0  0  0
   10.6692   -3.3582   26.0944 H   0  0  0  0  0  0  0  0  0  0  0  0
    7.9052   -2.8782   24.8164 H   0  0  0  0  0  0  0  0  0  0  0  0
   10.9822   -9.2492   26.5764 H   0  0  0  0  0  0  0  0  0  0  0  0
    9.9922   -8.5852   27.7164 H   0  0  0  0  0  0  0  0  0  0  0  0
   10.4912   -7.4172   25.1194 H   0  0  0  0  0  0  0  0  0  0  0  0
   11.0962   -6.8382   26.4904 H   0  0  0  0  0  0  0  0  0  0  0  0
    9.6762   -4.9002   23.8864 H   0  0  0  0  0  0  0  0  0  0  0  0
   10.8902   -5.2932   24.7384 H   0  0  0  0  0  0  0  0  0  0  0  0
   12.3202   -3.2632   24.0594 H   0  0  0  0  0  0  0  0  0  0  0  0
   10.6762   -2.3012   22.1024 H   0  0  0  0  0  0  0  0  0  0  0  0
   11.9912   -3.2992   21.8914 H   0  0  0  0  0  0  0  0  0  0  0  0
   13.1442   -1.6472   21.1014 H   0  0  0  0  0  0  0  0  0  0  0  0
   12.9472   -0.8252   22.4854 H   0  0  0  0  0  0  0  0  0  0  0  0
   11.2862    0.4248   21.6454 H   0  0  0  0  0  0  0  0  0  0  0  0
   10.6722   -0.8302   20.7894 H   0  0  0  0  0  0  0  0  0  0  0  0
   12.8012   -0.4562   19.3884 H   0  0  0  0  0  0  0  0  0  0  0  0
   12.6422    1.0598   19.9504 H   0  0  0  0  0  0  0  0  0  0  0  0
   10.3332   -0.2272   18.8144 H   0  0  0  0  0  0  0  0  0  0  0  0
   11.4322    0.4438   17.8054 H   0  0  0  0  0  0  0  0  0  0  0  0
    9.9312    1.8678   19.8314 H   0  0  0  0  0  0  0  0  0  0  0  0
    9.7742    2.0738   18.2274 H   0  0  0  0  0  0  0  0  0  0  0  0
   12.2062    2.7398   18.4714 H   0  0  0  0  0  0  0  0  0  0  0  0
   12.5382    5.2548   17.7854 H   0  0  0  0  0  0  0  0  0  0  0  0
   14.2102    6.8878   17.8104 H   0  0  0  0  0  0  0  0  0  0  0  0
   14.5042    6.6488   21.8024 H   0  0  0  0  0  0  0  0  0  0  0  0
   13.0432    4.0198   22.4174 H   0  0  0  0  0  0  0  0  0  0  0  0
   11.7002    3.6068   24.1434 H   0  0  0  0  0  0  0  0  0  0  0  0
   10.9342    4.8568   24.8744 H   0  0  0  0  0  0  0  0  0  0  0  0
   13.0582    6.7868   25.1774 H   0  0  0  0  0  0  0  0  0  0  0  0
   14.8822    7.0458   26.6754 H   0  0  0  0  0  0  0  0  0  0  0  0
   15.8252    5.1428   27.7414 H   0  0  0  0  0  0  0  0  0  0  0  0
   13.1132    2.7208   25.8104 H   0  0  0  0  0  0  0  0  0  0  0  0
   10.8932   -0.1932   24.4014 H   0  0  0  0  0  0  0  0  0  0  0  0
    9.2582    0.2468   26.2134 H   0  0  0  0  0  0  0  0  0  0  0  0
    7.7442   -1.4172   26.7854 H   0  0  0  0  0  0  0  0  0  0  0  0
    7.2482   -9.1292   25.4204 H   0  0  0  0  0  0  0  0  0  0  0  0
  1  2  2  0
  2  3  1  0
  2 45  1  0
  3  4  1  0
  4  5  1  0
  5  6  1  0
  5 43  1  0
  6  7  1  0
  6 41  1  0
  7  8  1  0
  8  9  1  0
  8 40  1  0
  9 10  1  0
  9 37  2  0
 10 11  1  0
 11 12  1  0
 12 13  1  0
 13 14  1  0
 14 15  1  0
 15 16  1  0
 16 17  1  0
 17 18  1  0
 18 19  2  0
 18 20  1  0
 20 21  2  0
 20 25  1  0
 21 22  1  0
 22 23  2  0
 23 24  1  0
 24 25  2  0
 25 26  1  0
 26 27  1  0
 27 28  2  0
 27 29  1  0
 29 30  1  0
 30 31  2  0
 30 36  1  0
 31 32  1  0
 32 33  2  0
 33 34  1  0
 34 35  1  0
 34 36  2  0
 37 38  1  0
 38 39  2  0
 39 40  1  0
 40 41  1  0
 41 42  2  0
 43 44  2  0
 43 45  1  0
  3 49  1  0
  3 50  1  0
  4 51  1  0
  4 52  1  0
  5 46  1  0
  7 53  1  0
  7 54  1  0
  8 47  1  0
 10 55  1  0
 11 56  1  0
 11 57  1  0
 12 58  1  0
 12 59  1  0
 13 60  1  0
 13 61  1  0
 14 62  1  0
 14 63  1  0
 15 64  1  0
 15 65  1  0
 16 66  1  0
 16 67  1  0
 17 68  1  0
 21 69  1  0
 22 70  1  0
 24 71  1  0
 26 72  1  0
 29 73  1  0
 29 74  1  0
 31 75  1  0
 32 76  1  0
 33 77  1  0
 36 78  1  0
 37 79  1  0
 38 80  1  0
 39 81  1  0
 40 48  1  0
 45 82  1  0
M  END
>  <BioMolTech Lead Finder dG>
-10.774

>  <BioMolTech Lead Finder VSscore>
-12.18

>  <BioMolTech Lead Finder Rank score>
-5.451

>  <BioMolTech Lead Finder LE>
-0.239

>  <BioMolTech Lead Finder Structure Name>
/var/folders/xd/y7jw_xv579q2qqq7kks92xd80000gn/T/LeadFinder_21449_1/Ligand_1.sdf

>  <BioMolTech Lead Finder SDF id>
0

>  <BioMolTech Lead Finder Pose rank>
0

>  <BioMolTech Lead Finder version>
2001 1, 19 January 2019

>  <LF dG>
-10.774

>  <LF VSscore>
-12.18

>  <LF Rank Score>
-5.451

>  <LF LE>
-0.239

>  <Preferred Pose_cresset>
true

>  <Favorite_cresset>
false

>  <Protein_cresset>
6Y2F_P

>  <MW_cresset>
633.1

>  <#Atoms_cresset>
45

>  <SlogP_cresset>
2.9

>  <TPSA_cresset>
149.6

>  <Flexibility_cresset>
10.4

>  <#RB_cresset>
13

>  <Rof5_cresset>
2

>  <Filename_cresset>
DAR-DIA-9e4459de-1.mol

>  <Confs_cresset>
0

>  <Poses_cresset>
10

>  <_cresset_fieldpoints>
    -5       9.915227     -12.197196      26.446436    -13.1155
    -5       6.188268      -3.307334      27.843357    -18.0479
    -5      15.728227       8.406804      19.810436    -10.7835
    -5      10.113136       5.738099      21.500465    -20.0779
    -5      16.431227       4.857804      24.368435     -1.3715
    -5      12.166227       5.360805      28.503435     -2.6360
    -5       6.043295      -5.368603      26.370823    -22.1549
    -5      16.998226       2.992805      29.496435     -1.3350
    -5      13.116227       0.701805      28.132435     -1.2245
    -5       8.128227      -0.494195      23.657436     -4.8040
    -6      10.758226      -6.828196      28.924435      5.3630
    -6       8.059227      -8.198195      28.616436      5.1445
    -6       5.793227     -10.075195      24.614435      5.4185
    -6      10.560226      -2.906195      19.451435      3.6630
    -6      13.103227       2.200805      23.011436     12.2680
    -6      13.626226       2.801805      17.188435      8.6410
    -6      13.018227      -4.893196      24.779436     13.5610
    -6       8.372227      -0.353195      20.024435      3.0590
    -6      16.786226       7.236804      28.190435      2.8230
    -7       9.926227     -11.635196      28.147436     -1.1370
    -7       7.274227      -8.515196      28.491436     -2.0105
    -7      12.614227      -5.633195      22.945436     -1.8760
    -7       8.889227      -7.472196      23.067436     -2.3140
    -7      12.887227      -4.786196      26.326435     -2.1280
    -7      11.258226      -2.921195      19.032436     -2.2870
    -7      14.640226       2.526805      19.642435     -2.5740
    -7      10.800227       3.982805      16.578436     -2.1220
    -7       8.526227      -1.102195      22.679436     -3.1840
    -7      10.357227       2.528805      22.367435     -3.4910
    -7      13.004227       1.645805      23.235435     -3.5950
    -7      16.527227       8.380804      19.767435     -1.0275
    -7      12.971227       8.353805      23.310436     -2.2910
    -7      10.610227       7.622805      25.022436     -1.9110
    -7      11.752227       5.142805      28.559437     -1.8740
    -7      10.633226       2.211805      26.317436     -2.1955
    -7      17.034227       7.510805      28.314436     -0.9780
    -7       9.888227       6.479805      21.249435     -2.3415
    -7      15.503227       4.437805      23.324436     -3.0840
    -7      10.570227      -4.653195      28.316437     -2.6155
    -7       7.059227      -5.197196      23.598436     -2.5465
    -7       5.513227      -2.934195      26.603436     -1.5645
    -7       5.896227      -6.088195      27.575436     -1.8085
    -8       9.654227      -7.729196      26.463436      5.6035
    -8       9.577227      -2.028195      25.399435      7.0375
    -8      11.328227       0.218805      19.873436      5.8890
    -8      12.120227      -0.532195      20.778435      5.7895
    -8      11.746227      -1.311195      21.554436      5.6505
    -8      13.996227       4.880805      26.236435      7.1940
    -8      13.204226       5.628805      19.751436      5.3680
    -8      14.629227       3.594805      26.957436      5.6110

$$$$
W_Baicalein_D
  xed2sdf_05210316543D
 
 30 32  0  0  0  0  0  0  0  0999 V2000
    8.9981   -0.8662   21.0042 O   0  0  0  0  0  0  0  0  0  0  0  0
   11.1871    3.0748   19.2352 O   0  0  0  0  0  0  0  0  0  0  0  0
   10.3441    2.3798   16.7622 O   0  0  0  0  0  0  0  0  0  0  0  0
    8.8641    0.0968   16.3922 O   0  0  0  0  0  0  0  0  0  0  0  0
   11.2201    2.3978   21.8682 O   0  0  0  0  0  0  0  0  0  0  0  0
   10.1331    1.1268   20.1932 C   0  0  0  0  0  0  0  0  0  0  0  0
    9.3681   -0.0292   19.9962 C   0  0  0  0  0  0  0  0  0  0  0  0
    9.4241   -0.5812   22.2762 C   0  0  0  0  0  0  0  0  0  0  0  0
   10.4541    1.9368   19.0912 C   0  0  0  0  0  0  0  0  0  0  0  0
   10.5521    1.4138   21.5542 C   0  0  0  0  0  0  0  0  0  0  0  0
   10.1771    0.5128   22.5822 C   0  0  0  0  0  0  0  0  0  0  0  0
    9.0121   -1.5252   23.3442 C   0  0  0  0  0  0  0  0  0  0  0  0
    8.9551   -0.3552   18.7172 C   0  0  0  0  0  0  0  0  0  0  0  0
   10.0291    1.5898   17.8322 C   0  0  0  0  0  0  0  0  0  0  0  0
    9.2781    0.4378   17.6412 C   0  0  0  0  0  0  0  0  0  0  0  0
    8.1731   -1.0832   24.3552 C   0  0  0  0  0  0  0  0  0  0  0  0
    9.4401   -2.8442   23.3642 C   0  0  0  0  0  0  0  0  0  0  0  0
    7.7791   -1.9322   25.3602 C   0  0  0  0  0  0  0  0  0  0  0  0
    9.0421   -3.6932   24.3682 C   0  0  0  0  0  0  0  0  0  0  0  0
    8.2121   -3.2392   25.3692 C   0  0  0  0  0  0  0  0  0  0  0  0
   10.6101    3.8918   19.3042 H   0  0  0  0  0  0  0  0  0  0  0  0
    9.6731    2.2788   16.0192 H   0  0  0  0  0  0  0  0  0  0  0  0
    8.6971    0.9108   15.8252 H   0  0  0  0  0  0  0  0  0  0  0  0
   10.4631    0.6788   23.5262 H   0  0  0  0  0  0  0  0  0  0  0  0
    8.4121   -1.1822   18.5722 H   0  0  0  0  0  0  0  0  0  0  0  0
    7.8501   -0.1372   24.3522 H   0  0  0  0  0  0  0  0  0  0  0  0
   10.0431   -3.1812   22.6402 H   0  0  0  0  0  0  0  0  0  0  0  0
    7.1761   -1.6012   26.0872 H   0  0  0  0  0  0  0  0  0  0  0  0
    9.3551   -4.6432   24.3722 H   0  0  0  0  0  0  0  0  0  0  0  0
    7.9261   -3.8572   26.1012 H   0  0  0  0  0  0  0  0  0  0  0  0
  1  7  1  0
  1  8  1  0
  2  9  1  0
  3 14  1  0
  4 15  1  0
  5 10  2  0
  6  7  2  0
  6  9  1  0
  6 10  1  0
  7 13  1  0
  8 11  2  0
  8 12  1  0
  9 14  2  0
 10 11  1  0
 12 16  2  0
 12 17  1  0
 13 15  2  0
 14 15  1  0
 16 18  1  0
 17 19  2  0
 18 20  2  0
 19 20  1  0
  2 21  1  0
  3 22  1  0
  4 23  1  0
 11 24  1  0
 13 25  1  0
 16 26  1  0
 17 27  1  0
 18 28  1  0
 19 29  1  0
 20 30  1  0
M  END
>  <BioMolTech Lead Finder dG>
-7.804

>  <BioMolTech Lead Finder VSscore>
-9.385

>  <BioMolTech Lead Finder Rank score>
-11.556

>  <BioMolTech Lead Finder LE>
-0.39

>  <BioMolTech Lead Finder Structure Name>
/var/folders/xd/y7jw_xv579q2qqq7kks92xd80000gn/T/LeadFinder_23197_1/Ligand_1.sdf

>  <BioMolTech Lead Finder SDF id>
0

>  <BioMolTech Lead Finder Pose rank>
0

>  <BioMolTech Lead Finder version>
2001 1, 19 January 2019

>  <PUBCHEM_COMPOUND_CID>
5281605

>  <PUBCHEM_COMPOUND_CANONICALIZED>
1

>  <PUBCHEM_CACTVS_COMPLEXITY>
413

>  <PUBCHEM_CACTVS_HBOND_ACCEPTOR>
5

>  <PUBCHEM_CACTVS_HBOND_DONOR>
3

>  <PUBCHEM_CACTVS_ROTATABLE_BOND>
1

>  <PUBCHEM_CACTVS_SUBSKEYS>
AAADccBwOAAAAAAAAAAAAAAAAAAAAAAAAAAwYIAAAAAAAACBQAAAGgAACAAADASAmAAwBoAABgCIAqBSAAACCAAkIAAIiAEGiMgNJzaGNRqCeWGl4BUJuQfK7LzOIQABCAAIQABCAAIQABCAAAAAAAAAAA==

>  <PUBCHEM_IUPAC_OPENEYE_NAME>
5,6,7-trihydroxy-2-phenyl-chromen-4-one

>  <PUBCHEM_IUPAC_CAS_NAME>
5,6,7-trihydroxy-2-phenyl-1-benzopyran-4-one

>  <PUBCHEM_IUPAC_NAME_MARKUP>
5,6,7-trihydroxy-2-phenylchromen-4-one

>  <PUBCHEM_IUPAC_NAME>
5,6,7-trihydroxy-2-phenylchromen-4-one

>  <PUBCHEM_IUPAC_SYSTEMATIC_NAME>
5,6,7-tris(oxidanyl)-2-phenyl-chromen-4-one

>  <PUBCHEM_IUPAC_TRADITIONAL_NAME>
5,6,7-trihydroxy-2-phenyl-chromone

>  <PUBCHEM_IUPAC_INCHI>
InChI=1S/C15H10O5/c16-9-6-11(8-4-2-1-3-5-8)20-12-7-10(17)14(18)15(19)13(9)12/h1-7,17-19H

>  <PUBCHEM_IUPAC_INCHIKEY>
FXNFHKRTJBSTCS-UHFFFAOYSA-N

>  <PUBCHEM_XLOGP3>
1.7

>  <PUBCHEM_EXACT_MASS>
270.052823

>  <PUBCHEM_MOLECULAR_FORMULA>
C15H10O5

>  <PUBCHEM_MOLECULAR_WEIGHT>
270.24

>  <PUBCHEM_OPENEYE_CAN_SMILES>
C1=CC=C(C=C1)C2=CC(=O)C3=C(O2)C=C(C(=C3O)O)O

>  <PUBCHEM_OPENEYE_ISO_SMILES>
C1=CC=C(C=C1)C2=CC(=O)C3=C(O2)C=C(C(=C3O)O)O

>  <PUBCHEM_CACTVS_TPSA>
87

>  <PUBCHEM_MONOISOTOPIC_WEIGHT>
270.052823

>  <PUBCHEM_TOTAL_CHARGE>
0

>  <PUBCHEM_HEAVY_ATOM_COUNT>
20

>  <PUBCHEM_ATOM_DEF_STEREO_COUNT>
0

>  <PUBCHEM_ATOM_UDEF_STEREO_COUNT>
0

>  <PUBCHEM_BOND_DEF_STEREO_COUNT>
0

>  <PUBCHEM_BOND_UDEF_STEREO_COUNT>
0

>  <PUBCHEM_ISOTOPIC_ATOM_COUNT>
0

>  <PUBCHEM_COMPONENT_COUNT>
1

>  <PUBCHEM_CACTVS_TAUTO_COUNT>
-1

>  <PUBCHEM_COORDINATE_TYPE>
1
5
255

>  <PUBCHEM_BONDANNOTATIONS>
1  7  8
1  8  8
10  11  8
12  16  8
12  17  8
13  15  8
14  15  8
16  18  8
17  19  8
18  20  8
19  20  8
6  10  8
6  7  8
6  9  8
7  13  8
8  11  8
9  14  8

>  <LF dG>
-7.804

>  <LF VSscore>
-9.385

>  <LF Rank Score>
-11.556

>  <LF LE>
-0.39

>  <Preferred Pose_cresset>
true

>  <Favorite_cresset>
false

>  <Protein_cresset>
6Y2F_P

>  <MW_cresset>
270.2

>  <#Atoms_cresset>
20

>  <SlogP_cresset>
2.3

>  <TPSA_cresset>
87

>  <Flexibility_cresset>
1.7

>  <#RB_cresset>
4

>  <Rof5_cresset>
0

>  <Filename_cresset>
Baicalein.sdf

>  <Confs_cresset>
0

>  <Poses_cresset>
10

>  <_cresset_fieldpoints>
    -5       7.331147      -2.098181      21.013210     -3.4325
    -5       9.362147      -1.625181      15.720209     -6.1945
    -5       6.344148      -3.146181      22.690210     -2.7970
    -5      12.955358       3.205577      21.906124    -16.6553
    -5      12.466722       3.195813      20.653976    -21.7183
    -5      12.414147       3.175819      17.760210    -11.2900
    -5      10.918147      -1.825181      26.121210     -2.3435
    -6       8.260111       2.376663      14.866306     17.3481
    -6       7.329147       1.499819      23.183210      3.0680
    -6       7.190147      -2.868181      18.683210      1.7275
    -6       9.065147       4.972818      18.974209      7.0910
    -6       6.541147       0.917819      25.798210      3.0395
    -6      11.369147      -2.787181      21.094210      2.7005
    -6       6.446147      -3.009181      27.861210      2.7730
    -6      10.848147      -5.368182      22.556210      2.8810
    -6       8.671147      -6.149181      26.136209      2.7520
    -7      11.968147      -1.687181      21.255209     -2.5730
    -7      13.354147       2.550819      20.509211     -1.6355
    -7      10.711147       0.743819      14.621210     -1.4830
    -7       7.039147       2.482819      19.663210     -1.8165
    -7      11.395147       4.591818      17.186211     -1.4385
    -7       7.382148       2.839819      16.226210     -1.3765
    -7      12.443148      -0.965181      18.826210     -1.8170
    -7       9.477147       4.264819      21.342209     -1.7715
    -7       6.972147      -2.255181      20.900209     -2.4230
    -7       7.300148       1.500819      22.200211     -2.5975
    -7       8.694147      -6.479181      26.281210     -0.9675
    -7       7.149148      -6.431181      24.979210     -0.9555
    -7      10.595147      -5.766181      22.134211     -0.9915
    -7       6.276147      -3.135181      28.160210     -0.9675
    -7      11.402147      -0.912181      25.514210     -2.0400
    -8       9.694147       0.768819      18.946209      6.5990
    -8       9.970147       0.535819      21.308210      5.0125
    -8       8.613148      -2.382181      24.362209      7.1530

$$$$
Untitled
  xed2sdf_05210316543D
 
 30 32  0  0  0  0  0  0  0  0999 V2000
   10.6597    2.3686   18.5317 O   0  0  0  0  0  0  0  0  0  0  0  0
   12.4737   -2.1204   18.3967 O   0  0  0  0  0  0  0  0  0  0  0  0
   10.4497   -2.8434   16.7577 O   0  0  0  0  0  0  0  0  0  0  0  0
    8.5437   -1.0104   16.0177 O   0  0  0  0  0  0  0  0  0  0  0  0
   13.5867   -0.0974   19.8327 O   0  0  0  0  0  0  0  0  0  0  0  0
   11.6277    0.1366   18.5257 C   0  0  0  0  0  0  0  0  0  0  0  0
   10.6567    1.0656   18.1327 C   0  0  0  0  0  0  0  0  0  0  0  0
   11.6457    2.7836   19.3907 C   0  0  0  0  0  0  0  0  0  0  0  0
   11.5487   -1.1844   18.0507 C   0  0  0  0  0  0  0  0  0  0  0  0
   12.6707    0.6106   19.4187 C   0  0  0  0  0  0  0  0  0  0  0  0
   12.6357    1.9636   19.8407 C   0  0  0  0  0  0  0  0  0  0  0  0
   11.6047    4.2056   19.8127 C   0  0  0  0  0  0  0  0  0  0  0  0
    9.6347    0.6616   17.2947 C   0  0  0  0  0  0  0  0  0  0  0  0
   10.5227   -1.5574   17.2167 C   0  0  0  0  0  0  0  0  0  0  0  0
    9.5587   -0.6334   16.8377 C   0  0  0  0  0  0  0  0  0  0  0  0
   11.8547    5.1996   18.8797 C   0  0  0  0  0  0  0  0  0  0  0  0
   11.3197    4.5756   21.1187 C   0  0  0  0  0  0  0  0  0  0  0  0
   11.8307    6.5246   19.2427 C   0  0  0  0  0  0  0  0  0  0  0  0
   11.2917    5.9016   21.4787 C   0  0  0  0  0  0  0  0  0  0  0  0
   11.5487    6.8776   20.5427 C   0  0  0  0  0  0  0  0  0  0  0  0
   13.4077   -1.8304   18.1757 H   0  0  0  0  0  0  0  0  0  0  0  0
   10.0337   -2.8834   15.8427 H   0  0  0  0  0  0  0  0  0  0  0  0
    8.8717   -1.6014   15.2727 H   0  0  0  0  0  0  0  0  0  0  0  0
   13.3337    2.3136   20.4657 H   0  0  0  0  0  0  0  0  0  0  0  0
    8.9377    1.3226   17.0147 H   0  0  0  0  0  0  0  0  0  0  0  0
   12.0557    4.9496   17.9327 H   0  0  0  0  0  0  0  0  0  0  0  0
   11.1327    3.8716   21.8047 H   0  0  0  0  0  0  0  0  0  0  0  0
   12.0167    7.2326   18.5617 H   0  0  0  0  0  0  0  0  0  0  0  0
   11.0837    6.1576   22.4227 H   0  0  0  0  0  0  0  0  0  0  0  0
   11.5307    7.8426   20.8067 H   0  0  0  0  0  0  0  0  0  0  0  0
  1  7  1  0
  1  8  1  0
  2  9  1  0
  3 14  1  0
  4 15  1  0
  5 10  2  0
  6  7  2  0
  6  9  1  0
  6 10  1  0
  7 13  1  0
  8 11  2  0
  8 12  1  0
  9 14  2  0
 10 11  1  0
 12 16  2  0
 12 17  1  0
 13 15  2  0
 14 15  1  0
 16 18  1  0
 17 19  2  0
 18 20  2  0
 19 20  1  0
  2 21  1  0
  3 22  1  0
  4 23  1  0
 11 24  1  0
 13 25  1  0
 16 26  1  0
 17 27  1  0
 18 28  1  0
 19 29  1  0
 20 30  1  0
M  END
>  <BioMolTech Lead Finder dG>
-6.334

>  <BioMolTech Lead Finder VSscore>
-7.792

>  <BioMolTech Lead Finder Rank score>
-10.577

>  <BioMolTech Lead Finder LE>
-0.317

>  <BioMolTech Lead Finder Structure Name>
/var/folders/xd/y7jw_xv579q2qqq7kks92xd80000gn/T/LeadFinder_21446_1/Ligand_1.sdf

>  <BioMolTech Lead Finder SDF id>
0

>  <BioMolTech Lead Finder Pose rank>
0

>  <BioMolTech Lead Finder version>
2001 1, 19 January 2019

>  <PUBCHEM_COMPOUND_CID>
5281605

>  <PUBCHEM_COMPOUND_CANONICALIZED>
1

>  <PUBCHEM_CACTVS_COMPLEXITY>
413

>  <PUBCHEM_CACTVS_HBOND_ACCEPTOR>
5

>  <PUBCHEM_CACTVS_HBOND_DONOR>
3

>  <PUBCHEM_CACTVS_ROTATABLE_BOND>
1

>  <PUBCHEM_CACTVS_SUBSKEYS>
AAADccBwOAAAAAAAAAAAAAAAAAAAAAAAAAAwYIAAAAAAAACBQAAAGgAACAAADASAmAAwBoAABgCIAqBSAAACCAAkIAAIiAEGiMgNJzaGNRqCeWGl4BUJuQfK7LzOIQABCAAIQABCAAIQABCAAAAAAAAAAA==

>  <PUBCHEM_IUPAC_OPENEYE_NAME>
5,6,7-trihydroxy-2-phenyl-chromen-4-one

>  <PUBCHEM_IUPAC_CAS_NAME>
5,6,7-trihydroxy-2-phenyl-1-benzopyran-4-one

>  <PUBCHEM_IUPAC_NAME_MARKUP>
5,6,7-trihydroxy-2-phenylchromen-4-one

>  <PUBCHEM_IUPAC_NAME>
5,6,7-trihydroxy-2-phenylchromen-4-one

>  <PUBCHEM_IUPAC_SYSTEMATIC_NAME>
5,6,7-tris(oxidanyl)-2-phenyl-chromen-4-one

>  <PUBCHEM_IUPAC_TRADITIONAL_NAME>
5,6,7-trihydroxy-2-phenyl-chromone

>  <PUBCHEM_IUPAC_INCHI>
InChI=1S/C15H10O5/c16-9-6-11(8-4-2-1-3-5-8)20-12-7-10(17)14(18)15(19)13(9)12/h1-7,17-19H

>  <PUBCHEM_IUPAC_INCHIKEY>
FXNFHKRTJBSTCS-UHFFFAOYSA-N

>  <PUBCHEM_XLOGP3>
1.7

>  <PUBCHEM_EXACT_MASS>
270.052823

>  <PUBCHEM_MOLECULAR_FORMULA>
C15H10O5

>  <PUBCHEM_MOLECULAR_WEIGHT>
270.24

>  <PUBCHEM_OPENEYE_CAN_SMILES>
C1=CC=C(C=C1)C2=CC(=O)C3=C(O2)C=C(C(=C3O)O)O

>  <PUBCHEM_OPENEYE_ISO_SMILES>
C1=CC=C(C=C1)C2=CC(=O)C3=C(O2)C=C(C(=C3O)O)O

>  <PUBCHEM_CACTVS_TPSA>
87

>  <PUBCHEM_MONOISOTOPIC_WEIGHT>
270.052823

>  <PUBCHEM_TOTAL_CHARGE>
0

>  <PUBCHEM_HEAVY_ATOM_COUNT>
20

>  <PUBCHEM_ATOM_DEF_STEREO_COUNT>
0

>  <PUBCHEM_ATOM_UDEF_STEREO_COUNT>
0

>  <PUBCHEM_BOND_DEF_STEREO_COUNT>
0

>  <PUBCHEM_BOND_UDEF_STEREO_COUNT>
0

>  <PUBCHEM_ISOTOPIC_ATOM_COUNT>
0

>  <PUBCHEM_COMPONENT_COUNT>
1

>  <PUBCHEM_CACTVS_TAUTO_COUNT>
-1

>  <PUBCHEM_COORDINATE_TYPE>
1
5
255

>  <PUBCHEM_BONDANNOTATIONS>
1  7  8
1  8  8
10  11  8
12  16  8
12  17  8
13  15  8
14  15  8
16  18  8
17  19  8
18  20  8
19  20  8
6  10  8
6  7  8
6  9  8
7  13  8
8  11  8
9  14  8

>  <LF dG>
-6.334

>  <LF VSscore>
-7.792

>  <LF Rank Score>
-10.577

>  <LF LE>
-0.317

>  <Preferred Pose_cresset>
true

>  <Favorite_cresset>
false

>  <Protein_cresset>
6Y2F_P

>  <MW_cresset>
270.2

>  <#Atoms_cresset>
20

>  <SlogP_cresset>
2.3

>  <TPSA_cresset>
87

>  <Flexibility_cresset>
1.7

>  <#RB_cresset>
4

>  <Rof5_cresset>
0

>  <Filename_cresset>
Baicalein.sdf

>  <Confs_cresset>
0

>  <Poses_cresset>
10

>  <_cresset_fieldpoints>
    -5       8.761691       3.810618      19.008671     -2.9040
    -5       8.682692       5.482618      19.527672     -3.1080
    -5      13.182692      -1.993382      20.427671    -11.4310
    -5      14.926691      -0.000382      21.163671     -9.7745
    -5      14.486691       5.613618      20.882671     -2.5605
    -6      11.050692       8.611618      23.059671      2.9975
    -6      12.497691       6.610618      16.198671      3.2870
    -6      12.573691       3.277618      16.561670      3.2235
    -6       9.597692      -2.684382      14.146671     11.4105
    -6      14.357691      -1.320382      16.647671      2.1770
    -6      10.653691       4.678618      24.201672      2.7400
    -6      11.996691       9.622618      19.090672      3.1325
    -6       8.791691       2.970618      15.375671      1.9490
    -7       8.644691       3.784618      18.507671     -2.4380
    -7      13.260692       2.749618      16.889671     -2.6040
    -7      12.956692      -2.322382      20.800671     -1.6915
    -7      12.572691       0.752618      15.301671     -1.8210
    -7      14.782691      -0.056382      17.413671     -1.7645
    -7      12.745691      -4.034382      16.806671     -1.3780
    -7      10.803691      -1.734382      13.904671     -1.3755
    -7       7.851691      -3.470382      16.321671     -1.4965
    -7       8.299691       0.396618      13.985671     -1.2060
    -7      12.059691       6.623618      15.830671     -0.9945
    -7       8.988691      -0.826382      20.449671     -1.8130
    -7      11.954691       9.913618      19.074671     -0.9675
    -7      14.741692       4.612618      20.721672     -2.0470
    -7      10.112691       1.311618      21.461672     -2.5835
    -7      11.019691       8.728619      23.343672     -0.9675
    -8      11.576692       5.542618      20.179670      7.1525
    -8      10.599691      -0.218382      17.690672      6.5990
    -8      11.875691       1.254618      19.071671      5.0150

$$$$
W_Baicalin_D
  xed2sdf_05210316543D
 
 49 52  0  0  1  0  0  0  0  0999 V2000
    9.7644   -0.2531   20.0868 O   0  0  0  0  0  0  0  0  0  0  0  0
   10.2684    0.8379   22.2298 O   0  0  0  0  0  0  0  0  0  0  0  0
   11.3624    3.0459   18.0368 O   0  0  0  0  0  0  0  0  0  0  0  0
   10.9904    3.1549   20.8868 O   0  0  0  0  0  0  0  0  0  0  0  0
    9.7444    1.1129   16.6348 O   0  0  0  0  0  0  0  0  0  0  0  0
    8.1724   -1.5041   17.2388 O   0  5  0  0  0  0  0  0  0  0  0  0
   10.0614   -2.2401   18.2898 O   0  0  0  0  0  0  0  0  0  0  0  0
    9.8624   -3.6261   23.6108 O   0  0  0  0  0  0  0  0  0  0  0  0
    8.0894    1.5939   23.7908 O   0  0  0  0  0  0  0  0  0  0  0  0
    6.8054   -0.3041   25.2668 O   0  0  0  0  0  0  0  0  0  0  0  0
    6.6724   -2.7801   25.9568 O   0  0  0  0  0  0  0  0  0  0  0  0
   10.4214    2.1999   18.7128 C   0  0  0  0  0  0  0  0  0  0  0  0
   10.8894    1.9249   20.1538 C   0  0  0  0  0  0  0  0  0  0  0  0
   10.2544    0.8709   17.9538 C   0  0  0  0  0  0  0  0  0  0  0  0
    9.8894    0.9749   20.8408 C   0  0  0  0  0  0  0  0  0  0  0  0
    9.2894   -0.0361   18.7418 C   0  0  0  0  0  0  0  0  0  0  0  0
    9.1674   -1.3611   18.0328 C   0  0  0  0  0  0  0  0  0  0  0  0
    9.6204   -0.0611   22.9708 C   0  0  0  0  0  0  0  0  0  0  0  0
   10.0304   -1.3771   22.9378 C   0  0  0  0  0  0  0  0  0  0  0  0
    8.5254    0.2979   23.7568 C   0  0  0  0  0  0  0  0  0  0  0  0
    9.3924   -2.3511   23.6828 C   0  0  0  0  0  0  0  0  0  0  0  0
    8.3014   -1.9851   24.4718 C   0  0  0  0  0  0  0  0  0  0  0  0
    7.8724   -0.6541   24.5008 C   0  0  0  0  0  0  0  0  0  0  0  0
    7.6454   -3.0201   25.2428 C   0  0  0  0  0  0  0  0  0  0  0  0
    9.2364   -4.5931   24.3588 C   0  0  0  0  0  0  0  0  0  0  0  0
    8.1584   -4.3391   25.1588 C   0  0  0  0  0  0  0  0  0  0  0  0
    9.8024   -5.9631   24.2648 C   0  0  0  0  0  0  0  0  0  0  0  0
   10.4584   -6.5811   25.3208 C   0  0  0  0  0  0  0  0  0  0  0  0
    9.6704   -6.6591   23.0728 C   0  0  0  0  0  0  0  0  0  0  0  0
   10.9674   -7.8501   25.1818 C   0  0  0  0  0  0  0  0  0  0  0  0
   10.1794   -7.9271   22.9358 C   0  0  0  0  0  0  0  0  0  0  0  0
   10.8304   -8.5251   23.9908 C   0  0  0  0  0  0  0  0  0  0  0  0
    9.5394    2.6689   18.7428 H   0  0  0  0  0  0  0  0  0  0  0  0
   11.7924    1.4959   20.1328 H   0  0  0  0  0  0  0  0  0  0  0  0
   11.1424    0.4209   17.8678 H   0  0  0  0  0  0  0  0  0  0  0  0
    8.9594    1.3429   20.8488 H   0  0  0  0  0  0  0  0  0  0  0  0
    8.3974    0.4129   18.7918 H   0  0  0  0  0  0  0  0  0  0  0  0
   12.3094    2.7979   18.2678 H   0  0  0  0  0  0  0  0  0  0  0  0
   10.2254    3.7719   20.6728 H   0  0  0  0  0  0  0  0  0  0  0  0
   10.4634    1.4599   16.0228 H   0  0  0  0  0  0  0  0  0  0  0  0
    7.5664    1.8339   22.9658 H   0  0  0  0  0  0  0  0  0  0  0  0
    5.9404   -0.6161   24.8578 H   0  0  0  0  0  0  0  0  0  0  0  0
   10.8064   -1.6331   22.3618 H   0  0  0  0  0  0  0  0  0  0  0  0
    7.7344   -5.0791   25.6808 H   0  0  0  0  0  0  0  0  0  0  0  0
   10.5624   -6.0981   26.1898 H   0  0  0  0  0  0  0  0  0  0  0  0
    9.1974   -6.2311   22.3028 H   0  0  0  0  0  0  0  0  0  0  0  0
   11.4384   -8.2841   25.9498 H   0  0  0  0  0  0  0  0  0  0  0  0
   10.0784   -8.4151   22.0688 H   0  0  0  0  0  0  0  0  0  0  0  0
   11.2024   -9.4481   23.8908 H   0  0  0  0  0  0  0  0  0  0  0  0
  1 15  1  0
  1 16  1  0
  2 18  1  0
  6 17  1  0
  7 17  2  0
  8 21  1  0
  8 25  1  0
  9 20  1  0
 10 23  1  0
 11 24  2  0
 12  3  1  0
 12 13  1  0
 12 14  1  0
 13  4  1  0
 13 15  1  0
 14  5  1  0
 14 16  1  0
 15  2  1  0
 16 17  1  0
 18 19  2  0
 18 20  1  0
 19 21  1  0
 20 23  2  0
 21 22  2  0
 22 23  1  0
 22 24  1  0
 24 26  1  0
 25 26  2  0
 25 27  1  0
 27 28  2  0
 27 29  1  0
 28 30  1  0
 29 31  2  0
 30 32  2  0
 31 32  1  0
  3 38  1  0
  4 39  1  0
  5 40  1  0
  9 41  1  0
 10 42  1  0
 12 33  1  0
 13 34  1  0
 14 35  1  0
 15 36  1  0
 16 37  1  0
 19 43  1  0
 26 44  1  0
 28 45  1  0
 29 46  1  0
 30 47  1  0
 31 48  1  0
 32 49  1  0
M  CHG  1   6  -1
M  END
>  <BioMolTech Lead Finder dG>
-8.709

>  <BioMolTech Lead Finder VSscore>
-12.127

>  <BioMolTech Lead Finder Rank score>
-11.637

>  <BioMolTech Lead Finder LE>
-0.272

>  <BioMolTech Lead Finder Structure Name>
/var/folders/xd/y7jw_xv579q2qqq7kks92xd80000gn/T/LeadFinder_23736_1/Ligand_1.sdf

>  <BioMolTech Lead Finder SDF id>
0

>  <BioMolTech Lead Finder Pose rank>
0

>  <BioMolTech Lead Finder version>
2001 1, 19 January 2019

>  <PUBCHEM_COMPOUND_CID>
64982

>  <PUBCHEM_COMPOUND_CANONICALIZED>
1

>  <PUBCHEM_CACTVS_COMPLEXITY>
748

>  <PUBCHEM_CACTVS_HBOND_ACCEPTOR>
11

>  <PUBCHEM_CACTVS_HBOND_DONOR>
6

>  <PUBCHEM_CACTVS_ROTATABLE_BOND>
4

>  <PUBCHEM_CACTVS_SUBSKEYS>
AAADceB4PAAAAAAAAAAAAAAAAAAAAAAAAAA0YIEAAAAAAACBQAAAGgAACAAADBSwmAMwDoAABgCIAqDSCAICCAAkIAAIiAFGiMgdNzaGNR6ieWOl4BUPuQfK7LzOIQABCAAIQABCAAIQABCAAAAAAAAAAA==

>  <PUBCHEM_IUPAC_OPENEYE_NAME>
(2S,3S,4S,5R,6S)-6-(5,6-dihydroxy-4-oxo-2-phenyl-chromen-7-yl)oxy-3,4,5-trihydroxy-tetrahydropyran-2-carboxylic acid

>  <PUBCHEM_IUPAC_CAS_NAME>
(2S,3S,4S,5R,6S)-6-[(5,6-dihydroxy-4-oxo-2-phenyl-1-benzopyran-7-yl)oxy]-3,4,5-trihydroxy-2-oxanecarboxylic acid

>  <PUBCHEM_IUPAC_NAME_MARKUP>
(2<I>S</I>,3<I>S</I>,4<I>S</I>,5<I>R</I>,6<I>S</I>)-6-(5,6-dihydroxy-4-oxo-2-phenylchromen-7-yl)oxy-3,4,5-trihydroxyoxane-2-carboxylic acid

>  <PUBCHEM_IUPAC_NAME>
(2S,3S,4S,5R,6S)-6-(5,6-dihydroxy-4-oxo-2-phenylchromen-7-yl)oxy-3,4,5-trihydroxyoxane-2-carboxylic acid

>  <PUBCHEM_IUPAC_SYSTEMATIC_NAME>
(2S,3S,4S,5R,6S)-6-[5,6-bis(oxidanyl)-4-oxidanylidene-2-phenyl-chromen-7-yl]oxy-3,4,5-tris(oxidanyl)oxane-2-carboxylic acid

>  <PUBCHEM_IUPAC_TRADITIONAL_NAME>
(2S,3S,4S,5R,6S)-6-(5,6-dihydroxy-4-keto-2-phenyl-chromen-7-yl)oxy-3,4,5-trihydroxy-tetrahydropyran-2-carboxylic acid

>  <PUBCHEM_IUPAC_INCHI>
InChI=1S/C21H18O11/c22-9-6-10(8-4-2-1-3-5-8)30-11-7-12(14(23)15(24)13(9)11)31-21-18(27)16(25)17(26)19(32-21)20(28)29/h1-7,16-19,21,23-27H,(H,28,29)/t16-,17-,18+,19-,21+/m0/s1

>  <PUBCHEM_IUPAC_INCHIKEY>
IKIIZLYTISPENI-ZFORQUDYSA-N

>  <PUBCHEM_XLOGP3_AA>
1.1

>  <PUBCHEM_EXACT_MASS>
446.084911

>  <PUBCHEM_MOLECULAR_FORMULA>
C21H18O11

>  <PUBCHEM_MOLECULAR_WEIGHT>
446.4

>  <PUBCHEM_OPENEYE_CAN_SMILES>
C1=CC=C(C=C1)C2=CC(=O)C3=C(C(=C(C=C3O2)OC4C(C(C(C(O4)C(=O)O)O)O)O)O)O

>  <PUBCHEM_OPENEYE_ISO_SMILES>
C1=CC=C(C=C1)C2=CC(=O)C3=C(C(=C(C=C3O2)O[C@H]4[C@@H]([C@H]([C@@H]([C@H](O4)C(=O)O)O)O)O)O)O

>  <PUBCHEM_CACTVS_TPSA>
183

>  <PUBCHEM_MONOISOTOPIC_WEIGHT>
446.084911

>  <PUBCHEM_TOTAL_CHARGE>
0

>  <PUBCHEM_HEAVY_ATOM_COUNT>
32

>  <PUBCHEM_ATOM_DEF_STEREO_COUNT>
5

>  <PUBCHEM_ATOM_UDEF_STEREO_COUNT>
0

>  <PUBCHEM_BOND_DEF_STEREO_COUNT>
0

>  <PUBCHEM_BOND_UDEF_STEREO_COUNT>
0

>  <PUBCHEM_ISOTOPIC_ATOM_COUNT>
0

>  <PUBCHEM_COMPONENT_COUNT>
1

>  <PUBCHEM_CACTVS_TAUTO_COUNT>
-1

>  <PUBCHEM_COORDINATE_TYPE>
1
5
255

>  <PUBCHEM_BONDANNOTATIONS>
16  17  5
18  19  8
18  20  8
19  21  8
15  2  5
20  23  8
21  22  8
22  23  8
22  24  8
24  26  8
25  26  8
27  28  8
27  29  8
28  30  8
29  31  8
12  3  5
30  32  8
31  32  8
13  4  6
14  5  6
8  21  8
8  25  8

>  <LF dG>
-8.709

>  <LF VSscore>
-12.127

>  <LF Rank Score>
-11.637

>  <LF LE>
-0.272

>  <Preferred Pose_cresset>
true

>  <Favorite_cresset>
false

>  <Protein_cresset>
6Y2F_P

>  <MW_cresset>
445.4

>  <#Atoms_cresset>
32

>  <SlogP_cresset>
1.1

>  <TPSA_cresset>
186

>  <Flexibility_cresset>
7.6

>  <#RB_cresset>
9

>  <Rof5_cresset>
1

>  <Filename_cresset>
Baicalin.sdf

>  <Confs_cresset>
0

>  <Poses_cresset>
10

>  <_cresset_fieldpoints>
    -5       8.341356      -3.191103      16.558842     -9.7940
    -5      11.141356      -1.877104      19.824842     -7.8355
    -5      11.502356       2.894896      22.746841    -10.6190
    -5       6.531356      -1.167104      27.098843    -13.7690
    -5       8.087357       0.398896      15.998842     -9.4870
    -5      10.934356       4.573896      17.094841     -5.8035
    -5       9.554356      -3.683104      17.254843     -9.5300
    -5      12.006356      -4.371104      23.015842     -4.8515
    -5       5.716356      -3.647104      27.323841    -11.2500
    -5      12.694356      -5.734104      23.105843     -4.7560
    -5       7.765356      -8.543103      24.973843     -3.7045
    -6       7.230356       2.495896      21.303843      8.8785
    -6       8.357356       3.522896      20.646843      9.1600
    -6      13.321356       1.373896      18.114841      7.8495
    -6      11.773355      -7.469104      28.104843      1.7630
    -6      12.351357     -10.610104      25.744843      2.0405
    -6      11.043356     -10.849104      21.967842      1.8965
    -7       7.330356      -1.338104      20.886843     -3.0375
    -7      12.700356       2.037896      16.161842     -1.5760
    -7      13.638356       0.910896      18.375843     -1.6355
    -7      12.076356       4.896896      19.514843     -1.6390
    -7       9.296356       3.481896      22.764843     -2.6490
    -7       7.459356       0.587896      16.116842     -1.7505
    -7       7.489356       2.151896      16.910843     -1.6925
    -7       7.101356       2.547896      19.659842     -1.9320
    -7       9.520356      -4.031104      20.901842     -2.4875
    -7       9.205356      -0.611104      15.128842     -1.6375
    -7       9.058356      -3.144104      20.420841     -2.5540
    -7      11.856356      -1.462104      20.018843     -3.1330
    -7       5.575356       1.756896      24.349842     -1.5460
    -7      10.913356      -0.684104      26.279842     -1.8460
    -7       7.178356      -1.015104      27.689842     -1.6615
    -7       7.253356      -4.367104      22.147842     -2.6285
    -7       5.062356      -2.545104      23.804842     -1.7870
    -7       7.204356      -7.708104      25.278843     -2.0375
    -7      12.102356      -4.172103      22.765842     -2.4600
    -7      10.660357      -3.356104      26.651842     -2.5900
    -7      11.025356     -10.939104      21.611843     -0.9670
    -7      12.537356     -10.783104      25.871841     -0.9675
    -8      10.082356       1.306896      19.216843      5.1610
    -8       8.964356      -1.060104      23.720842      6.6025
    -8      10.314356      -7.250104      24.128841      7.1515
    -8       8.505356      -3.232104      24.615843      5.0270

$$$$
Untitled
  xed2sdf_05210316543D
 
 49 52  0  0  1  0  0  0  0  0999 V2000
   10.2482    0.3726   19.6978 O   0  0  0  0  0  0  0  0  0  0  0  0
   11.0472    0.8116   21.9788 O   0  0  0  0  0  0  0  0  0  0  0  0
   11.8402    4.0526   18.4408 O   0  0  0  0  0  0  0  0  0  0  0  0
   11.8002    3.3676   21.2328 O   0  0  0  0  0  0  0  0  0  0  0  0
    9.9522    2.6346   16.7678 O   0  0  0  0  0  0  0  0  0  0  0  0
    8.1742   -0.6014   17.5168 O   0  5  0  0  0  0  0  0  0  0  0  0
   10.3242   -0.4674   16.7588 O   0  0  0  0  0  0  0  0  0  0  0  0
    8.9992   -2.8354   24.1008 O   0  0  0  0  0  0  0  0  0  0  0  0
    9.5372    2.6196   23.4658 O   0  0  0  0  0  0  0  0  0  0  0  0
    7.7492    1.6556   25.2858 O   0  0  0  0  0  0  0  0  0  0  0  0
    6.6992   -0.4164   26.3958 O   0  0  0  0  0  0  0  0  0  0  0  0
   10.9232    3.0826   18.9678 C   0  0  0  0  0  0  0  0  0  0  0  0
   11.5272    2.3986   20.2098 C   0  0  0  0  0  0  0  0  0  0  0  0
   10.5822    2.0226   17.9028 C   0  0  0  0  0  0  0  0  0  0  0  0
   10.5372    1.3396   20.7328 C   0  0  0  0  0  0  0  0  0  0  0  0
    9.6472    0.9696   18.5288 C   0  0  0  0  0  0  0  0  0  0  0  0
    9.3582   -0.1144   17.5218 C   0  0  0  0  0  0  0  0  0  0  0  0
   10.1662    0.3786   22.8808 C   0  0  0  0  0  0  0  0  0  0  0  0
    9.9962   -0.9784   23.0528 C   0  0  0  0  0  0  0  0  0  0  0  0
    9.4002    1.2676   23.6348 C   0  0  0  0  0  0  0  0  0  0  0  0
    9.0982   -1.4834   23.9738 C   0  0  0  0  0  0  0  0  0  0  0  0
    8.3402   -0.5894   24.7308 C   0  0  0  0  0  0  0  0  0  0  0  0
    8.4962    0.7896   24.5508 C   0  0  0  0  0  0  0  0  0  0  0  0
    7.4042   -1.1384   25.6908 C   0  0  0  0  0  0  0  0  0  0  0  0
    8.1122   -3.3374   25.0198 C   0  0  0  0  0  0  0  0  0  0  0  0
    7.3222   -2.5494   25.8068 C   0  0  0  0  0  0  0  0  0  0  0  0
    8.0542   -4.8174   25.1348 C   0  0  0  0  0  0  0  0  0  0  0  0
    9.0322   -5.5594   25.7818 C   0  0  0  0  0  0  0  0  0  0  0  0
    6.9792   -5.4894   24.5738 C   0  0  0  0  0  0  0  0  0  0  0  0
    8.9382   -6.9274   25.8588 C   0  0  0  0  0  0  0  0  0  0  0  0
    6.8862   -6.8584   24.6498 C   0  0  0  0  0  0  0  0  0  0  0  0
    7.8662   -7.5794   25.2918 C   0  0  0  0  0  0  0  0  0  0  0  0
   10.0822    3.5556   19.2308 H   0  0  0  0  0  0  0  0  0  0  0  0
   12.3882    1.9586   19.9568 H   0  0  0  0  0  0  0  0  0  0  0  0
   11.4242    1.5826   17.5888 H   0  0  0  0  0  0  0  0  0  0  0  0
    9.6432    1.7286   20.9508 H   0  0  0  0  0  0  0  0  0  0  0  0
    8.8002    1.4266   18.7988 H   0  0  0  0  0  0  0  0  0  0  0  0
   12.7932    3.8036   18.6418 H   0  0  0  0  0  0  0  0  0  0  0  0
   10.9812    3.5556   21.7868 H   0  0  0  0  0  0  0  0  0  0  0  0
   10.4212    2.3896   15.9118 H   0  0  0  0  0  0  0  0  0  0  0  0
    8.6532    3.0936   23.5218 H   0  0  0  0  0  0  0  0  0  0  0  0
    7.2342    2.2886   24.6978 H   0  0  0  0  0  0  0  0  0  0  0  0
   10.5352   -1.6134   22.4978 H   0  0  0  0  0  0  0  0  0  0  0  0
    6.6892   -2.9634   26.4598 H   0  0  0  0  0  0  0  0  0  0  0  0
    9.8142   -5.0924   26.1968 H   0  0  0  0  0  0  0  0  0  0  0  0
    6.2622   -4.9714   24.1078 H   0  0  0  0  0  0  0  0  0  0  0  0
    9.6502   -7.4504   26.3268 H   0  0  0  0  0  0  0  0  0  0  0  0
    6.1062   -7.3294   24.2388 H   0  0  0  0  0  0  0  0  0  0  0  0
    7.8012   -8.5764   25.3458 H   0  0  0  0  0  0  0  0  0  0  0  0
  1 15  1  0
  1 16  1  0
  2 18  1  0
  6 17  1  0
  7 17  2  0
  8 21  1  0
  8 25  1  0
  9 20  1  0
 10 23  1  0
 11 24  2  0
 12  3  1  0
 12 13  1  0
 12 14  1  0
 13  4  1  0
 13 15  1  0
 14  5  1  0
 14 16  1  0
 15  2  1  0
 16 17  1  0
 18 19  2  0
 18 20  1  0
 19 21  1  0
 20 23  2  0
 21 22  2  0
 22 23  1  0
 22 24  1  0
 24 26  1  0
 25 26  2  0
 25 27  1  0
 27 28  2  0
 27 29  1  0
 28 30  1  0
 29 31  2  0
 30 32  2  0
 31 32  1  0
  3 38  1  0
  4 39  1  0
  5 40  1  0
  9 41  1  0
 10 42  1  0
 12 33  1  0
 13 34  1  0
 14 35  1  0
 15 36  1  0
 16 37  1  0
 19 43  1  0
 26 44  1  0
 28 45  1  0
 29 46  1  0
 30 47  1  0
 31 48  1  0
 32 49  1  0
M  CHG  1   6  -1
M  END
>  <BioMolTech Lead Finder dG>
-8.167

>  <BioMolTech Lead Finder VSscore>
-11.483

>  <BioMolTech Lead Finder Rank score>
-12.722

>  <BioMolTech Lead Finder LE>
-0.255

>  <BioMolTech Lead Finder Structure Name>
/var/folders/xd/y7jw_xv579q2qqq7kks92xd80000gn/T/LeadFinder_21448_1/Ligand_1.sdf

>  <BioMolTech Lead Finder SDF id>
0

>  <BioMolTech Lead Finder Pose rank>
0

>  <BioMolTech Lead Finder version>
2001 1, 19 January 2019

>  <PUBCHEM_COMPOUND_CID>
64982

>  <PUBCHEM_COMPOUND_CANONICALIZED>
1

>  <PUBCHEM_CACTVS_COMPLEXITY>
748

>  <PUBCHEM_CACTVS_HBOND_ACCEPTOR>
11

>  <PUBCHEM_CACTVS_HBOND_DONOR>
6

>  <PUBCHEM_CACTVS_ROTATABLE_BOND>
4

>  <PUBCHEM_CACTVS_SUBSKEYS>
AAADceB4PAAAAAAAAAAAAAAAAAAAAAAAAAA0YIEAAAAAAACBQAAAGgAACAAADBSwmAMwDoAABgCIAqDSCAICCAAkIAAIiAFGiMgdNzaGNR6ieWOl4BUPuQfK7LzOIQABCAAIQABCAAIQABCAAAAAAAAAAA==

>  <PUBCHEM_IUPAC_OPENEYE_NAME>
(2S,3S,4S,5R,6S)-6-(5,6-dihydroxy-4-oxo-2-phenyl-chromen-7-yl)oxy-3,4,5-trihydroxy-tetrahydropyran-2-carboxylic acid

>  <PUBCHEM_IUPAC_CAS_NAME>
(2S,3S,4S,5R,6S)-6-[(5,6-dihydroxy-4-oxo-2-phenyl-1-benzopyran-7-yl)oxy]-3,4,5-trihydroxy-2-oxanecarboxylic acid

>  <PUBCHEM_IUPAC_NAME_MARKUP>
(2<I>S</I>,3<I>S</I>,4<I>S</I>,5<I>R</I>,6<I>S</I>)-6-(5,6-dihydroxy-4-oxo-2-phenylchromen-7-yl)oxy-3,4,5-trihydroxyoxane-2-carboxylic acid

>  <PUBCHEM_IUPAC_NAME>
(2S,3S,4S,5R,6S)-6-(5,6-dihydroxy-4-oxo-2-phenylchromen-7-yl)oxy-3,4,5-trihydroxyoxane-2-carboxylic acid

>  <PUBCHEM_IUPAC_SYSTEMATIC_NAME>
(2S,3S,4S,5R,6S)-6-[5,6-bis(oxidanyl)-4-oxidanylidene-2-phenyl-chromen-7-yl]oxy-3,4,5-tris(oxidanyl)oxane-2-carboxylic acid

>  <PUBCHEM_IUPAC_TRADITIONAL_NAME>
(2S,3S,4S,5R,6S)-6-(5,6-dihydroxy-4-keto-2-phenyl-chromen-7-yl)oxy-3,4,5-trihydroxy-tetrahydropyran-2-carboxylic acid

>  <PUBCHEM_IUPAC_INCHI>
InChI=1S/C21H18O11/c22-9-6-10(8-4-2-1-3-5-8)30-11-7-12(14(23)15(24)13(9)11)31-21-18(27)16(25)17(26)19(32-21)20(28)29/h1-7,16-19,21,23-27H,(H,28,29)/t16-,17-,18+,19-,21+/m0/s1

>  <PUBCHEM_IUPAC_INCHIKEY>
IKIIZLYTISPENI-ZFORQUDYSA-N

>  <PUBCHEM_XLOGP3_AA>
1.1

>  <PUBCHEM_EXACT_MASS>
446.084911

>  <PUBCHEM_MOLECULAR_FORMULA>
C21H18O11

>  <PUBCHEM_MOLECULAR_WEIGHT>
446.4

>  <PUBCHEM_OPENEYE_CAN_SMILES>
C1=CC=C(C=C1)C2=CC(=O)C3=C(C(=C(C=C3O2)OC4C(C(C(C(O4)C(=O)O)O)O)O)O)O

>  <PUBCHEM_OPENEYE_ISO_SMILES>
C1=CC=C(C=C1)C2=CC(=O)C3=C(C(=C(C=C3O2)O[C@H]4[C@@H]([C@H]([C@@H]([C@H](O4)C(=O)O)O)O)O)O)O

>  <PUBCHEM_CACTVS_TPSA>
183

>  <PUBCHEM_MONOISOTOPIC_WEIGHT>
446.084911

>  <PUBCHEM_TOTAL_CHARGE>
0

>  <PUBCHEM_HEAVY_ATOM_COUNT>
32

>  <PUBCHEM_ATOM_DEF_STEREO_COUNT>
5

>  <PUBCHEM_ATOM_UDEF_STEREO_COUNT>
0

>  <PUBCHEM_BOND_DEF_STEREO_COUNT>
0

>  <PUBCHEM_BOND_UDEF_STEREO_COUNT>
0

>  <PUBCHEM_ISOTOPIC_ATOM_COUNT>
0

>  <PUBCHEM_COMPONENT_COUNT>
1

>  <PUBCHEM_CACTVS_TAUTO_COUNT>
-1

>  <PUBCHEM_COORDINATE_TYPE>
1
5
255

>  <PUBCHEM_BONDANNOTATIONS>
16  17  5
18  19  8
18  20  8
19  21  8
15  2  5
20  23  8
21  22  8
22  23  8
22  24  8
24  26  8
25  26  8
27  28  8
27  29  8
28  30  8
29  31  8
12  3  5
30  32  8
31  32  8
13  4  6
14  5  6
8  21  8
8  25  8

>  <LF dG>
-8.167

>  <LF VSscore>
-11.483

>  <LF Rank Score>
-12.722

>  <LF LE>
-0.255

>  <Preferred Pose_cresset>
true

>  <Favorite_cresset>
false

>  <Protein_cresset>
6Y2F_P

>  <MW_cresset>
445.4

>  <#Atoms_cresset>
32

>  <SlogP_cresset>
1.1

>  <TPSA_cresset>
186

>  <Flexibility_cresset>
7.6

>  <#RB_cresset>
9

>  <Rof5_cresset>
1

>  <Filename_cresset>
Baicalin.sdf

>  <Confs_cresset>
0

>  <Poses_cresset>
10

>  <_cresset_fieldpoints>
    -5      10.992208      -1.391403      19.680761     -7.8785
    -5       8.243207      -1.910403      16.177761    -11.0315
    -5      13.058208       2.653597      22.487761    -11.9965
    -5      10.737916       4.601685      16.974758    -15.5476
    -5       9.695208      -4.267403      22.787762     -3.9330
    -5      11.218207       3.065597      24.340761     -6.1605
    -5       9.464208      -1.857403      15.760761    -10.7725
    -5       7.073115       1.332930      27.047424    -21.6756
    -5       9.457208      -6.226403      22.695761     -3.1010
    -5       6.510207      -6.286403      27.796761     -2.3360
    -6      13.844208       2.268597      18.188761      8.9195
    -6       6.918899       3.414874      23.202747     17.8740
    -6       9.092207       3.863597      21.789761     13.8830
    -6      12.058208       1.930597      15.125761      7.5900
    -6       4.378207      -5.760403      23.175762      2.8900
    -6      11.517207      -6.178403      27.334761      2.8105
    -6       5.741207      -3.134403      23.243761      3.0795
    -6      10.618207      -3.220403      26.702761      2.7550
    -6      11.844208      -3.223403      22.165762      1.2290
    -6       9.503207      -9.856403      26.485762      2.6730
    -6       5.898208      -9.718403      24.360762      2.6760
    -7      11.400208      -1.632403      19.977760     -2.4535
    -7      12.345207       2.856597      23.499762     -2.3155
    -7      13.985208       2.004597      17.850761     -1.6430
    -7      12.298207       3.950597      16.051762     -1.5680
    -7      12.528208       5.522597      20.368761     -1.5720
    -7       8.755207       4.030597      21.485762     -2.6735
    -7      12.332208      -0.719403      18.984760     -2.4610
    -7       7.815207       3.666597      17.627762     -1.6630
    -7       7.760207       2.018597      16.039761     -1.6235
    -7       9.845207      -4.430403      22.443762     -2.4570
    -7       7.562207      -0.089403      20.833761     -2.9090
    -7      11.572207       0.608597      15.086761     -1.4910
    -7      11.426208      -0.276403      26.192760     -1.8510
    -7      10.212208      -2.510403      26.955761     -2.6005
    -7       8.726208       3.936597      25.653761     -1.5415
    -7       5.223207       0.984597      24.850761     -1.7925
    -7       8.196207       1.069597      27.813761     -1.6410
    -7       6.067207      -2.551403      22.987761     -2.6175
    -7      11.986208      -6.277403      27.248760     -0.9880
    -7       9.642207     -10.171403      26.587761     -0.9675
    -7       6.334208      -5.204403      27.936762     -2.0495
    -7       5.770207     -10.044403      24.258760     -0.9670
    -7       3.929207      -5.929403      23.196762     -0.9945
    -8      10.576207       2.097597      19.248760      5.1515
    -8       9.239207      -0.137403      23.809761      6.6100
    -8       7.959208      -6.202403      25.216761      7.1520
    -8       8.029207      -1.771403      25.071762      5.0275

$$$$
W_Forsythoside_E_D
  xed2sdf_05210316543D
 
 62 64  0  0  1  0  0  0  0  0999 V2000
    9.6688   -2.3805   23.4812 O   0  0  0  0  0  0  0  0  0  0  0  0
    9.8928   -0.0545   20.7592 O   0  0  0  0  0  0  0  0  0  0  0  0
   11.7828    0.5475   19.3682 O   0  0  0  0  0  0  0  0  0  0  0  0
    8.1188    1.0005   23.2262 O   0  0  0  0  0  0  0  0  0  0  0  0
    9.0688   -4.2935   24.8112 O   0  0  0  0  0  0  0  0  0  0  0  0
    7.0478    0.0235   25.7012 O   0  0  0  0  0  0  0  0  0  0  0  0
    6.9248   -2.8575   25.9332 O   0  0  0  0  0  0  0  0  0  0  0  0
   10.7478   -1.5255   17.4942 O   0  0  0  0  0  0  0  0  0  0  0  0
    8.7558    0.1505   16.5162 O   0  0  0  0  0  0  0  0  0  0  0  0
    9.9308    2.7355   17.0092 O   0  0  0  0  0  0  0  0  0  0  0  0
   11.5028   -4.6945   20.1762 O   0  0  0  0  0  0  0  0  0  0  0  0
   11.5848   -7.1705   18.9782 O   0  0  0  0  0  0  0  0  0  0  0  0
    9.2028   -1.1795   22.8312 C   0  0  0  0  0  0  0  0  0  0  0  0
    8.6328   -0.1795   23.8622 C   0  0  0  0  0  0  0  0  0  0  0  0
    7.5088   -0.8585   24.6672 C   0  0  0  0  0  0  0  0  0  0  0  0
    8.0088   -2.1755   25.2872 C   0  0  0  0  0  0  0  0  0  0  0  0
    9.9428   -0.7905   18.4272 C   0  0  0  0  0  0  0  0  0  0  0  0
   10.7688   -0.4325   19.6802 C   0  0  0  0  0  0  0  0  0  0  0  0
    9.3828    0.4835   17.7632 C   0  0  0  0  0  0  0  0  0  0  0  0
   10.4958    1.5235   17.5302 C   0  0  0  0  0  0  0  0  0  0  0  0
    8.6188   -3.0735   24.1942 C   0  0  0  0  0  0  0  0  0  0  0  0
   10.3528   -0.5345   22.0372 C   0  0  0  0  0  0  0  0  0  0  0  0
   11.2318    1.7795   18.8602 C   0  0  0  0  0  0  0  0  0  0  0  0
   12.3608    2.7995   18.6422 C   0  0  0  0  0  0  0  0  0  0  0  0
    8.4108   -5.4495   24.2712 C   0  0  0  0  0  0  0  0  0  0  0  0
    9.4078   -6.6165   24.1542 C   0  0  0  0  0  0  0  0  0  0  0  0
   10.0018   -6.7595   22.7642 C   0  0  0  0  0  0  0  0  0  0  0  0
   10.4918   -5.6555   22.0982 C   0  0  0  0  0  0  0  0  0  0  0  0
   10.0508   -7.9965   22.1622 C   0  0  0  0  0  0  0  0  0  0  0  0
   11.0228   -5.7865   20.8342 C   0  0  0  0  0  0  0  0  0  0  0  0
   10.5798   -8.1355   20.8982 C   0  0  0  0  0  0  0  0  0  0  0  0
   11.0658   -7.0335   20.2302 C   0  0  0  0  0  0  0  0  0  0  0  0
    8.4668   -1.4245   22.1992 H   0  0  0  0  0  0  0  0  0  0  0  0
    9.3768    0.0955   24.4712 H   0  0  0  0  0  0  0  0  0  0  0  0
    6.7518   -1.0645   24.0472 H   0  0  0  0  0  0  0  0  0  0  0  0
    8.7128   -1.9675   25.9662 H   0  0  0  0  0  0  0  0  0  0  0  0
    9.1728   -1.3635   18.7092 H   0  0  0  0  0  0  0  0  0  0  0  0
   11.2708   -1.2375   19.9962 H   0  0  0  0  0  0  0  0  0  0  0  0
    8.7058    0.8845   18.3802 H   0  0  0  0  0  0  0  0  0  0  0  0
   11.1528    1.1775   16.8592 H   0  0  0  0  0  0  0  0  0  0  0  0
    7.9318   -3.3035   23.5042 H   0  0  0  0  0  0  0  0  0  0  0  0
   10.5798    2.1425   19.5252 H   0  0  0  0  0  0  0  0  0  0  0  0
    7.6038    0.7755   22.3922 H   0  0  0  0  0  0  0  0  0  0  0  0
    6.1098   -0.2035   25.9852 H   0  0  0  0  0  0  0  0  0  0  0  0
    6.8298   -2.5695   26.8922 H   0  0  0  0  0  0  0  0  0  0  0  0
   10.2358   -2.2925   17.0922 H   0  0  0  0  0  0  0  0  0  0  0  0
    8.7168    0.9455   15.9022 H   0  0  0  0  0  0  0  0  0  0  0  0
    9.4838    2.5795   16.1212 H   0  0  0  0  0  0  0  0  0  0  0  0
   11.0478   -4.5705   19.2872 H   0  0  0  0  0  0  0  0  0  0  0  0
   10.8648   -7.1535   18.2762 H   0  0  0  0  0  0  0  0  0  0  0  0
   10.7268    0.2305   22.5602 H   0  0  0  0  0  0  0  0  0  0  0  0
   11.0578   -1.2265   21.8812 H   0  0  0  0  0  0  0  0  0  0  0  0
   12.3698    3.0745   17.6802 H   0  0  0  0  0  0  0  0  0  0  0  0
   12.2078    3.6015   19.2202 H   0  0  0  0  0  0  0  0  0  0  0  0
   13.2388    2.3875   18.8842 H   0  0  0  0  0  0  0  0  0  0  0  0
    8.0448   -5.2315   23.3672 H   0  0  0  0  0  0  0  0  0  0  0  0
    7.6648   -5.7165   24.8812 H   0  0  0  0  0  0  0  0  0  0  0  0
    8.9338   -7.4655   24.3882 H   0  0  0  0  0  0  0  0  0  0  0  0
   10.1628   -6.4245   24.7802 H   0  0  0  0  0  0  0  0  0  0  0  0
   10.4608   -4.7565   22.5352 H   0  0  0  0  0  0  0  0  0  0  0  0
    9.6988   -8.7995   22.6442 H   0  0  0  0  0  0  0  0  0  0  0  0
   10.6128   -9.0375   20.4662 H   0  0  0  0  0  0  0  0  0  0  0  0
  1 13  1  0
  1 21  1  0
  2 22  1  0
  3 18  1  0
  3 23  1  0
  5 25  1  0
 11 30  1  0
 12 32  1  0
 13 14  1  0
 13 22  1  0
 14  4  1  0
 14 15  1  0
 15  6  1  0
 15 16  1  0
 16  7  1  0
 16 21  1  0
 17  8  1  0
 17 18  1  0
 17 19  1  0
 18  2  1  0
 19  9  1  0
 19 20  1  0
 20 10  1  0
 20 23  1  0
 21  5  1  0
 23 24  1  0
 25 26  1  0
 26 27  1  0
 27 28  2  0
 27 29  1  0
 28 30  1  0
 29 31  2  0
 30 32  2  0
 31 32  1  0
  4 43  1  0
  6 44  1  0
  7 45  1  0
  8 46  1  0
  9 47  1  0
 10 48  1  0
 11 49  1  0
 12 50  1  0
 13 33  1  0
 14 34  1  0
 15 35  1  0
 16 36  1  0
 17 37  1  0
 18 38  1  0
 19 39  1  0
 20 40  1  0
 21 41  1  0
 22 51  1  0
 22 52  1  0
 23 42  1  0
 24 53  1  0
 24 54  1  0
 24 55  1  0
 25 56  1  0
 25 57  1  0
 26 58  1  0
 26 59  1  0
 28 60  1  0
 29 61  1  0
 31 62  1  0
M  END
>  <BioMolTech Lead Finder dG>
-6.869

>  <BioMolTech Lead Finder VSscore>
-12.584

>  <BioMolTech Lead Finder Rank score>
-9.426

>  <BioMolTech Lead Finder LE>
-0.215

>  <BioMolTech Lead Finder Structure Name>
/var/folders/xd/y7jw_xv579q2qqq7kks92xd80000gn/T/LeadFinder_23742_1/Ligand_1.sdf

>  <BioMolTech Lead Finder SDF id>
0

>  <BioMolTech Lead Finder Pose rank>
0

>  <BioMolTech Lead Finder version>
2001 1, 19 January 2019

>  <PUBCHEM_COMPOUND_CID>
69634125

>  <PUBCHEM_COMPOUND_CANONICALIZED>
1

>  <PUBCHEM_CACTVS_COMPLEXITY>
581

>  <PUBCHEM_CACTVS_HBOND_ACCEPTOR>
12

>  <PUBCHEM_CACTVS_HBOND_DONOR>
8

>  <PUBCHEM_CACTVS_ROTATABLE_BOND>
7

>  <PUBCHEM_CACTVS_SUBSKEYS>
AAADceB4PAAAAAAAAAAAAAAAAAAAAAAAAAA0SIAAAAAAAAABAAAAGgAACAAADBSwmAMyDoAABgCAAiBCAAACAAAgIAAIiAAGiIgZNiKCERKicAElwBEPmAfA4LwOIAABAAAAQABAAAIAAACAAAAAAAAAAA==

>  <PUBCHEM_IUPAC_OPENEYE_NAME>
(2R,3R,4R,5R,6S)-2-[[(2R,3S,4S,5R,6R)-6-[2-(3,4-dihydroxyphenyl)ethoxy]-3,4,5-trihydroxy-tetrahydropyran-2-yl]methoxy]-6-methyl-tetrahydropyran-3,4,5-triol

>  <PUBCHEM_IUPAC_CAS_NAME>
(2R,3R,4R,5R,6S)-2-[[(2R,3S,4S,5R,6R)-6-[2-(3,4-dihydroxyphenyl)ethoxy]-3,4,5-trihydroxy-2-oxanyl]methoxy]-6-methyloxane-3,4,5-triol

>  <PUBCHEM_IUPAC_NAME_MARKUP>
(2<I>R</I>,3<I>R</I>,4<I>R</I>,5<I>R</I>,6<I>S</I>)-2-[[(2<I>R</I>,3<I>S</I>,4<I>S</I>,5<I>R</I>,6<I>R</I>)-6-[2-(3,4-dihydroxyphenyl)ethoxy]-3,4,5-trihydroxyoxan-2-yl]methoxy]-6-methyloxane-3,4,5-tri

>  <PUBCHEM_IUPAC_NAME>
(2R,3R,4R,5R,6S)-2-[[(2R,3S,4S,5R,6R)-6-[2-(3,4-dihydroxyphenyl)ethoxy]-3,4,5-trihydroxyoxan-2-yl]methoxy]-6-methyloxane-3,4,5-triol

>  <PUBCHEM_IUPAC_SYSTEMATIC_NAME>
(2R,3R,4R,5R,6S)-2-[[(2R,3S,4S,5R,6R)-6-[2-[3,4-bis(oxidanyl)phenyl]ethoxy]-3,4,5-tris(oxidanyl)oxan-2-yl]methoxy]-6-methyl-oxane-3,4,5-triol

>  <PUBCHEM_IUPAC_TRADITIONAL_NAME>
(2R,3R,4R,5R,6S)-2-[[(2R,3S,4S,5R,6R)-6-[2-(3,4-dihydroxyphenyl)ethoxy]-3,4,5-trihydroxy-tetrahydropyran-2-yl]methoxy]-6-methyl-tetrahydropyran-3,4,5-triol

>  <PUBCHEM_IUPAC_INCHI>
InChI=1S/C20H30O12/c1-8-13(23)15(25)17(27)20(31-8)30-7-12-14(24)16(26)18(28)19(32-12)29-5-4-9-2-3-10(21)11(22)6-9/h2-3,6,8,12-28H,4-5,7H2,1H3/t8-,12+,13-,14+,15+,16-,17+,18+,19+,20+/m0/s1

>  <PUBCHEM_IUPAC_INCHIKEY>
QIMGUQIHCNDUKU-OJJLXHDHSA-N

>  <PUBCHEM_XLOGP3_AA>
-2.5

>  <PUBCHEM_EXACT_MASS>
462.173726

>  <PUBCHEM_MOLECULAR_FORMULA>
C20H30O12

>  <PUBCHEM_MOLECULAR_WEIGHT>
462.4

>  <PUBCHEM_OPENEYE_CAN_SMILES>
CC1C(C(C(C(O1)OCC2C(C(C(C(O2)OCCC3=CC(=C(C=C3)O)O)O)O)O)O)O)O

>  <PUBCHEM_OPENEYE_ISO_SMILES>
C[C@H]1[C@@H]([C@H]([C@H]([C@@H](O1)OC[C@@H]2[C@H]([C@@H]([C@H]([C@@H](O2)OCCC3=CC(=C(C=C3)O)O)O)O)O)O)O)O

>  <PUBCHEM_CACTVS_TPSA>
199

>  <PUBCHEM_MONOISOTOPIC_WEIGHT>
462.173726

>  <PUBCHEM_TOTAL_CHARGE>
0

>  <PUBCHEM_HEAVY_ATOM_COUNT>
32

>  <PUBCHEM_ATOM_DEF_STEREO_COUNT>
10

>  <PUBCHEM_ATOM_UDEF_STEREO_COUNT>
0

>  <PUBCHEM_BOND_DEF_STEREO_COUNT>
0

>  <PUBCHEM_BOND_UDEF_STEREO_COUNT>
0

>  <PUBCHEM_ISOTOPIC_ATOM_COUNT>
0

>  <PUBCHEM_COMPONENT_COUNT>
1

>  <PUBCHEM_CACTVS_TAUTO_COUNT>
-1

>  <PUBCHEM_COORDINATE_TYPE>
1
5
255

>  <PUBCHEM_BONDANNOTATIONS>
20  10  5
13  22  5
18  2  5
23  24  6
27  28  8
27  29  8
28  30  8
29  31  8
30  32  8
31  32  8
14  4  6
21  5  5
15  6  5
16  7  6
17  8  6
19  9  6

>  <LF dG>
-6.869

>  <LF VSscore>
-12.584

>  <LF Rank Score>
-9.426

>  <LF LE>
-0.215

>  <Preferred Pose_cresset>
true

>  <Favorite_cresset>
false

>  <Protein_cresset>
6Y2F_P

>  <MW_cresset>
462.4

>  <#Atoms_cresset>
32

>  <SlogP_cresset>
-0.4

>  <TPSA_cresset>
198.8

>  <Flexibility_cresset>
15.9

>  <#RB_cresset>
15

>  <Rof5_cresset>
2

>  <Filename_cresset>
Forsythoside E.sdf

>  <Confs_cresset>
0

>  <Poses_cresset>
10

>  <_cresset_fieldpoints>
    -5      11.149830      -3.907483      24.843153     -8.6570
    -5      12.611830      -0.919483      17.541153    -10.4250
    -5       7.503830       2.006517      24.873154    -11.5210
    -5       5.794830      -4.218483      25.487152     -4.4520
    -5       7.537830      -1.163483      16.141153     -3.2625
    -5       9.860830       4.385517      17.853153     -7.0365
    -5      13.616830      -4.801483      20.620153     -7.7330
    -5      13.524830      -6.557483      22.125153     -7.4960
    -5       7.579830      -6.779483      20.926153     -1.1000
    -6       6.432830      -0.461483      21.688152      8.3545
    -6       5.567830      -1.310483      27.324154      8.2595
    -6       8.732830       2.130517      14.639153     11.2870
    -6       9.878830      -3.971483      17.954153     10.5390
    -6       8.013830      -9.696484      23.877153      2.7880
    -6       9.183830     -10.915483      21.265152      2.6120
    -7       7.353830      -0.033483      20.365152     -2.9475
    -7      13.174829       0.982517      21.378153     -2.2255
    -7      12.712830      -3.005483      21.385153     -2.3005
    -7       5.436830      -3.869483      24.230152     -2.1095
    -7       5.997830       1.853517      24.100153     -1.5465
    -7       8.463830       1.874517      20.789152     -3.1825
    -7       7.410830      -5.770483      20.878153     -2.3215
    -7       6.154830      -2.483483      21.896152     -2.0655
    -7      11.446830      -1.752483      25.076153     -2.4655
    -7       4.682830      -2.086483      25.719152     -1.6135
    -7       9.026830       0.461517      27.195152     -1.6170
    -7       7.344830      -0.559483      28.024153     -1.5895
    -7       8.355830      -4.563483      27.336153     -2.0205
    -7      10.557830      -0.889483      15.118153     -1.9740
    -7      12.401830      -3.062483      18.460154     -2.2120
    -7      11.436830       3.648517      15.308153     -1.5595
    -7       8.366830      -2.075483      15.807153     -1.4645
    -7       8.458830       3.652517      18.800152     -1.8210
    -7      12.417830      -5.279483      17.666153     -1.5620
    -7       8.935830      -3.289483      20.472153     -3.5380
    -7      11.488830      -9.405483      17.860153     -1.2570
    -7      13.146830      -0.521483      17.480152     -2.4640
    -7      13.336830      -7.351483      23.086153     -1.8380
    -7      11.814830      -3.186483      23.881153     -2.8650
    -7       9.372829     -11.248483      21.613153     -0.9995
    -7       8.637830     -10.920484      21.343153     -0.9990
    -8      10.192830       0.686517      18.422153      4.8230
    -8       8.253830      -1.442483      24.114153      5.1630
    -8       9.650830      -0.396483      23.079153      4.1300
    -8      11.573830       2.276517      18.222153      4.4565
    -8      10.503830      -6.916483      21.551153      6.9330
    -8      10.973830      -1.059483      21.120153      2.2440
    -8       9.600830      -6.149483      23.196154      5.5820

$$$$
Untitled
  xed2sdf_05210316543D
 
 62 64  0  0  1  0  0  0  0  0999 V2000
   13.4110    3.5849   18.9097 O   0  0  0  0  0  0  0  0  0  0  0  0
   11.7930    1.0899   18.6697 O   0  0  0  0  0  0  0  0  0  0  0  0
   10.8920   -1.0491   19.3647 O   0  0  0  0  0  0  0  0  0  0  0  0
   10.6620    2.8559   21.3207 O   0  0  0  0  0  0  0  0  0  0  0  0
   14.2430    5.6729   18.0517 O   0  0  0  0  0  0  0  0  0  0  0  0
   10.0610    5.5389   20.5027 O   0  0  0  0  0  0  0  0  0  0  0  0
   12.3270    7.0739   19.5647 O   0  0  0  0  0  0  0  0  0  0  0  0
    8.2340    0.1499   18.7457 O   0  0  0  0  0  0  0  0  0  0  0  0
    8.5470   -0.2191   16.0077 O   0  0  0  0  0  0  0  0  0  0  0  0
   10.3740   -2.4491   15.9647 O   0  0  0  0  0  0  0  0  0  0  0  0
   12.6680    8.6639   14.1437 O   0  0  0  0  0  0  0  0  0  0  0  0
   14.1340    7.2299   12.3087 O   0  0  0  0  0  0  0  0  0  0  0  0
   12.7470    2.9189   20.0037 C   0  0  0  0  0  0  0  0  0  0  0  0
   11.3190    3.4749   20.2037 C   0  0  0  0  0  0  0  0  0  0  0  0
   11.3870    4.9959   20.4267 C   0  0  0  0  0  0  0  0  0  0  0  0
   12.1660    5.6749   19.2867 C   0  0  0  0  0  0  0  0  0  0  0  0
    9.4710    0.5409   18.1327 C   0  0  0  0  0  0  0  0  0  0  0  0
   10.6410    0.3529   19.1207 C   0  0  0  0  0  0  0  0  0  0  0  0
    9.7110   -0.2741   16.8457 C   0  0  0  0  0  0  0  0  0  0  0  0
   10.0540   -1.7411   17.1727 C   0  0  0  0  0  0  0  0  0  0  0  0
   13.5460    5.0089   19.1217 C   0  0  0  0  0  0  0  0  0  0  0  0
   12.7020    1.4019   19.7427 C   0  0  0  0  0  0  0  0  0  0  0  0
   11.2330   -1.7721   18.1647 C   0  0  0  0  0  0  0  0  0  0  0  0
   11.5760   -3.2281   18.5197 C   0  0  0  0  0  0  0  0  0  0  0  0
   15.5050    6.2099   18.4767 C   0  0  0  0  0  0  0  0  0  0  0  0
   15.8270    7.4889   17.6847 C   0  0  0  0  0  0  0  0  0  0  0  0
   15.3700    7.4299   16.2387 C   0  0  0  0  0  0  0  0  0  0  0  0
   14.2210    8.0829   15.8427 C   0  0  0  0  0  0  0  0  0  0  0  0
   16.1030    6.7179   15.3147 C   0  0  0  0  0  0  0  0  0  0  0  0
   13.8050    8.0209   14.5317 C   0  0  0  0  0  0  0  0  0  0  0  0
   15.6920    6.6519   14.0017 C   0  0  0  0  0  0  0  0  0  0  0  0
   14.5430    7.2999   13.6067 C   0  0  0  0  0  0  0  0  0  0  0  0
   13.2650    3.0899   20.8427 H   0  0  0  0  0  0  0  0  0  0  0  0
   10.7890    3.2689   19.3797 H   0  0  0  0  0  0  0  0  0  0  0  0
   11.8650    5.1709   21.2877 H   0  0  0  0  0  0  0  0  0  0  0  0
   11.6510    5.5709   18.4357 H   0  0  0  0  0  0  0  0  0  0  0  0
    9.4160    1.5089   17.8867 H   0  0  0  0  0  0  0  0  0  0  0  0
   10.3960    0.7349   20.0117 H   0  0  0  0  0  0  0  0  0  0  0  0
   10.4890    0.1279   16.3627 H   0  0  0  0  0  0  0  0  0  0  0  0
    9.2660   -2.1911   17.5927 H   0  0  0  0  0  0  0  0  0  0  0  0
   14.0850    5.1069   19.9577 H   0  0  0  0  0  0  0  0  0  0  0  0
   12.0270   -1.3391   17.7377 H   0  0  0  0  0  0  0  0  0  0  0  0
    9.6780    2.7369   21.1507 H   0  0  0  0  0  0  0  0  0  0  0  0
    9.8960    6.2059   19.7677 H   0  0  0  0  0  0  0  0  0  0  0  0
   11.9780    7.6399   18.8097 H   0  0  0  0  0  0  0  0  0  0  0  0
    7.9290    0.8299   19.4207 H   0  0  0  0  0  0  0  0  0  0  0  0
    8.6180    0.5229   15.3317 H   0  0  0  0  0  0  0  0  0  0  0  0
    9.7520   -3.2261   15.8197 H   0  0  0  0  0  0  0  0  0  0  0  0
   11.8700    8.0519   14.1727 H   0  0  0  0  0  0  0  0  0  0  0  0
   14.4550    8.0229   11.7787 H   0  0  0  0  0  0  0  0  0  0  0  0
   13.6180    1.0819   19.4997 H   0  0  0  0  0  0  0  0  0  0  0  0
   12.3830    0.9459   20.5727 H   0  0  0  0  0  0  0  0  0  0  0  0
   10.9560   -3.8381   18.0257 H   0  0  0  0  0  0  0  0  0  0  0  0
   12.5210   -3.4251   18.2587 H   0  0  0  0  0  0  0  0  0  0  0  0
   11.4740   -3.3671   19.5047 H   0  0  0  0  0  0  0  0  0  0  0  0
   16.2230    5.5319   18.3217 H   0  0  0  0  0  0  0  0  0  0  0  0
   15.4560    6.4309   19.4507 H   0  0  0  0  0  0  0  0  0  0  0  0
   16.8160    7.6339   17.7027 H   0  0  0  0  0  0  0  0  0  0  0  0
   15.3320    8.2399   18.1207 H   0  0  0  0  0  0  0  0  0  0  0  0
   13.6890    8.6039   16.5107 H   0  0  0  0  0  0  0  0  0  0  0  0
   16.9380    6.2469   15.5987 H   0  0  0  0  0  0  0  0  0  0  0  0
   16.2280    6.1329   13.3357 H   0  0  0  0  0  0  0  0  0  0  0  0
  1 13  1  0
  1 21  1  0
  2 22  1  0
  3 18  1  0
  3 23  1  0
  5 25  1  0
 11 30  1  0
 12 32  1  0
 13 14  1  0
 13 22  1  0
 14  4  1  0
 14 15  1  0
 15  6  1  0
 15 16  1  0
 16  7  1  0
 16 21  1  0
 17  8  1  0
 17 18  1  0
 17 19  1  0
 18  2  1  0
 19  9  1  0
 19 20  1  0
 20 10  1  0
 20 23  1  0
 21  5  1  0
 23 24  1  0
 25 26  1  0
 26 27  1  0
 27 28  2  0
 27 29  1  0
 28 30  1  0
 29 31  2  0
 30 32  2  0
 31 32  1  0
  4 43  1  0
  6 44  1  0
  7 45  1  0
  8 46  1  0
  9 47  1  0
 10 48  1  0
 11 49  1  0
 12 50  1  0
 13 33  1  0
 14 34  1  0
 15 35  1  0
 16 36  1  0
 17 37  1  0
 18 38  1  0
 19 39  1  0
 20 40  1  0
 21 41  1  0
 22 51  1  0
 22 52  1  0
 23 42  1  0
 24 53  1  0
 24 54  1  0
 24 55  1  0
 25 56  1  0
 25 57  1  0
 26 58  1  0
 26 59  1  0
 28 60  1  0
 29 61  1  0
 31 62  1  0
M  END
>  <BioMolTech Lead Finder dG>
-5.812

>  <BioMolTech Lead Finder VSscore>
-12.952

>  <BioMolTech Lead Finder Rank score>
-10.232

>  <BioMolTech Lead Finder LE>
-0.182

>  <BioMolTech Lead Finder Structure Name>
/var/folders/xd/y7jw_xv579q2qqq7kks92xd80000gn/T/LeadFinder_22003_1/Ligand_1.sdf

>  <BioMolTech Lead Finder SDF id>
0

>  <BioMolTech Lead Finder Pose rank>
0

>  <BioMolTech Lead Finder version>
2001 1, 19 January 2019

>  <PUBCHEM_COMPOUND_CID>
69634125

>  <PUBCHEM_COMPOUND_CANONICALIZED>
1

>  <PUBCHEM_CACTVS_COMPLEXITY>
581

>  <PUBCHEM_CACTVS_HBOND_ACCEPTOR>
12

>  <PUBCHEM_CACTVS_HBOND_DONOR>
8

>  <PUBCHEM_CACTVS_ROTATABLE_BOND>
7

>  <PUBCHEM_CACTVS_SUBSKEYS>
AAADceB4PAAAAAAAAAAAAAAAAAAAAAAAAAA0SIAAAAAAAAABAAAAGgAACAAADBSwmAMyDoAABgCAAiBCAAACAAAgIAAIiAAGiIgZNiKCERKicAElwBEPmAfA4LwOIAABAAAAQABAAAIAAACAAAAAAAAAAA==

>  <PUBCHEM_IUPAC_OPENEYE_NAME>
(2R,3R,4R,5R,6S)-2-[[(2R,3S,4S,5R,6R)-6-[2-(3,4-dihydroxyphenyl)ethoxy]-3,4,5-trihydroxy-tetrahydropyran-2-yl]methoxy]-6-methyl-tetrahydropyran-3,4,5-triol

>  <PUBCHEM_IUPAC_CAS_NAME>
(2R,3R,4R,5R,6S)-2-[[(2R,3S,4S,5R,6R)-6-[2-(3,4-dihydroxyphenyl)ethoxy]-3,4,5-trihydroxy-2-oxanyl]methoxy]-6-methyloxane-3,4,5-triol

>  <PUBCHEM_IUPAC_NAME_MARKUP>
(2<I>R</I>,3<I>R</I>,4<I>R</I>,5<I>R</I>,6<I>S</I>)-2-[[(2<I>R</I>,3<I>S</I>,4<I>S</I>,5<I>R</I>,6<I>R</I>)-6-[2-(3,4-dihydroxyphenyl)ethoxy]-3,4,5-trihydroxyoxan-2-yl]methoxy]-6-methyloxane-3,4,5-tri

>  <PUBCHEM_IUPAC_NAME>
(2R,3R,4R,5R,6S)-2-[[(2R,3S,4S,5R,6R)-6-[2-(3,4-dihydroxyphenyl)ethoxy]-3,4,5-trihydroxyoxan-2-yl]methoxy]-6-methyloxane-3,4,5-triol

>  <PUBCHEM_IUPAC_SYSTEMATIC_NAME>
(2R,3R,4R,5R,6S)-2-[[(2R,3S,4S,5R,6R)-6-[2-[3,4-bis(oxidanyl)phenyl]ethoxy]-3,4,5-tris(oxidanyl)oxan-2-yl]methoxy]-6-methyl-oxane-3,4,5-triol

>  <PUBCHEM_IUPAC_TRADITIONAL_NAME>
(2R,3R,4R,5R,6S)-2-[[(2R,3S,4S,5R,6R)-6-[2-(3,4-dihydroxyphenyl)ethoxy]-3,4,5-trihydroxy-tetrahydropyran-2-yl]methoxy]-6-methyl-tetrahydropyran-3,4,5-triol

>  <PUBCHEM_IUPAC_INCHI>
InChI=1S/C20H30O12/c1-8-13(23)15(25)17(27)20(31-8)30-7-12-14(24)16(26)18(28)19(32-12)29-5-4-9-2-3-10(21)11(22)6-9/h2-3,6,8,12-28H,4-5,7H2,1H3/t8-,12+,13-,14+,15+,16-,17+,18+,19+,20+/m0/s1

>  <PUBCHEM_IUPAC_INCHIKEY>
QIMGUQIHCNDUKU-OJJLXHDHSA-N

>  <PUBCHEM_XLOGP3_AA>
-2.5

>  <PUBCHEM_EXACT_MASS>
462.173726

>  <PUBCHEM_MOLECULAR_FORMULA>
C20H30O12

>  <PUBCHEM_MOLECULAR_WEIGHT>
462.4

>  <PUBCHEM_OPENEYE_CAN_SMILES>
CC1C(C(C(C(O1)OCC2C(C(C(C(O2)OCCC3=CC(=C(C=C3)O)O)O)O)O)O)O)O

>  <PUBCHEM_OPENEYE_ISO_SMILES>
C[C@H]1[C@@H]([C@H]([C@H]([C@@H](O1)OC[C@@H]2[C@H]([C@@H]([C@H]([C@@H](O2)OCCC3=CC(=C(C=C3)O)O)O)O)O)O)O)O

>  <PUBCHEM_CACTVS_TPSA>
199

>  <PUBCHEM_MONOISOTOPIC_WEIGHT>
462.173726

>  <PUBCHEM_TOTAL_CHARGE>
0

>  <PUBCHEM_HEAVY_ATOM_COUNT>
32

>  <PUBCHEM_ATOM_DEF_STEREO_COUNT>
10

>  <PUBCHEM_ATOM_UDEF_STEREO_COUNT>
0

>  <PUBCHEM_BOND_DEF_STEREO_COUNT>
0

>  <PUBCHEM_BOND_UDEF_STEREO_COUNT>
0

>  <PUBCHEM_ISOTOPIC_ATOM_COUNT>
0

>  <PUBCHEM_COMPONENT_COUNT>
1

>  <PUBCHEM_CACTVS_TAUTO_COUNT>
-1

>  <PUBCHEM_COORDINATE_TYPE>
1
5
255

>  <PUBCHEM_BONDANNOTATIONS>
20  10  5
13  22  5
18  2  5
23  24  6
27  28  8
27  29  8
28  30  8
29  31  8
30  32  8
31  32  8
14  4  6
21  5  5
15  6  5
16  7  6
17  8  6
19  9  6

>  <LF dG>
-5.812

>  <LF VSscore>
-12.952

>  <LF Rank Score>
-10.232

>  <LF LE>
-0.182

>  <Preferred Pose_cresset>
true

>  <Favorite_cresset>
false

>  <Protein_cresset>
6Y2F_P

>  <MW_cresset>
462.4

>  <#Atoms_cresset>
32

>  <SlogP_cresset>
-0.4

>  <TPSA_cresset>
198.8

>  <Flexibility_cresset>
15.9

>  <#RB_cresset>
15

>  <Rof5_cresset>
2

>  <Filename_cresset>
Forsythoside E.sdf

>  <Confs_cresset>
0

>  <Poses_cresset>
10

>  <_cresset_fieldpoints>
    -5      14.084027       4.635891      16.344652    -10.5740
    -5       7.072027      -0.635109      17.287653    -12.8335
    -5      11.165027       3.042891      23.078653     -7.0080
    -5       9.394027       5.592891      22.252653     -6.7230
    -5      12.830027       7.799891      21.190653     -5.5240
    -5      11.744027      -2.046109      14.857653     -9.4650
    -5      16.448027       9.860891      14.602653     -3.9215
    -5      13.029027      10.652891      13.710653     -3.6215
    -5      13.382027       5.330891      11.892653     -4.5680
    -6      10.169027       7.372890      18.306652     11.7855
    -6       8.362027       2.436891      20.026653     12.2595
    -6       9.076027       2.278891      15.350653      6.0325
    -6       9.025027      -4.703109      16.462652      3.8250
    -6      15.198027       9.077890      10.576653      4.2350
    -6      15.771027       4.837891      21.407654      3.5065
    -6      17.959026       6.882891      20.039654      2.8755
    -6      18.572027       5.931890      17.365652      2.8620
    -7      12.138027      -1.519109      21.389652     -2.2000
    -7       8.183027       3.231891      19.517653     -2.2650
    -7      11.807027       1.717891      23.012653     -1.9005
    -7       9.111027       4.427891      22.587652     -1.5280
    -7       8.491027       0.905891      21.628653     -1.7090
    -7      10.743027       0.902891      22.561653     -2.0590
    -7      10.579027       8.143890      20.815653     -1.6345
    -7      11.686027       2.862891      16.938652     -3.5795
    -7      13.973027       8.425891      20.382652     -2.3060
    -7       6.687027      -1.220109      17.491653     -1.7840
    -7       8.879026      -1.752109      14.099653     -1.6270
    -7      12.692027      -2.577109      15.345653     -1.7670
    -7       8.666027      -4.739109      17.214653     -1.4215
    -7      12.007027       8.441891      11.725653     -1.5225
    -7      11.155027       7.320890      16.595654     -2.1890
    -7      15.746027       6.400891      10.589653     -1.2535
    -7      14.161027       4.923891      22.485653     -1.9460
    -7      12.496027      -1.431109      15.101653     -1.7905
    -7       8.639027      -1.929109      20.208652     -2.5140
    -7      18.693027       5.738891      17.294653     -1.7295
    -7      16.770027      10.025890      14.493652     -1.8240
    -7      13.197027       4.797891      16.005653     -3.3010
    -8      12.207027       4.451891      19.957653      5.1520
    -8      10.968027      -2.593109      17.955652      4.4780
    -8      10.314027      -0.602109      17.661654      4.8175
    -8      12.299026       2.418891      20.270653      3.9340
    -8      14.997026       7.353891      14.968653      6.9170

$$$$
W_Lopinavir_D
  xed2sdf_05210316543D
 
 94 97  0  0  1  0  0  0  0  0999 V2000
   13.0029   -0.0689   19.7441 O   0  0  0  0  0  0  0  0  0  0  0  0
    8.9399   -2.0779   22.0331 O   0  0  0  0  0  0  0  0  0  0  0  0
    8.9169   -0.4679   26.8921 O   0  0  0  0  0  0  0  0  0  0  0  0
   15.1879    1.7351   22.4791 O   0  0  0  0  0  0  0  0  0  0  0  0
   17.9879    1.8321   21.1501 O   0  0  0  0  0  0  0  0  0  0  0  0
    8.2809   -0.2379   24.7341 N   0  0  0  0  0  0  0  0  0  0  0  0
   10.3019   -0.3559   22.6421 N   0  0  0  0  0  0  0  0  0  0  0  0
   14.9479    1.5441   20.2191 N   0  0  0  0  0  0  0  0  0  0  0  0
    7.7779    1.3781   26.3681 N   0  0  0  0  0  0  0  0  0  0  0  0
   10.6529   -0.0129   21.2561 C   0  0  0  0  0  0  0  0  0  0  0  0
    9.0409   -1.4459   24.3471 C   0  0  0  0  0  0  0  0  0  0  0  0
   11.6019    1.2021   21.2851 C   0  0  0  0  0  0  0  0  0  0  0  0
   12.4909    1.2421   20.0251 C   0  0  0  0  0  0  0  0  0  0  0  0
    8.5599   -2.8809   24.6851 C   0  0  0  0  0  0  0  0  0  0  0  0
   13.6539    2.2411   20.1991 C   0  0  0  0  0  0  0  0  0  0  0  0
    9.3689    0.3101   20.4581 C   0  0  0  0  0  0  0  0  0  0  0  0
    9.4219   -1.3429   22.8841 C   0  0  0  0  0  0  0  0  0  0  0  0
    7.5519    0.5241   23.7031 C   0  0  0  0  0  0  0  0  0  0  0  0
    6.4509    1.3991   24.3091 C   0  0  0  0  0  0  0  0  0  0  0  0
   13.6659    3.2591   19.0371 C   0  0  0  0  0  0  0  0  0  0  0  0
    8.3429    0.1961   26.0221 C   0  0  0  0  0  0  0  0  0  0  0  0
    7.1279   -2.9479   25.2601 C   0  0  0  0  0  0  0  0  0  0  0  0
    9.5559   -3.5839   25.6231 C   0  0  0  0  0  0  0  0  0  0  0  0
    7.1209    2.2541   25.3861 C   0  0  0  0  0  0  0  0  0  0  0  0
    9.4199   -0.0669   18.9851 C   0  0  0  0  0  0  0  0  0  0  0  0
   12.9129    4.5511   19.3191 C   0  0  0  0  0  0  0  0  0  0  0  0
   15.6089    1.4041   21.3791 C   0  0  0  0  0  0  0  0  0  0  0  0
    9.2489    0.8981   18.0161 C   0  0  0  0  0  0  0  0  0  0  0  0
    9.6359   -1.3749   18.6091 C   0  0  0  0  0  0  0  0  0  0  0  0
   13.5869    5.6611   19.7791 C   0  0  0  0  0  0  0  0  0  0  0  0
   11.5519    4.6201   19.1171 C   0  0  0  0  0  0  0  0  0  0  0  0
   16.9789    0.8031   21.1831 C   0  0  0  0  0  0  0  0  0  0  0  0
    9.2939    0.5581   16.6831 C   0  0  0  0  0  0  0  0  0  0  0  0
    9.6819   -1.7159   17.2771 C   0  0  0  0  0  0  0  0  0  0  0  0
    9.5109   -0.7489   16.3131 C   0  0  0  0  0  0  0  0  0  0  0  0
   12.9069    6.8291   20.0391 C   0  0  0  0  0  0  0  0  0  0  0  0
   10.8689    5.7871   19.3761 C   0  0  0  0  0  0  0  0  0  0  0  0
   11.5469    6.8921   19.8381 C   0  0  0  0  0  0  0  0  0  0  0  0
   18.7599    1.8821   20.0571 C   0  0  0  0  0  0  0  0  0  0  0  0
   18.4439    2.7531   19.0211 C   0  0  0  0  0  0  0  0  0  0  0  0
   19.8779    1.0631   19.9361 C   0  0  0  0  0  0  0  0  0  0  0  0
   19.2399    2.8111   17.9021 C   0  0  0  0  0  0  0  0  0  0  0  0
   20.6639    1.1371   18.8101 C   0  0  0  0  0  0  0  0  0  0  0  0
   17.2449    3.6891   19.0231 C   0  0  0  0  0  0  0  0  0  0  0  0
   20.3179    0.0571   20.9891 C   0  0  0  0  0  0  0  0  0  0  0  0
   20.3499    2.0081   17.7941 C   0  0  0  0  0  0  0  0  0  0  0  0
   11.1099   -0.7819   20.8081 H   0  0  0  0  0  0  0  0  0  0  0  0
    9.8019   -1.3919   24.9931 H   0  0  0  0  0  0  0  0  0  0  0  0
   11.9309    1.5491   19.2551 H   0  0  0  0  0  0  0  0  0  0  0  0
   13.5159    2.7141   21.0691 H   0  0  0  0  0  0  0  0  0  0  0  0
   13.4229   -0.1109   18.8311 H   0  0  0  0  0  0  0  0  0  0  0  0
   10.6689    0.0921   23.3041 H   0  0  0  0  0  0  0  0  0  0  0  0
   15.2979    1.2541   19.4651 H   0  0  0  0  0  0  0  0  0  0  0  0
    7.8289    1.6421   27.2071 H   0  0  0  0  0  0  0  0  0  0  0  0
   12.1829    1.1451   22.0971 H   0  0  0  0  0  0  0  0  0  0  0  0
   11.0489    2.0351   21.3101 H   0  0  0  0  0  0  0  0  0  0  0  0
    8.5259   -3.3679   23.8111 H   0  0  0  0  0  0  0  0  0  0  0  0
    9.1999    1.2941   20.5241 H   0  0  0  0  0  0  0  0  0  0  0  0
    8.6399   -0.2409   20.8621 H   0  0  0  0  0  0  0  0  0  0  0  0
    7.1389   -0.1179   23.0571 H   0  0  0  0  0  0  0  0  0  0  0  0
    8.2049    1.1251   23.2431 H   0  0  0  0  0  0  0  0  0  0  0  0
    5.7359    0.8281   24.7121 H   0  0  0  0  0  0  0  0  0  0  0  0
    6.0179    1.9711   23.6121 H   0  0  0  0  0  0  0  0  0  0  0  0
   13.2549    2.8241   18.2351 H   0  0  0  0  0  0  0  0  0  0  0  0
   14.6219    3.5151   18.8941 H   0  0  0  0  0  0  0  0  0  0  0  0
    7.1499   -3.4389   26.1301 H   0  0  0  0  0  0  0  0  0  0  0  0
    6.7789   -2.0219   25.4031 H   0  0  0  0  0  0  0  0  0  0  0  0
    6.5299   -3.4259   24.6171 H   0  0  0  0  0  0  0  0  0  0  0  0
    9.0609   -3.9389   26.4161 H   0  0  0  0  0  0  0  0  0  0  0  0
   10.0019   -4.3369   25.1391 H   0  0  0  0  0  0  0  0  0  0  0  0
   10.2519   -2.9319   25.9241 H   0  0  0  0  0  0  0  0  0  0  0  0
    7.8009    2.8541   24.9641 H   0  0  0  0  0  0  0  0  0  0  0  0
    6.4289    2.8101   25.8471 H   0  0  0  0  0  0  0  0  0  0  0  0
    9.0909    1.8491   18.2821 H   0  0  0  0  0  0  0  0  0  0  0  0
    9.7589   -2.0789   19.3081 H   0  0  0  0  0  0  0  0  0  0  0  0
   14.5749    5.6181   19.9261 H   0  0  0  0  0  0  0  0  0  0  0  0
   11.0569    3.8181   18.7811 H   0  0  0  0  0  0  0  0  0  0  0  0
   17.1749    0.1741   21.9351 H   0  0  0  0  0  0  0  0  0  0  0  0
   16.9919    0.3131   20.3121 H   0  0  0  0  0  0  0  0  0  0  0  0
    9.1689    1.2621   15.9831 H   0  0  0  0  0  0  0  0  0  0  0  0
    9.8399   -2.6659   17.0091 H   0  0  0  0  0  0  0  0  0  0  0  0
    9.5439   -0.9959   15.3441 H   0  0  0  0  0  0  0  0  0  0  0  0
   13.3999    7.6321   20.3741 H   0  0  0  0  0  0  0  0  0  0  0  0
    9.8809    5.8321   19.2291 H   0  0  0  0  0  0  0  0  0  0  0  0
   11.0519    7.7401   20.0261 H   0  0  0  0  0  0  0  0  0  0  0  0
   19.0089    3.4421   17.1611 H   0  0  0  0  0  0  0  0  0  0  0  0
   21.4699    0.5511   18.7291 H   0  0  0  0  0  0  0  0  0  0  0  0
   17.2389    4.2121   18.1701 H   0  0  0  0  0  0  0  0  0  0  0  0
   16.4019    3.1571   19.0981 H   0  0  0  0  0  0  0  0  0  0  0  0
   17.3069    4.3141   19.8011 H   0  0  0  0  0  0  0  0  0  0  0  0
   21.1459   -0.4059   20.6711 H   0  0  0  0  0  0  0  0  0  0  0  0
   20.5059    0.5301   21.8501 H   0  0  0  0  0  0  0  0  0  0  0  0
   19.5919   -0.6139   21.1381 H   0  0  0  0  0  0  0  0  0  0  0  0
   20.9269    2.0581   16.9791 H   0  0  0  0  0  0  0  0  0  0  0  0
  2 17  2  0
  3 21  2  0
  4 27  2  0
  5 32  1  0
  5 39  1  0
  6 11  1  0
  6 18  1  0
  6 21  1  0
  7 17  1  0
  8 27  1  0
  9 21  1  0
  9 24  1  0
 10  7  1  0
 10 12  1  0
 10 16  1  0
 11 14  1  0
 11 17  1  0
 12 13  1  0
 13  1  1  0
 13 15  1  0
 14 22  1  0
 14 23  1  0
 15  8  1  0
 15 20  1  0
 16 25  1  0
 18 19  1  0
 19 24  1  0
 20 26  1  0
 25 28  2  0
 25 29  1  0
 26 30  2  0
 26 31  1  0
 27 32  1  0
 28 33  1  0
 29 34  2  0
 30 36  1  0
 31 37  2  0
 33 35  2  0
 34 35  1  0
 36 38  2  0
 37 38  1  0
 39 40  2  0
 39 41  1  0
 40 42  1  0
 40 44  1  0
 41 43  2  0
 41 45  1  0
 42 46  2  0
 43 46  1  0
  1 51  1  0
  7 52  1  0
  8 53  1  0
  9 54  1  0
 10 47  1  0
 11 48  1  0
 12 55  1  0
 12 56  1  0
 13 49  1  0
 14 57  1  0
 15 50  1  0
 16 58  1  0
 16 59  1  0
 18 60  1  0
 18 61  1  0
 19 62  1  0
 19 63  1  0
 20 64  1  0
 20 65  1  0
 22 66  1  0
 22 67  1  0
 22 68  1  0
 23 69  1  0
 23 70  1  0
 23 71  1  0
 24 72  1  0
 24 73  1  0
 28 74  1  0
 29 75  1  0
 30 76  1  0
 31 77  1  0
 32 78  1  0
 32 79  1  0
 33 80  1  0
 34 81  1  0
 35 82  1  0
 36 83  1  0
 37 84  1  0
 38 85  1  0
 42 86  1  0
 43 87  1  0
 44 88  1  0
 44 89  1  0
 44 90  1  0
 45 91  1  0
 45 92  1  0
 45 93  1  0
 46 94  1  0
M  END
>  <BioMolTech Lead Finder dG>
-8.751

>  <BioMolTech Lead Finder VSscore>
-11.09

>  <BioMolTech Lead Finder Rank score>
-12.381

>  <BioMolTech Lead Finder LE>
-0.19

>  <BioMolTech Lead Finder Structure Name>
/var/folders/xd/y7jw_xv579q2qqq7kks92xd80000gn/T/LeadFinder_23197_1/Ligand_1.sdf

>  <BioMolTech Lead Finder SDF id>
0

>  <BioMolTech Lead Finder Pose rank>
0

>  <BioMolTech Lead Finder version>
2001 1, 19 January 2019

>  <PUBCHEM_COMPOUND_CID>
92727

>  <PUBCHEM_COMPOUND_CANONICALIZED>
1

>  <PUBCHEM_CACTVS_COMPLEXITY>
940

>  <PUBCHEM_CACTVS_HBOND_ACCEPTOR>
5

>  <PUBCHEM_CACTVS_HBOND_DONOR>
4

>  <PUBCHEM_CACTVS_ROTATABLE_BOND>
15

>  <PUBCHEM_CACTVS_SUBSKEYS>
AAADcfB/uAAAAAAAAAAAAAAAAAAAAAAAAAA8YMEAAAAAAAABUAAAHgAQCAAADTzhmAYzBoPABgCIAiFSEAICCAAgIAAIiIHMCIiOdjKE8T+XeCCu1hOYqAeQwPAOAAACAAAIAAAAAAQAABAAAAAAAAAAAA==

>  <PUBCHEM_IUPAC_OPENEYE_NAME>
(2S)-N-[(1S,3S,4S)-1-benzyl-4-[[2-(2,6-dimethylphenoxy)acetyl]amino]-3-hydroxy-5-phenyl-pentyl]-3-methyl-2-(2-oxohexahydropyrimidin-1-yl)butanamide

>  <PUBCHEM_IUPAC_CAS_NAME>
(2S)-N-[(2S,4S,5S)-5-[[2-(2,6-dimethylphenoxy)-1-oxoethyl]amino]-4-hydroxy-1,6-diphenylhexan-2-yl]-3-methyl-2-(2-oxo-1,3-diazinan-1-yl)butanamide

>  <PUBCHEM_IUPAC_NAME_MARKUP>
(2<I>S</I>)-<I>N</I>-[(2<I>S</I>,4<I>S</I>,5<I>S</I>)-5-[[2-(2,6-dimethylphenoxy)acetyl]amino]-4-hydroxy-1,6-diphenylhexan-2-yl]-3-methyl-2-(2-oxo-1,3-diazinan-1-yl)butanamide

>  <PUBCHEM_IUPAC_NAME>
(2S)-N-[(2S,4S,5S)-5-[[2-(2,6-dimethylphenoxy)acetyl]amino]-4-hydroxy-1,6-diphenylhexan-2-yl]-3-methyl-2-(2-oxo-1,3-diazinan-1-yl)butanamide

>  <PUBCHEM_IUPAC_SYSTEMATIC_NAME>
(2S)-N-[(2S,4S,5S)-5-[2-(2,6-dimethylphenoxy)ethanoylamino]-4-oxidanyl-1,6-diphenyl-hexan-2-yl]-3-methyl-2-(2-oxidanylidene-1,3-diazinan-1-yl)butanamide

>  <PUBCHEM_IUPAC_TRADITIONAL_NAME>
(2S)-N-[(1S,3S,4S)-1-benzyl-4-[[2-(2,6-dimethylphenoxy)acetyl]amino]-3-hydroxy-5-phenyl-pentyl]-2-(2-ketohexahydropyrimidin-1-yl)-3-methyl-butyramide

>  <PUBCHEM_IUPAC_INCHI>
InChI=1S/C37H48N4O5/c1-25(2)34(41-20-12-19-38-37(41)45)36(44)39-30(21-28-15-7-5-8-16-28)23-32(42)31(22-29-17-9-6-10-18-29)40-33(43)24-46-35-26(3)13-11-14-27(35)4/h5-11,13-18,25,30-32,34,42H,12,19-24H2

>  <PUBCHEM_IUPAC_INCHIKEY>
KJHKTHWMRKYKJE-SUGCFTRWSA-N

>  <PUBCHEM_XLOGP3_AA>
5.9

>  <PUBCHEM_EXACT_MASS>
628.362471

>  <PUBCHEM_MOLECULAR_FORMULA>
C37H48N4O5

>  <PUBCHEM_MOLECULAR_WEIGHT>
628.8

>  <PUBCHEM_OPENEYE_CAN_SMILES>
CC1=C(C(=CC=C1)C)OCC(=O)NC(CC2=CC=CC=C2)C(CC(CC3=CC=CC=C3)NC(=O)C(C(C)C)N4CCCNC4=O)O

>  <PUBCHEM_OPENEYE_ISO_SMILES>
CC1=C(C(=CC=C1)C)OCC(=O)N[C@@H](CC2=CC=CC=C2)[C@H](C[C@H](CC3=CC=CC=C3)NC(=O)[C@H](C(C)C)N4CCCNC4=O)O

>  <PUBCHEM_CACTVS_TPSA>
120

>  <PUBCHEM_MONOISOTOPIC_WEIGHT>
628.362471

>  <PUBCHEM_TOTAL_CHARGE>
0

>  <PUBCHEM_HEAVY_ATOM_COUNT>
46

>  <PUBCHEM_ATOM_DEF_STEREO_COUNT>
4

>  <PUBCHEM_ATOM_UDEF_STEREO_COUNT>
0

>  <PUBCHEM_BOND_DEF_STEREO_COUNT>
0

>  <PUBCHEM_BOND_UDEF_STEREO_COUNT>
0

>  <PUBCHEM_ISOTOPIC_ATOM_COUNT>
0

>  <PUBCHEM_COMPONENT_COUNT>
1

>  <PUBCHEM_CACTVS_TAUTO_COUNT>
-1

>  <PUBCHEM_COORDINATE_TYPE>
1
5
255

>  <PUBCHEM_BONDANNOTATIONS>
13  1  6
11  17  5
25  28  8
25  29  8
26  30  8
26  31  8
28  33  8
29  34  8
30  36  8
31  37  8
33  35  8
34  35  8
36  38  8
37  38  8
39  40  8
39  41  8
40  42  8
41  43  8
42  46  8
43  46  8
10  7  6
15  8  5

>  <LF dG>
-8.751

>  <LF VSscore>
-11.09

>  <LF Rank Score>
-12.381

>  <LF LE>
-0.19

>  <Preferred Pose_cresset>
true

>  <Favorite_cresset>
false

>  <Protein_cresset>
6Y2F_P

>  <MW_cresset>
628.8

>  <#Atoms_cresset>
46

>  <SlogP_cresset>
4.7

>  <TPSA_cresset>
120

>  <Flexibility_cresset>
16.1

>  <#RB_cresset>
16

>  <Rof5_cresset>
1

>  <Filename_cresset>
Lopinavir.sdf

>  <Confs_cresset>
0

>  <Poses_cresset>
10

>  <_cresset_fieldpoints>
    -5      13.835861      -0.808943      21.301086    -13.6310
    -5       7.736861      -3.313943      21.485086    -15.0450
    -5       9.428305      -0.954770      28.504101    -17.6844
    -5      15.983847       1.844852      24.048187    -16.8169
    -5      12.654861       6.695056      16.937088     -3.1760
    -5       6.722861      -1.144943      18.017086     -4.4935
    -5      18.647861      -0.327943      17.102087     -1.4030
    -5      20.861862       3.938056      20.567087     -4.3860
    -6      10.461862       2.021057      23.852087      5.6475
    -6       7.267861       3.121057      28.310087      4.9675
    -6       8.603861       2.950057      22.038088      6.5515
    -6      11.615861       2.578057      16.877087      5.2060
    -6      16.429861       6.565056      19.445087      3.2970
    -6      17.586861      -1.795943      20.272087      4.6005
    -6       8.900862       3.374057      19.684088      6.9200
    -6      14.768862       0.674057      17.719088     15.3310
    -6      22.838861      -1.006943      19.044086      3.0030
    -6      17.545860       4.339056      15.848087      3.5010
    -7      12.620861       0.666057      16.895086     -3.2935
    -7      12.635861      -2.300943      19.394087     -2.5285
    -7       6.668861      -2.262943      21.855087     -2.9980
    -7       8.078861      -2.119944      28.247087     -2.1655
    -7      12.175861      -2.085943      23.535088     -2.5860
    -7      10.250861       2.363057      24.070087     -3.2060
    -7      15.717861       4.210057      21.846087     -3.6120
    -7      21.184860       4.206057      20.538088     -1.9865
    -7       7.748861      -6.085944      24.441088     -1.4930
    -7       6.584861       1.741057      20.841087     -2.4005
    -7       5.724861      -0.375943      27.100086     -2.4510
    -7       5.010861      -1.526943      23.296087     -2.0380
    -7      11.614861       2.782057      16.371086     -2.6935
    -7      13.983861      -1.034943      21.717087     -2.9335
    -7      10.093862       0.933057      13.418087     -0.9735
    -7       6.265862      -0.869943      18.098087     -1.8630
    -7      10.751862      -3.355944      21.234087     -2.6775
    -7      10.000861      -3.528944      14.420087     -0.9695
    -7      12.913861       6.388056      16.468086     -1.8565
    -7      12.224861      10.025057      20.967087     -0.9690
    -7      15.186861       5.147057      16.819088     -2.2745
    -7       9.032862       3.286057      22.182087     -3.1270
    -7       8.318861       7.946056      19.970087     -0.9730
    -7      11.903861       4.231057      22.506086     -3.1505
    -7      15.773861       1.564057      17.089087     -2.8640
    -7      23.116861       0.359057      16.641087     -1.0045
    -7      18.983862       1.688057      23.652086     -1.9415
    -7      16.783861       0.286057      17.704086     -2.8795
    -7      20.245861       3.664057      14.807087     -1.0060
    -7      22.362862      -0.348943      16.335087     -1.0025
    -8      12.232862       5.715056      19.578087      7.2080
    -8       9.469861      -0.405943      17.655087      7.2085
    -8      12.976861       3.348057      19.562086      5.6755
    -8      10.627861       0.740057      20.484087      5.5925
    -8       8.558861      -2.869944      25.150087      5.7685
    -8       7.036861       1.593057      24.245087      4.9560
    -8       9.864861      -0.288943      19.835087      5.6875
    -8      19.568861       1.941057      18.894087      7.0775
    -8      16.369862       0.288057      21.150087      2.8655
    -8      12.376862       1.981057      20.631086      5.1705
    -8      12.923862       4.482057      19.349087      5.7775
    -8       9.468862      -0.053943      19.027086      5.7750
    -8      20.032862       0.957057      19.874086      5.4815
    -8      18.418861       2.867057      18.842087      5.4895

$$$$
Untitled
  xed2sdf_05210316543D
 
 94 97  0  0  1  0  0  0  0  0999 V2000
   12.7408    1.9191   20.3590 O   0  0  0  0  0  0  0  0  0  0  0  0
    9.1008   -1.8659   21.9010 O   0  0  0  0  0  0  0  0  0  0  0  0
    9.0218   -0.5779   26.8360 O   0  0  0  0  0  0  0  0  0  0  0  0
   11.5778    6.0711   22.4250 O   0  0  0  0  0  0  0  0  0  0  0  0
   13.5978    6.4081   24.2450 O   0  0  0  0  0  0  0  0  0  0  0  0
    8.1108   -0.2449   24.7930 N   0  0  0  0  0  0  0  0  0  0  0  0
    9.8688    0.1131   22.7300 N   0  0  0  0  0  0  0  0  0  0  0  0
   12.7888    4.4711   21.3430 N   0  0  0  0  0  0  0  0  0  0  0  0
    7.7948    1.2671   26.5670 N   0  0  0  0  0  0  0  0  0  0  0  0
   10.2178    0.6461   21.4050 C   0  0  0  0  0  0  0  0  0  0  0  0
    8.8358   -1.4119   24.2440 C   0  0  0  0  0  0  0  0  0  0  0  0
   10.6328    2.1211   21.5720 C   0  0  0  0  0  0  0  0  0  0  0  0
   11.4768    2.6001   20.3720 C   0  0  0  0  0  0  0  0  0  0  0  0
    8.2778   -2.8569   24.3250 C   0  0  0  0  0  0  0  0  0  0  0  0
   11.6958    4.1261   20.4230 C   0  0  0  0  0  0  0  0  0  0  0  0
    9.0038    0.5211   20.4560 C   0  0  0  0  0  0  0  0  0  0  0  0
    9.2868   -1.0949   22.8330 C   0  0  0  0  0  0  0  0  0  0  0  0
    7.2438    0.5551   23.9080 C   0  0  0  0  0  0  0  0  0  0  0  0
    6.2148    1.3691   24.6980 C   0  0  0  0  0  0  0  0  0  0  0  0
   12.0508    4.6641   19.0190 C   0  0  0  0  0  0  0  0  0  0  0  0
    8.3298    0.1191   26.0850 C   0  0  0  0  0  0  0  0  0  0  0  0
    7.0708   -3.0149   25.2750 C   0  0  0  0  0  0  0  0  0  0  0  0
    9.3918   -3.8519   24.6920 C   0  0  0  0  0  0  0  0  0  0  0  0
    7.0028    2.1791   25.7290 C   0  0  0  0  0  0  0  0  0  0  0  0
    9.3348    0.0331   19.0540 C   0  0  0  0  0  0  0  0  0  0  0  0
   13.5308    4.9551   18.8080 C   0  0  0  0  0  0  0  0  0  0  0  0
   12.6198    5.4601   22.2350 C   0  0  0  0  0  0  0  0  0  0  0  0
    9.2618    0.8971   17.9830 C   0  0  0  0  0  0  0  0  0  0  0  0
    9.7098   -1.2759   18.8430 C   0  0  0  0  0  0  0  0  0  0  0  0
   14.4248    3.9201   18.6420 C   0  0  0  0  0  0  0  0  0  0  0  0
   13.9858    6.2551   18.7820 C   0  0  0  0  0  0  0  0  0  0  0  0
   13.8908    5.7731   22.9850 C   0  0  0  0  0  0  0  0  0  0  0  0
    9.5608    0.4581   16.7140 C   0  0  0  0  0  0  0  0  0  0  0  0
   10.0098   -1.7169   17.5750 C   0  0  0  0  0  0  0  0  0  0  0  0
    9.9358   -0.8499   16.5100 C   0  0  0  0  0  0  0  0  0  0  0  0
   15.7628    4.1821   18.4560 C   0  0  0  0  0  0  0  0  0  0  0  0
   15.3228    6.5191   18.5960 C   0  0  0  0  0  0  0  0  0  0  0  0
   16.2128    5.4821   18.4330 C   0  0  0  0  0  0  0  0  0  0  0  0
   13.9718    5.7521   25.3510 C   0  0  0  0  0  0  0  0  0  0  0  0
   13.0248    5.0811   26.1160 C   0  0  0  0  0  0  0  0  0  0  0  0
   15.3028    5.7391   25.7560 C   0  0  0  0  0  0  0  0  0  0  0  0
   13.4088    4.4021   27.2480 C   0  0  0  0  0  0  0  0  0  0  0  0
   15.6678    5.0521   26.8900 C   0  0  0  0  0  0  0  0  0  0  0  0
   11.5398    5.0301   25.7920 C   0  0  0  0  0  0  0  0  0  0  0  0
   16.4278    6.4491   25.0170 C   0  0  0  0  0  0  0  0  0  0  0  0
   14.7278    4.3831   27.6360 C   0  0  0  0  0  0  0  0  0  0  0  0
   10.9758    0.1291   21.0070 H   0  0  0  0  0  0  0  0  0  0  0  0
    9.5678   -1.4999   24.9190 H   0  0  0  0  0  0  0  0  0  0  0  0
   10.9788    2.3851   19.5320 H   0  0  0  0  0  0  0  0  0  0  0  0
   10.8448    4.5411   20.7450 H   0  0  0  0  0  0  0  0  0  0  0  0
   12.8998    1.4581   19.4800 H   0  0  0  0  0  0  0  0  0  0  0  0
   10.0408    0.5931   23.4480 H   0  0  0  0  0  0  0  0  0  0  0  0
   13.5608    4.0511   21.2800 H   0  0  0  0  0  0  0  0  0  0  0  0
    7.9478    1.4851   27.4060 H   0  0  0  0  0  0  0  0  0  0  0  0
   11.1688    2.2181   22.4110 H   0  0  0  0  0  0  0  0  0  0  0  0
    9.8058    2.6801   21.6210 H   0  0  0  0  0  0  0  0  0  0  0  0
    7.9338   -3.0659   23.4100 H   0  0  0  0  0  0  0  0  0  0  0  0
    8.5718    1.4201   20.3810 H   0  0  0  0  0  0  0  0  0  0  0  0
    8.4028   -0.1709   20.8580 H   0  0  0  0  0  0  0  0  0  0  0  0
    6.7618   -0.0609   23.2830 H   0  0  0  0  0  0  0  0  0  0  0  0
    7.8228    1.1961   23.4040 H   0  0  0  0  0  0  0  0  0  0  0  0
    5.5668    0.7591   25.1550 H   0  0  0  0  0  0  0  0  0  0  0  0
    5.6868    1.9671   24.0950 H   0  0  0  0  0  0  0  0  0  0  0  0
   11.5398    5.5111   18.8690 H   0  0  0  0  0  0  0  0  0  0  0  0
   11.8098    3.9431   18.3700 H   0  0  0  0  0  0  0  0  0  0  0  0
    7.2688   -3.7379   25.9360 H   0  0  0  0  0  0  0  0  0  0  0  0
    6.9048   -2.1539   25.7560 H   0  0  0  0  0  0  0  0  0  0  0  0
    6.2558   -3.2539   24.7460 H   0  0  0  0  0  0  0  0  0  0  0  0
    9.0958   -4.3969   25.4770 H   0  0  0  0  0  0  0  0  0  0  0  0
    9.5778   -4.4529   23.9150 H   0  0  0  0  0  0  0  0  0  0  0  0
   10.2268   -3.3519   24.9240 H   0  0  0  0  0  0  0  0  0  0  0  0
    7.6128    2.8171   25.2590 H   0  0  0  0  0  0  0  0  0  0  0  0
    6.3668    2.6931   26.3040 H   0  0  0  0  0  0  0  0  0  0  0  0
    8.9898    1.8491   18.1300 H   0  0  0  0  0  0  0  0  0  0  0  0
    9.7628   -1.9089   19.6160 H   0  0  0  0  0  0  0  0  0  0  0  0
   14.0998    2.9741   18.6580 H   0  0  0  0  0  0  0  0  0  0  0  0
   13.3408    7.0111   18.9000 H   0  0  0  0  0  0  0  0  0  0  0  0
   14.3938    4.9241   23.1520 H   0  0  0  0  0  0  0  0  0  0  0  0
   14.4438    6.3971   22.4320 H   0  0  0  0  0  0  0  0  0  0  0  0
    9.5058    1.0891   15.9400 H   0  0  0  0  0  0  0  0  0  0  0  0
   10.2818   -2.6679   17.4270 H   0  0  0  0  0  0  0  0  0  0  0  0
   10.1538   -1.1699   15.5870 H   0  0  0  0  0  0  0  0  0  0  0  0
   16.4088    3.4271   18.3370 H   0  0  0  0  0  0  0  0  0  0  0  0
   15.6488    7.4651   18.5790 H   0  0  0  0  0  0  0  0  0  0  0  0
   17.1848    5.6731   18.2980 H   0  0  0  0  0  0  0  0  0  0  0  0
   12.7238    3.9181   27.7920 H   0  0  0  0  0  0  0  0  0  0  0  0
   16.6268    5.0401   27.1740 H   0  0  0  0  0  0  0  0  0  0  0  0
   11.0738    4.4851   26.4890 H   0  0  0  0  0  0  0  0  0  0  0  0
   11.1638    5.9561   25.7810 H   0  0  0  0  0  0  0  0  0  0  0  0
   11.4058    4.6131   24.8930 H   0  0  0  0  0  0  0  0  0  0  0  0
   17.2868    6.2901   25.5030 H   0  0  0  0  0  0  0  0  0  0  0  0
   16.4968    6.0941   24.0850 H   0  0  0  0  0  0  0  0  0  0  0  0
   16.2388    7.4301   24.9780 H   0  0  0  0  0  0  0  0  0  0  0  0
   15.0008    3.8831   28.4580 H   0  0  0  0  0  0  0  0  0  0  0  0
  2 17  2  0
  3 21  2  0
  4 27  2  0
  5 32  1  0
  5 39  1  0
  6 11  1  0
  6 18  1  0
  6 21  1  0
  7 17  1  0
  8 27  1  0
  9 21  1  0
  9 24  1  0
 10  7  1  0
 10 12  1  0
 10 16  1  0
 11 14  1  0
 11 17  1  0
 12 13  1  0
 13  1  1  0
 13 15  1  0
 14 22  1  0
 14 23  1  0
 15  8  1  0
 15 20  1  0
 16 25  1  0
 18 19  1  0
 19 24  1  0
 20 26  1  0
 25 28  2  0
 25 29  1  0
 26 30  2  0
 26 31  1  0
 27 32  1  0
 28 33  1  0
 29 34  2  0
 30 36  1  0
 31 37  2  0
 33 35  2  0
 34 35  1  0
 36 38  2  0
 37 38  1  0
 39 40  2  0
 39 41  1  0
 40 42  1  0
 40 44  1  0
 41 43  2  0
 41 45  1  0
 42 46  2  0
 43 46  1  0
  1 51  1  0
  7 52  1  0
  8 53  1  0
  9 54  1  0
 10 47  1  0
 11 48  1  0
 12 55  1  0
 12 56  1  0
 13 49  1  0
 14 57  1  0
 15 50  1  0
 16 58  1  0
 16 59  1  0
 18 60  1  0
 18 61  1  0
 19 62  1  0
 19 63  1  0
 20 64  1  0
 20 65  1  0
 22 66  1  0
 22 67  1  0
 22 68  1  0
 23 69  1  0
 23 70  1  0
 23 71  1  0
 24 72  1  0
 24 73  1  0
 28 74  1  0
 29 75  1  0
 30 76  1  0
 31 77  1  0
 32 78  1  0
 32 79  1  0
 33 80  1  0
 34 81  1  0
 35 82  1  0
 36 83  1  0
 37 84  1  0
 38 85  1  0
 42 86  1  0
 43 87  1  0
 44 88  1  0
 44 89  1  0
 44 90  1  0
 45 91  1  0
 45 92  1  0
 45 93  1  0
 46 94  1  0
M  END
>  <BioMolTech Lead Finder dG>
-9.962

>  <BioMolTech Lead Finder VSscore>
-11.669

>  <BioMolTech Lead Finder Rank score>
-13.118

>  <BioMolTech Lead Finder LE>
-0.217

>  <BioMolTech Lead Finder Structure Name>
/var/folders/xd/y7jw_xv579q2qqq7kks92xd80000gn/T/LeadFinder_21446_1/Ligand_1.sdf

>  <BioMolTech Lead Finder SDF id>
0

>  <BioMolTech Lead Finder Pose rank>
0

>  <BioMolTech Lead Finder version>
2001 1, 19 January 2019

>  <PUBCHEM_COMPOUND_CID>
92727

>  <PUBCHEM_COMPOUND_CANONICALIZED>
1

>  <PUBCHEM_CACTVS_COMPLEXITY>
940

>  <PUBCHEM_CACTVS_HBOND_ACCEPTOR>
5

>  <PUBCHEM_CACTVS_HBOND_DONOR>
4

>  <PUBCHEM_CACTVS_ROTATABLE_BOND>
15

>  <PUBCHEM_CACTVS_SUBSKEYS>
AAADcfB/uAAAAAAAAAAAAAAAAAAAAAAAAAA8YMEAAAAAAAABUAAAHgAQCAAADTzhmAYzBoPABgCIAiFSEAICCAAgIAAIiIHMCIiOdjKE8T+XeCCu1hOYqAeQwPAOAAACAAAIAAAAAAQAABAAAAAAAAAAAA==

>  <PUBCHEM_IUPAC_OPENEYE_NAME>
(2S)-N-[(1S,3S,4S)-1-benzyl-4-[[2-(2,6-dimethylphenoxy)acetyl]amino]-3-hydroxy-5-phenyl-pentyl]-3-methyl-2-(2-oxohexahydropyrimidin-1-yl)butanamide

>  <PUBCHEM_IUPAC_CAS_NAME>
(2S)-N-[(2S,4S,5S)-5-[[2-(2,6-dimethylphenoxy)-1-oxoethyl]amino]-4-hydroxy-1,6-diphenylhexan-2-yl]-3-methyl-2-(2-oxo-1,3-diazinan-1-yl)butanamide

>  <PUBCHEM_IUPAC_NAME_MARKUP>
(2<I>S</I>)-<I>N</I>-[(2<I>S</I>,4<I>S</I>,5<I>S</I>)-5-[[2-(2,6-dimethylphenoxy)acetyl]amino]-4-hydroxy-1,6-diphenylhexan-2-yl]-3-methyl-2-(2-oxo-1,3-diazinan-1-yl)butanamide

>  <PUBCHEM_IUPAC_NAME>
(2S)-N-[(2S,4S,5S)-5-[[2-(2,6-dimethylphenoxy)acetyl]amino]-4-hydroxy-1,6-diphenylhexan-2-yl]-3-methyl-2-(2-oxo-1,3-diazinan-1-yl)butanamide

>  <PUBCHEM_IUPAC_SYSTEMATIC_NAME>
(2S)-N-[(2S,4S,5S)-5-[2-(2,6-dimethylphenoxy)ethanoylamino]-4-oxidanyl-1,6-diphenyl-hexan-2-yl]-3-methyl-2-(2-oxidanylidene-1,3-diazinan-1-yl)butanamide

>  <PUBCHEM_IUPAC_TRADITIONAL_NAME>
(2S)-N-[(1S,3S,4S)-1-benzyl-4-[[2-(2,6-dimethylphenoxy)acetyl]amino]-3-hydroxy-5-phenyl-pentyl]-2-(2-ketohexahydropyrimidin-1-yl)-3-methyl-butyramide

>  <PUBCHEM_IUPAC_INCHI>
InChI=1S/C37H48N4O5/c1-25(2)34(41-20-12-19-38-37(41)45)36(44)39-30(21-28-15-7-5-8-16-28)23-32(42)31(22-29-17-9-6-10-18-29)40-33(43)24-46-35-26(3)13-11-14-27(35)4/h5-11,13-18,25,30-32,34,42H,12,19-24H2

>  <PUBCHEM_IUPAC_INCHIKEY>
KJHKTHWMRKYKJE-SUGCFTRWSA-N

>  <PUBCHEM_XLOGP3_AA>
5.9

>  <PUBCHEM_EXACT_MASS>
628.362471

>  <PUBCHEM_MOLECULAR_FORMULA>
C37H48N4O5

>  <PUBCHEM_MOLECULAR_WEIGHT>
628.8

>  <PUBCHEM_OPENEYE_CAN_SMILES>
CC1=C(C(=CC=C1)C)OCC(=O)NC(CC2=CC=CC=C2)C(CC(CC3=CC=CC=C3)NC(=O)C(C(C)C)N4CCCNC4=O)O

>  <PUBCHEM_OPENEYE_ISO_SMILES>
CC1=C(C(=CC=C1)C)OCC(=O)N[C@@H](CC2=CC=CC=C2)[C@H](C[C@H](CC3=CC=CC=C3)NC(=O)[C@H](C(C)C)N4CCCNC4=O)O

>  <PUBCHEM_CACTVS_TPSA>
120

>  <PUBCHEM_MONOISOTOPIC_WEIGHT>
628.362471

>  <PUBCHEM_TOTAL_CHARGE>
0

>  <PUBCHEM_HEAVY_ATOM_COUNT>
46

>  <PUBCHEM_ATOM_DEF_STEREO_COUNT>
4

>  <PUBCHEM_ATOM_UDEF_STEREO_COUNT>
0

>  <PUBCHEM_BOND_DEF_STEREO_COUNT>
0

>  <PUBCHEM_BOND_UDEF_STEREO_COUNT>
0

>  <PUBCHEM_ISOTOPIC_ATOM_COUNT>
0

>  <PUBCHEM_COMPONENT_COUNT>
1

>  <PUBCHEM_CACTVS_TAUTO_COUNT>
-1

>  <PUBCHEM_COORDINATE_TYPE>
1
5
255

>  <PUBCHEM_BONDANNOTATIONS>
13  1  6
11  17  5
25  28  8
25  29  8
26  30  8
26  31  8
28  33  8
29  34  8
30  36  8
31  37  8
33  35  8
34  35  8
36  38  8
37  38  8
39  40  8
39  41  8
40  42  8
41  43  8
42  46  8
43  46  8
10  7  6
15  8  5

>  <LF dG>
-9.962

>  <LF VSscore>
-11.669

>  <LF Rank Score>
-13.118

>  <LF LE>
-0.217

>  <Preferred Pose_cresset>
true

>  <Favorite_cresset>
false

>  <Protein_cresset>
6Y2F_P

>  <MW_cresset>
628.8

>  <#Atoms_cresset>
46

>  <SlogP_cresset>
4.7

>  <TPSA_cresset>
120

>  <Flexibility_cresset>
16.1

>  <#RB_cresset>
16

>  <Rof5_cresset>
1

>  <Filename_cresset>
Lopinavir.sdf

>  <Confs_cresset>
0

>  <Poses_cresset>
10

>  <_cresset_fieldpoints>
    -5      13.594770       1.377071      21.914015     -6.8090
    -5      14.402770       2.397071      25.182014     -4.3150
    -5       8.534770      -3.437929      21.240013     -9.8780
    -5       9.759770      -2.051929      27.445015    -12.2400
    -5      11.486771       7.382071      23.582014    -15.2050
    -5      11.986771      -0.969929      23.013014     -4.6195
    -5       9.633770      -0.989929      28.410015    -11.9015
    -5       6.907770      -1.514929      17.769014     -4.8165
    -5      14.515770       5.459071      15.758015     -3.4185
    -6      15.671770       3.676071      21.857014      3.7530
    -6      12.621771       1.625071      17.770014      8.4060
    -6       7.426770       3.215071      28.535015      4.2815
    -6       9.697770       2.621071      24.247015      4.7560
    -6      18.818771       3.700071      18.118015      2.9830
    -6       7.352770       2.932071      21.906013      6.2245
    -6       8.900770       3.699070      19.232014      7.6910
    -6      18.864771       5.153070      26.981014      2.3490
    -6      18.300770       7.768070      18.393015      2.7325
    -7      14.802771       2.009071      21.394014     -2.6745
    -7      12.524771       1.577071      17.341015     -3.5525
    -7       6.737771      -1.924929      21.422014     -3.2255
    -7      10.188770       2.239071      25.118013     -3.7945
    -7      12.098770      -1.132929      23.572014     -2.4145
    -7       9.228770      -2.696929      27.695015     -2.2985
    -7      11.500771       7.593071      20.565014     -2.6330
    -7       8.593770       3.878071      19.425014     -3.1725
    -7      11.356771       7.857071      23.975014     -2.3520
    -7       9.628771       4.795071      23.091015     -3.0880
    -7      14.489771       8.918071      23.707014     -1.9895
    -7       9.002770       3.787071      27.718014     -1.7370
    -7       7.006770      -5.777929      23.451014     -1.4985
    -7       7.360770       3.198071      21.934013     -2.7295
    -7       4.624770      -1.448929      23.788013     -2.0040
    -7       5.851770      -0.530929      27.459015     -2.4015
    -7      11.352770      -2.564929      21.516014     -2.8185
    -7       9.218770       3.937071      23.708014     -3.0450
    -7       8.260771      -0.162929      13.651014     -0.9580
    -7      10.933770      -3.712929      14.983014     -0.9690
    -7       6.466770      -1.139929      17.660015     -1.8470
    -7      12.828771      -0.655929      19.424015     -2.7345
    -7      19.126770       3.739071      18.323013     -0.9705
    -7      13.211770       2.715071      23.703014     -3.8880
    -7      14.096770       5.234071      15.462014     -1.8410
    -7      13.785770       7.863070      28.010014     -1.9925
    -7      17.695770       3.537071      29.107014     -1.0045
    -7      16.512770       4.662070      21.705013     -2.9200
    -8      10.098770       1.456071      20.658014      5.6855
    -8      10.826771       3.062071      20.834015      5.0030
    -8       6.786770       1.582071      24.573013      4.9585
    -8       8.426770      -2.943929      24.772015      5.8100
    -8       9.638770      -0.405929      17.788013      7.2065
    -8       9.690770       0.440071      20.076014      5.6140
    -8      14.006770       5.486071      22.271013      2.8860
    -8      11.502770       3.768071      19.588015      5.0395
    -8      14.358770       5.052071      26.521015      7.0760
    -8      14.867770       5.217071      18.625013      7.1940
    -8      15.476770       5.702071      25.833014      5.4880

$$$$
W_VTRRT_D
  xed2sdf_05210316543D
 
 92 97  0  0  1  0  0  0  0  0999 V2000
   15.2385    4.5498   27.6063 C   0  0  0  0  0  0  0  0  0  0  0  0
   14.9325    3.2088   27.6413 C   0  0  0  0  0  0  0  0  0  0  0  0
   15.3155    2.3808   26.6083 C   0  0  0  0  0  0  0  0  0  0  0  0
   16.0085    2.9068   25.5393 C   0  0  0  0  0  0  0  0  0  0  0  0
   16.3155    4.2478   25.5033 C   0  0  0  0  0  0  0  0  0  0  0  0
   15.9295    5.0708   26.5373 C   0  0  0  0  0  0  0  0  0  0  0  0
   14.9775    0.8968   26.6493 C   0  0  0  0  0  0  0  0  0  0  0  0
   13.4685    0.5668   26.5963 C   0  0  0  0  0  0  0  0  0  0  0  0
   13.0105    0.1468   27.9663 N   0  3  0  0  0  0  0  0  0  0  0  0
   13.2065   -0.5422   25.5513 C   0  0  0  0  0  0  0  0  0  0  0  0
   14.4045   -1.3102   25.3393 O   0  0  0  0  0  0  0  0  0  0  0  0
   12.7405    0.0548   24.2063 C   0  0  0  0  0  0  0  0  0  0  0  0
   11.2445   -0.2302   23.9433 C   0  0  0  0  0  0  0  0  0  0  0  0
   10.4305    1.0668   24.1493 C   0  0  0  0  0  0  0  0  0  0  0  0
    8.9665    0.8708   24.5153 C   0  0  0  0  0  0  0  0  0  0  0  0
    7.9935    1.6558   23.9343 C   0  0  0  0  0  0  0  0  0  0  0  0
    6.6695    1.4818   24.2663 C   0  0  0  0  0  0  0  0  0  0  0  0
    6.3105    0.5218   25.1843 C   0  0  0  0  0  0  0  0  0  0  0  0
    7.2785   -0.2642   25.7683 C   0  0  0  0  0  0  0  0  0  0  0  0
    8.6015   -0.0892   25.4333 C   0  0  0  0  0  0  0  0  0  0  0  0
   11.0665   -0.7062   22.5643 N   0  0  0  0  0  0  0  0  0  0  0  0
   10.2675   -1.9802   22.4513 P   0  0  0  0  0  0  0  0  0  0  0  0
   10.8315   -3.1142   23.4413 O   0  0  0  0  0  0  0  0  0  0  0  0
   10.4725   -2.6382   20.9923 O   0  0  0  0  0  0  0  0  0  0  0  0
    8.8055   -1.7372   22.7193 O   0  0  0  0  0  0  0  0  0  0  0  0
    9.8975   -3.9322   24.1603 C   0  0  0  0  0  0  0  0  0  0  0  0
   10.2875   -1.9272   19.8393 C   0  0  0  0  0  0  0  0  0  0  0  0
    9.5385   -0.7642   19.8113 C   0  0  0  0  0  0  0  0  0  0  0  0
    9.3755   -0.0702   18.6363 C   0  0  0  0  0  0  0  0  0  0  0  0
    9.9605   -0.5292   17.4773 C   0  0  0  0  0  0  0  0  0  0  0  0
   10.7065   -1.6852   17.4963 C   0  0  0  0  0  0  0  0  0  0  0  0
   10.8675   -2.3812   18.6703 C   0  0  0  0  0  0  0  0  0  0  0  0
   10.6555   -5.0022   24.9633 C   0  0  0  0  0  0  0  0  0  0  0  0
   11.6415   -5.6642   24.1543 O   0  0  0  0  0  0  0  0  0  0  0  0
   11.7705   -7.0432   24.5523 C   0  0  0  0  0  0  0  0  0  0  0  0
   10.7375   -7.2612   25.6833 C   0  0  0  0  0  0  0  0  0  0  0  0
    9.7395   -6.1102   25.5033 C   0  0  0  0  0  0  0  0  0  0  0  0
    8.7355   -6.4862   24.5473 O   0  0  0  0  0  0  0  0  0  0  0  0
   10.0895   -8.5422   25.6273 O   0  0  0  0  0  0  0  0  0  0  0  0
   11.5445   -7.8512   23.2793 C   0  0  0  0  0  0  0  0  0  0  0  0
   13.1315   -7.2522   25.0633 C   0  0  0  0  0  0  0  0  0  0  0  0
   14.1845   -7.4122   25.4593 N   0  0  0  0  0  0  0  0  0  0  0  0
   11.2035   -7.2422   22.1173 N   0  0  0  0  0  0  0  0  0  0  0  0
   11.0825   -8.2462   21.2103 C   0  0  0  0  0  0  0  0  0  0  0  0
   11.3375   -9.4542   21.7753 C   0  0  0  0  0  0  0  0  0  0  0  0
   11.6335   -9.1882   23.1153 C   0  0  0  0  0  0  0  0  0  0  0  0
   10.9855   -5.9412   21.7643 N   0  0  0  0  0  0  0  0  0  0  0  0
   10.6575   -5.6952   20.5173 C   0  0  0  0  0  0  0  0  0  0  0  0
   10.5105   -6.6232   19.5183 N   0  0  0  0  0  0  0  0  0  0  0  0
   10.7275   -7.8952   19.8813 C   0  0  0  0  0  0  0  0  0  0  0  0
   10.5915   -8.8572   18.9083 N   0  0  0  0  0  0  0  0  0  0  0  0
   12.9495    1.3758   26.3183 H   0  0  0  0  0  0  0  0  0  0  0  0
   12.4825   -1.1322   25.9063 H   0  0  0  0  0  0  0  0  0  0  0  0
   10.9245   -0.9312   24.5803 H   0  0  0  0  0  0  0  0  0  0  0  0
   11.0715   -4.4992   25.7213 H   0  0  0  0  0  0  0  0  0  0  0  0
   11.1765   -7.2602   26.5813 H   0  0  0  0  0  0  0  0  0  0  0  0
    9.2375   -5.8442   26.3263 H   0  0  0  0  0  0  0  0  0  0  0  0
   14.9575    5.1458   28.3593 H   0  0  0  0  0  0  0  0  0  0  0  0
   14.4295    2.8328   28.4193 H   0  0  0  0  0  0  0  0  0  0  0  0
   16.2895    2.3118   24.7873 H   0  0  0  0  0  0  0  0  0  0  0  0
   16.8185    4.6248   24.7253 H   0  0  0  0  0  0  0  0  0  0  0  0
   16.1525    6.0448   26.5113 H   0  0  0  0  0  0  0  0  0  0  0  0
   15.3505    0.5158   27.4943 H   0  0  0  0  0  0  0  0  0  0  0  0
   15.3775    0.4978   25.8243 H   0  0  0  0  0  0  0  0  0  0  0  0
   13.1895   -0.7292   28.1313 H   0  0  0  0  0  0  0  0  0  0  0  0
   13.4205    0.6288   28.6213 H   0  0  0  0  0  0  0  0  0  0  0  0
   12.1175    0.2658   28.0853 H   0  0  0  0  0  0  0  0  0  0  0  0
   14.4415   -2.1062   25.9533 H   0  0  0  0  0  0  0  0  0  0  0  0
   13.2835   -0.3442   23.4673 H   0  0  0  0  0  0  0  0  0  0  0  0
   12.8655    1.0458   24.2443 H   0  0  0  0  0  0  0  0  0  0  0  0
   10.4705    1.5948   23.3013 H   0  0  0  0  0  0  0  0  0  0  0  0
   10.8465    1.5308   24.9313 H   0  0  0  0  0  0  0  0  0  0  0  0
    8.2515    2.3558   23.2673 H   0  0  0  0  0  0  0  0  0  0  0  0
    5.9685    2.0538   23.8403 H   0  0  0  0  0  0  0  0  0  0  0  0
    5.3495    0.3958   25.4273 H   0  0  0  0  0  0  0  0  0  0  0  0
    7.0185   -0.9622   26.4353 H   0  0  0  0  0  0  0  0  0  0  0  0
    9.3025   -0.6622   25.8593 H   0  0  0  0  0  0  0  0  0  0  0  0
   11.9795   -0.8072   22.1043 H   0  0  0  0  0  0  0  0  0  0  0  0
    9.2765   -4.3762   23.5143 H   0  0  0  0  0  0  0  0  0  0  0  0
    9.3705   -3.3592   24.7883 H   0  0  0  0  0  0  0  0  0  0  0  0
    9.1135   -0.4262   20.6513 H   0  0  0  0  0  0  0  0  0  0  0  0
    8.8325    0.7688   18.6223 H   0  0  0  0  0  0  0  0  0  0  0  0
    9.8425   -0.0222   16.6223 H   0  0  0  0  0  0  0  0  0  0  0  0
   11.1305   -2.0202   16.6543 H   0  0  0  0  0  0  0  0  0  0  0  0
   11.4085   -3.2232   18.6793 H   0  0  0  0  0  0  0  0  0  0  0  0
    8.2095   -7.2832   24.8643 H   0  0  0  0  0  0  0  0  0  0  0  0
    9.2965   -8.5792   26.2453 H   0  0  0  0  0  0  0  0  0  0  0  0
   11.3175  -10.3482   21.3273 H   0  0  0  0  0  0  0  0  0  0  0  0
   11.8675   -9.8602   23.8183 H   0  0  0  0  0  0  0  0  0  0  0  0
   10.4985   -4.7382   20.2723 H   0  0  0  0  0  0  0  0  0  0  0  0
   10.3715   -8.6212   18.0893 H   0  0  0  0  0  0  0  0  0  0  0  0
   10.7235   -9.7062   19.0993 H   0  0  0  0  0  0  0  0  0  0  0  0
  1  2  2  0
  2  3  1  0
  3  4  2  0
  3  7  1  0
  4  5  1  0
  5  6  2  0
  6  1  1  0
  7  8  1  0
  8  9  1  0
  8 10  1  0
 10 11  1  0
 10 12  1  0
 12 13  1  0
 13 14  1  0
 13 21  1  0
 14 15  1  0
 15 16  2  0
 16 17  1  0
 17 18  2  0
 18 19  1  0
 19 20  2  0
 20 15  1  0
 21 22  1  0
 22 23  1  0
 22 24  1  0
 22 25  2  0
 23 26  1  0
 24 27  1  0
 27 28  2  0
 28 29  1  0
 29 30  2  0
 30 31  1  0
 31 32  2  0
 32 27  1  0
 33 26  1  0
 33 34  1  0
 34 35  1  0
 35 36  1  0
 35 40  1  0
 35 41  1  0
 36 37  1  0
 36 39  1  0
 37 33  1  0
 37 38  1  0
 40 43  1  0
 41 42  3  0
 43 44  1  0
 43 47  1  0
 44 45  2  0
 45 46  1  0
 46 40  2  0
 47 48  2  0
 48 49  1  0
 49 50  2  0
 50 44  1  0
 50 51  1  0
  1 58  1  0
  2 59  1  0
  4 60  1  0
  5 61  1  0
  6 62  1  0
  7 63  1  0
  7 64  1  0
  8 52  1  0
  9 65  1  0
  9 66  1  0
  9 67  1  0
 10 53  1  0
 11 68  1  0
 12 69  1  0
 12 70  1  0
 13 54  1  0
 14 71  1  0
 14 72  1  0
 16 73  1  0
 17 74  1  0
 18 75  1  0
 19 76  1  0
 20 77  1  0
 21 78  1  0
 26 79  1  0
 26 80  1  0
 28 81  1  0
 29 82  1  0
 30 83  1  0
 31 84  1  0
 32 85  1  0
 33 55  1  0
 36 56  1  0
 37 57  1  0
 38 86  1  0
 39 87  1  0
 45 88  1  0
 46 89  1  0
 48 90  1  0
 51 91  1  0
 51 92  1  0
M  CHG  1   9   1
M  END
>  <BioMolTech Lead Finder dG>
-7.11

>  <BioMolTech Lead Finder VSscore>
-13.369

>  <BioMolTech Lead Finder Rank score>
-14.027

>  <BioMolTech Lead Finder LE>
-0.139

>  <BioMolTech Lead Finder Structure Name>
/var/folders/xd/y7jw_xv579q2qqq7kks92xd80000gn/T/LeadFinder_23736_1/Ligand_1.sdf

>  <BioMolTech Lead Finder SDF id>
0

>  <BioMolTech Lead Finder Pose rank>
0

>  <BioMolTech Lead Finder version>
2001 1, 19 January 2019

>  <LF dG>
-7.11

>  <LF VSscore>
-13.369

>  <LF Rank Score>
-14.027

>  <LF LE>
-0.139

>  <Preferred Pose_cresset>
true

>  <Favorite_cresset>
false

>  <Protein_cresset>
6Y2F_P

>  <MW_cresset>
714.7

>  <#Atoms_cresset>
51

>  <SlogP_cresset>
4

>  <TPSA_cresset>
225.1

>  <Flexibility_cresset>
17.1

>  <#RB_cresset>
18

>  <Rof5_cresset>
3

>  <Filename_cresset>
VTRRT-13V2.1.sdf

>  <Confs_cresset>
0

>  <Poses_cresset>
10

>  <_cresset_fieldpoints>
    -5      13.232492       4.258797      25.058250     -3.0855
    -5      18.188492       3.130797      27.766251     -3.8990
    -5      15.546492      -1.381204      23.911251     -7.8560
    -5      16.070492      -7.406203      24.633251     -8.1750
    -5      12.581492       0.250797      19.028252     -4.4360
    -5      11.555492       1.005796      20.894251     -3.5745
    -5       7.774492       2.817796      26.821251     -2.5555
    -5       6.947492      -1.161204      22.645250     -7.0875
    -5       8.933492      -6.531203      22.662251    -12.4895
    -5       9.302492      -5.721204      18.127251     -7.0655
    -5       8.284492      -4.063203      19.202251     -6.9865
    -5      12.198819      -4.540112      22.588894    -15.9426
    -6      13.676492       1.975796      30.247252      6.2620
    -6      10.666492      -2.102203      26.981251     10.1665
    -6       6.742492       3.887797      22.146252      2.8080
    -6      17.256493       7.302796      24.830252      2.5655
    -6      13.465492      -2.770204      27.397251     10.6110
    -6       7.802492      -7.820204      26.645252     14.8135
    -6      13.297492      -0.523203      21.165251      2.9805
    -6       8.654492       2.471797      20.945251      2.8080
    -6       9.628492       3.750797      22.262251      2.8600
    -6       8.315492       2.425797      17.068251      1.9765
    -6      10.612492      -0.255203      14.421251      1.5920
    -6      10.928492     -11.617204      19.451252      8.5625
    -7      15.482492       7.825797      28.473251     -0.9685
    -7      18.345491       2.831796      28.108252     -1.8345
    -7      15.502492       0.978796      30.037251     -1.8425
    -7      15.866491       0.237797      23.384251     -2.4260
    -7      17.834492       0.132797      25.115252     -1.5420
    -7      12.786492      -4.334204      22.579250     -3.9170
    -7      17.512493       7.256797      24.473251     -0.9685
    -7      16.716492      -1.693203      25.773251     -1.7280
    -7      15.351492      -2.049203      27.981251     -1.9320
    -7      12.908492      -3.420203      27.039251     -2.3765
    -7       9.597492       2.256797      21.061251     -2.6145
    -7       3.283492       1.758796      24.262251     -0.9695
    -7      10.631492       2.138797      27.341251     -2.9195
    -7       6.915492      -2.695204      23.566252     -2.8660
    -7      12.629492       3.524797      24.946251     -3.5620
    -7       7.895492      -3.857203      21.234251     -2.7175
    -7       6.904492      -0.835204      21.864252     -3.2080
    -7      10.620492      -2.245203      27.015251     -3.5545
    -7      11.969492       1.103796      21.012251     -3.3480
    -7       9.265491      -1.858203      14.444251     -0.9565
    -7       8.418492       2.308797      16.413252     -0.9705
    -7      10.926492      -0.775203      14.230251     -0.9680
    -7      10.480492      -5.430203      17.259251     -1.8870
    -7       8.996492      -7.686203      28.381252     -1.3135
    -7      12.681492      -5.216204      27.600250     -1.9675
    -7       8.336493      -6.901203      22.412251     -3.3095
    -7       7.328492      -7.704204      26.947250     -1.3595
    -7       8.459492      -9.132203      23.824251     -2.6525
    -7      13.162492      -3.313203      23.925251     -3.9230
    -7      13.349492      -9.880203      19.051250     -1.5185
    -7      11.836492     -10.168203      26.338251     -2.0885
    -7       8.437492     -10.365204      20.228251     -1.5205
    -8      15.618492       3.720796      26.571251      7.1950
    -8      12.123492       0.033797      24.841251      5.5550
    -8      10.768492      -6.169204      25.681252      4.6120
    -8      10.117492      -1.208203      18.626251      7.0305
    -8       9.879492       0.303797      24.673252      5.7190
    -8       9.835492      -4.733203      25.205252      4.3315
    -8      12.011492      -8.161203      24.150251      4.4850
    -8      10.207492      -3.034204      23.524252      1.8030
    -8       7.642492       0.698797      24.853251      7.1800
    -8      11.457492      -9.014203      22.397251      4.9105

$$$$
W_Wogonin_D
  xed2sdf_05210316543D
 
 33 35  0  0  0  0  0  0  0  0999 V2000
    9.4058   -0.9199   21.2534 O   0  0  0  0  0  0  0  0  0  0  0  0
    8.5418   -2.5309   23.2304 O   0  0  0  0  0  0  0  0  0  0  0  0
    9.3038    2.7701   24.3864 O   0  0  0  0  0  0  0  0  0  0  0  0
    8.0308   -1.5629   25.7354 O   0  0  0  0  0  0  0  0  0  0  0  0
   10.0548    3.0311   21.7934 O   0  0  0  0  0  0  0  0  0  0  0  0
    9.3788    0.9831   22.7654 C   0  0  0  0  0  0  0  0  0  0  0  0
    9.1858   -0.3739   22.4834 C   0  0  0  0  0  0  0  0  0  0  0  0
    9.7898   -0.0919   20.2294 C   0  0  0  0  0  0  0  0  0  0  0  0
    8.7428   -1.2239   23.4874 C   0  0  0  0  0  0  0  0  0  0  0  0
    9.8308    1.8281   21.6734 C   0  0  0  0  0  0  0  0  0  0  0  0
    9.1238    1.4621   24.0614 C   0  0  0  0  0  0  0  0  0  0  0  0
   10.0148    1.2421   20.3964 C   0  0  0  0  0  0  0  0  0  0  0  0
    9.9678   -0.7209   18.8964 C   0  0  0  0  0  0  0  0  0  0  0  0
    8.4808   -0.7359   24.7534 C   0  0  0  0  0  0  0  0  0  0  0  0
    8.6778    0.6051   25.0324 C   0  0  0  0  0  0  0  0  0  0  0  0
    8.9668   -0.7159   17.9354 C   0  0  0  0  0  0  0  0  0  0  0  0
   11.1698   -1.3439   18.5974 C   0  0  0  0  0  0  0  0  0  0  0  0
    9.1658   -1.3109   16.7134 C   0  0  0  0  0  0  0  0  0  0  0  0
   11.3688   -1.9369   17.3734 C   0  0  0  0  0  0  0  0  0  0  0  0
   10.3668   -1.9209   16.4294 C   0  0  0  0  0  0  0  0  0  0  0  0
    9.6248   -3.4349   23.5304 C   0  0  0  0  0  0  0  0  0  0  0  0
    8.4918    3.1691   24.8194 H   0  0  0  0  0  0  0  0  0  0  0  0
    7.0388   -1.7149   25.6724 H   0  0  0  0  0  0  0  0  0  0  0  0
   10.3088    1.8041   19.6224 H   0  0  0  0  0  0  0  0  0  0  0  0
    8.4928    0.9521   25.9524 H   0  0  0  0  0  0  0  0  0  0  0  0
    8.0918   -0.2749   18.1344 H   0  0  0  0  0  0  0  0  0  0  0  0
   11.9008   -1.3619   19.2794 H   0  0  0  0  0  0  0  0  0  0  0  0
    8.4378   -1.3019   16.0284 H   0  0  0  0  0  0  0  0  0  0  0  0
   12.2418   -2.3799   17.1694 H   0  0  0  0  0  0  0  0  0  0  0  0
   10.5118   -2.3519   15.5384 H   0  0  0  0  0  0  0  0  0  0  0  0
   10.3918   -2.9119   23.9024 H   0  0  0  0  0  0  0  0  0  0  0  0
    9.3228   -4.1129   24.2004 H   0  0  0  0  0  0  0  0  0  0  0  0
    9.9108   -3.9059   22.6964 H   0  0  0  0  0  0  0  0  0  0  0  0
  1  7  1  0
  1  8  1  0
  2  9  1  0
  2 21  1  0
  3 11  1  0
  4 14  1  0
  5 10  2  0
  6  7  2  0
  6 10  1  0
  6 11  1  0
  7  9  1  0
  8 12  2  0
  8 13  1  0
  9 14  2  0
 10 12  1  0
 11 15  2  0
 13 16  2  0
 13 17  1  0
 14 15  1  0
 16 18  1  0
 17 19  2  0
 18 20  2  0
 19 20  1  0
  3 22  1  0
  4 23  1  0
 12 24  1  0
 15 25  1  0
 16 26  1  0
 17 27  1  0
 18 28  1  0
 19 29  1  0
 20 30  1  0
 21 31  1  0
 21 32  1  0
 21 33  1  0
M  END
>  <BioMolTech Lead Finder dG>
-6.526

>  <BioMolTech Lead Finder VSscore>
-7.439

>  <BioMolTech Lead Finder Rank score>
-10.734

>  <BioMolTech Lead Finder LE>
-0.311

>  <BioMolTech Lead Finder Structure Name>
/var/folders/xd/y7jw_xv579q2qqq7kks92xd80000gn/T/LeadFinder_23195_1/Ligand_1.sdf

>  <BioMolTech Lead Finder SDF id>
0

>  <BioMolTech Lead Finder Pose rank>
0

>  <BioMolTech Lead Finder version>
2001 1, 19 January 2019

>  <PUBCHEM_COMPOUND_CID>
5281703

>  <PUBCHEM_COMPOUND_CANONICALIZED>
1

>  <PUBCHEM_CACTVS_COMPLEXITY>
426

>  <PUBCHEM_CACTVS_HBOND_ACCEPTOR>
5

>  <PUBCHEM_CACTVS_HBOND_DONOR>
2

>  <PUBCHEM_CACTVS_ROTATABLE_BOND>
2

>  <PUBCHEM_CACTVS_SUBSKEYS>
AAADccB4OAAAAAAAAAAAAAAAAAAAAAAAAAAwYIAAAAAAAACBQAAAGgAACAAADASAmAIyBoAABgCIAqBSAAACCAAkIAAIiAEGiMgNJzaGNRqCeWOl4BULuQfK7LzOIQABCAAIQABCAAIQABCAAAAAAAAAAA==

>  <PUBCHEM_IUPAC_OPENEYE_NAME>
5,7-dihydroxy-8-methoxy-2-phenyl-chromen-4-one

>  <PUBCHEM_IUPAC_CAS_NAME>
5,7-dihydroxy-8-methoxy-2-phenyl-1-benzopyran-4-one

>  <PUBCHEM_IUPAC_NAME_MARKUP>
5,7-dihydroxy-8-methoxy-2-phenylchromen-4-one

>  <PUBCHEM_IUPAC_NAME>
5,7-dihydroxy-8-methoxy-2-phenylchromen-4-one

>  <PUBCHEM_IUPAC_SYSTEMATIC_NAME>
8-methoxy-5,7-bis(oxidanyl)-2-phenyl-chromen-4-one

>  <PUBCHEM_IUPAC_TRADITIONAL_NAME>
5,7-dihydroxy-8-methoxy-2-phenyl-chromone

>  <PUBCHEM_IUPAC_INCHI>
InChI=1S/C16H12O5/c1-20-15-12(19)7-10(17)14-11(18)8-13(21-16(14)15)9-5-3-2-4-6-9/h2-8,17,19H,1H3

>  <PUBCHEM_IUPAC_INCHIKEY>
XLTFNNCXVBYBSX-UHFFFAOYSA-N

>  <PUBCHEM_XLOGP3_AA>
3

>  <PUBCHEM_EXACT_MASS>
284.068473

>  <PUBCHEM_MOLECULAR_FORMULA>
C16H12O5

>  <PUBCHEM_MOLECULAR_WEIGHT>
284.26

>  <PUBCHEM_OPENEYE_CAN_SMILES>
COC1=C(C=C(C2=C1OC(=CC2=O)C3=CC=CC=C3)O)O

>  <PUBCHEM_OPENEYE_ISO_SMILES>
COC1=C(C=C(C2=C1OC(=CC2=O)C3=CC=CC=C3)O)O

>  <PUBCHEM_CACTVS_TPSA>
76

>  <PUBCHEM_MONOISOTOPIC_WEIGHT>
284.068473

>  <PUBCHEM_TOTAL_CHARGE>
0

>  <PUBCHEM_HEAVY_ATOM_COUNT>
21

>  <PUBCHEM_ATOM_DEF_STEREO_COUNT>
0

>  <PUBCHEM_ATOM_UDEF_STEREO_COUNT>
0

>  <PUBCHEM_BOND_DEF_STEREO_COUNT>
0

>  <PUBCHEM_BOND_UDEF_STEREO_COUNT>
0

>  <PUBCHEM_ISOTOPIC_ATOM_COUNT>
0

>  <PUBCHEM_COMPONENT_COUNT>
1

>  <PUBCHEM_CACTVS_TAUTO_COUNT>
-1

>  <PUBCHEM_COORDINATE_TYPE>
1
5
255

>  <PUBCHEM_BONDANNOTATIONS>
1  7  8
1  8  8
10  12  8
11  15  8
13  16  8
13  17  8
14  15  8
16  18  8
17  19  8
18  20  8
19  20  8
6  10  8
6  11  8
6  7  8
7  9  8
8  12  8
9  14  8

>  <LF dG>
-6.526

>  <LF VSscore>
-7.439

>  <LF Rank Score>
-10.734

>  <LF LE>
-0.311

>  <Preferred Pose_cresset>
true

>  <Favorite_cresset>
false

>  <Protein_cresset>
6Y2F_P

>  <MW_cresset>
284.3

>  <#Atoms_cresset>
21

>  <SlogP_cresset>
2.6

>  <TPSA_cresset>
76

>  <Flexibility_cresset>
1.7

>  <#RB_cresset>
4

>  <Rof5_cresset>
0

>  <Filename_cresset>
Wogonin.sdf

>  <Confs_cresset>
0

>  <Poses_cresset>
10

>  <_cresset_fieldpoints>
    -5       8.339779      -2.806925      20.685352     -5.4205
    -5      10.396779       4.100075      23.308353    -14.0485
    -5       9.488779      -2.362925      26.963352     -3.0660
    -5      10.739779       4.515075      20.871353    -11.2725
    -5      11.278779       1.181076      16.446354     -2.9080
    -6       5.385778      -1.193925      25.920353      5.8400
    -6       7.254779       3.080076      26.131353      5.8985
    -6      14.025779      -2.607925      18.788353      2.8645
    -6       6.292779      -0.275925      16.342354      2.7735
    -6       8.762778      -2.378925      13.794353      2.8955
    -6       6.926779       0.607075      19.810352      2.2070
    -6      12.636779      -3.491925      14.977353      2.9180
    -6      12.047779      -1.879924      21.567352      2.7645
    -7       6.942779       0.805076      20.301353     -2.6335
    -7      11.943779      -1.785924      21.802353     -2.9160
    -7       5.971779       0.753075      22.597353     -1.8735
    -7       9.736778       3.326075      26.806353     -1.2635
    -7       7.974779       4.209075      22.687353     -1.7715
    -7      11.711779       3.451075      23.672354     -1.6270
    -7       7.030779      -0.601924      27.789352     -1.2735
    -7       9.792779      -2.961925      26.754353     -1.6555
    -7       6.664779      -3.773925      24.907352     -1.7795
    -7      11.214779       1.762076      17.081352     -2.0565
    -7      12.010778      -0.777925      24.299353     -2.2355
    -7       6.027779      -0.013925      16.417353     -0.9880
    -7      12.819778      -3.626925      14.807353     -0.9675
    -7       8.450779      -3.099925      20.462353     -3.0700
    -7       8.638779      -2.428925      13.547353     -0.9675
    -7      10.915779      -6.427925      23.545353     -0.6495
    -8       8.939778       0.147076      23.761353      6.6065
    -8      10.166779      -1.323925      17.660353      7.1520
    -8       9.632778       0.777076      21.533354      4.9995
    -8      10.311779      -3.948925      23.720352      2.5220

$$$$
Untitled
  xed2sdf_05210316543D
 
 33 35  0  0  0  0  0  0  0  0999 V2000
    9.1112   -2.8895   24.0744 O   0  0  0  0  0  0  0  0  0  0  0  0
   10.4482   -4.2505   22.1734 O   0  0  0  0  0  0  0  0  0  0  0  0
    8.3152   -7.0915   26.3444 O   0  0  0  0  0  0  0  0  0  0  0  0
   10.7192   -6.9685   22.2924 O   0  0  0  0  0  0  0  0  0  0  0  0
    7.4222   -4.7025   27.2664 O   0  0  0  0  0  0  0  0  0  0  0  0
    8.6682   -4.9585   25.2704 C   0  0  0  0  0  0  0  0  0  0  0  0
    9.2222   -4.2425   24.2034 C   0  0  0  0  0  0  0  0  0  0  0  0
    8.3822   -2.2005   25.0094 C   0  0  0  0  0  0  0  0  0  0  0  0
    9.9172   -4.9235   23.2124 C   0  0  0  0  0  0  0  0  0  0  0  0
    7.9402   -4.1975   26.2714 C   0  0  0  0  0  0  0  0  0  0  0  0
    8.8282   -6.3535   25.3234 C   0  0  0  0  0  0  0  0  0  0  0  0
    7.8082   -2.7975   26.0924 C   0  0  0  0  0  0  0  0  0  0  0  0
    8.2442   -0.7375   24.7994 C   0  0  0  0  0  0  0  0  0  0  0  0
   10.0522   -6.2975   23.2694 C   0  0  0  0  0  0  0  0  0  0  0  0
    9.5092   -7.0035   24.3294 C   0  0  0  0  0  0  0  0  0  0  0  0
    7.0282   -0.0825   24.9234 C   0  0  0  0  0  0  0  0  0  0  0  0
    9.3652    0.0055   24.4594 C   0  0  0  0  0  0  0  0  0  0  0  0
    6.9392    1.2735   24.7184 C   0  0  0  0  0  0  0  0  0  0  0  0
    9.2752    1.3605   24.2574 C   0  0  0  0  0  0  0  0  0  0  0  0
    8.0612    1.9975   24.3864 C   0  0  0  0  0  0  0  0  0  0  0  0
   11.7802   -3.7245   22.3404 C   0  0  0  0  0  0  0  0  0  0  0  0
    8.6722   -6.8055   27.2364 H   0  0  0  0  0  0  0  0  0  0  0  0
   10.2732   -6.8675   21.3964 H   0  0  0  0  0  0  0  0  0  0  0  0
    7.2972   -2.2515   26.7564 H   0  0  0  0  0  0  0  0  0  0  0  0
    9.6162   -7.9965   24.3684 H   0  0  0  0  0  0  0  0  0  0  0  0
    6.2082   -0.6015   25.1634 H   0  0  0  0  0  0  0  0  0  0  0  0
   10.2492   -0.4515   24.3604 H   0  0  0  0  0  0  0  0  0  0  0  0
    6.0562    1.7355   24.8104 H   0  0  0  0  0  0  0  0  0  0  0  0
   10.0922    1.8855   24.0164 H   0  0  0  0  0  0  0  0  0  0  0  0
    7.9962    2.9845   24.2394 H   0  0  0  0  0  0  0  0  0  0  0  0
   12.1102   -3.9595   23.2554 H   0  0  0  0  0  0  0  0  0  0  0  0
   12.3882   -4.1175   21.6514 H   0  0  0  0  0  0  0  0  0  0  0  0
   11.7652   -2.7305   22.2324 H   0  0  0  0  0  0  0  0  0  0  0  0
  1  7  1  0
  1  8  1  0
  2  9  1  0
  2 21  1  0
  3 11  1  0
  4 14  1  0
  5 10  2  0
  6  7  2  0
  6 10  1  0
  6 11  1  0
  7  9  1  0
  8 12  2  0
  8 13  1  0
  9 14  2  0
 10 12  1  0
 11 15  2  0
 13 16  2  0
 13 17  1  0
 14 15  1  0
 16 18  1  0
 17 19  2  0
 18 20  2  0
 19 20  1  0
  3 22  1  0
  4 23  1  0
 12 24  1  0
 15 25  1  0
 16 26  1  0
 17 27  1  0
 18 28  1  0
 19 29  1  0
 20 30  1  0
 21 31  1  0
 21 32  1  0
 21 33  1  0
M  END
>  <BioMolTech Lead Finder dG>
-6.434

>  <BioMolTech Lead Finder VSscore>
-7.672

>  <BioMolTech Lead Finder Rank score>
-10.335

>  <BioMolTech Lead Finder LE>
-0.306

>  <BioMolTech Lead Finder Structure Name>
/var/folders/xd/y7jw_xv579q2qqq7kks92xd80000gn/T/LeadFinder_21449_1/Ligand_1.sdf

>  <BioMolTech Lead Finder SDF id>
0

>  <BioMolTech Lead Finder Pose rank>
0

>  <BioMolTech Lead Finder version>
2001 1, 19 January 2019

>  <PUBCHEM_COMPOUND_CID>
5281703

>  <PUBCHEM_COMPOUND_CANONICALIZED>
1

>  <PUBCHEM_CACTVS_COMPLEXITY>
426

>  <PUBCHEM_CACTVS_HBOND_ACCEPTOR>
5

>  <PUBCHEM_CACTVS_HBOND_DONOR>
2

>  <PUBCHEM_CACTVS_ROTATABLE_BOND>
2

>  <PUBCHEM_CACTVS_SUBSKEYS>
AAADccB4OAAAAAAAAAAAAAAAAAAAAAAAAAAwYIAAAAAAAACBQAAAGgAACAAADASAmAIyBoAABgCIAqBSAAACCAAkIAAIiAEGiMgNJzaGNRqCeWOl4BULuQfK7LzOIQABCAAIQABCAAIQABCAAAAAAAAAAA==

>  <PUBCHEM_IUPAC_OPENEYE_NAME>
5,7-dihydroxy-8-methoxy-2-phenyl-chromen-4-one

>  <PUBCHEM_IUPAC_CAS_NAME>
5,7-dihydroxy-8-methoxy-2-phenyl-1-benzopyran-4-one

>  <PUBCHEM_IUPAC_NAME_MARKUP>
5,7-dihydroxy-8-methoxy-2-phenylchromen-4-one

>  <PUBCHEM_IUPAC_NAME>
5,7-dihydroxy-8-methoxy-2-phenylchromen-4-one

>  <PUBCHEM_IUPAC_SYSTEMATIC_NAME>
8-methoxy-5,7-bis(oxidanyl)-2-phenyl-chromen-4-one

>  <PUBCHEM_IUPAC_TRADITIONAL_NAME>
5,7-dihydroxy-8-methoxy-2-phenyl-chromone

>  <PUBCHEM_IUPAC_INCHI>
InChI=1S/C16H12O5/c1-20-15-12(19)7-10(17)14-11(18)8-13(21-16(14)15)9-5-3-2-4-6-9/h2-8,17,19H,1H3

>  <PUBCHEM_IUPAC_INCHIKEY>
XLTFNNCXVBYBSX-UHFFFAOYSA-N

>  <PUBCHEM_XLOGP3_AA>
3

>  <PUBCHEM_EXACT_MASS>
284.068473

>  <PUBCHEM_MOLECULAR_FORMULA>
C16H12O5

>  <PUBCHEM_MOLECULAR_WEIGHT>
284.26

>  <PUBCHEM_OPENEYE_CAN_SMILES>
COC1=C(C=C(C2=C1OC(=CC2=O)C3=CC=CC=C3)O)O

>  <PUBCHEM_OPENEYE_ISO_SMILES>
COC1=C(C=C(C2=C1OC(=CC2=O)C3=CC=CC=C3)O)O

>  <PUBCHEM_CACTVS_TPSA>
76

>  <PUBCHEM_MONOISOTOPIC_WEIGHT>
284.068473

>  <PUBCHEM_TOTAL_CHARGE>
0

>  <PUBCHEM_HEAVY_ATOM_COUNT>
21

>  <PUBCHEM_ATOM_DEF_STEREO_COUNT>
0

>  <PUBCHEM_ATOM_UDEF_STEREO_COUNT>
0

>  <PUBCHEM_BOND_DEF_STEREO_COUNT>
0

>  <PUBCHEM_BOND_UDEF_STEREO_COUNT>
0

>  <PUBCHEM_ISOTOPIC_ATOM_COUNT>
0

>  <PUBCHEM_COMPONENT_COUNT>
1

>  <PUBCHEM_CACTVS_TAUTO_COUNT>
-1

>  <PUBCHEM_COORDINATE_TYPE>
1
5
255

>  <PUBCHEM_BONDANNOTATIONS>
1  7  8
1  8  8
10  12  8
11  15  8
13  16  8
13  17  8
14  15  8
16  18  8
17  19  8
18  20  8
19  20  8
6  10  8
6  11  8
6  7  8
7  9  8
8  12  8
9  14  8

>  <LF dG>
-6.434

>  <LF VSscore>
-7.672

>  <LF Rank Score>
-10.335

>  <LF LE>
-0.306

>  <Preferred Pose_cresset>
true

>  <Favorite_cresset>
false

>  <Protein_cresset>
6Y2F_P

>  <MW_cresset>
284.3

>  <#Atoms_cresset>
21

>  <SlogP_cresset>
2.6

>  <TPSA_cresset>
76

>  <Flexibility_cresset>
1.7

>  <#RB_cresset>
4

>  <Rof5_cresset>
0

>  <Filename_cresset>
Wogonin.sdf

>  <Confs_cresset>
0

>  <Poses_cresset>
10

>  <_cresset_fieldpoints>
    -5       9.047237      -2.296461      22.007444     -5.9450
    -5       6.567699      -6.393187      26.991970    -17.1590
    -5       6.222238      -4.261461      28.674444    -14.8020
    -5      12.457237      -7.675461      22.672445     -7.3160
    -5       8.739237       1.356539      27.390446     -2.2355
    -6       9.320237      -7.054461      19.829445      7.7640
    -6      11.927238      -1.681461      24.536446      4.5480
    -6      10.257237      -6.849462      28.308445      5.7510
    -6       4.162237       0.020539      25.577444      3.1040
    -6       5.098237      -1.435461      26.626446      3.3465
    -6       5.835238       4.088539      24.483444      2.8035
    -6      10.077237       4.208539      23.651445      2.8200
    -7       6.012238      -3.301461      23.658445     -2.5530
    -7      12.134237      -4.879461      25.793446     -2.2415
    -7       9.829237      -5.108461      28.409445     -1.7630
    -7      13.140238      -6.698462      22.237446     -1.6740
    -7       6.525237      -5.692461      22.708445     -1.8625
    -7      12.505238      -6.584461      20.807446     -1.6880
    -7      10.877237      -5.518461      19.747444     -1.6635
    -7       9.923237      -9.240461      21.714445     -1.2540
    -7       5.931237      -6.674461      26.851444     -1.6880
    -7       9.674237      -8.998462      27.159445     -1.2515
    -7      11.452237      -2.402461      25.494446     -2.9285
    -7       8.835238      -0.401461      27.957445     -1.9955
    -7       5.429237      -0.794461      27.685444     -1.3735
    -7       5.671237       4.414538      24.443445     -0.9675
    -7      10.115237       4.583538      23.584444     -0.9675
    -7       8.952237      -1.913461      21.759445     -2.9970
    -8       8.150237       0.632539      24.592445      7.1515
    -8       9.353237      -5.634461      24.297445      6.6065
    -8       8.378237      -3.727461      25.404446      5.0035
    -8      12.590237      -3.415461      22.486444      2.5260
    -8       7.642237      -1.305461      25.363445      5.2795

$$$$
W_Wogonoside_D
  xed2sdf_05210316543D
 
 52 55  0  0  1  0  0  0  0  0999 V2000
   13.0241   -8.0199   21.0449 O   0  0  0  0  0  0  0  0  0  0  0  0
   11.8261   -5.9699   21.6219 O   0  0  0  0  0  0  0  0  0  0  0  0
   10.0171   -9.0079   18.2719 O   0  0  0  0  0  0  0  0  0  0  0  0
    9.6761   -6.7729   20.0479 O   0  0  0  0  0  0  0  0  0  0  0  0
   11.9471  -10.9929   19.0999 O   0  0  0  0  0  0  0  0  0  0  0  0
   14.4281  -11.1509   21.2049 O   0  5  0  0  0  0  0  0  0  0  0  0
   15.0871   -9.4459   19.8359 O   0  0  0  0  0  0  0  0  0  0  0  0
    9.4611   -2.5409   23.8169 O   0  0  0  0  0  0  0  0  0  0  0  0
   11.0201   -3.4029   21.7719 O   0  0  0  0  0  0  0  0  0  0  0  0
    9.5821   -6.9779   25.6629 O   0  0  0  0  0  0  0  0  0  0  0  0
    8.3471   -5.0329   26.8059 O   0  0  0  0  0  0  0  0  0  0  0  0
   10.7401   -8.9049   19.5079 C   0  0  0  0  0  0  0  0  0  0  0  0
   10.9431   -7.4269   19.8919 C   0  0  0  0  0  0  0  0  0  0  0  0
   12.1091   -9.5969   19.3889 C   0  0  0  0  0  0  0  0  0  0  0  0
   11.7521   -7.3509   21.2029 C   0  0  0  0  0  0  0  0  0  0  0  0
   12.8761   -9.4169   20.7129 C   0  0  0  0  0  0  0  0  0  0  0  0
   14.2341  -10.0549   20.5719 C   0  0  0  0  0  0  0  0  0  0  0  0
   11.0631   -5.5869   22.6489 C   0  0  0  0  0  0  0  0  0  0  0  0
   10.6571   -4.2669   22.7399 C   0  0  0  0  0  0  0  0  0  0  0  0
   10.6971   -6.4939   23.6359 C   0  0  0  0  0  0  0  0  0  0  0  0
    9.8641   -3.8419   23.7979 C   0  0  0  0  0  0  0  0  0  0  0  0
    9.5061   -4.7589   24.7869 C   0  0  0  0  0  0  0  0  0  0  0  0
    9.9311   -6.0889   24.6969 C   0  0  0  0  0  0  0  0  0  0  0  0
    8.6911   -4.2889   25.8879 C   0  0  0  0  0  0  0  0  0  0  0  0
    8.6781   -2.1149   24.8609 C   0  0  0  0  0  0  0  0  0  0  0  0
    8.2871   -2.9299   25.8849 C   0  0  0  0  0  0  0  0  0  0  0  0
    8.2561   -0.6909   24.8209 C   0  0  0  0  0  0  0  0  0  0  0  0
   10.4131   -3.5689   20.4749 C   0  0  0  0  0  0  0  0  0  0  0  0
    8.6951    0.1021   23.7719 C   0  0  0  0  0  0  0  0  0  0  0  0
    7.4421   -0.1159   25.7869 C   0  0  0  0  0  0  0  0  0  0  0  0
    8.3311    1.4241   23.6859 C   0  0  0  0  0  0  0  0  0  0  0  0
    7.0801    1.2061   25.7009 C   0  0  0  0  0  0  0  0  0  0  0  0
    7.5221    1.9791   24.6519 C   0  0  0  0  0  0  0  0  0  0  0  0
   10.2031   -9.3579   20.2209 H   0  0  0  0  0  0  0  0  0  0  0  0
   11.4471   -6.9619   19.1639 H   0  0  0  0  0  0  0  0  0  0  0  0
   12.6241   -9.1819   18.6389 H   0  0  0  0  0  0  0  0  0  0  0  0
   11.3001   -7.8429   21.9459 H   0  0  0  0  0  0  0  0  0  0  0  0
   12.3611   -9.8539   21.4499 H   0  0  0  0  0  0  0  0  0  0  0  0
   10.1461   -8.1879   17.7039 H   0  0  0  0  0  0  0  0  0  0  0  0
    8.9221   -7.3509   19.7159 H   0  0  0  0  0  0  0  0  0  0  0  0
   10.9781  -11.2619   19.1289 H   0  0  0  0  0  0  0  0  0  0  0  0
    8.7791   -7.5199   25.3909 H   0  0  0  0  0  0  0  0  0  0  0  0
   10.9951   -7.4469   23.5709 H   0  0  0  0  0  0  0  0  0  0  0  0
    7.7211   -2.5699   26.6259 H   0  0  0  0  0  0  0  0  0  0  0  0
    9.7841   -4.3459   20.5079 H   0  0  0  0  0  0  0  0  0  0  0  0
    9.9121   -2.7399   20.2269 H   0  0  0  0  0  0  0  0  0  0  0  0
   11.1221   -3.7379   19.7899 H   0  0  0  0  0  0  0  0  0  0  0  0
    9.2841   -0.2929   23.0669 H   0  0  0  0  0  0  0  0  0  0  0  0
    7.1161   -0.6709   26.5529 H   0  0  0  0  0  0  0  0  0  0  0  0
    8.6541    1.9831   22.9229 H   0  0  0  0  0  0  0  0  0  0  0  0
    6.4931    1.6091   26.4039 H   0  0  0  0  0  0  0  0  0  0  0  0
    7.2561    2.9411   24.5899 H   0  0  0  0  0  0  0  0  0  0  0  0
  1 15  1  0
  1 16  1  0
  2 18  1  0
  6 17  1  0
  7 17  2  0
  8 21  1  0
  8 25  1  0
  9 19  1  0
  9 28  1  0
 10 23  1  0
 11 24  2  0
 12  3  1  0
 12 13  1  0
 12 14  1  0
 13  4  1  0
 13 15  1  0
 14  5  1  0
 14 16  1  0
 15  2  1  0
 16 17  1  0
 18 19  2  0
 18 20  1  0
 19 21  1  0
 20 23  2  0
 21 22  2  0
 22 23  1  0
 22 24  1  0
 24 26  1  0
 25 26  2  0
 25 27  1  0
 27 29  2  0
 27 30  1  0
 29 31  1  0
 30 32  2  0
 31 33  2  0
 32 33  1  0
  3 39  1  0
  4 40  1  0
  5 41  1  0
 10 42  1  0
 12 34  1  0
 13 35  1  0
 14 36  1  0
 15 37  1  0
 16 38  1  0
 20 43  1  0
 26 44  1  0
 28 45  1  0
 28 46  1  0
 28 47  1  0
 29 48  1  0
 30 49  1  0
 31 50  1  0
 32 51  1  0
 33 52  1  0
M  CHG  1   6  -1
M  END
>  <BioMolTech Lead Finder dG>
-6.49

>  <BioMolTech Lead Finder VSscore>
-10.219

>  <BioMolTech Lead Finder Rank score>
-11.224

>  <BioMolTech Lead Finder LE>
-0.197

>  <BioMolTech Lead Finder Structure Name>
/var/folders/xd/y7jw_xv579q2qqq7kks92xd80000gn/T/LeadFinder_23195_1/Ligand_1.sdf

>  <BioMolTech Lead Finder SDF id>
0

>  <BioMolTech Lead Finder Pose rank>
0

>  <BioMolTech Lead Finder version>
2001 1, 19 January 2019

>  <PUBCHEM_COMPOUND_CID>
3084961

>  <PUBCHEM_COMPOUND_CANONICALIZED>
1

>  <PUBCHEM_CACTVS_COMPLEXITY>
763

>  <PUBCHEM_CACTVS_HBOND_ACCEPTOR>
11

>  <PUBCHEM_CACTVS_HBOND_DONOR>
5

>  <PUBCHEM_CACTVS_ROTATABLE_BOND>
5

>  <PUBCHEM_CACTVS_SUBSKEYS>
AAADceB4PAAAAAAAAAAAAAAAAAAAAAAAAAA0YIEAAAAAAACBQAAAGgAACAAADBSwmAMyDoAABgCIAqDSCAICCAAkIAAIiAFGiMgdNzaGNR6ieWKl4BUPuQfK7LzOIQABCAAIQABCAAIQABCAAAAAAAAAAA==

>  <PUBCHEM_IUPAC_OPENEYE_NAME>
(2S,3S,4S,5R,6S)-3,4,5-trihydroxy-6-(5-hydroxy-8-methoxy-4-oxo-2-phenyl-chromen-7-yl)oxy-tetrahydropyran-2-carboxylic acid

>  <PUBCHEM_IUPAC_CAS_NAME>
(2S,3S,4S,5R,6S)-3,4,5-trihydroxy-6-[(5-hydroxy-8-methoxy-4-oxo-2-phenyl-1-benzopyran-7-yl)oxy]-2-oxanecarboxylic acid

>  <PUBCHEM_IUPAC_NAME_MARKUP>
(2<I>S</I>,3<I>S</I>,4<I>S</I>,5<I>R</I>,6<I>S</I>)-3,4,5-trihydroxy-6-(5-hydroxy-8-methoxy-4-oxo-2-phenylchromen-7-yl)oxyoxane-2-carboxylic acid

>  <PUBCHEM_IUPAC_NAME>
(2S,3S,4S,5R,6S)-3,4,5-trihydroxy-6-(5-hydroxy-8-methoxy-4-oxo-2-phenylchromen-7-yl)oxyoxane-2-carboxylic acid

>  <PUBCHEM_IUPAC_SYSTEMATIC_NAME>
(2S,3S,4S,5R,6S)-6-(8-methoxy-5-oxidanyl-4-oxidanylidene-2-phenyl-chromen-7-yl)oxy-3,4,5-tris(oxidanyl)oxane-2-carboxylic acid

>  <PUBCHEM_IUPAC_TRADITIONAL_NAME>
(2S,3S,4S,5R,6S)-3,4,5-trihydroxy-6-(5-hydroxy-4-keto-8-methoxy-2-phenyl-chromen-7-yl)oxy-tetrahydropyran-2-carboxylic acid

>  <PUBCHEM_IUPAC_INCHI>
InChI=1S/C22H20O11/c1-30-18-13(32-22-17(27)15(25)16(26)20(33-22)21(28)29)8-11(24)14-10(23)7-12(31-19(14)18)9-5-3-2-4-6-9/h2-8,15-17,20,22,24-27H,1H3,(H,28,29)/t15-,16-,17+,20-,22+/m0/s1

>  <PUBCHEM_IUPAC_INCHIKEY>
LNOHXHDWGCMVCO-NTKSAMNMSA-N

>  <PUBCHEM_XLOGP3_AA>
1.4

>  <PUBCHEM_EXACT_MASS>
460.100561

>  <PUBCHEM_MOLECULAR_FORMULA>
C22H20O11

>  <PUBCHEM_MOLECULAR_WEIGHT>
460.4

>  <PUBCHEM_OPENEYE_CAN_SMILES>
COC1=C(C=C(C2=C1OC(=CC2=O)C3=CC=CC=C3)O)OC4C(C(C(C(O4)C(=O)O)O)O)O

>  <PUBCHEM_OPENEYE_ISO_SMILES>
COC1=C(C=C(C2=C1OC(=CC2=O)C3=CC=CC=C3)O)O[C@H]4[C@@H]([C@H]([C@@H]([C@H](O4)C(=O)O)O)O)O

>  <PUBCHEM_CACTVS_TPSA>
172

>  <PUBCHEM_MONOISOTOPIC_WEIGHT>
460.100561

>  <PUBCHEM_TOTAL_CHARGE>
0

>  <PUBCHEM_HEAVY_ATOM_COUNT>
33

>  <PUBCHEM_ATOM_DEF_STEREO_COUNT>
5

>  <PUBCHEM_ATOM_UDEF_STEREO_COUNT>
0

>  <PUBCHEM_BOND_DEF_STEREO_COUNT>
0

>  <PUBCHEM_BOND_UDEF_STEREO_COUNT>
0

>  <PUBCHEM_ISOTOPIC_ATOM_COUNT>
0

>  <PUBCHEM_COMPONENT_COUNT>
1

>  <PUBCHEM_CACTVS_TAUTO_COUNT>
-1

>  <PUBCHEM_COORDINATE_TYPE>
1
5
255

>  <PUBCHEM_BONDANNOTATIONS>
16  17  5
18  19  8
18  20  8
19  21  8
15  2  5
20  23  8
21  22  8
22  23  8
22  24  8
24  26  8
25  26  8
27  29  8
27  30  8
29  31  8
12  3  5
30  32  8
31  33  8
32  33  8
13  4  6
14  5  6
8  21  8
8  25  8

>  <LF dG>
-6.49

>  <LF VSscore>
-10.219

>  <LF Rank Score>
-11.224

>  <LF LE>
-0.197

>  <Preferred Pose_cresset>
true

>  <Favorite_cresset>
false

>  <Protein_cresset>
6Y2F_P

>  <MW_cresset>
459.4

>  <#Atoms_cresset>
33

>  <SlogP_cresset>
1.4

>  <TPSA_cresset>
175

>  <Flexibility_cresset>
7.6

>  <#RB_cresset>
9

>  <Rof5_cresset>
1

>  <Filename_cresset>
Wogonoside.sdf

>  <Confs_cresset>
0

>  <Poses_cresset>
10

>  <_cresset_fieldpoints>
    -5      14.739125      -7.373948      19.991926     -9.7250
    -5      13.534125      -4.207948      21.488926     -8.1240
    -5      16.581125     -10.503948      19.909925    -11.4995
    -5      13.367126     -12.142948      18.741926     -9.6605
    -5       7.591125      -2.360948      22.089926     -2.2515
    -5      16.160126     -11.594948      20.761927    -11.3445
    -5       5.553125      -0.106948      23.104927     -3.4685
    -5      10.491125       1.174052      26.143927     -4.5100
    -5       9.343125      -6.468948      27.616926    -13.6335
    -6       8.091125      -8.568948      20.783926      7.8330
    -6       9.958125      -9.488948      22.474926      8.5045
    -6       8.776125      -7.038948      17.817926      8.3970
    -6       9.761126     -11.498948      20.525927      6.6600
    -6       7.797125       4.436052      22.786926      2.1960
    -6       5.614125       0.101052      28.207926      2.4390
    -6       5.715125       3.951052      26.284925      2.3640
    -7      14.286125      -7.005948      19.147926     -2.4840
    -7      12.334126     -12.603949      20.843925     -1.8235
    -7       8.004126      -6.095948      21.548925     -3.1765
    -7       8.362125      -7.801948      21.866926     -2.8910
    -7       7.906125      -7.890948      17.836926     -1.4045
    -7      12.093125      -7.532948      16.673927     -1.6620
    -7       9.225125      -5.536948      18.050926     -1.9620
    -7       9.969126      -9.747948      22.807926     -2.5145
    -7      10.672125     -10.819948      16.797926     -1.5580
    -7      13.401125      -5.040948      19.647926     -2.2965
    -7      12.892125      -4.305948      25.398926     -1.8925
    -7      13.665125      -8.085948      23.583927     -2.2940
    -7       6.655126      -6.489948      25.429926     -1.7975
    -7      10.399125      -5.995948      27.947926     -1.6445
    -7      10.593125     -11.796947      21.344927     -1.8075
    -7      11.292126      -1.944948      26.117926     -2.4140
    -7       5.340125      -0.433948      23.032927     -1.7905
    -7       7.642125      -2.476948      21.914927     -2.9510
    -7      11.683125      -1.143948      23.436926     -2.5430
    -7       5.632125       4.201052      26.387926     -0.9675
    -7      10.570126       1.238052      26.474926     -1.7850
    -7       8.008125       4.614052      22.559927     -0.9670
    -8      11.559125      -8.634948      20.155926      5.1910
    -8      10.271125      -5.190948      23.739925      6.6165
    -8      10.028126      -3.651948      19.690926      2.5030
    -8       7.887125       0.648052      24.739925      7.1500
    -8       8.996125      -3.636948      25.081926      5.0120
    -8       7.987125      -1.421948      25.596926      5.4420

$$$$
Untitled
  xed2sdf_05210316543D
 
 52 55  0  0  1  0  0  0  0  0999 V2000
   10.1997    0.5723   20.0160 O   0  0  0  0  0  0  0  0  0  0  0  0
   10.9037    1.2163   22.2660 O   0  0  0  0  0  0  0  0  0  0  0  0
   12.1907    3.9193   18.4240 O   0  0  0  0  0  0  0  0  0  0  0  0
   11.9317    3.6033   21.2700 O   0  0  0  0  0  0  0  0  0  0  0  0
   10.2957    2.4483   16.8140 O   0  0  0  0  0  0  0  0  0  0  0  0
    8.1867   -0.2677   17.5210 O   0  5  0  0  0  0  0  0  0  0  0  0
   10.4017   -0.8167   17.4470 O   0  0  0  0  0  0  0  0  0  0  0  0
    9.0267   -2.7107   24.0630 O   0  0  0  0  0  0  0  0  0  0  0  0
   10.8727   -1.4677   22.5120 O   0  0  0  0  0  0  0  0  0  0  0  0
    7.1357    1.5843   25.1030 O   0  0  0  0  0  0  0  0  0  0  0  0
    6.1607   -0.6167   26.0070 O   0  0  0  0  0  0  0  0  0  0  0  0
   11.1617    3.1053   19.0050 C   0  0  0  0  0  0  0  0  0  0  0  0
   11.6257    2.5373   20.3600 C   0  0  0  0  0  0  0  0  0  0  0  0
   10.7977    1.9463   18.0610 C   0  0  0  0  0  0  0  0  0  0  0  0
   10.5137    1.6393   20.9400 C   0  0  0  0  0  0  0  0  0  0  0  0
    9.7337    1.0643   18.7410 C   0  0  0  0  0  0  0  0  0  0  0  0
    9.4167   -0.0947   17.8320 C   0  0  0  0  0  0  0  0  0  0  0  0
    9.9747    0.6453   23.0370 C   0  0  0  0  0  0  0  0  0  0  0  0
    9.9437   -0.7337   23.1570 C   0  0  0  0  0  0  0  0  0  0  0  0
    9.0267    1.4193   23.6940 C   0  0  0  0  0  0  0  0  0  0  0  0
    8.9877   -1.3537   23.9500 C   0  0  0  0  0  0  0  0  0  0  0  0
    8.0367   -0.5677   24.6030 C   0  0  0  0  0  0  0  0  0  0  0  0
    8.0637    0.8243   24.4660 C   0  0  0  0  0  0  0  0  0  0  0  0
    7.0407   -1.2387   25.4130 C   0  0  0  0  0  0  0  0  0  0  0  0
    8.0837   -3.3287   24.8460 C   0  0  0  0  0  0  0  0  0  0  0  0
    7.1037   -2.6517   25.5120 C   0  0  0  0  0  0  0  0  0  0  0  0
    8.1867   -4.8077   24.9450 C   0  0  0  0  0  0  0  0  0  0  0  0
   12.0727   -1.7997   23.2390 C   0  0  0  0  0  0  0  0  0  0  0  0
    9.2287   -5.4467   24.2890 C   0  0  0  0  0  0  0  0  0  0  0  0
    7.2847   -5.5807   25.6630 C   0  0  0  0  0  0  0  0  0  0  0  0
    9.3697   -6.8117   24.3510 C   0  0  0  0  0  0  0  0  0  0  0  0
    7.4267   -6.9467   25.7230 C   0  0  0  0  0  0  0  0  0  0  0  0
    8.4687   -7.5647   25.0690 C   0  0  0  0  0  0  0  0  0  0  0  0
   10.3557    3.6783   19.1490 H   0  0  0  0  0  0  0  0  0  0  0  0
   12.4537    1.9933   20.2250 H   0  0  0  0  0  0  0  0  0  0  0  0
   11.6167    1.4053   17.8710 H   0  0  0  0  0  0  0  0  0  0  0  0
    9.6537    2.1373   21.0490 H   0  0  0  0  0  0  0  0  0  0  0  0
    8.9137    1.6113   18.9070 H   0  0  0  0  0  0  0  0  0  0  0  0
   13.1067    3.5683   18.6490 H   0  0  0  0  0  0  0  0  0  0  0  0
   11.2387    3.6753   21.9960 H   0  0  0  0  0  0  0  0  0  0  0  0
   10.7707    2.0263   16.0330 H   0  0  0  0  0  0  0  0  0  0  0  0
    6.8317    2.3533   24.5290 H   0  0  0  0  0  0  0  0  0  0  0  0
    9.0477    2.4153   23.6030 H   0  0  0  0  0  0  0  0  0  0  0  0
    6.4347   -3.1477   26.0650 H   0  0  0  0  0  0  0  0  0  0  0  0
   12.0167   -1.4077   24.1570 H   0  0  0  0  0  0  0  0  0  0  0  0
   12.1647   -2.7937   23.3010 H   0  0  0  0  0  0  0  0  0  0  0  0
   12.8687   -1.4287   22.7610 H   0  0  0  0  0  0  0  0  0  0  0  0
    9.8857   -4.9057   23.7640 H   0  0  0  0  0  0  0  0  0  0  0  0
    6.5257   -5.1407   26.1410 H   0  0  0  0  0  0  0  0  0  0  0  0
   10.1267   -7.2577   23.8750 H   0  0  0  0  0  0  0  0  0  0  0  0
    6.7707   -7.4937   26.2440 H   0  0  0  0  0  0  0  0  0  0  0  0
    8.5707   -8.5587   25.1150 H   0  0  0  0  0  0  0  0  0  0  0  0
  1 15  1  0
  1 16  1  0
  2 18  1  0
  6 17  1  0
  7 17  2  0
  8 21  1  0
  8 25  1  0
  9 19  1  0
  9 28  1  0
 10 23  1  0
 11 24  2  0
 12  3  1  0
 12 13  1  0
 12 14  1  0
 13  4  1  0
 13 15  1  0
 14  5  1  0
 14 16  1  0
 15  2  1  0
 16 17  1  0
 18 19  2  0
 18 20  1  0
 19 21  1  0
 20 23  2  0
 21 22  2  0
 22 23  1  0
 22 24  1  0
 24 26  1  0
 25 26  2  0
 25 27  1  0
 27 29  2  0
 27 30  1  0
 29 31  1  0
 30 32  2  0
 31 33  2  0
 32 33  1  0
  3 39  1  0
  4 40  1  0
  5 41  1  0
 10 42  1  0
 12 34  1  0
 13 35  1  0
 14 36  1  0
 15 37  1  0
 16 38  1  0
 20 43  1  0
 26 44  1  0
 28 45  1  0
 28 46  1  0
 28 47  1  0
 29 48  1  0
 30 49  1  0
 31 50  1  0
 32 51  1  0
 33 52  1  0
M  CHG  1   6  -1
M  END
>  <BioMolTech Lead Finder dG>
-7.583

>  <BioMolTech Lead Finder VSscore>
-11.127

>  <BioMolTech Lead Finder Rank score>
-11.993

>  <BioMolTech Lead Finder LE>
-0.23

>  <BioMolTech Lead Finder Structure Name>
/var/folders/xd/y7jw_xv579q2qqq7kks92xd80000gn/T/LeadFinder_21449_1/Ligand_1.sdf

>  <BioMolTech Lead Finder SDF id>
0

>  <BioMolTech Lead Finder Pose rank>
0

>  <BioMolTech Lead Finder version>
2001 1, 19 January 2019

>  <PUBCHEM_COMPOUND_CID>
3084961

>  <PUBCHEM_COMPOUND_CANONICALIZED>
1

>  <PUBCHEM_CACTVS_COMPLEXITY>
763

>  <PUBCHEM_CACTVS_HBOND_ACCEPTOR>
11

>  <PUBCHEM_CACTVS_HBOND_DONOR>
5

>  <PUBCHEM_CACTVS_ROTATABLE_BOND>
5

>  <PUBCHEM_CACTVS_SUBSKEYS>
AAADceB4PAAAAAAAAAAAAAAAAAAAAAAAAAA0YIEAAAAAAACBQAAAGgAACAAADBSwmAMyDoAABgCIAqDSCAICCAAkIAAIiAFGiMgdNzaGNR6ieWKl4BUPuQfK7LzOIQABCAAIQABCAAIQABCAAAAAAAAAAA==

>  <PUBCHEM_IUPAC_OPENEYE_NAME>
(2S,3S,4S,5R,6S)-3,4,5-trihydroxy-6-(5-hydroxy-8-methoxy-4-oxo-2-phenyl-chromen-7-yl)oxy-tetrahydropyran-2-carboxylic acid

>  <PUBCHEM_IUPAC_CAS_NAME>
(2S,3S,4S,5R,6S)-3,4,5-trihydroxy-6-[(5-hydroxy-8-methoxy-4-oxo-2-phenyl-1-benzopyran-7-yl)oxy]-2-oxanecarboxylic acid

>  <PUBCHEM_IUPAC_NAME_MARKUP>
(2<I>S</I>,3<I>S</I>,4<I>S</I>,5<I>R</I>,6<I>S</I>)-3,4,5-trihydroxy-6-(5-hydroxy-8-methoxy-4-oxo-2-phenylchromen-7-yl)oxyoxane-2-carboxylic acid

>  <PUBCHEM_IUPAC_NAME>
(2S,3S,4S,5R,6S)-3,4,5-trihydroxy-6-(5-hydroxy-8-methoxy-4-oxo-2-phenylchromen-7-yl)oxyoxane-2-carboxylic acid

>  <PUBCHEM_IUPAC_SYSTEMATIC_NAME>
(2S,3S,4S,5R,6S)-6-(8-methoxy-5-oxidanyl-4-oxidanylidene-2-phenyl-chromen-7-yl)oxy-3,4,5-tris(oxidanyl)oxane-2-carboxylic acid

>  <PUBCHEM_IUPAC_TRADITIONAL_NAME>
(2S,3S,4S,5R,6S)-3,4,5-trihydroxy-6-(5-hydroxy-4-keto-8-methoxy-2-phenyl-chromen-7-yl)oxy-tetrahydropyran-2-carboxylic acid

>  <PUBCHEM_IUPAC_INCHI>
InChI=1S/C22H20O11/c1-30-18-13(32-22-17(27)15(25)16(26)20(33-22)21(28)29)8-11(24)14-10(23)7-12(31-19(14)18)9-5-3-2-4-6-9/h2-8,15-17,20,22,24-27H,1H3,(H,28,29)/t15-,16-,17+,20-,22+/m0/s1

>  <PUBCHEM_IUPAC_INCHIKEY>
LNOHXHDWGCMVCO-NTKSAMNMSA-N

>  <PUBCHEM_XLOGP3_AA>
1.4

>  <PUBCHEM_EXACT_MASS>
460.100561

>  <PUBCHEM_MOLECULAR_FORMULA>
C22H20O11

>  <PUBCHEM_MOLECULAR_WEIGHT>
460.4

>  <PUBCHEM_OPENEYE_CAN_SMILES>
COC1=C(C=C(C2=C1OC(=CC2=O)C3=CC=CC=C3)O)OC4C(C(C(C(O4)C(=O)O)O)O)O

>  <PUBCHEM_OPENEYE_ISO_SMILES>
COC1=C(C=C(C2=C1OC(=CC2=O)C3=CC=CC=C3)O)O[C@H]4[C@@H]([C@H]([C@@H]([C@H](O4)C(=O)O)O)O)O

>  <PUBCHEM_CACTVS_TPSA>
172

>  <PUBCHEM_MONOISOTOPIC_WEIGHT>
460.100561

>  <PUBCHEM_TOTAL_CHARGE>
0

>  <PUBCHEM_HEAVY_ATOM_COUNT>
33

>  <PUBCHEM_ATOM_DEF_STEREO_COUNT>
5

>  <PUBCHEM_ATOM_UDEF_STEREO_COUNT>
0

>  <PUBCHEM_BOND_DEF_STEREO_COUNT>
0

>  <PUBCHEM_BOND_UDEF_STEREO_COUNT>
0

>  <PUBCHEM_ISOTOPIC_ATOM_COUNT>
0

>  <PUBCHEM_COMPONENT_COUNT>
1

>  <PUBCHEM_CACTVS_TAUTO_COUNT>
-1

>  <PUBCHEM_COORDINATE_TYPE>
1
5
255

>  <PUBCHEM_BONDANNOTATIONS>
16  17  5
18  19  8
18  20  8
19  21  8
15  2  5
20  23  8
21  22  8
22  23  8
22  24  8
24  26  8
25  26  8
27  29  8
27  30  8
29  31  8
12  3  5
30  32  8
31  33  8
32  33  8
13  4  6
14  5  6
8  21  8
8  25  8

>  <LF dG>
-7.583

>  <LF VSscore>
-11.127

>  <LF Rank Score>
-11.993

>  <LF LE>
-0.23

>  <Preferred Pose_cresset>
true

>  <Favorite_cresset>
false

>  <Protein_cresset>
6Y2F_P

>  <MW_cresset>
459.4

>  <#Atoms_cresset>
33

>  <SlogP_cresset>
1.4

>  <TPSA_cresset>
175

>  <Flexibility_cresset>
7.6

>  <#RB_cresset>
9

>  <Rof5_cresset>
1

>  <Filename_cresset>
Wogonoside.sdf

>  <Confs_cresset>
0

>  <Poses_cresset>
10

>  <_cresset_fieldpoints>
    -5       9.493676      -2.142651      16.422005    -10.9840
    -5      12.372676       5.130348      20.202003    -13.1955
    -5      11.215361       4.342287      16.832012    -15.9015
    -5      10.763676      -1.230651      20.326004    -13.3575
    -5       6.070728       1.156374      26.635067    -22.6835
    -5       8.216676      -1.800651      16.445004    -11.1650
    -5      10.019676      -6.049651      27.387005     -2.5800
    -5       6.773676      -6.497651      22.540005     -2.9280
    -6      12.386676       1.228349      15.530005      8.0890
    -6      14.001676       1.883349      18.496004      9.3980
    -6       9.372676       3.956349      22.320004     13.9015
    -6       7.374676       3.714349      23.298004     11.3245
    -6       5.002676      -4.521651      27.209003      3.6030
    -6      12.071676      -5.144651      23.354004      3.2060
    -6      11.444675      -3.300651      25.673004      2.5710
    -6       6.930676      -9.846651      26.428003      2.6900
    -6      10.353676      -9.707651      24.055004      2.6335
    -7      12.019676      -0.952651      19.973003     -3.3730
    -7      13.486675       1.196349      22.789003     -2.3345
    -7      11.076675      -0.091651      26.303003     -2.2935
    -7      12.660676       2.728349      23.558004     -2.1910
    -7      12.727676       3.501349      16.083004     -1.5800
    -7      14.177675       1.555349      18.294004     -1.6390
    -7       8.065676       1.963349      16.060003     -1.7155
    -7       9.119676       4.443349      21.877005     -2.2520
    -7      13.162676       5.423348      20.168003     -1.5325
    -7       8.200676       3.734349      17.370005     -1.6700
    -7       7.596676      -0.091651      20.813004     -3.0740
    -7       6.572676      -2.984651      22.388004     -2.4285
    -7       9.342676      -3.635651      21.593004     -2.7215
    -7      11.616676      -0.038651      15.562004     -1.5585
    -7       4.801676       0.863349      24.432003     -1.7580
    -7       7.923676       3.700349      20.207005     -2.0260
    -7       7.272676       0.975349      27.656004     -1.6485
    -7       8.021676       3.870349      25.855003     -1.2685
    -7      10.818676      -2.972651      26.075005     -2.9675
    -7       6.458676      -6.259651      22.351004     -1.7850
    -7      10.158676      -5.603651      27.629004     -1.7955
    -7      10.603676      -9.946651      23.919004     -0.9675
    -7       6.852676     -10.213651      26.456005     -0.9675
    -8      10.712676       2.191349      19.382004      5.1670
    -8       8.983676       0.051349      23.834003      6.6140
    -8       8.326675      -6.190651      25.008003      7.1510
    -8       7.424676      -4.182652      25.426004      5.4425
    -8       7.816676      -1.781651      24.889004      5.0135
    -8      12.782676      -1.981651      23.719004      2.5270

$$$$
W_NHC_D
  xed2sdf_05210316543D
 
 31 32  0  0  1  0  0  0  0  0999 V2000
    8.5940    0.3834   22.8347 O   0  0  0  0  0  0  0  0  0  0  0  0
    7.1100    2.0744   25.3127 O   0  0  0  0  0  0  0  0  0  0  0  0
    9.4440    3.2164   24.8847 O   0  0  0  0  0  0  0  0  0  0  0  0
   10.4590    2.8654   21.2667 O   0  0  0  0  0  0  0  0  0  0  0  0
    6.2670   -0.8946   26.0537 O   0  0  0  0  0  0  0  0  0  0  0  0
    7.5050   -5.4766   27.1027 O   0  0  0  0  0  0  0  0  0  0  0  0
    7.8720   -1.2266   24.4917 N   0  0  0  0  0  0  0  0  0  0  0  0
    7.2360   -2.8376   26.1427 N   0  0  0  0  0  0  0  0  0  0  0  0
    8.4030   -4.8866   26.1417 N   0  0  0  0  0  0  0  0  0  0  0  0
    8.1580    1.1264   25.0647 C   0  0  0  0  0  0  0  0  0  0  0  0
    9.3920    1.8374   24.4907 C   0  0  0  0  0  0  0  0  0  0  0  0
    7.7340    0.1384   23.9627 C   0  0  0  0  0  0  0  0  0  0  0  0
    9.1910    1.6794   22.9807 C   0  0  0  0  0  0  0  0  0  0  0  0
   10.5200    1.7934   22.2187 C   0  0  0  0  0  0  0  0  0  0  0  0
    8.7830   -2.0536   23.9617 C   0  0  0  0  0  0  0  0  0  0  0  0
    7.1250   -1.6226   25.5427 C   0  0  0  0  0  0  0  0  0  0  0  0
    8.9520   -3.2716   24.5067 C   0  0  0  0  0  0  0  0  0  0  0  0
    8.1660   -3.6716   25.6337 C   0  0  0  0  0  0  0  0  0  0  0  0
    8.3500    0.6704   25.9337 H   0  0  0  0  0  0  0  0  0  0  0  0
   10.2570    1.4574   24.8167 H   0  0  0  0  0  0  0  0  0  0  0  0
    6.7840    0.2514   23.6747 H   0  0  0  0  0  0  0  0  0  0  0  0
    8.6150    2.3994   22.5947 H   0  0  0  0  0  0  0  0  0  0  0  0
    6.9670    2.6764   24.5197 H   0  0  0  0  0  0  0  0  0  0  0  0
    8.9220    3.3754   25.7297 H   0  0  0  0  0  0  0  0  0  0  0  0
    9.6630    2.7704   20.6587 H   0  0  0  0  0  0  0  0  0  0  0  0
    7.9810   -6.1446   27.6857 H   0  0  0  0  0  0  0  0  0  0  0  0
    9.1150   -5.3336   25.8817 H   0  0  0  0  0  0  0  0  0  0  0  0
   11.2610    1.9684   22.8677 H   0  0  0  0  0  0  0  0  0  0  0  0
   10.6890    0.9364   21.7327 H   0  0  0  0  0  0  0  0  0  0  0  0
    9.3280   -1.7696   23.1727 H   0  0  0  0  0  0  0  0  0  0  0  0
    9.6300   -3.8996   24.1237 H   0  0  0  0  0  0  0  0  0  0  0  0
  1 12  1  0
  1 13  1  0
  4 14  1  0
  5 16  2  0
  6  9  1  0
  7 15  1  0
  7 16  1  0
  8 16  1  0
  8 18  2  0
  9 18  1  0
 10  2  1  0
 10 11  1  0
 10 12  1  0
 11  3  1  0
 11 13  1  0
 12  7  1  0
 13 14  1  0
 15 17  2  0
 17 18  1  0
  2 23  1  0
  3 24  1  0
  4 25  1  0
  6 26  1  0
  9 27  1  0
 10 19  1  0
 11 20  1  0
 12 21  1  0
 13 22  1  0
 14 28  1  0
 14 29  1  0
 15 30  1  0
 17 31  1  0
M  END
>  <BioMolTech Lead Finder dG>
-5.931

>  <BioMolTech Lead Finder VSscore>
-7.995

>  <BioMolTech Lead Finder Rank score>
-8.271

>  <BioMolTech Lead Finder LE>
-0.33

>  <BioMolTech Lead Finder Structure Name>
/var/folders/xd/y7jw_xv579q2qqq7kks92xd80000gn/T/LeadFinder_23742_1/Ligand_1.sdf

>  <BioMolTech Lead Finder SDF id>
0

>  <BioMolTech Lead Finder Pose rank>
0

>  <BioMolTech Lead Finder version>
2001 1, 19 January 2019

>  <PUBCHEM_COMPOUND_CID>
197020

>  <PUBCHEM_COMPOUND_CANONICALIZED>
1

>  <PUBCHEM_CACTVS_COMPLEXITY>
398

>  <PUBCHEM_CACTVS_HBOND_ACCEPTOR>
6

>  <PUBCHEM_CACTVS_HBOND_DONOR>
5

>  <PUBCHEM_CACTVS_ROTATABLE_BOND>
3

>  <PUBCHEM_CACTVS_SUBSKEYS>
AAADccBzOAAAAAAAAAAAAAAAAAAAASAAAAAgAAAAAAAAAAAAAAAAHgAUCAAACBThgAYBAANQBgCoACJmdACAAAEAAgAoAAAYABCDEAIAgAAOQAAHFgITAADwMAIAAAAAAAAAAAAAAAAAAAAAAAAAAAAAAA==

>  <PUBCHEM_IUPAC_OPENEYE_NAME>
1-[(2R,3R,4S,5R)-3,4-dihydroxy-5-(hydroxymethyl)tetrahydrofuran-2-yl]-4-(hydroxyamino)pyrimidin-2-one

>  <PUBCHEM_IUPAC_CAS_NAME>
1-[(2R,3R,4S,5R)-3,4-dihydroxy-5-(hydroxymethyl)-2-oxolanyl]-4-(hydroxyamino)-2-pyrimidinone

>  <PUBCHEM_IUPAC_NAME_MARKUP>
1-[(2<I>R</I>,3<I>R</I>,4<I>S</I>,5<I>R</I>)-3,4-dihydroxy-5-(hydroxymethyl)oxolan-2-yl]-4-(hydroxyamino)pyrimidin-2-one

>  <PUBCHEM_IUPAC_NAME>
1-[(2R,3R,4S,5R)-3,4-dihydroxy-5-(hydroxymethyl)oxolan-2-yl]-4-(hydroxyamino)pyrimidin-2-one

>  <PUBCHEM_IUPAC_SYSTEMATIC_NAME>
1-[(2R,3R,4S,5R)-5-(hydroxymethyl)-3,4-bis(oxidanyl)oxolan-2-yl]-4-(oxidanylamino)pyrimidin-2-one

>  <PUBCHEM_IUPAC_TRADITIONAL_NAME>
1-[(2R,3R,4S,5R)-3,4-dihydroxy-5-methylol-tetrahydrofuran-2-yl]-4-(hydroxyamino)pyrimidin-2-one

>  <PUBCHEM_IUPAC_INCHI>
InChI=1S/C9H13N3O6/c13-3-4-6(14)7(15)8(18-4)12-2-1-5(11-17)10-9(12)16/h1-2,4,6-8,13-15,17H,3H2,(H,10,11,16)/t4-,6-,7-,8-/m1/s1

>  <PUBCHEM_IUPAC_INCHIKEY>
XCUAIINAJCDIPM-XVFCMESISA-N

>  <PUBCHEM_XLOGP3>
-2.2

>  <PUBCHEM_EXACT_MASS>
259.080435

>  <PUBCHEM_MOLECULAR_FORMULA>
C9H13N3O6

>  <PUBCHEM_MOLECULAR_WEIGHT>
259.22

>  <PUBCHEM_OPENEYE_CAN_SMILES>
C1=CN(C(=O)N=C1NO)C2C(C(C(O2)CO)O)O

>  <PUBCHEM_OPENEYE_ISO_SMILES>
C1=CN(C(=O)N=C1NO)[C@H]2[C@@H]([C@@H]([C@H](O2)CO)O)O

>  <PUBCHEM_CACTVS_TPSA>
135

>  <PUBCHEM_MONOISOTOPIC_WEIGHT>
259.080435

>  <PUBCHEM_TOTAL_CHARGE>
0

>  <PUBCHEM_HEAVY_ATOM_COUNT>
18

>  <PUBCHEM_ATOM_DEF_STEREO_COUNT>
4

>  <PUBCHEM_ATOM_UDEF_STEREO_COUNT>
0

>  <PUBCHEM_BOND_DEF_STEREO_COUNT>
0

>  <PUBCHEM_BOND_UDEF_STEREO_COUNT>
0

>  <PUBCHEM_ISOTOPIC_ATOM_COUNT>
0

>  <PUBCHEM_COMPONENT_COUNT>
1

>  <PUBCHEM_CACTVS_TAUTO_COUNT>
-1

>  <PUBCHEM_COORDINATE_TYPE>
1
5
255

>  <PUBCHEM_BONDANNOTATIONS>
13  14  6
15  17  8
17  18  8
10  2  5
11  3  5
12  7  6
7  15  8
7  16  8
8  16  8
8  18  8

>  <LF dG>
-5.931

>  <LF VSscore>
-7.995

>  <LF Rank Score>
-8.271

>  <LF LE>
-0.33

>  <Preferred Pose_cresset>
true

>  <Favorite_cresset>
false

>  <Protein_cresset>
6Y2F_P

>  <MW_cresset>
259.2

>  <#Atoms_cresset>
18

>  <SlogP_cresset>
-1.3

>  <TPSA_cresset>
134.8

>  <Flexibility_cresset>
5.7

>  <#RB_cresset>
7

>  <Rof5_cresset>
0

>  <Filename_cresset>
?-D-N4-hydroxycytidine (NHC; EIDD-1931).sdf

>  <Confs_cresset>
0

>  <Poses_cresset>
10

>  <_cresset_fieldpoints>
    -5       5.559155      -1.824173      27.334019    -20.4911
    -5       5.655930       0.776871      26.369669    -16.6721
    -5      10.451990       4.465440      23.870674     -8.2960
    -5      11.362989       4.424440      21.621674     -8.4695
    -6      11.129990      -3.067560      22.716673      8.1520
    -6       8.051990       2.226440      20.200674      7.5470
    -6       6.425990       2.773440      22.835674      7.9935
    -6       9.501990       2.898440      27.367674      2.9845
    -6      10.714990      -5.740560      24.914673     11.9710
    -6       9.600990      -6.897560      26.983673     11.2685
    -7       5.987990       2.533440      22.495674     -1.7120
    -7       9.891990       2.411440      27.617674     -1.2855
    -7       7.827990       4.653440      23.883673     -1.8760
    -7       7.385990       3.221440      27.392673     -1.2975
    -7       6.085990      -2.735560      22.988674     -1.8515
    -7      11.429990      -0.753560      24.229673     -2.4610
    -7       9.808990       4.880440      23.102673     -1.7175
    -7       8.694990      -0.853560      20.849674     -2.0275
    -7       7.379990      -3.472560      28.443674     -1.4895
    -7       5.447990      -4.268560      26.643673     -1.4280
    -7       4.926990       1.019440      25.507673     -1.7935
    -7      10.231990      -1.096560      26.295673     -2.6030
    -7       6.401990      -5.979560      24.918673     -1.2485
    -7       7.651990      -5.926560      23.699673     -1.3045
    -8      10.099990       1.699440      23.392673      4.3035
    -8       8.839990       1.143440      24.249674      4.2285
    -8       8.884990      -3.117560      24.498672      3.9075
    -8       8.069990      -1.205560      24.456673      2.2815

$$$$
Untitled
  xed2sdf_05210316543D
 
 31 32  0  0  1  0  0  0  0  0999 V2000
   11.0415    3.6408   20.1541 O   0  0  0  0  0  0  0  0  0  0  0  0
   14.2615    2.8618   19.6811 O   0  0  0  0  0  0  0  0  0  0  0  0
   14.0105    5.4398   19.2041 O   0  0  0  0  0  0  0  0  0  0  0  0
   11.8655    7.2598   20.1591 O   0  0  0  0  0  0  0  0  0  0  0  0
   10.4155    3.5478   17.5161 O   0  0  0  0  0  0  0  0  0  0  0  0
    8.1735   -1.5912   16.6041 O   0  0  0  0  0  0  0  0  0  0  0  0
   11.1245    1.7318   18.6671 N   0  0  0  0  0  0  0  0  0  0  0  0
    9.6805    1.6478   16.7611 N   0  0  0  0  0  0  0  0  0  0  0  0
    8.9305   -0.4812   16.0811 N   0  0  0  0  0  0  0  0  0  0  0  0
   13.0625    3.1818   18.9611 C   0  0  0  0  0  0  0  0  0  0  0  0
   12.7995    4.6938   19.0151 C   0  0  0  0  0  0  0  0  0  0  0  0
   11.8405    2.5518   19.6551 C   0  0  0  0  0  0  0  0  0  0  0  0
   11.8525    4.8208   20.2131 C   0  0  0  0  0  0  0  0  0  0  0  0
   11.0135    6.1058   20.1361 C   0  0  0  0  0  0  0  0  0  0  0  0
   11.1205    0.3978   18.7931 C   0  0  0  0  0  0  0  0  0  0  0  0
   10.4285    2.3218   17.6741 C   0  0  0  0  0  0  0  0  0  0  0  0
   10.3965   -0.3362   17.9281 C   0  0  0  0  0  0  0  0  0  0  0  0
    9.6485    0.3058   16.8911 C   0  0  0  0  0  0  0  0  0  0  0  0
   13.1855    2.8478   18.0271 H   0  0  0  0  0  0  0  0  0  0  0  0
   12.4155    5.0608   18.1681 H   0  0  0  0  0  0  0  0  0  0  0  0
   12.0845    1.9538   20.4181 H   0  0  0  0  0  0  0  0  0  0  0  0
   12.3445    4.8918   21.0811 H   0  0  0  0  0  0  0  0  0  0  0  0
   14.6335    1.9718   19.3931 H   0  0  0  0  0  0  0  0  0  0  0  0
   13.8995    6.3958   18.9111 H   0  0  0  0  0  0  0  0  0  0  0  0
   11.9845    7.6458   19.2381 H   0  0  0  0  0  0  0  0  0  0  0  0
    8.5495   -2.4702   16.2921 H   0  0  0  0  0  0  0  0  0  0  0  0
    8.9165   -0.3162   15.2171 H   0  0  0  0  0  0  0  0  0  0  0  0
   10.4815    6.1038   19.2891 H   0  0  0  0  0  0  0  0  0  0  0  0
   10.3995    6.1388   20.9241 H   0  0  0  0  0  0  0  0  0  0  0  0
   11.6475   -0.0452   19.5181 H   0  0  0  0  0  0  0  0  0  0  0  0
   10.3815   -1.3322   18.0101 H   0  0  0  0  0  0  0  0  0  0  0  0
  1 12  1  0
  1 13  1  0
  4 14  1  0
  5 16  2  0
  6  9  1  0
  7 15  1  0
  7 16  1  0
  8 16  1  0
  8 18  2  0
  9 18  1  0
 10  2  1  0
 10 11  1  0
 10 12  1  0
 11  3  1  0
 11 13  1  0
 12  7  1  0
 13 14  1  0
 15 17  2  0
 17 18  1  0
  2 23  1  0
  3 24  1  0
  4 25  1  0
  6 26  1  0
  9 27  1  0
 10 19  1  0
 11 20  1  0
 12 21  1  0
 13 22  1  0
 14 28  1  0
 14 29  1  0
 15 30  1  0
 17 31  1  0
M  END
>  <BioMolTech Lead Finder dG>
-6.088

>  <BioMolTech Lead Finder VSscore>
-7.246

>  <BioMolTech Lead Finder Rank score>
-8.231

>  <BioMolTech Lead Finder LE>
-0.338

>  <BioMolTech Lead Finder Structure Name>
/var/folders/xd/y7jw_xv579q2qqq7kks92xd80000gn/T/LeadFinder_22003_1/Ligand_1.sdf

>  <BioMolTech Lead Finder SDF id>
0

>  <BioMolTech Lead Finder Pose rank>
0

>  <BioMolTech Lead Finder version>
2001 1, 19 January 2019

>  <PUBCHEM_COMPOUND_CID>
197020

>  <PUBCHEM_COMPOUND_CANONICALIZED>
1

>  <PUBCHEM_CACTVS_COMPLEXITY>
398

>  <PUBCHEM_CACTVS_HBOND_ACCEPTOR>
6

>  <PUBCHEM_CACTVS_HBOND_DONOR>
5

>  <PUBCHEM_CACTVS_ROTATABLE_BOND>
3

>  <PUBCHEM_CACTVS_SUBSKEYS>
AAADccBzOAAAAAAAAAAAAAAAAAAAASAAAAAgAAAAAAAAAAAAAAAAHgAUCAAACBThgAYBAANQBgCoACJmdACAAAEAAgAoAAAYABCDEAIAgAAOQAAHFgITAADwMAIAAAAAAAAAAAAAAAAAAAAAAAAAAAAAAA==

>  <PUBCHEM_IUPAC_OPENEYE_NAME>
1-[(2R,3R,4S,5R)-3,4-dihydroxy-5-(hydroxymethyl)tetrahydrofuran-2-yl]-4-(hydroxyamino)pyrimidin-2-one

>  <PUBCHEM_IUPAC_CAS_NAME>
1-[(2R,3R,4S,5R)-3,4-dihydroxy-5-(hydroxymethyl)-2-oxolanyl]-4-(hydroxyamino)-2-pyrimidinone

>  <PUBCHEM_IUPAC_NAME_MARKUP>
1-[(2<I>R</I>,3<I>R</I>,4<I>S</I>,5<I>R</I>)-3,4-dihydroxy-5-(hydroxymethyl)oxolan-2-yl]-4-(hydroxyamino)pyrimidin-2-one

>  <PUBCHEM_IUPAC_NAME>
1-[(2R,3R,4S,5R)-3,4-dihydroxy-5-(hydroxymethyl)oxolan-2-yl]-4-(hydroxyamino)pyrimidin-2-one

>  <PUBCHEM_IUPAC_SYSTEMATIC_NAME>
1-[(2R,3R,4S,5R)-5-(hydroxymethyl)-3,4-bis(oxidanyl)oxolan-2-yl]-4-(oxidanylamino)pyrimidin-2-one

>  <PUBCHEM_IUPAC_TRADITIONAL_NAME>
1-[(2R,3R,4S,5R)-3,4-dihydroxy-5-methylol-tetrahydrofuran-2-yl]-4-(hydroxyamino)pyrimidin-2-one

>  <PUBCHEM_IUPAC_INCHI>
InChI=1S/C9H13N3O6/c13-3-4-6(14)7(15)8(18-4)12-2-1-5(11-17)10-9(12)16/h1-2,4,6-8,13-15,17H,3H2,(H,10,11,16)/t4-,6-,7-,8-/m1/s1

>  <PUBCHEM_IUPAC_INCHIKEY>
XCUAIINAJCDIPM-XVFCMESISA-N

>  <PUBCHEM_XLOGP3>
-2.2

>  <PUBCHEM_EXACT_MASS>
259.080435

>  <PUBCHEM_MOLECULAR_FORMULA>
C9H13N3O6

>  <PUBCHEM_MOLECULAR_WEIGHT>
259.22

>  <PUBCHEM_OPENEYE_CAN_SMILES>
C1=CN(C(=O)N=C1NO)C2C(C(C(O2)CO)O)O

>  <PUBCHEM_OPENEYE_ISO_SMILES>
C1=CN(C(=O)N=C1NO)[C@H]2[C@@H]([C@@H]([C@H](O2)CO)O)O

>  <PUBCHEM_CACTVS_TPSA>
135

>  <PUBCHEM_MONOISOTOPIC_WEIGHT>
259.080435

>  <PUBCHEM_TOTAL_CHARGE>
0

>  <PUBCHEM_HEAVY_ATOM_COUNT>
18

>  <PUBCHEM_ATOM_DEF_STEREO_COUNT>
4

>  <PUBCHEM_ATOM_UDEF_STEREO_COUNT>
0

>  <PUBCHEM_BOND_DEF_STEREO_COUNT>
0

>  <PUBCHEM_BOND_UDEF_STEREO_COUNT>
0

>  <PUBCHEM_ISOTOPIC_ATOM_COUNT>
0

>  <PUBCHEM_COMPONENT_COUNT>
1

>  <PUBCHEM_CACTVS_TAUTO_COUNT>
-1

>  <PUBCHEM_COORDINATE_TYPE>
1
5
255

>  <PUBCHEM_BONDANNOTATIONS>
13  14  6
15  17  8
17  18  8
10  2  5
11  3  5
12  7  6
7  15  8
7  16  8
8  16  8
8  18  8

>  <LF dG>
-6.088

>  <LF VSscore>
-7.246

>  <LF Rank Score>
-8.231

>  <LF LE>
-0.338

>  <Preferred Pose_cresset>
true

>  <Favorite_cresset>
false

>  <Protein_cresset>
6Y2F_P

>  <MW_cresset>
259.2

>  <#Atoms_cresset>
18

>  <SlogP_cresset>
-1.3

>  <TPSA_cresset>
134.8

>  <Flexibility_cresset>
5.7

>  <#RB_cresset>
7

>  <Rof5_cresset>
0

>  <Filename_cresset>
?-D-N4-hydroxycytidine (NHC; EIDD-1931).sdf

>  <Confs_cresset>
0

>  <Poses_cresset>
10

>  <_cresset_fieldpoints>
    -5       9.283497       3.873286      16.252739    -17.2229
    -5      12.822493       7.627803      21.685083     -9.8375
    -5      15.270493       4.467803      20.196083    -15.0305
    -6       9.124493      -2.453197      14.575084      9.4890
    -6      12.307493      -2.089197      19.202084      8.0380
    -6      13.878493       0.313803      19.305084     11.0900
    -6      12.979493       7.513803      17.804085      8.3130
    -6      10.146493      -3.184197      16.311085      9.0735
    -7       8.732493       3.833803      19.489084     -2.3525
    -7      15.036493       4.465803      21.340084     -1.8545
    -7      14.118493       3.131803      22.070084     -1.8660
    -7      12.696493       0.971803      16.302084     -2.2590
    -7      14.009493       0.148803      20.497084     -1.6305
    -7      12.646493       7.394803      17.139084     -1.4915
    -7      12.109493       3.879803      15.790084     -1.8825
    -7      14.107493       7.072803      21.087084     -1.9330
    -7      11.599493       7.192803      17.031084     -1.5035
    -7       7.573493      -0.771197      18.779083     -1.4535
    -7       6.923493      -1.884197      14.617085     -0.9330
    -7       7.615493       2.127803      15.765084     -1.2570
    -7      10.743493      -2.318197      15.563084     -1.5495
    -7      10.422493       5.724803      16.718084     -1.8075
    -7      10.499493       9.303803      19.998083     -0.9490
    -7       8.743493       1.888803      20.055084     -2.0305
    -8      12.367493       3.916803      19.275084      4.0800
    -8      11.782493       5.329803      19.403084      3.9575
    -8      10.496493      -0.176197      17.990084      3.8625
    -8      11.426493       1.539803      18.864084      2.4205

$$$$
