Untitled
  RxDock  02242112153D
librxdock.so/0.1.0
 60 65  0  0  0  0  0  0  0  0999 V2000
  -49.8533   -0.0411   14.8787 C   0  0  0  0  0  0
  -49.5297   -1.2000   15.5473 C   0  0  0  0  0  0
  -48.6259   -2.0875   15.0051 C   0  0  0  0  0  0
  -48.0475   -1.8050   13.7859 C   0  0  0  0  0  0
  -48.3706   -0.6472   13.1154 C   0  0  0  0  0  0
  -49.2740    0.2346   13.6622 C   0  0  0  0  0  0
  -48.2671   -3.3670   15.7472 C   0  0  0  0  0  0
  -49.4650   -4.1245   16.3621 C   0  0  0  0  0  0
  -48.9517   -5.1303   17.3577 N   0  3  0  0  0  0
  -50.2874   -4.8085   15.2455 C   0  0  0  0  0  0
  -50.7272   -3.8286   14.2882 O   0  0  0  0  0  0
  -51.5177   -5.5408   15.8237 C   0  0  0  0  0  0
  -52.4517   -4.5743   16.5853 C   0  0  0  0  0  0
  -53.7897   -4.4443   15.8227 C   0  0  0  0  0  0
  -54.4415   -5.7559   15.4125 C   0  0  0  0  0  0
  -54.8558   -5.9492   14.1125 C   0  0  0  0  0  0
  -55.4490   -7.1349   13.7402 C   0  0  0  0  0  0
  -55.6320   -8.1330   14.6686 C   0  0  0  0  0  0
  -55.2201   -7.9454   15.9691 C   0  0  0  0  0  0
  -54.6263   -6.7596   16.3384 C   0  0  0  0  0  0
  -52.7065   -5.0941   17.9357 N   0  0  0  0  0  0
  -51.9358   -4.3873   19.0224 P   0  0  0  0  0  0
  -51.1470   -3.1111   18.4445 O   0  0  0  0  0  0
  -50.7473   -5.3324   19.5667 O   0  0  0  0  0  0
  -52.8380   -3.9700   20.1538 O   0  0  0  0  0  0
  -50.0676   -2.5576   19.2114 C   0  0  0  0  0  0
  -50.9889   -6.5462   20.1473 C   0  0  0  0  0  0
  -50.1221   -7.6130   19.9950 C   0  0  0  0  0  0
  -50.3918   -8.8204   20.5953 C   0  0  0  0  0  0
  -51.5292   -8.9731   21.3549 C   0  0  0  0  0  0
  -52.3975   -7.9169   21.5114 C   0  0  0  0  0  0
  -52.1297   -6.7108   20.9092 C   0  0  0  0  0  0
  -49.4345   -1.3845   18.4457 C   0  0  0  0  0  0
  -48.0073   -1.5301   18.3498 O   0  0  0  0  0  0
  -47.3701   -0.2392   18.3851 C   0  0  0  0  0  0
  -48.5069    0.7952   18.5621 C   0  0  0  0  0  0
  -49.6758   -0.0267   19.1205 C   0  0  0  0  0  0
  -49.5655   -0.1131   20.5497 O   0  0  0  0  0  0
  -48.1581    1.8858   19.4295 O   0  0  0  0  0  0
  -46.3605   -0.3216   19.5249 C   0  0  0  0  0  0
  -46.6863   -0.0265   17.1030 C   0  0  0  0  0  0
  -46.1579    0.1381   16.1099 N   0  0  0  0  0  0
  -45.0951    0.1363   19.3708 N   0  0  0  0  0  0
  -44.4839   -0.0952   20.5627 C   0  0  0  0  0  0
  -45.3326   -0.6826   21.4448 C   0  0  0  0  0  0
  -46.5448   -0.8274   20.7641 C   0  0  0  0  0  0
  -44.4219    0.7171   18.3342 N   0  0  0  0  0  0
  -43.1666    1.0453   18.5286 C   0  0  0  0  0  0
  -42.4507    0.8635   19.6849 N   0  0  0  0  0  0
  -43.1250    0.2925   20.6923 C   0  0  0  0  0  0
  -42.4428    0.0935   21.8695 N   0  0  0  0  0  0
  -48.5681   -5.8459   16.9484 H   0  0  0  0  0  0
  -48.3207   -4.7684   17.9054 H   0  0  0  0  0  0
  -49.6079   -5.4470   17.8998 H   0  0  0  0  0  0
  -51.3279   -3.1450   14.7160 H   0  0  0  0  0  0
  -52.5300   -6.1066   17.9648 H   0  0  0  0  0  0
  -49.8057    0.7603   20.9883 H   0  0  0  0  0  0
  -47.3732    2.4022   19.0706 H   0  0  0  0  0  0
  -41.6005    0.3410   21.9336 H   0  0  0  0  0  0
  -42.8434   -0.2788   22.5597 H   0  0  0  0  0  0
  1  2  2  0  0  0
  2  3  1  0  0  0
  3  4  2  0  0  0
  3  7  1  0  0  0
  4  5  1  0  0  0
  5  6  2  0  0  0
  6  1  1  0  0  0
  7  8  1  0  0  0
  8  9  1  0  0  0
  8 10  1  0  0  0
 10 11  1  0  0  0
 10 12  1  0  0  0
 12 13  1  0  0  0
 13 14  1  0  0  0
 13 21  1  0  0  0
 14 15  1  0  0  0
 15 16  2  0  0  0
 16 17  1  0  0  0
 17 18  2  0  0  0
 18 19  1  0  0  0
 19 20  2  0  0  0
 20 15  1  0  0  0
 21 22  1  0  0  0
 22 23  1  0  0  0
 22 24  1  0  0  0
 22 25  2  0  0  0
 23 26  1  0  0  0
 24 27  1  0  0  0
 27 28  2  0  0  0
 28 29  1  0  0  0
 29 30  2  0  0  0
 30 31  1  0  0  0
 31 32  2  0  0  0
 32 27  1  0  0  0
 33 26  1  0  0  0
 33 34  1  0  0  0
 34 35  1  0  0  0
 35 36  1  0  0  0
 35 40  1  0  0  0
 35 41  1  0  0  0
 36 37  1  0  0  0
 36 39  1  0  0  0
 37 33  1  0  0  0
 37 38  1  0  0  0
 40 43  1  0  0  0
 41 42  3  0  0  0
 43 44  1  0  0  0
 43 47  1  0  0  0
 44 45  2  0  0  0
 45 46  1  0  0  0
 46 40  2  0  0  0
 47 48  2  0  0  0
 48 49  1  0  0  0
 49 50  2  0  0  0
 50 44  1  0  0  0
 50 51  1  0  0  0
  9 52  1  0  0  0
  9 53  1  0  0  0
  9 54  1  0  0  0
 11 55  1  0  0  0
 21 56  1  0  0  0
 38 57  1  0  0  0
 39 58  1  0  0  0
 51 59  1  0  0  0
 51 60  1  0  0  0
M  END
>  <#Atoms_cresset>
51

>  <#RB_cresset>
18

>  <BioMolTech Lead Finder LE>
-0.172

>  <BioMolTech Lead Finder Pose rank>
0

>  <BioMolTech Lead Finder Rank score>
-13.57

>  <BioMolTech Lead Finder SDF id>
0

>  <BioMolTech Lead Finder Structure Name>
/var/folders/xd/y7jw_xv579q2qqq7kks92xd80000gn/T/LeadFinder_21448_1/Ligand_1.sdf

>  <BioMolTech Lead Finder VSscore>
-13.341

>  <BioMolTech Lead Finder dG>
-8.761

>  <BioMolTech Lead Finder version>
2001 1, 19 January 2019

>  <CHROM.0>
-169.97291653,66.94940705,-61.26612862

>  <CHROM.1>
43.98397102,-164.77861038,-74.00365042,-57.18563129,-61.78201609,59.03891514
112.98530583,49.09581580,103.60183419,-129.58256510,6.73893215,-161.72092401
-61.03861292,178.01630495,145.92741739,-128.75973167,134.37258102,60.87585196
-174.90445565,-49.53515058,-3.01445743,17.89050282,0.12534368,-0.71979058
-1.06558163

>  <Confs_cresset>
0

>  <Favorite_cresset>
false

>  <Filename_cresset>
VTRRT-13V2.1.sdf

>  <Flexibility_cresset>
17.1

>  <LF LE>
-0.172

>  <LF Rank Score>
-13.57

>  <LF VSscore>
-13.341

>  <LF dG>
-8.761

>  <MW_cresset>
714.7

>  <Name>
Untitled

>  <Poses_cresset>
10

>  <Preferred Pose_cresset>
true

>  <Protein_cresset>
6Y2F_P

>  <RI>
-6.34158e+08

>  <Rbt.Current_Directory>
/root/miniconda3/envs/rdock/share/rxdock-2013.1.1_148c5bd1-0/data/ligands/prepped_ligands/VTRRT

>  <Rbt.Executable>
rbdock/0.1.0

>  <Rbt.Library>
librxdock.so/0.1.0

>  <Rbt.Parameter_File>
/root/miniconda3/envs/rdock/share/rxdock-2013.1.1_148c5bd1-0/data/scripts/dock.prm

>  <Rbt.Receptor>
def.prm

>  <Rof5_cresset>
3

>  <SCORE>
-38.2813

>  <SCORE.INTER>
-13.2432

>  <SCORE.INTER.CONST>
1

>  <SCORE.INTER.POLAR>
0

>  <SCORE.INTER.REPUL>
0.00429734

>  <SCORE.INTER.ROT>
15

>  <SCORE.INTER.VDW>
-33.6647

>  <SCORE.INTER.norm>
-0.25967

>  <SCORE.INTRA>
-24.2072

>  <SCORE.INTRA.DIHEDRAL>
-22.0984

>  <SCORE.INTRA.DIHEDRAL.0>
43.3056

>  <SCORE.INTRA.POLAR>
-1.16667

>  <SCORE.INTRA.POLAR.0>
0

>  <SCORE.INTRA.REPUL>
-1.18384

>  <SCORE.INTRA.REPUL.0>
1.18384

>  <SCORE.INTRA.VDW>
-3.27213

>  <SCORE.INTRA.VDW.0>
-7.21879

>  <SCORE.INTRA.norm>
-0.47465

>  <SCORE.RESTR>
0.00102093

>  <SCORE.RESTR.CAVITY>
0.00102093

>  <SCORE.RESTR.norm>
2.00182e-05

>  <SCORE.SYSTEM>
-0.831972

>  <SCORE.SYSTEM.CONST>
0

>  <SCORE.SYSTEM.DIHEDRAL>
0.476236

>  <SCORE.SYSTEM.VDW>
-1.07009

>  <SCORE.SYSTEM.norm>
-0.0163132

>  <SCORE.heavy>
51

>  <SCORE.norm>
-0.750614

>  <SlogP_cresset>
4

>  <TPSA_cresset>
225.1

>  <_cresset_fieldpoints>
    -5      16.836018       5.832630      29.221167     -3.6840
    -5      12.689775      -0.157515      20.961832    -26.5835
    -5      10.603017       0.175630      26.550167     -8.1895
    -5      16.438017       3.291630      24.075167     -2.5740
    -5      10.777017       2.958630      26.544167    -13.1420
    -5      14.325016       6.363630      19.343166     -3.9175
    -5      10.138498      -1.142644      20.673992    -19.3483
    -5       8.999017       3.081630      18.875168    -11.2330
    -5      16.643017      -2.580370      18.078167    -12.9950
    -5       9.665886      -1.797647      20.491711    -20.2282
    -5       9.721017       2.679630      21.897167    -10.3470
    -5       9.495016      -3.987370      19.277166    -12.3125
    -6       9.544017       6.999630      25.870167     13.2990
    -6      11.781016       8.517631      22.930166      7.7900
    -6      14.607017       1.112630      25.440166      7.0810
    -6      15.386017       0.918630      28.446167      2.3985
    -6      18.624016       1.298630      27.807167      2.3740
    -6      20.392017       2.874630      26.722168      2.3035
    -6      17.648016       0.730630      28.195168      2.3685
    -6      14.512016       8.724630      26.097166      6.5595
    -6       8.569016      -0.973370      14.343166     10.8755
    -6       7.728017       1.126630      14.428167      9.6685
    -6       9.165016      -5.976370      22.174168      8.4205
    -6      13.686016      -5.263370      22.254168      6.1950
    -6      13.877016       8.944631      27.096167      6.4995
    -6      12.880016      -5.307370      17.193167     12.0245
    -7      15.472016       6.118630      22.868166     -3.2390
    -7      16.618017       6.190630      29.550167     -1.8400
    -7      20.678017       4.935630      25.563168     -0.9695
    -7      14.813017       8.811630      25.026167     -2.2140
    -7      10.993016       2.287630      26.765167     -3.3000
    -7      14.052017       0.966630      26.100166     -2.8945
    -7      19.113016       1.220630      27.604168     -0.9705
    -7      16.034016       2.731630      23.912167     -3.3250
    -7      10.857017       6.577630      27.959167     -2.0560
    -7       9.494017       3.463630      21.639168     -4.2685
    -7      10.789017       9.786630      25.500168     -0.9715
    -7      14.840016       6.494630      19.649166     -1.8715
    -7       8.671017       3.594630      18.487167     -2.1885
    -7       9.509016       9.096630      19.641167     -0.9730
    -7      10.391017      -1.625370      26.086166     -2.4190
    -7       4.660017      -1.773370      25.985167     -0.9695
    -7       4.569016       2.557630      27.332167     -0.9680
    -7      14.875017      -4.579370      21.768167     -1.8885
    -7      13.267016      -5.347370      16.886168     -1.9350
    -7       6.954017      -1.202370      16.804167     -1.5235
    -7      11.071016       0.523630      14.355167     -1.5285
    -7      13.461017       0.151630      20.851168     -4.5370
    -7       9.025017      -1.430370      20.607166     -4.2605
    -8      14.386017       5.687630      26.072166      5.7545
    -8      16.303017       4.649630      26.702168      7.2160
    -8      12.821016       4.074630      23.412167      5.8535
    -8      11.879017       5.300630      20.313168      7.2105
    -8      14.967016       5.182630      26.638166      5.8010
    -8      12.613016       4.247630      22.352167      5.8285
    -8      13.423017       5.009630      25.510166      5.6895
    -8      12.579017       4.458630      21.224167      5.7810
    -8       7.903017       1.063630      24.720167      7.0265
    -8      11.517016      -3.053370      22.483168      4.3445
    -8      12.238016      -3.808370      21.025167      4.6035
    -8      12.152017      -3.126370      18.429167      4.4460
    -8      10.771017      -2.113370      17.279167      4.9125

$$$$
Untitled
  RxDock  02242112153D
librxdock.so/0.1.0
 60 65  0  0  0  0  0  0  0  0999 V2000
  -48.4936   -8.3737   19.5318 C   0  0  0  0  0  0
  -48.8127   -7.1893   20.1565 C   0  0  0  0  0  0
  -50.0128   -7.0533   20.8197 C   0  0  0  0  0  0
  -50.8924   -8.1144   20.8526 C   0  0  0  0  0  0
  -50.5755   -9.2990   20.2276 C   0  0  0  0  0  0
  -49.3756   -9.4282   19.5669 C   0  0  0  0  0  0
  -50.3626   -5.7440   21.5124 C   0  0  0  0  0  0
  -50.5528   -4.5353   20.5692 C   0  0  0  0  0  0
  -50.9912   -3.3443   21.3790 N   0  3  0  0  0  0
  -51.5856   -4.8790   19.4711 C   0  0  0  0  0  0
  -52.6321   -5.6999   20.0197 O   0  0  0  0  0  0
  -50.9231   -5.6229   18.2913 C   0  0  0  0  0  0
  -51.7890   -5.5532   17.0138 C   0  0  0  0  0  0
  -53.1585   -6.2168   17.2839 C   0  0  0  0  0  0
  -54.0092   -6.4907   16.0531 C   0  0  0  0  0  0
  -54.1808   -5.5145   15.0957 C   0  0  0  0  0  0
  -54.9533   -5.7599   13.9825 C   0  0  0  0  0  0
  -55.5597   -6.9840   13.8229 C   0  0  0  0  0  0
  -55.3919   -7.9632   14.7765 C   0  0  0  0  0  0
  -54.6182   -7.7157   15.8879 C   0  0  0  0  0  0
  -51.9924   -4.1496   16.6302 N   0  0  0  0  0  0
  -50.7409   -3.4536   16.1572 P   0  0  0  0  0  0
  -50.4434   -2.1326   17.0239 O   0  0  0  0  0  0
  -50.9571   -2.8700   14.6690 O   0  0  0  0  0  0
  -49.5512   -4.3764   16.1942 O   0  0  0  0  0  0
  -49.9732   -2.2792   18.3719 C   0  0  0  0  0  0
  -50.2385   -1.8104   14.1899 C   0  0  0  0  0  0
  -48.8574   -1.8366   14.1221 C   0  0  0  0  0  0
  -48.1638   -0.7555   13.6313 C   0  0  0  0  0  0
  -48.8433    0.3616   13.2018 C   0  0  0  0  0  0
  -50.2176    0.3964   13.2661 C   0  0  0  0  0  0
  -50.9111   -0.6829   13.7593 C   0  0  0  0  0  0
  -49.7310   -0.8930   18.9912 C   0  0  0  0  0  0
  -48.6271   -0.2223   18.3597 O   0  0  0  0  0  0
  -47.9232    0.5911   19.3172 C   0  0  0  0  0  0
  -48.6331    0.3676   20.6735 C   0  0  0  0  0  0
  -49.3879   -0.9549   20.4863 C   0  0  0  0  0  0
  -48.5161   -2.0550   20.7896 O   0  0  0  0  0  0
  -47.7305    0.3144   21.7897 O   0  0  0  0  0  0
  -46.4708    0.1328   19.2415 C   0  0  0  0  0  0
  -48.0441    1.9961   18.9071 C   0  0  0  0  0  0
  -48.1388    3.0836   18.5898 N   0  0  0  0  0  0
  -45.4901    0.8132   19.8817 N   0  0  0  0  0  0
  -44.3443    0.1385   19.5993 C   0  0  0  0  0  0
  -44.5887   -0.9347   18.8043 C   0  0  0  0  0  0
  -45.9676   -0.9298   18.5759 C   0  0  0  0  0  0
  -45.4746    1.9325   20.6641 N   0  0  0  0  0  0
  -44.3173    2.3327   21.1350 C   0  0  0  0  0  0
  -43.1028    1.7317   20.9199 N   0  0  0  0  0  0
  -43.1345    0.6352   20.1502 C   0  0  0  0  0  0
  -41.9373    0.0026   19.9112 N   0  0  0  0  0  0
  -51.5456   -2.7998   20.9067 H   0  0  0  0  0  0
  -51.4423   -3.5959   22.1289 H   0  0  0  0  0  0
  -50.2905   -2.8400   21.6606 H   0  0  0  0  0  0
  -53.1337   -5.2152   20.7441 H   0  0  0  0  0  0
  -52.4267   -3.6301   17.4040 H   0  0  0  0  0  0
  -47.5921   -1.9015   20.4213 H   0  0  0  0  0  0
  -47.0847    1.0854   21.7752 H   0  0  0  0  0  0
  -41.1961    0.3231   20.2617 H   0  0  0  0  0  0
  -41.9075   -0.7214   19.4109 H   0  0  0  0  0  0
  1  2  2  0  0  0
  2  3  1  0  0  0
  3  4  2  0  0  0
  3  7  1  0  0  0
  4  5  1  0  0  0
  5  6  2  0  0  0
  6  1  1  0  0  0
  7  8  1  0  0  0
  8  9  1  0  0  0
  8 10  1  0  0  0
 10 11  1  0  0  0
 10 12  1  0  0  0
 12 13  1  0  0  0
 13 14  1  0  0  0
 13 21  1  0  0  0
 14 15  1  0  0  0
 15 16  2  0  0  0
 16 17  1  0  0  0
 17 18  2  0  0  0
 18 19  1  0  0  0
 19 20  2  0  0  0
 20 15  1  0  0  0
 21 22  1  0  0  0
 22 23  1  0  0  0
 22 24  1  0  0  0
 22 25  2  0  0  0
 23 26  1  0  0  0
 24 27  1  0  0  0
 27 28  2  0  0  0
 28 29  1  0  0  0
 29 30  2  0  0  0
 30 31  1  0  0  0
 31 32  2  0  0  0
 32 27  1  0  0  0
 33 26  1  0  0  0
 33 34  1  0  0  0
 34 35  1  0  0  0
 35 36  1  0  0  0
 35 40  1  0  0  0
 35 41  1  0  0  0
 36 37  1  0  0  0
 36 39  1  0  0  0
 37 33  1  0  0  0
 37 38  1  0  0  0
 40 43  1  0  0  0
 41 42  3  0  0  0
 43 44  1  0  0  0
 43 47  1  0  0  0
 44 45  2  0  0  0
 45 46  1  0  0  0
 46 40  2  0  0  0
 47 48  2  0  0  0
 48 49  1  0  0  0
 49 50  2  0  0  0
 50 44  1  0  0  0
 50 51  1  0  0  0
  9 52  1  0  0  0
  9 53  1  0  0  0
  9 54  1  0  0  0
 11 55  1  0  0  0
 21 56  1  0  0  0
 38 57  1  0  0  0
 39 58  1  0  0  0
 51 59  1  0  0  0
 51 60  1  0  0  0
M  END
>  <#Atoms_cresset>
51

>  <#RB_cresset>
18

>  <BioMolTech Lead Finder LE>
-0.172

>  <BioMolTech Lead Finder Pose rank>
0

>  <BioMolTech Lead Finder Rank score>
-13.57

>  <BioMolTech Lead Finder SDF id>
0

>  <BioMolTech Lead Finder Structure Name>
/var/folders/xd/y7jw_xv579q2qqq7kks92xd80000gn/T/LeadFinder_21448_1/Ligand_1.sdf

>  <BioMolTech Lead Finder VSscore>
-13.341

>  <BioMolTech Lead Finder dG>
-8.761

>  <BioMolTech Lead Finder version>
2001 1, 19 January 2019

>  <CHROM.0>
178.29607945,176.19246664,60.40732093

>  <CHROM.1>
65.62006464,175.88105209,-147.39968474,36.86786407,62.12261909,-160.76938030
-60.62235673,-167.61044111,67.98491436,-46.84981993,-123.56777143,72.48175373
155.04689789,178.83511190,58.37974805,-67.75160248,170.88306243,48.79278001
70.22717557,-49.46783992,-2.87359227,18.12809249,-2.85931492,-0.78988969
-0.80165891

>  <Confs_cresset>
0

>  <Favorite_cresset>
false

>  <Filename_cresset>
VTRRT-13V2.1.sdf

>  <Flexibility_cresset>
17.1

>  <LF LE>
-0.172

>  <LF Rank Score>
-13.57

>  <LF VSscore>
-13.341

>  <LF dG>
-8.761

>  <MW_cresset>
714.7

>  <Name>
Untitled

>  <Poses_cresset>
10

>  <Preferred Pose_cresset>
true

>  <Protein_cresset>
6Y2F_P

>  <RI>
-6.34158e+08

>  <Rbt.Current_Directory>
/root/miniconda3/envs/rdock/share/rxdock-2013.1.1_148c5bd1-0/data/ligands/prepped_ligands/VTRRT

>  <Rbt.Executable>
rbdock/0.1.0

>  <Rbt.Library>
librxdock.so/0.1.0

>  <Rbt.Parameter_File>
/root/miniconda3/envs/rdock/share/rxdock-2013.1.1_148c5bd1-0/data/scripts/dock.prm

>  <Rbt.Receptor>
def.prm

>  <Rof5_cresset>
3

>  <SCORE>
-34.965

>  <SCORE.INTER>
-10.6658

>  <SCORE.INTER.CONST>
1

>  <SCORE.INTER.POLAR>
-0.89726

>  <SCORE.INTER.REPUL>
0

>  <SCORE.INTER.ROT>
15

>  <SCORE.INTER.VDW>
-28.0151

>  <SCORE.INTER.norm>
-0.209133

>  <SCORE.INTRA>
-23.566

>  <SCORE.INTRA.DIHEDRAL>
-27.1184

>  <SCORE.INTRA.DIHEDRAL.0>
43.3056

>  <SCORE.INTRA.POLAR>
-1.70163

>  <SCORE.INTRA.POLAR.0>
0

>  <SCORE.INTRA.REPUL>
-1.18384

>  <SCORE.INTRA.REPUL.0>
1.18384

>  <SCORE.INTRA.VDW>
1.69786

>  <SCORE.INTRA.VDW.0>
-7.21879

>  <SCORE.INTRA.norm>
-0.462079

>  <SCORE.RESTR>
0.287884

>  <SCORE.RESTR.CAVITY>
0.287884

>  <SCORE.RESTR.norm>
0.00564479

>  <SCORE.SYSTEM>
-1.02106

>  <SCORE.SYSTEM.CONST>
0

>  <SCORE.SYSTEM.DIHEDRAL>
0.0799993

>  <SCORE.SYSTEM.POLAR>
-0.00203562

>  <SCORE.SYSTEM.VDW>
-1.05414

>  <SCORE.SYSTEM.norm>
-0.0200208

>  <SCORE.heavy>
51

>  <SCORE.norm>
-0.685589

>  <SlogP_cresset>
4

>  <TPSA_cresset>
225.1

>  <_cresset_fieldpoints>
    -5      16.836018       5.832630      29.221167     -3.6840
    -5      12.689775      -0.157515      20.961832    -26.5835
    -5      10.603017       0.175630      26.550167     -8.1895
    -5      16.438017       3.291630      24.075167     -2.5740
    -5      10.777017       2.958630      26.544167    -13.1420
    -5      14.325016       6.363630      19.343166     -3.9175
    -5      10.138498      -1.142644      20.673992    -19.3483
    -5       8.999017       3.081630      18.875168    -11.2330
    -5      16.643017      -2.580370      18.078167    -12.9950
    -5       9.665886      -1.797647      20.491711    -20.2282
    -5       9.721017       2.679630      21.897167    -10.3470
    -5       9.495016      -3.987370      19.277166    -12.3125
    -6       9.544017       6.999630      25.870167     13.2990
    -6      11.781016       8.517631      22.930166      7.7900
    -6      14.607017       1.112630      25.440166      7.0810
    -6      15.386017       0.918630      28.446167      2.3985
    -6      18.624016       1.298630      27.807167      2.3740
    -6      20.392017       2.874630      26.722168      2.3035
    -6      17.648016       0.730630      28.195168      2.3685
    -6      14.512016       8.724630      26.097166      6.5595
    -6       8.569016      -0.973370      14.343166     10.8755
    -6       7.728017       1.126630      14.428167      9.6685
    -6       9.165016      -5.976370      22.174168      8.4205
    -6      13.686016      -5.263370      22.254168      6.1950
    -6      13.877016       8.944631      27.096167      6.4995
    -6      12.880016      -5.307370      17.193167     12.0245
    -7      15.472016       6.118630      22.868166     -3.2390
    -7      16.618017       6.190630      29.550167     -1.8400
    -7      20.678017       4.935630      25.563168     -0.9695
    -7      14.813017       8.811630      25.026167     -2.2140
    -7      10.993016       2.287630      26.765167     -3.3000
    -7      14.052017       0.966630      26.100166     -2.8945
    -7      19.113016       1.220630      27.604168     -0.9705
    -7      16.034016       2.731630      23.912167     -3.3250
    -7      10.857017       6.577630      27.959167     -2.0560
    -7       9.494017       3.463630      21.639168     -4.2685
    -7      10.789017       9.786630      25.500168     -0.9715
    -7      14.840016       6.494630      19.649166     -1.8715
    -7       8.671017       3.594630      18.487167     -2.1885
    -7       9.509016       9.096630      19.641167     -0.9730
    -7      10.391017      -1.625370      26.086166     -2.4190
    -7       4.660017      -1.773370      25.985167     -0.9695
    -7       4.569016       2.557630      27.332167     -0.9680
    -7      14.875017      -4.579370      21.768167     -1.8885
    -7      13.267016      -5.347370      16.886168     -1.9350
    -7       6.954017      -1.202370      16.804167     -1.5235
    -7      11.071016       0.523630      14.355167     -1.5285
    -7      13.461017       0.151630      20.851168     -4.5370
    -7       9.025017      -1.430370      20.607166     -4.2605
    -8      14.386017       5.687630      26.072166      5.7545
    -8      16.303017       4.649630      26.702168      7.2160
    -8      12.821016       4.074630      23.412167      5.8535
    -8      11.879017       5.300630      20.313168      7.2105
    -8      14.967016       5.182630      26.638166      5.8010
    -8      12.613016       4.247630      22.352167      5.8285
    -8      13.423017       5.009630      25.510166      5.6895
    -8      12.579017       4.458630      21.224167      5.7810
    -8       7.903017       1.063630      24.720167      7.0265
    -8      11.517016      -3.053370      22.483168      4.3445
    -8      12.238016      -3.808370      21.025167      4.6035
    -8      12.152017      -3.126370      18.429167      4.4460
    -8      10.771017      -2.113370      17.279167      4.9125

$$$$
Untitled
  RxDock  02242112153D
librxdock.so/0.1.0
 60 65  0  0  0  0  0  0  0  0999 V2000
  -46.0459    1.0420   22.0003 C   0  0  0  0  0  0
  -44.9685    0.8539   21.1645 C   0  0  0  0  0  0
  -44.4419   -0.4060   20.9802 C   0  0  0  0  0  0
  -45.0036   -1.4780   21.6405 C   0  0  0  0  0  0
  -46.0803   -1.2916   22.4774 C   0  0  0  0  0  0
  -46.6012   -0.0310   22.6573 C   0  0  0  0  0  0
  -43.2525   -0.6126   20.0533 C   0  0  0  0  0  0
  -43.5703   -1.3561   18.7369 C   0  0  0  0  0  0
  -42.2891   -1.5854   17.9803 N   0  3  0  0  0  0
  -44.5795   -0.5382   17.8982 C   0  0  0  0  0  0
  -44.1871    0.8457   17.8690 O   0  0  0  0  0  0
  -46.0075   -0.6487   18.4749 C   0  0  0  0  0  0
  -47.0584   -0.8556   17.3616 C   0  0  0  0  0  0
  -46.6946    0.0205   16.1415 C   0  0  0  0  0  0
  -47.6902   -0.0088   14.9921 C   0  0  0  0  0  0
  -47.2458   -0.0792   13.6895 C   0  0  0  0  0  0
  -48.1460   -0.1026   12.6475 C   0  0  0  0  0  0
  -49.4962   -0.0539   12.9045 C   0  0  0  0  0  0
  -49.9460    0.0167   14.2041 C   0  0  0  0  0  0
  -49.0442    0.0388   15.2439 C   0  0  0  0  0  0
  -47.0816   -2.2687   16.9599 N   0  0  0  0  0  0
  -47.8832   -3.1563   17.8786 P   0  0  0  0  0  0
  -49.3695   -3.3930   17.3130 O   0  0  0  0  0  0
  -48.1447   -2.4105   19.2848 O   0  0  0  0  0  0
  -47.1974   -4.4784   18.1023 O   0  0  0  0  0  0
  -49.7336   -2.8076   16.0542 C   0  0  0  0  0  0
  -48.9292   -1.2952   19.3837 C   0  0  0  0  0  0
  -50.1014   -1.1616   18.6621 C   0  0  0  0  0  0
  -50.8704   -0.0285   18.7869 C   0  0  0  0  0  0
  -50.4766    0.9813   19.6351 C   0  0  0  0  0  0
  -49.3113    0.8568   20.3566 C   0  0  0  0  0  0
  -48.5409   -0.2744   20.2300 C   0  0  0  0  0  0
  -51.1455   -3.2677   15.6565 C   0  0  0  0  0  0
  -51.8219   -3.8967   16.7583 O   0  0  0  0  0  0
  -52.6846   -4.9465   16.2812 C   0  0  0  0  0  0
  -52.4895   -4.9975   14.7473 C   0  0  0  0  0  0
  -51.1430   -4.2987   14.5188 C   0  0  0  0  0  0
  -50.0759   -5.2491   14.6612 O   0  0  0  0  0  0
  -52.4967   -6.3311   14.2138 O   0  0  0  0  0  0
  -52.2604   -6.1938   17.0490 C   0  0  0  0  0  0
  -54.0714   -4.5871   16.6041 C   0  0  0  0  0  0
  -55.1449   -4.3080   16.8535 N   0  0  0  0  0  0
  -50.9518   -6.4710   17.2615 N   0  0  0  0  0  0
  -50.9426   -7.6362   17.9615 C   0  0  0  0  0  0
  -52.2042   -8.0857   18.1850 C   0  0  0  0  0  0
  -53.0511   -7.1469   17.5891 C   0  0  0  0  0  0
  -49.7874   -5.8436   16.9214 N   0  0  0  0  0  0
  -48.6607   -6.4026   17.2947 C   0  0  0  0  0  0
  -48.5307   -7.5699   18.0040 N   0  0  0  0  0  0
  -49.6819   -8.1734   18.3299 C   0  0  0  0  0  0
  -49.5947   -9.3463   19.0422 N   0  0  0  0  0  0
  -41.8845   -2.3613   18.2276 H   0  0  0  0  0  0
  -42.4339   -1.6363   17.0828 H   0  0  0  0  0  0
  -41.6892   -0.9150   18.1039 H   0  0  0  0  0  0
  -44.8099    1.3892   17.2964 H   0  0  0  0  0  0
  -46.1221   -2.6239   16.8575 H   0  0  0  0  0  0
  -50.0996   -5.9380   13.9278 H   0  0  0  0  0  0
  -53.3359   -6.8230   14.4694 H   0  0  0  0  0  0
  -48.8047   -9.6652   19.2639 H   0  0  0  0  0  0
  -50.3238   -9.7797   19.2789 H   0  0  0  0  0  0
  1  2  2  0  0  0
  2  3  1  0  0  0
  3  4  2  0  0  0
  3  7  1  0  0  0
  4  5  1  0  0  0
  5  6  2  0  0  0
  6  1  1  0  0  0
  7  8  1  0  0  0
  8  9  1  0  0  0
  8 10  1  0  0  0
 10 11  1  0  0  0
 10 12  1  0  0  0
 12 13  1  0  0  0
 13 14  1  0  0  0
 13 21  1  0  0  0
 14 15  1  0  0  0
 15 16  2  0  0  0
 16 17  1  0  0  0
 17 18  2  0  0  0
 18 19  1  0  0  0
 19 20  2  0  0  0
 20 15  1  0  0  0
 21 22  1  0  0  0
 22 23  1  0  0  0
 22 24  1  0  0  0
 22 25  2  0  0  0
 23 26  1  0  0  0
 24 27  1  0  0  0
 27 28  2  0  0  0
 28 29  1  0  0  0
 29 30  2  0  0  0
 30 31  1  0  0  0
 31 32  2  0  0  0
 32 27  1  0  0  0
 33 26  1  0  0  0
 33 34  1  0  0  0
 34 35  1  0  0  0
 35 36  1  0  0  0
 35 40  1  0  0  0
 35 41  1  0  0  0
 36 37  1  0  0  0
 36 39  1  0  0  0
 37 33  1  0  0  0
 37 38  1  0  0  0
 40 43  1  0  0  0
 41 42  3  0  0  0
 43 44  1  0  0  0
 43 47  1  0  0  0
 44 45  2  0  0  0
 45 46  1  0  0  0
 46 40  2  0  0  0
 47 48  2  0  0  0
 48 49  1  0  0  0
 49 50  2  0  0  0
 50 44  1  0  0  0
 50 51  1  0  0  0
  9 52  1  0  0  0
  9 53  1  0  0  0
  9 54  1  0  0  0
 11 55  1  0  0  0
 21 56  1  0  0  0
 38 57  1  0  0  0
 39 58  1  0  0  0
 51 59  1  0  0  0
 51 60  1  0  0  0
M  END
>  <#Atoms_cresset>
51

>  <#RB_cresset>
18

>  <BioMolTech Lead Finder LE>
-0.172

>  <BioMolTech Lead Finder Pose rank>
0

>  <BioMolTech Lead Finder Rank score>
-13.57

>  <BioMolTech Lead Finder SDF id>
0

>  <BioMolTech Lead Finder Structure Name>
/var/folders/xd/y7jw_xv579q2qqq7kks92xd80000gn/T/LeadFinder_21448_1/Ligand_1.sdf

>  <BioMolTech Lead Finder VSscore>
-13.341

>  <BioMolTech Lead Finder dG>
-8.761

>  <BioMolTech Lead Finder version>
2001 1, 19 January 2019

>  <CHROM.0>
-80.05613886,-52.51500506,45.44278235

>  <CHROM.1>
-109.55842628,-175.41524376,87.77961501,45.53318019,177.63980062,-136.67365867
-39.49779382,-176.26594583,80.90555929,-137.62720227,97.02492223,1.92044939
66.61709439,174.93114964,39.56669402,12.83808591,-41.74376114,55.33439324
178.19002967,-48.69303037,-2.80549099,17.61798403,-0.29551042,0.75486971
2.45459720

>  <Confs_cresset>
0

>  <Favorite_cresset>
false

>  <Filename_cresset>
VTRRT-13V2.1.sdf

>  <Flexibility_cresset>
17.1

>  <LF LE>
-0.172

>  <LF Rank Score>
-13.57

>  <LF VSscore>
-13.341

>  <LF dG>
-8.761

>  <MW_cresset>
714.7

>  <Name>
Untitled

>  <Poses_cresset>
10

>  <Preferred Pose_cresset>
true

>  <Protein_cresset>
6Y2F_P

>  <RI>
-6.34158e+08

>  <Rbt.Current_Directory>
/root/miniconda3/envs/rdock/share/rxdock-2013.1.1_148c5bd1-0/data/ligands/prepped_ligands/VTRRT

>  <Rbt.Executable>
rbdock/0.1.0

>  <Rbt.Library>
librxdock.so/0.1.0

>  <Rbt.Parameter_File>
/root/miniconda3/envs/rdock/share/rxdock-2013.1.1_148c5bd1-0/data/scripts/dock.prm

>  <Rbt.Receptor>
def.prm

>  <Rof5_cresset>
3

>  <SCORE>
-1.01515

>  <SCORE.INTER>
8.61957

>  <SCORE.INTER.CONST>
1

>  <SCORE.INTER.POLAR>
-1.35351

>  <SCORE.INTER.REPUL>
0.113074

>  <SCORE.INTER.ROT>
15

>  <SCORE.INTER.VDW>
-7.74388

>  <SCORE.INTER.norm>
0.169011

>  <SCORE.INTRA>
-10.1358

>  <SCORE.INTRA.DIHEDRAL>
-20.3324

>  <SCORE.INTRA.DIHEDRAL.0>
43.3056

>  <SCORE.INTRA.POLAR>
0

>  <SCORE.INTRA.POLAR.0>
0

>  <SCORE.INTRA.REPUL>
-0.80515

>  <SCORE.INTRA.REPUL.0>
1.18384

>  <SCORE.INTRA.VDW>
4.05615

>  <SCORE.INTRA.VDW.0>
-7.21879

>  <SCORE.INTRA.norm>
-0.198741

>  <SCORE.RESTR>
0.480193

>  <SCORE.RESTR.CAVITY>
0.480193

>  <SCORE.RESTR.norm>
0.00941555

>  <SCORE.SYSTEM>
0.0208863

>  <SCORE.SYSTEM.CONST>
0

>  <SCORE.SYSTEM.DIHEDRAL>
1.69871

>  <SCORE.SYSTEM.VDW>
-0.828469

>  <SCORE.SYSTEM.norm>
0.000409535

>  <SCORE.heavy>
51

>  <SCORE.norm>
-0.019905

>  <SlogP_cresset>
4

>  <TPSA_cresset>
225.1

>  <_cresset_fieldpoints>
    -5      16.836018       5.832630      29.221167     -3.6840
    -5      12.689775      -0.157515      20.961832    -26.5835
    -5      10.603017       0.175630      26.550167     -8.1895
    -5      16.438017       3.291630      24.075167     -2.5740
    -5      10.777017       2.958630      26.544167    -13.1420
    -5      14.325016       6.363630      19.343166     -3.9175
    -5      10.138498      -1.142644      20.673992    -19.3483
    -5       8.999017       3.081630      18.875168    -11.2330
    -5      16.643017      -2.580370      18.078167    -12.9950
    -5       9.665886      -1.797647      20.491711    -20.2282
    -5       9.721017       2.679630      21.897167    -10.3470
    -5       9.495016      -3.987370      19.277166    -12.3125
    -6       9.544017       6.999630      25.870167     13.2990
    -6      11.781016       8.517631      22.930166      7.7900
    -6      14.607017       1.112630      25.440166      7.0810
    -6      15.386017       0.918630      28.446167      2.3985
    -6      18.624016       1.298630      27.807167      2.3740
    -6      20.392017       2.874630      26.722168      2.3035
    -6      17.648016       0.730630      28.195168      2.3685
    -6      14.512016       8.724630      26.097166      6.5595
    -6       8.569016      -0.973370      14.343166     10.8755
    -6       7.728017       1.126630      14.428167      9.6685
    -6       9.165016      -5.976370      22.174168      8.4205
    -6      13.686016      -5.263370      22.254168      6.1950
    -6      13.877016       8.944631      27.096167      6.4995
    -6      12.880016      -5.307370      17.193167     12.0245
    -7      15.472016       6.118630      22.868166     -3.2390
    -7      16.618017       6.190630      29.550167     -1.8400
    -7      20.678017       4.935630      25.563168     -0.9695
    -7      14.813017       8.811630      25.026167     -2.2140
    -7      10.993016       2.287630      26.765167     -3.3000
    -7      14.052017       0.966630      26.100166     -2.8945
    -7      19.113016       1.220630      27.604168     -0.9705
    -7      16.034016       2.731630      23.912167     -3.3250
    -7      10.857017       6.577630      27.959167     -2.0560
    -7       9.494017       3.463630      21.639168     -4.2685
    -7      10.789017       9.786630      25.500168     -0.9715
    -7      14.840016       6.494630      19.649166     -1.8715
    -7       8.671017       3.594630      18.487167     -2.1885
    -7       9.509016       9.096630      19.641167     -0.9730
    -7      10.391017      -1.625370      26.086166     -2.4190
    -7       4.660017      -1.773370      25.985167     -0.9695
    -7       4.569016       2.557630      27.332167     -0.9680
    -7      14.875017      -4.579370      21.768167     -1.8885
    -7      13.267016      -5.347370      16.886168     -1.9350
    -7       6.954017      -1.202370      16.804167     -1.5235
    -7      11.071016       0.523630      14.355167     -1.5285
    -7      13.461017       0.151630      20.851168     -4.5370
    -7       9.025017      -1.430370      20.607166     -4.2605
    -8      14.386017       5.687630      26.072166      5.7545
    -8      16.303017       4.649630      26.702168      7.2160
    -8      12.821016       4.074630      23.412167      5.8535
    -8      11.879017       5.300630      20.313168      7.2105
    -8      14.967016       5.182630      26.638166      5.8010
    -8      12.613016       4.247630      22.352167      5.8285
    -8      13.423017       5.009630      25.510166      5.6895
    -8      12.579017       4.458630      21.224167      5.7810
    -8       7.903017       1.063630      24.720167      7.0265
    -8      11.517016      -3.053370      22.483168      4.3445
    -8      12.238016      -3.808370      21.025167      4.6035
    -8      12.152017      -3.126370      18.429167      4.4460
    -8      10.771017      -2.113370      17.279167      4.9125

$$$$
Untitled
  RxDock  02242112163D
librxdock.so/0.1.0
 60 65  0  0  0  0  0  0  0  0999 V2000
  -42.9036    1.6326   18.5440 C   0  0  0  0  0  0
  -44.1362    1.6682   19.1557 C   0  0  0  0  0  0
  -44.2660    1.3159   20.4814 C   0  0  0  0  0  0
  -43.1499    0.9271   21.1911 C   0  0  0  0  0  0
  -41.9167    0.8898   20.5809 C   0  0  0  0  0  0
  -41.7940    1.2426   19.2568 C   0  0  0  0  0  0
  -45.6292    1.3588   21.1569 C   0  0  0  0  0  0
  -46.7819    0.7274   20.3449 C   0  0  0  0  0  0
  -47.1969    1.6816   19.2570 N   0  3  0  0  0  0
  -47.9663    0.3927   21.2808 C   0  0  0  0  0  0
  -47.5531    0.5000   22.6548 O   0  0  0  0  0  0
  -48.5006   -1.0326   21.0216 C   0  0  0  0  0  0
  -48.6360   -1.3256   19.5108 C   0  0  0  0  0  0
  -49.0931   -2.7881   19.3094 C   0  0  0  0  0  0
  -50.4922   -3.1133   19.8094 C   0  0  0  0  0  0
  -50.6733   -4.0380   20.8151 C   0  0  0  0  0  0
  -51.9397   -4.3358   21.2667 C   0  0  0  0  0  0
  -53.0319   -3.7105   20.7122 C   0  0  0  0  0  0
  -52.8570   -2.7858   19.7068 C   0  0  0  0  0  0
  -51.5900   -2.4890   19.2580 C   0  0  0  0  0  0
  -49.6268   -0.4171   18.9177 N   0  0  0  0  0  0
  -49.5050   -0.2656   17.4222 P   0  0  0  0  0  0
  -49.3865   -1.6958   16.6974 O   0  0  0  0  0  0
  -48.1079    0.4481   17.0469 O   0  0  0  0  0  0
  -50.6633    0.5098   16.8519 O   0  0  0  0  0  0
  -49.6770   -1.7885   15.2950 C   0  0  0  0  0  0
  -47.0117   -0.2621   16.6436 C   0  0  0  0  0  0
  -46.6985   -0.4231   15.3061 C   0  0  0  0  0  0
  -45.5862   -1.1403   14.9330 C   0  0  0  0  0  0
  -44.7750   -1.7019   15.8924 C   0  0  0  0  0  0
  -45.0793   -1.5470   17.2256 C   0  0  0  0  0  0
  -46.1927   -0.8327   17.5988 C   0  0  0  0  0  0
  -50.9224   -2.6636   15.0792 C   0  0  0  0  0  0
  -51.4425   -3.1523   16.3274 O   0  0  0  0  0  0
  -52.0080   -4.4652   16.1531 C   0  0  0  0  0  0
  -51.7767   -4.8379   14.6694 C   0  0  0  0  0  0
  -50.6418   -3.9069   14.2233 C   0  0  0  0  0  0
  -49.3750   -4.5022   14.5445 O   0  0  0  0  0  0
  -51.4420   -6.2208   14.4725 O   0  0  0  0  0  0
  -51.3022   -5.3450   17.1792 C   0  0  0  0  0  0
  -53.4466   -4.3900   16.4385 C   0  0  0  0  0  0
  -54.5604   -4.3311   16.6586 N   0  0  0  0  0  0
  -49.9633   -5.2622   17.3662 N   0  0  0  0  0  0
  -49.6807   -6.1739   18.3342 C   0  0  0  0  0  0
  -50.8033   -6.8163   18.7475 C   0  0  0  0  0  0
  -51.8481   -6.2750   17.9932 C   0  0  0  0  0  0
  -48.9772   -4.5042   16.8022 N   0  0  0  0  0  0
  -47.7492   -4.6846   17.2274 C   0  0  0  0  0  0
  -47.3486   -5.5692   18.1968 N   0  0  0  0  0  0
  -48.3274   -6.3055   18.7402 C   0  0  0  0  0  0
  -47.9671   -7.2040   19.7167 N   0  0  0  0  0  0
  -46.4836    1.9799   18.7785 H   0  0  0  0  0  0
  -47.7672    1.2889   18.6657 H   0  0  0  0  0  0
  -47.6297    2.4107   19.5823 H   0  0  0  0  0  0
  -48.3381    0.4241   23.2786 H   0  0  0  0  0  0
  -49.5879    0.5004   19.3802 H   0  0  0  0  0  0
  -48.6109   -3.9207   14.2432 H   0  0  0  0  0  0
  -51.0072   -6.3682   13.5776 H   0  0  0  0  0  0
  -47.1233   -7.2722   19.9579 H   0  0  0  0  0  0
  -48.5750   -7.7106   20.1030 H   0  0  0  0  0  0
  1  2  2  0  0  0
  2  3  1  0  0  0
  3  4  2  0  0  0
  3  7  1  0  0  0
  4  5  1  0  0  0
  5  6  2  0  0  0
  6  1  1  0  0  0
  7  8  1  0  0  0
  8  9  1  0  0  0
  8 10  1  0  0  0
 10 11  1  0  0  0
 10 12  1  0  0  0
 12 13  1  0  0  0
 13 14  1  0  0  0
 13 21  1  0  0  0
 14 15  1  0  0  0
 15 16  2  0  0  0
 16 17  1  0  0  0
 17 18  2  0  0  0
 18 19  1  0  0  0
 19 20  2  0  0  0
 20 15  1  0  0  0
 21 22  1  0  0  0
 22 23  1  0  0  0
 22 24  1  0  0  0
 22 25  2  0  0  0
 23 26  1  0  0  0
 24 27  1  0  0  0
 27 28  2  0  0  0
 28 29  1  0  0  0
 29 30  2  0  0  0
 30 31  1  0  0  0
 31 32  2  0  0  0
 32 27  1  0  0  0
 33 26  1  0  0  0
 33 34  1  0  0  0
 34 35  1  0  0  0
 35 36  1  0  0  0
 35 40  1  0  0  0
 35 41  1  0  0  0
 36 37  1  0  0  0
 36 39  1  0  0  0
 37 33  1  0  0  0
 37 38  1  0  0  0
 40 43  1  0  0  0
 41 42  3  0  0  0
 43 44  1  0  0  0
 43 47  1  0  0  0
 44 45  2  0  0  0
 45 46  1  0  0  0
 46 40  2  0  0  0
 47 48  2  0  0  0
 48 49  1  0  0  0
 49 50  2  0  0  0
 50 44  1  0  0  0
 50 51  1  0  0  0
  9 52  1  0  0  0
  9 53  1  0  0  0
  9 54  1  0  0  0
 11 55  1  0  0  0
 21 56  1  0  0  0
 38 57  1  0  0  0
 39 58  1  0  0  0
 51 59  1  0  0  0
 51 60  1  0  0  0
M  END
>  <#Atoms_cresset>
51

>  <#RB_cresset>
18

>  <BioMolTech Lead Finder LE>
-0.172

>  <BioMolTech Lead Finder Pose rank>
0

>  <BioMolTech Lead Finder Rank score>
-13.57

>  <BioMolTech Lead Finder SDF id>
0

>  <BioMolTech Lead Finder Structure Name>
/var/folders/xd/y7jw_xv579q2qqq7kks92xd80000gn/T/LeadFinder_21448_1/Ligand_1.sdf

>  <BioMolTech Lead Finder VSscore>
-13.341

>  <BioMolTech Lead Finder dG>
-8.761

>  <BioMolTech Lead Finder version>
2001 1, 19 January 2019

>  <CHROM.0>
-60.25880452,179.86125777,16.07107000

>  <CHROM.1>
45.89542209,-76.89191530,49.97624137,-12.07767001,171.37443209,-44.45689920
176.68206762,66.15301201,159.70056421,-117.61620832,48.26889642,160.85285031
98.77904169,-114.88190927,97.05151188,-0.44460161,-43.87877335,-161.08234764
-69.88352439,-48.70835467,-2.26043582,18.08033508,-0.45150284,-0.62361893
-1.85379233

>  <Confs_cresset>
0

>  <Favorite_cresset>
false

>  <Filename_cresset>
VTRRT-13V2.1.sdf

>  <Flexibility_cresset>
17.1

>  <LF LE>
-0.172

>  <LF Rank Score>
-13.57

>  <LF VSscore>
-13.341

>  <LF dG>
-8.761

>  <MW_cresset>
714.7

>  <Name>
Untitled

>  <Poses_cresset>
10

>  <Preferred Pose_cresset>
true

>  <Protein_cresset>
6Y2F_P

>  <RI>
-6.34158e+08

>  <Rbt.Current_Directory>
/root/miniconda3/envs/rdock/share/rxdock-2013.1.1_148c5bd1-0/data/ligands/prepped_ligands/VTRRT

>  <Rbt.Executable>
rbdock/0.1.0

>  <Rbt.Library>
librxdock.so/0.1.0

>  <Rbt.Parameter_File>
/root/miniconda3/envs/rdock/share/rxdock-2013.1.1_148c5bd1-0/data/scripts/dock.prm

>  <Rbt.Receptor>
def.prm

>  <Rof5_cresset>
3

>  <SCORE>
-23.3345

>  <SCORE.INTER>
-8.13784

>  <SCORE.INTER.CONST>
1

>  <SCORE.INTER.POLAR>
-1.9017

>  <SCORE.INTER.REPUL>
0.192346

>  <SCORE.INTER.ROT>
15

>  <SCORE.INTER.VDW>
-23.0338

>  <SCORE.INTER.norm>
-0.159566

>  <SCORE.INTRA>
-16.6759

>  <SCORE.INTRA.DIHEDRAL>
-10.9939

>  <SCORE.INTRA.DIHEDRAL.0>
43.3056

>  <SCORE.INTRA.POLAR>
-1.16293

>  <SCORE.INTRA.POLAR.0>
0

>  <SCORE.INTRA.REPUL>
-0.64424

>  <SCORE.INTRA.REPUL.0>
1.18384

>  <SCORE.INTRA.VDW>
-4.00384

>  <SCORE.INTRA.VDW.0>
-7.21879

>  <SCORE.INTRA.norm>
-0.326979

>  <SCORE.RESTR>
0.587695

>  <SCORE.RESTR.CAVITY>
0.587695

>  <SCORE.RESTR.norm>
0.0115234

>  <SCORE.SYSTEM>
0.89156

>  <SCORE.SYSTEM.CONST>
0

>  <SCORE.SYSTEM.DIHEDRAL>
3.01153

>  <SCORE.SYSTEM.VDW>
-0.614205

>  <SCORE.SYSTEM.norm>
0.0174816

>  <SCORE.heavy>
51

>  <SCORE.norm>
-0.45754

>  <SlogP_cresset>
4

>  <TPSA_cresset>
225.1

>  <_cresset_fieldpoints>
    -5      16.836018       5.832630      29.221167     -3.6840
    -5      12.689775      -0.157515      20.961832    -26.5835
    -5      10.603017       0.175630      26.550167     -8.1895
    -5      16.438017       3.291630      24.075167     -2.5740
    -5      10.777017       2.958630      26.544167    -13.1420
    -5      14.325016       6.363630      19.343166     -3.9175
    -5      10.138498      -1.142644      20.673992    -19.3483
    -5       8.999017       3.081630      18.875168    -11.2330
    -5      16.643017      -2.580370      18.078167    -12.9950
    -5       9.665886      -1.797647      20.491711    -20.2282
    -5       9.721017       2.679630      21.897167    -10.3470
    -5       9.495016      -3.987370      19.277166    -12.3125
    -6       9.544017       6.999630      25.870167     13.2990
    -6      11.781016       8.517631      22.930166      7.7900
    -6      14.607017       1.112630      25.440166      7.0810
    -6      15.386017       0.918630      28.446167      2.3985
    -6      18.624016       1.298630      27.807167      2.3740
    -6      20.392017       2.874630      26.722168      2.3035
    -6      17.648016       0.730630      28.195168      2.3685
    -6      14.512016       8.724630      26.097166      6.5595
    -6       8.569016      -0.973370      14.343166     10.8755
    -6       7.728017       1.126630      14.428167      9.6685
    -6       9.165016      -5.976370      22.174168      8.4205
    -6      13.686016      -5.263370      22.254168      6.1950
    -6      13.877016       8.944631      27.096167      6.4995
    -6      12.880016      -5.307370      17.193167     12.0245
    -7      15.472016       6.118630      22.868166     -3.2390
    -7      16.618017       6.190630      29.550167     -1.8400
    -7      20.678017       4.935630      25.563168     -0.9695
    -7      14.813017       8.811630      25.026167     -2.2140
    -7      10.993016       2.287630      26.765167     -3.3000
    -7      14.052017       0.966630      26.100166     -2.8945
    -7      19.113016       1.220630      27.604168     -0.9705
    -7      16.034016       2.731630      23.912167     -3.3250
    -7      10.857017       6.577630      27.959167     -2.0560
    -7       9.494017       3.463630      21.639168     -4.2685
    -7      10.789017       9.786630      25.500168     -0.9715
    -7      14.840016       6.494630      19.649166     -1.8715
    -7       8.671017       3.594630      18.487167     -2.1885
    -7       9.509016       9.096630      19.641167     -0.9730
    -7      10.391017      -1.625370      26.086166     -2.4190
    -7       4.660017      -1.773370      25.985167     -0.9695
    -7       4.569016       2.557630      27.332167     -0.9680
    -7      14.875017      -4.579370      21.768167     -1.8885
    -7      13.267016      -5.347370      16.886168     -1.9350
    -7       6.954017      -1.202370      16.804167     -1.5235
    -7      11.071016       0.523630      14.355167     -1.5285
    -7      13.461017       0.151630      20.851168     -4.5370
    -7       9.025017      -1.430370      20.607166     -4.2605
    -8      14.386017       5.687630      26.072166      5.7545
    -8      16.303017       4.649630      26.702168      7.2160
    -8      12.821016       4.074630      23.412167      5.8535
    -8      11.879017       5.300630      20.313168      7.2105
    -8      14.967016       5.182630      26.638166      5.8010
    -8      12.613016       4.247630      22.352167      5.8285
    -8      13.423017       5.009630      25.510166      5.6895
    -8      12.579017       4.458630      21.224167      5.7810
    -8       7.903017       1.063630      24.720167      7.0265
    -8      11.517016      -3.053370      22.483168      4.3445
    -8      12.238016      -3.808370      21.025167      4.6035
    -8      12.152017      -3.126370      18.429167      4.4460
    -8      10.771017      -2.113370      17.279167      4.9125

$$$$
Untitled
  RxDock  02242112163D
librxdock.so/0.1.0
 60 65  0  0  0  0  0  0  0  0999 V2000
  -49.4446   -9.6879   19.1968 C   0  0  0  0  0  0
  -50.3172   -8.8244   19.8195 C   0  0  0  0  0  0
  -50.7913   -7.7144   19.1548 C   0  0  0  0  0  0
  -50.3841   -7.4754   17.8596 C   0  0  0  0  0  0
  -49.5108   -8.3372   17.2357 C   0  0  0  0  0  0
  -49.0410   -9.4436   17.9050 C   0  0  0  0  0  0
  -51.7585   -6.7624   19.8438 C   0  0  0  0  0  0
  -51.1629   -5.3897   20.2283 C   0  0  0  0  0  0
  -50.2542   -5.5635   21.4160 N   0  3  0  0  0  0
  -52.2997   -4.3867   20.5326 C   0  0  0  0  0  0
  -53.1227   -4.8858   21.6021 O   0  0  0  0  0  0
  -53.1794   -4.1415   19.2875 C   0  0  0  0  0  0
  -52.3362   -4.0890   17.9941 C   0  0  0  0  0  0
  -53.2414   -3.6926   16.8058 C   0  0  0  0  0  0
  -53.9665   -4.8412   16.1214 C   0  0  0  0  0  0
  -55.3393   -4.8235   16.0021 C   0  0  0  0  0  0
  -55.9976   -5.8642   15.3856 C   0  0  0  0  0  0
  -55.2845   -6.9291   14.8866 C   0  0  0  0  0  0
  -53.9126   -6.9522   15.0031 C   0  0  0  0  0  0
  -53.2569   -5.9101   15.6189 C   0  0  0  0  0  0
  -51.2626   -3.0972   18.1436 N   0  0  0  0  0  0
  -50.2426   -3.1226   17.0330 P   0  0  0  0  0  0
  -50.0519   -1.6655   16.3808 O   0  0  0  0  0  0
  -50.7872   -4.0047   15.7972 O   0  0  0  0  0  0
  -48.9176   -3.6518   17.5153 O   0  0  0  0  0  0
  -48.7946   -0.9927   16.5426 C   0  0  0  0  0  0
  -50.2104   -3.9588   14.5586 C   0  0  0  0  0  0
  -50.0049   -5.1014   13.8069 C   0  0  0  0  0  0
  -49.4255   -5.0211   12.5625 C   0  0  0  0  0  0
  -49.0473   -3.7985   12.0563 C   0  0  0  0  0  0
  -49.2476   -2.6566   12.7977 C   0  0  0  0  0  0
  -49.8242   -2.7367   14.0428 C   0  0  0  0  0  0
  -48.9004    0.0402   17.6765 C   0  0  0  0  0  0
  -47.6938    0.8129   17.7960 O   0  0  0  0  0  0
  -47.4545    1.1553   19.1742 C   0  0  0  0  0  0
  -48.5962    0.4963   19.9840 C   0  0  0  0  0  0
  -49.1295   -0.6003   19.0528 C   0  0  0  0  0  0
  -48.3529   -1.7963   19.2217 O   0  0  0  0  0  0
  -48.1678   -0.0370   21.2470 O   0  0  0  0  0  0
  -46.0472    0.6503   19.4740 C   0  0  0  0  0  0
  -47.5184    2.6166   19.3049 C   0  0  0  0  0  0
  -47.5689    3.7478   19.4057 N   0  0  0  0  0  0
  -45.3562   -0.0733   18.5611 N   0  0  0  0  0  0
  -44.1652   -0.3525   19.1539 C   0  0  0  0  0  0
  -44.1021    0.1752   20.4034 C   0  0  0  0  0  0
  -45.3254    0.8210   20.6033 C   0  0  0  0  0  0
  -45.6361   -0.5140   17.2991 N   0  0  0  0  0  0
  -44.7162   -1.2137   16.6784 C   0  0  0  0  0  0
  -43.4824   -1.5518   17.1743 N   0  0  0  0  0  0
  -43.2230   -1.1124   18.4134 C   0  0  0  0  0  0
  -41.9959   -1.4296   18.9465 N   0  0  0  0  0  0
  -49.4003   -5.7487   21.1643 H   0  0  0  0  0  0
  -50.2225   -4.8107   21.9273 H   0  0  0  0  0  0
  -50.5266   -6.2332   21.9655 H   0  0  0  0  0  0
  -52.5850   -5.0283   22.4398 H   0  0  0  0  0  0
  -50.8061   -3.2043   19.0588 H   0  0  0  0  0  0
  -48.1451   -1.9633   20.1922 H   0  0  0  0  0  0
  -47.8000    0.6847   21.8432 H   0  0  0  0  0  0
  -41.4224   -1.9007   18.4732 H   0  0  0  0  0  0
  -41.7798   -1.1636   19.7577 H   0  0  0  0  0  0
  1  2  2  0  0  0
  2  3  1  0  0  0
  3  4  2  0  0  0
  3  7  1  0  0  0
  4  5  1  0  0  0
  5  6  2  0  0  0
  6  1  1  0  0  0
  7  8  1  0  0  0
  8  9  1  0  0  0
  8 10  1  0  0  0
 10 11  1  0  0  0
 10 12  1  0  0  0
 12 13  1  0  0  0
 13 14  1  0  0  0
 13 21  1  0  0  0
 14 15  1  0  0  0
 15 16  2  0  0  0
 16 17  1  0  0  0
 17 18  2  0  0  0
 18 19  1  0  0  0
 19 20  2  0  0  0
 20 15  1  0  0  0
 21 22  1  0  0  0
 22 23  1  0  0  0
 22 24  1  0  0  0
 22 25  2  0  0  0
 23 26  1  0  0  0
 24 27  1  0  0  0
 27 28  2  0  0  0
 28 29  1  0  0  0
 29 30  2  0  0  0
 30 31  1  0  0  0
 31 32  2  0  0  0
 32 27  1  0  0  0
 33 26  1  0  0  0
 33 34  1  0  0  0
 34 35  1  0  0  0
 35 36  1  0  0  0
 35 40  1  0  0  0
 35 41  1  0  0  0
 36 37  1  0  0  0
 36 39  1  0  0  0
 37 33  1  0  0  0
 37 38  1  0  0  0
 40 43  1  0  0  0
 41 42  3  0  0  0
 43 44  1  0  0  0
 43 47  1  0  0  0
 44 45  2  0  0  0
 45 46  1  0  0  0
 46 40  2  0  0  0
 47 48  2  0  0  0
 48 49  1  0  0  0
 49 50  2  0  0  0
 50 44  1  0  0  0
 50 51  1  0  0  0
  9 52  1  0  0  0
  9 53  1  0  0  0
  9 54  1  0  0  0
 11 55  1  0  0  0
 21 56  1  0  0  0
 38 57  1  0  0  0
 39 58  1  0  0  0
 51 59  1  0  0  0
 51 60  1  0  0  0
M  END
>  <#Atoms_cresset>
51

>  <#RB_cresset>
18

>  <BioMolTech Lead Finder LE>
-0.172

>  <BioMolTech Lead Finder Pose rank>
0

>  <BioMolTech Lead Finder Rank score>
-13.57

>  <BioMolTech Lead Finder SDF id>
0

>  <BioMolTech Lead Finder Structure Name>
/var/folders/xd/y7jw_xv579q2qqq7kks92xd80000gn/T/LeadFinder_21448_1/Ligand_1.sdf

>  <BioMolTech Lead Finder VSscore>
-13.341

>  <BioMolTech Lead Finder dG>
-8.761

>  <BioMolTech Lead Finder version>
2001 1, 19 January 2019

>  <CHROM.0>
-82.09486618,-123.70118537,-162.52365800

>  <CHROM.1>
108.60190021,-73.94126032,89.39539940,58.56687089,59.46000659,-38.43342780
-173.98269819,-86.44267580,170.43779759,124.00506535,126.74467027,113.55232962
165.29922968,-99.66502281,138.31935169,-175.20794781,-5.82494503,61.30218559
152.58620037,-49.41987966,-3.17949784,17.75260888,3.12412923,-0.78049304
-1.30484521

>  <Confs_cresset>
0

>  <Favorite_cresset>
false

>  <Filename_cresset>
VTRRT-13V2.1.sdf

>  <Flexibility_cresset>
17.1

>  <LF LE>
-0.172

>  <LF Rank Score>
-13.57

>  <LF VSscore>
-13.341

>  <LF dG>
-8.761

>  <MW_cresset>
714.7

>  <Name>
Untitled

>  <Poses_cresset>
10

>  <Preferred Pose_cresset>
true

>  <Protein_cresset>
6Y2F_P

>  <RI>
-6.34158e+08

>  <Rbt.Current_Directory>
/root/miniconda3/envs/rdock/share/rxdock-2013.1.1_148c5bd1-0/data/ligands/prepped_ligands/VTRRT

>  <Rbt.Executable>
rbdock/0.1.0

>  <Rbt.Library>
librxdock.so/0.1.0

>  <Rbt.Parameter_File>
/root/miniconda3/envs/rdock/share/rxdock-2013.1.1_148c5bd1-0/data/scripts/dock.prm

>  <Rbt.Receptor>
def.prm

>  <Rof5_cresset>
3

>  <SCORE>
-20.1732

>  <SCORE.INTER>
-12.6721

>  <SCORE.INTER.CONST>
1

>  <SCORE.INTER.POLAR>
-1.35687

>  <SCORE.INTER.REPUL>
0.358559

>  <SCORE.INTER.ROT>
15

>  <SCORE.INTER.VDW>
-30.2515

>  <SCORE.INTER.norm>
-0.248472

>  <SCORE.INTRA>
-12.3077

>  <SCORE.INTRA.DIHEDRAL>
-18.814

>  <SCORE.INTRA.DIHEDRAL.0>
43.3056

>  <SCORE.INTRA.POLAR>
-0.145625

>  <SCORE.INTRA.POLAR.0>
0

>  <SCORE.INTRA.REPUL>
-1.18384

>  <SCORE.INTRA.REPUL.0>
1.18384

>  <SCORE.INTRA.VDW>
3.51358

>  <SCORE.INTRA.VDW.0>
-7.21879

>  <SCORE.INTRA.norm>
-0.241328

>  <SCORE.RESTR>
1.25802

>  <SCORE.RESTR.CAVITY>
1.25802

>  <SCORE.RESTR.norm>
0.0246671

>  <SCORE.SYSTEM>
3.54852

>  <SCORE.SYSTEM.CONST>
0

>  <SCORE.SYSTEM.DIHEDRAL>
8.91181

>  <SCORE.SYSTEM.POLAR>
-0.0197129

>  <SCORE.SYSTEM.VDW>
-0.840363

>  <SCORE.SYSTEM.norm>
0.0695787

>  <SCORE.heavy>
51

>  <SCORE.norm>
-0.395554

>  <SlogP_cresset>
4

>  <TPSA_cresset>
225.1

>  <_cresset_fieldpoints>
    -5      16.836018       5.832630      29.221167     -3.6840
    -5      12.689775      -0.157515      20.961832    -26.5835
    -5      10.603017       0.175630      26.550167     -8.1895
    -5      16.438017       3.291630      24.075167     -2.5740
    -5      10.777017       2.958630      26.544167    -13.1420
    -5      14.325016       6.363630      19.343166     -3.9175
    -5      10.138498      -1.142644      20.673992    -19.3483
    -5       8.999017       3.081630      18.875168    -11.2330
    -5      16.643017      -2.580370      18.078167    -12.9950
    -5       9.665886      -1.797647      20.491711    -20.2282
    -5       9.721017       2.679630      21.897167    -10.3470
    -5       9.495016      -3.987370      19.277166    -12.3125
    -6       9.544017       6.999630      25.870167     13.2990
    -6      11.781016       8.517631      22.930166      7.7900
    -6      14.607017       1.112630      25.440166      7.0810
    -6      15.386017       0.918630      28.446167      2.3985
    -6      18.624016       1.298630      27.807167      2.3740
    -6      20.392017       2.874630      26.722168      2.3035
    -6      17.648016       0.730630      28.195168      2.3685
    -6      14.512016       8.724630      26.097166      6.5595
    -6       8.569016      -0.973370      14.343166     10.8755
    -6       7.728017       1.126630      14.428167      9.6685
    -6       9.165016      -5.976370      22.174168      8.4205
    -6      13.686016      -5.263370      22.254168      6.1950
    -6      13.877016       8.944631      27.096167      6.4995
    -6      12.880016      -5.307370      17.193167     12.0245
    -7      15.472016       6.118630      22.868166     -3.2390
    -7      16.618017       6.190630      29.550167     -1.8400
    -7      20.678017       4.935630      25.563168     -0.9695
    -7      14.813017       8.811630      25.026167     -2.2140
    -7      10.993016       2.287630      26.765167     -3.3000
    -7      14.052017       0.966630      26.100166     -2.8945
    -7      19.113016       1.220630      27.604168     -0.9705
    -7      16.034016       2.731630      23.912167     -3.3250
    -7      10.857017       6.577630      27.959167     -2.0560
    -7       9.494017       3.463630      21.639168     -4.2685
    -7      10.789017       9.786630      25.500168     -0.9715
    -7      14.840016       6.494630      19.649166     -1.8715
    -7       8.671017       3.594630      18.487167     -2.1885
    -7       9.509016       9.096630      19.641167     -0.9730
    -7      10.391017      -1.625370      26.086166     -2.4190
    -7       4.660017      -1.773370      25.985167     -0.9695
    -7       4.569016       2.557630      27.332167     -0.9680
    -7      14.875017      -4.579370      21.768167     -1.8885
    -7      13.267016      -5.347370      16.886168     -1.9350
    -7       6.954017      -1.202370      16.804167     -1.5235
    -7      11.071016       0.523630      14.355167     -1.5285
    -7      13.461017       0.151630      20.851168     -4.5370
    -7       9.025017      -1.430370      20.607166     -4.2605
    -8      14.386017       5.687630      26.072166      5.7545
    -8      16.303017       4.649630      26.702168      7.2160
    -8      12.821016       4.074630      23.412167      5.8535
    -8      11.879017       5.300630      20.313168      7.2105
    -8      14.967016       5.182630      26.638166      5.8010
    -8      12.613016       4.247630      22.352167      5.8285
    -8      13.423017       5.009630      25.510166      5.6895
    -8      12.579017       4.458630      21.224167      5.7810
    -8       7.903017       1.063630      24.720167      7.0265
    -8      11.517016      -3.053370      22.483168      4.3445
    -8      12.238016      -3.808370      21.025167      4.6035
    -8      12.152017      -3.126370      18.429167      4.4460
    -8      10.771017      -2.113370      17.279167      4.9125

$$$$
Untitled
  RxDock  02242112163D
librxdock.so/0.1.0
 60 65  0  0  0  0  0  0  0  0999 V2000
  -41.2254    1.0222   19.8337 C   0  0  0  0  0  0
  -42.1396    0.9625   18.8062 C   0  0  0  0  0  0
  -43.4909    0.9782   19.0749 C   0  0  0  0  0  0
  -43.9205    1.0544   20.3827 C   0  0  0  0  0  0
  -43.0079    1.1131   21.4113 C   0  0  0  0  0  0
  -41.6600    1.0968   21.1363 C   0  0  0  0  0  0
  -44.5002    0.9152   17.9374 C   0  0  0  0  0  0
  -44.8692   -0.5098   17.4684 C   0  0  0  0  0  0
  -45.3615   -0.4473   16.0471 N   0  3  0  0  0  0
  -45.9383   -1.1151   18.4072 C   0  0  0  0  0  0
  -46.3060   -2.4293   17.9512 O   0  0  0  0  0  0
  -47.2001   -0.2272   18.4665 C   0  0  0  0  0  0
  -48.4377   -1.0243   18.9353 C   0  0  0  0  0  0
  -48.2162   -1.5126   20.3848 C   0  0  0  0  0  0
  -47.3512   -0.6139   21.2552 C   0  0  0  0  0  0
  -46.3102   -1.1464   21.9846 C   0  0  0  0  0  0
  -45.5282   -0.3346   22.7757 C   0  0  0  0  0  0
  -45.7856    1.0148   22.8418 C   0  0  0  0  0  0
  -46.8245    1.5524   22.1152 C   0  0  0  0  0  0
  -47.6041    0.7389   21.3244 C   0  0  0  0  0  0
  -49.6279   -0.1643   18.8850 N   0  0  0  0  0  0
  -50.2917   -0.1112   17.5319 P   0  0  0  0  0  0
  -50.9063   -1.5402   17.1256 O   0  0  0  0  0  0
  -49.1913    0.1506   16.3819 O   0  0  0  0  0  0
  -51.3637    0.9457   17.4865 O   0  0  0  0  0  0
  -52.3265   -1.7313   17.2029 C   0  0  0  0  0  0
  -48.8185   -0.8204   15.4948 C   0  0  0  0  0  0
  -49.1042   -0.7239   14.1451 C   0  0  0  0  0  0
  -48.7121   -1.7163   13.2778 C   0  0  0  0  0  0
  -48.0292   -2.8138   13.7502 C   0  0  0  0  0  0
  -47.7411   -2.9182   15.0919 C   0  0  0  0  0  0
  -48.1355   -1.9278   15.9595 C   0  0  0  0  0  0
  -52.6868   -3.1476   16.7255 C   0  0  0  0  0  0
  -52.1376   -4.1504   17.5973 O   0  0  0  0  0  0
  -51.7765   -5.3235   16.8441 C   0  0  0  0  0  0
  -52.0927   -4.9974   15.3652 C   0  0  0  0  0  0
  -52.1460   -3.4646   15.3241 C   0  0  0  0  0  0
  -50.8229   -2.9410   15.1307 O   0  0  0  0  0  0
  -51.1245   -5.5233   14.4437 O   0  0  0  0  0  0
  -50.3086   -5.5742   17.1722 C   0  0  0  0  0  0
  -52.6080   -6.4426   17.3054 C   0  0  0  0  0  0
  -53.2526   -7.3084   17.6623 N   0  0  0  0  0  0
  -49.8258   -6.8340   17.2926 N   0  0  0  0  0  0
  -48.5071   -6.6845   17.5867 C   0  0  0  0  0  0
  -48.1635   -5.3725   17.6528 C   0  0  0  0  0  0
  -49.3362   -4.6607   17.3851 C   0  0  0  0  0  0
  -50.3875   -8.0739   17.1825 N   0  0  0  0  0  0
  -49.6110   -9.1149   17.3684 C   0  0  0  0  0  0
  -48.2717   -9.0849   17.6650 N   0  0  0  0  0  0
  -47.7355   -7.8613   17.7698 C   0  0  0  0  0  0
  -46.3946   -7.7880   18.0652 N   0  0  0  0  0  0
  -46.0333    0.1574   15.9482 H   0  0  0  0  0  0
  -44.6985   -0.2033   15.4727 H   0  0  0  0  0  0
  -45.6717   -1.2483   15.7524 H   0  0  0  0  0  0
  -45.6389   -2.7850   17.2882 H   0  0  0  0  0  0
  -49.3955    0.7821   19.2131 H   0  0  0  0  0  0
  -50.1892   -3.2791   15.8358 H   0  0  0  0  0  0
  -51.0946   -6.5281   14.4781 H   0  0  0  0  0  0
  -45.9302   -8.5278   18.1744 H   0  0  0  0  0  0
  -45.9975   -7.0061   18.1448 H   0  0  0  0  0  0
  1  2  2  0  0  0
  2  3  1  0  0  0
  3  4  2  0  0  0
  3  7  1  0  0  0
  4  5  1  0  0  0
  5  6  2  0  0  0
  6  1  1  0  0  0
  7  8  1  0  0  0
  8  9  1  0  0  0
  8 10  1  0  0  0
 10 11  1  0  0  0
 10 12  1  0  0  0
 12 13  1  0  0  0
 13 14  1  0  0  0
 13 21  1  0  0  0
 14 15  1  0  0  0
 15 16  2  0  0  0
 16 17  1  0  0  0
 17 18  2  0  0  0
 18 19  1  0  0  0
 19 20  2  0  0  0
 20 15  1  0  0  0
 21 22  1  0  0  0
 22 23  1  0  0  0
 22 24  1  0  0  0
 22 25  2  0  0  0
 23 26  1  0  0  0
 24 27  1  0  0  0
 27 28  2  0  0  0
 28 29  1  0  0  0
 29 30  2  0  0  0
 30 31  1  0  0  0
 31 32  2  0  0  0
 32 27  1  0  0  0
 33 26  1  0  0  0
 33 34  1  0  0  0
 34 35  1  0  0  0
 35 36  1  0  0  0
 35 40  1  0  0  0
 35 41  1  0  0  0
 36 37  1  0  0  0
 36 39  1  0  0  0
 37 33  1  0  0  0
 37 38  1  0  0  0
 40 43  1  0  0  0
 41 42  3  0  0  0
 43 44  1  0  0  0
 43 47  1  0  0  0
 44 45  2  0  0  0
 45 46  1  0  0  0
 46 40  2  0  0  0
 47 48  2  0  0  0
 48 49  1  0  0  0
 49 50  2  0  0  0
 50 44  1  0  0  0
 50 51  1  0  0  0
  9 52  1  0  0  0
  9 53  1  0  0  0
  9 54  1  0  0  0
 11 55  1  0  0  0
 21 56  1  0  0  0
 38 57  1  0  0  0
 39 58  1  0  0  0
 51 59  1  0  0  0
 51 60  1  0  0  0
M  END
>  <#Atoms_cresset>
51

>  <#RB_cresset>
18

>  <BioMolTech Lead Finder LE>
-0.172

>  <BioMolTech Lead Finder Pose rank>
0

>  <BioMolTech Lead Finder Rank score>
-13.57

>  <BioMolTech Lead Finder SDF id>
0

>  <BioMolTech Lead Finder Structure Name>
/var/folders/xd/y7jw_xv579q2qqq7kks92xd80000gn/T/LeadFinder_21448_1/Ligand_1.sdf

>  <BioMolTech Lead Finder VSscore>
-13.341

>  <BioMolTech Lead Finder dG>
-8.761

>  <BioMolTech Lead Finder version>
2001 1, 19 January 2019

>  <CHROM.0>
174.79702383,-55.91078347,-42.17384706

>  <CHROM.1>
86.40771231,-156.03637926,-53.21507840,178.58433507,15.37170419,158.56752229
63.87585305,30.83966772,84.98805723,-130.81243817,65.67978276,104.69345476
108.59295646,178.11523484,113.35295803,64.61759414,143.54640385,62.52285223
56.00112729,-48.28021427,-2.42720991,17.82923385,-0.71758051,0.53625184,3.12770766

>  <Confs_cresset>
0

>  <Favorite_cresset>
false

>  <Filename_cresset>
VTRRT-13V2.1.sdf

>  <Flexibility_cresset>
17.1

>  <LF LE>
-0.172

>  <LF Rank Score>
-13.57

>  <LF VSscore>
-13.341

>  <LF dG>
-8.761

>  <MW_cresset>
714.7

>  <Name>
Untitled

>  <Poses_cresset>
10

>  <Preferred Pose_cresset>
true

>  <Protein_cresset>
6Y2F_P

>  <RI>
-6.34158e+08

>  <Rbt.Current_Directory>
/root/miniconda3/envs/rdock/share/rxdock-2013.1.1_148c5bd1-0/data/ligands/prepped_ligands/VTRRT

>  <Rbt.Executable>
rbdock/0.1.0

>  <Rbt.Library>
librxdock.so/0.1.0

>  <Rbt.Parameter_File>
/root/miniconda3/envs/rdock/share/rxdock-2013.1.1_148c5bd1-0/data/scripts/dock.prm

>  <Rbt.Receptor>
def.prm

>  <Rof5_cresset>
3

>  <SCORE>
-25.7264

>  <SCORE.INTER>
-10.8326

>  <SCORE.INTER.CONST>
1

>  <SCORE.INTER.POLAR>
-1.82789

>  <SCORE.INTER.REPUL>
0

>  <SCORE.INTER.ROT>
15

>  <SCORE.INTER.VDW>
-25.0178

>  <SCORE.INTER.norm>
-0.212404

>  <SCORE.INTRA>
-15.5116

>  <SCORE.INTRA.DIHEDRAL>
-19.0762

>  <SCORE.INTRA.DIHEDRAL.0>
43.3056

>  <SCORE.INTRA.POLAR>
0

>  <SCORE.INTRA.POLAR.0>
0

>  <SCORE.INTRA.REPUL>
-1.18384

>  <SCORE.INTRA.REPUL.0>
1.18384

>  <SCORE.INTRA.VDW>
-0.0543062

>  <SCORE.INTRA.VDW.0>
-7.21879

>  <SCORE.INTRA.norm>
-0.304149

>  <SCORE.RESTR>
1.06454

>  <SCORE.RESTR.CAVITY>
1.06454

>  <SCORE.RESTR.norm>
0.0208733

>  <SCORE.SYSTEM>
-0.446728

>  <SCORE.SYSTEM.CONST>
0

>  <SCORE.SYSTEM.DIHEDRAL>
0.868794

>  <SCORE.SYSTEM.POLAR>
-0.0199504

>  <SCORE.SYSTEM.VDW>
-0.813294

>  <SCORE.SYSTEM.norm>
-0.00875938

>  <SCORE.heavy>
51

>  <SCORE.norm>
-0.504439

>  <SlogP_cresset>
4

>  <TPSA_cresset>
225.1

>  <_cresset_fieldpoints>
    -5      16.836018       5.832630      29.221167     -3.6840
    -5      12.689775      -0.157515      20.961832    -26.5835
    -5      10.603017       0.175630      26.550167     -8.1895
    -5      16.438017       3.291630      24.075167     -2.5740
    -5      10.777017       2.958630      26.544167    -13.1420
    -5      14.325016       6.363630      19.343166     -3.9175
    -5      10.138498      -1.142644      20.673992    -19.3483
    -5       8.999017       3.081630      18.875168    -11.2330
    -5      16.643017      -2.580370      18.078167    -12.9950
    -5       9.665886      -1.797647      20.491711    -20.2282
    -5       9.721017       2.679630      21.897167    -10.3470
    -5       9.495016      -3.987370      19.277166    -12.3125
    -6       9.544017       6.999630      25.870167     13.2990
    -6      11.781016       8.517631      22.930166      7.7900
    -6      14.607017       1.112630      25.440166      7.0810
    -6      15.386017       0.918630      28.446167      2.3985
    -6      18.624016       1.298630      27.807167      2.3740
    -6      20.392017       2.874630      26.722168      2.3035
    -6      17.648016       0.730630      28.195168      2.3685
    -6      14.512016       8.724630      26.097166      6.5595
    -6       8.569016      -0.973370      14.343166     10.8755
    -6       7.728017       1.126630      14.428167      9.6685
    -6       9.165016      -5.976370      22.174168      8.4205
    -6      13.686016      -5.263370      22.254168      6.1950
    -6      13.877016       8.944631      27.096167      6.4995
    -6      12.880016      -5.307370      17.193167     12.0245
    -7      15.472016       6.118630      22.868166     -3.2390
    -7      16.618017       6.190630      29.550167     -1.8400
    -7      20.678017       4.935630      25.563168     -0.9695
    -7      14.813017       8.811630      25.026167     -2.2140
    -7      10.993016       2.287630      26.765167     -3.3000
    -7      14.052017       0.966630      26.100166     -2.8945
    -7      19.113016       1.220630      27.604168     -0.9705
    -7      16.034016       2.731630      23.912167     -3.3250
    -7      10.857017       6.577630      27.959167     -2.0560
    -7       9.494017       3.463630      21.639168     -4.2685
    -7      10.789017       9.786630      25.500168     -0.9715
    -7      14.840016       6.494630      19.649166     -1.8715
    -7       8.671017       3.594630      18.487167     -2.1885
    -7       9.509016       9.096630      19.641167     -0.9730
    -7      10.391017      -1.625370      26.086166     -2.4190
    -7       4.660017      -1.773370      25.985167     -0.9695
    -7       4.569016       2.557630      27.332167     -0.9680
    -7      14.875017      -4.579370      21.768167     -1.8885
    -7      13.267016      -5.347370      16.886168     -1.9350
    -7       6.954017      -1.202370      16.804167     -1.5235
    -7      11.071016       0.523630      14.355167     -1.5285
    -7      13.461017       0.151630      20.851168     -4.5370
    -7       9.025017      -1.430370      20.607166     -4.2605
    -8      14.386017       5.687630      26.072166      5.7545
    -8      16.303017       4.649630      26.702168      7.2160
    -8      12.821016       4.074630      23.412167      5.8535
    -8      11.879017       5.300630      20.313168      7.2105
    -8      14.967016       5.182630      26.638166      5.8010
    -8      12.613016       4.247630      22.352167      5.8285
    -8      13.423017       5.009630      25.510166      5.6895
    -8      12.579017       4.458630      21.224167      5.7810
    -8       7.903017       1.063630      24.720167      7.0265
    -8      11.517016      -3.053370      22.483168      4.3445
    -8      12.238016      -3.808370      21.025167      4.6035
    -8      12.152017      -3.126370      18.429167      4.4460
    -8      10.771017      -2.113370      17.279167      4.9125

$$$$
Untitled
  RxDock  02242112173D
librxdock.so/0.1.0
 60 65  0  0  0  0  0  0  0  0999 V2000
  -41.0890    1.7477   19.4977 C   0  0  0  0  0  0
  -41.5397    0.5668   20.0428 C   0  0  0  0  0  0
  -42.8909    0.3353   20.1823 C   0  0  0  0  0  0
  -43.7887    1.2972   19.7709 C   0  0  0  0  0  0
  -43.3399    2.4790   19.2266 C   0  0  0  0  0  0
  -41.9894    2.7040   19.0903 C   0  0  0  0  0  0
  -43.3875   -0.9722   20.7825 C   0  0  0  0  0  0
  -43.6279   -2.1096   19.7649 C   0  0  0  0  0  0
  -42.2988   -2.6307   19.2872 N   0  3  0  0  0  0
  -44.4850   -1.5922   18.5865 C   0  0  0  0  0  0
  -43.7250   -0.6589   17.7982 O   0  0  0  0  0  0
  -45.7714   -0.9019   19.0894 C   0  0  0  0  0  0
  -46.0672    0.3956   18.3048 C   0  0  0  0  0  0
  -46.8754    0.0544   17.0325 C   0  0  0  0  0  0
  -46.2121   -0.9251   16.0765 C   0  0  0  0  0  0
  -46.6806   -2.2167   15.9692 C   0  0  0  0  0  0
  -46.0790   -3.1056   15.1065 C   0  0  0  0  0  0
  -45.0038   -2.7062   14.3476 C   0  0  0  0  0  0
  -44.5313   -1.4169   14.4508 C   0  0  0  0  0  0
  -45.1350   -0.5299   15.3131 C   0  0  0  0  0  0
  -46.8442    1.3160   19.1461 N   0  0  0  0  0  0
  -48.2245    0.8164   19.4921 P   0  0  0  0  0  0
  -48.2006   -0.7422   19.8860 O   0  0  0  0  0  0
  -49.1708    0.8460   18.1861 O   0  0  0  0  0  0
  -48.8380    1.6230   20.6063 O   0  0  0  0  0  0
  -49.3393   -1.3062   20.5530 C   0  0  0  0  0  0
  -50.5310    0.7377   18.2687 C   0  0  0  0  0  0
  -51.1728   -0.4836   18.1710 C   0  0  0  0  0  0
  -52.5427   -0.5594   18.2620 C   0  0  0  0  0  0
  -53.2847    0.5838   18.4532 C   0  0  0  0  0  0
  -52.6544    1.8033   18.5511 C   0  0  0  0  0  0
  -51.2852    1.8798   18.4573 C   0  0  0  0  0  0
  -49.2761   -2.8406   20.4809 C   0  0  0  0  0  0
  -49.1273   -3.2962   19.1253 O   0  0  0  0  0  0
  -49.8146   -4.5482   18.9410 C   0  0  0  0  0  0
  -50.4848   -4.8729   20.2971 C   0  0  0  0  0  0
  -50.5440   -3.5197   21.0177 C   0  0  0  0  0  0
  -51.7334   -2.8166   20.6265 O   0  0  0  0  0  0
  -51.7866   -5.4652   20.1645 O   0  0  0  0  0  0
  -50.7612   -4.3168   17.7681 C   0  0  0  0  0  0
  -48.8202   -5.5762   18.6079 C   0  0  0  0  0  0
  -48.0499   -6.3719   18.3510 N   0  0  0  0  0  0
  -50.5370   -3.3225   16.8761 N   0  0  0  0  0  0
  -51.5602   -3.4047   15.9849 C   0  0  0  0  0  0
  -52.4078   -4.4172   16.3013 C   0  0  0  0  0  0
  -51.8841   -5.0011   17.4582 C   0  0  0  0  0  0
  -49.5680   -2.3683   16.7510 N   0  0  0  0  0  0
  -49.6574   -1.5357   15.7410 C   0  0  0  0  0  0
  -50.6388   -1.5265   14.7822 N   0  0  0  0  0  0
  -51.5821   -2.4683   14.9189 C   0  0  0  0  0  0
  -52.5836   -2.4934   13.9772 N   0  0  0  0  0  0
  -41.7178   -1.9561   19.1022 H   0  0  0  0  0  0
  -41.9009   -3.1590   19.9130 H   0  0  0  0  0  0
  -42.3745   -3.1371   18.5373 H   0  0  0  0  0  0
  -42.9325   -1.1049   17.3689 H   0  0  0  0  0  0
  -46.8935    2.2435   18.7049 H   0  0  0  0  0  0
  -52.5588   -3.2654   20.9873 H   0  0  0  0  0  0
  -52.2141   -5.6140   21.0627 H   0  0  0  0  0  0
  -52.5816   -1.9061   13.3214 H   0  0  0  0  0  0
  -53.2262   -3.0936   14.0252 H   0  0  0  0  0  0
  1  2  2  0  0  0
  2  3  1  0  0  0
  3  4  2  0  0  0
  3  7  1  0  0  0
  4  5  1  0  0  0
  5  6  2  0  0  0
  6  1  1  0  0  0
  7  8  1  0  0  0
  8  9  1  0  0  0
  8 10  1  0  0  0
 10 11  1  0  0  0
 10 12  1  0  0  0
 12 13  1  0  0  0
 13 14  1  0  0  0
 13 21  1  0  0  0
 14 15  1  0  0  0
 15 16  2  0  0  0
 16 17  1  0  0  0
 17 18  2  0  0  0
 18 19  1  0  0  0
 19 20  2  0  0  0
 20 15  1  0  0  0
 21 22  1  0  0  0
 22 23  1  0  0  0
 22 24  1  0  0  0
 22 25  2  0  0  0
 23 26  1  0  0  0
 24 27  1  0  0  0
 27 28  2  0  0  0
 28 29  1  0  0  0
 29 30  2  0  0  0
 30 31  1  0  0  0
 31 32  2  0  0  0
 32 27  1  0  0  0
 33 26  1  0  0  0
 33 34  1  0  0  0
 34 35  1  0  0  0
 35 36  1  0  0  0
 35 40  1  0  0  0
 35 41  1  0  0  0
 36 37  1  0  0  0
 36 39  1  0  0  0
 37 33  1  0  0  0
 37 38  1  0  0  0
 40 43  1  0  0  0
 41 42  3  0  0  0
 43 44  1  0  0  0
 43 47  1  0  0  0
 44 45  2  0  0  0
 45 46  1  0  0  0
 46 40  2  0  0  0
 47 48  2  0  0  0
 48 49  1  0  0  0
 49 50  2  0  0  0
 50 44  1  0  0  0
 50 51  1  0  0  0
  9 52  1  0  0  0
  9 53  1  0  0  0
  9 54  1  0  0  0
 11 55  1  0  0  0
 21 56  1  0  0  0
 38 57  1  0  0  0
 39 58  1  0  0  0
 51 59  1  0  0  0
 51 60  1  0  0  0
M  END
>  <#Atoms_cresset>
51

>  <#RB_cresset>
18

>  <BioMolTech Lead Finder LE>
-0.172

>  <BioMolTech Lead Finder Pose rank>
0

>  <BioMolTech Lead Finder Rank score>
-13.57

>  <BioMolTech Lead Finder SDF id>
0

>  <BioMolTech Lead Finder Structure Name>
/var/folders/xd/y7jw_xv579q2qqq7kks92xd80000gn/T/LeadFinder_21448_1/Ligand_1.sdf

>  <BioMolTech Lead Finder VSscore>
-13.341

>  <BioMolTech Lead Finder dG>
-8.761

>  <BioMolTech Lead Finder version>
2001 1, 19 January 2019

>  <CHROM.0>
74.49478537,-177.54586078,72.80435789

>  <CHROM.1>
-89.71188970,72.73803557,-43.83494687,69.05764794,64.00626347,137.66574732
86.46056718,-58.15848177,-65.48293509,107.26208406,42.88250666,164.85467563
-164.95982850,164.32359634,-92.54495095,-53.69110448,21.71213594,-176.73162240
-179.65135780,-48.00005271,-1.39779539,18.22944928,0.38261114,0.03986551
0.44959650

>  <Confs_cresset>
0

>  <Favorite_cresset>
false

>  <Filename_cresset>
VTRRT-13V2.1.sdf

>  <Flexibility_cresset>
17.1

>  <LF LE>
-0.172

>  <LF Rank Score>
-13.57

>  <LF VSscore>
-13.341

>  <LF dG>
-8.761

>  <MW_cresset>
714.7

>  <Name>
Untitled

>  <Poses_cresset>
10

>  <Preferred Pose_cresset>
true

>  <Protein_cresset>
6Y2F_P

>  <RI>
-6.34158e+08

>  <Rbt.Current_Directory>
/root/miniconda3/envs/rdock/share/rxdock-2013.1.1_148c5bd1-0/data/ligands/prepped_ligands/VTRRT

>  <Rbt.Executable>
rbdock/0.1.0

>  <Rbt.Library>
librxdock.so/0.1.0

>  <Rbt.Parameter_File>
/root/miniconda3/envs/rdock/share/rxdock-2013.1.1_148c5bd1-0/data/scripts/dock.prm

>  <Rbt.Receptor>
def.prm

>  <Rof5_cresset>
3

>  <SCORE>
-24.053

>  <SCORE.INTER>
-12.6561

>  <SCORE.INTER.CONST>
1

>  <SCORE.INTER.POLAR>
-0.775659

>  <SCORE.INTER.REPUL>
0.00435952

>  <SCORE.INTER.ROT>
15

>  <SCORE.INTER.VDW>
-30.4407

>  <SCORE.INTER.norm>
-0.248159

>  <SCORE.INTRA>
-13.4562

>  <SCORE.INTRA.DIHEDRAL>
-24.6789

>  <SCORE.INTRA.DIHEDRAL.0>
43.3056

>  <SCORE.INTRA.POLAR>
0

>  <SCORE.INTRA.POLAR.0>
0

>  <SCORE.INTRA.REPUL>
-0.922085

>  <SCORE.INTRA.REPUL.0>
1.18384

>  <SCORE.INTRA.VDW>
3.49367

>  <SCORE.INTRA.VDW.0>
-7.21879

>  <SCORE.INTRA.norm>
-0.263848

>  <SCORE.RESTR>
2.50328

>  <SCORE.RESTR.CAVITY>
2.50328

>  <SCORE.RESTR.norm>
0.0490839

>  <SCORE.SYSTEM>
-0.443981

>  <SCORE.SYSTEM.CONST>
0

>  <SCORE.SYSTEM.DIHEDRAL>
0.894035

>  <SCORE.SYSTEM.POLAR>
-0.0182743

>  <SCORE.SYSTEM.VDW>
-0.828866

>  <SCORE.SYSTEM.norm>
-0.0087055

>  <SCORE.heavy>
51

>  <SCORE.norm>
-0.471628

>  <SlogP_cresset>
4

>  <TPSA_cresset>
225.1

>  <_cresset_fieldpoints>
    -5      16.836018       5.832630      29.221167     -3.6840
    -5      12.689775      -0.157515      20.961832    -26.5835
    -5      10.603017       0.175630      26.550167     -8.1895
    -5      16.438017       3.291630      24.075167     -2.5740
    -5      10.777017       2.958630      26.544167    -13.1420
    -5      14.325016       6.363630      19.343166     -3.9175
    -5      10.138498      -1.142644      20.673992    -19.3483
    -5       8.999017       3.081630      18.875168    -11.2330
    -5      16.643017      -2.580370      18.078167    -12.9950
    -5       9.665886      -1.797647      20.491711    -20.2282
    -5       9.721017       2.679630      21.897167    -10.3470
    -5       9.495016      -3.987370      19.277166    -12.3125
    -6       9.544017       6.999630      25.870167     13.2990
    -6      11.781016       8.517631      22.930166      7.7900
    -6      14.607017       1.112630      25.440166      7.0810
    -6      15.386017       0.918630      28.446167      2.3985
    -6      18.624016       1.298630      27.807167      2.3740
    -6      20.392017       2.874630      26.722168      2.3035
    -6      17.648016       0.730630      28.195168      2.3685
    -6      14.512016       8.724630      26.097166      6.5595
    -6       8.569016      -0.973370      14.343166     10.8755
    -6       7.728017       1.126630      14.428167      9.6685
    -6       9.165016      -5.976370      22.174168      8.4205
    -6      13.686016      -5.263370      22.254168      6.1950
    -6      13.877016       8.944631      27.096167      6.4995
    -6      12.880016      -5.307370      17.193167     12.0245
    -7      15.472016       6.118630      22.868166     -3.2390
    -7      16.618017       6.190630      29.550167     -1.8400
    -7      20.678017       4.935630      25.563168     -0.9695
    -7      14.813017       8.811630      25.026167     -2.2140
    -7      10.993016       2.287630      26.765167     -3.3000
    -7      14.052017       0.966630      26.100166     -2.8945
    -7      19.113016       1.220630      27.604168     -0.9705
    -7      16.034016       2.731630      23.912167     -3.3250
    -7      10.857017       6.577630      27.959167     -2.0560
    -7       9.494017       3.463630      21.639168     -4.2685
    -7      10.789017       9.786630      25.500168     -0.9715
    -7      14.840016       6.494630      19.649166     -1.8715
    -7       8.671017       3.594630      18.487167     -2.1885
    -7       9.509016       9.096630      19.641167     -0.9730
    -7      10.391017      -1.625370      26.086166     -2.4190
    -7       4.660017      -1.773370      25.985167     -0.9695
    -7       4.569016       2.557630      27.332167     -0.9680
    -7      14.875017      -4.579370      21.768167     -1.8885
    -7      13.267016      -5.347370      16.886168     -1.9350
    -7       6.954017      -1.202370      16.804167     -1.5235
    -7      11.071016       0.523630      14.355167     -1.5285
    -7      13.461017       0.151630      20.851168     -4.5370
    -7       9.025017      -1.430370      20.607166     -4.2605
    -8      14.386017       5.687630      26.072166      5.7545
    -8      16.303017       4.649630      26.702168      7.2160
    -8      12.821016       4.074630      23.412167      5.8535
    -8      11.879017       5.300630      20.313168      7.2105
    -8      14.967016       5.182630      26.638166      5.8010
    -8      12.613016       4.247630      22.352167      5.8285
    -8      13.423017       5.009630      25.510166      5.6895
    -8      12.579017       4.458630      21.224167      5.7810
    -8       7.903017       1.063630      24.720167      7.0265
    -8      11.517016      -3.053370      22.483168      4.3445
    -8      12.238016      -3.808370      21.025167      4.6035
    -8      12.152017      -3.126370      18.429167      4.4460
    -8      10.771017      -2.113370      17.279167      4.9125

$$$$
Untitled
  RxDock  02242112173D
librxdock.so/0.1.0
 60 65  0  0  0  0  0  0  0  0999 V2000
  -52.3037   -3.2337   21.6084 C   0  0  0  0  0  0
  -51.5298   -4.3472   21.3722 C   0  0  0  0  0  0
  -51.7475   -5.1219   20.2537 C   0  0  0  0  0  0
  -52.7480   -4.7723   19.3721 C   0  0  0  0  0  0
  -53.5236   -3.6598   19.6072 C   0  0  0  0  0  0
  -53.3011   -2.8906   20.7260 C   0  0  0  0  0  0
  -50.8888   -6.3512   19.9926 C   0  0  0  0  0  0
  -51.5111   -7.3928   19.0364 C   0  0  0  0  0  0
  -50.5822   -8.5720   18.9223 N   0  3  0  0  0  0
  -51.7760   -6.7505   17.6550 C   0  0  0  0  0  0
  -52.5842   -7.6285   16.8512 O   0  0  0  0  0  0
  -50.4553   -6.4544   16.9118 C   0  0  0  0  0  0
  -50.6129   -5.2891   15.9099 C   0  0  0  0  0  0
  -51.5267   -5.7323   14.7449 C   0  0  0  0  0  0
  -53.0187   -5.7216   15.0404 C   0  0  0  0  0  0
  -53.5863   -4.6612   15.7131 C   0  0  0  0  0  0
  -54.9364   -4.6515   15.9841 C   0  0  0  0  0  0
  -55.7252   -5.7049   15.5844 C   0  0  0  0  0  0
  -55.1634   -6.7673   14.9121 C   0  0  0  0  0  0
  -53.8138   -6.7740   14.6414 C   0  0  0  0  0  0
  -51.2114   -4.1313   16.5882 N   0  0  0  0  0  0
  -50.2045   -3.1563   17.1449 P   0  0  0  0  0  0
  -50.8864   -1.7396   17.4809 O   0  0  0  0  0  0
  -49.1154   -2.7763   16.0174 O   0  0  0  0  0  0
  -49.5246   -3.7077   18.3704 O   0  0  0  0  0  0
  -51.2078   -1.4311   18.8452 C   0  0  0  0  0  0
  -49.3650   -1.8470   15.0463 C   0  0  0  0  0  0
  -48.3814   -0.9906   14.5860 C   0  0  0  0  0  0
  -48.6638   -0.0692   13.6052 C   0  0  0  0  0  0
  -49.9310    0.0044   13.0734 C   0  0  0  0  0  0
  -50.9159   -0.8436   13.5258 C   0  0  0  0  0  0
  -50.6348   -1.7628   14.5083 C   0  0  0  0  0  0
  -50.2536   -0.3466   19.3712 C   0  0  0  0  0  0
  -49.2301   -0.0376   18.4098 O   0  0  0  0  0  0
  -48.0007    0.2993   19.0800 C   0  0  0  0  0  0
  -48.2806    0.1417   20.5935 C   0  0  0  0  0  0
  -49.5174   -0.7642   20.6520 C   0  0  0  0  0  0
  -49.1096   -2.1405   20.6095 O   0  0  0  0  0  0
  -47.1761   -0.4138   21.3247 O   0  0  0  0  0  0
  -46.9540   -0.6422   18.4942 C   0  0  0  0  0  0
  -47.6724    1.6962   18.7679 C   0  0  0  0  0  0
  -47.4191    2.7779   18.5268 N   0  0  0  0  0  0
  -45.6879   -0.6641   18.9752 N   0  0  0  0  0  0
  -45.0396   -1.5996   18.2321 C   0  0  0  0  0  0
  -45.8663   -2.1530   17.3079 C   0  0  0  0  0  0
  -47.1031   -1.5260   17.4833 C   0  0  0  0  0  0
  -45.0421    0.0235   19.9627 N   0  0  0  0  0  0
  -43.7761   -0.2510   20.1706 C   0  0  0  0  0  0
  -43.0237   -1.1733   19.4881 N   0  0  0  0  0  0
  -43.6714   -1.8393   18.5224 C   0  0  0  0  0  0
  -42.9524   -2.7737   17.8151 N   0  0  0  0  0  0
  -49.7257   -8.3134   18.7600 H   0  0  0  0  0  0
  -50.5697   -9.0647   19.6880 H   0  0  0  0  0  0
  -50.8246   -9.1409   18.2574 H   0  0  0  0  0  0
  -53.4946   -7.7597   17.2575 H   0  0  0  0  0  0
  -51.8573   -4.4463   17.3237 H   0  0  0  0  0  0
  -49.8747   -2.7407   20.3502 H   0  0  0  0  0  0
  -46.3803    0.2011   21.3087 H   0  0  0  0  0  0
  -42.1047   -2.9111   18.0089 H   0  0  0  0  0  0
  -43.3345   -3.2363   17.1705 H   0  0  0  0  0  0
  1  2  2  0  0  0
  2  3  1  0  0  0
  3  4  2  0  0  0
  3  7  1  0  0  0
  4  5  1  0  0  0
  5  6  2  0  0  0
  6  1  1  0  0  0
  7  8  1  0  0  0
  8  9  1  0  0  0
  8 10  1  0  0  0
 10 11  1  0  0  0
 10 12  1  0  0  0
 12 13  1  0  0  0
 13 14  1  0  0  0
 13 21  1  0  0  0
 14 15  1  0  0  0
 15 16  2  0  0  0
 16 17  1  0  0  0
 17 18  2  0  0  0
 18 19  1  0  0  0
 19 20  2  0  0  0
 20 15  1  0  0  0
 21 22  1  0  0  0
 22 23  1  0  0  0
 22 24  1  0  0  0
 22 25  2  0  0  0
 23 26  1  0  0  0
 24 27  1  0  0  0
 27 28  2  0  0  0
 28 29  1  0  0  0
 29 30  2  0  0  0
 30 31  1  0  0  0
 31 32  2  0  0  0
 32 27  1  0  0  0
 33 26  1  0  0  0
 33 34  1  0  0  0
 34 35  1  0  0  0
 35 36  1  0  0  0
 35 40  1  0  0  0
 35 41  1  0  0  0
 36 37  1  0  0  0
 36 39  1  0  0  0
 37 33  1  0  0  0
 37 38  1  0  0  0
 40 43  1  0  0  0
 41 42  3  0  0  0
 43 44  1  0  0  0
 43 47  1  0  0  0
 44 45  2  0  0  0
 45 46  1  0  0  0
 46 40  2  0  0  0
 47 48  2  0  0  0
 48 49  1  0  0  0
 49 50  2  0  0  0
 50 44  1  0  0  0
 50 51  1  0  0  0
  9 52  1  0  0  0
  9 53  1  0  0  0
  9 54  1  0  0  0
 11 55  1  0  0  0
 21 56  1  0  0  0
 38 57  1  0  0  0
 39 58  1  0  0  0
 51 59  1  0  0  0
 51 60  1  0  0  0
M  END
>  <#Atoms_cresset>
51

>  <#RB_cresset>
18

>  <BioMolTech Lead Finder LE>
-0.172

>  <BioMolTech Lead Finder Pose rank>
0

>  <BioMolTech Lead Finder Rank score>
-13.57

>  <BioMolTech Lead Finder SDF id>
0

>  <BioMolTech Lead Finder Structure Name>
/var/folders/xd/y7jw_xv579q2qqq7kks92xd80000gn/T/LeadFinder_21448_1/Ligand_1.sdf

>  <BioMolTech Lead Finder VSscore>
-13.341

>  <BioMolTech Lead Finder dG>
-8.761

>  <BioMolTech Lead Finder version>
2001 1, 19 January 2019

>  <CHROM.0>
-59.31402776,170.44269909,-44.20654450

>  <CHROM.1>
159.26756950,-177.51371363,-48.43293632,-168.90698633,63.99527800,-153.67304667
-68.51973165,78.86742142,92.85983209,43.75676210,163.44699561,101.64642913
80.66866621,108.88344415,143.46103192,-5.69504167,-175.14129532,64.65055754
-50.28860711,-49.73749820,-2.91554759,17.81177699,3.11842700,-0.69035042
-1.24075412

>  <Confs_cresset>
0

>  <Favorite_cresset>
false

>  <Filename_cresset>
VTRRT-13V2.1.sdf

>  <Flexibility_cresset>
17.1

>  <LF LE>
-0.172

>  <LF Rank Score>
-13.57

>  <LF VSscore>
-13.341

>  <LF dG>
-8.761

>  <MW_cresset>
714.7

>  <Name>
Untitled

>  <Poses_cresset>
10

>  <Preferred Pose_cresset>
true

>  <Protein_cresset>
6Y2F_P

>  <RI>
-6.34158e+08

>  <Rbt.Current_Directory>
/root/miniconda3/envs/rdock/share/rxdock-2013.1.1_148c5bd1-0/data/ligands/prepped_ligands/VTRRT

>  <Rbt.Executable>
rbdock/0.1.0

>  <Rbt.Library>
librxdock.so/0.1.0

>  <Rbt.Parameter_File>
/root/miniconda3/envs/rdock/share/rxdock-2013.1.1_148c5bd1-0/data/scripts/dock.prm

>  <Rbt.Receptor>
def.prm

>  <Rof5_cresset>
3

>  <SCORE>
-31.2903

>  <SCORE.INTER>
-15.3489

>  <SCORE.INTER.CONST>
1

>  <SCORE.INTER.POLAR>
-2.8131

>  <SCORE.INTER.REPUL>
1.20626

>  <SCORE.INTER.ROT>
15

>  <SCORE.INTER.VDW>
-32.2156

>  <SCORE.INTER.norm>
-0.300958

>  <SCORE.INTRA>
-15.8269

>  <SCORE.INTRA.DIHEDRAL>
-18.4346

>  <SCORE.INTRA.DIHEDRAL.0>
43.3056

>  <SCORE.INTRA.POLAR>
-0.588698

>  <SCORE.INTRA.POLAR.0>
0

>  <SCORE.INTRA.REPUL>
-1.18384

>  <SCORE.INTRA.REPUL.0>
1.18384

>  <SCORE.INTRA.VDW>
1.31118

>  <SCORE.INTRA.VDW.0>
-7.21879

>  <SCORE.INTRA.norm>
-0.310331

>  <SCORE.RESTR>
0.366902

>  <SCORE.RESTR.CAVITY>
0.366902

>  <SCORE.RESTR.norm>
0.00719416

>  <SCORE.SYSTEM>
-0.481489

>  <SCORE.SYSTEM.CONST>
0

>  <SCORE.SYSTEM.DIHEDRAL>
1.01195

>  <SCORE.SYSTEM.POLAR>
-0.0201179

>  <SCORE.SYSTEM.VDW>
-0.919064

>  <SCORE.SYSTEM.norm>
-0.00944095

>  <SCORE.heavy>
51

>  <SCORE.norm>
-0.613536

>  <SlogP_cresset>
4

>  <TPSA_cresset>
225.1

>  <_cresset_fieldpoints>
    -5      16.836018       5.832630      29.221167     -3.6840
    -5      12.689775      -0.157515      20.961832    -26.5835
    -5      10.603017       0.175630      26.550167     -8.1895
    -5      16.438017       3.291630      24.075167     -2.5740
    -5      10.777017       2.958630      26.544167    -13.1420
    -5      14.325016       6.363630      19.343166     -3.9175
    -5      10.138498      -1.142644      20.673992    -19.3483
    -5       8.999017       3.081630      18.875168    -11.2330
    -5      16.643017      -2.580370      18.078167    -12.9950
    -5       9.665886      -1.797647      20.491711    -20.2282
    -5       9.721017       2.679630      21.897167    -10.3470
    -5       9.495016      -3.987370      19.277166    -12.3125
    -6       9.544017       6.999630      25.870167     13.2990
    -6      11.781016       8.517631      22.930166      7.7900
    -6      14.607017       1.112630      25.440166      7.0810
    -6      15.386017       0.918630      28.446167      2.3985
    -6      18.624016       1.298630      27.807167      2.3740
    -6      20.392017       2.874630      26.722168      2.3035
    -6      17.648016       0.730630      28.195168      2.3685
    -6      14.512016       8.724630      26.097166      6.5595
    -6       8.569016      -0.973370      14.343166     10.8755
    -6       7.728017       1.126630      14.428167      9.6685
    -6       9.165016      -5.976370      22.174168      8.4205
    -6      13.686016      -5.263370      22.254168      6.1950
    -6      13.877016       8.944631      27.096167      6.4995
    -6      12.880016      -5.307370      17.193167     12.0245
    -7      15.472016       6.118630      22.868166     -3.2390
    -7      16.618017       6.190630      29.550167     -1.8400
    -7      20.678017       4.935630      25.563168     -0.9695
    -7      14.813017       8.811630      25.026167     -2.2140
    -7      10.993016       2.287630      26.765167     -3.3000
    -7      14.052017       0.966630      26.100166     -2.8945
    -7      19.113016       1.220630      27.604168     -0.9705
    -7      16.034016       2.731630      23.912167     -3.3250
    -7      10.857017       6.577630      27.959167     -2.0560
    -7       9.494017       3.463630      21.639168     -4.2685
    -7      10.789017       9.786630      25.500168     -0.9715
    -7      14.840016       6.494630      19.649166     -1.8715
    -7       8.671017       3.594630      18.487167     -2.1885
    -7       9.509016       9.096630      19.641167     -0.9730
    -7      10.391017      -1.625370      26.086166     -2.4190
    -7       4.660017      -1.773370      25.985167     -0.9695
    -7       4.569016       2.557630      27.332167     -0.9680
    -7      14.875017      -4.579370      21.768167     -1.8885
    -7      13.267016      -5.347370      16.886168     -1.9350
    -7       6.954017      -1.202370      16.804167     -1.5235
    -7      11.071016       0.523630      14.355167     -1.5285
    -7      13.461017       0.151630      20.851168     -4.5370
    -7       9.025017      -1.430370      20.607166     -4.2605
    -8      14.386017       5.687630      26.072166      5.7545
    -8      16.303017       4.649630      26.702168      7.2160
    -8      12.821016       4.074630      23.412167      5.8535
    -8      11.879017       5.300630      20.313168      7.2105
    -8      14.967016       5.182630      26.638166      5.8010
    -8      12.613016       4.247630      22.352167      5.8285
    -8      13.423017       5.009630      25.510166      5.6895
    -8      12.579017       4.458630      21.224167      5.7810
    -8       7.903017       1.063630      24.720167      7.0265
    -8      11.517016      -3.053370      22.483168      4.3445
    -8      12.238016      -3.808370      21.025167      4.6035
    -8      12.152017      -3.126370      18.429167      4.4460
    -8      10.771017      -2.113370      17.279167      4.9125

$$$$
Untitled
  RxDock  02242112173D
librxdock.so/0.1.0
 60 65  0  0  0  0  0  0  0  0999 V2000
  -42.2091    0.1916   20.4718 C   0  0  0  0  0  0
  -43.1199    0.2175   19.4399 C   0  0  0  0  0  0
  -44.3888    0.7145   19.6436 C   0  0  0  0  0  0
  -44.7392    1.1862   20.8907 C   0  0  0  0  0  0
  -43.8302    1.1601   21.9239 C   0  0  0  0  0  0
  -42.5649    0.6623   21.7140 C   0  0  0  0  0  0
  -45.3935    0.7452   18.5007 C   0  0  0  0  0  0
  -45.6829   -0.6244   17.8471 C   0  0  0  0  0  0
  -44.5722   -0.9548   16.8860 N   0  3  0  0  0  0
  -47.0532   -0.5897   17.1316 C   0  0  0  0  0  0
  -47.0908    0.5005   16.1935 O   0  0  0  0  0  0
  -48.2096   -0.4295   18.1422 C   0  0  0  0  0  0
  -49.0479   -1.7218   18.2601 C   0  0  0  0  0  0
  -50.1431   -1.5283   19.3333 C   0  0  0  0  0  0
  -50.4201   -2.7372   20.2138 C   0  0  0  0  0  0
  -51.5869   -2.8129   20.9431 C   0  0  0  0  0  0
  -51.8377   -3.9052   21.7433 C   0  0  0  0  0  0
  -50.9203   -4.9271   21.8186 C   0  0  0  0  0  0
  -49.7526   -4.8568   21.0922 C   0  0  0  0  0  0
  -49.5048   -3.7643   20.2922 C   0  0  0  0  0  0
  -49.6775   -2.0225   16.9671 N   0  0  0  0  0  0
  -50.8962   -1.1864   16.6670 P   0  0  0  0  0  0
  -52.2496   -1.9721   17.0356 O   0  0  0  0  0  0
  -51.0337   -0.9534   15.0768 O   0  0  0  0  0  0
  -50.8496    0.1333   17.3913 O   0  0  0  0  0  0
  -52.6697   -3.0596   16.1986 C   0  0  0  0  0  0
  -49.9748   -0.5699   14.3019 C   0  0  0  0  0  0
  -50.0428    0.5303   13.4666 C   0  0  0  0  0  0
  -48.9584    0.8923   12.7025 C   0  0  0  0  0  0
  -47.7951    0.1598   12.7666 C   0  0  0  0  0  0
  -47.7188   -0.9367   13.5947 C   0  0  0  0  0  0
  -48.8034   -1.3006   14.3566 C   0  0  0  0  0  0
  -53.1442   -4.2332   17.0709 C   0  0  0  0  0  0
  -52.1715   -4.5662   18.0761 O   0  0  0  0  0  0
  -52.1821   -5.9835   18.3312 C   0  0  0  0  0  0
  -53.2281   -6.5854   17.3631 C   0  0  0  0  0  0
  -53.3800   -5.5208   16.2688 C   0  0  0  0  0  0
  -52.3736   -5.7159   15.2631 O   0  0  0  0  0  0
  -52.8402   -7.8576   16.8208 O   0  0  0  0  0  0
  -50.7418   -6.4389   18.1232 C   0  0  0  0  0  0
  -52.5968   -6.1990   19.7234 C   0  0  0  0  0  0
  -52.9188   -6.3655   20.8009 N   0  0  0  0  0  0
  -50.2742   -7.5655   18.7120 N   0  0  0  0  0  0
  -48.9766   -7.6621   18.3185 C   0  0  0  0  0  0
  -48.6305   -6.6296   17.5075 C   0  0  0  0  0  0
  -49.7786   -5.8414   17.3879 C   0  0  0  0  0  0
  -50.8317   -8.4990   19.5383 N   0  0  0  0  0  0
  -50.0733   -9.4923   19.9375 C   0  0  0  0  0  0
  -48.7578   -9.6931   19.6032 N   0  0  0  0  0  0
  -48.2253   -8.7687   18.7922 C   0  0  0  0  0  0
  -46.9085   -8.9343   18.4328 N   0  0  0  0  0  0
  -44.6002   -1.8247   16.6229 H   0  0  0  0  0  0
  -44.6197   -0.4479   16.1311 H   0  0  0  0  0  0
  -43.7503   -0.8051   17.2419 H   0  0  0  0  0  0
  -46.3709    0.4077   15.4977 H   0  0  0  0  0  0
  -49.9002   -3.0245   16.9058 H   0  0  0  0  0  0
  -52.4133   -6.6464   14.8818 H   0  0  0  0  0  0
  -53.5237   -8.2007   16.1675 H   0  0  0  0  0  0
  -46.4570   -9.6272   18.7345 H   0  0  0  0  0  0
  -46.5144   -8.3526   17.9020 H   0  0  0  0  0  0
  1  2  2  0  0  0
  2  3  1  0  0  0
  3  4  2  0  0  0
  3  7  1  0  0  0
  4  5  1  0  0  0
  5  6  2  0  0  0
  6  1  1  0  0  0
  7  8  1  0  0  0
  8  9  1  0  0  0
  8 10  1  0  0  0
 10 11  1  0  0  0
 10 12  1  0  0  0
 12 13  1  0  0  0
 13 14  1  0  0  0
 13 21  1  0  0  0
 14 15  1  0  0  0
 15 16  2  0  0  0
 16 17  1  0  0  0
 17 18  2  0  0  0
 18 19  1  0  0  0
 19 20  2  0  0  0
 20 15  1  0  0  0
 21 22  1  0  0  0
 22 23  1  0  0  0
 22 24  1  0  0  0
 22 25  2  0  0  0
 23 26  1  0  0  0
 24 27  1  0  0  0
 27 28  2  0  0  0
 28 29  1  0  0  0
 29 30  2  0  0  0
 30 31  1  0  0  0
 31 32  2  0  0  0
 32 27  1  0  0  0
 33 26  1  0  0  0
 33 34  1  0  0  0
 34 35  1  0  0  0
 35 36  1  0  0  0
 35 40  1  0  0  0
 35 41  1  0  0  0
 36 37  1  0  0  0
 36 39  1  0  0  0
 37 33  1  0  0  0
 37 38  1  0  0  0
 40 43  1  0  0  0
 41 42  3  0  0  0
 43 44  1  0  0  0
 43 47  1  0  0  0
 44 45  2  0  0  0
 45 46  1  0  0  0
 46 40  2  0  0  0
 47 48  2  0  0  0
 48 49  1  0  0  0
 49 50  2  0  0  0
 50 44  1  0  0  0
 50 51  1  0  0  0
  9 52  1  0  0  0
  9 53  1  0  0  0
  9 54  1  0  0  0
 11 55  1  0  0  0
 21 56  1  0  0  0
 38 57  1  0  0  0
 39 58  1  0  0  0
 51 59  1  0  0  0
 51 60  1  0  0  0
M  END
>  <#Atoms_cresset>
51

>  <#RB_cresset>
18

>  <BioMolTech Lead Finder LE>
-0.172

>  <BioMolTech Lead Finder Pose rank>
0

>  <BioMolTech Lead Finder Rank score>
-13.57

>  <BioMolTech Lead Finder SDF id>
0

>  <BioMolTech Lead Finder Structure Name>
/var/folders/xd/y7jw_xv579q2qqq7kks92xd80000gn/T/LeadFinder_21448_1/Ligand_1.sdf

>  <BioMolTech Lead Finder VSscore>
-13.341

>  <BioMolTech Lead Finder dG>
-8.761

>  <BioMolTech Lead Finder version>
2001 1, 19 January 2019

>  <CHROM.0>
-55.56183910,-57.23903048,62.66866195

>  <CHROM.1>
57.23947891,-79.88674480,167.00097905,54.89567476,59.82191839,-109.75600710
177.17239688,-141.33555054,-78.07358399,-162.51243096,-97.47256867,-72.65715729
-46.98043422,136.70138633,-127.06398607,-50.83519407,156.38152182,-177.60860103
167.51092753,-49.30314195,-3.21248879,17.92925904,-0.72515376,0.60988810
2.49571413

>  <Confs_cresset>
0

>  <Favorite_cresset>
false

>  <Filename_cresset>
VTRRT-13V2.1.sdf

>  <Flexibility_cresset>
17.1

>  <LF LE>
-0.172

>  <LF Rank Score>
-13.57

>  <LF VSscore>
-13.341

>  <LF dG>
-8.761

>  <MW_cresset>
714.7

>  <Name>
Untitled

>  <Poses_cresset>
10

>  <Preferred Pose_cresset>
true

>  <Protein_cresset>
6Y2F_P

>  <RI>
-6.34158e+08

>  <Rbt.Current_Directory>
/root/miniconda3/envs/rdock/share/rxdock-2013.1.1_148c5bd1-0/data/ligands/prepped_ligands/VTRRT

>  <Rbt.Executable>
rbdock/0.1.0

>  <Rbt.Library>
librxdock.so/0.1.0

>  <Rbt.Parameter_File>
/root/miniconda3/envs/rdock/share/rxdock-2013.1.1_148c5bd1-0/data/scripts/dock.prm

>  <Rbt.Receptor>
def.prm

>  <Rof5_cresset>
3

>  <SCORE>
-19.6666

>  <SCORE.INTER>
-7.17786

>  <SCORE.INTER.CONST>
1

>  <SCORE.INTER.POLAR>
-1.2143

>  <SCORE.INTER.REPUL>
0.00157636

>  <SCORE.INTER.ROT>
15

>  <SCORE.INTER.VDW>
-23.4571

>  <SCORE.INTER.norm>
-0.140742

>  <SCORE.INTRA>
-12.4013

>  <SCORE.INTRA.DIHEDRAL>
-17.1709

>  <SCORE.INTRA.DIHEDRAL.0>
43.3056

>  <SCORE.INTRA.POLAR>
0

>  <SCORE.INTRA.POLAR.0>
0

>  <SCORE.INTRA.REPUL>
-1.18384

>  <SCORE.INTRA.REPUL.0>
1.18384

>  <SCORE.INTRA.VDW>
2.10337

>  <SCORE.INTRA.VDW.0>
-7.21879

>  <SCORE.INTRA.norm>
-0.243162

>  <SCORE.RESTR>
0.86148

>  <SCORE.RESTR.CAVITY>
0.86148

>  <SCORE.RESTR.norm>
0.0168918

>  <SCORE.SYSTEM>
-0.948986

>  <SCORE.SYSTEM.CONST>
0

>  <SCORE.SYSTEM.DIHEDRAL>
0.0982558

>  <SCORE.SYSTEM.POLAR>
-0.00690573

>  <SCORE.SYSTEM.VDW>
-0.974635

>  <SCORE.SYSTEM.norm>
-0.0186076

>  <SCORE.heavy>
51

>  <SCORE.norm>
-0.38562

>  <SlogP_cresset>
4

>  <TPSA_cresset>
225.1

>  <_cresset_fieldpoints>
    -5      16.836018       5.832630      29.221167     -3.6840
    -5      12.689775      -0.157515      20.961832    -26.5835
    -5      10.603017       0.175630      26.550167     -8.1895
    -5      16.438017       3.291630      24.075167     -2.5740
    -5      10.777017       2.958630      26.544167    -13.1420
    -5      14.325016       6.363630      19.343166     -3.9175
    -5      10.138498      -1.142644      20.673992    -19.3483
    -5       8.999017       3.081630      18.875168    -11.2330
    -5      16.643017      -2.580370      18.078167    -12.9950
    -5       9.665886      -1.797647      20.491711    -20.2282
    -5       9.721017       2.679630      21.897167    -10.3470
    -5       9.495016      -3.987370      19.277166    -12.3125
    -6       9.544017       6.999630      25.870167     13.2990
    -6      11.781016       8.517631      22.930166      7.7900
    -6      14.607017       1.112630      25.440166      7.0810
    -6      15.386017       0.918630      28.446167      2.3985
    -6      18.624016       1.298630      27.807167      2.3740
    -6      20.392017       2.874630      26.722168      2.3035
    -6      17.648016       0.730630      28.195168      2.3685
    -6      14.512016       8.724630      26.097166      6.5595
    -6       8.569016      -0.973370      14.343166     10.8755
    -6       7.728017       1.126630      14.428167      9.6685
    -6       9.165016      -5.976370      22.174168      8.4205
    -6      13.686016      -5.263370      22.254168      6.1950
    -6      13.877016       8.944631      27.096167      6.4995
    -6      12.880016      -5.307370      17.193167     12.0245
    -7      15.472016       6.118630      22.868166     -3.2390
    -7      16.618017       6.190630      29.550167     -1.8400
    -7      20.678017       4.935630      25.563168     -0.9695
    -7      14.813017       8.811630      25.026167     -2.2140
    -7      10.993016       2.287630      26.765167     -3.3000
    -7      14.052017       0.966630      26.100166     -2.8945
    -7      19.113016       1.220630      27.604168     -0.9705
    -7      16.034016       2.731630      23.912167     -3.3250
    -7      10.857017       6.577630      27.959167     -2.0560
    -7       9.494017       3.463630      21.639168     -4.2685
    -7      10.789017       9.786630      25.500168     -0.9715
    -7      14.840016       6.494630      19.649166     -1.8715
    -7       8.671017       3.594630      18.487167     -2.1885
    -7       9.509016       9.096630      19.641167     -0.9730
    -7      10.391017      -1.625370      26.086166     -2.4190
    -7       4.660017      -1.773370      25.985167     -0.9695
    -7       4.569016       2.557630      27.332167     -0.9680
    -7      14.875017      -4.579370      21.768167     -1.8885
    -7      13.267016      -5.347370      16.886168     -1.9350
    -7       6.954017      -1.202370      16.804167     -1.5235
    -7      11.071016       0.523630      14.355167     -1.5285
    -7      13.461017       0.151630      20.851168     -4.5370
    -7       9.025017      -1.430370      20.607166     -4.2605
    -8      14.386017       5.687630      26.072166      5.7545
    -8      16.303017       4.649630      26.702168      7.2160
    -8      12.821016       4.074630      23.412167      5.8535
    -8      11.879017       5.300630      20.313168      7.2105
    -8      14.967016       5.182630      26.638166      5.8010
    -8      12.613016       4.247630      22.352167      5.8285
    -8      13.423017       5.009630      25.510166      5.6895
    -8      12.579017       4.458630      21.224167      5.7810
    -8       7.903017       1.063630      24.720167      7.0265
    -8      11.517016      -3.053370      22.483168      4.3445
    -8      12.238016      -3.808370      21.025167      4.6035
    -8      12.152017      -3.126370      18.429167      4.4460
    -8      10.771017      -2.113370      17.279167      4.9125

$$$$
Untitled
  RxDock  02242112173D
librxdock.so/0.1.0
 60 65  0  0  0  0  0  0  0  0999 V2000
  -51.0355    3.8731   11.3123 C   0  0  0  0  0  0
  -51.2845    2.7477   12.0647 C   0  0  0  0  0  0
  -50.2453    1.9433   12.4792 C   0  0  0  0  0  0
  -48.9526    2.2753   12.1338 C   0  0  0  0  0  0
  -48.7018    3.3997   11.3806 C   0  0  0  0  0  0
  -49.7439    4.1985   10.9697 C   0  0  0  0  0  0
  -50.5223    0.7010   13.3136 C   0  0  0  0  0  0
  -49.5908   -0.4985   13.0302 C   0  0  0  0  0  0
  -50.3408   -1.7766   13.2956 N   0  3  0  0  0  0
  -48.3207   -0.4001   13.9065 C   0  0  0  0  0  0
  -47.5325   -1.5956   13.7663 O   0  0  0  0  0  0
  -48.6802   -0.2011   15.3949 C   0  0  0  0  0  0
  -47.6152   -0.8199   16.3273 C   0  0  0  0  0  0
  -46.9348    0.3005   17.1459 C   0  0  0  0  0  0
  -47.6680    0.7293   18.4076 C   0  0  0  0  0  0
  -47.6557   -0.0758   19.5260 C   0  0  0  0  0  0
  -48.3217    0.3095   20.6681 C   0  0  0  0  0  0
  -49.0053    1.5026   20.6957 C   0  0  0  0  0  0
  -49.0212    2.3110   19.5810 C   0  0  0  0  0  0
  -48.3537    1.9241   18.4410 C   0  0  0  0  0  0
  -48.2541   -1.7756   17.2423 N   0  0  0  0  0  0
  -48.0334   -3.2213   16.8742 P   0  0  0  0  0  0
  -48.8963   -4.2017   17.8118 O   0  0  0  0  0  0
  -46.5136   -3.6528   17.1997 O   0  0  0  0  0  0
  -48.3547   -3.4750   15.4248 O   0  0  0  0  0  0
  -49.1339   -3.8247   19.1760 C   0  0  0  0  0  0
  -45.4400   -3.0262   16.6310 C   0  0  0  0  0  0
  -45.4189   -2.6880   15.2901 C   0  0  0  0  0  0
  -44.3250   -2.0544   14.7490 C   0  0  0  0  0  0
  -43.2423   -1.7511   15.5425 C   0  0  0  0  0  0
  -43.2546   -2.0844   16.8777 C   0  0  0  0  0  0
  -44.3467   -2.7202   17.4183 C   0  0  0  0  0  0
  -50.0456   -4.8627   19.8505 C   0  0  0  0  0  0
  -50.6035   -5.7743   18.8887 O   0  0  0  0  0  0
  -51.9284   -6.1727   19.2882 C   0  0  0  0  0  0
  -52.2319   -5.4021   20.5950 C   0  0  0  0  0  0
  -51.2418   -4.2302   20.5758 C   0  0  0  0  0  0
  -51.8019   -3.1377   19.8309 O   0  0  0  0  0  0
  -53.5922   -4.9508   20.6903 O   0  0  0  0  0  0
  -52.8221   -5.8433   18.0974 C   0  0  0  0  0  0
  -51.9187   -7.6189   19.5431 C   0  0  0  0  0  0
  -51.9104   -8.7383   19.7412 N   0  0  0  0  0  0
  -53.3022   -6.8219   17.2934 N   0  0  0  0  0  0
  -54.0436   -6.1796   16.3524 C   0  0  0  0  0  0
  -54.0335   -4.8364   16.5509 C   0  0  0  0  0  0
  -53.2387   -4.6272   17.6815 C   0  0  0  0  0  0
  -53.1706   -8.1812   17.2804 N   0  0  0  0  0  0
  -53.7852   -8.8453   16.3304 C   0  0  0  0  0  0
  -54.5597   -8.3058   15.3345 N   0  0  0  0  0  0
  -54.6789   -6.9714   15.3609 C   0  0  0  0  0  0
  -55.4481   -6.3915   14.3797 N   0  0  0  0  0  0
  -50.2729   -2.0343   14.1650 H   0  0  0  0  0  0
  -51.2286   -1.6887   13.1137 H   0  0  0  0  0  0
  -50.0431   -2.4655   12.7842 H   0  0  0  0  0  0
  -47.2707   -1.7493   12.8077 H   0  0  0  0  0  0
  -49.2584   -1.5707   17.3240 H   0  0  0  0  0  0
  -52.5102   -2.6585   20.3614 H   0  0  0  0  0  0
  -53.7845   -4.5567   21.5955 H   0  0  0  0  0  0
  -55.8364   -6.8973   13.7728 H   0  0  0  0  0  0
  -55.5556   -5.5179   14.3552 H   0  0  0  0  0  0
  1  2  2  0  0  0
  2  3  1  0  0  0
  3  4  2  0  0  0
  3  7  1  0  0  0
  4  5  1  0  0  0
  5  6  2  0  0  0
  6  1  1  0  0  0
  7  8  1  0  0  0
  8  9  1  0  0  0
  8 10  1  0  0  0
 10 11  1  0  0  0
 10 12  1  0  0  0
 12 13  1  0  0  0
 13 14  1  0  0  0
 13 21  1  0  0  0
 14 15  1  0  0  0
 15 16  2  0  0  0
 16 17  1  0  0  0
 17 18  2  0  0  0
 18 19  1  0  0  0
 19 20  2  0  0  0
 20 15  1  0  0  0
 21 22  1  0  0  0
 22 23  1  0  0  0
 22 24  1  0  0  0
 22 25  2  0  0  0
 23 26  1  0  0  0
 24 27  1  0  0  0
 27 28  2  0  0  0
 28 29  1  0  0  0
 29 30  2  0  0  0
 30 31  1  0  0  0
 31 32  2  0  0  0
 32 27  1  0  0  0
 33 26  1  0  0  0
 33 34  1  0  0  0
 34 35  1  0  0  0
 35 36  1  0  0  0
 35 40  1  0  0  0
 35 41  1  0  0  0
 36 37  1  0  0  0
 36 39  1  0  0  0
 37 33  1  0  0  0
 37 38  1  0  0  0
 40 43  1  0  0  0
 41 42  3  0  0  0
 43 44  1  0  0  0
 43 47  1  0  0  0
 44 45  2  0  0  0
 45 46  1  0  0  0
 46 40  2  0  0  0
 47 48  2  0  0  0
 48 49  1  0  0  0
 49 50  2  0  0  0
 50 44  1  0  0  0
 50 51  1  0  0  0
  9 52  1  0  0  0
  9 53  1  0  0  0
  9 54  1  0  0  0
 11 55  1  0  0  0
 21 56  1  0  0  0
 38 57  1  0  0  0
 39 58  1  0  0  0
 51 59  1  0  0  0
 51 60  1  0  0  0
M  END
>  <#Atoms_cresset>
51

>  <#RB_cresset>
18

>  <BioMolTech Lead Finder LE>
-0.172

>  <BioMolTech Lead Finder Pose rank>
0

>  <BioMolTech Lead Finder Rank score>
-13.57

>  <BioMolTech Lead Finder SDF id>
0

>  <BioMolTech Lead Finder Structure Name>
/var/folders/xd/y7jw_xv579q2qqq7kks92xd80000gn/T/LeadFinder_21448_1/Ligand_1.sdf

>  <BioMolTech Lead Finder VSscore>
-13.341

>  <BioMolTech Lead Finder dG>
-8.761

>  <BioMolTech Lead Finder version>
2001 1, 19 January 2019

>  <CHROM.0>
102.46114292,49.25790612,120.45899141

>  <CHROM.1>
144.79608550,-150.06414618,-87.92382007,172.93530007,58.31540539,149.84865908
115.59209010,84.04498552,103.47299351,74.56793577,-173.39368512,-33.03880818
-59.15733178,176.58146602,-42.71741964,-10.61510465,105.85743254,172.93461261
-173.05358260,-49.76741633,-2.64491274,16.63682632,0.92591944,-0.54719830
-0.81749608

>  <Confs_cresset>
0

>  <Favorite_cresset>
false

>  <Filename_cresset>
VTRRT-13V2.1.sdf

>  <Flexibility_cresset>
17.1

>  <LF LE>
-0.172

>  <LF Rank Score>
-13.57

>  <LF VSscore>
-13.341

>  <LF dG>
-8.761

>  <MW_cresset>
714.7

>  <Name>
Untitled

>  <Poses_cresset>
10

>  <Preferred Pose_cresset>
true

>  <Protein_cresset>
6Y2F_P

>  <RI>
-6.34158e+08

>  <Rbt.Current_Directory>
/root/miniconda3/envs/rdock/share/rxdock-2013.1.1_148c5bd1-0/data/ligands/prepped_ligands/VTRRT

>  <Rbt.Executable>
rbdock/0.1.0

>  <Rbt.Library>
librxdock.so/0.1.0

>  <Rbt.Parameter_File>
/root/miniconda3/envs/rdock/share/rxdock-2013.1.1_148c5bd1-0/data/scripts/dock.prm

>  <Rbt.Receptor>
def.prm

>  <Rof5_cresset>
3

>  <SCORE>
-22.3097

>  <SCORE.INTER>
-14.5777

>  <SCORE.INTER.CONST>
1

>  <SCORE.INTER.POLAR>
-0.662975

>  <SCORE.INTER.REPUL>
0.430467

>  <SCORE.INTER.ROT>
15

>  <SCORE.INTER.VDW>
-34.876

>  <SCORE.INTER.norm>
-0.285838

>  <SCORE.INTRA>
-12.037

>  <SCORE.INTRA.DIHEDRAL>
-14.9839

>  <SCORE.INTRA.DIHEDRAL.0>
43.3056

>  <SCORE.INTRA.POLAR>
0

>  <SCORE.INTRA.POLAR.0>
0

>  <SCORE.INTRA.REPUL>
-1.18384

>  <SCORE.INTRA.REPUL.0>
1.18384

>  <SCORE.INTRA.VDW>
1.37417

>  <SCORE.INTRA.VDW.0>
-7.21879

>  <SCORE.INTRA.norm>
-0.236019

>  <SCORE.RESTR>
0.101888

>  <SCORE.RESTR.CAVITY>
0.101888

>  <SCORE.RESTR.norm>
0.0019978

>  <SCORE.SYSTEM>
4.20315

>  <SCORE.SYSTEM.CONST>
0

>  <SCORE.SYSTEM.DIHEDRAL>
7.03592

>  <SCORE.SYSTEM.VDW>
0.685187

>  <SCORE.SYSTEM.norm>
0.0824146

>  <SCORE.heavy>
51

>  <SCORE.norm>
-0.437444

>  <SlogP_cresset>
4

>  <TPSA_cresset>
225.1

>  <_cresset_fieldpoints>
    -5      16.836018       5.832630      29.221167     -3.6840
    -5      12.689775      -0.157515      20.961832    -26.5835
    -5      10.603017       0.175630      26.550167     -8.1895
    -5      16.438017       3.291630      24.075167     -2.5740
    -5      10.777017       2.958630      26.544167    -13.1420
    -5      14.325016       6.363630      19.343166     -3.9175
    -5      10.138498      -1.142644      20.673992    -19.3483
    -5       8.999017       3.081630      18.875168    -11.2330
    -5      16.643017      -2.580370      18.078167    -12.9950
    -5       9.665886      -1.797647      20.491711    -20.2282
    -5       9.721017       2.679630      21.897167    -10.3470
    -5       9.495016      -3.987370      19.277166    -12.3125
    -6       9.544017       6.999630      25.870167     13.2990
    -6      11.781016       8.517631      22.930166      7.7900
    -6      14.607017       1.112630      25.440166      7.0810
    -6      15.386017       0.918630      28.446167      2.3985
    -6      18.624016       1.298630      27.807167      2.3740
    -6      20.392017       2.874630      26.722168      2.3035
    -6      17.648016       0.730630      28.195168      2.3685
    -6      14.512016       8.724630      26.097166      6.5595
    -6       8.569016      -0.973370      14.343166     10.8755
    -6       7.728017       1.126630      14.428167      9.6685
    -6       9.165016      -5.976370      22.174168      8.4205
    -6      13.686016      -5.263370      22.254168      6.1950
    -6      13.877016       8.944631      27.096167      6.4995
    -6      12.880016      -5.307370      17.193167     12.0245
    -7      15.472016       6.118630      22.868166     -3.2390
    -7      16.618017       6.190630      29.550167     -1.8400
    -7      20.678017       4.935630      25.563168     -0.9695
    -7      14.813017       8.811630      25.026167     -2.2140
    -7      10.993016       2.287630      26.765167     -3.3000
    -7      14.052017       0.966630      26.100166     -2.8945
    -7      19.113016       1.220630      27.604168     -0.9705
    -7      16.034016       2.731630      23.912167     -3.3250
    -7      10.857017       6.577630      27.959167     -2.0560
    -7       9.494017       3.463630      21.639168     -4.2685
    -7      10.789017       9.786630      25.500168     -0.9715
    -7      14.840016       6.494630      19.649166     -1.8715
    -7       8.671017       3.594630      18.487167     -2.1885
    -7       9.509016       9.096630      19.641167     -0.9730
    -7      10.391017      -1.625370      26.086166     -2.4190
    -7       4.660017      -1.773370      25.985167     -0.9695
    -7       4.569016       2.557630      27.332167     -0.9680
    -7      14.875017      -4.579370      21.768167     -1.8885
    -7      13.267016      -5.347370      16.886168     -1.9350
    -7       6.954017      -1.202370      16.804167     -1.5235
    -7      11.071016       0.523630      14.355167     -1.5285
    -7      13.461017       0.151630      20.851168     -4.5370
    -7       9.025017      -1.430370      20.607166     -4.2605
    -8      14.386017       5.687630      26.072166      5.7545
    -8      16.303017       4.649630      26.702168      7.2160
    -8      12.821016       4.074630      23.412167      5.8535
    -8      11.879017       5.300630      20.313168      7.2105
    -8      14.967016       5.182630      26.638166      5.8010
    -8      12.613016       4.247630      22.352167      5.8285
    -8      13.423017       5.009630      25.510166      5.6895
    -8      12.579017       4.458630      21.224167      5.7810
    -8       7.903017       1.063630      24.720167      7.0265
    -8      11.517016      -3.053370      22.483168      4.3445
    -8      12.238016      -3.808370      21.025167      4.6035
    -8      12.152017      -3.126370      18.429167      4.4460
    -8      10.771017      -2.113370      17.279167      4.9125

$$$$
