Untitled
  RxDock  02242113253D
librxdock.so/0.1.0
 60 65  0  0  0  0  0  0  0  0999 V2000
  -49.0564   -9.6714   18.5820 C   0  0  0  0  0  0
  -49.8614   -8.9269   17.7499 C   0  0  0  0  0  0
  -50.9933   -8.3140   18.2416 C   0  0  0  0  0  0
  -51.3134   -8.4527   19.5753 C   0  0  0  0  0  0
  -50.5102   -9.1975   20.4087 C   0  0  0  0  0  0
  -49.3815   -9.8071   19.9114 C   0  0  0  0  0  0
  -51.8807   -7.4888   17.3206 C   0  0  0  0  0  0
  -52.7989   -6.4723   18.0351 C   0  0  0  0  0  0
  -53.8500   -5.9955   17.0685 N   0  3  0  0  0  0
  -51.9597   -5.2932   18.5792 C   0  0  0  0  0  0
  -52.3571   -4.9877   19.9279 O   0  0  0  0  0  0
  -52.1285   -4.0331   17.7029 C   0  0  0  0  0  0
  -50.8823   -3.1223   17.7665 C   0  0  0  0  0  0
  -51.0001   -2.0140   16.6958 C   0  0  0  0  0  0
  -50.4921   -2.3830   15.3105 C   0  0  0  0  0  0
  -50.2898   -1.4046   14.3612 C   0  0  0  0  0  0
  -49.8329   -1.7375   13.1055 C   0  0  0  0  0  0
  -49.5777   -3.0523   12.7931 C   0  0  0  0  0  0
  -49.7782   -4.0341   13.7376 C   0  0  0  0  0  0
  -50.2339   -3.6987   14.9925 C   0  0  0  0  0  0
  -50.7859   -2.5084   19.0978 N   0  0  0  0  0  0
  -49.5580   -1.6551   19.2944 P   0  0  0  0  0  0
  -48.3103   -2.2239   18.4551 O   0  0  0  0  0  0
  -49.0463   -1.7592   20.8206 O   0  0  0  0  0  0
  -49.8209   -0.2194   18.9230 O   0  0  0  0  0  0
  -47.9456   -1.5738   17.2287 C   0  0  0  0  0  0
  -48.1435   -0.8787   21.3485 C   0  0  0  0  0  0
  -48.2587    0.4862   21.1579 C   0  0  0  0  0  0
  -47.3359    1.3459   21.7057 C   0  0  0  0  0  0
  -46.2901    0.8505   22.4505 C   0  0  0  0  0  0
  -46.1675   -0.5064   22.6449 C   0  0  0  0  0  0
  -47.0882   -1.3663   22.0951 C   0  0  0  0  0  0
  -46.5590   -2.0594   16.7758 C   0  0  0  0  0  0
  -45.6645   -2.2062   17.8918 O   0  0  0  0  0  0
  -44.3171   -1.8852   17.4974 C   0  0  0  0  0  0
  -44.3951   -1.4601   16.0119 C   0  0  0  0  0  0
  -45.8695   -1.0883   15.8070 C   0  0  0  0  0  0
  -46.0785    0.2814   16.1843 O   0  0  0  0  0  0
  -43.5186   -0.3710   15.6818 O   0  0  0  0  0  0
  -43.8589   -0.8089   18.4756 C   0  0  0  0  0  0
  -43.4949   -3.0941   17.6362 C   0  0  0  0  0  0
  -42.8590   -4.0304   17.7429 N   0  0  0  0  0  0
  -44.6706    0.2232   18.8080 N   0  0  0  0  0  0
  -43.9511    0.9765   19.6814 C   0  0  0  0  0  0
  -42.7217    0.4414   19.8956 C   0  0  0  0  0  0
  -42.6697   -0.7132   19.1096 C   0  0  0  0  0  0
  -45.9374    0.5816   18.4450 N   0  0  0  0  0  0
  -46.4364    1.6760   18.9690 C   0  0  0  0  0  0
  -45.8067    2.5089   19.8592 N   0  0  0  0  0  0
  -44.5647    2.1438   20.2053 C   0  0  0  0  0  0
  -43.8995    2.9522   21.0967 N   0  0  0  0  0  0
  -54.2584   -5.2371   17.3599 H   0  0  0  0  0  0
  -53.4943   -5.8078   16.2515 H   0  0  0  0  0  0
  -54.4980   -6.6158   16.9276 H   0  0  0  0  0  0
  -52.2695   -5.7922   20.5248 H   0  0  0  0  0  0
  -50.8465   -3.2312   19.8267 H   0  0  0  0  0  0
  -47.0493    0.5366   16.1116 H   0  0  0  0  0  0
  -43.5982    0.3778   16.3485 H   0  0  0  0  0  0
  -44.2951    3.6720   21.4131 H   0  0  0  0  0  0
  -43.0809    2.7538   21.3537 H   0  0  0  0  0  0
  1  2  2  0  0  0
  2  3  1  0  0  0
  3  4  2  0  0  0
  3  7  1  0  0  0
  4  5  1  0  0  0
  5  6  2  0  0  0
  6  1  1  0  0  0
  7  8  1  0  0  0
  8  9  1  0  0  0
  8 10  1  0  0  0
 10 11  1  0  0  0
 10 12  1  0  0  0
 12 13  1  0  0  0
 13 14  1  0  0  0
 13 21  1  0  0  0
 14 15  1  0  0  0
 15 16  2  0  0  0
 16 17  1  0  0  0
 17 18  2  0  0  0
 18 19  1  0  0  0
 19 20  2  0  0  0
 20 15  1  0  0  0
 21 22  1  0  0  0
 22 23  1  0  0  0
 22 24  1  0  0  0
 22 25  2  0  0  0
 23 26  1  0  0  0
 24 27  1  0  0  0
 27 28  2  0  0  0
 28 29  1  0  0  0
 29 30  2  0  0  0
 30 31  1  0  0  0
 31 32  2  0  0  0
 32 27  1  0  0  0
 33 26  1  0  0  0
 33 34  1  0  0  0
 34 35  1  0  0  0
 35 36  1  0  0  0
 35 40  1  0  0  0
 35 41  1  0  0  0
 36 37  1  0  0  0
 36 39  1  0  0  0
 37 33  1  0  0  0
 37 38  1  0  0  0
 40 43  1  0  0  0
 41 42  3  0  0  0
 43 44  1  0  0  0
 43 47  1  0  0  0
 44 45  2  0  0  0
 45 46  1  0  0  0
 46 40  2  0  0  0
 47 48  2  0  0  0
 48 49  1  0  0  0
 49 50  2  0  0  0
 50 44  1  0  0  0
 50 51  1  0  0  0
  9 52  1  0  0  0
  9 53  1  0  0  0
  9 54  1  0  0  0
 11 55  1  0  0  0
 21 56  1  0  0  0
 38 57  1  0  0  0
 39 58  1  0  0  0
 51 59  1  0  0  0
 51 60  1  0  0  0
M  END
>  <#Atoms_cresset>
51

>  <#RB_cresset>
18

>  <BioMolTech Lead Finder LE>
-0.172

>  <BioMolTech Lead Finder Pose rank>
0

>  <BioMolTech Lead Finder Rank score>
-13.57

>  <BioMolTech Lead Finder SDF id>
0

>  <BioMolTech Lead Finder Structure Name>
/var/folders/xd/y7jw_xv579q2qqq7kks92xd80000gn/T/LeadFinder_21448_1/Ligand_1.sdf

>  <BioMolTech Lead Finder VSscore>
-13.341

>  <BioMolTech Lead Finder dG>
-8.761

>  <BioMolTech Lead Finder version>
2001 1, 19 January 2019

>  <CHROM.0>
61.03049915,148.12354800,4.08314681

>  <CHROM.1>
-159.41829265,-165.50457342,-163.77977232,-134.63182437,56.93914734,-152.46952670
170.30799828,-86.31274981,176.81011981,-166.50427624,-32.37722315,102.47450774
-165.40514024,166.79232637,45.71767572,-39.66494731,-44.14025874,-47.90408170
-65.21208518,-48.00513470,-2.42221214,18.31485155,2.96919042,-0.82459053
-1.59923464

>  <Confs_cresset>
0

>  <Favorite_cresset>
false

>  <Filename_cresset>
VTRRT-13V2.1.sdf

>  <Flexibility_cresset>
17.1

>  <LF LE>
-0.172

>  <LF Rank Score>
-13.57

>  <LF VSscore>
-13.341

>  <LF dG>
-8.761

>  <MW_cresset>
714.7

>  <Name>
Untitled

>  <Poses_cresset>
10

>  <Preferred Pose_cresset>
true

>  <Protein_cresset>
6Y2F_P

>  <RI>
-1.06272e+09

>  <Rbt.Current_Directory>
/root/miniconda3/envs/rdock/share/rxdock-2013.1.1_148c5bd1-0/data/ligands/prepped_ligands/VTRRT

>  <Rbt.Executable>
rbdock/0.1.0

>  <Rbt.Library>
librxdock.so/0.1.0

>  <Rbt.Parameter_File>
/root/miniconda3/envs/rdock/share/rxdock-2013.1.1_148c5bd1-0/data/scripts/dock.prm

>  <Rbt.Receptor>
def.prm

>  <Rof5_cresset>
3

>  <SCORE>
-5.55931

>  <SCORE.INTER>
3.18463

>  <SCORE.INTER.CONST>
1

>  <SCORE.INTER.POLAR>
-0.345897

>  <SCORE.INTER.REPUL>
0.00044667

>  <SCORE.INTER.ROT>
15

>  <SCORE.INTER.VDW>
-16.0416

>  <SCORE.INTER.norm>
0.0624437

>  <SCORE.INTRA>
-13.1492

>  <SCORE.INTRA.DIHEDRAL>
-20.7857

>  <SCORE.INTRA.DIHEDRAL.0>
43.3056

>  <SCORE.INTRA.POLAR>
-0.210801

>  <SCORE.INTRA.POLAR.0>
0

>  <SCORE.INTRA.REPUL>
-1.18384

>  <SCORE.INTRA.REPUL.0>
1.18384

>  <SCORE.INTRA.VDW>
3.87952

>  <SCORE.INTRA.VDW.0>
-7.21879

>  <SCORE.INTRA.norm>
-0.257828

>  <SCORE.RESTR>
0.97755

>  <SCORE.RESTR.CAVITY>
0.97755

>  <SCORE.RESTR.norm>
0.0191677

>  <SCORE.SYSTEM>
3.42775

>  <SCORE.SYSTEM.CONST>
0

>  <SCORE.SYSTEM.DIHEDRAL>
7.5173

>  <SCORE.SYSTEM.VDW>
-0.330901

>  <SCORE.SYSTEM.norm>
0.0672107

>  <SCORE.heavy>
51

>  <SCORE.norm>
-0.109006

>  <SlogP_cresset>
4

>  <TPSA_cresset>
225.1

>  <_cresset_fieldpoints>
    -5      16.836018       5.832630      29.221167     -3.6840
    -5      12.689775      -0.157515      20.961832    -26.5835
    -5      10.603017       0.175630      26.550167     -8.1895
    -5      16.438017       3.291630      24.075167     -2.5740
    -5      10.777017       2.958630      26.544167    -13.1420
    -5      14.325016       6.363630      19.343166     -3.9175
    -5      10.138498      -1.142644      20.673992    -19.3483
    -5       8.999017       3.081630      18.875168    -11.2330
    -5      16.643017      -2.580370      18.078167    -12.9950
    -5       9.665886      -1.797647      20.491711    -20.2282
    -5       9.721017       2.679630      21.897167    -10.3470
    -5       9.495016      -3.987370      19.277166    -12.3125
    -6       9.544017       6.999630      25.870167     13.2990
    -6      11.781016       8.517631      22.930166      7.7900
    -6      14.607017       1.112630      25.440166      7.0810
    -6      15.386017       0.918630      28.446167      2.3985
    -6      18.624016       1.298630      27.807167      2.3740
    -6      20.392017       2.874630      26.722168      2.3035
    -6      17.648016       0.730630      28.195168      2.3685
    -6      14.512016       8.724630      26.097166      6.5595
    -6       8.569016      -0.973370      14.343166     10.8755
    -6       7.728017       1.126630      14.428167      9.6685
    -6       9.165016      -5.976370      22.174168      8.4205
    -6      13.686016      -5.263370      22.254168      6.1950
    -6      13.877016       8.944631      27.096167      6.4995
    -6      12.880016      -5.307370      17.193167     12.0245
    -7      15.472016       6.118630      22.868166     -3.2390
    -7      16.618017       6.190630      29.550167     -1.8400
    -7      20.678017       4.935630      25.563168     -0.9695
    -7      14.813017       8.811630      25.026167     -2.2140
    -7      10.993016       2.287630      26.765167     -3.3000
    -7      14.052017       0.966630      26.100166     -2.8945
    -7      19.113016       1.220630      27.604168     -0.9705
    -7      16.034016       2.731630      23.912167     -3.3250
    -7      10.857017       6.577630      27.959167     -2.0560
    -7       9.494017       3.463630      21.639168     -4.2685
    -7      10.789017       9.786630      25.500168     -0.9715
    -7      14.840016       6.494630      19.649166     -1.8715
    -7       8.671017       3.594630      18.487167     -2.1885
    -7       9.509016       9.096630      19.641167     -0.9730
    -7      10.391017      -1.625370      26.086166     -2.4190
    -7       4.660017      -1.773370      25.985167     -0.9695
    -7       4.569016       2.557630      27.332167     -0.9680
    -7      14.875017      -4.579370      21.768167     -1.8885
    -7      13.267016      -5.347370      16.886168     -1.9350
    -7       6.954017      -1.202370      16.804167     -1.5235
    -7      11.071016       0.523630      14.355167     -1.5285
    -7      13.461017       0.151630      20.851168     -4.5370
    -7       9.025017      -1.430370      20.607166     -4.2605
    -8      14.386017       5.687630      26.072166      5.7545
    -8      16.303017       4.649630      26.702168      7.2160
    -8      12.821016       4.074630      23.412167      5.8535
    -8      11.879017       5.300630      20.313168      7.2105
    -8      14.967016       5.182630      26.638166      5.8010
    -8      12.613016       4.247630      22.352167      5.8285
    -8      13.423017       5.009630      25.510166      5.6895
    -8      12.579017       4.458630      21.224167      5.7810
    -8       7.903017       1.063630      24.720167      7.0265
    -8      11.517016      -3.053370      22.483168      4.3445
    -8      12.238016      -3.808370      21.025167      4.6035
    -8      12.152017      -3.126370      18.429167      4.4460
    -8      10.771017      -2.113370      17.279167      4.9125

$$$$
Untitled
  RxDock  02242113263D
librxdock.so/0.1.0
 60 65  0  0  0  0  0  0  0  0999 V2000
  -50.8545    3.1763   11.8989 C   0  0  0  0  0  0
  -50.5151    2.0545   12.6209 C   0  0  0  0  0  0
  -49.2684    1.4854   12.4781 C   0  0  0  0  0  0
  -48.3625    2.0495   11.6053 C   0  0  0  0  0  0
  -48.7004    3.1705   10.8818 C   0  0  0  0  0  0
  -49.9470    3.7337   11.0288 C   0  0  0  0  0  0
  -48.8938    0.2468   13.2794 C   0  0  0  0  0  0
  -49.7987   -0.9830   13.0440 C   0  0  0  0  0  0
  -51.1981   -0.6568   13.4932 N   0  3  0  0  0  0
  -49.2358   -2.2066   13.8035 C   0  0  0  0  0  0
  -49.7356   -3.4219   13.2174 O   0  0  0  0  0  0
  -49.6241   -2.1667   15.2974 C   0  0  0  0  0  0
  -48.3873   -1.9790   16.2039 C   0  0  0  0  0  0
  -47.2827   -1.2352   15.4195 C   0  0  0  0  0  0
  -45.9327   -1.1439   16.1141 C   0  0  0  0  0  0
  -45.5434    0.0286   16.7248 C   0  0  0  0  0  0
  -44.3200    0.1139   17.3513 C   0  0  0  0  0  0
  -43.4790   -0.9743   17.3680 C   0  0  0  0  0  0
  -43.8627   -2.1483   16.7592 C   0  0  0  0  0  0
  -45.0866   -2.2314   16.1346 C   0  0  0  0  0  0
  -48.7579   -1.1948   17.3899 N   0  0  0  0  0  0
  -48.2548   -1.7704   18.6898 P   0  0  0  0  0  0
  -49.0759   -3.0898   19.1018 O   0  0  0  0  0  0
  -48.5651   -0.7559   19.9049 O   0  0  0  0  0  0
  -46.7818   -2.0770   18.6219 O   0  0  0  0  0  0
  -49.1766   -4.1665   18.1582 C   0  0  0  0  0  0
  -47.8730    0.4106   20.0757 C   0  0  0  0  0  0
  -47.4080    1.1469   19.0012 C   0  0  0  0  0  0
  -46.7182    2.3185   19.2066 C   0  0  0  0  0  0
  -46.4876    2.7668   20.4871 C   0  0  0  0  0  0
  -46.9463    2.0402   21.5621 C   0  0  0  0  0  0
  -47.6334    0.8675   21.3574 C   0  0  0  0  0  0
  -49.4736   -5.4804   18.8991 C   0  0  0  0  0  0
  -49.8392   -6.5273   17.9840 O   0  0  0  0  0  0
  -50.8056   -7.4060   18.5905 C   0  0  0  0  0  0
  -51.0943   -6.8220   19.9938 C   0  0  0  0  0  0
  -50.6396   -5.3604   19.8907 C   0  0  0  0  0  0
  -51.7084   -4.5586   19.3644 O   0  0  0  0  0  0
  -52.4727   -6.9265   20.3844 O   0  0  0  0  0  0
  -51.9848   -7.4329   17.6242 C   0  0  0  0  0  0
  -50.2049   -8.7406   18.7107 C   0  0  0  0  0  0
  -49.7391   -9.7735   18.8044 N   0  0  0  0  0  0
  -52.3223   -6.3363   16.9043 N   0  0  0  0  0  0
  -53.4003   -6.7114   16.1661 C   0  0  0  0  0  0
  -53.7379   -8.0037   16.4103 C   0  0  0  0  0  0
  -52.8176   -8.4626   17.3569 C   0  0  0  0  0  0
  -51.8147   -5.0713   16.8187 N   0  0  0  0  0  0
  -52.4017   -4.2319   15.9989 C   0  0  0  0  0  0
  -53.4887   -4.4995   15.2056 N   0  0  0  0  0  0
  -53.9750   -5.7445   15.3011 C   0  0  0  0  0  0
  -55.0644   -6.0531   14.5210 N   0  0  0  0  0  0
  -51.6269   -0.1179   12.8993 H   0  0  0  0  0  0
  -51.7051   -1.4076   13.5839 H   0  0  0  0  0  0
  -51.2146   -0.2394   14.2995 H   0  0  0  0  0  0
  -49.4917   -3.4843   12.2439 H   0  0  0  0  0  0
  -49.7769   -1.0609   17.4220 H   0  0  0  0  0  0
  -52.4944   -4.5392   19.9926 H   0  0  0  0  0  0
  -52.6382   -6.4740   21.2673 H   0  0  0  0  0  0
  -55.4080   -5.4420   13.9887 H   0  0  0  0  0  0
  -55.4198   -6.8584   14.5496 H   0  0  0  0  0  0
  1  2  2  0  0  0
  2  3  1  0  0  0
  3  4  2  0  0  0
  3  7  1  0  0  0
  4  5  1  0  0  0
  5  6  2  0  0  0
  6  1  1  0  0  0
  7  8  1  0  0  0
  8  9  1  0  0  0
  8 10  1  0  0  0
 10 11  1  0  0  0
 10 12  1  0  0  0
 12 13  1  0  0  0
 13 14  1  0  0  0
 13 21  1  0  0  0
 14 15  1  0  0  0
 15 16  2  0  0  0
 16 17  1  0  0  0
 17 18  2  0  0  0
 18 19  1  0  0  0
 19 20  2  0  0  0
 20 15  1  0  0  0
 21 22  1  0  0  0
 22 23  1  0  0  0
 22 24  1  0  0  0
 22 25  2  0  0  0
 23 26  1  0  0  0
 24 27  1  0  0  0
 27 28  2  0  0  0
 28 29  1  0  0  0
 29 30  2  0  0  0
 30 31  1  0  0  0
 31 32  2  0  0  0
 32 27  1  0  0  0
 33 26  1  0  0  0
 33 34  1  0  0  0
 34 35  1  0  0  0
 35 36  1  0  0  0
 35 40  1  0  0  0
 35 41  1  0  0  0
 36 37  1  0  0  0
 36 39  1  0  0  0
 37 33  1  0  0  0
 37 38  1  0  0  0
 40 43  1  0  0  0
 41 42  3  0  0  0
 43 44  1  0  0  0
 43 47  1  0  0  0
 44 45  2  0  0  0
 45 46  1  0  0  0
 46 40  2  0  0  0
 47 48  2  0  0  0
 48 49  1  0  0  0
 49 50  2  0  0  0
 50 44  1  0  0  0
 50 51  1  0  0  0
  9 52  1  0  0  0
  9 53  1  0  0  0
  9 54  1  0  0  0
 11 55  1  0  0  0
 21 56  1  0  0  0
 38 57  1  0  0  0
 39 58  1  0  0  0
 51 59  1  0  0  0
 51 60  1  0  0  0
M  END
>  <#Atoms_cresset>
51

>  <#RB_cresset>
18

>  <BioMolTech Lead Finder LE>
-0.172

>  <BioMolTech Lead Finder Pose rank>
0

>  <BioMolTech Lead Finder Rank score>
-13.57

>  <BioMolTech Lead Finder SDF id>
0

>  <BioMolTech Lead Finder Structure Name>
/var/folders/xd/y7jw_xv579q2qqq7kks92xd80000gn/T/LeadFinder_21448_1/Ligand_1.sdf

>  <BioMolTech Lead Finder VSscore>
-13.341

>  <BioMolTech Lead Finder dG>
-8.761

>  <BioMolTech Lead Finder version>
2001 1, 19 January 2019

>  <CHROM.0>
-51.76384362,58.86951864,-58.57055564

>  <CHROM.1>
59.33969087,-63.18368428,75.65174792,-158.38807822,58.16439496,-113.79393588
26.90893293,-171.92037157,133.26362877,-102.51218717,-72.85634244,53.99506343
-72.92555223,157.31062996,33.92352559,168.69617139,-33.93962894,-175.53269380
175.95532180,-49.44778849,-2.58864077,16.79819977,0.84680075,-0.80087115
-0.84271805

>  <Confs_cresset>
0

>  <Favorite_cresset>
false

>  <Filename_cresset>
VTRRT-13V2.1.sdf

>  <Flexibility_cresset>
17.1

>  <LF LE>
-0.172

>  <LF Rank Score>
-13.57

>  <LF VSscore>
-13.341

>  <LF dG>
-8.761

>  <MW_cresset>
714.7

>  <Name>
Untitled

>  <Poses_cresset>
10

>  <Preferred Pose_cresset>
true

>  <Protein_cresset>
6Y2F_P

>  <RI>
-1.06272e+09

>  <Rbt.Current_Directory>
/root/miniconda3/envs/rdock/share/rxdock-2013.1.1_148c5bd1-0/data/ligands/prepped_ligands/VTRRT

>  <Rbt.Executable>
rbdock/0.1.0

>  <Rbt.Library>
librxdock.so/0.1.0

>  <Rbt.Parameter_File>
/root/miniconda3/envs/rdock/share/rxdock-2013.1.1_148c5bd1-0/data/scripts/dock.prm

>  <Rbt.Receptor>
def.prm

>  <Rof5_cresset>
3

>  <SCORE>
-35.9218

>  <SCORE.INTER>
-20.9382

>  <SCORE.INTER.CONST>
1

>  <SCORE.INTER.POLAR>
-1.39355

>  <SCORE.INTER.REPUL>
0.00432347

>  <SCORE.INTER.ROT>
15

>  <SCORE.INTER.VDW>
-36.6218

>  <SCORE.INTER.norm>
-0.410553

>  <SCORE.INTRA>
-14.2987

>  <SCORE.INTRA.DIHEDRAL>
-22.3912

>  <SCORE.INTRA.DIHEDRAL.0>
43.3056

>  <SCORE.INTRA.POLAR>
0

>  <SCORE.INTRA.POLAR.0>
0

>  <SCORE.INTRA.REPUL>
-1.0635

>  <SCORE.INTRA.REPUL.0>
1.18384

>  <SCORE.INTRA.VDW>
2.21436

>  <SCORE.INTRA.VDW.0>
-7.21879

>  <SCORE.INTRA.norm>
-0.280367

>  <SCORE.RESTR>
0.165549

>  <SCORE.RESTR.CAVITY>
0.165549

>  <SCORE.RESTR.norm>
0.00324605

>  <SCORE.SYSTEM>
-0.850372

>  <SCORE.SYSTEM.CONST>
0

>  <SCORE.SYSTEM.DIHEDRAL>
0.169268

>  <SCORE.SYSTEM.POLAR>
-0.00430281

>  <SCORE.SYSTEM.VDW>
-0.920376

>  <SCORE.SYSTEM.norm>
-0.016674

>  <SCORE.heavy>
51

>  <SCORE.norm>
-0.704348

>  <SlogP_cresset>
4

>  <TPSA_cresset>
225.1

>  <_cresset_fieldpoints>
    -5      16.836018       5.832630      29.221167     -3.6840
    -5      12.689775      -0.157515      20.961832    -26.5835
    -5      10.603017       0.175630      26.550167     -8.1895
    -5      16.438017       3.291630      24.075167     -2.5740
    -5      10.777017       2.958630      26.544167    -13.1420
    -5      14.325016       6.363630      19.343166     -3.9175
    -5      10.138498      -1.142644      20.673992    -19.3483
    -5       8.999017       3.081630      18.875168    -11.2330
    -5      16.643017      -2.580370      18.078167    -12.9950
    -5       9.665886      -1.797647      20.491711    -20.2282
    -5       9.721017       2.679630      21.897167    -10.3470
    -5       9.495016      -3.987370      19.277166    -12.3125
    -6       9.544017       6.999630      25.870167     13.2990
    -6      11.781016       8.517631      22.930166      7.7900
    -6      14.607017       1.112630      25.440166      7.0810
    -6      15.386017       0.918630      28.446167      2.3985
    -6      18.624016       1.298630      27.807167      2.3740
    -6      20.392017       2.874630      26.722168      2.3035
    -6      17.648016       0.730630      28.195168      2.3685
    -6      14.512016       8.724630      26.097166      6.5595
    -6       8.569016      -0.973370      14.343166     10.8755
    -6       7.728017       1.126630      14.428167      9.6685
    -6       9.165016      -5.976370      22.174168      8.4205
    -6      13.686016      -5.263370      22.254168      6.1950
    -6      13.877016       8.944631      27.096167      6.4995
    -6      12.880016      -5.307370      17.193167     12.0245
    -7      15.472016       6.118630      22.868166     -3.2390
    -7      16.618017       6.190630      29.550167     -1.8400
    -7      20.678017       4.935630      25.563168     -0.9695
    -7      14.813017       8.811630      25.026167     -2.2140
    -7      10.993016       2.287630      26.765167     -3.3000
    -7      14.052017       0.966630      26.100166     -2.8945
    -7      19.113016       1.220630      27.604168     -0.9705
    -7      16.034016       2.731630      23.912167     -3.3250
    -7      10.857017       6.577630      27.959167     -2.0560
    -7       9.494017       3.463630      21.639168     -4.2685
    -7      10.789017       9.786630      25.500168     -0.9715
    -7      14.840016       6.494630      19.649166     -1.8715
    -7       8.671017       3.594630      18.487167     -2.1885
    -7       9.509016       9.096630      19.641167     -0.9730
    -7      10.391017      -1.625370      26.086166     -2.4190
    -7       4.660017      -1.773370      25.985167     -0.9695
    -7       4.569016       2.557630      27.332167     -0.9680
    -7      14.875017      -4.579370      21.768167     -1.8885
    -7      13.267016      -5.347370      16.886168     -1.9350
    -7       6.954017      -1.202370      16.804167     -1.5235
    -7      11.071016       0.523630      14.355167     -1.5285
    -7      13.461017       0.151630      20.851168     -4.5370
    -7       9.025017      -1.430370      20.607166     -4.2605
    -8      14.386017       5.687630      26.072166      5.7545
    -8      16.303017       4.649630      26.702168      7.2160
    -8      12.821016       4.074630      23.412167      5.8535
    -8      11.879017       5.300630      20.313168      7.2105
    -8      14.967016       5.182630      26.638166      5.8010
    -8      12.613016       4.247630      22.352167      5.8285
    -8      13.423017       5.009630      25.510166      5.6895
    -8      12.579017       4.458630      21.224167      5.7810
    -8       7.903017       1.063630      24.720167      7.0265
    -8      11.517016      -3.053370      22.483168      4.3445
    -8      12.238016      -3.808370      21.025167      4.6035
    -8      12.152017      -3.126370      18.429167      4.4460
    -8      10.771017      -2.113370      17.279167      4.9125

$$$$
Untitled
  RxDock  02242113263D
librxdock.so/0.1.0
 60 65  0  0  0  0  0  0  0  0999 V2000
  -54.8754   -7.0005   13.4958 C   0  0  0  0  0  0
  -54.0599   -6.6064   14.5323 C   0  0  0  0  0  0
  -54.5726   -6.4533   15.8021 C   0  0  0  0  0  0
  -55.9106   -6.6984   16.0262 C   0  0  0  0  0  0
  -56.7278   -7.0915   14.9908 C   0  0  0  0  0  0
  -56.2096   -7.2423   13.7253 C   0  0  0  0  0  0
  -53.6687   -6.0204   16.9476 C   0  0  0  0  0  0
  -52.4393   -6.9244   17.1885 C   0  0  0  0  0  0
  -52.8607   -8.3658   17.0819 N   0  3  0  0  0  0
  -51.8227   -6.6203   18.5734 C   0  0  0  0  0  0
  -52.7976   -6.8487   19.6067 O   0  0  0  0  0  0
  -51.3263   -5.1606   18.6580 C   0  0  0  0  0  0
  -49.7946   -5.0672   18.4799 C   0  0  0  0  0  0
  -49.0957   -5.8231   19.6326 C   0  0  0  0  0  0
  -48.3445   -7.0831   19.2309 C   0  0  0  0  0  0
  -47.0893   -6.9944   18.6690 C   0  0  0  0  0  0
  -46.4091   -8.1341   18.3018 C   0  0  0  0  0  0
  -46.9833   -9.3690   18.4938 C   0  0  0  0  0  0
  -48.2374   -9.4638   19.0547 C   0  0  0  0  0  0
  -48.9147   -8.3230   19.4219 C   0  0  0  0  0  0
  -49.4085   -5.6678   17.1958 N   0  0  0  0  0  0
  -49.2028   -4.6676   16.0860 P   0  0  0  0  0  0
  -47.7162   -4.0561   16.1181 O   0  0  0  0  0  0
  -50.1333   -3.3718   16.3249 O   0  0  0  0  0  0
  -49.4833   -5.2769   14.7375 O   0  0  0  0  0  0
  -47.2863   -3.3399   17.2852 C   0  0  0  0  0  0
  -50.2318   -2.3653   15.4050 C   0  0  0  0  0  0
  -49.3032   -1.3425   15.3407 C   0  0  0  0  0  0
  -49.4285   -0.3466   14.4009 C   0  0  0  0  0  0
  -50.4817   -0.3637   13.5152 C   0  0  0  0  0  0
  -51.4107   -1.3775   13.5724 C   0  0  0  0  0  0
  -51.2874   -2.3716   14.5136 C   0  0  0  0  0  0
  -45.7875   -3.0164   17.1733 C   0  0  0  0  0  0
  -45.2955   -2.3902   18.3704 O   0  0  0  0  0  0
  -44.2631   -1.4392   18.0484 C   0  0  0  0  0  0
  -44.1371   -1.4490   16.5065 C   0  0  0  0  0  0
  -45.4664   -2.0468   16.0272 C   0  0  0  0  0  0
  -46.4504   -1.0069   15.9153 O   0  0  0  0  0  0
  -43.9020   -0.1487   15.9434 O   0  0  0  0  0  0
  -44.7208   -0.1248   18.6714 C   0  0  0  0  0  0
  -43.0089   -1.8935   18.6625 C   0  0  0  0  0  0
  -42.0379   -2.2461   19.1372 N   0  0  0  0  0  0
  -45.5087   -0.1117   19.7730 N   0  0  0  0  0  0
  -45.7198    1.2032   20.0456 C   0  0  0  0  0  0
  -45.0880    1.9997   19.1455 C   0  0  0  0  0  0
  -44.4453    1.1317   18.2583 C   0  0  0  0  0  0
  -46.0579   -1.0901   20.5515 N   0  0  0  0  0  0
  -46.7942   -0.7178   21.5716 C   0  0  0  0  0  0
  -47.0715    0.5737   21.9429 N   0  0  0  0  0  0
  -46.5257    1.5219   21.1693 C   0  0  0  0  0  0
  -46.7792    2.8300   21.5085 N   0  0  0  0  0  0
  -52.4210   -8.8917   17.6793 H   0  0  0  0  0  0
  -53.7509   -8.4680   17.2436 H   0  0  0  0  0  0
  -52.7109   -8.7102   16.2551 H   0  0  0  0  0  0
  -52.7446   -7.7901   19.9562 H   0  0  0  0  0  0
  -50.0939   -6.3824   16.9184 H   0  0  0  0  0  0
  -46.4367   -0.4024   16.7199 H   0  0  0  0  0  0
  -43.7084   -0.2061   14.9581 H   0  0  0  0  0  0
  -47.2802    3.0105   22.2095 H   0  0  0  0  0  0
  -46.4428    3.4883   21.0299 H   0  0  0  0  0  0
  1  2  2  0  0  0
  2  3  1  0  0  0
  3  4  2  0  0  0
  3  7  1  0  0  0
  4  5  1  0  0  0
  5  6  2  0  0  0
  6  1  1  0  0  0
  7  8  1  0  0  0
  8  9  1  0  0  0
  8 10  1  0  0  0
 10 11  1  0  0  0
 10 12  1  0  0  0
 12 13  1  0  0  0
 13 14  1  0  0  0
 13 21  1  0  0  0
 14 15  1  0  0  0
 15 16  2  0  0  0
 16 17  1  0  0  0
 17 18  2  0  0  0
 18 19  1  0  0  0
 19 20  2  0  0  0
 20 15  1  0  0  0
 21 22  1  0  0  0
 22 23  1  0  0  0
 22 24  1  0  0  0
 22 25  2  0  0  0
 23 26  1  0  0  0
 24 27  1  0  0  0
 27 28  2  0  0  0
 28 29  1  0  0  0
 29 30  2  0  0  0
 30 31  1  0  0  0
 31 32  2  0  0  0
 32 27  1  0  0  0
 33 26  1  0  0  0
 33 34  1  0  0  0
 34 35  1  0  0  0
 35 36  1  0  0  0
 35 40  1  0  0  0
 35 41  1  0  0  0
 36 37  1  0  0  0
 36 39  1  0  0  0
 37 33  1  0  0  0
 37 38  1  0  0  0
 40 43  1  0  0  0
 41 42  3  0  0  0
 43 44  1  0  0  0
 43 47  1  0  0  0
 44 45  2  0  0  0
 45 46  1  0  0  0
 46 40  2  0  0  0
 47 48  2  0  0  0
 48 49  1  0  0  0
 49 50  2  0  0  0
 50 44  1  0  0  0
 50 51  1  0  0  0
  9 52  1  0  0  0
  9 53  1  0  0  0
  9 54  1  0  0  0
 11 55  1  0  0  0
 21 56  1  0  0  0
 38 57  1  0  0  0
 39 58  1  0  0  0
 51 59  1  0  0  0
 51 60  1  0  0  0
M  END
>  <#Atoms_cresset>
51

>  <#RB_cresset>
18

>  <BioMolTech Lead Finder LE>
-0.172

>  <BioMolTech Lead Finder Pose rank>
0

>  <BioMolTech Lead Finder Rank score>
-13.57

>  <BioMolTech Lead Finder SDF id>
0

>  <BioMolTech Lead Finder Structure Name>
/var/folders/xd/y7jw_xv579q2qqq7kks92xd80000gn/T/LeadFinder_21448_1/Ligand_1.sdf

>  <BioMolTech Lead Finder VSscore>
-13.341

>  <BioMolTech Lead Finder dG>
-8.761

>  <BioMolTech Lead Finder version>
2001 1, 19 January 2019

>  <CHROM.0>
-85.22856564,-179.22505038,82.92280704

>  <CHROM.1>
-56.57504016,-42.62175951,-143.38623841,59.27668918,91.58205578,-101.30974911
-62.90096874,112.56802204,98.21767092,79.54955754,84.71531503,-60.44978540
-173.98415955,172.35962841,-83.49363283,-175.49821070,28.33888117,172.71039611
66.13376786,-48.76493776,-3.64296704,17.43285120,2.65093036,0.55974370,2.75623114

>  <Confs_cresset>
0

>  <Favorite_cresset>
false

>  <Filename_cresset>
VTRRT-13V2.1.sdf

>  <Flexibility_cresset>
17.1

>  <LF LE>
-0.172

>  <LF Rank Score>
-13.57

>  <LF VSscore>
-13.341

>  <LF dG>
-8.761

>  <MW_cresset>
714.7

>  <Name>
Untitled

>  <Poses_cresset>
10

>  <Preferred Pose_cresset>
true

>  <Protein_cresset>
6Y2F_P

>  <RI>
-1.06272e+09

>  <Rbt.Current_Directory>
/root/miniconda3/envs/rdock/share/rxdock-2013.1.1_148c5bd1-0/data/ligands/prepped_ligands/VTRRT

>  <Rbt.Executable>
rbdock/0.1.0

>  <Rbt.Library>
librxdock.so/0.1.0

>  <Rbt.Parameter_File>
/root/miniconda3/envs/rdock/share/rxdock-2013.1.1_148c5bd1-0/data/scripts/dock.prm

>  <Rbt.Receptor>
def.prm

>  <Rof5_cresset>
3

>  <SCORE>
-23.8109

>  <SCORE.INTER>
-14.1213

>  <SCORE.INTER.CONST>
1

>  <SCORE.INTER.POLAR>
-1.4936

>  <SCORE.INTER.REPUL>
0

>  <SCORE.INTER.ROT>
15

>  <SCORE.INTER.VDW>
-29.4431

>  <SCORE.INTER.norm>
-0.276889

>  <SCORE.INTRA>
-12.0872

>  <SCORE.INTRA.DIHEDRAL>
-15.3898

>  <SCORE.INTRA.DIHEDRAL.0>
43.3056

>  <SCORE.INTRA.POLAR>
0

>  <SCORE.INTRA.POLAR.0>
0

>  <SCORE.INTRA.REPUL>
-0.941209

>  <SCORE.INTRA.REPUL.0>
1.18384

>  <SCORE.INTRA.VDW>
0.313801

>  <SCORE.INTRA.VDW.0>
-7.21879

>  <SCORE.INTRA.norm>
-0.237003

>  <SCORE.RESTR>
1.76051

>  <SCORE.RESTR.CAVITY>
1.76051

>  <SCORE.RESTR.norm>
0.0345198

>  <SCORE.SYSTEM>
0.637043

>  <SCORE.SYSTEM.CONST>
0

>  <SCORE.SYSTEM.DIHEDRAL>
2.5053

>  <SCORE.SYSTEM.POLAR>
-0.0163724

>  <SCORE.SYSTEM.VDW>
-0.559942

>  <SCORE.SYSTEM.norm>
0.012491

>  <SCORE.heavy>
51

>  <SCORE.norm>
-0.466881

>  <SlogP_cresset>
4

>  <TPSA_cresset>
225.1

>  <_cresset_fieldpoints>
    -5      16.836018       5.832630      29.221167     -3.6840
    -5      12.689775      -0.157515      20.961832    -26.5835
    -5      10.603017       0.175630      26.550167     -8.1895
    -5      16.438017       3.291630      24.075167     -2.5740
    -5      10.777017       2.958630      26.544167    -13.1420
    -5      14.325016       6.363630      19.343166     -3.9175
    -5      10.138498      -1.142644      20.673992    -19.3483
    -5       8.999017       3.081630      18.875168    -11.2330
    -5      16.643017      -2.580370      18.078167    -12.9950
    -5       9.665886      -1.797647      20.491711    -20.2282
    -5       9.721017       2.679630      21.897167    -10.3470
    -5       9.495016      -3.987370      19.277166    -12.3125
    -6       9.544017       6.999630      25.870167     13.2990
    -6      11.781016       8.517631      22.930166      7.7900
    -6      14.607017       1.112630      25.440166      7.0810
    -6      15.386017       0.918630      28.446167      2.3985
    -6      18.624016       1.298630      27.807167      2.3740
    -6      20.392017       2.874630      26.722168      2.3035
    -6      17.648016       0.730630      28.195168      2.3685
    -6      14.512016       8.724630      26.097166      6.5595
    -6       8.569016      -0.973370      14.343166     10.8755
    -6       7.728017       1.126630      14.428167      9.6685
    -6       9.165016      -5.976370      22.174168      8.4205
    -6      13.686016      -5.263370      22.254168      6.1950
    -6      13.877016       8.944631      27.096167      6.4995
    -6      12.880016      -5.307370      17.193167     12.0245
    -7      15.472016       6.118630      22.868166     -3.2390
    -7      16.618017       6.190630      29.550167     -1.8400
    -7      20.678017       4.935630      25.563168     -0.9695
    -7      14.813017       8.811630      25.026167     -2.2140
    -7      10.993016       2.287630      26.765167     -3.3000
    -7      14.052017       0.966630      26.100166     -2.8945
    -7      19.113016       1.220630      27.604168     -0.9705
    -7      16.034016       2.731630      23.912167     -3.3250
    -7      10.857017       6.577630      27.959167     -2.0560
    -7       9.494017       3.463630      21.639168     -4.2685
    -7      10.789017       9.786630      25.500168     -0.9715
    -7      14.840016       6.494630      19.649166     -1.8715
    -7       8.671017       3.594630      18.487167     -2.1885
    -7       9.509016       9.096630      19.641167     -0.9730
    -7      10.391017      -1.625370      26.086166     -2.4190
    -7       4.660017      -1.773370      25.985167     -0.9695
    -7       4.569016       2.557630      27.332167     -0.9680
    -7      14.875017      -4.579370      21.768167     -1.8885
    -7      13.267016      -5.347370      16.886168     -1.9350
    -7       6.954017      -1.202370      16.804167     -1.5235
    -7      11.071016       0.523630      14.355167     -1.5285
    -7      13.461017       0.151630      20.851168     -4.5370
    -7       9.025017      -1.430370      20.607166     -4.2605
    -8      14.386017       5.687630      26.072166      5.7545
    -8      16.303017       4.649630      26.702168      7.2160
    -8      12.821016       4.074630      23.412167      5.8535
    -8      11.879017       5.300630      20.313168      7.2105
    -8      14.967016       5.182630      26.638166      5.8010
    -8      12.613016       4.247630      22.352167      5.8285
    -8      13.423017       5.009630      25.510166      5.6895
    -8      12.579017       4.458630      21.224167      5.7810
    -8       7.903017       1.063630      24.720167      7.0265
    -8      11.517016      -3.053370      22.483168      4.3445
    -8      12.238016      -3.808370      21.025167      4.6035
    -8      12.152017      -3.126370      18.429167      4.4460
    -8      10.771017      -2.113370      17.279167      4.9125

$$$$
Untitled
  RxDock  02242113263D
librxdock.so/0.1.0
 60 65  0  0  0  0  0  0  0  0999 V2000
  -44.4991    1.0502   18.2218 C   0  0  0  0  0  0
  -44.5218    0.0044   17.3270 C   0  0  0  0  0  0
  -43.6002   -1.0152   17.4242 C   0  0  0  0  0  0
  -42.6539   -0.9795   18.4262 C   0  0  0  0  0  0
  -42.6290    0.0659   19.3211 C   0  0  0  0  0  0
  -43.5519    1.0810   19.2184 C   0  0  0  0  0  0
  -43.6288   -2.1723   16.4358 C   0  0  0  0  0  0
  -44.7014   -2.0613   15.3295 C   0  0  0  0  0  0
  -44.4480   -0.8160   14.5224 N   0  3  0  0  0  0
  -46.1126   -2.0439   15.9612 C   0  0  0  0  0  0
  -46.6748   -3.3683   15.9457 O   0  0  0  0  0  0
  -47.0547   -1.0839   15.2030 C   0  0  0  0  0  0
  -48.1523   -0.5123   16.1277 C   0  0  0  0  0  0
  -49.3564   -0.0537   15.2743 C   0  0  0  0  0  0
  -50.4631   -1.0816   15.0947 C   0  0  0  0  0  0
  -51.1487   -1.5629   16.1890 C   0  0  0  0  0  0
  -52.1487   -2.4960   16.0284 C   0  0  0  0  0  0
  -52.4663   -2.9534   14.7709 C   0  0  0  0  0  0
  -51.7845   -2.4761   13.6738 C   0  0  0  0  0  0
  -50.7861   -1.5426   13.8369 C   0  0  0  0  0  0
  -48.5894   -1.5472   17.0747 N   0  0  0  0  0  0
  -47.9544   -1.4408   18.4385 P   0  0  0  0  0  0
  -48.9722   -1.9008   19.5949 O   0  0  0  0  0  0
  -47.6688    0.1050   18.8005 O   0  0  0  0  0  0
  -46.6831   -2.2445   18.5173 O   0  0  0  0  0  0
  -50.3681   -2.0190   19.2831 C   0  0  0  0  0  0
  -46.9324    0.4743   19.8914 C   0  0  0  0  0  0
  -46.8806    1.7861   20.3264 C   0  0  0  0  0  0
  -46.1333    2.1246   21.4299 C   0  0  0  0  0  0
  -45.4318    1.1557   22.1104 C   0  0  0  0  0  0
  -45.4773   -0.1520   21.6842 C   0  0  0  0  0  0
  -46.2219   -0.4903   20.5795 C   0  0  0  0  0  0
  -51.0742   -2.8487   20.3678 C   0  0  0  0  0  0
  -50.2156   -3.8824   20.8791 O   0  0  0  0  0  0
  -50.9885   -5.0460   21.2292 C   0  0  0  0  0  0
  -52.4537   -4.7142   20.8594 C   0  0  0  0  0  0
  -52.3332   -3.5615   19.8542 C   0  0  0  0  0  0
  -52.1458   -4.0915   18.5327 O   0  0  0  0  0  0
  -53.1716   -5.8301   20.3093 O   0  0  0  0  0  0
  -50.3510   -6.1972   20.4590 C   0  0  0  0  0  0
  -50.8676   -5.2624   22.6767 C   0  0  0  0  0  0
  -50.7744   -5.4290   23.7974 N   0  0  0  0  0  0
  -49.7085   -5.9812   19.2863 N   0  0  0  0  0  0
  -49.2760   -7.2058   18.8850 C   0  0  0  0  0  0
  -49.6336   -8.1689   19.7728 C   0  0  0  0  0  0
  -50.3309   -7.5075   20.7877 C   0  0  0  0  0  0
  -49.4623   -4.8661   18.5372 N   0  0  0  0  0  0
  -48.7932   -5.0171   17.4188 C   0  0  0  0  0  0
  -48.3066   -6.1983   16.9182 N   0  0  0  0  0  0
  -48.5564   -7.2829   17.6644 C   0  0  0  0  0  0
  -48.0844   -8.4869   17.1975 N   0  0  0  0  0  0
  -44.9830   -0.7740   13.7884 H   0  0  0  0  0  0
  -44.6059   -0.0628   15.0090 H   0  0  0  0  0  0
  -43.5884   -0.7582   14.2355 H   0  0  0  0  0  0
  -46.4921   -3.8316   15.0721 H   0  0  0  0  0  0
  -48.4358   -2.4817   16.6743 H   0  0  0  0  0  0
  -51.2838   -4.6063   18.4641 H   0  0  0  0  0  0
  -52.7386   -6.1634   19.4649 H   0  0  0  0  0  0
  -47.6387   -8.5171   16.4390 H   0  0  0  0  0  0
  -48.2242   -9.2277   17.6527 H   0  0  0  0  0  0
  1  2  2  0  0  0
  2  3  1  0  0  0
  3  4  2  0  0  0
  3  7  1  0  0  0
  4  5  1  0  0  0
  5  6  2  0  0  0
  6  1  1  0  0  0
  7  8  1  0  0  0
  8  9  1  0  0  0
  8 10  1  0  0  0
 10 11  1  0  0  0
 10 12  1  0  0  0
 12 13  1  0  0  0
 13 14  1  0  0  0
 13 21  1  0  0  0
 14 15  1  0  0  0
 15 16  2  0  0  0
 16 17  1  0  0  0
 17 18  2  0  0  0
 18 19  1  0  0  0
 19 20  2  0  0  0
 20 15  1  0  0  0
 21 22  1  0  0  0
 22 23  1  0  0  0
 22 24  1  0  0  0
 22 25  2  0  0  0
 23 26  1  0  0  0
 24 27  1  0  0  0
 27 28  2  0  0  0
 28 29  1  0  0  0
 29 30  2  0  0  0
 30 31  1  0  0  0
 31 32  2  0  0  0
 32 27  1  0  0  0
 33 26  1  0  0  0
 33 34  1  0  0  0
 34 35  1  0  0  0
 35 36  1  0  0  0
 35 40  1  0  0  0
 35 41  1  0  0  0
 36 37  1  0  0  0
 36 39  1  0  0  0
 37 33  1  0  0  0
 37 38  1  0  0  0
 40 43  1  0  0  0
 41 42  3  0  0  0
 43 44  1  0  0  0
 43 47  1  0  0  0
 44 45  2  0  0  0
 45 46  1  0  0  0
 46 40  2  0  0  0
 47 48  2  0  0  0
 48 49  1  0  0  0
 49 50  2  0  0  0
 50 44  1  0  0  0
 50 51  1  0  0  0
  9 52  1  0  0  0
  9 53  1  0  0  0
  9 54  1  0  0  0
 11 55  1  0  0  0
 21 56  1  0  0  0
 38 57  1  0  0  0
 39 58  1  0  0  0
 51 59  1  0  0  0
 51 60  1  0  0  0
M  END
>  <#Atoms_cresset>
51

>  <#RB_cresset>
18

>  <BioMolTech Lead Finder LE>
-0.172

>  <BioMolTech Lead Finder Pose rank>
0

>  <BioMolTech Lead Finder Rank score>
-13.57

>  <BioMolTech Lead Finder SDF id>
0

>  <BioMolTech Lead Finder Structure Name>
/var/folders/xd/y7jw_xv579q2qqq7kks92xd80000gn/T/LeadFinder_21448_1/Ligand_1.sdf

>  <BioMolTech Lead Finder VSscore>
-13.341

>  <BioMolTech Lead Finder dG>
-8.761

>  <BioMolTech Lead Finder version>
2001 1, 19 January 2019

>  <CHROM.0>
-174.03944995,-59.34705711,-63.27865628

>  <CHROM.1>
2.51369059,60.46566025,171.82655838,-96.24303651,-42.10224734,-151.79191300
-157.24626140,93.54461297,98.76104091,61.46892517,146.00136228,-15.09851775
-170.68010315,163.32535809,-168.73680445,-34.51767403,-28.11339409,-60.32651438
48.11591006,-48.32095421,-2.65616742,18.35264124,-0.26787321,0.71991362,1.71108965

>  <Confs_cresset>
0

>  <Favorite_cresset>
false

>  <Filename_cresset>
VTRRT-13V2.1.sdf

>  <Flexibility_cresset>
17.1

>  <LF LE>
-0.172

>  <LF Rank Score>
-13.57

>  <LF VSscore>
-13.341

>  <LF dG>
-8.761

>  <MW_cresset>
714.7

>  <Name>
Untitled

>  <Poses_cresset>
10

>  <Preferred Pose_cresset>
true

>  <Protein_cresset>
6Y2F_P

>  <RI>
-1.06272e+09

>  <Rbt.Current_Directory>
/root/miniconda3/envs/rdock/share/rxdock-2013.1.1_148c5bd1-0/data/ligands/prepped_ligands/VTRRT

>  <Rbt.Executable>
rbdock/0.1.0

>  <Rbt.Library>
librxdock.so/0.1.0

>  <Rbt.Parameter_File>
/root/miniconda3/envs/rdock/share/rxdock-2013.1.1_148c5bd1-0/data/scripts/dock.prm

>  <Rbt.Receptor>
def.prm

>  <Rof5_cresset>
3

>  <SCORE>
-31.1562

>  <SCORE.INTER>
-12.7429

>  <SCORE.INTER.CONST>
1

>  <SCORE.INTER.POLAR>
-1.87643

>  <SCORE.INTER.REPUL>
0.0387176

>  <SCORE.INTER.ROT>
15

>  <SCORE.INTER.VDW>
-26.9566

>  <SCORE.INTER.norm>
-0.249861

>  <SCORE.INTRA>
-19.9432

>  <SCORE.INTRA.DIHEDRAL>
-19.0524

>  <SCORE.INTRA.DIHEDRAL.0>
43.3056

>  <SCORE.INTRA.POLAR>
-1.36839

>  <SCORE.INTRA.POLAR.0>
0

>  <SCORE.INTRA.REPUL>
-1.18384

>  <SCORE.INTRA.REPUL.0>
1.18384

>  <SCORE.INTRA.VDW>
0.154768

>  <SCORE.INTRA.VDW.0>
-7.21879

>  <SCORE.INTRA.norm>
-0.391042

>  <SCORE.RESTR>
2.52269

>  <SCORE.RESTR.CAVITY>
2.52269

>  <SCORE.RESTR.norm>
0.0494644

>  <SCORE.SYSTEM>
-0.992792

>  <SCORE.SYSTEM.CONST>
0

>  <SCORE.SYSTEM.DIHEDRAL>
0.114037

>  <SCORE.SYSTEM.VDW>
-1.04981

>  <SCORE.SYSTEM.norm>
-0.0194665

>  <SCORE.heavy>
51

>  <SCORE.norm>
-0.610905

>  <SlogP_cresset>
4

>  <TPSA_cresset>
225.1

>  <_cresset_fieldpoints>
    -5      16.836018       5.832630      29.221167     -3.6840
    -5      12.689775      -0.157515      20.961832    -26.5835
    -5      10.603017       0.175630      26.550167     -8.1895
    -5      16.438017       3.291630      24.075167     -2.5740
    -5      10.777017       2.958630      26.544167    -13.1420
    -5      14.325016       6.363630      19.343166     -3.9175
    -5      10.138498      -1.142644      20.673992    -19.3483
    -5       8.999017       3.081630      18.875168    -11.2330
    -5      16.643017      -2.580370      18.078167    -12.9950
    -5       9.665886      -1.797647      20.491711    -20.2282
    -5       9.721017       2.679630      21.897167    -10.3470
    -5       9.495016      -3.987370      19.277166    -12.3125
    -6       9.544017       6.999630      25.870167     13.2990
    -6      11.781016       8.517631      22.930166      7.7900
    -6      14.607017       1.112630      25.440166      7.0810
    -6      15.386017       0.918630      28.446167      2.3985
    -6      18.624016       1.298630      27.807167      2.3740
    -6      20.392017       2.874630      26.722168      2.3035
    -6      17.648016       0.730630      28.195168      2.3685
    -6      14.512016       8.724630      26.097166      6.5595
    -6       8.569016      -0.973370      14.343166     10.8755
    -6       7.728017       1.126630      14.428167      9.6685
    -6       9.165016      -5.976370      22.174168      8.4205
    -6      13.686016      -5.263370      22.254168      6.1950
    -6      13.877016       8.944631      27.096167      6.4995
    -6      12.880016      -5.307370      17.193167     12.0245
    -7      15.472016       6.118630      22.868166     -3.2390
    -7      16.618017       6.190630      29.550167     -1.8400
    -7      20.678017       4.935630      25.563168     -0.9695
    -7      14.813017       8.811630      25.026167     -2.2140
    -7      10.993016       2.287630      26.765167     -3.3000
    -7      14.052017       0.966630      26.100166     -2.8945
    -7      19.113016       1.220630      27.604168     -0.9705
    -7      16.034016       2.731630      23.912167     -3.3250
    -7      10.857017       6.577630      27.959167     -2.0560
    -7       9.494017       3.463630      21.639168     -4.2685
    -7      10.789017       9.786630      25.500168     -0.9715
    -7      14.840016       6.494630      19.649166     -1.8715
    -7       8.671017       3.594630      18.487167     -2.1885
    -7       9.509016       9.096630      19.641167     -0.9730
    -7      10.391017      -1.625370      26.086166     -2.4190
    -7       4.660017      -1.773370      25.985167     -0.9695
    -7       4.569016       2.557630      27.332167     -0.9680
    -7      14.875017      -4.579370      21.768167     -1.8885
    -7      13.267016      -5.347370      16.886168     -1.9350
    -7       6.954017      -1.202370      16.804167     -1.5235
    -7      11.071016       0.523630      14.355167     -1.5285
    -7      13.461017       0.151630      20.851168     -4.5370
    -7       9.025017      -1.430370      20.607166     -4.2605
    -8      14.386017       5.687630      26.072166      5.7545
    -8      16.303017       4.649630      26.702168      7.2160
    -8      12.821016       4.074630      23.412167      5.8535
    -8      11.879017       5.300630      20.313168      7.2105
    -8      14.967016       5.182630      26.638166      5.8010
    -8      12.613016       4.247630      22.352167      5.8285
    -8      13.423017       5.009630      25.510166      5.6895
    -8      12.579017       4.458630      21.224167      5.7810
    -8       7.903017       1.063630      24.720167      7.0265
    -8      11.517016      -3.053370      22.483168      4.3445
    -8      12.238016      -3.808370      21.025167      4.6035
    -8      12.152017      -3.126370      18.429167      4.4460
    -8      10.771017      -2.113370      17.279167      4.9125

$$$$
Untitled
  RxDock  02242113263D
librxdock.so/0.1.0
 60 65  0  0  0  0  0  0  0  0999 V2000
  -49.9675   -2.5294   12.9244 C   0  0  0  0  0  0
  -48.6563   -2.3328   13.2946 C   0  0  0  0  0  0
  -48.2982   -1.2200   14.0240 C   0  0  0  0  0  0
  -49.2649   -0.3041   14.3805 C   0  0  0  0  0  0
  -50.5763   -0.4985   14.0104 C   0  0  0  0  0  0
  -50.9272   -1.6116   13.2819 C   0  0  0  0  0  0
  -46.8485   -1.0057   14.4350 C   0  0  0  0  0  0
  -46.5942   -1.0022   15.9588 C   0  0  0  0  0  0
  -45.3631   -0.1859   16.2497 N   0  3  0  0  0  0
  -46.4410   -2.4525   16.4725 C   0  0  0  0  0  0
  -45.2958   -3.0726   15.8610 O   0  0  0  0  0  0
  -47.6988   -3.2929   16.1628 C   0  0  0  0  0  0
  -48.7735   -3.1385   17.2618 C   0  0  0  0  0  0
  -49.6918   -1.9437   16.9190 C   0  0  0  0  0  0
  -49.4992   -0.7011   17.7749 C   0  0  0  0  0  0
  -48.4997    0.1997   17.4769 C   0  0  0  0  0  0
  -48.3220    1.3235   18.2528 C   0  0  0  0  0  0
  -49.1433    1.5503   19.3324 C   0  0  0  0  0  0
  -50.1436    0.6534   19.6349 C   0  0  0  0  0  0
  -50.3198   -0.4686   18.8571 C   0  0  0  0  0  0
  -49.5772   -4.3658   17.3434 N   0  0  0  0  0  0
  -50.5286   -4.5560   16.1887 P   0  0  0  0  0  0
  -51.6571   -3.4111   16.1662 O   0  0  0  0  0  0
  -51.3864   -5.9070   16.3911 O   0  0  0  0  0  0
  -49.7967   -4.5881   14.8728 O   0  0  0  0  0  0
  -52.6597   -3.4057   17.1930 C   0  0  0  0  0  0
  -52.6802   -6.0200   15.9642 C   0  0  0  0  0  0
  -53.1437   -5.3392   14.8531 C   0  0  0  0  0  0
  -54.4502   -5.4772   14.4471 C   0  0  0  0  0  0
  -55.3057   -6.2979   15.1459 C   0  0  0  0  0  0
  -54.8530   -6.9788   16.2529 C   0  0  0  0  0  0
  -53.5479   -6.8389   16.6608 C   0  0  0  0  0  0
  -52.0927   -2.7632   18.4693 C   0  0  0  0  0  0
  -51.2042   -3.6599   19.1577 O   0  0  0  0  0  0
  -51.2982   -3.4613   20.5809 C   0  0  0  0  0  0
  -52.3755   -2.3710   20.7913 C   0  0  0  0  0  0
  -53.1799   -2.3841   19.4849 C   0  0  0  0  0  0
  -54.2099   -3.3817   19.5626 O   0  0  0  0  0  0
  -53.2111   -2.6058   21.9357 O   0  0  0  0  0  0
  -51.6198   -4.8360   21.1570 C   0  0  0  0  0  0
  -49.9961   -2.9881   21.0681 C   0  0  0  0  0  0
  -48.9882   -2.6209   21.4446 N   0  0  0  0  0  0
  -51.2550   -5.9675   20.5079 N   0  0  0  0  0  0
  -51.6967   -6.9869   21.2911 C   0  0  0  0  0  0
  -52.3233   -6.5185   22.4009 C   0  0  0  0  0  0
  -52.2707   -5.1251   22.3051 C   0  0  0  0  0  0
  -50.5991   -6.2124   19.3353 N   0  0  0  0  0  0
  -50.4086   -7.4642   18.9919 C   0  0  0  0  0  0
  -50.8054   -8.5691   19.7020 N   0  0  0  0  0  0
  -51.4476   -8.3123   20.8497 C   0  0  0  0  0  0
  -51.8613   -9.3935   21.5917 N   0  0  0  0  0  0
  -45.2646   -0.0279   17.1397 H   0  0  0  0  0  0
  -44.6065   -0.6084   15.9702 H   0  0  0  0  0  0
  -45.3745    0.6196   15.8305 H   0  0  0  0  0  0
  -44.4400   -2.6505   16.1781 H   0  0  0  0  0  0
  -50.0812   -4.4005   18.2390 H   0  0  0  0  0  0
  -53.8330   -4.2764   19.8279 H   0  0  0  0  0  0
  -53.8669   -1.8551   22.0702 H   0  0  0  0  0  0
  -51.6976  -10.2092   21.3041 H   0  0  0  0  0  0
  -52.2879   -9.2751   22.3529 H   0  0  0  0  0  0
  1  2  2  0  0  0
  2  3  1  0  0  0
  3  4  2  0  0  0
  3  7  1  0  0  0
  4  5  1  0  0  0
  5  6  2  0  0  0
  6  1  1  0  0  0
  7  8  1  0  0  0
  8  9  1  0  0  0
  8 10  1  0  0  0
 10 11  1  0  0  0
 10 12  1  0  0  0
 12 13  1  0  0  0
 13 14  1  0  0  0
 13 21  1  0  0  0
 14 15  1  0  0  0
 15 16  2  0  0  0
 16 17  1  0  0  0
 17 18  2  0  0  0
 18 19  1  0  0  0
 19 20  2  0  0  0
 20 15  1  0  0  0
 21 22  1  0  0  0
 22 23  1  0  0  0
 22 24  1  0  0  0
 22 25  2  0  0  0
 23 26  1  0  0  0
 24 27  1  0  0  0
 27 28  2  0  0  0
 28 29  1  0  0  0
 29 30  2  0  0  0
 30 31  1  0  0  0
 31 32  2  0  0  0
 32 27  1  0  0  0
 33 26  1  0  0  0
 33 34  1  0  0  0
 34 35  1  0  0  0
 35 36  1  0  0  0
 35 40  1  0  0  0
 35 41  1  0  0  0
 36 37  1  0  0  0
 36 39  1  0  0  0
 37 33  1  0  0  0
 37 38  1  0  0  0
 40 43  1  0  0  0
 41 42  3  0  0  0
 43 44  1  0  0  0
 43 47  1  0  0  0
 44 45  2  0  0  0
 45 46  1  0  0  0
 46 40  2  0  0  0
 47 48  2  0  0  0
 48 49  1  0  0  0
 49 50  2  0  0  0
 50 44  1  0  0  0
 50 51  1  0  0  0
  9 52  1  0  0  0
  9 53  1  0  0  0
  9 54  1  0  0  0
 11 55  1  0  0  0
 21 56  1  0  0  0
 38 57  1  0  0  0
 39 58  1  0  0  0
 51 59  1  0  0  0
 51 60  1  0  0  0
M  END
>  <#Atoms_cresset>
51

>  <#RB_cresset>
18

>  <BioMolTech Lead Finder LE>
-0.172

>  <BioMolTech Lead Finder Pose rank>
0

>  <BioMolTech Lead Finder Rank score>
-13.57

>  <BioMolTech Lead Finder SDF id>
0

>  <BioMolTech Lead Finder Structure Name>
/var/folders/xd/y7jw_xv579q2qqq7kks92xd80000gn/T/LeadFinder_21448_1/Ligand_1.sdf

>  <BioMolTech Lead Finder VSscore>
-13.341

>  <BioMolTech Lead Finder dG>
-8.761

>  <BioMolTech Lead Finder version>
2001 1, 19 January 2019

>  <CHROM.0>
-177.75529339,-175.52552156,67.80244633

>  <CHROM.1>
-116.84251073,-153.93045029,169.33889861,62.62773697,67.96489397,-85.99508158
88.99878172,-107.10311180,-72.69891206,82.98435908,-64.95707181,-69.68530636
146.55689452,80.49491992,30.99155097,-75.81696917,26.22580213,177.01702883
58.99032052,-50.57387433,-3.58206725,17.70442490,0.49974910,-0.90211526,-1.64197525

>  <Confs_cresset>
0

>  <Favorite_cresset>
false

>  <Filename_cresset>
VTRRT-13V2.1.sdf

>  <Flexibility_cresset>
17.1

>  <LF LE>
-0.172

>  <LF Rank Score>
-13.57

>  <LF VSscore>
-13.341

>  <LF dG>
-8.761

>  <MW_cresset>
714.7

>  <Name>
Untitled

>  <Poses_cresset>
10

>  <Preferred Pose_cresset>
true

>  <Protein_cresset>
6Y2F_P

>  <RI>
-1.06272e+09

>  <Rbt.Current_Directory>
/root/miniconda3/envs/rdock/share/rxdock-2013.1.1_148c5bd1-0/data/ligands/prepped_ligands/VTRRT

>  <Rbt.Executable>
rbdock/0.1.0

>  <Rbt.Library>
librxdock.so/0.1.0

>  <Rbt.Parameter_File>
/root/miniconda3/envs/rdock/share/rxdock-2013.1.1_148c5bd1-0/data/scripts/dock.prm

>  <Rbt.Receptor>
def.prm

>  <Rof5_cresset>
3

>  <SCORE>
-26.7637

>  <SCORE.INTER>
-11.8784

>  <SCORE.INTER.CONST>
1

>  <SCORE.INTER.POLAR>
-1.13511

>  <SCORE.INTER.REPUL>
0

>  <SCORE.INTER.ROT>
15

>  <SCORE.INTER.VDW>
-28.419

>  <SCORE.INTER.norm>
-0.232909

>  <SCORE.INTRA>
-16.6074

>  <SCORE.INTRA.DIHEDRAL>
-22.2049

>  <SCORE.INTRA.DIHEDRAL.0>
43.3056

>  <SCORE.INTRA.POLAR>
-1.34848

>  <SCORE.INTRA.POLAR.0>
0

>  <SCORE.INTRA.REPUL>
-0.8708

>  <SCORE.INTRA.REPUL.0>
1.18384

>  <SCORE.INTRA.VDW>
3.43387

>  <SCORE.INTRA.VDW.0>
-7.21879

>  <SCORE.INTRA.norm>
-0.325636

>  <SCORE.RESTR>
2.63505

>  <SCORE.RESTR.CAVITY>
2.63505

>  <SCORE.RESTR.norm>
0.0516676

>  <SCORE.SYSTEM>
-0.912909

>  <SCORE.SYSTEM.CONST>
0

>  <SCORE.SYSTEM.DIHEDRAL>
0.251248

>  <SCORE.SYSTEM.POLAR>
-0.0146889

>  <SCORE.SYSTEM.VDW>
-0.988591

>  <SCORE.SYSTEM.norm>
-0.0179002

>  <SCORE.heavy>
51

>  <SCORE.norm>
-0.524778

>  <SlogP_cresset>
4

>  <TPSA_cresset>
225.1

>  <_cresset_fieldpoints>
    -5      16.836018       5.832630      29.221167     -3.6840
    -5      12.689775      -0.157515      20.961832    -26.5835
    -5      10.603017       0.175630      26.550167     -8.1895
    -5      16.438017       3.291630      24.075167     -2.5740
    -5      10.777017       2.958630      26.544167    -13.1420
    -5      14.325016       6.363630      19.343166     -3.9175
    -5      10.138498      -1.142644      20.673992    -19.3483
    -5       8.999017       3.081630      18.875168    -11.2330
    -5      16.643017      -2.580370      18.078167    -12.9950
    -5       9.665886      -1.797647      20.491711    -20.2282
    -5       9.721017       2.679630      21.897167    -10.3470
    -5       9.495016      -3.987370      19.277166    -12.3125
    -6       9.544017       6.999630      25.870167     13.2990
    -6      11.781016       8.517631      22.930166      7.7900
    -6      14.607017       1.112630      25.440166      7.0810
    -6      15.386017       0.918630      28.446167      2.3985
    -6      18.624016       1.298630      27.807167      2.3740
    -6      20.392017       2.874630      26.722168      2.3035
    -6      17.648016       0.730630      28.195168      2.3685
    -6      14.512016       8.724630      26.097166      6.5595
    -6       8.569016      -0.973370      14.343166     10.8755
    -6       7.728017       1.126630      14.428167      9.6685
    -6       9.165016      -5.976370      22.174168      8.4205
    -6      13.686016      -5.263370      22.254168      6.1950
    -6      13.877016       8.944631      27.096167      6.4995
    -6      12.880016      -5.307370      17.193167     12.0245
    -7      15.472016       6.118630      22.868166     -3.2390
    -7      16.618017       6.190630      29.550167     -1.8400
    -7      20.678017       4.935630      25.563168     -0.9695
    -7      14.813017       8.811630      25.026167     -2.2140
    -7      10.993016       2.287630      26.765167     -3.3000
    -7      14.052017       0.966630      26.100166     -2.8945
    -7      19.113016       1.220630      27.604168     -0.9705
    -7      16.034016       2.731630      23.912167     -3.3250
    -7      10.857017       6.577630      27.959167     -2.0560
    -7       9.494017       3.463630      21.639168     -4.2685
    -7      10.789017       9.786630      25.500168     -0.9715
    -7      14.840016       6.494630      19.649166     -1.8715
    -7       8.671017       3.594630      18.487167     -2.1885
    -7       9.509016       9.096630      19.641167     -0.9730
    -7      10.391017      -1.625370      26.086166     -2.4190
    -7       4.660017      -1.773370      25.985167     -0.9695
    -7       4.569016       2.557630      27.332167     -0.9680
    -7      14.875017      -4.579370      21.768167     -1.8885
    -7      13.267016      -5.347370      16.886168     -1.9350
    -7       6.954017      -1.202370      16.804167     -1.5235
    -7      11.071016       0.523630      14.355167     -1.5285
    -7      13.461017       0.151630      20.851168     -4.5370
    -7       9.025017      -1.430370      20.607166     -4.2605
    -8      14.386017       5.687630      26.072166      5.7545
    -8      16.303017       4.649630      26.702168      7.2160
    -8      12.821016       4.074630      23.412167      5.8535
    -8      11.879017       5.300630      20.313168      7.2105
    -8      14.967016       5.182630      26.638166      5.8010
    -8      12.613016       4.247630      22.352167      5.8285
    -8      13.423017       5.009630      25.510166      5.6895
    -8      12.579017       4.458630      21.224167      5.7810
    -8       7.903017       1.063630      24.720167      7.0265
    -8      11.517016      -3.053370      22.483168      4.3445
    -8      12.238016      -3.808370      21.025167      4.6035
    -8      12.152017      -3.126370      18.429167      4.4460
    -8      10.771017      -2.113370      17.279167      4.9125

$$$$
Untitled
  RxDock  02242113273D
librxdock.so/0.1.0
 60 65  0  0  0  0  0  0  0  0999 V2000
  -55.3233   -8.5255   15.4255 C   0  0  0  0  0  0
  -54.3411   -7.7695   16.0244 C   0  0  0  0  0  0
  -53.9870   -6.5458   15.4992 C   0  0  0  0  0  0
  -54.6252   -6.0842   14.3677 C   0  0  0  0  0  0
  -55.6068   -6.8392   13.7670 C   0  0  0  0  0  0
  -55.9554   -8.0603   14.2963 C   0  0  0  0  0  0
  -52.9029   -5.7099   16.1644 C   0  0  0  0  0  0
  -51.4976   -6.3515   16.1772 C   0  0  0  0  0  0
  -51.4760   -7.4675   17.1873 N   0  3  0  0  0  0
  -50.4304   -5.2803   16.5006 C   0  0  0  0  0  0
  -49.1661   -5.6564   15.9259 O   0  0  0  0  0  0
  -50.2612   -5.0994   18.0247 C   0  0  0  0  0  0
  -49.4546   -3.8259   18.3625 C   0  0  0  0  0  0
  -49.6132   -3.5000   19.8648 C   0  0  0  0  0  0
  -51.0172   -3.6620   20.4270 C   0  0  0  0  0  0
  -52.0863   -3.0442   19.8151 C   0  0  0  0  0  0
  -53.3576   -3.1873   20.3247 C   0  0  0  0  0  0
  -53.5648   -3.9488   21.4511 C   0  0  0  0  0  0
  -52.5003   -4.5683   22.0668 C   0  0  0  0  0  0
  -51.2306   -4.4246   21.5548 C   0  0  0  0  0  0
  -48.0343   -4.0443   18.0563 N   0  0  0  0  0  0
  -47.4139   -2.9613   17.2098 P   0  0  0  0  0  0
  -46.2301   -2.2101   17.9968 O   0  0  0  0  0  0
  -48.4809   -1.7805   16.9467 O   0  0  0  0  0  0
  -46.9015   -3.5097   15.9041 O   0  0  0  0  0  0
  -44.9170   -2.1892   17.4179 C   0  0  0  0  0  0
  -48.5909   -1.1534   15.7370 C   0  0  0  0  0  0
  -47.4853   -0.8887   14.9494 C   0  0  0  0  0  0
  -47.6300   -0.2596   13.7353 C   0  0  0  0  0  0
  -48.8806    0.1096   13.2955 C   0  0  0  0  0  0
  -49.9862   -0.1495   14.0729 C   0  0  0  0  0  0
  -49.8417   -0.7758   15.2879 C   0  0  0  0  0  0
  -43.8801   -1.8318   18.4952 C   0  0  0  0  0  0
  -44.5146   -1.4534   19.7287 O   0  0  0  0  0  0
  -43.7374   -0.4446   20.4012 C   0  0  0  0  0  0
  -42.5348   -0.1426   19.4760 C   0  0  0  0  0  0
  -42.9868   -0.6476   18.0995 C   0  0  0  0  0  0
  -43.7299    0.3817   17.4283 O   0  0  0  0  0  0
  -42.1733    1.2472   19.4430 O   0  0  0  0  0  0
  -44.7021    0.7120   20.6394 C   0  0  0  0  0  0
  -43.2682   -0.9980   21.6780 C   0  0  0  0  0  0
  -42.9044   -1.4272   22.6659 N   0  0  0  0  0  0
  -45.6598    1.0200   19.7325 N   0  0  0  0  0  0
  -46.3210    2.0847   20.2587 C   0  0  0  0  0  0
  -45.7994    2.4427   21.4601 C   0  0  0  0  0  0
  -44.7505    1.5500   21.6981 C   0  0  0  0  0  0
  -46.0166    0.4962   18.5227 N   0  0  0  0  0  0
  -47.0197    1.0542   17.8874 C   0  0  0  0  0  0
  -47.7591    2.1254   18.3214 N   0  0  0  0  0  0
  -47.3967    2.6280   19.5095 C   0  0  0  0  0  0
  -48.1140    3.7023   19.9805 N   0  0  0  0  0  0
  -50.6281   -7.7360   17.3766 H   0  0  0  0  0  0
  -51.8562   -7.2146   17.9751 H   0  0  0  0  0  0
  -51.9357   -8.1984   16.9058 H   0  0  0  0  0  0
  -48.5651   -4.8582   15.8131 H   0  0  0  0  0  0
  -47.9035   -4.9662   17.6201 H   0  0  0  0  0  0
  -44.4423    0.7670   18.0256 H   0  0  0  0  0  0
  -41.4265    1.4157   18.7907 H   0  0  0  0  0  0
  -48.7793    4.0264   19.5038 H   0  0  0  0  0  0
  -47.9129    4.0675   20.7562 H   0  0  0  0  0  0
  1  2  2  0  0  0
  2  3  1  0  0  0
  3  4  2  0  0  0
  3  7  1  0  0  0
  4  5  1  0  0  0
  5  6  2  0  0  0
  6  1  1  0  0  0
  7  8  1  0  0  0
  8  9  1  0  0  0
  8 10  1  0  0  0
 10 11  1  0  0  0
 10 12  1  0  0  0
 12 13  1  0  0  0
 13 14  1  0  0  0
 13 21  1  0  0  0
 14 15  1  0  0  0
 15 16  2  0  0  0
 16 17  1  0  0  0
 17 18  2  0  0  0
 18 19  1  0  0  0
 19 20  2  0  0  0
 20 15  1  0  0  0
 21 22  1  0  0  0
 22 23  1  0  0  0
 22 24  1  0  0  0
 22 25  2  0  0  0
 23 26  1  0  0  0
 24 27  1  0  0  0
 27 28  2  0  0  0
 28 29  1  0  0  0
 29 30  2  0  0  0
 30 31  1  0  0  0
 31 32  2  0  0  0
 32 27  1  0  0  0
 33 26  1  0  0  0
 33 34  1  0  0  0
 34 35  1  0  0  0
 35 36  1  0  0  0
 35 40  1  0  0  0
 35 41  1  0  0  0
 36 37  1  0  0  0
 36 39  1  0  0  0
 37 33  1  0  0  0
 37 38  1  0  0  0
 40 43  1  0  0  0
 41 42  3  0  0  0
 43 44  1  0  0  0
 43 47  1  0  0  0
 44 45  2  0  0  0
 45 46  1  0  0  0
 46 40  2  0  0  0
 47 48  2  0  0  0
 48 49  1  0  0  0
 49 50  2  0  0  0
 50 44  1  0  0  0
 50 51  1  0  0  0
  9 52  1  0  0  0
  9 53  1  0  0  0
  9 54  1  0  0  0
 11 55  1  0  0  0
 21 56  1  0  0  0
 38 57  1  0  0  0
 39 58  1  0  0  0
 51 59  1  0  0  0
 51 60  1  0  0  0
M  END
>  <#Atoms_cresset>
51

>  <#RB_cresset>
18

>  <BioMolTech Lead Finder LE>
-0.172

>  <BioMolTech Lead Finder Pose rank>
0

>  <BioMolTech Lead Finder Rank score>
-13.57

>  <BioMolTech Lead Finder SDF id>
0

>  <BioMolTech Lead Finder Structure Name>
/var/folders/xd/y7jw_xv579q2qqq7kks92xd80000gn/T/LeadFinder_21448_1/Ligand_1.sdf

>  <BioMolTech Lead Finder VSscore>
-13.341

>  <BioMolTech Lead Finder dG>
-8.761

>  <BioMolTech Lead Finder version>
2001 1, 19 January 2019

>  <CHROM.0>
41.77884153,178.64299262,164.70977877

>  <CHROM.1>
63.28337383,-73.58401854,-165.94181373,-153.11916859,158.53219659,-166.81952347
165.94052013,-41.95783896,129.49217482,-52.42265316,117.44189821,122.45030981
-140.08530846,-162.28390474,-36.58322616,-7.35881400,-35.83420927,-176.52280053
62.08802115,-48.44336661,-2.30979278,17.98991791,2.85245741,-0.65940586,-1.57587496

>  <Confs_cresset>
0

>  <Favorite_cresset>
false

>  <Filename_cresset>
VTRRT-13V2.1.sdf

>  <Flexibility_cresset>
17.1

>  <LF LE>
-0.172

>  <LF Rank Score>
-13.57

>  <LF VSscore>
-13.341

>  <LF dG>
-8.761

>  <MW_cresset>
714.7

>  <Name>
Untitled

>  <Poses_cresset>
10

>  <Preferred Pose_cresset>
true

>  <Protein_cresset>
6Y2F_P

>  <RI>
-1.06272e+09

>  <Rbt.Current_Directory>
/root/miniconda3/envs/rdock/share/rxdock-2013.1.1_148c5bd1-0/data/ligands/prepped_ligands/VTRRT

>  <Rbt.Executable>
rbdock/0.1.0

>  <Rbt.Library>
librxdock.so/0.1.0

>  <Rbt.Parameter_File>
/root/miniconda3/envs/rdock/share/rxdock-2013.1.1_148c5bd1-0/data/scripts/dock.prm

>  <Rbt.Receptor>
def.prm

>  <Rof5_cresset>
3

>  <SCORE>
-30.8267

>  <SCORE.INTER>
-18.6087

>  <SCORE.INTER.CONST>
1

>  <SCORE.INTER.POLAR>
-1.08311

>  <SCORE.INTER.REPUL>
0.0679082

>  <SCORE.INTER.ROT>
15

>  <SCORE.INTER.VDW>
-35.6657

>  <SCORE.INTER.norm>
-0.364877

>  <SCORE.INTRA>
-13.6774

>  <SCORE.INTRA.DIHEDRAL>
-15.7606

>  <SCORE.INTRA.DIHEDRAL.0>
43.3056

>  <SCORE.INTRA.POLAR>
-0.93572

>  <SCORE.INTRA.POLAR.0>
0

>  <SCORE.INTRA.REPUL>
-0.962536

>  <SCORE.INTRA.REPUL.0>
1.18384

>  <SCORE.INTRA.VDW>
2.197

>  <SCORE.INTRA.VDW.0>
-7.21879

>  <SCORE.INTRA.norm>
-0.268185

>  <SCORE.RESTR>
1.74685

>  <SCORE.RESTR.CAVITY>
1.74685

>  <SCORE.RESTR.norm>
0.0342519

>  <SCORE.SYSTEM>
-0.287395

>  <SCORE.SYSTEM.CONST>
0

>  <SCORE.SYSTEM.DIHEDRAL>
1.33752

>  <SCORE.SYSTEM.VDW>
-0.956158

>  <SCORE.SYSTEM.norm>
-0.0056352

>  <SCORE.heavy>
51

>  <SCORE.norm>
-0.604446

>  <SlogP_cresset>
4

>  <TPSA_cresset>
225.1

>  <_cresset_fieldpoints>
    -5      16.836018       5.832630      29.221167     -3.6840
    -5      12.689775      -0.157515      20.961832    -26.5835
    -5      10.603017       0.175630      26.550167     -8.1895
    -5      16.438017       3.291630      24.075167     -2.5740
    -5      10.777017       2.958630      26.544167    -13.1420
    -5      14.325016       6.363630      19.343166     -3.9175
    -5      10.138498      -1.142644      20.673992    -19.3483
    -5       8.999017       3.081630      18.875168    -11.2330
    -5      16.643017      -2.580370      18.078167    -12.9950
    -5       9.665886      -1.797647      20.491711    -20.2282
    -5       9.721017       2.679630      21.897167    -10.3470
    -5       9.495016      -3.987370      19.277166    -12.3125
    -6       9.544017       6.999630      25.870167     13.2990
    -6      11.781016       8.517631      22.930166      7.7900
    -6      14.607017       1.112630      25.440166      7.0810
    -6      15.386017       0.918630      28.446167      2.3985
    -6      18.624016       1.298630      27.807167      2.3740
    -6      20.392017       2.874630      26.722168      2.3035
    -6      17.648016       0.730630      28.195168      2.3685
    -6      14.512016       8.724630      26.097166      6.5595
    -6       8.569016      -0.973370      14.343166     10.8755
    -6       7.728017       1.126630      14.428167      9.6685
    -6       9.165016      -5.976370      22.174168      8.4205
    -6      13.686016      -5.263370      22.254168      6.1950
    -6      13.877016       8.944631      27.096167      6.4995
    -6      12.880016      -5.307370      17.193167     12.0245
    -7      15.472016       6.118630      22.868166     -3.2390
    -7      16.618017       6.190630      29.550167     -1.8400
    -7      20.678017       4.935630      25.563168     -0.9695
    -7      14.813017       8.811630      25.026167     -2.2140
    -7      10.993016       2.287630      26.765167     -3.3000
    -7      14.052017       0.966630      26.100166     -2.8945
    -7      19.113016       1.220630      27.604168     -0.9705
    -7      16.034016       2.731630      23.912167     -3.3250
    -7      10.857017       6.577630      27.959167     -2.0560
    -7       9.494017       3.463630      21.639168     -4.2685
    -7      10.789017       9.786630      25.500168     -0.9715
    -7      14.840016       6.494630      19.649166     -1.8715
    -7       8.671017       3.594630      18.487167     -2.1885
    -7       9.509016       9.096630      19.641167     -0.9730
    -7      10.391017      -1.625370      26.086166     -2.4190
    -7       4.660017      -1.773370      25.985167     -0.9695
    -7       4.569016       2.557630      27.332167     -0.9680
    -7      14.875017      -4.579370      21.768167     -1.8885
    -7      13.267016      -5.347370      16.886168     -1.9350
    -7       6.954017      -1.202370      16.804167     -1.5235
    -7      11.071016       0.523630      14.355167     -1.5285
    -7      13.461017       0.151630      20.851168     -4.5370
    -7       9.025017      -1.430370      20.607166     -4.2605
    -8      14.386017       5.687630      26.072166      5.7545
    -8      16.303017       4.649630      26.702168      7.2160
    -8      12.821016       4.074630      23.412167      5.8535
    -8      11.879017       5.300630      20.313168      7.2105
    -8      14.967016       5.182630      26.638166      5.8010
    -8      12.613016       4.247630      22.352167      5.8285
    -8      13.423017       5.009630      25.510166      5.6895
    -8      12.579017       4.458630      21.224167      5.7810
    -8       7.903017       1.063630      24.720167      7.0265
    -8      11.517016      -3.053370      22.483168      4.3445
    -8      12.238016      -3.808370      21.025167      4.6035
    -8      12.152017      -3.126370      18.429167      4.4460
    -8      10.771017      -2.113370      17.279167      4.9125

$$$$
Untitled
  RxDock  02242113273D
librxdock.so/0.1.0
 60 65  0  0  0  0  0  0  0  0999 V2000
  -55.2869   -6.4316   14.2007 C   0  0  0  0  0  0
  -54.3755   -6.0141   15.1440 C   0  0  0  0  0  0
  -53.9279   -6.8853   16.1131 C   0  0  0  0  0  0
  -54.4007   -8.1802   16.1303 C   0  0  0  0  0  0
  -55.3128   -8.5992   15.1885 C   0  0  0  0  0  0
  -55.7559   -7.7242   14.2236 C   0  0  0  0  0  0
  -52.9179   -6.4227   17.1536 C   0  0  0  0  0  0
  -53.0151   -4.9305   17.5416 C   0  0  0  0  0  0
  -52.4293   -4.0956   16.4343 N   0  3  0  0  0  0
  -52.2814   -4.6834   18.8800 C   0  0  0  0  0  0
  -51.9102   -3.2976   18.9888 O   0  0  0  0  0  0
  -51.0145   -5.5585   18.9949 C   0  0  0  0  0  0
  -49.7578   -4.8124   18.4942 C   0  0  0  0  0  0
  -48.5640   -5.7925   18.4429 C   0  0  0  0  0  0
  -48.8907   -7.2423   18.7662 C   0  0  0  0  0  0
  -49.0955   -7.6340   20.0715 C   0  0  0  0  0  0
  -49.3882   -8.9470   20.3662 C   0  0  0  0  0  0
  -49.4757   -9.8753   19.3552 C   0  0  0  0  0  0
  -49.2718   -9.4896   18.0491 C   0  0  0  0  0  0
  -48.9805   -8.1763   17.7570 C   0  0  0  0  0  0
  -50.0058   -4.2724   17.1505 N   0  0  0  0  0  0
  -48.9040   -4.5559   16.1605 P   0  0  0  0  0  0
  -47.5283   -3.8484   16.5983 O   0  0  0  0  0  0
  -49.2355   -3.8591   14.7440 O   0  0  0  0  0  0
  -48.6917   -6.0364   15.9831 O   0  0  0  0  0  0
  -46.8483   -3.0101   15.6526 C   0  0  0  0  0  0
  -49.4350   -2.5121   14.6230 C   0  0  0  0  0  0
  -49.6833   -1.7099   15.7220 C   0  0  0  0  0  0
  -49.8760   -0.3573   15.5672 C   0  0  0  0  0  0
  -49.8209    0.2073   14.3133 C   0  0  0  0  0  0
  -49.5748   -0.5835   13.2142 C   0  0  0  0  0  0
  -49.3850   -1.9361   13.3682 C   0  0  0  0  0  0
  -45.5479   -2.4749   16.2738 C   0  0  0  0  0  0
  -45.5326   -2.6606   17.6994 O   0  0  0  0  0  0
  -44.8284   -1.5780   18.3366 C   0  0  0  0  0  0
  -44.4079   -0.6138   17.2022 C   0  0  0  0  0  0
  -45.3462   -0.9707   16.0419 C   0  0  0  0  0  0
  -46.5754   -0.2401   16.1735 O   0  0  0  0  0  0
  -44.5082    0.7728   17.5634 O   0  0  0  0  0  0
  -45.8049   -1.0140   19.3630 C   0  0  0  0  0  0
  -43.6399   -2.1279   19.0012 C   0  0  0  0  0  0
  -42.7194   -2.5538   19.5147 N   0  0  0  0  0  0
  -46.8429   -0.2315   18.9823 N   0  0  0  0  0  0
  -47.4905    0.0882   20.1339 C   0  0  0  0  0  0
  -46.8829   -0.4716   21.2114 C   0  0  0  0  0  0
  -45.7915   -1.1817   20.7036 C   0  0  0  0  0  0
  -47.2819    0.2312   17.7747 N   0  0  0  0  0  0
  -48.3503    0.9926   17.7640 C   0  0  0  0  0  0
  -49.0837    1.3759   18.8585 N   0  0  0  0  0  0
  -48.6402    0.9142   20.0356 C   0  0  0  0  0  0
  -49.3486    1.2752   21.1574 N   0  0  0  0  0  0
  -52.7727   -4.3208   15.6230 H   0  0  0  0  0  0
  -52.5982   -3.2093   16.5569 H   0  0  0  0  0  0
  -51.5266   -4.1775   16.3792 H   0  0  0  0  0  0
  -52.7195   -2.7010   18.9727 H   0  0  0  0  0  0
  -50.1958   -3.2632   17.2035 H   0  0  0  0  0  0
  -46.4310    0.7463   16.0356 H   0  0  0  0  0  0
  -43.8991    0.9958   18.3320 H   0  0  0  0  0  0
  -50.0603    1.7872   21.0787 H   0  0  0  0  0  0
  -49.0955    0.9968   21.9536 H   0  0  0  0  0  0
  1  2  2  0  0  0
  2  3  1  0  0  0
  3  4  2  0  0  0
  3  7  1  0  0  0
  4  5  1  0  0  0
  5  6  2  0  0  0
  6  1  1  0  0  0
  7  8  1  0  0  0
  8  9  1  0  0  0
  8 10  1  0  0  0
 10 11  1  0  0  0
 10 12  1  0  0  0
 12 13  1  0  0  0
 13 14  1  0  0  0
 13 21  1  0  0  0
 14 15  1  0  0  0
 15 16  2  0  0  0
 16 17  1  0  0  0
 17 18  2  0  0  0
 18 19  1  0  0  0
 19 20  2  0  0  0
 20 15  1  0  0  0
 21 22  1  0  0  0
 22 23  1  0  0  0
 22 24  1  0  0  0
 22 25  2  0  0  0
 23 26  1  0  0  0
 24 27  1  0  0  0
 27 28  2  0  0  0
 28 29  1  0  0  0
 29 30  2  0  0  0
 30 31  1  0  0  0
 31 32  2  0  0  0
 32 27  1  0  0  0
 33 26  1  0  0  0
 33 34  1  0  0  0
 34 35  1  0  0  0
 35 36  1  0  0  0
 35 40  1  0  0  0
 35 41  1  0  0  0
 36 37  1  0  0  0
 36 39  1  0  0  0
 37 33  1  0  0  0
 37 38  1  0  0  0
 40 43  1  0  0  0
 41 42  3  0  0  0
 43 44  1  0  0  0
 43 47  1  0  0  0
 44 45  2  0  0  0
 45 46  1  0  0  0
 46 40  2  0  0  0
 47 48  2  0  0  0
 48 49  1  0  0  0
 49 50  2  0  0  0
 50 44  1  0  0  0
 50 51  1  0  0  0
  9 52  1  0  0  0
  9 53  1  0  0  0
  9 54  1  0  0  0
 11 55  1  0  0  0
 21 56  1  0  0  0
 38 57  1  0  0  0
 39 58  1  0  0  0
 51 59  1  0  0  0
 51 60  1  0  0  0
M  END
>  <#Atoms_cresset>
51

>  <#RB_cresset>
18

>  <BioMolTech Lead Finder LE>
-0.172

>  <BioMolTech Lead Finder Pose rank>
0

>  <BioMolTech Lead Finder Rank score>
-13.57

>  <BioMolTech Lead Finder SDF id>
0

>  <BioMolTech Lead Finder Structure Name>
/var/folders/xd/y7jw_xv579q2qqq7kks92xd80000gn/T/LeadFinder_21448_1/Ligand_1.sdf

>  <BioMolTech Lead Finder VSscore>
-13.341

>  <BioMolTech Lead Finder dG>
-8.761

>  <BioMolTech Lead Finder version>
2001 1, 19 January 2019

>  <CHROM.0>
-46.96544483,-61.30364066,-65.28585501

>  <CHROM.1>
31.35797832,-75.50843657,50.26246888,157.55468216,60.97295868,93.20681287
-172.03913570,4.82065886,-132.32732629,-76.36928647,-63.45358965,-127.20707032
58.24273675,-178.54634651,-15.78116882,-14.85922983,-75.99370831,61.88965214
179.02101836,-49.06721760,-3.46237244,17.35778934,2.52271854,0.55707641,2.75514277

>  <Confs_cresset>
0

>  <Favorite_cresset>
false

>  <Filename_cresset>
VTRRT-13V2.1.sdf

>  <Flexibility_cresset>
17.1

>  <LF LE>
-0.172

>  <LF Rank Score>
-13.57

>  <LF VSscore>
-13.341

>  <LF dG>
-8.761

>  <MW_cresset>
714.7

>  <Name>
Untitled

>  <Poses_cresset>
10

>  <Preferred Pose_cresset>
true

>  <Protein_cresset>
6Y2F_P

>  <RI>
-1.06272e+09

>  <Rbt.Current_Directory>
/root/miniconda3/envs/rdock/share/rxdock-2013.1.1_148c5bd1-0/data/ligands/prepped_ligands/VTRRT

>  <Rbt.Executable>
rbdock/0.1.0

>  <Rbt.Library>
librxdock.so/0.1.0

>  <Rbt.Parameter_File>
/root/miniconda3/envs/rdock/share/rxdock-2013.1.1_148c5bd1-0/data/scripts/dock.prm

>  <Rbt.Receptor>
def.prm

>  <Rof5_cresset>
3

>  <SCORE>
-1.00319

>  <SCORE.INTER>
-16.0726

>  <SCORE.INTER.CONST>
1

>  <SCORE.INTER.POLAR>
-0.375671

>  <SCORE.INTER.REPUL>
0

>  <SCORE.INTER.ROT>
15

>  <SCORE.INTER.VDW>
-35.1953

>  <SCORE.INTER.norm>
-0.315148

>  <SCORE.INTRA>
15.1516

>  <SCORE.INTRA.DIHEDRAL>
-20.1313

>  <SCORE.INTRA.DIHEDRAL.0>
43.3056

>  <SCORE.INTRA.POLAR>
-1.15807

>  <SCORE.INTRA.POLAR.0>
0

>  <SCORE.INTRA.REPUL>
-1.18384

>  <SCORE.INTRA.REPUL.0>
1.18384

>  <SCORE.INTRA.VDW>
35.0739

>  <SCORE.INTRA.VDW.0>
-7.21879

>  <SCORE.INTRA.norm>
0.297091

>  <SCORE.RESTR>
0.709425

>  <SCORE.RESTR.CAVITY>
0.709425

>  <SCORE.RESTR.norm>
0.0139103

>  <SCORE.SYSTEM>
-0.791689

>  <SCORE.SYSTEM.CONST>
0

>  <SCORE.SYSTEM.DIHEDRAL>
0.475603

>  <SCORE.SYSTEM.VDW>
-1.02949

>  <SCORE.SYSTEM.norm>
-0.0155233

>  <SCORE.heavy>
51

>  <SCORE.norm>
-0.0196705

>  <SlogP_cresset>
4

>  <TPSA_cresset>
225.1

>  <_cresset_fieldpoints>
    -5      16.836018       5.832630      29.221167     -3.6840
    -5      12.689775      -0.157515      20.961832    -26.5835
    -5      10.603017       0.175630      26.550167     -8.1895
    -5      16.438017       3.291630      24.075167     -2.5740
    -5      10.777017       2.958630      26.544167    -13.1420
    -5      14.325016       6.363630      19.343166     -3.9175
    -5      10.138498      -1.142644      20.673992    -19.3483
    -5       8.999017       3.081630      18.875168    -11.2330
    -5      16.643017      -2.580370      18.078167    -12.9950
    -5       9.665886      -1.797647      20.491711    -20.2282
    -5       9.721017       2.679630      21.897167    -10.3470
    -5       9.495016      -3.987370      19.277166    -12.3125
    -6       9.544017       6.999630      25.870167     13.2990
    -6      11.781016       8.517631      22.930166      7.7900
    -6      14.607017       1.112630      25.440166      7.0810
    -6      15.386017       0.918630      28.446167      2.3985
    -6      18.624016       1.298630      27.807167      2.3740
    -6      20.392017       2.874630      26.722168      2.3035
    -6      17.648016       0.730630      28.195168      2.3685
    -6      14.512016       8.724630      26.097166      6.5595
    -6       8.569016      -0.973370      14.343166     10.8755
    -6       7.728017       1.126630      14.428167      9.6685
    -6       9.165016      -5.976370      22.174168      8.4205
    -6      13.686016      -5.263370      22.254168      6.1950
    -6      13.877016       8.944631      27.096167      6.4995
    -6      12.880016      -5.307370      17.193167     12.0245
    -7      15.472016       6.118630      22.868166     -3.2390
    -7      16.618017       6.190630      29.550167     -1.8400
    -7      20.678017       4.935630      25.563168     -0.9695
    -7      14.813017       8.811630      25.026167     -2.2140
    -7      10.993016       2.287630      26.765167     -3.3000
    -7      14.052017       0.966630      26.100166     -2.8945
    -7      19.113016       1.220630      27.604168     -0.9705
    -7      16.034016       2.731630      23.912167     -3.3250
    -7      10.857017       6.577630      27.959167     -2.0560
    -7       9.494017       3.463630      21.639168     -4.2685
    -7      10.789017       9.786630      25.500168     -0.9715
    -7      14.840016       6.494630      19.649166     -1.8715
    -7       8.671017       3.594630      18.487167     -2.1885
    -7       9.509016       9.096630      19.641167     -0.9730
    -7      10.391017      -1.625370      26.086166     -2.4190
    -7       4.660017      -1.773370      25.985167     -0.9695
    -7       4.569016       2.557630      27.332167     -0.9680
    -7      14.875017      -4.579370      21.768167     -1.8885
    -7      13.267016      -5.347370      16.886168     -1.9350
    -7       6.954017      -1.202370      16.804167     -1.5235
    -7      11.071016       0.523630      14.355167     -1.5285
    -7      13.461017       0.151630      20.851168     -4.5370
    -7       9.025017      -1.430370      20.607166     -4.2605
    -8      14.386017       5.687630      26.072166      5.7545
    -8      16.303017       4.649630      26.702168      7.2160
    -8      12.821016       4.074630      23.412167      5.8535
    -8      11.879017       5.300630      20.313168      7.2105
    -8      14.967016       5.182630      26.638166      5.8010
    -8      12.613016       4.247630      22.352167      5.8285
    -8      13.423017       5.009630      25.510166      5.6895
    -8      12.579017       4.458630      21.224167      5.7810
    -8       7.903017       1.063630      24.720167      7.0265
    -8      11.517016      -3.053370      22.483168      4.3445
    -8      12.238016      -3.808370      21.025167      4.6035
    -8      12.152017      -3.126370      18.429167      4.4460
    -8      10.771017      -2.113370      17.279167      4.9125

$$$$
Untitled
  RxDock  02242113273D
librxdock.so/0.1.0
 60 65  0  0  0  0  0  0  0  0999 V2000
  -53.1290   -3.8398   17.3272 C   0  0  0  0  0  0
  -52.2798   -2.8990   16.7898 C   0  0  0  0  0  0
  -52.1439   -2.7834   15.4236 C   0  0  0  0  0  0
  -52.8662   -3.6185   14.5981 C   0  0  0  0  0  0
  -53.7151   -4.5604   15.1336 C   0  0  0  0  0  0
  -53.8460   -4.6709   16.4987 C   0  0  0  0  0  0
  -51.2068   -1.7407   14.8311 C   0  0  0  0  0  0
  -49.7772   -2.2423   14.5287 C   0  0  0  0  0  0
  -49.2147   -2.8967   15.7623 N   0  3  0  0  0  0
  -48.8907   -1.0638   14.0639 C   0  0  0  0  0  0
  -47.7205   -1.5636   13.3924 O   0  0  0  0  0  0
  -48.4549   -0.1854   15.2567 C   0  0  0  0  0  0
  -47.3300   -0.8544   16.0774 C   0  0  0  0  0  0
  -45.9567   -0.3897   15.5421 C   0  0  0  0  0  0
  -44.7608   -0.7329   16.4171 C   0  0  0  0  0  0
  -44.0077   -1.8568   16.1548 C   0  0  0  0  0  0
  -42.9266   -2.1706   16.9480 C   0  0  0  0  0  0
  -42.5950   -1.3613   18.0094 C   0  0  0  0  0  0
  -43.3440   -0.2370   18.2763 C   0  0  0  0  0  0
  -44.4235    0.0751   17.4812 C   0  0  0  0  0  0
  -47.4576   -0.4763   17.4914 N   0  0  0  0  0  0
  -47.9054   -1.6009   18.3909 P   0  0  0  0  0  0
  -49.5083   -1.6584   18.5015 O   0  0  0  0  0  0
  -47.4470   -1.3141   19.9107 O   0  0  0  0  0  0
  -47.3705   -2.9278   17.9202 O   0  0  0  0  0  0
  -50.1340   -1.2467   19.7257 C   0  0  0  0  0  0
  -46.5437   -0.3384   20.2281 C   0  0  0  0  0  0
  -46.6572    0.9489   19.7353 C   0  0  0  0  0  0
  -45.7338    1.9089   20.0766 C   0  0  0  0  0  0
  -44.6891    1.5927   20.9149 C   0  0  0  0  0  0
  -44.5682    0.3141   21.4095 C   0  0  0  0  0  0
  -45.4894   -0.6465   21.0662 C   0  0  0  0  0  0
  -49.8950   -2.3068   20.8132 C   0  0  0  0  0  0
  -49.6239   -3.5963   20.2379 O   0  0  0  0  0  0
  -50.1553   -4.6392   21.0768 C   0  0  0  0  0  0
  -50.8561   -3.9247   22.2567 C   0  0  0  0  0  0
  -51.1054   -2.5029   21.7370 C   0  0  0  0  0  0
  -52.3437   -2.4648   21.0109 O   0  0  0  0  0  0
  -52.0742   -4.5637   22.6702 O   0  0  0  0  0  0
  -51.0581   -5.4648   20.1666 C   0  0  0  0  0  0
  -49.0353   -5.4515   21.5692 C   0  0  0  0  0  0
  -48.1679   -6.0794   21.9509 N   0  0  0  0  0  0
  -50.5625   -6.4957   19.4411 N   0  0  0  0  0  0
  -51.6256   -6.9941   18.7561 C   0  0  0  0  0  0
  -52.7594   -6.3014   19.0359 C   0  0  0  0  0  0
  -52.3826   -5.3119   19.9483 C   0  0  0  0  0  0
  -49.3176   -7.0406   19.3048 N   0  0  0  0  0  0
  -49.1835   -8.0619   18.4922 C   0  0  0  0  0  0
  -50.1815   -8.6483   17.7554 N   0  0  0  0  0  0
  -51.3966   -8.1022   17.8998 C   0  0  0  0  0  0
  -52.4248   -8.6620   17.1787 N   0  0  0  0  0  0
  -48.3361   -3.1083   15.6621 H   0  0  0  0  0  0
  -49.2748   -2.3510   16.4887 H   0  0  0  0  0  0
  -49.6548   -3.6605   15.9805 H   0  0  0  0  0  0
  -47.1668   -0.8127   13.0173 H   0  0  0  0  0  0
  -48.0817    0.3354   17.5863 H   0  0  0  0  0  0
  -52.5070   -1.5545   20.6140 H   0  0  0  0  0  0
  -51.9866   -4.9571   23.5917 H   0  0  0  0  0  0
  -52.2659   -9.3500   16.6530 H   0  0  0  0  0  0
  -53.2411   -8.3374   17.2400 H   0  0  0  0  0  0
  1  2  2  0  0  0
  2  3  1  0  0  0
  3  4  2  0  0  0
  3  7  1  0  0  0
  4  5  1  0  0  0
  5  6  2  0  0  0
  6  1  1  0  0  0
  7  8  1  0  0  0
  8  9  1  0  0  0
  8 10  1  0  0  0
 10 11  1  0  0  0
 10 12  1  0  0  0
 12 13  1  0  0  0
 13 14  1  0  0  0
 13 21  1  0  0  0
 14 15  1  0  0  0
 15 16  2  0  0  0
 16 17  1  0  0  0
 17 18  2  0  0  0
 18 19  1  0  0  0
 19 20  2  0  0  0
 20 15  1  0  0  0
 21 22  1  0  0  0
 22 23  1  0  0  0
 22 24  1  0  0  0
 22 25  2  0  0  0
 23 26  1  0  0  0
 24 27  1  0  0  0
 27 28  2  0  0  0
 28 29  1  0  0  0
 29 30  2  0  0  0
 30 31  1  0  0  0
 31 32  2  0  0  0
 32 27  1  0  0  0
 33 26  1  0  0  0
 33 34  1  0  0  0
 34 35  1  0  0  0
 35 36  1  0  0  0
 35 40  1  0  0  0
 35 41  1  0  0  0
 36 37  1  0  0  0
 36 39  1  0  0  0
 37 33  1  0  0  0
 37 38  1  0  0  0
 40 43  1  0  0  0
 41 42  3  0  0  0
 43 44  1  0  0  0
 43 47  1  0  0  0
 44 45  2  0  0  0
 45 46  1  0  0  0
 46 40  2  0  0  0
 47 48  2  0  0  0
 48 49  1  0  0  0
 49 50  2  0  0  0
 50 44  1  0  0  0
 50 51  1  0  0  0
  9 52  1  0  0  0
  9 53  1  0  0  0
  9 54  1  0  0  0
 11 55  1  0  0  0
 21 56  1  0  0  0
 38 57  1  0  0  0
 39 58  1  0  0  0
 51 59  1  0  0  0
 51 60  1  0  0  0
M  END
>  <#Atoms_cresset>
51

>  <#RB_cresset>
18

>  <BioMolTech Lead Finder LE>
-0.172

>  <BioMolTech Lead Finder Pose rank>
0

>  <BioMolTech Lead Finder Rank score>
-13.57

>  <BioMolTech Lead Finder SDF id>
0

>  <BioMolTech Lead Finder Structure Name>
/var/folders/xd/y7jw_xv579q2qqq7kks92xd80000gn/T/LeadFinder_21448_1/Ligand_1.sdf

>  <BioMolTech Lead Finder VSscore>
-13.341

>  <BioMolTech Lead Finder dG>
-8.761

>  <BioMolTech Lead Finder version>
2001 1, 19 January 2019

>  <CHROM.0>
-163.60153470,-58.91302332,81.53637073

>  <CHROM.1>
93.27214759,-52.18963313,-172.47493119,-161.99970940,175.45370479,76.20074567
92.04655618,168.04426348,109.45195793,96.53530534,-89.67536029,-107.75254429
-12.86310647,-72.71271391,48.64595258,-23.45417534,87.83061842,112.98593066
-65.39016784,-48.95037131,-2.93764866,18.33142254,2.93182624,0.67664943,1.81253907

>  <Confs_cresset>
0

>  <Favorite_cresset>
false

>  <Filename_cresset>
VTRRT-13V2.1.sdf

>  <Flexibility_cresset>
17.1

>  <LF LE>
-0.172

>  <LF Rank Score>
-13.57

>  <LF VSscore>
-13.341

>  <LF dG>
-8.761

>  <MW_cresset>
714.7

>  <Name>
Untitled

>  <Poses_cresset>
10

>  <Preferred Pose_cresset>
true

>  <Protein_cresset>
6Y2F_P

>  <RI>
-1.06272e+09

>  <Rbt.Current_Directory>
/root/miniconda3/envs/rdock/share/rxdock-2013.1.1_148c5bd1-0/data/ligands/prepped_ligands/VTRRT

>  <Rbt.Executable>
rbdock/0.1.0

>  <Rbt.Library>
librxdock.so/0.1.0

>  <Rbt.Parameter_File>
/root/miniconda3/envs/rdock/share/rxdock-2013.1.1_148c5bd1-0/data/scripts/dock.prm

>  <Rbt.Receptor>
def.prm

>  <Rof5_cresset>
3

>  <SCORE>
-18.956

>  <SCORE.INTER>
-3.46603

>  <SCORE.INTER.CONST>
1

>  <SCORE.INTER.POLAR>
-0.390858

>  <SCORE.INTER.REPUL>
0.486164

>  <SCORE.INTER.ROT>
15

>  <SCORE.INTER.VDW>
-24.9679

>  <SCORE.INTER.norm>
-0.0679614

>  <SCORE.INTRA>
-18.0411

>  <SCORE.INTRA.DIHEDRAL>
-13.1406

>  <SCORE.INTRA.DIHEDRAL.0>
43.3056

>  <SCORE.INTRA.POLAR>
-1.17377

>  <SCORE.INTRA.POLAR.0>
0

>  <SCORE.INTRA.REPUL>
-1.18384

>  <SCORE.INTRA.REPUL.0>
1.18384

>  <SCORE.INTRA.VDW>
-1.56079

>  <SCORE.INTRA.VDW.0>
-7.21879

>  <SCORE.INTRA.norm>
-0.353747

>  <SCORE.RESTR>
2.46222

>  <SCORE.RESTR.CAVITY>
2.46222

>  <SCORE.RESTR.norm>
0.0482788

>  <SCORE.SYSTEM>
0.0888989

>  <SCORE.SYSTEM.CONST>
0

>  <SCORE.SYSTEM.DIHEDRAL>
1.63309

>  <SCORE.SYSTEM.POLAR>
-0.0171662

>  <SCORE.SYSTEM.VDW>
-0.669279

>  <SCORE.SYSTEM.norm>
0.00174311

>  <SCORE.heavy>
51

>  <SCORE.norm>
-0.371687

>  <SlogP_cresset>
4

>  <TPSA_cresset>
225.1

>  <_cresset_fieldpoints>
    -5      16.836018       5.832630      29.221167     -3.6840
    -5      12.689775      -0.157515      20.961832    -26.5835
    -5      10.603017       0.175630      26.550167     -8.1895
    -5      16.438017       3.291630      24.075167     -2.5740
    -5      10.777017       2.958630      26.544167    -13.1420
    -5      14.325016       6.363630      19.343166     -3.9175
    -5      10.138498      -1.142644      20.673992    -19.3483
    -5       8.999017       3.081630      18.875168    -11.2330
    -5      16.643017      -2.580370      18.078167    -12.9950
    -5       9.665886      -1.797647      20.491711    -20.2282
    -5       9.721017       2.679630      21.897167    -10.3470
    -5       9.495016      -3.987370      19.277166    -12.3125
    -6       9.544017       6.999630      25.870167     13.2990
    -6      11.781016       8.517631      22.930166      7.7900
    -6      14.607017       1.112630      25.440166      7.0810
    -6      15.386017       0.918630      28.446167      2.3985
    -6      18.624016       1.298630      27.807167      2.3740
    -6      20.392017       2.874630      26.722168      2.3035
    -6      17.648016       0.730630      28.195168      2.3685
    -6      14.512016       8.724630      26.097166      6.5595
    -6       8.569016      -0.973370      14.343166     10.8755
    -6       7.728017       1.126630      14.428167      9.6685
    -6       9.165016      -5.976370      22.174168      8.4205
    -6      13.686016      -5.263370      22.254168      6.1950
    -6      13.877016       8.944631      27.096167      6.4995
    -6      12.880016      -5.307370      17.193167     12.0245
    -7      15.472016       6.118630      22.868166     -3.2390
    -7      16.618017       6.190630      29.550167     -1.8400
    -7      20.678017       4.935630      25.563168     -0.9695
    -7      14.813017       8.811630      25.026167     -2.2140
    -7      10.993016       2.287630      26.765167     -3.3000
    -7      14.052017       0.966630      26.100166     -2.8945
    -7      19.113016       1.220630      27.604168     -0.9705
    -7      16.034016       2.731630      23.912167     -3.3250
    -7      10.857017       6.577630      27.959167     -2.0560
    -7       9.494017       3.463630      21.639168     -4.2685
    -7      10.789017       9.786630      25.500168     -0.9715
    -7      14.840016       6.494630      19.649166     -1.8715
    -7       8.671017       3.594630      18.487167     -2.1885
    -7       9.509016       9.096630      19.641167     -0.9730
    -7      10.391017      -1.625370      26.086166     -2.4190
    -7       4.660017      -1.773370      25.985167     -0.9695
    -7       4.569016       2.557630      27.332167     -0.9680
    -7      14.875017      -4.579370      21.768167     -1.8885
    -7      13.267016      -5.347370      16.886168     -1.9350
    -7       6.954017      -1.202370      16.804167     -1.5235
    -7      11.071016       0.523630      14.355167     -1.5285
    -7      13.461017       0.151630      20.851168     -4.5370
    -7       9.025017      -1.430370      20.607166     -4.2605
    -8      14.386017       5.687630      26.072166      5.7545
    -8      16.303017       4.649630      26.702168      7.2160
    -8      12.821016       4.074630      23.412167      5.8535
    -8      11.879017       5.300630      20.313168      7.2105
    -8      14.967016       5.182630      26.638166      5.8010
    -8      12.613016       4.247630      22.352167      5.8285
    -8      13.423017       5.009630      25.510166      5.6895
    -8      12.579017       4.458630      21.224167      5.7810
    -8       7.903017       1.063630      24.720167      7.0265
    -8      11.517016      -3.053370      22.483168      4.3445
    -8      12.238016      -3.808370      21.025167      4.6035
    -8      12.152017      -3.126370      18.429167      4.4460
    -8      10.771017      -2.113370      17.279167      4.9125

$$$$
Untitled
  RxDock  02242113273D
librxdock.so/0.1.0
 60 65  0  0  0  0  0  0  0  0999 V2000
  -42.3694   -0.6683   20.1241 C   0  0  0  0  0  0
  -43.0621   -0.9878   18.9783 C   0  0  0  0  0  0
  -43.5162    0.0062   18.1391 C   0  0  0  0  0  0
  -43.2707    1.3251   18.4567 C   0  0  0  0  0  0
  -42.5791    1.6466   19.6025 C   0  0  0  0  0  0
  -42.1287    0.6493   20.4363 C   0  0  0  0  0  0
  -44.2793   -0.3491   16.8711 C   0  0  0  0  0  0
  -44.3193   -1.8558   16.5321 C   0  0  0  0  0  0
  -42.9151   -2.3432   16.2929 N   0  3  0  0  0  0
  -45.2156   -2.0958   15.2952 C   0  0  0  0  0  0
  -45.0944   -0.9933   14.3787 O   0  0  0  0  0  0
  -46.6969   -2.2591   15.6993 C   0  0  0  0  0  0
  -47.4383   -0.9038   15.7109 C   0  0  0  0  0  0
  -48.9325   -1.1322   15.3890 C   0  0  0  0  0  0
  -49.2604   -2.4420   14.6887 C   0  0  0  0  0  0
  -49.8369   -3.4792   15.3895 C   0  0  0  0  0  0
  -50.1314   -4.6669   14.7577 C   0  0  0  0  0  0
  -49.8484   -4.8228   13.4209 C   0  0  0  0  0  0
  -49.2721   -3.7899   12.7157 C   0  0  0  0  0  0
  -48.9798   -2.6033   13.3493 C   0  0  0  0  0  0
  -47.3126   -0.2826   17.0364 N   0  0  0  0  0  0
  -47.5861   -1.2217   18.1843 P   0  0  0  0  0  0
  -48.9065   -2.0999   17.9194 O   0  0  0  0  0  0
  -47.9670   -0.3847   19.5096 O   0  0  0  0  0  0
  -46.4090   -2.1230   18.4498 O   0  0  0  0  0  0
  -49.6909   -2.5284   19.0423 C   0  0  0  0  0  0
  -47.1686   -0.3733   20.6192 C   0  0  0  0  0  0
  -47.6651   -0.6593   21.8780 C   0  0  0  0  0  0
  -46.8349   -0.6432   22.9740 C   0  0  0  0  0  0
  -45.5003   -0.3429   22.8229 C   0  0  0  0  0  0
  -44.9979   -0.0567   21.5741 C   0  0  0  0  0  0
  -45.8281   -0.0699   20.4787 C   0  0  0  0  0  0
  -49.7756   -4.0633   19.0614 C   0  0  0  0  0  0
  -50.2721   -4.5766   17.8135 O   0  0  0  0  0  0
  -51.0577   -5.7623   18.0384 C   0  0  0  0  0  0
  -51.0833   -5.9753   19.5705 C   0  0  0  0  0  0
  -50.7222   -4.5991   20.1447 C   0  0  0  0  0  0
  -51.9088   -3.7987   20.2612 O   0  0  0  0  0  0
  -52.3490   -6.4440   20.0620 O   0  0  0  0  0  0
  -52.4050   -5.4809   17.3820 C   0  0  0  0  0  0
  -50.3879   -6.8917   17.3807 C   0  0  0  0  0  0
  -49.8685   -7.7659   16.8722 N   0  0  0  0  0  0
  -53.1877   -6.4915   16.9340 N   0  0  0  0  0  0
  -54.2891   -5.8872   16.4150 C   0  0  0  0  0  0
  -54.2083   -4.5365   16.5280 C   0  0  0  0  0  0
  -52.9845   -4.2820   17.1534 C   0  0  0  0  0  0
  -53.0570   -7.8509   16.9204 N   0  0  0  0  0  0
  -54.0309   -8.5529   16.3915 C   0  0  0  0  0  0
  -55.1856   -8.0536   15.8437 N   0  0  0  0  0  0
  -55.2987   -6.7185   15.8643 C   0  0  0  0  0  0
  -56.4425   -6.1783   15.3254 N   0  0  0  0  0  0
  -42.8917   -3.2355   16.1197 H   0  0  0  0  0  0
  -42.5313   -1.9248   15.5810 H   0  0  0  0  0  0
  -42.3697   -2.1900   17.0026 H   0  0  0  0  0  0
  -45.7059   -1.1073   13.5886 H   0  0  0  0  0  0
  -47.9139    0.5493   17.0964 H   0  0  0  0  0  0
  -51.6943   -2.8732   20.5933 H   0  0  0  0  0  0
  -52.4000   -6.3769   21.0642 H   0  0  0  0  0  0
  -57.0597   -6.7083   14.9890 H   0  0  0  0  0  0
  -56.5621   -5.3059   15.3155 H   0  0  0  0  0  0
  1  2  2  0  0  0
  2  3  1  0  0  0
  3  4  2  0  0  0
  3  7  1  0  0  0
  4  5  1  0  0  0
  5  6  2  0  0  0
  6  1  1  0  0  0
  7  8  1  0  0  0
  8  9  1  0  0  0
  8 10  1  0  0  0
 10 11  1  0  0  0
 10 12  1  0  0  0
 12 13  1  0  0  0
 13 14  1  0  0  0
 13 21  1  0  0  0
 14 15  1  0  0  0
 15 16  2  0  0  0
 16 17  1  0  0  0
 17 18  2  0  0  0
 18 19  1  0  0  0
 19 20  2  0  0  0
 20 15  1  0  0  0
 21 22  1  0  0  0
 22 23  1  0  0  0
 22 24  1  0  0  0
 22 25  2  0  0  0
 23 26  1  0  0  0
 24 27  1  0  0  0
 27 28  2  0  0  0
 28 29  1  0  0  0
 29 30  2  0  0  0
 30 31  1  0  0  0
 31 32  2  0  0  0
 32 27  1  0  0  0
 33 26  1  0  0  0
 33 34  1  0  0  0
 34 35  1  0  0  0
 35 36  1  0  0  0
 35 40  1  0  0  0
 35 41  1  0  0  0
 36 37  1  0  0  0
 36 39  1  0  0  0
 37 33  1  0  0  0
 37 38  1  0  0  0
 40 43  1  0  0  0
 41 42  3  0  0  0
 43 44  1  0  0  0
 43 47  1  0  0  0
 44 45  2  0  0  0
 45 46  1  0  0  0
 46 40  2  0  0  0
 47 48  2  0  0  0
 48 49  1  0  0  0
 49 50  2  0  0  0
 50 44  1  0  0  0
 50 51  1  0  0  0
  9 52  1  0  0  0
  9 53  1  0  0  0
  9 54  1  0  0  0
 11 55  1  0  0  0
 21 56  1  0  0  0
 38 57  1  0  0  0
 39 58  1  0  0  0
 51 59  1  0  0  0
 51 60  1  0  0  0
M  END
>  <#Atoms_cresset>
51

>  <#RB_cresset>
18

>  <BioMolTech Lead Finder LE>
-0.172

>  <BioMolTech Lead Finder Pose rank>
0

>  <BioMolTech Lead Finder Rank score>
-13.57

>  <BioMolTech Lead Finder SDF id>
0

>  <BioMolTech Lead Finder Structure Name>
/var/folders/xd/y7jw_xv579q2qqq7kks92xd80000gn/T/LeadFinder_21448_1/Ligand_1.sdf

>  <BioMolTech Lead Finder VSscore>
-13.341

>  <BioMolTech Lead Finder dG>
-8.761

>  <BioMolTech Lead Finder version>
2001 1, 19 January 2019

>  <CHROM.0>
-57.84646294,-64.14743924,-43.21489614

>  <CHROM.1>
-7.87259513,-62.30208091,177.89908007,34.64774461,-177.08247038,90.12472721
150.90253827,-20.05309326,-46.58773085,104.28527247,-45.30454643,-149.79072299
-113.98392597,-121.07596717,-128.14888543,-54.65687925,153.88647146,-167.33320038
-65.78189504,-48.67524273,-3.02228571,17.66986945,0.29039034,0.56799896,1.42941918

>  <Confs_cresset>
0

>  <Favorite_cresset>
false

>  <Filename_cresset>
VTRRT-13V2.1.sdf

>  <Flexibility_cresset>
17.1

>  <LF LE>
-0.172

>  <LF Rank Score>
-13.57

>  <LF VSscore>
-13.341

>  <LF dG>
-8.761

>  <MW_cresset>
714.7

>  <Name>
Untitled

>  <Poses_cresset>
10

>  <Preferred Pose_cresset>
true

>  <Protein_cresset>
6Y2F_P

>  <RI>
-1.06272e+09

>  <Rbt.Current_Directory>
/root/miniconda3/envs/rdock/share/rxdock-2013.1.1_148c5bd1-0/data/ligands/prepped_ligands/VTRRT

>  <Rbt.Executable>
rbdock/0.1.0

>  <Rbt.Library>
librxdock.so/0.1.0

>  <Rbt.Parameter_File>
/root/miniconda3/envs/rdock/share/rxdock-2013.1.1_148c5bd1-0/data/scripts/dock.prm

>  <Rbt.Receptor>
def.prm

>  <Rof5_cresset>
3

>  <SCORE>
-32.1139

>  <SCORE.INTER>
-23.7112

>  <SCORE.INTER.CONST>
1

>  <SCORE.INTER.POLAR>
-2.34212

>  <SCORE.INTER.REPUL>
0

>  <SCORE.INTER.ROT>
15

>  <SCORE.INTER.VDW>
-36.148

>  <SCORE.INTER.norm>
-0.464925

>  <SCORE.INTRA>
-8.24161

>  <SCORE.INTRA.DIHEDRAL>
-13.6087

>  <SCORE.INTRA.DIHEDRAL.0>
43.3056

>  <SCORE.INTRA.POLAR>
0

>  <SCORE.INTRA.POLAR.0>
0

>  <SCORE.INTRA.REPUL>
-1.18384

>  <SCORE.INTRA.REPUL.0>
1.18384

>  <SCORE.INTRA.VDW>
4.48194

>  <SCORE.INTRA.VDW.0>
-7.21879

>  <SCORE.INTRA.norm>
-0.1616

>  <SCORE.RESTR>
0.471291

>  <SCORE.RESTR.CAVITY>
0.471291

>  <SCORE.RESTR.norm>
0.00924101

>  <SCORE.SYSTEM>
-0.632444

>  <SCORE.SYSTEM.CONST>
0

>  <SCORE.SYSTEM.DIHEDRAL>
0.734115

>  <SCORE.SYSTEM.POLAR>
-0.0200942

>  <SCORE.SYSTEM.VDW>
-0.931181

>  <SCORE.SYSTEM.norm>
-0.0124009

>  <SCORE.heavy>
51

>  <SCORE.norm>
-0.629685

>  <SlogP_cresset>
4

>  <TPSA_cresset>
225.1

>  <_cresset_fieldpoints>
    -5      16.836018       5.832630      29.221167     -3.6840
    -5      12.689775      -0.157515      20.961832    -26.5835
    -5      10.603017       0.175630      26.550167     -8.1895
    -5      16.438017       3.291630      24.075167     -2.5740
    -5      10.777017       2.958630      26.544167    -13.1420
    -5      14.325016       6.363630      19.343166     -3.9175
    -5      10.138498      -1.142644      20.673992    -19.3483
    -5       8.999017       3.081630      18.875168    -11.2330
    -5      16.643017      -2.580370      18.078167    -12.9950
    -5       9.665886      -1.797647      20.491711    -20.2282
    -5       9.721017       2.679630      21.897167    -10.3470
    -5       9.495016      -3.987370      19.277166    -12.3125
    -6       9.544017       6.999630      25.870167     13.2990
    -6      11.781016       8.517631      22.930166      7.7900
    -6      14.607017       1.112630      25.440166      7.0810
    -6      15.386017       0.918630      28.446167      2.3985
    -6      18.624016       1.298630      27.807167      2.3740
    -6      20.392017       2.874630      26.722168      2.3035
    -6      17.648016       0.730630      28.195168      2.3685
    -6      14.512016       8.724630      26.097166      6.5595
    -6       8.569016      -0.973370      14.343166     10.8755
    -6       7.728017       1.126630      14.428167      9.6685
    -6       9.165016      -5.976370      22.174168      8.4205
    -6      13.686016      -5.263370      22.254168      6.1950
    -6      13.877016       8.944631      27.096167      6.4995
    -6      12.880016      -5.307370      17.193167     12.0245
    -7      15.472016       6.118630      22.868166     -3.2390
    -7      16.618017       6.190630      29.550167     -1.8400
    -7      20.678017       4.935630      25.563168     -0.9695
    -7      14.813017       8.811630      25.026167     -2.2140
    -7      10.993016       2.287630      26.765167     -3.3000
    -7      14.052017       0.966630      26.100166     -2.8945
    -7      19.113016       1.220630      27.604168     -0.9705
    -7      16.034016       2.731630      23.912167     -3.3250
    -7      10.857017       6.577630      27.959167     -2.0560
    -7       9.494017       3.463630      21.639168     -4.2685
    -7      10.789017       9.786630      25.500168     -0.9715
    -7      14.840016       6.494630      19.649166     -1.8715
    -7       8.671017       3.594630      18.487167     -2.1885
    -7       9.509016       9.096630      19.641167     -0.9730
    -7      10.391017      -1.625370      26.086166     -2.4190
    -7       4.660017      -1.773370      25.985167     -0.9695
    -7       4.569016       2.557630      27.332167     -0.9680
    -7      14.875017      -4.579370      21.768167     -1.8885
    -7      13.267016      -5.347370      16.886168     -1.9350
    -7       6.954017      -1.202370      16.804167     -1.5235
    -7      11.071016       0.523630      14.355167     -1.5285
    -7      13.461017       0.151630      20.851168     -4.5370
    -7       9.025017      -1.430370      20.607166     -4.2605
    -8      14.386017       5.687630      26.072166      5.7545
    -8      16.303017       4.649630      26.702168      7.2160
    -8      12.821016       4.074630      23.412167      5.8535
    -8      11.879017       5.300630      20.313168      7.2105
    -8      14.967016       5.182630      26.638166      5.8010
    -8      12.613016       4.247630      22.352167      5.8285
    -8      13.423017       5.009630      25.510166      5.6895
    -8      12.579017       4.458630      21.224167      5.7810
    -8       7.903017       1.063630      24.720167      7.0265
    -8      11.517016      -3.053370      22.483168      4.3445
    -8      12.238016      -3.808370      21.025167      4.6035
    -8      12.152017      -3.126370      18.429167      4.4460
    -8      10.771017      -2.113370      17.279167      4.9125

$$$$
Untitled
  RxDock  02242113283D
librxdock.so/0.1.0
 60 65  0  0  0  0  0  0  0  0999 V2000
  -51.4879   -8.2284   21.4221 C   0  0  0  0  0  0
  -51.0756   -8.5951   20.1610 C   0  0  0  0  0  0
  -51.3744   -7.8037   19.0733 C   0  0  0  0  0  0
  -52.0904   -6.6403   19.2586 C   0  0  0  0  0  0
  -52.5044   -6.2726   20.5187 C   0  0  0  0  0  0
  -52.2030   -7.0673   21.6005 C   0  0  0  0  0  0
  -50.9152   -8.2092   17.6800 C   0  0  0  0  0  0
  -49.7202   -7.4027   17.1245 C   0  0  0  0  0  0
  -48.5499   -7.5511   18.0598 N   0  3  0  0  0  0
  -50.1181   -5.9184   16.9534 C   0  0  0  0  0  0
  -49.8696   -5.4953   15.6008 O   0  0  0  0  0  0
  -49.3289   -5.0110   17.9219 C   0  0  0  0  0  0
  -48.9651   -3.6589   17.2690 C   0  0  0  0  0  0
  -48.9424   -2.5552   18.3505 C   0  0  0  0  0  0
  -50.2976   -1.9750   18.7249 C   0  0  0  0  0  0
  -50.6475   -0.7064   18.3157 C   0  0  0  0  0  0
  -51.8728   -0.1785   18.6565 C   0  0  0  0  0  0
  -52.7539   -0.9178   19.4108 C   0  0  0  0  0  0
  -52.4096   -2.1859   19.8227 C   0  0  0  0  0  0
  -51.1845   -2.7117   19.4796 C   0  0  0  0  0  0
  -47.6412   -3.7542   16.6390 N   0  0  0  0  0  0
  -47.2915   -2.5786   15.7615 P   0  0  0  0  0  0
  -46.1326   -1.6807   16.4213 O   0  0  0  0  0  0
  -48.5374   -1.5575   15.6763 O   0  0  0  0  0  0
  -46.8799   -3.0246   14.3831 O   0  0  0  0  0  0
  -44.8126   -2.2311   16.5409 C   0  0  0  0  0  0
  -48.7494   -0.7551   14.5900 C   0  0  0  0  0  0
  -49.9767   -0.1656   14.3471 C   0  0  0  0  0  0
  -50.1567    0.6397   13.2472 C   0  0  0  0  0  0
  -49.1119    0.8654   12.3803 C   0  0  0  0  0  0
  -47.8873    0.2825   12.6141 C   0  0  0  0  0  0
  -47.7079   -0.5249   13.7119 C   0  0  0  0  0  0
  -44.1499   -1.7161   17.8290 C   0  0  0  0  0  0
  -44.9378   -2.0363   18.9883 O   0  0  0  0  0  0
  -44.8154   -0.9973   19.9779 C   0  0  0  0  0  0
  -43.9015    0.0837   19.3535 C   0  0  0  0  0  0
  -43.9747   -0.1909   17.8459 C   0  0  0  0  0  0
  -45.1126    0.4839   17.2874 O   0  0  0  0  0  0
  -44.3025    1.4256   19.6724 O   0  0  0  0  0  0
  -46.2453   -0.5653   20.2844 C   0  0  0  0  0  0
  -44.1807   -1.5695   21.1722 C   0  0  0  0  0  0
  -43.6885   -2.0127   22.0962 N   0  0  0  0  0  0
  -46.7800    0.5374   19.7075 N   0  0  0  0  0  0
  -48.0437    0.6217   20.2012 C   0  0  0  0  0  0
  -48.3029   -0.3934   21.0650 C   0  0  0  0  0  0
  -47.1327   -1.1560   21.1145 C   0  0  0  0  0  0
  -46.3056    1.4628   18.8223 N   0  0  0  0  0  0
  -47.1113    2.4342   18.4637 C   0  0  0  0  0  0
  -48.4019    2.6171   18.8923 N   0  0  0  0  0  0
  -48.8524    1.7011   19.7604 C   0  0  0  0  0  0
  -50.1422    1.8485   20.2136 N   0  0  0  0  0  0
  -48.3128   -8.4221   18.1692 H   0  0  0  0  0  0
  -47.8145   -7.1132   17.7492 H   0  0  0  0  0  0
  -48.7199   -7.2103   18.8841 H   0  0  0  0  0  0
  -48.9193   -5.6812   15.3296 H   0  0  0  0  0  0
  -47.5606   -4.6354   16.1152 H   0  0  0  0  0  0
  -44.9696    1.4798   17.2592 H   0  0  0  0  0  0
  -44.3579    1.5645   20.6670 H   0  0  0  0  0  0
  -50.6310    2.5231   19.9291 H   0  0  0  0  0  0
  -50.4827    1.2719   20.7856 H   0  0  0  0  0  0
  1  2  2  0  0  0
  2  3  1  0  0  0
  3  4  2  0  0  0
  3  7  1  0  0  0
  4  5  1  0  0  0
  5  6  2  0  0  0
  6  1  1  0  0  0
  7  8  1  0  0  0
  8  9  1  0  0  0
  8 10  1  0  0  0
 10 11  1  0  0  0
 10 12  1  0  0  0
 12 13  1  0  0  0
 13 14  1  0  0  0
 13 21  1  0  0  0
 14 15  1  0  0  0
 15 16  2  0  0  0
 16 17  1  0  0  0
 17 18  2  0  0  0
 18 19  1  0  0  0
 19 20  2  0  0  0
 20 15  1  0  0  0
 21 22  1  0  0  0
 22 23  1  0  0  0
 22 24  1  0  0  0
 22 25  2  0  0  0
 23 26  1  0  0  0
 24 27  1  0  0  0
 27 28  2  0  0  0
 28 29  1  0  0  0
 29 30  2  0  0  0
 30 31  1  0  0  0
 31 32  2  0  0  0
 32 27  1  0  0  0
 33 26  1  0  0  0
 33 34  1  0  0  0
 34 35  1  0  0  0
 35 36  1  0  0  0
 35 40  1  0  0  0
 35 41  1  0  0  0
 36 37  1  0  0  0
 36 39  1  0  0  0
 37 33  1  0  0  0
 37 38  1  0  0  0
 40 43  1  0  0  0
 41 42  3  0  0  0
 43 44  1  0  0  0
 43 47  1  0  0  0
 44 45  2  0  0  0
 45 46  1  0  0  0
 46 40  2  0  0  0
 47 48  2  0  0  0
 48 49  1  0  0  0
 49 50  2  0  0  0
 50 44  1  0  0  0
 50 51  1  0  0  0
  9 52  1  0  0  0
  9 53  1  0  0  0
  9 54  1  0  0  0
 11 55  1  0  0  0
 21 56  1  0  0  0
 38 57  1  0  0  0
 39 58  1  0  0  0
 51 59  1  0  0  0
 51 60  1  0  0  0
M  END
>  <#Atoms_cresset>
51

>  <#RB_cresset>
18

>  <BioMolTech Lead Finder LE>
-0.172

>  <BioMolTech Lead Finder Pose rank>
0

>  <BioMolTech Lead Finder Rank score>
-13.57

>  <BioMolTech Lead Finder SDF id>
0

>  <BioMolTech Lead Finder Structure Name>
/var/folders/xd/y7jw_xv579q2qqq7kks92xd80000gn/T/LeadFinder_21448_1/Ligand_1.sdf

>  <BioMolTech Lead Finder VSscore>
-13.341

>  <BioMolTech Lead Finder dG>
-8.761

>  <BioMolTech Lead Finder version>
2001 1, 19 January 2019

>  <CHROM.0>
173.24731015,-178.40199045,-170.61449688

>  <CHROM.1>
-104.99304253,58.59966271,58.15039247,-125.13317631,-54.01377111,143.07862181
148.00842262,-81.64559320,169.52770773,-107.03975503,109.86227848,67.67509641
-151.83353667,-145.41877452,161.91036198,57.20861178,-98.74479897,55.81015280
-177.08881147,-48.29446303,-2.19187569,18.02807423,-2.71119651,-0.91088468
-1.18427810

>  <Confs_cresset>
0

>  <Favorite_cresset>
false

>  <Filename_cresset>
VTRRT-13V2.1.sdf

>  <Flexibility_cresset>
17.1

>  <LF LE>
-0.172

>  <LF Rank Score>
-13.57

>  <LF VSscore>
-13.341

>  <LF dG>
-8.761

>  <MW_cresset>
714.7

>  <Name>
Untitled

>  <Poses_cresset>
10

>  <Preferred Pose_cresset>
true

>  <Protein_cresset>
6Y2F_P

>  <RI>
-1.06272e+09

>  <Rbt.Current_Directory>
/root/miniconda3/envs/rdock/share/rxdock-2013.1.1_148c5bd1-0/data/ligands/prepped_ligands/VTRRT

>  <Rbt.Executable>
rbdock/0.1.0

>  <Rbt.Library>
librxdock.so/0.1.0

>  <Rbt.Parameter_File>
/root/miniconda3/envs/rdock/share/rxdock-2013.1.1_148c5bd1-0/data/scripts/dock.prm

>  <Rbt.Receptor>
def.prm

>  <Rof5_cresset>
3

>  <SCORE>
-15.8939

>  <SCORE.INTER>
-13.9271

>  <SCORE.INTER.CONST>
1

>  <SCORE.INTER.POLAR>
-1.19466

>  <SCORE.INTER.REPUL>
0.221057

>  <SCORE.INTER.ROT>
15

>  <SCORE.INTER.VDW>
-31.3705

>  <SCORE.INTER.norm>
-0.27308

>  <SCORE.INTRA>
-2.0511

>  <SCORE.INTRA.DIHEDRAL>
-17.5063

>  <SCORE.INTRA.DIHEDRAL.0>
43.3056

>  <SCORE.INTRA.POLAR>
0

>  <SCORE.INTRA.POLAR.0>
0

>  <SCORE.INTRA.REPUL>
-0.633407

>  <SCORE.INTRA.REPUL.0>
1.18384

>  <SCORE.INTRA.VDW>
9.86908

>  <SCORE.INTRA.VDW.0>
-7.21879

>  <SCORE.INTRA.norm>
-0.0402176

>  <SCORE.RESTR>
0.966092

>  <SCORE.RESTR.CAVITY>
0.966092

>  <SCORE.RESTR.norm>
0.018943

>  <SCORE.SYSTEM>
-0.881844

>  <SCORE.SYSTEM.CONST>
0

>  <SCORE.SYSTEM.DIHEDRAL>
0.334666

>  <SCORE.SYSTEM.POLAR>
-0.0175021

>  <SCORE.SYSTEM.VDW>
-0.98967

>  <SCORE.SYSTEM.norm>
-0.0172911

>  <SCORE.heavy>
51

>  <SCORE.norm>
-0.311646

>  <SlogP_cresset>
4

>  <TPSA_cresset>
225.1

>  <_cresset_fieldpoints>
    -5      16.836018       5.832630      29.221167     -3.6840
    -5      12.689775      -0.157515      20.961832    -26.5835
    -5      10.603017       0.175630      26.550167     -8.1895
    -5      16.438017       3.291630      24.075167     -2.5740
    -5      10.777017       2.958630      26.544167    -13.1420
    -5      14.325016       6.363630      19.343166     -3.9175
    -5      10.138498      -1.142644      20.673992    -19.3483
    -5       8.999017       3.081630      18.875168    -11.2330
    -5      16.643017      -2.580370      18.078167    -12.9950
    -5       9.665886      -1.797647      20.491711    -20.2282
    -5       9.721017       2.679630      21.897167    -10.3470
    -5       9.495016      -3.987370      19.277166    -12.3125
    -6       9.544017       6.999630      25.870167     13.2990
    -6      11.781016       8.517631      22.930166      7.7900
    -6      14.607017       1.112630      25.440166      7.0810
    -6      15.386017       0.918630      28.446167      2.3985
    -6      18.624016       1.298630      27.807167      2.3740
    -6      20.392017       2.874630      26.722168      2.3035
    -6      17.648016       0.730630      28.195168      2.3685
    -6      14.512016       8.724630      26.097166      6.5595
    -6       8.569016      -0.973370      14.343166     10.8755
    -6       7.728017       1.126630      14.428167      9.6685
    -6       9.165016      -5.976370      22.174168      8.4205
    -6      13.686016      -5.263370      22.254168      6.1950
    -6      13.877016       8.944631      27.096167      6.4995
    -6      12.880016      -5.307370      17.193167     12.0245
    -7      15.472016       6.118630      22.868166     -3.2390
    -7      16.618017       6.190630      29.550167     -1.8400
    -7      20.678017       4.935630      25.563168     -0.9695
    -7      14.813017       8.811630      25.026167     -2.2140
    -7      10.993016       2.287630      26.765167     -3.3000
    -7      14.052017       0.966630      26.100166     -2.8945
    -7      19.113016       1.220630      27.604168     -0.9705
    -7      16.034016       2.731630      23.912167     -3.3250
    -7      10.857017       6.577630      27.959167     -2.0560
    -7       9.494017       3.463630      21.639168     -4.2685
    -7      10.789017       9.786630      25.500168     -0.9715
    -7      14.840016       6.494630      19.649166     -1.8715
    -7       8.671017       3.594630      18.487167     -2.1885
    -7       9.509016       9.096630      19.641167     -0.9730
    -7      10.391017      -1.625370      26.086166     -2.4190
    -7       4.660017      -1.773370      25.985167     -0.9695
    -7       4.569016       2.557630      27.332167     -0.9680
    -7      14.875017      -4.579370      21.768167     -1.8885
    -7      13.267016      -5.347370      16.886168     -1.9350
    -7       6.954017      -1.202370      16.804167     -1.5235
    -7      11.071016       0.523630      14.355167     -1.5285
    -7      13.461017       0.151630      20.851168     -4.5370
    -7       9.025017      -1.430370      20.607166     -4.2605
    -8      14.386017       5.687630      26.072166      5.7545
    -8      16.303017       4.649630      26.702168      7.2160
    -8      12.821016       4.074630      23.412167      5.8535
    -8      11.879017       5.300630      20.313168      7.2105
    -8      14.967016       5.182630      26.638166      5.8010
    -8      12.613016       4.247630      22.352167      5.8285
    -8      13.423017       5.009630      25.510166      5.6895
    -8      12.579017       4.458630      21.224167      5.7810
    -8       7.903017       1.063630      24.720167      7.0265
    -8      11.517016      -3.053370      22.483168      4.3445
    -8      12.238016      -3.808370      21.025167      4.6035
    -8      12.152017      -3.126370      18.429167      4.4460
    -8      10.771017      -2.113370      17.279167      4.9125

$$$$
