Untitled
  RxDock  02242101403D
librxdock.so/0.1.0
 60 65  0  0  0  0  0  0  0  0999 V2000
  -49.8960   -9.4584   20.4057 C   0  0  0  0  0  0
  -49.5528   -8.9566   19.1706 C   0  0  0  0  0  0
  -50.3394   -8.0016   18.5641 C   0  0  0  0  0  0
  -51.4742   -7.5522   19.2051 C   0  0  0  0  0  0
  -51.8195   -8.0536   20.4395 C   0  0  0  0  0  0
  -51.0300   -9.0072   21.0395 C   0  0  0  0  0  0
  -49.9568   -7.4457   17.1999 C   0  0  0  0  0  0
  -50.4842   -6.0246   16.9012 C   0  0  0  0  0  0
  -50.6816   -5.8758   15.4162 N   0  3  0  0  0  0
  -49.4946   -4.9683   17.4451 C   0  0  0  0  0  0
  -48.9250   -5.4212   18.6863 O   0  0  0  0  0  0
  -50.1932   -3.6103   17.6731 C   0  0  0  0  0  0
  -50.8760   -3.0964   16.3862 C   0  0  0  0  0  0
  -52.4054   -3.0425   16.6017 C   0  0  0  0  0  0
  -53.1735   -4.2815   16.1677 C   0  0  0  0  0  0
  -53.4329   -5.2899   17.0705 C   0  0  0  0  0  0
  -54.1254   -6.4137   16.6783 C   0  0  0  0  0  0
  -54.5604   -6.5345   15.3792 C   0  0  0  0  0  0
  -54.3040   -5.5301   14.4727 C   0  0  0  0  0  0
  -53.6125   -4.4072   14.8676 C   0  0  0  0  0  0
  -50.3791   -1.7512   16.0661 N   0  0  0  0  0  0
  -49.2961   -1.7290   15.0168 P   0  0  0  0  0  0
  -48.2022   -0.5930   15.3295 O   0  0  0  0  0  0
  -49.9057   -1.2647   13.5974 O   0  0  0  0  0  0
  -48.6265   -3.0720   14.8892 O   0  0  0  0  0  0
  -47.5309   -0.6074   16.5979 C   0  0  0  0  0  0
  -49.5197   -0.1067   12.9819 C   0  0  0  0  0  0
  -48.2388    0.0659   12.4898 C   0  0  0  0  0  0
  -47.8829    1.2418   11.8721 C   0  0  0  0  0  0
  -48.8036    2.2559   11.7386 C   0  0  0  0  0  0
  -50.0803    2.0929   12.2257 C   0  0  0  0  0  0
  -50.4357    0.9187   12.8457 C   0  0  0  0  0  0
  -48.1372    0.4641   17.5186 C   0  0  0  0  0  0
  -47.1137    1.2391   18.1661 O   0  0  0  0  0  0
  -47.5413    1.6286   19.4849 C   0  0  0  0  0  0
  -48.9405    0.9993   19.6851 C   0  0  0  0  0  0
  -48.9948   -0.1281   18.6459 C   0  0  0  0  0  0
  -48.4082   -1.3185   19.1947 O   0  0  0  0  0  0
  -49.1622    0.5095   21.0170 O   0  0  0  0  0  0
  -46.4469    1.1327   20.4238 C   0  0  0  0  0  0
  -47.6338    3.0936   19.5265 C   0  0  0  0  0  0
  -47.7061    4.2278   19.5580 N   0  0  0  0  0  0
  -45.6830    0.0618   20.1010 N   0  0  0  0  0  0
  -44.8300   -0.0969   21.1475 C   0  0  0  0  0  0
  -45.0461    0.8415   22.1047 C   0  0  0  0  0  0
  -46.0958    1.6322   21.6290 C   0  0  0  0  0  0
  -45.6441   -0.7794   19.0259 N   0  0  0  0  0  0
  -44.7549   -1.7439   19.0368 C   0  0  0  0  0  0
  -43.8451   -1.9968   20.0323 N   0  0  0  0  0  0
  -43.8960   -1.1631   21.0801 C   0  0  0  0  0  0
  -42.9995   -1.3823   22.0993 N   0  0  0  0  0  0
  -49.8903   -5.7886   14.9769 H   0  0  0  0  0  0
  -51.1045   -6.5991   15.0597 H   0  0  0  0  0  0
  -51.1903   -5.1538   15.2050 H   0  0  0  0  0  0
  -49.6272   -5.5028   19.4014 H   0  0  0  0  0  0
  -50.0652   -1.2763   16.9224 H   0  0  0  0  0  0
  -48.3842   -2.0608   18.5155 H   0  0  0  0  0  0
  -49.1871    1.2618   21.6842 H   0  0  0  0  0  0
  -42.4258   -2.0474   22.0412 H   0  0  0  0  0  0
  -42.9949   -0.8611   22.8092 H   0  0  0  0  0  0
  1  2  2  0  0  0
  2  3  1  0  0  0
  3  4  2  0  0  0
  3  7  1  0  0  0
  4  5  1  0  0  0
  5  6  2  0  0  0
  6  1  1  0  0  0
  7  8  1  0  0  0
  8  9  1  0  0  0
  8 10  1  0  0  0
 10 11  1  0  0  0
 10 12  1  0  0  0
 12 13  1  0  0  0
 13 14  1  0  0  0
 13 21  1  0  0  0
 14 15  1  0  0  0
 15 16  2  0  0  0
 16 17  1  0  0  0
 17 18  2  0  0  0
 18 19  1  0  0  0
 19 20  2  0  0  0
 20 15  1  0  0  0
 21 22  1  0  0  0
 22 23  1  0  0  0
 22 24  1  0  0  0
 22 25  2  0  0  0
 23 26  1  0  0  0
 24 27  1  0  0  0
 27 28  2  0  0  0
 28 29  1  0  0  0
 29 30  2  0  0  0
 30 31  1  0  0  0
 31 32  2  0  0  0
 32 27  1  0  0  0
 33 26  1  0  0  0
 33 34  1  0  0  0
 34 35  1  0  0  0
 35 36  1  0  0  0
 35 40  1  0  0  0
 35 41  1  0  0  0
 36 37  1  0  0  0
 36 39  1  0  0  0
 37 33  1  0  0  0
 37 38  1  0  0  0
 40 43  1  0  0  0
 41 42  3  0  0  0
 43 44  1  0  0  0
 43 47  1  0  0  0
 44 45  2  0  0  0
 45 46  1  0  0  0
 46 40  2  0  0  0
 47 48  2  0  0  0
 48 49  1  0  0  0
 49 50  2  0  0  0
 50 44  1  0  0  0
 50 51  1  0  0  0
  9 52  1  0  0  0
  9 53  1  0  0  0
  9 54  1  0  0  0
 11 55  1  0  0  0
 21 56  1  0  0  0
 38 57  1  0  0  0
 39 58  1  0  0  0
 51 59  1  0  0  0
 51 60  1  0  0  0
M  END
>  <#Atoms_cresset>
51

>  <#RB_cresset>
18

>  <BioMolTech Lead Finder LE>
-0.172

>  <BioMolTech Lead Finder Pose rank>
0

>  <BioMolTech Lead Finder Rank score>
-13.57

>  <BioMolTech Lead Finder SDF id>
0

>  <BioMolTech Lead Finder Structure Name>
/var/folders/xd/y7jw_xv579q2qqq7kks92xd80000gn/T/LeadFinder_21448_1/Ligand_1.sdf

>  <BioMolTech Lead Finder VSscore>
-13.341

>  <BioMolTech Lead Finder dG>
-8.761

>  <BioMolTech Lead Finder version>
2001 1, 19 January 2019

>  <CHROM.0>
72.40610324,174.18175091,74.51862802

>  <CHROM.1>
-154.14050396,-151.01833319,-74.33475064,-36.67277578,-64.56478071,-56.09967556
115.41097452,-93.11603469,98.68314235,92.53934235,-143.79381533,56.10863724
115.71232678,-102.43645980,66.87157584,-133.41312577,-27.28527987,66.48298662
-65.43103880,-49.04023018,-2.29923792,17.48500762,-2.65263802,-0.85426110
-0.70554177

>  <Confs_cresset>
0

>  <Favorite_cresset>
false

>  <Filename_cresset>
VTRRT-13V2.1.sdf

>  <Flexibility_cresset>
17.1

>  <LF LE>
-0.172

>  <LF Rank Score>
-13.57

>  <LF VSscore>
-13.341

>  <LF dG>
-8.761

>  <MW_cresset>
714.7

>  <Name>
Untitled

>  <Poses_cresset>
10

>  <Preferred Pose_cresset>
true

>  <Protein_cresset>
6Y2F_P

>  <RI>
-2.49597e+08

>  <Rbt.Current_Directory>
/root/miniconda3/envs/rdock/share/rxdock-2013.1.1_148c5bd1-0/data/ligands/prepped_ligands/VTRRT

>  <Rbt.Executable>
rbdock/0.1.0

>  <Rbt.Library>
librxdock.so/0.1.0

>  <Rbt.Parameter_File>
/root/miniconda3/envs/rdock/share/rxdock-2013.1.1_148c5bd1-0/data/scripts/dock.prm

>  <Rbt.Receptor>
def.prm

>  <Rof5_cresset>
3

>  <SCORE>
-21.8061

>  <SCORE.INTER>
-13.0852

>  <SCORE.INTER.CONST>
1

>  <SCORE.INTER.POLAR>
-1.31617

>  <SCORE.INTER.REPUL>
0.719273

>  <SCORE.INTER.ROT>
15

>  <SCORE.INTER.VDW>
-32.6065

>  <SCORE.INTER.norm>
-0.256572

>  <SCORE.INTRA>
-9.54342

>  <SCORE.INTRA.DIHEDRAL>
-6.25589

>  <SCORE.INTRA.DIHEDRAL.0>
43.3056

>  <SCORE.INTRA.POLAR>
0

>  <SCORE.INTRA.POLAR.0>
0

>  <SCORE.INTRA.REPUL>
-1.18384

>  <SCORE.INTRA.REPUL.0>
1.18384

>  <SCORE.INTRA.VDW>
-0.496294

>  <SCORE.INTRA.VDW.0>
-7.21879

>  <SCORE.INTRA.norm>
-0.187126

>  <SCORE.RESTR>
1.22113

>  <SCORE.RESTR.CAVITY>
1.22113

>  <SCORE.RESTR.norm>
0.0239437

>  <SCORE.SYSTEM>
-0.398606

>  <SCORE.SYSTEM.CONST>
0

>  <SCORE.SYSTEM.DIHEDRAL>
1.00877

>  <SCORE.SYSTEM.POLAR>
-0.0187083

>  <SCORE.SYSTEM.VDW>
-0.839385

>  <SCORE.SYSTEM.norm>
-0.0078158

>  <SCORE.heavy>
51

>  <SCORE.norm>
-0.42757

>  <SlogP_cresset>
4

>  <TPSA_cresset>
225.1

>  <_cresset_fieldpoints>
    -5      16.836018       5.832630      29.221167     -3.6840
    -5      12.689775      -0.157515      20.961832    -26.5835
    -5      10.603017       0.175630      26.550167     -8.1895
    -5      16.438017       3.291630      24.075167     -2.5740
    -5      10.777017       2.958630      26.544167    -13.1420
    -5      14.325016       6.363630      19.343166     -3.9175
    -5      10.138498      -1.142644      20.673992    -19.3483
    -5       8.999017       3.081630      18.875168    -11.2330
    -5      16.643017      -2.580370      18.078167    -12.9950
    -5       9.665886      -1.797647      20.491711    -20.2282
    -5       9.721017       2.679630      21.897167    -10.3470
    -5       9.495016      -3.987370      19.277166    -12.3125
    -6       9.544017       6.999630      25.870167     13.2990
    -6      11.781016       8.517631      22.930166      7.7900
    -6      14.607017       1.112630      25.440166      7.0810
    -6      15.386017       0.918630      28.446167      2.3985
    -6      18.624016       1.298630      27.807167      2.3740
    -6      20.392017       2.874630      26.722168      2.3035
    -6      17.648016       0.730630      28.195168      2.3685
    -6      14.512016       8.724630      26.097166      6.5595
    -6       8.569016      -0.973370      14.343166     10.8755
    -6       7.728017       1.126630      14.428167      9.6685
    -6       9.165016      -5.976370      22.174168      8.4205
    -6      13.686016      -5.263370      22.254168      6.1950
    -6      13.877016       8.944631      27.096167      6.4995
    -6      12.880016      -5.307370      17.193167     12.0245
    -7      15.472016       6.118630      22.868166     -3.2390
    -7      16.618017       6.190630      29.550167     -1.8400
    -7      20.678017       4.935630      25.563168     -0.9695
    -7      14.813017       8.811630      25.026167     -2.2140
    -7      10.993016       2.287630      26.765167     -3.3000
    -7      14.052017       0.966630      26.100166     -2.8945
    -7      19.113016       1.220630      27.604168     -0.9705
    -7      16.034016       2.731630      23.912167     -3.3250
    -7      10.857017       6.577630      27.959167     -2.0560
    -7       9.494017       3.463630      21.639168     -4.2685
    -7      10.789017       9.786630      25.500168     -0.9715
    -7      14.840016       6.494630      19.649166     -1.8715
    -7       8.671017       3.594630      18.487167     -2.1885
    -7       9.509016       9.096630      19.641167     -0.9730
    -7      10.391017      -1.625370      26.086166     -2.4190
    -7       4.660017      -1.773370      25.985167     -0.9695
    -7       4.569016       2.557630      27.332167     -0.9680
    -7      14.875017      -4.579370      21.768167     -1.8885
    -7      13.267016      -5.347370      16.886168     -1.9350
    -7       6.954017      -1.202370      16.804167     -1.5235
    -7      11.071016       0.523630      14.355167     -1.5285
    -7      13.461017       0.151630      20.851168     -4.5370
    -7       9.025017      -1.430370      20.607166     -4.2605
    -8      14.386017       5.687630      26.072166      5.7545
    -8      16.303017       4.649630      26.702168      7.2160
    -8      12.821016       4.074630      23.412167      5.8535
    -8      11.879017       5.300630      20.313168      7.2105
    -8      14.967016       5.182630      26.638166      5.8010
    -8      12.613016       4.247630      22.352167      5.8285
    -8      13.423017       5.009630      25.510166      5.6895
    -8      12.579017       4.458630      21.224167      5.7810
    -8       7.903017       1.063630      24.720167      7.0265
    -8      11.517016      -3.053370      22.483168      4.3445
    -8      12.238016      -3.808370      21.025167      4.6035
    -8      12.152017      -3.126370      18.429167      4.4460
    -8      10.771017      -2.113370      17.279167      4.9125

$$$$
Untitled
  RxDock  02242101403D
librxdock.so/0.1.0
 60 65  0  0  0  0  0  0  0  0999 V2000
  -52.1124   -6.5636   20.8338 C   0  0  0  0  0  0
  -52.6653   -5.3030   20.8461 C   0  0  0  0  0  0
  -51.9059   -4.2064   20.5008 C   0  0  0  0  0  0
  -50.5863   -4.3821   20.1425 C   0  0  0  0  0  0
  -50.0315   -5.6416   20.1307 C   0  0  0  0  0  0
  -50.7951   -6.7325   20.4767 C   0  0  0  0  0  0
  -52.5197   -2.8136   20.5120 C   0  0  0  0  0  0
  -52.3084   -1.9951   19.2189 C   0  0  0  0  0  0
  -52.7155   -2.8320   18.0355 N   0  3  0  0  0  0
  -50.8317   -1.5496   19.1106 C   0  0  0  0  0  0
  -50.5636   -0.5008   20.0584 O   0  0  0  0  0  0
  -50.5008   -1.0456   17.6891 C   0  0  0  0  0  0
  -50.0693   -2.2016   16.7595 C   0  0  0  0  0  0
  -50.6523   -1.9707   15.3470 C   0  0  0  0  0  0
  -50.1583   -2.9234   14.2691 C   0  0  0  0  0  0
  -50.4023   -4.2758   14.3722 C   0  0  0  0  0  0
  -49.9528   -5.1400   13.3988 C   0  0  0  0  0  0
  -49.2549   -4.6546   12.3176 C   0  0  0  0  0  0
  -49.0081   -3.3041   12.2095 C   0  0  0  0  0  0
  -49.4594   -2.4422   13.1834 C   0  0  0  0  0  0
  -48.6030   -2.2523   16.6814 N   0  0  0  0  0  0
  -48.0023   -3.5279   17.2167 P   0  0  0  0  0  0
  -46.4167   -3.5819   16.9559 O   0  0  0  0  0  0
  -48.5506   -4.7946   16.3818 O   0  0  0  0  0  0
  -48.2920   -3.6984   18.6848 O   0  0  0  0  0  0
  -45.6925   -2.3494   16.8303 C   0  0  0  0  0  0
  -48.7451   -6.0188   16.9583 C   0  0  0  0  0  0
  -47.7631   -6.6338   17.7134 C   0  0  0  0  0  0
  -47.9914   -7.8642   18.2833 C   0  0  0  0  0  0
  -49.2035   -8.4913   18.1057 C   0  0  0  0  0  0
  -50.1862   -7.8868   17.3555 C   0  0  0  0  0  0
  -49.9573   -6.6582   16.7833 C   0  0  0  0  0  0
  -44.5711   -2.2965   17.8807 C   0  0  0  0  0  0
  -45.0754   -1.8964   19.1664 O   0  0  0  0  0  0
  -44.0866   -1.1230   19.8720 C   0  0  0  0  0  0
  -42.8770   -0.9986   18.9155 C   0  0  0  0  0  0
  -43.4659   -1.2905   17.5291 C   0  0  0  0  0  0
  -44.0019   -0.0819   16.9686 O   0  0  0  0  0  0
  -42.2384    0.2870   18.9649 O   0  0  0  0  0  0
  -44.7847    0.1826   20.2371 C   0  0  0  0  0  0
  -43.7017   -1.8598   21.0827 C   0  0  0  0  0  0
  -43.4034   -2.4309   22.0193 N   0  0  0  0  0  0
  -45.7383    0.7122   19.4342 N   0  0  0  0  0  0
  -46.1330    1.8555   20.0545 C   0  0  0  0  0  0
  -45.4512    2.0471   21.2129 C   0  0  0  0  0  0
  -44.5789    0.9605   21.3224 C   0  0  0  0  0  0
  -46.2920    0.3271   18.2466 N   0  0  0  0  0  0
  -47.2183    1.0968   17.7264 C   0  0  0  0  0  0
  -47.6961    2.2660   18.2624 N   0  0  0  0  0  0
  -47.1429    2.6303   19.4273 C   0  0  0  0  0  0
  -47.5953    3.7965   19.9981 N   0  0  0  0  0  0
  -52.3983   -3.6819   18.0972 H   0  0  0  0  0  0
  -53.6212   -2.8918   17.9624 H   0  0  0  0  0  0
  -52.4188   -2.4878   17.2493 H   0  0  0  0  0  0
  -50.6403   -0.8353   21.0036 H   0  0  0  0  0  0
  -48.1945   -1.4335   17.1505 H   0  0  0  0  0  0
  -43.3907    0.7004   17.1342 H   0  0  0  0  0  0
  -41.8956    0.4901   19.8884 H   0  0  0  0  0  0
  -48.2234    4.2647   19.5965 H   0  0  0  0  0  0
  -47.2617    4.0774   20.7632 H   0  0  0  0  0  0
  1  2  2  0  0  0
  2  3  1  0  0  0
  3  4  2  0  0  0
  3  7  1  0  0  0
  4  5  1  0  0  0
  5  6  2  0  0  0
  6  1  1  0  0  0
  7  8  1  0  0  0
  8  9  1  0  0  0
  8 10  1  0  0  0
 10 11  1  0  0  0
 10 12  1  0  0  0
 12 13  1  0  0  0
 13 14  1  0  0  0
 13 21  1  0  0  0
 14 15  1  0  0  0
 15 16  2  0  0  0
 16 17  1  0  0  0
 17 18  2  0  0  0
 18 19  1  0  0  0
 19 20  2  0  0  0
 20 15  1  0  0  0
 21 22  1  0  0  0
 22 23  1  0  0  0
 22 24  1  0  0  0
 22 25  2  0  0  0
 23 26  1  0  0  0
 24 27  1  0  0  0
 27 28  2  0  0  0
 28 29  1  0  0  0
 29 30  2  0  0  0
 30 31  1  0  0  0
 31 32  2  0  0  0
 32 27  1  0  0  0
 33 26  1  0  0  0
 33 34  1  0  0  0
 34 35  1  0  0  0
 35 36  1  0  0  0
 35 40  1  0  0  0
 35 41  1  0  0  0
 36 37  1  0  0  0
 36 39  1  0  0  0
 37 33  1  0  0  0
 37 38  1  0  0  0
 40 43  1  0  0  0
 41 42  3  0  0  0
 43 44  1  0  0  0
 43 47  1  0  0  0
 44 45  2  0  0  0
 45 46  1  0  0  0
 46 40  2  0  0  0
 47 48  2  0  0  0
 48 49  1  0  0  0
 49 50  2  0  0  0
 50 44  1  0  0  0
 50 51  1  0  0  0
  9 52  1  0  0  0
  9 53  1  0  0  0
  9 54  1  0  0  0
 11 55  1  0  0  0
 21 56  1  0  0  0
 38 57  1  0  0  0
 39 58  1  0  0  0
 51 59  1  0  0  0
 51 60  1  0  0  0
M  END
>  <#Atoms_cresset>
51

>  <#RB_cresset>
18

>  <BioMolTech Lead Finder LE>
-0.172

>  <BioMolTech Lead Finder Pose rank>
0

>  <BioMolTech Lead Finder Rank score>
-13.57

>  <BioMolTech Lead Finder SDF id>
0

>  <BioMolTech Lead Finder Structure Name>
/var/folders/xd/y7jw_xv579q2qqq7kks92xd80000gn/T/LeadFinder_21448_1/Ligand_1.sdf

>  <BioMolTech Lead Finder VSscore>
-13.341

>  <BioMolTech Lead Finder dG>
-8.761

>  <BioMolTech Lead Finder version>
2001 1, 19 January 2019

>  <CHROM.0>
-52.74946861,-167.94942987,24.31810747

>  <CHROM.1>
-129.08737103,50.58824976,-44.51484914,-73.10978429,65.84693377,-87.29054645
141.56202590,171.90986065,117.22075141,62.00022614,173.86606943,26.15326356
-147.06829377,122.61320538,-50.61282994,-80.84024900,-32.25388668,59.78565508
153.44919654,-48.05049596,-2.51547877,18.12995096,2.48135310,-0.55017376
-2.19169602

>  <Confs_cresset>
0

>  <Favorite_cresset>
false

>  <Filename_cresset>
VTRRT-13V2.1.sdf

>  <Flexibility_cresset>
17.1

>  <LF LE>
-0.172

>  <LF Rank Score>
-13.57

>  <LF VSscore>
-13.341

>  <LF dG>
-8.761

>  <MW_cresset>
714.7

>  <Name>
Untitled

>  <Poses_cresset>
10

>  <Preferred Pose_cresset>
true

>  <Protein_cresset>
6Y2F_P

>  <RI>
-2.49597e+08

>  <Rbt.Current_Directory>
/root/miniconda3/envs/rdock/share/rxdock-2013.1.1_148c5bd1-0/data/ligands/prepped_ligands/VTRRT

>  <Rbt.Executable>
rbdock/0.1.0

>  <Rbt.Library>
librxdock.so/0.1.0

>  <Rbt.Parameter_File>
/root/miniconda3/envs/rdock/share/rxdock-2013.1.1_148c5bd1-0/data/scripts/dock.prm

>  <Rbt.Receptor>
def.prm

>  <Rof5_cresset>
3

>  <SCORE>
-29.7188

>  <SCORE.INTER>
-15.1223

>  <SCORE.INTER.CONST>
1

>  <SCORE.INTER.POLAR>
-1.85602

>  <SCORE.INTER.REPUL>
0

>  <SCORE.INTER.ROT>
15

>  <SCORE.INTER.VDW>
-29.2118

>  <SCORE.INTER.norm>
-0.296515

>  <SCORE.INTRA>
-16.9868

>  <SCORE.INTRA.DIHEDRAL>
-12.701

>  <SCORE.INTRA.DIHEDRAL.0>
43.3056

>  <SCORE.INTRA.POLAR>
-0.135775

>  <SCORE.INTRA.POLAR.0>
0

>  <SCORE.INTRA.REPUL>
-1.18384

>  <SCORE.INTRA.REPUL.0>
1.18384

>  <SCORE.INTRA.VDW>
-4.25552

>  <SCORE.INTRA.VDW.0>
-7.21879

>  <SCORE.INTRA.norm>
-0.333075

>  <SCORE.RESTR>
1.62454

>  <SCORE.RESTR.CAVITY>
1.62454

>  <SCORE.RESTR.norm>
0.0318538

>  <SCORE.SYSTEM>
0.765788

>  <SCORE.SYSTEM.CONST>
0

>  <SCORE.SYSTEM.DIHEDRAL>
3.15867

>  <SCORE.SYSTEM.VDW>
-0.813544

>  <SCORE.SYSTEM.norm>
0.0150155

>  <SCORE.heavy>
51

>  <SCORE.norm>
-0.582721

>  <SlogP_cresset>
4

>  <TPSA_cresset>
225.1

>  <_cresset_fieldpoints>
    -5      16.836018       5.832630      29.221167     -3.6840
    -5      12.689775      -0.157515      20.961832    -26.5835
    -5      10.603017       0.175630      26.550167     -8.1895
    -5      16.438017       3.291630      24.075167     -2.5740
    -5      10.777017       2.958630      26.544167    -13.1420
    -5      14.325016       6.363630      19.343166     -3.9175
    -5      10.138498      -1.142644      20.673992    -19.3483
    -5       8.999017       3.081630      18.875168    -11.2330
    -5      16.643017      -2.580370      18.078167    -12.9950
    -5       9.665886      -1.797647      20.491711    -20.2282
    -5       9.721017       2.679630      21.897167    -10.3470
    -5       9.495016      -3.987370      19.277166    -12.3125
    -6       9.544017       6.999630      25.870167     13.2990
    -6      11.781016       8.517631      22.930166      7.7900
    -6      14.607017       1.112630      25.440166      7.0810
    -6      15.386017       0.918630      28.446167      2.3985
    -6      18.624016       1.298630      27.807167      2.3740
    -6      20.392017       2.874630      26.722168      2.3035
    -6      17.648016       0.730630      28.195168      2.3685
    -6      14.512016       8.724630      26.097166      6.5595
    -6       8.569016      -0.973370      14.343166     10.8755
    -6       7.728017       1.126630      14.428167      9.6685
    -6       9.165016      -5.976370      22.174168      8.4205
    -6      13.686016      -5.263370      22.254168      6.1950
    -6      13.877016       8.944631      27.096167      6.4995
    -6      12.880016      -5.307370      17.193167     12.0245
    -7      15.472016       6.118630      22.868166     -3.2390
    -7      16.618017       6.190630      29.550167     -1.8400
    -7      20.678017       4.935630      25.563168     -0.9695
    -7      14.813017       8.811630      25.026167     -2.2140
    -7      10.993016       2.287630      26.765167     -3.3000
    -7      14.052017       0.966630      26.100166     -2.8945
    -7      19.113016       1.220630      27.604168     -0.9705
    -7      16.034016       2.731630      23.912167     -3.3250
    -7      10.857017       6.577630      27.959167     -2.0560
    -7       9.494017       3.463630      21.639168     -4.2685
    -7      10.789017       9.786630      25.500168     -0.9715
    -7      14.840016       6.494630      19.649166     -1.8715
    -7       8.671017       3.594630      18.487167     -2.1885
    -7       9.509016       9.096630      19.641167     -0.9730
    -7      10.391017      -1.625370      26.086166     -2.4190
    -7       4.660017      -1.773370      25.985167     -0.9695
    -7       4.569016       2.557630      27.332167     -0.9680
    -7      14.875017      -4.579370      21.768167     -1.8885
    -7      13.267016      -5.347370      16.886168     -1.9350
    -7       6.954017      -1.202370      16.804167     -1.5235
    -7      11.071016       0.523630      14.355167     -1.5285
    -7      13.461017       0.151630      20.851168     -4.5370
    -7       9.025017      -1.430370      20.607166     -4.2605
    -8      14.386017       5.687630      26.072166      5.7545
    -8      16.303017       4.649630      26.702168      7.2160
    -8      12.821016       4.074630      23.412167      5.8535
    -8      11.879017       5.300630      20.313168      7.2105
    -8      14.967016       5.182630      26.638166      5.8010
    -8      12.613016       4.247630      22.352167      5.8285
    -8      13.423017       5.009630      25.510166      5.6895
    -8      12.579017       4.458630      21.224167      5.7810
    -8       7.903017       1.063630      24.720167      7.0265
    -8      11.517016      -3.053370      22.483168      4.3445
    -8      12.238016      -3.808370      21.025167      4.6035
    -8      12.152017      -3.126370      18.429167      4.4460
    -8      10.771017      -2.113370      17.279167      4.9125

$$$$
Untitled
  RxDock  02242101413D
librxdock.so/0.1.0
 60 65  0  0  0  0  0  0  0  0999 V2000
  -52.8059   -5.6873   21.0938 C   0  0  0  0  0  0
  -52.3999   -6.9823   20.8633 C   0  0  0  0  0  0
  -51.0745   -7.3318   21.0035 C   0  0  0  0  0  0
  -50.1571   -6.3729   21.3769 C   0  0  0  0  0  0
  -50.5610   -5.0773   21.6068 C   0  0  0  0  0  0
  -51.8859   -4.7348   21.4649 C   0  0  0  0  0  0
  -50.6279   -8.7648   20.7512 C   0  0  0  0  0  0
  -49.7055   -8.9566   19.5268 C   0  0  0  0  0  0
  -48.3928   -8.2673   19.7876 N   0  3  0  0  0  0
  -50.3899   -8.3999   18.2570 C   0  0  0  0  0  0
  -49.6914   -8.8523   17.0833 O   0  0  0  0  0  0
  -50.4190   -6.8562   18.2666 C   0  0  0  0  0  0
  -51.3820   -6.2966   17.1960 C   0  0  0  0  0  0
  -52.7858   -6.9117   17.3949 C   0  0  0  0  0  0
  -53.7161   -6.8260   16.1946 C   0  0  0  0  0  0
  -53.8221   -5.6524   15.4801 C   0  0  0  0  0  0
  -54.6664   -5.5723   14.3951 C   0  0  0  0  0  0
  -55.4104   -6.6668   14.0208 C   0  0  0  0  0  0
  -55.3086   -7.8421   14.7312 C   0  0  0  0  0  0
  -54.4631   -7.9199   15.8147 C   0  0  0  0  0  0
  -51.4658   -4.8351   17.3216 N   0  0  0  0  0  0
  -50.2177   -4.1079   16.8882 P   0  0  0  0  0  0
  -50.1274   -2.6500   17.5601 O   0  0  0  0  0  0
  -50.2858   -3.7768   15.3109 O   0  0  0  0  0  0
  -48.9791   -4.9031   17.2073 O   0  0  0  0  0  0
  -50.3387   -2.5240   18.9740 C   0  0  0  0  0  0
  -49.8264   -2.5981   14.7929 C   0  0  0  0  0  0
  -50.4813   -1.4000   15.0133 C   0  0  0  0  0  0
  -49.9912   -0.2306   14.4812 C   0  0  0  0  0  0
  -48.8413   -0.2464   13.7253 C   0  0  0  0  0  0
  -48.1835   -1.4342   13.5006 C   0  0  0  0  0  0
  -48.6746   -2.6038   14.0299 C   0  0  0  0  0  0
  -49.9535   -1.1081   19.4326 C   0  0  0  0  0  0
  -48.9387   -0.5408   18.5865 O   0  0  0  0  0  0
  -48.0653    0.3082   19.3546 C   0  0  0  0  0  0
  -48.5618    0.2225   20.8174 C   0  0  0  0  0  0
  -49.3831   -1.0727   20.8575 C   0  0  0  0  0  0
  -48.5143   -2.1871   21.1133 O   0  0  0  0  0  0
  -47.4982    0.2109   21.7828 O   0  0  0  0  0  0
  -46.6598   -0.2236   19.0956 C   0  0  0  0  0  0
  -48.1988    1.6822   18.8537 C   0  0  0  0  0  0
  -48.3032    2.7458   18.4661 N   0  0  0  0  0  0
  -46.4586   -1.3128   18.3159 N   0  0  0  0  0  0
  -45.1124   -1.5017   18.3067 C   0  0  0  0  0  0
  -44.4791   -0.5642   19.0575 C   0  0  0  0  0  0
  -45.4885    0.2580   19.5661 C   0  0  0  0  0  0
  -47.2924   -2.1474   17.6280 N   0  0  0  0  0  0
  -46.7500   -3.1359   16.9572 C   0  0  0  0  0  0
  -45.4103   -3.4201   16.8735 N   0  0  0  0  0  0
  -44.6054   -2.5924   17.5538 C   0  0  0  0  0  0
  -43.2548   -2.8428   17.4947 N   0  0  0  0  0  0
  -48.0478   -8.4925   20.5982 H   0  0  0  0  0  0
  -47.7680   -8.4879   19.1630 H   0  0  0  0  0  0
  -48.4664   -7.3625   19.7657 H   0  0  0  0  0  0
  -49.6615   -9.8566   17.0413 H   0  0  0  0  0  0
  -51.7218   -4.5762   18.2833 H   0  0  0  0  0  0
  -48.2335   -2.2176   22.0793 H   0  0  0  0  0  0
  -47.8554    0.2641   22.7215 H   0  0  0  0  0  0
  -42.9567   -3.5229   17.0219 H   0  0  0  0  0  0
  -42.6861   -2.3268   17.9257 H   0  0  0  0  0  0
  1  2  2  0  0  0
  2  3  1  0  0  0
  3  4  2  0  0  0
  3  7  1  0  0  0
  4  5  1  0  0  0
  5  6  2  0  0  0
  6  1  1  0  0  0
  7  8  1  0  0  0
  8  9  1  0  0  0
  8 10  1  0  0  0
 10 11  1  0  0  0
 10 12  1  0  0  0
 12 13  1  0  0  0
 13 14  1  0  0  0
 13 21  1  0  0  0
 14 15  1  0  0  0
 15 16  2  0  0  0
 16 17  1  0  0  0
 17 18  2  0  0  0
 18 19  1  0  0  0
 19 20  2  0  0  0
 20 15  1  0  0  0
 21 22  1  0  0  0
 22 23  1  0  0  0
 22 24  1  0  0  0
 22 25  2  0  0  0
 23 26  1  0  0  0
 24 27  1  0  0  0
 27 28  2  0  0  0
 28 29  1  0  0  0
 29 30  2  0  0  0
 30 31  1  0  0  0
 31 32  2  0  0  0
 32 27  1  0  0  0
 33 26  1  0  0  0
 33 34  1  0  0  0
 34 35  1  0  0  0
 35 36  1  0  0  0
 35 40  1  0  0  0
 35 41  1  0  0  0
 36 37  1  0  0  0
 36 39  1  0  0  0
 37 33  1  0  0  0
 37 38  1  0  0  0
 40 43  1  0  0  0
 41 42  3  0  0  0
 43 44  1  0  0  0
 43 47  1  0  0  0
 44 45  2  0  0  0
 45 46  1  0  0  0
 46 40  2  0  0  0
 47 48  2  0  0  0
 48 49  1  0  0  0
 49 50  2  0  0  0
 50 44  1  0  0  0
 50 51  1  0  0  0
  9 52  1  0  0  0
  9 53  1  0  0  0
  9 54  1  0  0  0
 11 55  1  0  0  0
 21 56  1  0  0  0
 38 57  1  0  0  0
 39 58  1  0  0  0
 51 59  1  0  0  0
 51 60  1  0  0  0
M  END
>  <#Atoms_cresset>
51

>  <#RB_cresset>
18

>  <BioMolTech Lead Finder LE>
-0.172

>  <BioMolTech Lead Finder Pose rank>
0

>  <BioMolTech Lead Finder Rank score>
-13.57

>  <BioMolTech Lead Finder SDF id>
0

>  <BioMolTech Lead Finder Structure Name>
/var/folders/xd/y7jw_xv579q2qqq7kks92xd80000gn/T/LeadFinder_21448_1/Ligand_1.sdf

>  <BioMolTech Lead Finder VSscore>
-13.341

>  <BioMolTech Lead Finder dG>
-8.761

>  <BioMolTech Lead Finder version>
2001 1, 19 January 2019

>  <CHROM.0>
-173.33028319,-60.63526676,-64.25015415

>  <CHROM.1>
113.47959443,66.44224146,49.43272784,-166.44770623,58.13756244,-166.32719640
54.96239187,-161.12111968,71.04094737,-44.73661246,-157.56766692,48.70052982
141.20033392,169.63279034,-70.54547895,-28.21946446,-2.13831598,173.29806107
-173.16294695,-49.58153927,-3.73329889,17.95337207,-2.78493483,-0.82180973
-0.93355772

>  <Confs_cresset>
0

>  <Favorite_cresset>
false

>  <Filename_cresset>
VTRRT-13V2.1.sdf

>  <Flexibility_cresset>
17.1

>  <LF LE>
-0.172

>  <LF Rank Score>
-13.57

>  <LF VSscore>
-13.341

>  <LF dG>
-8.761

>  <MW_cresset>
714.7

>  <Name>
Untitled

>  <Poses_cresset>
10

>  <Preferred Pose_cresset>
true

>  <Protein_cresset>
6Y2F_P

>  <RI>
-2.49597e+08

>  <Rbt.Current_Directory>
/root/miniconda3/envs/rdock/share/rxdock-2013.1.1_148c5bd1-0/data/ligands/prepped_ligands/VTRRT

>  <Rbt.Executable>
rbdock/0.1.0

>  <Rbt.Library>
librxdock.so/0.1.0

>  <Rbt.Parameter_File>
/root/miniconda3/envs/rdock/share/rxdock-2013.1.1_148c5bd1-0/data/scripts/dock.prm

>  <Rbt.Receptor>
def.prm

>  <Rof5_cresset>
3

>  <SCORE>
-39.0989

>  <SCORE.INTER>
-20.1687

>  <SCORE.INTER.CONST>
1

>  <SCORE.INTER.POLAR>
-1.88194

>  <SCORE.INTER.REPUL>
0.00723805

>  <SCORE.INTER.ROT>
15

>  <SCORE.INTER.VDW>
-34.2063

>  <SCORE.INTER.norm>
-0.395464

>  <SCORE.INTRA>
-17.9621

>  <SCORE.INTRA.DIHEDRAL>
-26.1885

>  <SCORE.INTRA.DIHEDRAL.0>
43.3056

>  <SCORE.INTRA.POLAR>
0

>  <SCORE.INTRA.POLAR.0>
0

>  <SCORE.INTRA.REPUL>
-1.12938

>  <SCORE.INTRA.REPUL.0>
1.18384

>  <SCORE.INTRA.VDW>
0.779062

>  <SCORE.INTRA.VDW.0>
-7.21879

>  <SCORE.INTRA.norm>
-0.352198

>  <SCORE.RESTR>
0.01927

>  <SCORE.RESTR.CAVITY>
0.01927

>  <SCORE.RESTR.norm>
0.000377842

>  <SCORE.SYSTEM>
-0.987351

>  <SCORE.SYSTEM.CONST>
0

>  <SCORE.SYSTEM.DIHEDRAL>
0.15383

>  <SCORE.SYSTEM.VDW>
-1.06427

>  <SCORE.SYSTEM.norm>
-0.0193598

>  <SCORE.heavy>
51

>  <SCORE.norm>
-0.766644

>  <SlogP_cresset>
4

>  <TPSA_cresset>
225.1

>  <_cresset_fieldpoints>
    -5      16.836018       5.832630      29.221167     -3.6840
    -5      12.689775      -0.157515      20.961832    -26.5835
    -5      10.603017       0.175630      26.550167     -8.1895
    -5      16.438017       3.291630      24.075167     -2.5740
    -5      10.777017       2.958630      26.544167    -13.1420
    -5      14.325016       6.363630      19.343166     -3.9175
    -5      10.138498      -1.142644      20.673992    -19.3483
    -5       8.999017       3.081630      18.875168    -11.2330
    -5      16.643017      -2.580370      18.078167    -12.9950
    -5       9.665886      -1.797647      20.491711    -20.2282
    -5       9.721017       2.679630      21.897167    -10.3470
    -5       9.495016      -3.987370      19.277166    -12.3125
    -6       9.544017       6.999630      25.870167     13.2990
    -6      11.781016       8.517631      22.930166      7.7900
    -6      14.607017       1.112630      25.440166      7.0810
    -6      15.386017       0.918630      28.446167      2.3985
    -6      18.624016       1.298630      27.807167      2.3740
    -6      20.392017       2.874630      26.722168      2.3035
    -6      17.648016       0.730630      28.195168      2.3685
    -6      14.512016       8.724630      26.097166      6.5595
    -6       8.569016      -0.973370      14.343166     10.8755
    -6       7.728017       1.126630      14.428167      9.6685
    -6       9.165016      -5.976370      22.174168      8.4205
    -6      13.686016      -5.263370      22.254168      6.1950
    -6      13.877016       8.944631      27.096167      6.4995
    -6      12.880016      -5.307370      17.193167     12.0245
    -7      15.472016       6.118630      22.868166     -3.2390
    -7      16.618017       6.190630      29.550167     -1.8400
    -7      20.678017       4.935630      25.563168     -0.9695
    -7      14.813017       8.811630      25.026167     -2.2140
    -7      10.993016       2.287630      26.765167     -3.3000
    -7      14.052017       0.966630      26.100166     -2.8945
    -7      19.113016       1.220630      27.604168     -0.9705
    -7      16.034016       2.731630      23.912167     -3.3250
    -7      10.857017       6.577630      27.959167     -2.0560
    -7       9.494017       3.463630      21.639168     -4.2685
    -7      10.789017       9.786630      25.500168     -0.9715
    -7      14.840016       6.494630      19.649166     -1.8715
    -7       8.671017       3.594630      18.487167     -2.1885
    -7       9.509016       9.096630      19.641167     -0.9730
    -7      10.391017      -1.625370      26.086166     -2.4190
    -7       4.660017      -1.773370      25.985167     -0.9695
    -7       4.569016       2.557630      27.332167     -0.9680
    -7      14.875017      -4.579370      21.768167     -1.8885
    -7      13.267016      -5.347370      16.886168     -1.9350
    -7       6.954017      -1.202370      16.804167     -1.5235
    -7      11.071016       0.523630      14.355167     -1.5285
    -7      13.461017       0.151630      20.851168     -4.5370
    -7       9.025017      -1.430370      20.607166     -4.2605
    -8      14.386017       5.687630      26.072166      5.7545
    -8      16.303017       4.649630      26.702168      7.2160
    -8      12.821016       4.074630      23.412167      5.8535
    -8      11.879017       5.300630      20.313168      7.2105
    -8      14.967016       5.182630      26.638166      5.8010
    -8      12.613016       4.247630      22.352167      5.8285
    -8      13.423017       5.009630      25.510166      5.6895
    -8      12.579017       4.458630      21.224167      5.7810
    -8       7.903017       1.063630      24.720167      7.0265
    -8      11.517016      -3.053370      22.483168      4.3445
    -8      12.238016      -3.808370      21.025167      4.6035
    -8      12.152017      -3.126370      18.429167      4.4460
    -8      10.771017      -2.113370      17.279167      4.9125

$$$$
Untitled
  RxDock  02242101413D
librxdock.so/0.1.0
 60 65  0  0  0  0  0  0  0  0999 V2000
  -51.9991   -8.0075   22.2373 C   0  0  0  0  0  0
  -51.1605   -8.6610   21.3630 C   0  0  0  0  0  0
  -51.1492   -8.3252   20.0267 C   0  0  0  0  0  0
  -51.9857   -7.3282   19.5719 C   0  0  0  0  0  0
  -52.8257   -6.6744   20.4445 C   0  0  0  0  0  0
  -52.8322   -7.0146   21.7775 C   0  0  0  0  0  0
  -50.2191   -9.0468   19.0619 C   0  0  0  0  0  0
  -48.9234   -8.2835   18.7080 C   0  0  0  0  0  0
  -48.5237   -7.4247   19.8782 N   0  3  0  0  0  0
  -49.1418   -7.4328   17.4354 C   0  0  0  0  0  0
  -47.9437   -6.7005   17.1217 O   0  0  0  0  0  0
  -50.3101   -6.4399   17.6183 C   0  0  0  0  0  0
  -50.3048   -5.3450   16.5284 C   0  0  0  0  0  0
  -51.0849   -5.8463   15.2920 C   0  0  0  0  0  0
  -52.5993   -5.8603   15.4327 C   0  0  0  0  0  0
  -53.3521   -4.8135   14.9463 C   0  0  0  0  0  0
  -54.7230   -4.8232   15.0758 C   0  0  0  0  0  0
  -55.3474   -5.8807   15.6949 C   0  0  0  0  0  0
  -54.6003   -6.9294   16.1831 C   0  0  0  0  0  0
  -53.2301   -6.9178   16.0513 C   0  0  0  0  0  0
  -50.9412   -4.1270   17.0479 N   0  0  0  0  0  0
  -50.1081   -2.8804   16.8856 P   0  0  0  0  0  0
  -48.5644   -3.2398   16.6161 O   0  0  0  0  0  0
  -50.0530   -2.0628   18.2751 O   0  0  0  0  0  0
  -50.6371   -2.0056   15.7796 O   0  0  0  0  0  0
  -47.9497   -2.7889   15.4002 C   0  0  0  0  0  0
  -51.0467   -1.2049   18.6561 C   0  0  0  0  0  0
  -51.9748   -1.5469   19.6228 C   0  0  0  0  0  0
  -52.9602   -0.6597   19.9867 C   0  0  0  0  0  0
  -53.0271    0.5785   19.3896 C   0  0  0  0  0  0
  -52.1079    0.9270   18.4265 C   0  0  0  0  0  0
  -51.1244    0.0393   18.0604 C   0  0  0  0  0  0
  -46.4214   -2.9108   15.5145 C   0  0  0  0  0  0
  -45.9712   -2.6263   16.8500 O   0  0  0  0  0  0
  -44.6805   -1.9884   16.8167 C   0  0  0  0  0  0
  -44.3213   -1.8260   15.3206 C   0  0  0  0  0  0
  -45.6709   -1.9334   14.5989 C   0  0  0  0  0  0
  -46.3019   -0.6440   14.5617 O   0  0  0  0  0  0
  -43.6534   -0.5895   15.0236 O   0  0  0  0  0  0
  -44.8525   -0.6946   17.6051 C   0  0  0  0  0  0
  -43.7115   -2.8719   17.4777 C   0  0  0  0  0  0
  -42.9615   -3.5567   17.9887 N   0  0  0  0  0  0
  -44.8396   -0.6958   18.9595 N   0  0  0  0  0  0
  -45.0195    0.6026   19.3196 C   0  0  0  0  0  0
  -45.1444    1.4025   18.2295 C   0  0  0  0  0  0
  -45.0370    0.5543   17.1238 C   0  0  0  0  0  0
  -44.6963   -1.6751   19.9005 N   0  0  0  0  0  0
  -44.7363   -1.3198   21.1628 C   0  0  0  0  0  0
  -44.9085   -0.0455   21.6414 N   0  0  0  0  0  0
  -45.0478    0.9038   20.7060 C   0  0  0  0  0  0
  -45.2217    2.1952   21.1449 N   0  0  0  0  0  0
  -49.1956   -7.3474   20.4860 H   0  0  0  0  0  0
  -47.8060   -7.7709   20.3189 H   0  0  0  0  0  0
  -48.2872   -6.5848   19.6266 H   0  0  0  0  0  0
  -48.0567   -6.1595   16.2817 H   0  0  0  0  0  0
  -51.2094   -4.2592   18.0318 H   0  0  0  0  0  0
  -46.5547   -0.3339   15.4852 H   0  0  0  0  0  0
  -44.3106    0.1325   14.7820 H   0  0  0  0  0  0
  -45.2355    2.3651   22.0085 H   0  0  0  0  0  0
  -45.3182    2.8533   20.5678 H   0  0  0  0  0  0
  1  2  2  0  0  0
  2  3  1  0  0  0
  3  4  2  0  0  0
  3  7  1  0  0  0
  4  5  1  0  0  0
  5  6  2  0  0  0
  6  1  1  0  0  0
  7  8  1  0  0  0
  8  9  1  0  0  0
  8 10  1  0  0  0
 10 11  1  0  0  0
 10 12  1  0  0  0
 12 13  1  0  0  0
 13 14  1  0  0  0
 13 21  1  0  0  0
 14 15  1  0  0  0
 15 16  2  0  0  0
 16 17  1  0  0  0
 17 18  2  0  0  0
 18 19  1  0  0  0
 19 20  2  0  0  0
 20 15  1  0  0  0
 21 22  1  0  0  0
 22 23  1  0  0  0
 22 24  1  0  0  0
 22 25  2  0  0  0
 23 26  1  0  0  0
 24 27  1  0  0  0
 27 28  2  0  0  0
 28 29  1  0  0  0
 29 30  2  0  0  0
 30 31  1  0  0  0
 31 32  2  0  0  0
 32 27  1  0  0  0
 33 26  1  0  0  0
 33 34  1  0  0  0
 34 35  1  0  0  0
 35 36  1  0  0  0
 35 40  1  0  0  0
 35 41  1  0  0  0
 36 37  1  0  0  0
 36 39  1  0  0  0
 37 33  1  0  0  0
 37 38  1  0  0  0
 40 43  1  0  0  0
 41 42  3  0  0  0
 43 44  1  0  0  0
 43 47  1  0  0  0
 44 45  2  0  0  0
 45 46  1  0  0  0
 46 40  2  0  0  0
 47 48  2  0  0  0
 48 49  1  0  0  0
 49 50  2  0  0  0
 50 44  1  0  0  0
 50 51  1  0  0  0
  9 52  1  0  0  0
  9 53  1  0  0  0
  9 54  1  0  0  0
 11 55  1  0  0  0
 21 56  1  0  0  0
 38 57  1  0  0  0
 39 58  1  0  0  0
 51 59  1  0  0  0
 51 60  1  0  0  0
M  END
>  <#Atoms_cresset>
51

>  <#RB_cresset>
18

>  <BioMolTech Lead Finder LE>
-0.172

>  <BioMolTech Lead Finder Pose rank>
0

>  <BioMolTech Lead Finder Rank score>
-13.57

>  <BioMolTech Lead Finder SDF id>
0

>  <BioMolTech Lead Finder Structure Name>
/var/folders/xd/y7jw_xv579q2qqq7kks92xd80000gn/T/LeadFinder_21448_1/Ligand_1.sdf

>  <BioMolTech Lead Finder VSscore>
-13.341

>  <BioMolTech Lead Finder dG>
-8.761

>  <BioMolTech Lead Finder version>
2001 1, 19 January 2019

>  <CHROM.0>
18.70711708,154.26836863,55.42950885

>  <CHROM.1>
-100.00352417,30.32321859,-13.76506672,178.81425145,178.43920958,164.89132707
87.09577719,75.09103944,127.75040435,96.94493138,-17.99844106,120.32597266
-82.99138044,165.13769702,103.88616752,-35.45157763,79.52103995,-90.74141635
45.22153536,-48.90558006,-3.39040125,17.87298030,-2.47039530,-0.15693690
-0.19848082

>  <Confs_cresset>
0

>  <Favorite_cresset>
false

>  <Filename_cresset>
VTRRT-13V2.1.sdf

>  <Flexibility_cresset>
17.1

>  <LF LE>
-0.172

>  <LF Rank Score>
-13.57

>  <LF VSscore>
-13.341

>  <LF dG>
-8.761

>  <MW_cresset>
714.7

>  <Name>
Untitled

>  <Poses_cresset>
10

>  <Preferred Pose_cresset>
true

>  <Protein_cresset>
6Y2F_P

>  <RI>
-2.49597e+08

>  <Rbt.Current_Directory>
/root/miniconda3/envs/rdock/share/rxdock-2013.1.1_148c5bd1-0/data/ligands/prepped_ligands/VTRRT

>  <Rbt.Executable>
rbdock/0.1.0

>  <Rbt.Library>
librxdock.so/0.1.0

>  <Rbt.Parameter_File>
/root/miniconda3/envs/rdock/share/rxdock-2013.1.1_148c5bd1-0/data/scripts/dock.prm

>  <Rbt.Receptor>
def.prm

>  <Rof5_cresset>
3

>  <SCORE>
-7.20116

>  <SCORE.INTER>
-5.66519

>  <SCORE.INTER.CONST>
1

>  <SCORE.INTER.POLAR>
-0.129993

>  <SCORE.INTER.REPUL>
0.000533168

>  <SCORE.INTER.ROT>
15

>  <SCORE.INTER.VDW>
-25.6259

>  <SCORE.INTER.norm>
-0.111082

>  <SCORE.INTRA>
-5.51354

>  <SCORE.INTRA.DIHEDRAL>
-11.4372

>  <SCORE.INTRA.DIHEDRAL.0>
43.3056

>  <SCORE.INTRA.POLAR>
-0.0362512

>  <SCORE.INTRA.POLAR.0>
0

>  <SCORE.INTRA.REPUL>
-1.18384

>  <SCORE.INTRA.REPUL.0>
1.18384

>  <SCORE.INTRA.VDW>
6.24748

>  <SCORE.INTRA.VDW.0>
-7.21879

>  <SCORE.INTRA.norm>
-0.108109

>  <SCORE.RESTR>
1.67163

>  <SCORE.RESTR.CAVITY>
1.67163

>  <SCORE.RESTR.norm>
0.032777

>  <SCORE.SYSTEM>
2.30594

>  <SCORE.SYSTEM.CONST>
0

>  <SCORE.SYSTEM.DIHEDRAL>
5.67227

>  <SCORE.SYSTEM.VDW>
-0.530194

>  <SCORE.SYSTEM.norm>
0.0452145

>  <SCORE.heavy>
51

>  <SCORE.norm>
-0.141199

>  <SlogP_cresset>
4

>  <TPSA_cresset>
225.1

>  <_cresset_fieldpoints>
    -5      16.836018       5.832630      29.221167     -3.6840
    -5      12.689775      -0.157515      20.961832    -26.5835
    -5      10.603017       0.175630      26.550167     -8.1895
    -5      16.438017       3.291630      24.075167     -2.5740
    -5      10.777017       2.958630      26.544167    -13.1420
    -5      14.325016       6.363630      19.343166     -3.9175
    -5      10.138498      -1.142644      20.673992    -19.3483
    -5       8.999017       3.081630      18.875168    -11.2330
    -5      16.643017      -2.580370      18.078167    -12.9950
    -5       9.665886      -1.797647      20.491711    -20.2282
    -5       9.721017       2.679630      21.897167    -10.3470
    -5       9.495016      -3.987370      19.277166    -12.3125
    -6       9.544017       6.999630      25.870167     13.2990
    -6      11.781016       8.517631      22.930166      7.7900
    -6      14.607017       1.112630      25.440166      7.0810
    -6      15.386017       0.918630      28.446167      2.3985
    -6      18.624016       1.298630      27.807167      2.3740
    -6      20.392017       2.874630      26.722168      2.3035
    -6      17.648016       0.730630      28.195168      2.3685
    -6      14.512016       8.724630      26.097166      6.5595
    -6       8.569016      -0.973370      14.343166     10.8755
    -6       7.728017       1.126630      14.428167      9.6685
    -6       9.165016      -5.976370      22.174168      8.4205
    -6      13.686016      -5.263370      22.254168      6.1950
    -6      13.877016       8.944631      27.096167      6.4995
    -6      12.880016      -5.307370      17.193167     12.0245
    -7      15.472016       6.118630      22.868166     -3.2390
    -7      16.618017       6.190630      29.550167     -1.8400
    -7      20.678017       4.935630      25.563168     -0.9695
    -7      14.813017       8.811630      25.026167     -2.2140
    -7      10.993016       2.287630      26.765167     -3.3000
    -7      14.052017       0.966630      26.100166     -2.8945
    -7      19.113016       1.220630      27.604168     -0.9705
    -7      16.034016       2.731630      23.912167     -3.3250
    -7      10.857017       6.577630      27.959167     -2.0560
    -7       9.494017       3.463630      21.639168     -4.2685
    -7      10.789017       9.786630      25.500168     -0.9715
    -7      14.840016       6.494630      19.649166     -1.8715
    -7       8.671017       3.594630      18.487167     -2.1885
    -7       9.509016       9.096630      19.641167     -0.9730
    -7      10.391017      -1.625370      26.086166     -2.4190
    -7       4.660017      -1.773370      25.985167     -0.9695
    -7       4.569016       2.557630      27.332167     -0.9680
    -7      14.875017      -4.579370      21.768167     -1.8885
    -7      13.267016      -5.347370      16.886168     -1.9350
    -7       6.954017      -1.202370      16.804167     -1.5235
    -7      11.071016       0.523630      14.355167     -1.5285
    -7      13.461017       0.151630      20.851168     -4.5370
    -7       9.025017      -1.430370      20.607166     -4.2605
    -8      14.386017       5.687630      26.072166      5.7545
    -8      16.303017       4.649630      26.702168      7.2160
    -8      12.821016       4.074630      23.412167      5.8535
    -8      11.879017       5.300630      20.313168      7.2105
    -8      14.967016       5.182630      26.638166      5.8010
    -8      12.613016       4.247630      22.352167      5.8285
    -8      13.423017       5.009630      25.510166      5.6895
    -8      12.579017       4.458630      21.224167      5.7810
    -8       7.903017       1.063630      24.720167      7.0265
    -8      11.517016      -3.053370      22.483168      4.3445
    -8      12.238016      -3.808370      21.025167      4.6035
    -8      12.152017      -3.126370      18.429167      4.4460
    -8      10.771017      -2.113370      17.279167      4.9125

$$$$
Untitled
  RxDock  02242101413D
librxdock.so/0.1.0
 60 65  0  0  0  0  0  0  0  0999 V2000
  -48.0905   -8.0798   17.9082 C   0  0  0  0  0  0
  -49.1486   -7.7045   17.1116 C   0  0  0  0  0  0
  -50.1407   -6.8889   17.6105 C   0  0  0  0  0  0
  -50.0651   -6.4512   18.9156 C   0  0  0  0  0  0
  -49.0084   -6.8262   19.7139 C   0  0  0  0  0  0
  -48.0212   -7.6410   19.2097 C   0  0  0  0  0  0
  -51.3083   -6.4725   16.7273 C   0  0  0  0  0  0
  -51.3713   -4.9654   16.3936 C   0  0  0  0  0  0
  -52.6959   -4.6603   15.7465 N   0  3  0  0  0  0
  -50.1926   -4.5786   15.4706 C   0  0  0  0  0  0
  -50.1552   -5.4526   14.3283 O   0  0  0  0  0  0
  -48.8441   -4.6626   16.2179 C   0  0  0  0  0  0
  -48.2116   -3.2667   16.4130 C   0  0  0  0  0  0
  -48.3627   -2.8353   17.8893 C   0  0  0  0  0  0
  -49.7736   -2.9065   18.4529 C   0  0  0  0  0  0
  -49.9963   -3.4420   19.7030 C   0  0  0  0  0  0
  -51.2736   -3.5102   20.2133 C   0  0  0  0  0  0
  -52.3351   -3.0439   19.4734 C   0  0  0  0  0  0
  -52.1185   -2.5079   18.2236 C   0  0  0  0  0  0
  -50.8407   -2.4399   17.7162 C   0  0  0  0  0  0
  -46.7860   -3.3162   16.0610 N   0  0  0  0  0  0
  -46.2425   -2.0207   15.5126 P   0  0  0  0  0  0
  -46.7558   -0.7615   16.3703 O   0  0  0  0  0  0
  -46.8550   -1.7358   14.0478 O   0  0  0  0  0  0
  -44.7373   -2.0338   15.4614 O   0  0  0  0  0  0
  -45.8414    0.3104   16.6433 C   0  0  0  0  0  0
  -47.9949   -1.0038   13.8639 C   0  0  0  0  0  0
  -48.0564    0.0334   12.9511 C   0  0  0  0  0  0
  -49.2195    0.7483   12.7870 C   0  0  0  0  0  0
  -50.3328    0.4328   13.5320 C   0  0  0  0  0  0
  -50.2804   -0.5974   14.4429 C   0  0  0  0  0  0
  -49.1171   -1.3104   14.6092 C   0  0  0  0  0  0
  -45.4308    0.2783   18.1245 C   0  0  0  0  0  0
  -46.1762   -0.7115   18.8539 O   0  0  0  0  0  0
  -46.4075   -0.2677   20.2042 C   0  0  0  0  0  0
  -45.7841    1.1447   20.3039 C   0  0  0  0  0  0
  -45.6799    1.6105   18.8458 C   0  0  0  0  0  0
  -46.9193    2.2132   18.4423 O   0  0  0  0  0  0
  -46.5561    2.0558   21.1021 O   0  0  0  0  0  0
  -47.9180   -0.3447   20.3982 C   0  0  0  0  0  0
  -45.7211   -1.1904   21.1176 C   0  0  0  0  0  0
  -45.1888   -1.9044   21.8242 N   0  0  0  0  0  0
  -48.7682    0.0390   19.4160 N   0  0  0  0  0  0
  -50.0134   -0.1573   19.9246 C   0  0  0  0  0  0
  -49.9564   -0.6483   21.1892 C   0  0  0  0  0  0
  -48.5962   -0.7646   21.4887 C   0  0  0  0  0  0
  -48.5913    0.5339   18.1555 N   0  0  0  0  0  0
  -49.6635    0.8112   17.4521 C   0  0  0  0  0  0
  -50.9640    0.6510   17.8591 N   0  0  0  0  0  0
  -51.1209    0.1649   19.0979 C   0  0  0  0  0  0
  -52.4097   -0.0114   19.5432 N   0  0  0  0  0  0
  -52.7467   -3.7949   15.4719 H   0  0  0  0  0  0
  -52.8386   -5.1801   15.0127 H   0  0  0  0  0  0
  -53.3966   -4.8096   16.3045 H   0  0  0  0  0  0
  -49.4029   -5.2088   13.7072 H   0  0  0  0  0  0
  -46.6089   -4.0901   15.4076 H   0  0  0  0  0  0
  -46.8557    2.5925   17.5122 H   0  0  0  0  0  0
  -47.4371    2.2683   20.6659 H   0  0  0  0  0  0
  -53.0855    0.1923   19.0172 H   0  0  0  0  0  0
  -52.5634   -0.3276   20.3506 H   0  0  0  0  0  0
  1  2  2  0  0  0
  2  3  1  0  0  0
  3  4  2  0  0  0
  3  7  1  0  0  0
  4  5  1  0  0  0
  5  6  2  0  0  0
  6  1  1  0  0  0
  7  8  1  0  0  0
  8  9  1  0  0  0
  8 10  1  0  0  0
 10 11  1  0  0  0
 10 12  1  0  0  0
 12 13  1  0  0  0
 13 14  1  0  0  0
 13 21  1  0  0  0
 14 15  1  0  0  0
 15 16  2  0  0  0
 16 17  1  0  0  0
 17 18  2  0  0  0
 18 19  1  0  0  0
 19 20  2  0  0  0
 20 15  1  0  0  0
 21 22  1  0  0  0
 22 23  1  0  0  0
 22 24  1  0  0  0
 22 25  2  0  0  0
 23 26  1  0  0  0
 24 27  1  0  0  0
 27 28  2  0  0  0
 28 29  1  0  0  0
 29 30  2  0  0  0
 30 31  1  0  0  0
 31 32  2  0  0  0
 32 27  1  0  0  0
 33 26  1  0  0  0
 33 34  1  0  0  0
 34 35  1  0  0  0
 35 36  1  0  0  0
 35 40  1  0  0  0
 35 41  1  0  0  0
 36 37  1  0  0  0
 36 39  1  0  0  0
 37 33  1  0  0  0
 37 38  1  0  0  0
 40 43  1  0  0  0
 41 42  3  0  0  0
 43 44  1  0  0  0
 43 47  1  0  0  0
 44 45  2  0  0  0
 45 46  1  0  0  0
 46 40  2  0  0  0
 47 48  2  0  0  0
 48 49  1  0  0  0
 49 50  2  0  0  0
 50 44  1  0  0  0
 50 51  1  0  0  0
  9 52  1  0  0  0
  9 53  1  0  0  0
  9 54  1  0  0  0
 11 55  1  0  0  0
 21 56  1  0  0  0
 38 57  1  0  0  0
 39 58  1  0  0  0
 51 59  1  0  0  0
 51 60  1  0  0  0
M  END
>  <#Atoms_cresset>
51

>  <#RB_cresset>
18

>  <BioMolTech Lead Finder LE>
-0.172

>  <BioMolTech Lead Finder Pose rank>
0

>  <BioMolTech Lead Finder Rank score>
-13.57

>  <BioMolTech Lead Finder SDF id>
0

>  <BioMolTech Lead Finder Structure Name>
/var/folders/xd/y7jw_xv579q2qqq7kks92xd80000gn/T/LeadFinder_21448_1/Ligand_1.sdf

>  <BioMolTech Lead Finder VSscore>
-13.341

>  <BioMolTech Lead Finder dG>
-8.761

>  <BioMolTech Lead Finder version>
2001 1, 19 January 2019

>  <CHROM.0>
178.38793018,61.72244924,-62.36677411

>  <CHROM.1>
-113.75082236,-169.36803848,-175.31869263,52.38506217,179.14094966,-112.29841734
105.81581144,-52.40493896,149.46104999,135.56762355,43.94791311,140.16558733
91.75549416,-107.59925336,130.56675076,-6.25227717,-40.67037133,-67.06133968
-73.02187216,-48.65748970,-2.04932109,17.61037465,2.82578285,-1.09298239
-1.64432045

>  <Confs_cresset>
0

>  <Favorite_cresset>
false

>  <Filename_cresset>
VTRRT-13V2.1.sdf

>  <Flexibility_cresset>
17.1

>  <LF LE>
-0.172

>  <LF Rank Score>
-13.57

>  <LF VSscore>
-13.341

>  <LF dG>
-8.761

>  <MW_cresset>
714.7

>  <Name>
Untitled

>  <Poses_cresset>
10

>  <Preferred Pose_cresset>
true

>  <Protein_cresset>
6Y2F_P

>  <RI>
-2.49597e+08

>  <Rbt.Current_Directory>
/root/miniconda3/envs/rdock/share/rxdock-2013.1.1_148c5bd1-0/data/ligands/prepped_ligands/VTRRT

>  <Rbt.Executable>
rbdock/0.1.0

>  <Rbt.Library>
librxdock.so/0.1.0

>  <Rbt.Parameter_File>
/root/miniconda3/envs/rdock/share/rxdock-2013.1.1_148c5bd1-0/data/scripts/dock.prm

>  <Rbt.Receptor>
def.prm

>  <Rof5_cresset>
3

>  <SCORE>
-21.4235

>  <SCORE.INTER>
-8.1702

>  <SCORE.INTER.CONST>
1

>  <SCORE.INTER.POLAR>
-1.91732

>  <SCORE.INTER.REPUL>
0.938083

>  <SCORE.INTER.ROT>
15

>  <SCORE.INTER.VDW>
-26.7417

>  <SCORE.INTER.norm>
-0.1602

>  <SCORE.INTRA>
-13.3214

>  <SCORE.INTRA.DIHEDRAL>
-9.12113

>  <SCORE.INTRA.DIHEDRAL.0>
43.3056

>  <SCORE.INTRA.POLAR>
-0.0323853

>  <SCORE.INTRA.POLAR.0>
0

>  <SCORE.INTRA.REPUL>
-0.54575

>  <SCORE.INTRA.REPUL.0>
1.18384

>  <SCORE.INTRA.VDW>
-5.92197

>  <SCORE.INTRA.VDW.0>
-7.21879

>  <SCORE.INTRA.norm>
-0.261204

>  <SCORE.RESTR>
1.06485

>  <SCORE.RESTR.CAVITY>
1.06485

>  <SCORE.RESTR.norm>
0.0208795

>  <SCORE.SYSTEM>
-0.996754

>  <SCORE.SYSTEM.CONST>
0

>  <SCORE.SYSTEM.DIHEDRAL>
0.0381584

>  <SCORE.SYSTEM.VDW>
-1.01583

>  <SCORE.SYSTEM.norm>
-0.0195442

>  <SCORE.heavy>
51

>  <SCORE.norm>
-0.420069

>  <SlogP_cresset>
4

>  <TPSA_cresset>
225.1

>  <_cresset_fieldpoints>
    -5      16.836018       5.832630      29.221167     -3.6840
    -5      12.689775      -0.157515      20.961832    -26.5835
    -5      10.603017       0.175630      26.550167     -8.1895
    -5      16.438017       3.291630      24.075167     -2.5740
    -5      10.777017       2.958630      26.544167    -13.1420
    -5      14.325016       6.363630      19.343166     -3.9175
    -5      10.138498      -1.142644      20.673992    -19.3483
    -5       8.999017       3.081630      18.875168    -11.2330
    -5      16.643017      -2.580370      18.078167    -12.9950
    -5       9.665886      -1.797647      20.491711    -20.2282
    -5       9.721017       2.679630      21.897167    -10.3470
    -5       9.495016      -3.987370      19.277166    -12.3125
    -6       9.544017       6.999630      25.870167     13.2990
    -6      11.781016       8.517631      22.930166      7.7900
    -6      14.607017       1.112630      25.440166      7.0810
    -6      15.386017       0.918630      28.446167      2.3985
    -6      18.624016       1.298630      27.807167      2.3740
    -6      20.392017       2.874630      26.722168      2.3035
    -6      17.648016       0.730630      28.195168      2.3685
    -6      14.512016       8.724630      26.097166      6.5595
    -6       8.569016      -0.973370      14.343166     10.8755
    -6       7.728017       1.126630      14.428167      9.6685
    -6       9.165016      -5.976370      22.174168      8.4205
    -6      13.686016      -5.263370      22.254168      6.1950
    -6      13.877016       8.944631      27.096167      6.4995
    -6      12.880016      -5.307370      17.193167     12.0245
    -7      15.472016       6.118630      22.868166     -3.2390
    -7      16.618017       6.190630      29.550167     -1.8400
    -7      20.678017       4.935630      25.563168     -0.9695
    -7      14.813017       8.811630      25.026167     -2.2140
    -7      10.993016       2.287630      26.765167     -3.3000
    -7      14.052017       0.966630      26.100166     -2.8945
    -7      19.113016       1.220630      27.604168     -0.9705
    -7      16.034016       2.731630      23.912167     -3.3250
    -7      10.857017       6.577630      27.959167     -2.0560
    -7       9.494017       3.463630      21.639168     -4.2685
    -7      10.789017       9.786630      25.500168     -0.9715
    -7      14.840016       6.494630      19.649166     -1.8715
    -7       8.671017       3.594630      18.487167     -2.1885
    -7       9.509016       9.096630      19.641167     -0.9730
    -7      10.391017      -1.625370      26.086166     -2.4190
    -7       4.660017      -1.773370      25.985167     -0.9695
    -7       4.569016       2.557630      27.332167     -0.9680
    -7      14.875017      -4.579370      21.768167     -1.8885
    -7      13.267016      -5.347370      16.886168     -1.9350
    -7       6.954017      -1.202370      16.804167     -1.5235
    -7      11.071016       0.523630      14.355167     -1.5285
    -7      13.461017       0.151630      20.851168     -4.5370
    -7       9.025017      -1.430370      20.607166     -4.2605
    -8      14.386017       5.687630      26.072166      5.7545
    -8      16.303017       4.649630      26.702168      7.2160
    -8      12.821016       4.074630      23.412167      5.8535
    -8      11.879017       5.300630      20.313168      7.2105
    -8      14.967016       5.182630      26.638166      5.8010
    -8      12.613016       4.247630      22.352167      5.8285
    -8      13.423017       5.009630      25.510166      5.6895
    -8      12.579017       4.458630      21.224167      5.7810
    -8       7.903017       1.063630      24.720167      7.0265
    -8      11.517016      -3.053370      22.483168      4.3445
    -8      12.238016      -3.808370      21.025167      4.6035
    -8      12.152017      -3.126370      18.429167      4.4460
    -8      10.771017      -2.113370      17.279167      4.9125

$$$$
Untitled
  RxDock  02242101413D
librxdock.so/0.1.0
 60 65  0  0  0  0  0  0  0  0999 V2000
  -53.0058   -3.8671   14.9516 C   0  0  0  0  0  0
  -52.8664   -3.3828   16.2326 C   0  0  0  0  0  0
  -53.1950   -4.1705   17.3143 C   0  0  0  0  0  0
  -53.6652   -5.4491   17.1030 C   0  0  0  0  0  0
  -53.8062   -5.9347   15.8229 C   0  0  0  0  0  0
  -53.4766   -5.1429   14.7471 C   0  0  0  0  0  0
  -53.0373   -3.6344   18.7300 C   0  0  0  0  0  0
  -52.0410   -4.4134   19.6174 C   0  0  0  0  0  0
  -52.8058   -5.3734   20.4890 N   0  3  0  0  0  0
  -51.2059   -3.4269   20.4661 C   0  0  0  0  0  0
  -52.0527   -2.3862   20.9857 O   0  0  0  0  0  0
  -50.0727   -2.7901   19.6327 C   0  0  0  0  0  0
  -49.2420   -3.8587   18.8880 C   0  0  0  0  0  0
  -49.3269   -5.2001   19.6509 C   0  0  0  0  0  0
  -49.2143   -6.4512   18.7933 C   0  0  0  0  0  0
  -47.9824   -7.0201   18.5527 C   0  0  0  0  0  0
  -47.8785   -8.1511   17.7738 C   0  0  0  0  0  0
  -49.0078   -8.7174   17.2303 C   0  0  0  0  0  0
  -50.2414   -8.1531   17.4672 C   0  0  0  0  0  0
  -50.3427   -7.0233   18.2470 C   0  0  0  0  0  0
  -49.7686   -4.0351   17.5278 N   0  0  0  0  0  0
  -48.8841   -3.4657   16.4471 P   0  0  0  0  0  0
  -48.3342   -2.0093   16.8485 O   0  0  0  0  0  0
  -49.7485   -3.1731   15.1170 O   0  0  0  0  0  0
  -47.7335   -4.3864   16.1363 O   0  0  0  0  0  0
  -46.9165   -1.8032   16.9352 C   0  0  0  0  0  0
  -49.6127   -2.0180   14.3986 C   0  0  0  0  0  0
  -48.3755   -1.5548   13.9892 C   0  0  0  0  0  0
  -48.2729   -0.3909   13.2643 C   0  0  0  0  0  0
  -49.4053    0.3207   12.9399 C   0  0  0  0  0  0
  -50.6404   -0.1326   13.3435 C   0  0  0  0  0  0
  -50.7432   -1.2945   14.0706 C   0  0  0  0  0  0
  -46.6198   -0.3066   17.1241 C   0  0  0  0  0  0
  -45.4700   -0.1018   17.9627 O   0  0  0  0  0  0
  -45.6313    1.0945   18.7480 C   0  0  0  0  0  0
  -47.0283    1.6558   18.3919 C   0  0  0  0  0  0
  -47.7723    0.4541   17.7950 C   0  0  0  0  0  0
  -48.3761   -0.3116   18.8492 O   0  0  0  0  0  0
  -47.7261    2.2106   19.5182 O   0  0  0  0  0  0
  -45.4393    0.6531   20.1949 C   0  0  0  0  0  0
  -44.5864    2.0489   18.3555 C   0  0  0  0  0  0
  -43.7780    2.7878   18.0507 N   0  0  0  0  0  0
  -44.6073   -0.3687   20.5081 N   0  0  0  0  0  0
  -44.6820   -0.4886   21.8601 C   0  0  0  0  0  0
  -45.5350    0.4262   22.3885 C   0  0  0  0  0  0
  -46.0223    1.1599   21.3033 C   0  0  0  0  0  0
  -43.8092   -1.1955   19.7700 N   0  0  0  0  0  0
  -43.1163   -2.1072   20.4102 C   0  0  0  0  0  0
  -43.1102   -2.3172   21.7661 N   0  0  0  0  0  0
  -43.8982   -1.4985   22.4762 C   0  0  0  0  0  0
  -43.9196   -1.6759   23.8395 N   0  0  0  0  0  0
  -53.4775   -4.9588   20.9404 H   0  0  0  0  0  0
  -53.1872   -6.0400   19.9998 H   0  0  0  0  0  0
  -52.2759   -5.7802   21.1042 H   0  0  0  0  0  0
  -51.5231   -1.7166   21.5170 H   0  0  0  0  0  0
  -50.7183   -3.6465   17.4623 H   0  0  0  0  0  0
  -47.7075   -0.5358   19.5673 H   0  0  0  0  0  0
  -47.2422    3.0096   19.8911 H   0  0  0  0  0  0
  -43.4263   -2.3063   24.2059 H   0  0  0  0  0  0
  -44.4225   -1.1625   24.3484 H   0  0  0  0  0  0
  1  2  2  0  0  0
  2  3  1  0  0  0
  3  4  2  0  0  0
  3  7  1  0  0  0
  4  5  1  0  0  0
  5  6  2  0  0  0
  6  1  1  0  0  0
  7  8  1  0  0  0
  8  9  1  0  0  0
  8 10  1  0  0  0
 10 11  1  0  0  0
 10 12  1  0  0  0
 12 13  1  0  0  0
 13 14  1  0  0  0
 13 21  1  0  0  0
 14 15  1  0  0  0
 15 16  2  0  0  0
 16 17  1  0  0  0
 17 18  2  0  0  0
 18 19  1  0  0  0
 19 20  2  0  0  0
 20 15  1  0  0  0
 21 22  1  0  0  0
 22 23  1  0  0  0
 22 24  1  0  0  0
 22 25  2  0  0  0
 23 26  1  0  0  0
 24 27  1  0  0  0
 27 28  2  0  0  0
 28 29  1  0  0  0
 29 30  2  0  0  0
 30 31  1  0  0  0
 31 32  2  0  0  0
 32 27  1  0  0  0
 33 26  1  0  0  0
 33 34  1  0  0  0
 34 35  1  0  0  0
 35 36  1  0  0  0
 35 40  1  0  0  0
 35 41  1  0  0  0
 36 37  1  0  0  0
 36 39  1  0  0  0
 37 33  1  0  0  0
 37 38  1  0  0  0
 40 43  1  0  0  0
 41 42  3  0  0  0
 43 44  1  0  0  0
 43 47  1  0  0  0
 44 45  2  0  0  0
 45 46  1  0  0  0
 46 40  2  0  0  0
 47 48  2  0  0  0
 48 49  1  0  0  0
 49 50  2  0  0  0
 50 44  1  0  0  0
 50 51  1  0  0  0
  9 52  1  0  0  0
  9 53  1  0  0  0
  9 54  1  0  0  0
 11 55  1  0  0  0
 21 56  1  0  0  0
 38 57  1  0  0  0
 39 58  1  0  0  0
 51 59  1  0  0  0
 51 60  1  0  0  0
M  END
>  <#Atoms_cresset>
51

>  <#RB_cresset>
18

>  <BioMolTech Lead Finder LE>
-0.172

>  <BioMolTech Lead Finder Pose rank>
0

>  <BioMolTech Lead Finder Rank score>
-13.57

>  <BioMolTech Lead Finder SDF id>
0

>  <BioMolTech Lead Finder Structure Name>
/var/folders/xd/y7jw_xv579q2qqq7kks92xd80000gn/T/LeadFinder_21448_1/Ligand_1.sdf

>  <BioMolTech Lead Finder VSscore>
-13.341

>  <BioMolTech Lead Finder dG>
-8.761

>  <BioMolTech Lead Finder version>
2001 1, 19 January 2019

>  <CHROM.0>
34.21614255,-177.65247431,-54.81292078

>  <CHROM.1>
-118.37634600,-98.26494505,-51.80253055,42.24972432,-178.17046421,-50.58252535
-25.97460725,150.03476859,107.76763179,90.39453201,-44.08917419,120.54901014
135.86705395,171.64631073,50.63331083,145.52070836,31.53790939,63.85687525
59.98639324,-48.52923662,-2.48436492,18.10296710,3.01333392,0.73152791,2.35034094

>  <Confs_cresset>
0

>  <Favorite_cresset>
false

>  <Filename_cresset>
VTRRT-13V2.1.sdf

>  <Flexibility_cresset>
17.1

>  <LF LE>
-0.172

>  <LF Rank Score>
-13.57

>  <LF VSscore>
-13.341

>  <LF dG>
-8.761

>  <MW_cresset>
714.7

>  <Name>
Untitled

>  <Poses_cresset>
10

>  <Preferred Pose_cresset>
true

>  <Protein_cresset>
6Y2F_P

>  <RI>
-2.49597e+08

>  <Rbt.Current_Directory>
/root/miniconda3/envs/rdock/share/rxdock-2013.1.1_148c5bd1-0/data/ligands/prepped_ligands/VTRRT

>  <Rbt.Executable>
rbdock/0.1.0

>  <Rbt.Library>
librxdock.so/0.1.0

>  <Rbt.Parameter_File>
/root/miniconda3/envs/rdock/share/rxdock-2013.1.1_148c5bd1-0/data/scripts/dock.prm

>  <Rbt.Receptor>
def.prm

>  <Rof5_cresset>
3

>  <SCORE>
-17.8372

>  <SCORE.INTER>
-9.24777

>  <SCORE.INTER.CONST>
1

>  <SCORE.INTER.POLAR>
0

>  <SCORE.INTER.REPUL>
0

>  <SCORE.INTER.ROT>
15

>  <SCORE.INTER.VDW>
-29.6478

>  <SCORE.INTER.norm>
-0.181329

>  <SCORE.INTRA>
-9.81509

>  <SCORE.INTRA.DIHEDRAL>
-15.6941

>  <SCORE.INTRA.DIHEDRAL.0>
43.3056

>  <SCORE.INTRA.POLAR>
0

>  <SCORE.INTRA.POLAR.0>
0

>  <SCORE.INTRA.REPUL>
-0.960208

>  <SCORE.INTRA.REPUL.0>
1.18384

>  <SCORE.INTRA.VDW>
2.833

>  <SCORE.INTRA.VDW.0>
-7.21879

>  <SCORE.INTRA.norm>
-0.192453

>  <SCORE.RESTR>
1.31847

>  <SCORE.RESTR.CAVITY>
1.31847

>  <SCORE.RESTR.norm>
0.0258524

>  <SCORE.SYSTEM>
-0.092801

>  <SCORE.SYSTEM.CONST>
0

>  <SCORE.SYSTEM.DIHEDRAL>
1.50872

>  <SCORE.SYSTEM.POLAR>
-0.0117546

>  <SCORE.SYSTEM.VDW>
-0.807196

>  <SCORE.SYSTEM.norm>
-0.00181963

>  <SCORE.heavy>
51

>  <SCORE.norm>
-0.349749

>  <SlogP_cresset>
4

>  <TPSA_cresset>
225.1

>  <_cresset_fieldpoints>
    -5      16.836018       5.832630      29.221167     -3.6840
    -5      12.689775      -0.157515      20.961832    -26.5835
    -5      10.603017       0.175630      26.550167     -8.1895
    -5      16.438017       3.291630      24.075167     -2.5740
    -5      10.777017       2.958630      26.544167    -13.1420
    -5      14.325016       6.363630      19.343166     -3.9175
    -5      10.138498      -1.142644      20.673992    -19.3483
    -5       8.999017       3.081630      18.875168    -11.2330
    -5      16.643017      -2.580370      18.078167    -12.9950
    -5       9.665886      -1.797647      20.491711    -20.2282
    -5       9.721017       2.679630      21.897167    -10.3470
    -5       9.495016      -3.987370      19.277166    -12.3125
    -6       9.544017       6.999630      25.870167     13.2990
    -6      11.781016       8.517631      22.930166      7.7900
    -6      14.607017       1.112630      25.440166      7.0810
    -6      15.386017       0.918630      28.446167      2.3985
    -6      18.624016       1.298630      27.807167      2.3740
    -6      20.392017       2.874630      26.722168      2.3035
    -6      17.648016       0.730630      28.195168      2.3685
    -6      14.512016       8.724630      26.097166      6.5595
    -6       8.569016      -0.973370      14.343166     10.8755
    -6       7.728017       1.126630      14.428167      9.6685
    -6       9.165016      -5.976370      22.174168      8.4205
    -6      13.686016      -5.263370      22.254168      6.1950
    -6      13.877016       8.944631      27.096167      6.4995
    -6      12.880016      -5.307370      17.193167     12.0245
    -7      15.472016       6.118630      22.868166     -3.2390
    -7      16.618017       6.190630      29.550167     -1.8400
    -7      20.678017       4.935630      25.563168     -0.9695
    -7      14.813017       8.811630      25.026167     -2.2140
    -7      10.993016       2.287630      26.765167     -3.3000
    -7      14.052017       0.966630      26.100166     -2.8945
    -7      19.113016       1.220630      27.604168     -0.9705
    -7      16.034016       2.731630      23.912167     -3.3250
    -7      10.857017       6.577630      27.959167     -2.0560
    -7       9.494017       3.463630      21.639168     -4.2685
    -7      10.789017       9.786630      25.500168     -0.9715
    -7      14.840016       6.494630      19.649166     -1.8715
    -7       8.671017       3.594630      18.487167     -2.1885
    -7       9.509016       9.096630      19.641167     -0.9730
    -7      10.391017      -1.625370      26.086166     -2.4190
    -7       4.660017      -1.773370      25.985167     -0.9695
    -7       4.569016       2.557630      27.332167     -0.9680
    -7      14.875017      -4.579370      21.768167     -1.8885
    -7      13.267016      -5.347370      16.886168     -1.9350
    -7       6.954017      -1.202370      16.804167     -1.5235
    -7      11.071016       0.523630      14.355167     -1.5285
    -7      13.461017       0.151630      20.851168     -4.5370
    -7       9.025017      -1.430370      20.607166     -4.2605
    -8      14.386017       5.687630      26.072166      5.7545
    -8      16.303017       4.649630      26.702168      7.2160
    -8      12.821016       4.074630      23.412167      5.8535
    -8      11.879017       5.300630      20.313168      7.2105
    -8      14.967016       5.182630      26.638166      5.8010
    -8      12.613016       4.247630      22.352167      5.8285
    -8      13.423017       5.009630      25.510166      5.6895
    -8      12.579017       4.458630      21.224167      5.7810
    -8       7.903017       1.063630      24.720167      7.0265
    -8      11.517016      -3.053370      22.483168      4.3445
    -8      12.238016      -3.808370      21.025167      4.6035
    -8      12.152017      -3.126370      18.429167      4.4460
    -8      10.771017      -2.113370      17.279167      4.9125

$$$$
Untitled
  RxDock  02242101423D
librxdock.so/0.1.0
 60 65  0  0  0  0  0  0  0  0999 V2000
  -55.1197   -7.7669   14.8073 C   0  0  0  0  0  0
  -54.1485   -6.8217   14.5659 C   0  0  0  0  0  0
  -54.3631   -5.5021   14.8991 C   0  0  0  0  0  0
  -55.5600   -5.1356   15.4769 C   0  0  0  0  0  0
  -56.5326   -6.0791   15.7181 C   0  0  0  0  0  0
  -56.3121   -7.3950   15.3828 C   0  0  0  0  0  0
  -53.2870   -4.4589   14.6342 C   0  0  0  0  0  0
  -52.0150   -4.5967   15.5002 C   0  0  0  0  0  0
  -51.1961   -5.7525   14.9903 N   0  3  0  0  0  0
  -52.4042   -4.7950   16.9834 C   0  0  0  0  0  0
  -52.7105   -3.5247   17.5856 O   0  0  0  0  0  0
  -51.2649   -5.4709   17.7767 C   0  0  0  0  0  0
  -50.4543   -4.4443   18.5986 C   0  0  0  0  0  0
  -50.5233   -4.8156   20.0972 C   0  0  0  0  0  0
  -50.4878   -6.3043   20.4069 C   0  0  0  0  0  0
  -51.6353   -6.9603   20.7970 C   0  0  0  0  0  0
  -51.6042   -8.3075   21.0808 C   0  0  0  0  0  0
  -50.4231   -9.0046   20.9772 C   0  0  0  0  0  0
  -49.2734   -8.3542   20.5880 C   0  0  0  0  0  0
  -49.3074   -7.0078   20.3038 C   0  0  0  0  0  0
  -49.0532   -4.4524   18.1563 N   0  0  0  0  0  0
  -48.7643   -3.5153   17.0105 P   0  0  0  0  0  0
  -48.0245   -2.1813   17.5184 O   0  0  0  0  0  0
  -50.1431   -2.9520   16.3910 O   0  0  0  0  0  0
  -47.9428   -4.1889   15.9430 O   0  0  0  0  0  0
  -46.9193   -1.6697   16.7592 C   0  0  0  0  0  0
  -50.1660   -2.0287   15.3831 C   0  0  0  0  0  0
  -49.7201   -0.7330   15.5705 C   0  0  0  0  0  0
  -49.7528    0.1711   14.5350 C   0  0  0  0  0  0
  -50.2296   -0.2109   13.3019 C   0  0  0  0  0  0
  -50.6757   -1.4980   13.1066 C   0  0  0  0  0  0
  -50.6459   -2.4013   14.1423 C   0  0  0  0  0  0
  -46.6833   -0.1930   17.1159 C   0  0  0  0  0  0
  -45.3906    0.0016   17.7145 O   0  0  0  0  0  0
  -45.4479    1.0543   18.6956 C   0  0  0  0  0  0
  -46.9219    1.5227   18.7360 C   0  0  0  0  0  0
  -47.7027    0.3509   18.1269 C   0  0  0  0  0  0
  -48.0061   -0.6102   19.1498 O   0  0  0  0  0  0
  -47.3842    1.8434   20.0576 O   0  0  0  0  0  0
  -44.9102    0.4341   19.9807 C   0  0  0  0  0  0
  -44.5797    2.1507   18.2478 C   0  0  0  0  0  0
  -43.9081    2.9997   17.9002 N   0  0  0  0  0  0
  -43.6105    0.5776   20.3341 N   0  0  0  0  0  0
  -43.4839   -0.0932   21.5096 C   0  0  0  0  0  0
  -44.6641   -0.6464   21.8898 C   0  0  0  0  0  0
  -45.5816   -0.3018   20.8933 C   0  0  0  0  0  0
  -42.5419    1.2081   19.7634 N   0  0  0  0  0  0
  -41.3904    1.1457   20.3890 C   0  0  0  0  0  0
  -41.1466    0.5035   21.5767 N   0  0  0  0  0  0
  -42.2047   -0.1103   22.1238 C   0  0  0  0  0  0
  -42.0021   -0.7651   23.3157 N   0  0  0  0  0  0
  -51.6047   -6.5502   15.1437 H   0  0  0  0  0  0
  -51.0564   -5.6945   14.0924 H   0  0  0  0  0  0
  -50.3739   -5.7904   15.3739 H   0  0  0  0  0  0
  -51.9831   -2.8530   17.4097 H   0  0  0  0  0  0
  -48.7601   -5.4104   17.9249 H   0  0  0  0  0  0
  -48.7514   -0.2883   19.7445 H   0  0  0  0  0  0
  -46.9165    2.6560   20.4217 H   0  0  0  0  0  0
  -41.2026   -0.7649   23.6840 H   0  0  0  0  0  0
  -42.6671   -1.1836   23.7135 H   0  0  0  0  0  0
  1  2  2  0  0  0
  2  3  1  0  0  0
  3  4  2  0  0  0
  3  7  1  0  0  0
  4  5  1  0  0  0
  5  6  2  0  0  0
  6  1  1  0  0  0
  7  8  1  0  0  0
  8  9  1  0  0  0
  8 10  1  0  0  0
 10 11  1  0  0  0
 10 12  1  0  0  0
 12 13  1  0  0  0
 13 14  1  0  0  0
 13 21  1  0  0  0
 14 15  1  0  0  0
 15 16  2  0  0  0
 16 17  1  0  0  0
 17 18  2  0  0  0
 18 19  1  0  0  0
 19 20  2  0  0  0
 20 15  1  0  0  0
 21 22  1  0  0  0
 22 23  1  0  0  0
 22 24  1  0  0  0
 22 25  2  0  0  0
 23 26  1  0  0  0
 24 27  1  0  0  0
 27 28  2  0  0  0
 28 29  1  0  0  0
 29 30  2  0  0  0
 30 31  1  0  0  0
 31 32  2  0  0  0
 32 27  1  0  0  0
 33 26  1  0  0  0
 33 34  1  0  0  0
 34 35  1  0  0  0
 35 36  1  0  0  0
 35 40  1  0  0  0
 35 41  1  0  0  0
 36 37  1  0  0  0
 36 39  1  0  0  0
 37 33  1  0  0  0
 37 38  1  0  0  0
 40 43  1  0  0  0
 41 42  3  0  0  0
 43 44  1  0  0  0
 43 47  1  0  0  0
 44 45  2  0  0  0
 45 46  1  0  0  0
 46 40  2  0  0  0
 47 48  2  0  0  0
 48 49  1  0  0  0
 49 50  2  0  0  0
 50 44  1  0  0  0
 50 51  1  0  0  0
  9 52  1  0  0  0
  9 53  1  0  0  0
  9 54  1  0  0  0
 11 55  1  0  0  0
 21 56  1  0  0  0
 38 57  1  0  0  0
 39 58  1  0  0  0
 51 59  1  0  0  0
 51 60  1  0  0  0
M  END
>  <#Atoms_cresset>
51

>  <#RB_cresset>
18

>  <BioMolTech Lead Finder LE>
-0.172

>  <BioMolTech Lead Finder Pose rank>
0

>  <BioMolTech Lead Finder Rank score>
-13.57

>  <BioMolTech Lead Finder SDF id>
0

>  <BioMolTech Lead Finder Structure Name>
/var/folders/xd/y7jw_xv579q2qqq7kks92xd80000gn/T/LeadFinder_21448_1/Ligand_1.sdf

>  <BioMolTech Lead Finder VSscore>
-13.341

>  <BioMolTech Lead Finder dG>
-8.761

>  <BioMolTech Lead Finder version>
2001 1, 19 January 2019

>  <CHROM.0>
-179.25338561,58.68319186,-107.56215867

>  <CHROM.1>
-68.11121443,75.04992329,-68.70845128,-81.12185608,-50.29805847,100.56933821
120.70209291,37.64946579,88.12825020,-105.51767922,102.96577326,136.87014339
176.61093281,160.68355026,-66.92135051,116.94955956,95.66716146,66.99944132
-173.38568797,-48.76340799,-2.68656615,17.94870171,-2.97316383,-0.66669179
-0.76591068

>  <Confs_cresset>
0

>  <Favorite_cresset>
false

>  <Filename_cresset>
VTRRT-13V2.1.sdf

>  <Flexibility_cresset>
17.1

>  <LF LE>
-0.172

>  <LF Rank Score>
-13.57

>  <LF VSscore>
-13.341

>  <LF dG>
-8.761

>  <MW_cresset>
714.7

>  <Name>
Untitled

>  <Poses_cresset>
10

>  <Preferred Pose_cresset>
true

>  <Protein_cresset>
6Y2F_P

>  <RI>
-2.49597e+08

>  <Rbt.Current_Directory>
/root/miniconda3/envs/rdock/share/rxdock-2013.1.1_148c5bd1-0/data/ligands/prepped_ligands/VTRRT

>  <Rbt.Executable>
rbdock/0.1.0

>  <Rbt.Library>
librxdock.so/0.1.0

>  <Rbt.Parameter_File>
/root/miniconda3/envs/rdock/share/rxdock-2013.1.1_148c5bd1-0/data/scripts/dock.prm

>  <Rbt.Receptor>
def.prm

>  <Rof5_cresset>
3

>  <SCORE>
-17.9922

>  <SCORE.INTER>
-12.9768

>  <SCORE.INTER.CONST>
1

>  <SCORE.INTER.POLAR>
-0.980968

>  <SCORE.INTER.REPUL>
0.0540878

>  <SCORE.INTER.ROT>
15

>  <SCORE.INTER.VDW>
-30.312

>  <SCORE.INTER.norm>
-0.254447

>  <SCORE.INTRA>
-8.45738

>  <SCORE.INTRA.DIHEDRAL>
-9.28344

>  <SCORE.INTRA.DIHEDRAL.0>
43.3056

>  <SCORE.INTRA.POLAR>
-0.665396

>  <SCORE.INTRA.POLAR.0>
0

>  <SCORE.INTRA.REPUL>
-1.18384

>  <SCORE.INTRA.REPUL.0>
1.18384

>  <SCORE.INTRA.VDW>
4.36587

>  <SCORE.INTRA.VDW.0>
-7.21879

>  <SCORE.INTRA.norm>
-0.165831

>  <SCORE.RESTR>
2.24646

>  <SCORE.RESTR.CAVITY>
2.24646

>  <SCORE.RESTR.norm>
0.0440482

>  <SCORE.SYSTEM>
1.19557

>  <SCORE.SYSTEM.CONST>
0

>  <SCORE.SYSTEM.DIHEDRAL>
3.25041

>  <SCORE.SYSTEM.VDW>
-0.429633

>  <SCORE.SYSTEM.norm>
0.0234426

>  <SCORE.heavy>
51

>  <SCORE.norm>
-0.352787

>  <SlogP_cresset>
4

>  <TPSA_cresset>
225.1

>  <_cresset_fieldpoints>
    -5      16.836018       5.832630      29.221167     -3.6840
    -5      12.689775      -0.157515      20.961832    -26.5835
    -5      10.603017       0.175630      26.550167     -8.1895
    -5      16.438017       3.291630      24.075167     -2.5740
    -5      10.777017       2.958630      26.544167    -13.1420
    -5      14.325016       6.363630      19.343166     -3.9175
    -5      10.138498      -1.142644      20.673992    -19.3483
    -5       8.999017       3.081630      18.875168    -11.2330
    -5      16.643017      -2.580370      18.078167    -12.9950
    -5       9.665886      -1.797647      20.491711    -20.2282
    -5       9.721017       2.679630      21.897167    -10.3470
    -5       9.495016      -3.987370      19.277166    -12.3125
    -6       9.544017       6.999630      25.870167     13.2990
    -6      11.781016       8.517631      22.930166      7.7900
    -6      14.607017       1.112630      25.440166      7.0810
    -6      15.386017       0.918630      28.446167      2.3985
    -6      18.624016       1.298630      27.807167      2.3740
    -6      20.392017       2.874630      26.722168      2.3035
    -6      17.648016       0.730630      28.195168      2.3685
    -6      14.512016       8.724630      26.097166      6.5595
    -6       8.569016      -0.973370      14.343166     10.8755
    -6       7.728017       1.126630      14.428167      9.6685
    -6       9.165016      -5.976370      22.174168      8.4205
    -6      13.686016      -5.263370      22.254168      6.1950
    -6      13.877016       8.944631      27.096167      6.4995
    -6      12.880016      -5.307370      17.193167     12.0245
    -7      15.472016       6.118630      22.868166     -3.2390
    -7      16.618017       6.190630      29.550167     -1.8400
    -7      20.678017       4.935630      25.563168     -0.9695
    -7      14.813017       8.811630      25.026167     -2.2140
    -7      10.993016       2.287630      26.765167     -3.3000
    -7      14.052017       0.966630      26.100166     -2.8945
    -7      19.113016       1.220630      27.604168     -0.9705
    -7      16.034016       2.731630      23.912167     -3.3250
    -7      10.857017       6.577630      27.959167     -2.0560
    -7       9.494017       3.463630      21.639168     -4.2685
    -7      10.789017       9.786630      25.500168     -0.9715
    -7      14.840016       6.494630      19.649166     -1.8715
    -7       8.671017       3.594630      18.487167     -2.1885
    -7       9.509016       9.096630      19.641167     -0.9730
    -7      10.391017      -1.625370      26.086166     -2.4190
    -7       4.660017      -1.773370      25.985167     -0.9695
    -7       4.569016       2.557630      27.332167     -0.9680
    -7      14.875017      -4.579370      21.768167     -1.8885
    -7      13.267016      -5.347370      16.886168     -1.9350
    -7       6.954017      -1.202370      16.804167     -1.5235
    -7      11.071016       0.523630      14.355167     -1.5285
    -7      13.461017       0.151630      20.851168     -4.5370
    -7       9.025017      -1.430370      20.607166     -4.2605
    -8      14.386017       5.687630      26.072166      5.7545
    -8      16.303017       4.649630      26.702168      7.2160
    -8      12.821016       4.074630      23.412167      5.8535
    -8      11.879017       5.300630      20.313168      7.2105
    -8      14.967016       5.182630      26.638166      5.8010
    -8      12.613016       4.247630      22.352167      5.8285
    -8      13.423017       5.009630      25.510166      5.6895
    -8      12.579017       4.458630      21.224167      5.7810
    -8       7.903017       1.063630      24.720167      7.0265
    -8      11.517016      -3.053370      22.483168      4.3445
    -8      12.238016      -3.808370      21.025167      4.6035
    -8      12.152017      -3.126370      18.429167      4.4460
    -8      10.771017      -2.113370      17.279167      4.9125

$$$$
Untitled
  RxDock  02242101423D
librxdock.so/0.1.0
 60 65  0  0  0  0  0  0  0  0999 V2000
  -46.0139    0.9158   21.2352 C   0  0  0  0  0  0
  -45.0405    0.2605   20.5155 C   0  0  0  0  0  0
  -44.3350   -0.7779   21.0834 C   0  0  0  0  0  0
  -44.6123   -1.1558   22.3799 C   0  0  0  0  0  0
  -45.5845   -0.5011   23.1014 C   0  0  0  0  0  0
  -46.2851    0.5351   22.5286 C   0  0  0  0  0  0
  -43.2612   -1.5032   20.2851 C   0  0  0  0  0  0
  -42.1346   -0.6013   19.7337 C   0  0  0  0  0  0
  -41.7419    0.3962   20.7907 N   0  3  0  0  0  0
  -42.6074    0.1053   18.4422 C   0  0  0  0  0  0
  -43.3024    1.3210   18.7729 O   0  0  0  0  0  0
  -43.5418   -0.8042   17.6152 C   0  0  0  0  0  0
  -45.0077   -0.3203   17.6732 C   0  0  0  0  0  0
  -45.4418    0.1743   16.2749 C   0  0  0  0  0  0
  -46.2878   -0.7987   15.4679 C   0  0  0  0  0  0
  -45.8560   -2.0914   15.2642 C   0  0  0  0  0  0
  -46.6192   -2.9725   14.5310 C   0  0  0  0  0  0
  -47.8185   -2.5631   13.9965 C   0  0  0  0  0  0
  -48.2549   -1.2725   14.1968 C   0  0  0  0  0  0
  -47.4906   -0.3940   14.9309 C   0  0  0  0  0  0
  -45.8778   -1.4275   18.0926 N   0  0  0  0  0  0
  -47.2584   -0.9970   18.5204 P   0  0  0  0  0  0
  -48.3844   -1.5736   17.5282 O   0  0  0  0  0  0
  -47.4178    0.6003   18.3608 O   0  0  0  0  0  0
  -47.5513   -1.4173   19.9366 O   0  0  0  0  0  0
  -48.6737   -2.9791   17.5501 C   0  0  0  0  0  0
  -48.6119    1.2368   18.5547 C   0  0  0  0  0  0
  -49.8112    0.6747   18.1566 C   0  0  0  0  0  0
  -50.9961    1.3391   18.3695 C   0  0  0  0  0  0
  -50.9946    2.5707   18.9838 C   0  0  0  0  0  0
  -49.8057    3.1376   19.3828 C   0  0  0  0  0  0
  -48.6208    2.4751   19.1675 C   0  0  0  0  0  0
  -50.1710   -3.1969   17.8224 C   0  0  0  0  0  0
  -50.3791   -4.1694   18.8608 O   0  0  0  0  0  0
  -51.5787   -4.9241   18.6052 C   0  0  0  0  0  0
  -52.1387   -4.3970   17.2628 C   0  0  0  0  0  0
  -50.9347   -3.7182   16.5968 C   0  0  0  0  0  0
  -50.1735   -4.6935   15.8678 O   0  0  0  0  0  0
  -52.6982   -5.4270   16.4325 O   0  0  0  0  0  0
  -51.1432   -6.3854   18.6179 C   0  0  0  0  0  0
  -52.5313   -4.6589   19.6909 C   0  0  0  0  0  0
  -53.2688   -4.4525   20.5312 N   0  0  0  0  0  0
  -49.8417   -6.7270   18.4632 N   0  0  0  0  0  0
  -49.8193   -8.0849   18.5220 C   0  0  0  0  0  0
  -51.0662   -8.5897   18.7064 C   0  0  0  0  0  0
  -51.9174   -7.4827   18.7654 C   0  0  0  0  0  0
  -48.6941   -6.0104   18.2767 N   0  0  0  0  0  0
  -47.5703   -6.6768   18.1581 C   0  0  0  0  0  0
  -47.4275   -8.0406   18.2047 N   0  0  0  0  0  0
  -48.5622   -8.7294   18.3880 C   0  0  0  0  0  0
  -48.4617  -10.0997   18.4414 N   0  0  0  0  0  0
  -41.1390    1.0007   20.4779 H   0  0  0  0  0  0
  -42.4605    0.8688   21.0896 H   0  0  0  0  0  0
  -41.3756    0.0005   21.5213 H   0  0  0  0  0  0
  -43.6189    1.7966   17.9454 H   0  0  0  0  0  0
  -45.4220   -1.9752   18.8340 H   0  0  0  0  0  0
  -49.8093   -5.4049   16.4796 H   0  0  0  0  0  0
  -52.0182   -6.1379   16.2231 H   0  0  0  0  0  0
  -47.6740  -10.4837   18.3579 H   0  0  0  0  0  0
  -49.1799  -10.5954   18.5598 H   0  0  0  0  0  0
  1  2  2  0  0  0
  2  3  1  0  0  0
  3  4  2  0  0  0
  3  7  1  0  0  0
  4  5  1  0  0  0
  5  6  2  0  0  0
  6  1  1  0  0  0
  7  8  1  0  0  0
  8  9  1  0  0  0
  8 10  1  0  0  0
 10 11  1  0  0  0
 10 12  1  0  0  0
 12 13  1  0  0  0
 13 14  1  0  0  0
 13 21  1  0  0  0
 14 15  1  0  0  0
 15 16  2  0  0  0
 16 17  1  0  0  0
 17 18  2  0  0  0
 18 19  1  0  0  0
 19 20  2  0  0  0
 20 15  1  0  0  0
 21 22  1  0  0  0
 22 23  1  0  0  0
 22 24  1  0  0  0
 22 25  2  0  0  0
 23 26  1  0  0  0
 24 27  1  0  0  0
 27 28  2  0  0  0
 28 29  1  0  0  0
 29 30  2  0  0  0
 30 31  1  0  0  0
 31 32  2  0  0  0
 32 27  1  0  0  0
 33 26  1  0  0  0
 33 34  1  0  0  0
 34 35  1  0  0  0
 35 36  1  0  0  0
 35 40  1  0  0  0
 35 41  1  0  0  0
 36 37  1  0  0  0
 36 39  1  0  0  0
 37 33  1  0  0  0
 37 38  1  0  0  0
 40 43  1  0  0  0
 41 42  3  0  0  0
 43 44  1  0  0  0
 43 47  1  0  0  0
 44 45  2  0  0  0
 45 46  1  0  0  0
 46 40  2  0  0  0
 47 48  2  0  0  0
 48 49  1  0  0  0
 49 50  2  0  0  0
 50 44  1  0  0  0
 50 51  1  0  0  0
  9 52  1  0  0  0
  9 53  1  0  0  0
  9 54  1  0  0  0
 11 55  1  0  0  0
 21 56  1  0  0  0
 38 57  1  0  0  0
 39 58  1  0  0  0
 51 59  1  0  0  0
 51 60  1  0  0  0
M  END
>  <#Atoms_cresset>
51

>  <#RB_cresset>
18

>  <BioMolTech Lead Finder LE>
-0.172

>  <BioMolTech Lead Finder Pose rank>
0

>  <BioMolTech Lead Finder Rank score>
-13.57

>  <BioMolTech Lead Finder SDF id>
0

>  <BioMolTech Lead Finder Structure Name>
/var/folders/xd/y7jw_xv579q2qqq7kks92xd80000gn/T/LeadFinder_21448_1/Ligand_1.sdf

>  <BioMolTech Lead Finder VSscore>
-13.341

>  <BioMolTech Lead Finder dG>
-8.761

>  <BioMolTech Lead Finder version>
2001 1, 19 January 2019

>  <CHROM.0>
-138.04423479,57.62204396,-65.72779161

>  <CHROM.1>
56.90222135,41.80615837,-174.27392337,86.24475856,-179.98826542,108.01478150
113.04737195,101.10705717,165.26458583,-52.70421599,115.07908409,70.94118266
173.47530332,123.96513796,-37.58149316,-131.38651783,-18.68531285,-58.23908499
49.60580921,-47.86155225,-2.41801598,18.38237697,0.88184659,-0.24234097,-0.00159221

>  <Confs_cresset>
0

>  <Favorite_cresset>
false

>  <Filename_cresset>
VTRRT-13V2.1.sdf

>  <Flexibility_cresset>
17.1

>  <LF LE>
-0.172

>  <LF Rank Score>
-13.57

>  <LF VSscore>
-13.341

>  <LF dG>
-8.761

>  <MW_cresset>
714.7

>  <Name>
Untitled

>  <Poses_cresset>
10

>  <Preferred Pose_cresset>
true

>  <Protein_cresset>
6Y2F_P

>  <RI>
-2.49597e+08

>  <Rbt.Current_Directory>
/root/miniconda3/envs/rdock/share/rxdock-2013.1.1_148c5bd1-0/data/ligands/prepped_ligands/VTRRT

>  <Rbt.Executable>
rbdock/0.1.0

>  <Rbt.Library>
librxdock.so/0.1.0

>  <Rbt.Parameter_File>
/root/miniconda3/envs/rdock/share/rxdock-2013.1.1_148c5bd1-0/data/scripts/dock.prm

>  <Rbt.Receptor>
def.prm

>  <Rof5_cresset>
3

>  <SCORE>
-15.5087

>  <SCORE.INTER>
-8.21267

>  <SCORE.INTER.CONST>
1

>  <SCORE.INTER.POLAR>
-0.304025

>  <SCORE.INTER.REPUL>
0.100466

>  <SCORE.INTER.ROT>
15

>  <SCORE.INTER.VDW>
-28.0813

>  <SCORE.INTER.norm>
-0.161033

>  <SCORE.INTRA>
-10.1665

>  <SCORE.INTRA.DIHEDRAL>
-5.00449

>  <SCORE.INTRA.DIHEDRAL.0>
43.3056

>  <SCORE.INTRA.POLAR>
-0.695844

>  <SCORE.INTRA.POLAR.0>
0

>  <SCORE.INTRA.REPUL>
-1.18384

>  <SCORE.INTRA.REPUL.0>
1.18384

>  <SCORE.INTRA.VDW>
0.620819

>  <SCORE.INTRA.VDW.0>
-7.21879

>  <SCORE.INTRA.norm>
-0.199343

>  <SCORE.RESTR>
1.84342

>  <SCORE.RESTR.CAVITY>
1.84342

>  <SCORE.RESTR.norm>
0.0361456

>  <SCORE.SYSTEM>
1.02707

>  <SCORE.SYSTEM.CONST>
0

>  <SCORE.SYSTEM.DIHEDRAL>
2.95607

>  <SCORE.SYSTEM.VDW>
-0.450964

>  <SCORE.SYSTEM.norm>
0.0201386

>  <SCORE.heavy>
51

>  <SCORE.norm>
-0.304091

>  <SlogP_cresset>
4

>  <TPSA_cresset>
225.1

>  <_cresset_fieldpoints>
    -5      16.836018       5.832630      29.221167     -3.6840
    -5      12.689775      -0.157515      20.961832    -26.5835
    -5      10.603017       0.175630      26.550167     -8.1895
    -5      16.438017       3.291630      24.075167     -2.5740
    -5      10.777017       2.958630      26.544167    -13.1420
    -5      14.325016       6.363630      19.343166     -3.9175
    -5      10.138498      -1.142644      20.673992    -19.3483
    -5       8.999017       3.081630      18.875168    -11.2330
    -5      16.643017      -2.580370      18.078167    -12.9950
    -5       9.665886      -1.797647      20.491711    -20.2282
    -5       9.721017       2.679630      21.897167    -10.3470
    -5       9.495016      -3.987370      19.277166    -12.3125
    -6       9.544017       6.999630      25.870167     13.2990
    -6      11.781016       8.517631      22.930166      7.7900
    -6      14.607017       1.112630      25.440166      7.0810
    -6      15.386017       0.918630      28.446167      2.3985
    -6      18.624016       1.298630      27.807167      2.3740
    -6      20.392017       2.874630      26.722168      2.3035
    -6      17.648016       0.730630      28.195168      2.3685
    -6      14.512016       8.724630      26.097166      6.5595
    -6       8.569016      -0.973370      14.343166     10.8755
    -6       7.728017       1.126630      14.428167      9.6685
    -6       9.165016      -5.976370      22.174168      8.4205
    -6      13.686016      -5.263370      22.254168      6.1950
    -6      13.877016       8.944631      27.096167      6.4995
    -6      12.880016      -5.307370      17.193167     12.0245
    -7      15.472016       6.118630      22.868166     -3.2390
    -7      16.618017       6.190630      29.550167     -1.8400
    -7      20.678017       4.935630      25.563168     -0.9695
    -7      14.813017       8.811630      25.026167     -2.2140
    -7      10.993016       2.287630      26.765167     -3.3000
    -7      14.052017       0.966630      26.100166     -2.8945
    -7      19.113016       1.220630      27.604168     -0.9705
    -7      16.034016       2.731630      23.912167     -3.3250
    -7      10.857017       6.577630      27.959167     -2.0560
    -7       9.494017       3.463630      21.639168     -4.2685
    -7      10.789017       9.786630      25.500168     -0.9715
    -7      14.840016       6.494630      19.649166     -1.8715
    -7       8.671017       3.594630      18.487167     -2.1885
    -7       9.509016       9.096630      19.641167     -0.9730
    -7      10.391017      -1.625370      26.086166     -2.4190
    -7       4.660017      -1.773370      25.985167     -0.9695
    -7       4.569016       2.557630      27.332167     -0.9680
    -7      14.875017      -4.579370      21.768167     -1.8885
    -7      13.267016      -5.347370      16.886168     -1.9350
    -7       6.954017      -1.202370      16.804167     -1.5235
    -7      11.071016       0.523630      14.355167     -1.5285
    -7      13.461017       0.151630      20.851168     -4.5370
    -7       9.025017      -1.430370      20.607166     -4.2605
    -8      14.386017       5.687630      26.072166      5.7545
    -8      16.303017       4.649630      26.702168      7.2160
    -8      12.821016       4.074630      23.412167      5.8535
    -8      11.879017       5.300630      20.313168      7.2105
    -8      14.967016       5.182630      26.638166      5.8010
    -8      12.613016       4.247630      22.352167      5.8285
    -8      13.423017       5.009630      25.510166      5.6895
    -8      12.579017       4.458630      21.224167      5.7810
    -8       7.903017       1.063630      24.720167      7.0265
    -8      11.517016      -3.053370      22.483168      4.3445
    -8      12.238016      -3.808370      21.025167      4.6035
    -8      12.152017      -3.126370      18.429167      4.4460
    -8      10.771017      -2.113370      17.279167      4.9125

$$$$
Untitled
  RxDock  02242101423D
librxdock.so/0.1.0
 60 65  0  0  0  0  0  0  0  0999 V2000
  -47.4790    0.8585   22.3387 C   0  0  0  0  0  0
  -46.1708    1.1838   22.0601 C   0  0  0  0  0  0
  -45.1977    0.2084   22.0502 C   0  0  0  0  0  0
  -45.5454   -1.0977   22.3220 C   0  0  0  0  0  0
  -46.8527   -1.4247   22.6019 C   0  0  0  0  0  0
  -47.8195   -0.4459   22.6103 C   0  0  0  0  0  0
  -43.7523    0.5694   21.7389 C   0  0  0  0  0  0
  -43.2486    0.1143   20.3511 C   0  0  0  0  0  0
  -41.8181    0.5511   20.1800 N   0  3  0  0  0  0
  -44.1519    0.7018   19.2422 C   0  0  0  0  0  0
  -44.1500    2.1387   19.3160 O   0  0  0  0  0  0
  -45.6027    0.1891   19.3704 C   0  0  0  0  0  0
  -46.3465    0.2358   18.0172 C   0  0  0  0  0  0
  -45.3821    0.7338   16.9171 C   0  0  0  0  0  0
  -44.6555   -0.3531   16.1399 C   0  0  0  0  0  0
  -45.0042   -0.6253   14.8347 C   0  0  0  0  0  0
  -44.3495   -1.6113   14.1308 C   0  0  0  0  0  0
  -43.3429   -2.3312   14.7308 C   0  0  0  0  0  0
  -42.9903   -2.0636   16.0348 C   0  0  0  0  0  0
  -43.6456   -1.0768   16.7359 C   0  0  0  0  0  0
  -46.8304   -1.1080   17.6722 N   0  0  0  0  0  0
  -48.3277   -1.2643   17.7613 P   0  0  0  0  0  0
  -48.7939   -1.5817   19.2669 O   0  0  0  0  0  0
  -48.7995   -2.5769   16.9511 O   0  0  0  0  0  0
  -49.0399   -0.0417   17.2452 O   0  0  0  0  0  0
  -50.1975   -1.6267   19.5630 C   0  0  0  0  0  0
  -49.2781   -2.5116   15.6722 C   0  0  0  0  0  0
  -48.7157   -3.2466   14.6445 C   0  0  0  0  0  0
  -49.2230   -3.1615   13.3693 C   0  0  0  0  0  0
  -50.2980   -2.3428   13.1087 C   0  0  0  0  0  0
  -50.8635   -1.6075   14.1254 C   0  0  0  0  0  0
  -50.3549   -1.6900   15.3996 C   0  0  0  0  0  0
  -50.4565   -2.6280   20.7004 C   0  0  0  0  0  0
  -49.6397   -3.8031   20.5607 O   0  0  0  0  0  0
  -50.3459   -4.9622   21.0418 C   0  0  0  0  0  0
  -51.7431   -4.4620   21.4789 C   0  0  0  0  0  0
  -51.9082   -3.1258   20.7434 C   0  0  0  0  0  0
  -52.4317   -3.3612   19.4271 O   0  0  0  0  0  0
  -52.8031   -5.3792   21.1651 O   0  0  0  0  0  0
  -50.3252   -5.9536   19.8833 C   0  0  0  0  0  0
  -49.6162   -5.5011   22.1967 C   0  0  0  0  0  0
  -49.0515   -5.9174   23.0913 N   0  0  0  0  0  0
  -49.1609   -6.4864   19.4416 N   0  0  0  0  0  0
  -49.5104   -7.3091   18.4175 C   0  0  0  0  0  0
  -50.8528   -7.2981   18.2140 C   0  0  0  0  0  0
  -51.3723   -6.4164   19.1660 C   0  0  0  0  0  0
  -47.8553   -6.3410   19.8150 N   0  0  0  0  0  0
  -46.9510   -7.0233   19.1532 C   0  0  0  0  0  0
  -47.1866   -7.8823   18.1096 N   0  0  0  0  0  0
  -48.4722   -8.0141   17.7551 C   0  0  0  0  0  0
  -48.7505   -8.8671   16.7133 N   0  0  0  0  0  0
  -41.3125    0.3457   20.9074 H   0  0  0  0  0  0
  -41.4275    0.1477   19.4632 H   0  0  0  0  0  0
  -41.7432    1.4454   20.0411 H   0  0  0  0  0  0
  -44.5181    2.5474   18.4742 H   0  0  0  0  0  0
  -46.3563   -1.8145   18.2497 H   0  0  0  0  0  0
  -52.5143   -2.5031   18.9076 H   0  0  0  0  0  0
  -52.6753   -6.2602   21.6332 H   0  0  0  0  0  0
  -48.0948   -9.2978   16.3140 H   0  0  0  0  0  0
  -49.5804   -8.9861   16.4437 H   0  0  0  0  0  0
  1  2  2  0  0  0
  2  3  1  0  0  0
  3  4  2  0  0  0
  3  7  1  0  0  0
  4  5  1  0  0  0
  5  6  2  0  0  0
  6  1  1  0  0  0
  7  8  1  0  0  0
  8  9  1  0  0  0
  8 10  1  0  0  0
 10 11  1  0  0  0
 10 12  1  0  0  0
 12 13  1  0  0  0
 13 14  1  0  0  0
 13 21  1  0  0  0
 14 15  1  0  0  0
 15 16  2  0  0  0
 16 17  1  0  0  0
 17 18  2  0  0  0
 18 19  1  0  0  0
 19 20  2  0  0  0
 20 15  1  0  0  0
 21 22  1  0  0  0
 22 23  1  0  0  0
 22 24  1  0  0  0
 22 25  2  0  0  0
 23 26  1  0  0  0
 24 27  1  0  0  0
 27 28  2  0  0  0
 28 29  1  0  0  0
 29 30  2  0  0  0
 30 31  1  0  0  0
 31 32  2  0  0  0
 32 27  1  0  0  0
 33 26  1  0  0  0
 33 34  1  0  0  0
 34 35  1  0  0  0
 35 36  1  0  0  0
 35 40  1  0  0  0
 35 41  1  0  0  0
 36 37  1  0  0  0
 36 39  1  0  0  0
 37 33  1  0  0  0
 37 38  1  0  0  0
 40 43  1  0  0  0
 41 42  3  0  0  0
 43 44  1  0  0  0
 43 47  1  0  0  0
 44 45  2  0  0  0
 45 46  1  0  0  0
 46 40  2  0  0  0
 47 48  2  0  0  0
 48 49  1  0  0  0
 49 50  2  0  0  0
 50 44  1  0  0  0
 50 51  1  0  0  0
  9 52  1  0  0  0
  9 53  1  0  0  0
  9 54  1  0  0  0
 11 55  1  0  0  0
 21 56  1  0  0  0
 38 57  1  0  0  0
 39 58  1  0  0  0
 51 59  1  0  0  0
 51 60  1  0  0  0
M  END
>  <#Atoms_cresset>
51

>  <#RB_cresset>
18

>  <BioMolTech Lead Finder LE>
-0.172

>  <BioMolTech Lead Finder Pose rank>
0

>  <BioMolTech Lead Finder Rank score>
-13.57

>  <BioMolTech Lead Finder SDF id>
0

>  <BioMolTech Lead Finder Structure Name>
/var/folders/xd/y7jw_xv579q2qqq7kks92xd80000gn/T/LeadFinder_21448_1/Ligand_1.sdf

>  <BioMolTech Lead Finder VSscore>
-13.341

>  <BioMolTech Lead Finder dG>
-8.761

>  <BioMolTech Lead Finder version>
2001 1, 19 January 2019

>  <CHROM.0>
-33.50232846,-63.85282412,-177.70415270

>  <CHROM.1>
-107.22923141,179.39865875,47.55790007,58.85818093,164.68465206,-155.33462059
2.34234096,93.52957063,109.42006569,107.55367047,-83.77791378,173.72373192
-97.47735991,149.09009230,124.34600360,-39.81193241,65.02412710,61.22032839
-66.23993087,-47.80038229,-2.62464505,18.69444284,0.05643061,0.79936736,1.40914444

>  <Confs_cresset>
0

>  <Favorite_cresset>
false

>  <Filename_cresset>
VTRRT-13V2.1.sdf

>  <Flexibility_cresset>
17.1

>  <LF LE>
-0.172

>  <LF Rank Score>
-13.57

>  <LF VSscore>
-13.341

>  <LF dG>
-8.761

>  <MW_cresset>
714.7

>  <Name>
Untitled

>  <Poses_cresset>
10

>  <Preferred Pose_cresset>
true

>  <Protein_cresset>
6Y2F_P

>  <RI>
-2.49597e+08

>  <Rbt.Current_Directory>
/root/miniconda3/envs/rdock/share/rxdock-2013.1.1_148c5bd1-0/data/ligands/prepped_ligands/VTRRT

>  <Rbt.Executable>
rbdock/0.1.0

>  <Rbt.Library>
librxdock.so/0.1.0

>  <Rbt.Parameter_File>
/root/miniconda3/envs/rdock/share/rxdock-2013.1.1_148c5bd1-0/data/scripts/dock.prm

>  <Rbt.Receptor>
def.prm

>  <Rof5_cresset>
3

>  <SCORE>
-5.44527

>  <SCORE.INTER>
-2.1016

>  <SCORE.INTER.CONST>
1

>  <SCORE.INTER.POLAR>
-1.20619

>  <SCORE.INTER.REPUL>
0.691032

>  <SCORE.INTER.ROT>
15

>  <SCORE.INTER.VDW>
-21.8557

>  <SCORE.INTER.norm>
-0.0412078

>  <SCORE.INTRA>
-5.99643

>  <SCORE.INTRA.DIHEDRAL>
-15.5836

>  <SCORE.INTRA.DIHEDRAL.0>
43.3056

>  <SCORE.INTRA.POLAR>
0

>  <SCORE.INTRA.POLAR.0>
0

>  <SCORE.INTRA.REPUL>
-1.17108

>  <SCORE.INTRA.REPUL.0>
1.18384

>  <SCORE.INTRA.VDW>
7.65074

>  <SCORE.INTRA.VDW.0>
-7.21879

>  <SCORE.INTRA.norm>
-0.117577

>  <SCORE.RESTR>
2.76726

>  <SCORE.RESTR.CAVITY>
2.76726

>  <SCORE.RESTR.norm>
0.05426

>  <SCORE.SYSTEM>
-0.114498

>  <SCORE.SYSTEM.CONST>
0

>  <SCORE.SYSTEM.DIHEDRAL>
1.54213

>  <SCORE.SYSTEM.POLAR>
-0.00725485

>  <SCORE.SYSTEM.VDW>
-0.860899

>  <SCORE.SYSTEM.norm>
-0.00224506

>  <SCORE.heavy>
51

>  <SCORE.norm>
-0.10677

>  <SlogP_cresset>
4

>  <TPSA_cresset>
225.1

>  <_cresset_fieldpoints>
    -5      16.836018       5.832630      29.221167     -3.6840
    -5      12.689775      -0.157515      20.961832    -26.5835
    -5      10.603017       0.175630      26.550167     -8.1895
    -5      16.438017       3.291630      24.075167     -2.5740
    -5      10.777017       2.958630      26.544167    -13.1420
    -5      14.325016       6.363630      19.343166     -3.9175
    -5      10.138498      -1.142644      20.673992    -19.3483
    -5       8.999017       3.081630      18.875168    -11.2330
    -5      16.643017      -2.580370      18.078167    -12.9950
    -5       9.665886      -1.797647      20.491711    -20.2282
    -5       9.721017       2.679630      21.897167    -10.3470
    -5       9.495016      -3.987370      19.277166    -12.3125
    -6       9.544017       6.999630      25.870167     13.2990
    -6      11.781016       8.517631      22.930166      7.7900
    -6      14.607017       1.112630      25.440166      7.0810
    -6      15.386017       0.918630      28.446167      2.3985
    -6      18.624016       1.298630      27.807167      2.3740
    -6      20.392017       2.874630      26.722168      2.3035
    -6      17.648016       0.730630      28.195168      2.3685
    -6      14.512016       8.724630      26.097166      6.5595
    -6       8.569016      -0.973370      14.343166     10.8755
    -6       7.728017       1.126630      14.428167      9.6685
    -6       9.165016      -5.976370      22.174168      8.4205
    -6      13.686016      -5.263370      22.254168      6.1950
    -6      13.877016       8.944631      27.096167      6.4995
    -6      12.880016      -5.307370      17.193167     12.0245
    -7      15.472016       6.118630      22.868166     -3.2390
    -7      16.618017       6.190630      29.550167     -1.8400
    -7      20.678017       4.935630      25.563168     -0.9695
    -7      14.813017       8.811630      25.026167     -2.2140
    -7      10.993016       2.287630      26.765167     -3.3000
    -7      14.052017       0.966630      26.100166     -2.8945
    -7      19.113016       1.220630      27.604168     -0.9705
    -7      16.034016       2.731630      23.912167     -3.3250
    -7      10.857017       6.577630      27.959167     -2.0560
    -7       9.494017       3.463630      21.639168     -4.2685
    -7      10.789017       9.786630      25.500168     -0.9715
    -7      14.840016       6.494630      19.649166     -1.8715
    -7       8.671017       3.594630      18.487167     -2.1885
    -7       9.509016       9.096630      19.641167     -0.9730
    -7      10.391017      -1.625370      26.086166     -2.4190
    -7       4.660017      -1.773370      25.985167     -0.9695
    -7       4.569016       2.557630      27.332167     -0.9680
    -7      14.875017      -4.579370      21.768167     -1.8885
    -7      13.267016      -5.347370      16.886168     -1.9350
    -7       6.954017      -1.202370      16.804167     -1.5235
    -7      11.071016       0.523630      14.355167     -1.5285
    -7      13.461017       0.151630      20.851168     -4.5370
    -7       9.025017      -1.430370      20.607166     -4.2605
    -8      14.386017       5.687630      26.072166      5.7545
    -8      16.303017       4.649630      26.702168      7.2160
    -8      12.821016       4.074630      23.412167      5.8535
    -8      11.879017       5.300630      20.313168      7.2105
    -8      14.967016       5.182630      26.638166      5.8010
    -8      12.613016       4.247630      22.352167      5.8285
    -8      13.423017       5.009630      25.510166      5.6895
    -8      12.579017       4.458630      21.224167      5.7810
    -8       7.903017       1.063630      24.720167      7.0265
    -8      11.517016      -3.053370      22.483168      4.3445
    -8      12.238016      -3.808370      21.025167      4.6035
    -8      12.152017      -3.126370      18.429167      4.4460
    -8      10.771017      -2.113370      17.279167      4.9125

$$$$
Untitled
  RxDock  02242101423D
librxdock.so/0.1.0
 60 65  0  0  0  0  0  0  0  0999 V2000
  -43.2131   -1.1605   21.9297 C   0  0  0  0  0  0
  -43.5378   -1.7555   20.7317 C   0  0  0  0  0  0
  -43.0514   -1.2468   19.5472 C   0  0  0  0  0  0
  -42.2357   -0.1356   19.5716 C   0  0  0  0  0  0
  -41.9108    0.4614   20.7685 C   0  0  0  0  0  0
  -42.4000   -0.0514   21.9477 C   0  0  0  0  0  0
  -43.4090   -1.9078   18.2237 C   0  0  0  0  0  0
  -44.8714   -1.7087   17.7671 C   0  0  0  0  0  0
  -45.3628   -2.9783   17.1244 N   0  3  0  0  0  0
  -44.9623   -0.5131   16.7908 C   0  0  0  0  0  0
  -44.3370    0.6451   17.3720 O   0  0  0  0  0  0
  -46.4304   -0.1789   16.4485 C   0  0  0  0  0  0
  -47.2774    0.0422   17.7214 C   0  0  0  0  0  0
  -46.9447    1.4247   18.3268 C   0  0  0  0  0  0
  -46.2773    1.3994   19.6934 C   0  0  0  0  0  0
  -46.7894    0.6126   20.7023 C   0  0  0  0  0  0
  -46.1883    0.5910   21.9410 C   0  0  0  0  0  0
  -45.0718    1.3589   22.1766 C   0  0  0  0  0  0
  -44.5558    2.1471   21.1723 C   0  0  0  0  0  0
  -45.1580    2.1660   19.9345 C   0  0  0  0  0  0
  -48.7055   -0.0120   17.3807 N   0  0  0  0  0  0
  -49.3938   -1.2817   17.8149 P   0  0  0  0  0  0
  -48.9547   -1.7055   19.3024 O   0  0  0  0  0  0
  -48.8869   -2.5239   16.9193 O   0  0  0  0  0  0
  -50.8919   -1.1502   17.7347 O   0  0  0  0  0  0
  -49.7087   -1.2060   20.4166 C   0  0  0  0  0  0
  -49.1673   -2.6231   15.5850 C   0  0  0  0  0  0
  -50.4496   -2.4554   15.0947 C   0  0  0  0  0  0
  -50.6982   -2.5577   13.7462 C   0  0  0  0  0  0
  -49.6680   -2.8268   12.8743 C   0  0  0  0  0  0
  -48.3890   -2.9956   13.3536 C   0  0  0  0  0  0
  -48.1406   -2.8963   14.7018 C   0  0  0  0  0  0
  -50.5999   -2.3232   20.9833 C   0  0  0  0  0  0
  -50.4005   -3.5609   20.2794 O   0  0  0  0  0  0
  -51.6330   -4.3030   20.2149 C   0  0  0  0  0  0
  -52.7005   -3.4216   20.9057 C   0  0  0  0  0  0
  -52.0989   -2.0107   20.8713 C   0  0  0  0  0  0
  -52.4213   -1.3792   19.6226 O   0  0  0  0  0  0
  -53.9849   -3.4706   20.2645 O   0  0  0  0  0  0
  -51.8561   -4.5813   18.7324 C   0  0  0  0  0  0
  -51.4554   -5.5584   20.9558 C   0  0  0  0  0  0
  -51.3178   -6.5298   21.5303 N   0  0  0  0  0  0
  -50.8286   -4.9451   17.9283 N   0  0  0  0  0  0
  -51.3791   -5.1055   16.6958 C   0  0  0  0  0  0
  -52.7125   -4.8502   16.7157 C   0  0  0  0  0  0
  -53.0126   -4.5097   18.0376 C   0  0  0  0  0  0
  -49.4939   -5.1463   18.1360 N   0  0  0  0  0  0
  -48.7622   -5.5012   17.1065 C   0  0  0  0  0  0
  -49.2078   -5.6953   15.8234 N   0  0  0  0  0  0
  -50.5192   -5.4939   15.6358 C   0  0  0  0  0  0
  -51.0059   -5.6791   14.3633 N   0  0  0  0  0  0
  -46.1787   -2.8682   16.7384 H   0  0  0  0  0  0
  -44.7969   -3.2646   16.4710 H   0  0  0  0  0  0
  -45.4333   -3.6621   17.7177 H   0  0  0  0  0  0
  -43.3458    0.5108   17.4755 H   0  0  0  0  0  0
  -48.8357    0.1455   16.3729 H   0  0  0  0  0  0
  -51.9605   -1.8349   18.8526 H   0  0  0  0  0  0
  -54.6061   -2.7721   20.6356 H   0  0  0  0  0  0
  -50.4591   -5.9214   13.7173 H   0  0  0  0  0  0
  -51.8609   -5.5581   14.1906 H   0  0  0  0  0  0
  1  2  2  0  0  0
  2  3  1  0  0  0
  3  4  2  0  0  0
  3  7  1  0  0  0
  4  5  1  0  0  0
  5  6  2  0  0  0
  6  1  1  0  0  0
  7  8  1  0  0  0
  8  9  1  0  0  0
  8 10  1  0  0  0
 10 11  1  0  0  0
 10 12  1  0  0  0
 12 13  1  0  0  0
 13 14  1  0  0  0
 13 21  1  0  0  0
 14 15  1  0  0  0
 15 16  2  0  0  0
 16 17  1  0  0  0
 17 18  2  0  0  0
 18 19  1  0  0  0
 19 20  2  0  0  0
 20 15  1  0  0  0
 21 22  1  0  0  0
 22 23  1  0  0  0
 22 24  1  0  0  0
 22 25  2  0  0  0
 23 26  1  0  0  0
 24 27  1  0  0  0
 27 28  2  0  0  0
 28 29  1  0  0  0
 29 30  2  0  0  0
 30 31  1  0  0  0
 31 32  2  0  0  0
 32 27  1  0  0  0
 33 26  1  0  0  0
 33 34  1  0  0  0
 34 35  1  0  0  0
 35 36  1  0  0  0
 35 40  1  0  0  0
 35 41  1  0  0  0
 36 37  1  0  0  0
 36 39  1  0  0  0
 37 33  1  0  0  0
 37 38  1  0  0  0
 40 43  1  0  0  0
 41 42  3  0  0  0
 43 44  1  0  0  0
 43 47  1  0  0  0
 44 45  2  0  0  0
 45 46  1  0  0  0
 46 40  2  0  0  0
 47 48  2  0  0  0
 48 49  1  0  0  0
 49 50  2  0  0  0
 50 44  1  0  0  0
 50 51  1  0  0  0
  9 52  1  0  0  0
  9 53  1  0  0  0
  9 54  1  0  0  0
 11 55  1  0  0  0
 21 56  1  0  0  0
 38 57  1  0  0  0
 39 58  1  0  0  0
 51 59  1  0  0  0
 51 60  1  0  0  0
M  END
>  <#Atoms_cresset>
51

>  <#RB_cresset>
18

>  <BioMolTech Lead Finder LE>
-0.172

>  <BioMolTech Lead Finder Pose rank>
0

>  <BioMolTech Lead Finder Rank score>
-13.57

>  <BioMolTech Lead Finder SDF id>
0

>  <BioMolTech Lead Finder Structure Name>
/var/folders/xd/y7jw_xv579q2qqq7kks92xd80000gn/T/LeadFinder_21448_1/Ligand_1.sdf

>  <BioMolTech Lead Finder VSscore>
-13.341

>  <BioMolTech Lead Finder dG>
-8.761

>  <BioMolTech Lead Finder version>
2001 1, 19 January 2019

>  <CHROM.0>
172.27325654,61.31757789,105.35290922

>  <CHROM.1>
71.66898836,-142.13142241,-172.07277985,-51.98291735,66.43972732,53.77948340
75.39511950,-114.57292757,105.49226360,-47.97601734,43.33398753,89.62326433
-66.98562640,104.83985453,-49.24756471,2.02824034,41.46887091,-170.09851377
44.32903688,-48.35339472,-2.11627944,18.39072293,0.39063041,0.46729159,1.31667351

>  <Confs_cresset>
0

>  <Favorite_cresset>
false

>  <Filename_cresset>
VTRRT-13V2.1.sdf

>  <Flexibility_cresset>
17.1

>  <LF LE>
-0.172

>  <LF Rank Score>
-13.57

>  <LF VSscore>
-13.341

>  <LF dG>
-8.761

>  <MW_cresset>
714.7

>  <Name>
Untitled

>  <Poses_cresset>
10

>  <Preferred Pose_cresset>
true

>  <Protein_cresset>
6Y2F_P

>  <RI>
-2.49597e+08

>  <Rbt.Current_Directory>
/root/miniconda3/envs/rdock/share/rxdock-2013.1.1_148c5bd1-0/data/ligands/prepped_ligands/VTRRT

>  <Rbt.Executable>
rbdock/0.1.0

>  <Rbt.Library>
librxdock.so/0.1.0

>  <Rbt.Parameter_File>
/root/miniconda3/envs/rdock/share/rxdock-2013.1.1_148c5bd1-0/data/scripts/dock.prm

>  <Rbt.Receptor>
def.prm

>  <Rof5_cresset>
3

>  <SCORE>
-26.4417

>  <SCORE.INTER>
-7.60538

>  <SCORE.INTER.CONST>
1

>  <SCORE.INTER.POLAR>
-0.236728

>  <SCORE.INTER.REPUL>
0.00329928

>  <SCORE.INTER.ROT>
15

>  <SCORE.INTER.VDW>
-27.217

>  <SCORE.INTER.norm>
-0.149125

>  <SCORE.INTRA>
-20.2495

>  <SCORE.INTRA.DIHEDRAL>
-11.4907

>  <SCORE.INTRA.DIHEDRAL.0>
43.3056

>  <SCORE.INTRA.POLAR>
-0.554174

>  <SCORE.INTRA.POLAR.0>
0

>  <SCORE.INTRA.REPUL>
-1.04132

>  <SCORE.INTRA.REPUL.0>
1.18384

>  <SCORE.INTRA.VDW>
-7.41337

>  <SCORE.INTRA.VDW.0>
-7.21879

>  <SCORE.INTRA.norm>
-0.397049

>  <SCORE.RESTR>
0.0441486

>  <SCORE.RESTR.CAVITY>
0.0441486

>  <SCORE.RESTR.norm>
0.000865658

>  <SCORE.SYSTEM>
1.36909

>  <SCORE.SYSTEM.CONST>
0

>  <SCORE.SYSTEM.DIHEDRAL>
3.24472

>  <SCORE.SYSTEM.POLAR>
-0.000230884

>  <SCORE.SYSTEM.VDW>
-0.252483

>  <SCORE.SYSTEM.norm>
0.0268449

>  <SCORE.heavy>
51

>  <SCORE.norm>
-0.518464

>  <SlogP_cresset>
4

>  <TPSA_cresset>
225.1

>  <_cresset_fieldpoints>
    -5      16.836018       5.832630      29.221167     -3.6840
    -5      12.689775      -0.157515      20.961832    -26.5835
    -5      10.603017       0.175630      26.550167     -8.1895
    -5      16.438017       3.291630      24.075167     -2.5740
    -5      10.777017       2.958630      26.544167    -13.1420
    -5      14.325016       6.363630      19.343166     -3.9175
    -5      10.138498      -1.142644      20.673992    -19.3483
    -5       8.999017       3.081630      18.875168    -11.2330
    -5      16.643017      -2.580370      18.078167    -12.9950
    -5       9.665886      -1.797647      20.491711    -20.2282
    -5       9.721017       2.679630      21.897167    -10.3470
    -5       9.495016      -3.987370      19.277166    -12.3125
    -6       9.544017       6.999630      25.870167     13.2990
    -6      11.781016       8.517631      22.930166      7.7900
    -6      14.607017       1.112630      25.440166      7.0810
    -6      15.386017       0.918630      28.446167      2.3985
    -6      18.624016       1.298630      27.807167      2.3740
    -6      20.392017       2.874630      26.722168      2.3035
    -6      17.648016       0.730630      28.195168      2.3685
    -6      14.512016       8.724630      26.097166      6.5595
    -6       8.569016      -0.973370      14.343166     10.8755
    -6       7.728017       1.126630      14.428167      9.6685
    -6       9.165016      -5.976370      22.174168      8.4205
    -6      13.686016      -5.263370      22.254168      6.1950
    -6      13.877016       8.944631      27.096167      6.4995
    -6      12.880016      -5.307370      17.193167     12.0245
    -7      15.472016       6.118630      22.868166     -3.2390
    -7      16.618017       6.190630      29.550167     -1.8400
    -7      20.678017       4.935630      25.563168     -0.9695
    -7      14.813017       8.811630      25.026167     -2.2140
    -7      10.993016       2.287630      26.765167     -3.3000
    -7      14.052017       0.966630      26.100166     -2.8945
    -7      19.113016       1.220630      27.604168     -0.9705
    -7      16.034016       2.731630      23.912167     -3.3250
    -7      10.857017       6.577630      27.959167     -2.0560
    -7       9.494017       3.463630      21.639168     -4.2685
    -7      10.789017       9.786630      25.500168     -0.9715
    -7      14.840016       6.494630      19.649166     -1.8715
    -7       8.671017       3.594630      18.487167     -2.1885
    -7       9.509016       9.096630      19.641167     -0.9730
    -7      10.391017      -1.625370      26.086166     -2.4190
    -7       4.660017      -1.773370      25.985167     -0.9695
    -7       4.569016       2.557630      27.332167     -0.9680
    -7      14.875017      -4.579370      21.768167     -1.8885
    -7      13.267016      -5.347370      16.886168     -1.9350
    -7       6.954017      -1.202370      16.804167     -1.5235
    -7      11.071016       0.523630      14.355167     -1.5285
    -7      13.461017       0.151630      20.851168     -4.5370
    -7       9.025017      -1.430370      20.607166     -4.2605
    -8      14.386017       5.687630      26.072166      5.7545
    -8      16.303017       4.649630      26.702168      7.2160
    -8      12.821016       4.074630      23.412167      5.8535
    -8      11.879017       5.300630      20.313168      7.2105
    -8      14.967016       5.182630      26.638166      5.8010
    -8      12.613016       4.247630      22.352167      5.8285
    -8      13.423017       5.009630      25.510166      5.6895
    -8      12.579017       4.458630      21.224167      5.7810
    -8       7.903017       1.063630      24.720167      7.0265
    -8      11.517016      -3.053370      22.483168      4.3445
    -8      12.238016      -3.808370      21.025167      4.6035
    -8      12.152017      -3.126370      18.429167      4.4460
    -8      10.771017      -2.113370      17.279167      4.9125

$$$$
