Untitled
  RxDock  02242110083D
librxdock.so/0.1.0
 60 65  0  0  0  0  0  0  0  0999 V2000
  -56.5806   -7.0526   15.4305 C   0  0  0  0  0  0
  -55.4867   -6.8793   16.2480 C   0  0  0  0  0  0
  -54.2236   -6.7733   15.7078 C   0  0  0  0  0  0
  -54.0640   -6.8423   14.3402 C   0  0  0  0  0  0
  -55.1565   -7.0166   13.5212 C   0  0  0  0  0  0
  -56.4150   -7.1220   14.0671 C   0  0  0  0  0  0
  -53.0156   -6.5787   16.6130 C   0  0  0  0  0  0
  -53.2045   -5.5412   17.7420 C   0  0  0  0  0  0
  -53.1912   -4.1587   17.1463 N   0  3  0  0  0  0
  -52.0922   -5.7064   18.8033 C   0  0  0  0  0  0
  -52.3917   -6.8230   19.6599 O   0  0  0  0  0  0
  -51.9440   -4.4327   19.6634 C   0  0  0  0  0  0
  -50.4604   -4.0847   19.9175 C   0  0  0  0  0  0
  -49.7440   -5.3069   20.5351 C   0  0  0  0  0  0
  -49.0848   -6.2522   19.5424 C   0  0  0  0  0  0
  -48.1220   -7.1428   19.9652 C   0  0  0  0  0  0
  -47.5219   -7.9971   19.0671 C   0  0  0  0  0  0
  -47.8818   -7.9627   17.7401 C   0  0  0  0  0  0
  -48.8432   -7.0746   17.3119 C   0  0  0  0  0  0
  -49.4423   -6.2225   18.2119 C   0  0  0  0  0  0
  -49.8120   -3.7270   18.6485 N   0  0  0  0  0  0
  -49.5617   -2.2493   18.4808 P   0  0  0  0  0  0
  -49.8856   -1.4440   19.8341 O   0  0  0  0  0  0
  -50.6098   -1.6233   17.4265 O   0  0  0  0  0  0
  -48.1467   -1.9776   18.0423 O   0  0  0  0  0  0
  -49.6946   -0.0218   19.8572 C   0  0  0  0  0  0
  -50.4780   -1.7968   16.0769 C   0  0  0  0  0  0
  -51.4626   -2.4056   15.3202 C   0  0  0  0  0  0
  -51.3013   -2.5617   13.9636 C   0  0  0  0  0  0
  -50.1556   -2.1096   13.3496 C   0  0  0  0  0  0
  -49.1705   -1.5031   14.0950 C   0  0  0  0  0  0
  -49.3302   -1.3494   15.4515 C   0  0  0  0  0  0
  -48.7078    0.3516   20.9754 C   0  0  0  0  0  0
  -47.4913    0.8997   20.4398 O   0  0  0  0  0  0
  -46.3709    0.5300   21.2656 C   0  0  0  0  0  0
  -46.9442   -0.3642   22.3904 C   0  0  0  0  0  0
  -48.2877   -0.8512   21.8320 C   0  0  0  0  0  0
  -48.0809   -2.0282   21.0357 O   0  0  0  0  0  0
  -46.0846   -1.4590   22.7451 O   0  0  0  0  0  0
  -45.3804   -0.1411   20.3202 C   0  0  0  0  0  0
  -45.7937    1.7541   21.8357 C   0  0  0  0  0  0
  -45.3477    2.7019   22.2776 N   0  0  0  0  0  0
  -44.0621    0.1677   20.3567 N   0  0  0  0  0  0
  -43.4882   -0.6016   19.3941 C   0  0  0  0  0  0
  -44.4120   -1.3729   18.7654 C   0  0  0  0  0  0
  -45.6346   -1.0670   19.3698 C   0  0  0  0  0  0
  -43.3150    1.0262   21.1117 N   0  0  0  0  0  0
  -42.0253    1.0815   20.8775 C   0  0  0  0  0  0
  -41.3397    0.3527   19.9386 N   0  0  0  0  0  0
  -42.0866   -0.4846   19.2060 C   0  0  0  0  0  0
  -41.4366   -1.2342   18.2540 N   0  0  0  0  0  0
  -53.8650   -3.6430   17.4733 H   0  0  0  0  0  0
  -52.4123   -3.7229   17.3268 H   0  0  0  0  0  0
  -53.2727   -4.1704   16.2419 H   0  0  0  0  0  0
  -51.7783   -6.8462   20.4564 H   0  0  0  0  0  0
  -50.3548   -4.0957   17.8569 H   0  0  0  0  0  0
  -48.8872   -2.6301   21.0566 H   0  0  0  0  0  0
  -46.5163   -2.0565   23.4293 H   0  0  0  0  0  0
  -40.5664   -1.1504   18.1511 H   0  0  0  0  0  0
  -41.8850   -1.7981   17.7476 H   0  0  0  0  0  0
  1  2  2  0  0  0
  2  3  1  0  0  0
  3  4  2  0  0  0
  3  7  1  0  0  0
  4  5  1  0  0  0
  5  6  2  0  0  0
  6  1  1  0  0  0
  7  8  1  0  0  0
  8  9  1  0  0  0
  8 10  1  0  0  0
 10 11  1  0  0  0
 10 12  1  0  0  0
 12 13  1  0  0  0
 13 14  1  0  0  0
 13 21  1  0  0  0
 14 15  1  0  0  0
 15 16  2  0  0  0
 16 17  1  0  0  0
 17 18  2  0  0  0
 18 19  1  0  0  0
 19 20  2  0  0  0
 20 15  1  0  0  0
 21 22  1  0  0  0
 22 23  1  0  0  0
 22 24  1  0  0  0
 22 25  2  0  0  0
 23 26  1  0  0  0
 24 27  1  0  0  0
 27 28  2  0  0  0
 28 29  1  0  0  0
 29 30  2  0  0  0
 30 31  1  0  0  0
 31 32  2  0  0  0
 32 27  1  0  0  0
 33 26  1  0  0  0
 33 34  1  0  0  0
 34 35  1  0  0  0
 35 36  1  0  0  0
 35 40  1  0  0  0
 35 41  1  0  0  0
 36 37  1  0  0  0
 36 39  1  0  0  0
 37 33  1  0  0  0
 37 38  1  0  0  0
 40 43  1  0  0  0
 41 42  3  0  0  0
 43 44  1  0  0  0
 43 47  1  0  0  0
 44 45  2  0  0  0
 45 46  1  0  0  0
 46 40  2  0  0  0
 47 48  2  0  0  0
 48 49  1  0  0  0
 49 50  2  0  0  0
 50 44  1  0  0  0
 50 51  1  0  0  0
  9 52  1  0  0  0
  9 53  1  0  0  0
  9 54  1  0  0  0
 11 55  1  0  0  0
 21 56  1  0  0  0
 38 57  1  0  0  0
 39 58  1  0  0  0
 51 59  1  0  0  0
 51 60  1  0  0  0
M  END
>  <#Atoms_cresset>
51

>  <#RB_cresset>
18

>  <BioMolTech Lead Finder LE>
-0.172

>  <BioMolTech Lead Finder Pose rank>
0

>  <BioMolTech Lead Finder Rank score>
-13.57

>  <BioMolTech Lead Finder SDF id>
0

>  <BioMolTech Lead Finder Structure Name>
/var/folders/xd/y7jw_xv579q2qqq7kks92xd80000gn/T/LeadFinder_21448_1/Ligand_1.sdf

>  <BioMolTech Lead Finder VSscore>
-13.341

>  <BioMolTech Lead Finder dG>
-8.761

>  <BioMolTech Lead Finder version>
2001 1, 19 January 2019

>  <CHROM.0>
-160.29955909,-90.83515922,97.32916929

>  <CHROM.1>
-44.24006181,-73.08363772,134.30508469,-78.40364313,-169.43447493,-138.20253616
-54.54360169,91.70035286,105.13686876,161.79231586,7.95404752,179.61650571
-76.70275092,-122.38542358,120.81124197,114.33783114,134.41450912,-175.83543787
-98.34892672,-48.93286490,-2.91056360,18.56429954,2.89443140,0.67084887,2.57683246

>  <Confs_cresset>
0

>  <Favorite_cresset>
false

>  <Filename_cresset>
VTRRT-13V2.1.sdf

>  <Flexibility_cresset>
17.1

>  <LF LE>
-0.172

>  <LF Rank Score>
-13.57

>  <LF VSscore>
-13.341

>  <LF dG>
-8.761

>  <MW_cresset>
714.7

>  <Name>
Untitled

>  <Poses_cresset>
10

>  <Preferred Pose_cresset>
true

>  <Protein_cresset>
6Y2F_P

>  <RI>
-1.14932e+09

>  <Rbt.Current_Directory>
/root/miniconda3/envs/rdock/share/rxdock-2013.1.1_148c5bd1-0/data/ligands/prepped_ligands/VTRRT

>  <Rbt.Executable>
rbdock/0.1.0

>  <Rbt.Library>
librxdock.so/0.1.0

>  <Rbt.Parameter_File>
/root/miniconda3/envs/rdock/share/rxdock-2013.1.1_148c5bd1-0/data/scripts/dock.prm

>  <Rbt.Receptor>
def.prm

>  <Rof5_cresset>
3

>  <SCORE>
-2.75767

>  <SCORE.INTER>
-8.56206

>  <SCORE.INTER.CONST>
1

>  <SCORE.INTER.POLAR>
-1.24372

>  <SCORE.INTER.REPUL>
0.113056

>  <SCORE.INTER.ROT>
15

>  <SCORE.INTER.VDW>
-25.2987

>  <SCORE.INTER.norm>
-0.167884

>  <SCORE.INTRA>
1.8025

>  <SCORE.INTRA.DIHEDRAL>
-2.42796

>  <SCORE.INTRA.DIHEDRAL.0>
43.3056

>  <SCORE.INTRA.POLAR>
0

>  <SCORE.INTRA.POLAR.0>
0

>  <SCORE.INTRA.REPUL>
-1.02235

>  <SCORE.INTRA.REPUL.0>
1.18384

>  <SCORE.INTRA.VDW>
8.12823

>  <SCORE.INTRA.VDW.0>
-7.21879

>  <SCORE.INTRA.norm>
0.0353431

>  <SCORE.RESTR>
1.01728

>  <SCORE.RESTR.CAVITY>
1.01728

>  <SCORE.RESTR.norm>
0.0199467

>  <SCORE.SYSTEM>
2.98462

>  <SCORE.SYSTEM.CONST>
0

>  <SCORE.SYSTEM.DIHEDRAL>
7.08041

>  <SCORE.SYSTEM.POLAR>
-0.00484015

>  <SCORE.SYSTEM.VDW>
-0.539129

>  <SCORE.SYSTEM.norm>
0.0585219

>  <SCORE.heavy>
51

>  <SCORE.norm>
-0.0540719

>  <SlogP_cresset>
4

>  <TPSA_cresset>
225.1

>  <_cresset_fieldpoints>
    -5      16.836018       5.832630      29.221167     -3.6840
    -5      12.689775      -0.157515      20.961832    -26.5835
    -5      10.603017       0.175630      26.550167     -8.1895
    -5      16.438017       3.291630      24.075167     -2.5740
    -5      10.777017       2.958630      26.544167    -13.1420
    -5      14.325016       6.363630      19.343166     -3.9175
    -5      10.138498      -1.142644      20.673992    -19.3483
    -5       8.999017       3.081630      18.875168    -11.2330
    -5      16.643017      -2.580370      18.078167    -12.9950
    -5       9.665886      -1.797647      20.491711    -20.2282
    -5       9.721017       2.679630      21.897167    -10.3470
    -5       9.495016      -3.987370      19.277166    -12.3125
    -6       9.544017       6.999630      25.870167     13.2990
    -6      11.781016       8.517631      22.930166      7.7900
    -6      14.607017       1.112630      25.440166      7.0810
    -6      15.386017       0.918630      28.446167      2.3985
    -6      18.624016       1.298630      27.807167      2.3740
    -6      20.392017       2.874630      26.722168      2.3035
    -6      17.648016       0.730630      28.195168      2.3685
    -6      14.512016       8.724630      26.097166      6.5595
    -6       8.569016      -0.973370      14.343166     10.8755
    -6       7.728017       1.126630      14.428167      9.6685
    -6       9.165016      -5.976370      22.174168      8.4205
    -6      13.686016      -5.263370      22.254168      6.1950
    -6      13.877016       8.944631      27.096167      6.4995
    -6      12.880016      -5.307370      17.193167     12.0245
    -7      15.472016       6.118630      22.868166     -3.2390
    -7      16.618017       6.190630      29.550167     -1.8400
    -7      20.678017       4.935630      25.563168     -0.9695
    -7      14.813017       8.811630      25.026167     -2.2140
    -7      10.993016       2.287630      26.765167     -3.3000
    -7      14.052017       0.966630      26.100166     -2.8945
    -7      19.113016       1.220630      27.604168     -0.9705
    -7      16.034016       2.731630      23.912167     -3.3250
    -7      10.857017       6.577630      27.959167     -2.0560
    -7       9.494017       3.463630      21.639168     -4.2685
    -7      10.789017       9.786630      25.500168     -0.9715
    -7      14.840016       6.494630      19.649166     -1.8715
    -7       8.671017       3.594630      18.487167     -2.1885
    -7       9.509016       9.096630      19.641167     -0.9730
    -7      10.391017      -1.625370      26.086166     -2.4190
    -7       4.660017      -1.773370      25.985167     -0.9695
    -7       4.569016       2.557630      27.332167     -0.9680
    -7      14.875017      -4.579370      21.768167     -1.8885
    -7      13.267016      -5.347370      16.886168     -1.9350
    -7       6.954017      -1.202370      16.804167     -1.5235
    -7      11.071016       0.523630      14.355167     -1.5285
    -7      13.461017       0.151630      20.851168     -4.5370
    -7       9.025017      -1.430370      20.607166     -4.2605
    -8      14.386017       5.687630      26.072166      5.7545
    -8      16.303017       4.649630      26.702168      7.2160
    -8      12.821016       4.074630      23.412167      5.8535
    -8      11.879017       5.300630      20.313168      7.2105
    -8      14.967016       5.182630      26.638166      5.8010
    -8      12.613016       4.247630      22.352167      5.8285
    -8      13.423017       5.009630      25.510166      5.6895
    -8      12.579017       4.458630      21.224167      5.7810
    -8       7.903017       1.063630      24.720167      7.0265
    -8      11.517016      -3.053370      22.483168      4.3445
    -8      12.238016      -3.808370      21.025167      4.6035
    -8      12.152017      -3.126370      18.429167      4.4460
    -8      10.771017      -2.113370      17.279167      4.9125

$$$$
Untitled
  RxDock  02242110083D
librxdock.so/0.1.0
 60 65  0  0  0  0  0  0  0  0999 V2000
  -50.4390   -2.0983   13.2871 C   0  0  0  0  0  0
  -51.6056   -2.2729   13.9967 C   0  0  0  0  0  0
  -51.6798   -3.2234   14.9914 C   0  0  0  0  0  0
  -50.5748   -3.9991   15.2707 C   0  0  0  0  0  0
  -49.4078   -3.8266   14.5615 C   0  0  0  0  0  0
  -49.3405   -2.8759   13.5693 C   0  0  0  0  0  0
  -52.9695   -3.4130   15.7770 C   0  0  0  0  0  0
  -53.8194   -4.6323   15.3550 C   0  0  0  0  0  0
  -55.1324   -4.5944   16.0905 N   0  3  0  0  0  0
  -53.0489   -5.9405   15.6478 C   0  0  0  0  0  0
  -53.5622   -7.0071   14.8299 O   0  0  0  0  0  0
  -53.1664   -6.3397   17.1347 C   0  0  0  0  0  0
  -51.7827   -6.4099   17.8181 C   0  0  0  0  0  0
  -50.7603   -7.0408   16.8460 C   0  0  0  0  0  0
  -49.3205   -7.0701   17.3357 C   0  0  0  0  0  0
  -48.6724   -8.2728   17.5164 C   0  0  0  0  0  0
  -47.3700   -8.3011   17.9628 C   0  0  0  0  0  0
  -46.7101   -7.1248   18.2323 C   0  0  0  0  0  0
  -47.3528   -5.9201   18.0536 C   0  0  0  0  0  0
  -48.6544   -5.8945   17.6063 C   0  0  0  0  0  0
  -51.3415   -5.0565   18.1818 N   0  0  0  0  0  0
  -51.6626   -4.6658   19.6027 P   0  0  0  0  0  0
  -51.4062   -3.0981   19.8502 O   0  0  0  0  0  0
  -50.6267   -5.3679   20.6206 O   0  0  0  0  0  0
  -53.0806   -5.0223   19.9639 O   0  0  0  0  0  0
  -50.0555   -2.6247   19.9557 C   0  0  0  0  0  0
  -50.3981   -6.7157   20.6137 C   0  0  0  0  0  0
  -49.1182   -7.2383   20.5760 C   0  0  0  0  0  0
  -48.9216   -8.5992   20.5740 C   0  0  0  0  0  0
  -50.0017   -9.4512   20.6113 C   0  0  0  0  0  0
  -51.2789   -8.9399   20.6485 C   0  0  0  0  0  0
  -51.4758   -7.5796   20.6476 C   0  0  0  0  0  0
  -49.3928   -2.6319   18.5685 C   0  0  0  0  0  0
  -47.9692   -2.4559   18.6665 O   0  0  0  0  0  0
  -47.4785   -1.7140   17.5340 C   0  0  0  0  0  0
  -48.7204   -1.3633   16.6807 C   0  0  0  0  0  0
  -49.8957   -1.5036   17.6568 C   0  0  0  0  0  0
  -50.0741   -0.2740   18.3769 O   0  0  0  0  0  0
  -48.6628   -0.0513   16.0987 O   0  0  0  0  0  0
  -46.7218   -0.5306   18.1275 C   0  0  0  0  0  0
  -46.5689   -2.5804   16.7733 C   0  0  0  0  0  0
  -45.8656   -3.2518   16.1842 N   0  0  0  0  0  0
  -45.3716   -0.5475   18.2328 N   0  0  0  0  0  0
  -45.0423    0.6442   18.7979 C   0  0  0  0  0  0
  -46.1475    1.3932   19.0451 C   0  0  0  0  0  0
  -47.2306    0.6244   18.6099 C   0  0  0  0  0  0
  -44.4113   -1.4616   17.9050 N   0  0  0  0  0  0
  -43.1612   -1.1497   18.1522 C   0  0  0  0  0  0
  -42.7130    0.0194   18.7134 N   0  0  0  0  0  0
  -43.6670    0.9057   19.0296 C   0  0  0  0  0  0
  -43.2587    2.0912   19.5938 N   0  0  0  0  0  0
  -55.0497   -4.2102   16.9105 H   0  0  0  0  0  0
  -55.7584   -4.1150   15.6351 H   0  0  0  0  0  0
  -55.4849   -5.4222   16.2129 H   0  0  0  0  0  0
  -53.1622   -7.8919   15.0915 H   0  0  0  0  0  0
  -51.7252   -4.3689   17.5204 H   0  0  0  0  0  0
  -50.7808   -0.3658   19.0876 H   0  0  0  0  0  0
  -47.8001    0.0910   15.6018 H   0  0  0  0  0  0
  -42.4014    2.2382   19.7296 H   0  0  0  0  0  0
  -43.8489    2.7047   19.8191 H   0  0  0  0  0  0
  1  2  2  0  0  0
  2  3  1  0  0  0
  3  4  2  0  0  0
  3  7  1  0  0  0
  4  5  1  0  0  0
  5  6  2  0  0  0
  6  1  1  0  0  0
  7  8  1  0  0  0
  8  9  1  0  0  0
  8 10  1  0  0  0
 10 11  1  0  0  0
 10 12  1  0  0  0
 12 13  1  0  0  0
 13 14  1  0  0  0
 13 21  1  0  0  0
 14 15  1  0  0  0
 15 16  2  0  0  0
 16 17  1  0  0  0
 17 18  2  0  0  0
 18 19  1  0  0  0
 19 20  2  0  0  0
 20 15  1  0  0  0
 21 22  1  0  0  0
 22 23  1  0  0  0
 22 24  1  0  0  0
 22 25  2  0  0  0
 23 26  1  0  0  0
 24 27  1  0  0  0
 27 28  2  0  0  0
 28 29  1  0  0  0
 29 30  2  0  0  0
 30 31  1  0  0  0
 31 32  2  0  0  0
 32 27  1  0  0  0
 33 26  1  0  0  0
 33 34  1  0  0  0
 34 35  1  0  0  0
 35 36  1  0  0  0
 35 40  1  0  0  0
 35 41  1  0  0  0
 36 37  1  0  0  0
 36 39  1  0  0  0
 37 33  1  0  0  0
 37 38  1  0  0  0
 40 43  1  0  0  0
 41 42  3  0  0  0
 43 44  1  0  0  0
 43 47  1  0  0  0
 44 45  2  0  0  0
 45 46  1  0  0  0
 46 40  2  0  0  0
 47 48  2  0  0  0
 48 49  1  0  0  0
 49 50  2  0  0  0
 50 44  1  0  0  0
 50 51  1  0  0  0
  9 52  1  0  0  0
  9 53  1  0  0  0
  9 54  1  0  0  0
 11 55  1  0  0  0
 21 56  1  0  0  0
 38 57  1  0  0  0
 39 58  1  0  0  0
 51 59  1  0  0  0
 51 60  1  0  0  0
M  END
>  <#Atoms_cresset>
51

>  <#RB_cresset>
18

>  <BioMolTech Lead Finder LE>
-0.172

>  <BioMolTech Lead Finder Pose rank>
0

>  <BioMolTech Lead Finder Rank score>
-13.57

>  <BioMolTech Lead Finder SDF id>
0

>  <BioMolTech Lead Finder Structure Name>
/var/folders/xd/y7jw_xv579q2qqq7kks92xd80000gn/T/LeadFinder_21448_1/Ligand_1.sdf

>  <BioMolTech Lead Finder VSscore>
-13.341

>  <BioMolTech Lead Finder dG>
-8.761

>  <BioMolTech Lead Finder version>
2001 1, 19 January 2019

>  <CHROM.0>
78.98204788,46.85778487,71.17782694

>  <CHROM.1>
102.04999410,-172.97887318,-31.11640068,-158.15046651,-172.30708965,-120.10766675
-39.76244393,175.04700720,95.14161191,118.13023339,-169.37059316,-74.25378541
-52.82431495,73.21976238,129.82228062,-167.04225746,99.51444963,51.75526128
-63.08003045,-49.29758012,-3.80281253,17.82774879,0.60812796,-0.50817102
-0.55488753

>  <Confs_cresset>
0

>  <Favorite_cresset>
false

>  <Filename_cresset>
VTRRT-13V2.1.sdf

>  <Flexibility_cresset>
17.1

>  <LF LE>
-0.172

>  <LF Rank Score>
-13.57

>  <LF VSscore>
-13.341

>  <LF dG>
-8.761

>  <MW_cresset>
714.7

>  <Name>
Untitled

>  <Poses_cresset>
10

>  <Preferred Pose_cresset>
true

>  <Protein_cresset>
6Y2F_P

>  <RI>
-1.14932e+09

>  <Rbt.Current_Directory>
/root/miniconda3/envs/rdock/share/rxdock-2013.1.1_148c5bd1-0/data/ligands/prepped_ligands/VTRRT

>  <Rbt.Executable>
rbdock/0.1.0

>  <Rbt.Library>
librxdock.so/0.1.0

>  <Rbt.Parameter_File>
/root/miniconda3/envs/rdock/share/rxdock-2013.1.1_148c5bd1-0/data/scripts/dock.prm

>  <Rbt.Receptor>
def.prm

>  <Rof5_cresset>
3

>  <SCORE>
-32.2955

>  <SCORE.INTER>
-11.8786

>  <SCORE.INTER.CONST>
1

>  <SCORE.INTER.POLAR>
-0.606521

>  <SCORE.INTER.REPUL>
0.172822

>  <SCORE.INTER.ROT>
15

>  <SCORE.INTER.VDW>
-31.0805

>  <SCORE.INTER.norm>
-0.232913

>  <SCORE.INTRA>
-21.1991

>  <SCORE.INTRA.DIHEDRAL>
-22.6101

>  <SCORE.INTRA.DIHEDRAL.0>
43.3056

>  <SCORE.INTRA.POLAR>
0

>  <SCORE.INTRA.POLAR.0>
0

>  <SCORE.INTRA.REPUL>
-1.18384

>  <SCORE.INTRA.REPUL.0>
1.18384

>  <SCORE.INTRA.VDW>
-3.97483

>  <SCORE.INTRA.VDW.0>
-7.21879

>  <SCORE.INTRA.norm>
-0.415668

>  <SCORE.RESTR>
0.140455

>  <SCORE.RESTR.CAVITY>
0.140455

>  <SCORE.RESTR.norm>
0.00275401

>  <SCORE.SYSTEM>
0.64172

>  <SCORE.SYSTEM.CONST>
0

>  <SCORE.SYSTEM.DIHEDRAL>
1.91674

>  <SCORE.SYSTEM.POLAR>
-0.0175052

>  <SCORE.SYSTEM.VDW>
-0.257135

>  <SCORE.SYSTEM.norm>
0.0125827

>  <SCORE.heavy>
51

>  <SCORE.norm>
-0.633245

>  <SlogP_cresset>
4

>  <TPSA_cresset>
225.1

>  <_cresset_fieldpoints>
    -5      16.836018       5.832630      29.221167     -3.6840
    -5      12.689775      -0.157515      20.961832    -26.5835
    -5      10.603017       0.175630      26.550167     -8.1895
    -5      16.438017       3.291630      24.075167     -2.5740
    -5      10.777017       2.958630      26.544167    -13.1420
    -5      14.325016       6.363630      19.343166     -3.9175
    -5      10.138498      -1.142644      20.673992    -19.3483
    -5       8.999017       3.081630      18.875168    -11.2330
    -5      16.643017      -2.580370      18.078167    -12.9950
    -5       9.665886      -1.797647      20.491711    -20.2282
    -5       9.721017       2.679630      21.897167    -10.3470
    -5       9.495016      -3.987370      19.277166    -12.3125
    -6       9.544017       6.999630      25.870167     13.2990
    -6      11.781016       8.517631      22.930166      7.7900
    -6      14.607017       1.112630      25.440166      7.0810
    -6      15.386017       0.918630      28.446167      2.3985
    -6      18.624016       1.298630      27.807167      2.3740
    -6      20.392017       2.874630      26.722168      2.3035
    -6      17.648016       0.730630      28.195168      2.3685
    -6      14.512016       8.724630      26.097166      6.5595
    -6       8.569016      -0.973370      14.343166     10.8755
    -6       7.728017       1.126630      14.428167      9.6685
    -6       9.165016      -5.976370      22.174168      8.4205
    -6      13.686016      -5.263370      22.254168      6.1950
    -6      13.877016       8.944631      27.096167      6.4995
    -6      12.880016      -5.307370      17.193167     12.0245
    -7      15.472016       6.118630      22.868166     -3.2390
    -7      16.618017       6.190630      29.550167     -1.8400
    -7      20.678017       4.935630      25.563168     -0.9695
    -7      14.813017       8.811630      25.026167     -2.2140
    -7      10.993016       2.287630      26.765167     -3.3000
    -7      14.052017       0.966630      26.100166     -2.8945
    -7      19.113016       1.220630      27.604168     -0.9705
    -7      16.034016       2.731630      23.912167     -3.3250
    -7      10.857017       6.577630      27.959167     -2.0560
    -7       9.494017       3.463630      21.639168     -4.2685
    -7      10.789017       9.786630      25.500168     -0.9715
    -7      14.840016       6.494630      19.649166     -1.8715
    -7       8.671017       3.594630      18.487167     -2.1885
    -7       9.509016       9.096630      19.641167     -0.9730
    -7      10.391017      -1.625370      26.086166     -2.4190
    -7       4.660017      -1.773370      25.985167     -0.9695
    -7       4.569016       2.557630      27.332167     -0.9680
    -7      14.875017      -4.579370      21.768167     -1.8885
    -7      13.267016      -5.347370      16.886168     -1.9350
    -7       6.954017      -1.202370      16.804167     -1.5235
    -7      11.071016       0.523630      14.355167     -1.5285
    -7      13.461017       0.151630      20.851168     -4.5370
    -7       9.025017      -1.430370      20.607166     -4.2605
    -8      14.386017       5.687630      26.072166      5.7545
    -8      16.303017       4.649630      26.702168      7.2160
    -8      12.821016       4.074630      23.412167      5.8535
    -8      11.879017       5.300630      20.313168      7.2105
    -8      14.967016       5.182630      26.638166      5.8010
    -8      12.613016       4.247630      22.352167      5.8285
    -8      13.423017       5.009630      25.510166      5.6895
    -8      12.579017       4.458630      21.224167      5.7810
    -8       7.903017       1.063630      24.720167      7.0265
    -8      11.517016      -3.053370      22.483168      4.3445
    -8      12.238016      -3.808370      21.025167      4.6035
    -8      12.152017      -3.126370      18.429167      4.4460
    -8      10.771017      -2.113370      17.279167      4.9125

$$$$
Untitled
  RxDock  02242110083D
librxdock.so/0.1.0
 60 65  0  0  0  0  0  0  0  0999 V2000
  -44.5519   -1.2823   14.6529 C   0  0  0  0  0  0
  -45.7462   -1.7286   15.1719 C   0  0  0  0  0  0
  -45.7807   -2.3604   16.3959 C   0  0  0  0  0  0
  -44.6080   -2.5421   17.0975 C   0  0  0  0  0  0
  -43.4127   -2.0975   16.5797 C   0  0  0  0  0  0
  -43.3851   -1.4676   15.3569 C   0  0  0  0  0  0
  -47.1026   -2.8505   16.9695 C   0  0  0  0  0  0
  -47.6596   -4.1378   16.3220 C   0  0  0  0  0  0
  -48.4562   -3.7679   15.0993 N   0  3  0  0  0  0
  -48.5249   -4.9116   17.3434 C   0  0  0  0  0  0
  -47.7576   -5.9780   17.9301 O   0  0  0  0  0  0
  -49.7865   -5.5016   16.6767 C   0  0  0  0  0  0
  -50.9584   -5.6197   17.6764 C   0  0  0  0  0  0
  -50.4660   -6.3139   18.9664 C   0  0  0  0  0  0
  -49.9705   -7.7418   18.7953 C   0  0  0  0  0  0
  -49.8500   -8.5712   19.8892 C   0  0  0  0  0  0
  -49.3985   -9.8632   19.7364 C   0  0  0  0  0  0
  -49.0635  -10.3309   18.4871 C   0  0  0  0  0  0
  -49.1818   -9.5065   17.3905 C   0  0  0  0  0  0
  -49.6345   -8.2158   17.5458 C   0  0  0  0  0  0
  -51.4655   -4.2804   18.0043 N   0  0  0  0  0  0
  -51.5042   -3.3330   16.8315 P   0  0  0  0  0  0
  -52.5878   -2.1669   17.0573 O   0  0  0  0  0  0
  -52.0569   -4.0928   15.5203 O   0  0  0  0  0  0
  -50.1483   -2.7353   16.5625 O   0  0  0  0  0  0
  -52.3453   -1.1825   18.0732 C   0  0  0  0  0  0
  -53.1617   -4.8972   15.5551 C   0  0  0  0  0  0
  -53.4743   -5.6594   16.6660 C   0  0  0  0  0  0
  -54.5953   -6.4557   16.6709 C   0  0  0  0  0  0
  -55.4158   -6.4970   15.5667 C   0  0  0  0  0  0
  -55.1121   -5.7421   14.4569 C   0  0  0  0  0  0
  -53.9900   -4.9482   14.4505 C   0  0  0  0  0  0
  -51.2292   -0.2290   17.6165 C   0  0  0  0  0  0
  -49.9291   -0.8096   17.8164 O   0  0  0  0  0  0
  -48.9716    0.2128   18.1507 C   0  0  0  0  0  0
  -49.7636    1.5408   18.2038 C   0  0  0  0  0  0
  -51.2213    1.0990   18.3869 C   0  0  0  0  0  0
  -51.4958    0.9083   19.7835 O   0  0  0  0  0  0
  -49.3357    2.4204   19.2557 O   0  0  0  0  0  0
  -48.3426   -0.2411   19.4636 C   0  0  0  0  0  0
  -47.9625    0.2667   17.0852 C   0  0  0  0  0  0
  -47.1820    0.3086   16.2596 N   0  0  0  0  0  0
  -47.2405    0.3717   19.9579 N   0  0  0  0  0  0
  -46.9583   -0.2810   21.1164 C   0  0  0  0  0  0
  -47.8510   -1.2771   21.3498 C   0  0  0  0  0  0
  -48.7426   -1.2455   20.2738 C   0  0  0  0  0  0
  -46.4644    1.4092   19.5261 N   0  0  0  0  0  0
  -45.4392    1.7551   20.2679 C   0  0  0  0  0  0
  -45.0622    1.1735   21.4521 N   0  0  0  0  0  0
  -45.8333    0.1572   21.8621 C   0  0  0  0  0  0
  -45.4893   -0.4524   23.0456 N   0  0  0  0  0  0
  -47.9582   -3.2984   14.5006 H   0  0  0  0  0  0
  -48.7667   -4.5056   14.6652 H   0  0  0  0  0  0
  -49.1851   -3.2649   15.2999 H   0  0  0  0  0  0
  -46.9096   -5.6316   18.3447 H   0  0  0  0  0  0
  -50.9244   -3.8766   18.7799 H   0  0  0  0  0  0
  -52.3718    0.4326   19.9223 H   0  0  0  0  0  0
  -48.3324    2.4752   19.3015 H   0  0  0  0  0  0
  -44.7891   -0.1674   23.4966 H   0  0  0  0  0  0
  -45.9654   -1.1251   23.3558 H   0  0  0  0  0  0
  1  2  2  0  0  0
  2  3  1  0  0  0
  3  4  2  0  0  0
  3  7  1  0  0  0
  4  5  1  0  0  0
  5  6  2  0  0  0
  6  1  1  0  0  0
  7  8  1  0  0  0
  8  9  1  0  0  0
  8 10  1  0  0  0
 10 11  1  0  0  0
 10 12  1  0  0  0
 12 13  1  0  0  0
 13 14  1  0  0  0
 13 21  1  0  0  0
 14 15  1  0  0  0
 15 16  2  0  0  0
 16 17  1  0  0  0
 17 18  2  0  0  0
 18 19  1  0  0  0
 19 20  2  0  0  0
 20 15  1  0  0  0
 21 22  1  0  0  0
 22 23  1  0  0  0
 22 24  1  0  0  0
 22 25  2  0  0  0
 23 26  1  0  0  0
 24 27  1  0  0  0
 27 28  2  0  0  0
 28 29  1  0  0  0
 29 30  2  0  0  0
 30 31  1  0  0  0
 31 32  2  0  0  0
 32 27  1  0  0  0
 33 26  1  0  0  0
 33 34  1  0  0  0
 34 35  1  0  0  0
 35 36  1  0  0  0
 35 40  1  0  0  0
 35 41  1  0  0  0
 36 37  1  0  0  0
 36 39  1  0  0  0
 37 33  1  0  0  0
 37 38  1  0  0  0
 40 43  1  0  0  0
 41 42  3  0  0  0
 43 44  1  0  0  0
 43 47  1  0  0  0
 44 45  2  0  0  0
 45 46  1  0  0  0
 46 40  2  0  0  0
 47 48  2  0  0  0
 48 49  1  0  0  0
 49 50  2  0  0  0
 50 44  1  0  0  0
 50 51  1  0  0  0
  9 52  1  0  0  0
  9 53  1  0  0  0
  9 54  1  0  0  0
 11 55  1  0  0  0
 21 56  1  0  0  0
 38 57  1  0  0  0
 39 58  1  0  0  0
 51 59  1  0  0  0
 51 60  1  0  0  0
M  END
>  <#Atoms_cresset>
51

>  <#RB_cresset>
18

>  <BioMolTech Lead Finder LE>
-0.172

>  <BioMolTech Lead Finder Pose rank>
0

>  <BioMolTech Lead Finder Rank score>
-13.57

>  <BioMolTech Lead Finder SDF id>
0

>  <BioMolTech Lead Finder Structure Name>
/var/folders/xd/y7jw_xv579q2qqq7kks92xd80000gn/T/LeadFinder_21448_1/Ligand_1.sdf

>  <BioMolTech Lead Finder VSscore>
-13.341

>  <BioMolTech Lead Finder dG>
-8.761

>  <BioMolTech Lead Finder version>
2001 1, 19 January 2019

>  <CHROM.0>
-174.81805090,-65.96449415,-71.89866807

>  <CHROM.1>
75.58479938,-85.71745942,57.37085871,-98.96049670,55.50984567,-150.83949052
-49.23870223,-62.58001220,38.90199862,-162.55845679,155.97752539,68.45038942
45.87714203,72.75654792,-33.80171855,-80.21099132,168.92465810,44.70803415
-56.34129266,-49.21537094,-2.89761974,17.83310104,-0.92566686,0.22710967
-2.98442435

>  <Confs_cresset>
0

>  <Favorite_cresset>
false

>  <Filename_cresset>
VTRRT-13V2.1.sdf

>  <Flexibility_cresset>
17.1

>  <LF LE>
-0.172

>  <LF Rank Score>
-13.57

>  <LF VSscore>
-13.341

>  <LF dG>
-8.761

>  <MW_cresset>
714.7

>  <Name>
Untitled

>  <Poses_cresset>
10

>  <Preferred Pose_cresset>
true

>  <Protein_cresset>
6Y2F_P

>  <RI>
-1.14932e+09

>  <Rbt.Current_Directory>
/root/miniconda3/envs/rdock/share/rxdock-2013.1.1_148c5bd1-0/data/ligands/prepped_ligands/VTRRT

>  <Rbt.Executable>
rbdock/0.1.0

>  <Rbt.Library>
librxdock.so/0.1.0

>  <Rbt.Parameter_File>
/root/miniconda3/envs/rdock/share/rxdock-2013.1.1_148c5bd1-0/data/scripts/dock.prm

>  <Rbt.Receptor>
def.prm

>  <Rof5_cresset>
3

>  <SCORE>
-19.4964

>  <SCORE.INTER>
-5.45955

>  <SCORE.INTER.CONST>
1

>  <SCORE.INTER.POLAR>
-0.0039238

>  <SCORE.INTER.REPUL>
0.0529908

>  <SCORE.INTER.ROT>
15

>  <SCORE.INTER.VDW>
-26.1112

>  <SCORE.INTER.norm>
-0.10705

>  <SCORE.INTRA>
-14.3708

>  <SCORE.INTRA.DIHEDRAL>
-25.238

>  <SCORE.INTRA.DIHEDRAL.0>
43.3056

>  <SCORE.INTRA.POLAR>
-1.94031

>  <SCORE.INTRA.POLAR.0>
0

>  <SCORE.INTRA.REPUL>
-1.18384

>  <SCORE.INTRA.REPUL.0>
1.18384

>  <SCORE.INTRA.VDW>
10.7644

>  <SCORE.INTRA.VDW.0>
-7.21879

>  <SCORE.INTRA.norm>
-0.281781

>  <SCORE.RESTR>
1.13065

>  <SCORE.RESTR.CAVITY>
1.13065

>  <SCORE.RESTR.norm>
0.0221696

>  <SCORE.SYSTEM>
-0.796664

>  <SCORE.SYSTEM.CONST>
0

>  <SCORE.SYSTEM.DIHEDRAL>
0.583644

>  <SCORE.SYSTEM.VDW>
-1.08849

>  <SCORE.SYSTEM.norm>
-0.0156209

>  <SCORE.heavy>
51

>  <SCORE.norm>
-0.382282

>  <SlogP_cresset>
4

>  <TPSA_cresset>
225.1

>  <_cresset_fieldpoints>
    -5      16.836018       5.832630      29.221167     -3.6840
    -5      12.689775      -0.157515      20.961832    -26.5835
    -5      10.603017       0.175630      26.550167     -8.1895
    -5      16.438017       3.291630      24.075167     -2.5740
    -5      10.777017       2.958630      26.544167    -13.1420
    -5      14.325016       6.363630      19.343166     -3.9175
    -5      10.138498      -1.142644      20.673992    -19.3483
    -5       8.999017       3.081630      18.875168    -11.2330
    -5      16.643017      -2.580370      18.078167    -12.9950
    -5       9.665886      -1.797647      20.491711    -20.2282
    -5       9.721017       2.679630      21.897167    -10.3470
    -5       9.495016      -3.987370      19.277166    -12.3125
    -6       9.544017       6.999630      25.870167     13.2990
    -6      11.781016       8.517631      22.930166      7.7900
    -6      14.607017       1.112630      25.440166      7.0810
    -6      15.386017       0.918630      28.446167      2.3985
    -6      18.624016       1.298630      27.807167      2.3740
    -6      20.392017       2.874630      26.722168      2.3035
    -6      17.648016       0.730630      28.195168      2.3685
    -6      14.512016       8.724630      26.097166      6.5595
    -6       8.569016      -0.973370      14.343166     10.8755
    -6       7.728017       1.126630      14.428167      9.6685
    -6       9.165016      -5.976370      22.174168      8.4205
    -6      13.686016      -5.263370      22.254168      6.1950
    -6      13.877016       8.944631      27.096167      6.4995
    -6      12.880016      -5.307370      17.193167     12.0245
    -7      15.472016       6.118630      22.868166     -3.2390
    -7      16.618017       6.190630      29.550167     -1.8400
    -7      20.678017       4.935630      25.563168     -0.9695
    -7      14.813017       8.811630      25.026167     -2.2140
    -7      10.993016       2.287630      26.765167     -3.3000
    -7      14.052017       0.966630      26.100166     -2.8945
    -7      19.113016       1.220630      27.604168     -0.9705
    -7      16.034016       2.731630      23.912167     -3.3250
    -7      10.857017       6.577630      27.959167     -2.0560
    -7       9.494017       3.463630      21.639168     -4.2685
    -7      10.789017       9.786630      25.500168     -0.9715
    -7      14.840016       6.494630      19.649166     -1.8715
    -7       8.671017       3.594630      18.487167     -2.1885
    -7       9.509016       9.096630      19.641167     -0.9730
    -7      10.391017      -1.625370      26.086166     -2.4190
    -7       4.660017      -1.773370      25.985167     -0.9695
    -7       4.569016       2.557630      27.332167     -0.9680
    -7      14.875017      -4.579370      21.768167     -1.8885
    -7      13.267016      -5.347370      16.886168     -1.9350
    -7       6.954017      -1.202370      16.804167     -1.5235
    -7      11.071016       0.523630      14.355167     -1.5285
    -7      13.461017       0.151630      20.851168     -4.5370
    -7       9.025017      -1.430370      20.607166     -4.2605
    -8      14.386017       5.687630      26.072166      5.7545
    -8      16.303017       4.649630      26.702168      7.2160
    -8      12.821016       4.074630      23.412167      5.8535
    -8      11.879017       5.300630      20.313168      7.2105
    -8      14.967016       5.182630      26.638166      5.8010
    -8      12.613016       4.247630      22.352167      5.8285
    -8      13.423017       5.009630      25.510166      5.6895
    -8      12.579017       4.458630      21.224167      5.7810
    -8       7.903017       1.063630      24.720167      7.0265
    -8      11.517016      -3.053370      22.483168      4.3445
    -8      12.238016      -3.808370      21.025167      4.6035
    -8      12.152017      -3.126370      18.429167      4.4460
    -8      10.771017      -2.113370      17.279167      4.9125

$$$$
Untitled
  RxDock  02242110093D
librxdock.so/0.1.0
 60 65  0  0  0  0  0  0  0  0999 V2000
  -42.9099   -2.0768   19.6089 C   0  0  0  0  0  0
  -43.7520   -1.5370   20.5546 C   0  0  0  0  0  0
  -43.7186   -0.1867   20.8270 C   0  0  0  0  0  0
  -42.8339    0.6202   20.1438 C   0  0  0  0  0  0
  -41.9904    0.0821   19.1986 C   0  0  0  0  0  0
  -42.0287   -1.2670   18.9315 C   0  0  0  0  0  0
  -44.6525    0.4089   21.8708 C   0  0  0  0  0  0
  -45.8337    1.2259   21.3017 C   0  0  0  0  0  0
  -46.2645    2.2441   22.3235 N   0  3  0  0  0  0
  -46.9978    0.2803   20.9254 C   0  0  0  0  0  0
  -47.1668   -0.7214   21.9443 O   0  0  0  0  0  0
  -46.7411   -0.4131   19.5698 C   0  0  0  0  0  0
  -46.9812    0.5464   18.3832 C   0  0  0  0  0  0
  -45.6284    0.8971   17.7233 C   0  0  0  0  0  0
  -45.1243   -0.0989   16.6902 C   0  0  0  0  0  0
  -45.7245   -0.1797   15.4523 C   0  0  0  0  0  0
  -45.2713   -1.0832   14.5170 C   0  0  0  0  0  0
  -44.2155   -1.9118   14.8170 C   0  0  0  0  0  0
  -43.6119   -1.8355   16.0525 C   0  0  0  0  0  0
  -44.0661   -0.9308   16.9853 C   0  0  0  0  0  0
  -47.8553   -0.0991   17.3943 N   0  0  0  0  0  0
  -49.3195   -0.0688   17.7546 P   0  0  0  0  0  0
  -49.5372   -0.2728   19.3344 O   0  0  0  0  0  0
  -50.0763   -1.3425   17.1167 O   0  0  0  0  0  0
  -49.9704    1.2121   17.3031 O   0  0  0  0  0  0
  -50.8477   -0.0750   19.8849 C   0  0  0  0  0  0
  -50.1087   -1.5718   15.7694 C   0  0  0  0  0  0
  -48.9641   -1.5280   14.9943 C   0  0  0  0  0  0
  -49.0296   -1.7672   13.6418 C   0  0  0  0  0  0
  -50.2389   -2.0541   13.0508 C   0  0  0  0  0  0
  -51.3829   -2.0993   13.8144 C   0  0  0  0  0  0
  -51.3183   -1.8575   15.1659 C   0  0  0  0  0  0
  -51.3812   -1.4032   20.4460 C   0  0  0  0  0  0
  -50.6839   -2.5278   19.8837 O   0  0  0  0  0  0
  -51.5750   -3.6509   19.7480 C   0  0  0  0  0  0
  -52.9602   -3.1599   20.2315 C   0  0  0  0  0  0
  -52.8679   -1.6313   20.1380 C   0  0  0  0  0  0
  -53.2094   -1.2079   18.8090 O   0  0  0  0  0  0
  -54.0532   -3.6776   19.4567 O   0  0  0  0  0  0
  -51.4869   -4.0575   18.2809 C   0  0  0  0  0  0
  -51.0899   -4.7328   20.6145 C   0  0  0  0  0  0
  -50.7144   -5.5697   21.2861 N   0  0  0  0  0  0
  -50.2971   -4.0827   17.6341 N   0  0  0  0  0  0
  -50.5878   -4.4795   16.3669 C   0  0  0  0  0  0
  -51.9191   -4.6976   16.2130 C   0  0  0  0  0  0
  -52.4939   -4.4201   17.4564 C   0  0  0  0  0  0
  -49.0138   -3.8030   18.0085 N   0  0  0  0  0  0
  -48.0719   -3.9320   17.1044 C   0  0  0  0  0  0
  -48.2466   -4.3268   15.8021 N   0  0  0  0  0  0
  -49.5110   -4.5974   15.4502 C   0  0  0  0  0  0
  -49.7284   -4.9974   14.1528 N   0  0  0  0  0  0
  -45.5604    2.7247   22.6398 H   0  0  0  0  0  0
  -46.8569    2.8406   21.9738 H   0  0  0  0  0  0
  -46.6771    1.8646   23.0380 H   0  0  0  0  0  0
  -46.4117   -1.3854   21.9315 H   0  0  0  0  0  0
  -47.5436   -1.0637   17.2217 H   0  0  0  0  0  0
  -53.1073   -0.2121   18.7049 H   0  0  0  0  0  0
  -54.2270   -3.1105   18.6445 H   0  0  0  0  0  0
  -49.0491   -5.0666   13.5972 H   0  0  0  0  0  0
  -50.5423   -5.1858   13.8745 H   0  0  0  0  0  0
  1  2  2  0  0  0
  2  3  1  0  0  0
  3  4  2  0  0  0
  3  7  1  0  0  0
  4  5  1  0  0  0
  5  6  2  0  0  0
  6  1  1  0  0  0
  7  8  1  0  0  0
  8  9  1  0  0  0
  8 10  1  0  0  0
 10 11  1  0  0  0
 10 12  1  0  0  0
 12 13  1  0  0  0
 13 14  1  0  0  0
 13 21  1  0  0  0
 14 15  1  0  0  0
 15 16  2  0  0  0
 16 17  1  0  0  0
 17 18  2  0  0  0
 18 19  1  0  0  0
 19 20  2  0  0  0
 20 15  1  0  0  0
 21 22  1  0  0  0
 22 23  1  0  0  0
 22 24  1  0  0  0
 22 25  2  0  0  0
 23 26  1  0  0  0
 24 27  1  0  0  0
 27 28  2  0  0  0
 28 29  1  0  0  0
 29 30  2  0  0  0
 30 31  1  0  0  0
 31 32  2  0  0  0
 32 27  1  0  0  0
 33 26  1  0  0  0
 33 34  1  0  0  0
 34 35  1  0  0  0
 35 36  1  0  0  0
 35 40  1  0  0  0
 35 41  1  0  0  0
 36 37  1  0  0  0
 36 39  1  0  0  0
 37 33  1  0  0  0
 37 38  1  0  0  0
 40 43  1  0  0  0
 41 42  3  0  0  0
 43 44  1  0  0  0
 43 47  1  0  0  0
 44 45  2  0  0  0
 45 46  1  0  0  0
 46 40  2  0  0  0
 47 48  2  0  0  0
 48 49  1  0  0  0
 49 50  2  0  0  0
 50 44  1  0  0  0
 50 51  1  0  0  0
  9 52  1  0  0  0
  9 53  1  0  0  0
  9 54  1  0  0  0
 11 55  1  0  0  0
 21 56  1  0  0  0
 38 57  1  0  0  0
 39 58  1  0  0  0
 51 59  1  0  0  0
 51 60  1  0  0  0
M  END
>  <#Atoms_cresset>
51

>  <#RB_cresset>
18

>  <BioMolTech Lead Finder LE>
-0.172

>  <BioMolTech Lead Finder Pose rank>
0

>  <BioMolTech Lead Finder Rank score>
-13.57

>  <BioMolTech Lead Finder SDF id>
0

>  <BioMolTech Lead Finder Structure Name>
/var/folders/xd/y7jw_xv579q2qqq7kks92xd80000gn/T/LeadFinder_21448_1/Ligand_1.sdf

>  <BioMolTech Lead Finder VSscore>
-13.341

>  <BioMolTech Lead Finder dG>
-8.761

>  <BioMolTech Lead Finder version>
2001 1, 19 January 2019

>  <CHROM.0>
-170.29756801,178.18480890,64.25907557

>  <CHROM.1>
-105.82689555,-153.68192699,50.15556461,42.02126671,-71.19633275,-75.95581088
109.70202658,84.59863011,79.44974000,72.92996013,-37.64956549,170.86126319
-59.75493287,115.29366540,48.84873295,-19.93279605,41.49749735,-85.72980612
-65.41829721,-48.40444520,-1.65435057,18.09003600,-0.31747886,-0.32533240
-1.85998183

>  <Confs_cresset>
0

>  <Favorite_cresset>
false

>  <Filename_cresset>
VTRRT-13V2.1.sdf

>  <Flexibility_cresset>
17.1

>  <LF LE>
-0.172

>  <LF Rank Score>
-13.57

>  <LF VSscore>
-13.341

>  <LF dG>
-8.761

>  <MW_cresset>
714.7

>  <Name>
Untitled

>  <Poses_cresset>
10

>  <Preferred Pose_cresset>
true

>  <Protein_cresset>
6Y2F_P

>  <RI>
-1.14932e+09

>  <Rbt.Current_Directory>
/root/miniconda3/envs/rdock/share/rxdock-2013.1.1_148c5bd1-0/data/ligands/prepped_ligands/VTRRT

>  <Rbt.Executable>
rbdock/0.1.0

>  <Rbt.Library>
librxdock.so/0.1.0

>  <Rbt.Parameter_File>
/root/miniconda3/envs/rdock/share/rxdock-2013.1.1_148c5bd1-0/data/scripts/dock.prm

>  <Rbt.Receptor>
def.prm

>  <Rof5_cresset>
3

>  <SCORE>
-30.7513

>  <SCORE.INTER>
-14.65

>  <SCORE.INTER.CONST>
1

>  <SCORE.INTER.POLAR>
-2.0186

>  <SCORE.INTER.REPUL>
0

>  <SCORE.INTER.ROT>
15

>  <SCORE.INTER.VDW>
-28.1868

>  <SCORE.INTER.norm>
-0.287256

>  <SCORE.INTRA>
-16.6085

>  <SCORE.INTRA.DIHEDRAL>
-10.0889

>  <SCORE.INTRA.DIHEDRAL.0>
43.3056

>  <SCORE.INTRA.POLAR>
-0.20517

>  <SCORE.INTRA.POLAR.0>
0

>  <SCORE.INTRA.REPUL>
-1.04158

>  <SCORE.INTRA.REPUL.0>
1.18384

>  <SCORE.INTRA.VDW>
-5.65854

>  <SCORE.INTRA.VDW.0>
-7.21879

>  <SCORE.INTRA.norm>
-0.325656

>  <SCORE.RESTR>
1.39188

>  <SCORE.RESTR.CAVITY>
1.39188

>  <SCORE.RESTR.norm>
0.0272918

>  <SCORE.SYSTEM>
-0.884659

>  <SCORE.SYSTEM.CONST>
0

>  <SCORE.SYSTEM.DIHEDRAL>
0.278017

>  <SCORE.SYSTEM.POLAR>
-0.00979246

>  <SCORE.SYSTEM.VDW>
-0.990373

>  <SCORE.SYSTEM.norm>
-0.0173463

>  <SCORE.heavy>
51

>  <SCORE.norm>
-0.602966

>  <SlogP_cresset>
4

>  <TPSA_cresset>
225.1

>  <_cresset_fieldpoints>
    -5      16.836018       5.832630      29.221167     -3.6840
    -5      12.689775      -0.157515      20.961832    -26.5835
    -5      10.603017       0.175630      26.550167     -8.1895
    -5      16.438017       3.291630      24.075167     -2.5740
    -5      10.777017       2.958630      26.544167    -13.1420
    -5      14.325016       6.363630      19.343166     -3.9175
    -5      10.138498      -1.142644      20.673992    -19.3483
    -5       8.999017       3.081630      18.875168    -11.2330
    -5      16.643017      -2.580370      18.078167    -12.9950
    -5       9.665886      -1.797647      20.491711    -20.2282
    -5       9.721017       2.679630      21.897167    -10.3470
    -5       9.495016      -3.987370      19.277166    -12.3125
    -6       9.544017       6.999630      25.870167     13.2990
    -6      11.781016       8.517631      22.930166      7.7900
    -6      14.607017       1.112630      25.440166      7.0810
    -6      15.386017       0.918630      28.446167      2.3985
    -6      18.624016       1.298630      27.807167      2.3740
    -6      20.392017       2.874630      26.722168      2.3035
    -6      17.648016       0.730630      28.195168      2.3685
    -6      14.512016       8.724630      26.097166      6.5595
    -6       8.569016      -0.973370      14.343166     10.8755
    -6       7.728017       1.126630      14.428167      9.6685
    -6       9.165016      -5.976370      22.174168      8.4205
    -6      13.686016      -5.263370      22.254168      6.1950
    -6      13.877016       8.944631      27.096167      6.4995
    -6      12.880016      -5.307370      17.193167     12.0245
    -7      15.472016       6.118630      22.868166     -3.2390
    -7      16.618017       6.190630      29.550167     -1.8400
    -7      20.678017       4.935630      25.563168     -0.9695
    -7      14.813017       8.811630      25.026167     -2.2140
    -7      10.993016       2.287630      26.765167     -3.3000
    -7      14.052017       0.966630      26.100166     -2.8945
    -7      19.113016       1.220630      27.604168     -0.9705
    -7      16.034016       2.731630      23.912167     -3.3250
    -7      10.857017       6.577630      27.959167     -2.0560
    -7       9.494017       3.463630      21.639168     -4.2685
    -7      10.789017       9.786630      25.500168     -0.9715
    -7      14.840016       6.494630      19.649166     -1.8715
    -7       8.671017       3.594630      18.487167     -2.1885
    -7       9.509016       9.096630      19.641167     -0.9730
    -7      10.391017      -1.625370      26.086166     -2.4190
    -7       4.660017      -1.773370      25.985167     -0.9695
    -7       4.569016       2.557630      27.332167     -0.9680
    -7      14.875017      -4.579370      21.768167     -1.8885
    -7      13.267016      -5.347370      16.886168     -1.9350
    -7       6.954017      -1.202370      16.804167     -1.5235
    -7      11.071016       0.523630      14.355167     -1.5285
    -7      13.461017       0.151630      20.851168     -4.5370
    -7       9.025017      -1.430370      20.607166     -4.2605
    -8      14.386017       5.687630      26.072166      5.7545
    -8      16.303017       4.649630      26.702168      7.2160
    -8      12.821016       4.074630      23.412167      5.8535
    -8      11.879017       5.300630      20.313168      7.2105
    -8      14.967016       5.182630      26.638166      5.8010
    -8      12.613016       4.247630      22.352167      5.8285
    -8      13.423017       5.009630      25.510166      5.6895
    -8      12.579017       4.458630      21.224167      5.7810
    -8       7.903017       1.063630      24.720167      7.0265
    -8      11.517016      -3.053370      22.483168      4.3445
    -8      12.238016      -3.808370      21.025167      4.6035
    -8      12.152017      -3.126370      18.429167      4.4460
    -8      10.771017      -2.113370      17.279167      4.9125

$$$$
Untitled
  RxDock  02242110093D
librxdock.so/0.1.0
 60 65  0  0  0  0  0  0  0  0999 V2000
  -48.9347   -6.5507   21.1311 C   0  0  0  0  0  0
  -48.9290   -7.2043   19.9197 C   0  0  0  0  0  0
  -49.9755   -8.0290   19.5685 C   0  0  0  0  0  0
  -51.0296   -8.1943   20.4415 C   0  0  0  0  0  0
  -51.0366   -7.5424   21.6537 C   0  0  0  0  0  0
  -49.9885   -6.7206   21.9983 C   0  0  0  0  0  0
  -49.9689   -8.7485   18.2274 C   0  0  0  0  0  0
  -49.6856   -7.8489   17.0037 C   0  0  0  0  0  0
  -48.1968   -7.6965   16.8399 N   0  3  0  0  0  0
  -50.3743   -6.4766   17.1857 C   0  0  0  0  0  0
  -51.5844   -6.6309   17.9486 O   0  0  0  0  0  0
  -50.7120   -5.8335   15.8232 C   0  0  0  0  0  0
  -51.0450   -4.3318   15.9675 C   0  0  0  0  0  0
  -52.3473   -4.0175   15.1970 C   0  0  0  0  0  0
  -53.4326   -5.0798   15.2812 C   0  0  0  0  0  0
  -53.6336   -5.7765   16.4531 C   0  0  0  0  0  0
  -54.6136   -6.7409   16.5300 C   0  0  0  0  0  0
  -55.3965   -7.0141   15.4328 C   0  0  0  0  0  0
  -55.2001   -6.3212   14.2590 C   0  0  0  0  0  0
  -54.2205   -5.3569   14.1851 C   0  0  0  0  0  0
  -51.2240   -3.9992   17.3873 N   0  0  0  0  0  0
  -51.4028   -2.5260   17.6562 P   0  0  0  0  0  0
  -50.2988   -1.9822   18.6907 O   0  0  0  0  0  0
  -52.7903   -2.2671   18.4370 O   0  0  0  0  0  0
  -51.3575   -1.7250   16.3816 O   0  0  0  0  0  0
  -48.9602   -2.4930   18.6081 C   0  0  0  0  0  0
  -53.1486   -2.9843   19.5443 C   0  0  0  0  0  0
  -54.3316   -2.7425   20.2187 C   0  0  0  0  0  0
  -54.6651   -3.4843   21.3274 C   0  0  0  0  0  0
  -53.8209   -4.4761   21.7721 C   0  0  0  0  0  0
  -52.6415   -4.7233   21.1073 C   0  0  0  0  0  0
  -52.3065   -3.9800   20.0007 C   0  0  0  0  0  0
  -48.4010   -2.2583   17.1954 C   0  0  0  0  0  0
  -47.0862   -2.8221   17.0515 O   0  0  0  0  0  0
  -46.2916   -2.0157   16.1615 C   0  0  0  0  0  0
  -47.1855   -0.8209   15.7526 C   0  0  0  0  0  0
  -48.2629   -0.7703   16.8437 C   0  0  0  0  0  0
  -47.7856    0.0001   17.9576 O   0  0  0  0  0  0
  -46.4699    0.4203   15.6503 O   0  0  0  0  0  0
  -45.0342   -1.6679   16.9508 C   0  0  0  0  0  0
  -45.9551   -2.8239   14.9824 C   0  0  0  0  0  0
  -45.6956   -3.4496   14.0694 N   0  0  0  0  0  0
  -45.1003   -1.3587   18.2679 N   0  0  0  0  0  0
  -43.8177   -1.1049   18.6400 C   0  0  0  0  0  0
  -42.9647   -1.2465   17.5931 C   0  0  0  0  0  0
  -43.7608   -1.6092   16.5031 C   0  0  0  0  0  0
  -46.1256   -1.2694   19.1655 N   0  0  0  0  0  0
  -45.8304   -0.9324   20.3986 C   0  0  0  0  0  0
  -44.5776   -0.6580   20.8863 N   0  0  0  0  0  0
  -43.5825   -0.7496   19.9935 C   0  0  0  0  0  0
  -42.3108   -0.4829   20.4432 N   0  0  0  0  0  0
  -47.8192   -8.4381   16.4735 H   0  0  0  0  0  0
  -47.9890   -6.9967   16.2957 H   0  0  0  0  0  0
  -47.7759   -7.5392   17.6290 H   0  0  0  0  0  0
  -51.9562   -5.7390   18.2267 H   0  0  0  0  0  0
  -50.4445   -4.3775   17.9410 H   0  0  0  0  0  0
  -48.4882    0.0819   18.6735 H   0  0  0  0  0  0
  -45.6696    0.3327   15.0473 H   0  0  0  0  0  0
  -42.1821   -0.2652   21.2864 H   0  0  0  0  0  0
  -41.6244   -0.5296   19.8936 H   0  0  0  0  0  0
  1  2  2  0  0  0
  2  3  1  0  0  0
  3  4  2  0  0  0
  3  7  1  0  0  0
  4  5  1  0  0  0
  5  6  2  0  0  0
  6  1  1  0  0  0
  7  8  1  0  0  0
  8  9  1  0  0  0
  8 10  1  0  0  0
 10 11  1  0  0  0
 10 12  1  0  0  0
 12 13  1  0  0  0
 13 14  1  0  0  0
 13 21  1  0  0  0
 14 15  1  0  0  0
 15 16  2  0  0  0
 16 17  1  0  0  0
 17 18  2  0  0  0
 18 19  1  0  0  0
 19 20  2  0  0  0
 20 15  1  0  0  0
 21 22  1  0  0  0
 22 23  1  0  0  0
 22 24  1  0  0  0
 22 25  2  0  0  0
 23 26  1  0  0  0
 24 27  1  0  0  0
 27 28  2  0  0  0
 28 29  1  0  0  0
 29 30  2  0  0  0
 30 31  1  0  0  0
 31 32  2  0  0  0
 32 27  1  0  0  0
 33 26  1  0  0  0
 33 34  1  0  0  0
 34 35  1  0  0  0
 35 36  1  0  0  0
 35 40  1  0  0  0
 35 41  1  0  0  0
 36 37  1  0  0  0
 36 39  1  0  0  0
 37 33  1  0  0  0
 37 38  1  0  0  0
 40 43  1  0  0  0
 41 42  3  0  0  0
 43 44  1  0  0  0
 43 47  1  0  0  0
 44 45  2  0  0  0
 45 46  1  0  0  0
 46 40  2  0  0  0
 47 48  2  0  0  0
 48 49  1  0  0  0
 49 50  2  0  0  0
 50 44  1  0  0  0
 50 51  1  0  0  0
  9 52  1  0  0  0
  9 53  1  0  0  0
  9 54  1  0  0  0
 11 55  1  0  0  0
 21 56  1  0  0  0
 38 57  1  0  0  0
 39 58  1  0  0  0
 51 59  1  0  0  0
 51 60  1  0  0  0
M  END
>  <#Atoms_cresset>
51

>  <#RB_cresset>
18

>  <BioMolTech Lead Finder LE>
-0.172

>  <BioMolTech Lead Finder Pose rank>
0

>  <BioMolTech Lead Finder Rank score>
-13.57

>  <BioMolTech Lead Finder SDF id>
0

>  <BioMolTech Lead Finder Structure Name>
/var/folders/xd/y7jw_xv579q2qqq7kks92xd80000gn/T/LeadFinder_21448_1/Ligand_1.sdf

>  <BioMolTech Lead Finder VSscore>
-13.341

>  <BioMolTech Lead Finder dG>
-8.761

>  <BioMolTech Lead Finder version>
2001 1, 19 January 2019

>  <CHROM.0>
-62.15014277,-56.09803390,68.62013726

>  <CHROM.1>
-50.32566219,84.23760008,76.76012154,-31.43875514,169.30044119,-164.80807686
-131.97121704,38.73224336,173.59611273,37.08174474,-123.26250343,37.83098406
48.98146933,56.64462199,179.05737158,-176.86319133,-39.78826899,53.06549598
-70.95160519,-49.49694334,-3.74868794,17.95013053,-2.94753293,-0.49235448
-1.13184074

>  <Confs_cresset>
0

>  <Favorite_cresset>
false

>  <Filename_cresset>
VTRRT-13V2.1.sdf

>  <Flexibility_cresset>
17.1

>  <LF LE>
-0.172

>  <LF Rank Score>
-13.57

>  <LF VSscore>
-13.341

>  <LF dG>
-8.761

>  <MW_cresset>
714.7

>  <Name>
Untitled

>  <Poses_cresset>
10

>  <Preferred Pose_cresset>
true

>  <Protein_cresset>
6Y2F_P

>  <RI>
-1.14932e+09

>  <Rbt.Current_Directory>
/root/miniconda3/envs/rdock/share/rxdock-2013.1.1_148c5bd1-0/data/ligands/prepped_ligands/VTRRT

>  <Rbt.Executable>
rbdock/0.1.0

>  <Rbt.Library>
librxdock.so/0.1.0

>  <Rbt.Parameter_File>
/root/miniconda3/envs/rdock/share/rxdock-2013.1.1_148c5bd1-0/data/scripts/dock.prm

>  <Rbt.Receptor>
def.prm

>  <Rof5_cresset>
3

>  <SCORE>
-26.2713

>  <SCORE.INTER>
-14.6742

>  <SCORE.INTER.CONST>
1

>  <SCORE.INTER.POLAR>
-1.53964

>  <SCORE.INTER.REPUL>
0.141535

>  <SCORE.INTER.ROT>
15

>  <SCORE.INTER.VDW>
-30.5471

>  <SCORE.INTER.norm>
-0.287729

>  <SCORE.INTRA>
-12.4554

>  <SCORE.INTRA.DIHEDRAL>
-23.4006

>  <SCORE.INTRA.DIHEDRAL.0>
43.3056

>  <SCORE.INTRA.POLAR>
-0.404741

>  <SCORE.INTRA.POLAR.0>
0

>  <SCORE.INTRA.REPUL>
-1.18384

>  <SCORE.INTRA.REPUL.0>
1.18384

>  <SCORE.INTRA.VDW>
6.54022

>  <SCORE.INTRA.VDW.0>
-7.21879

>  <SCORE.INTRA.norm>
-0.244223

>  <SCORE.RESTR>
1.71094

>  <SCORE.RESTR.CAVITY>
1.71094

>  <SCORE.RESTR.norm>
0.0335478

>  <SCORE.SYSTEM>
-0.852693

>  <SCORE.SYSTEM.CONST>
0

>  <SCORE.SYSTEM.DIHEDRAL>
0.261502

>  <SCORE.SYSTEM.POLAR>
-0.01553

>  <SCORE.SYSTEM.VDW>
-0.930643

>  <SCORE.SYSTEM.norm>
-0.0167195

>  <SCORE.heavy>
51

>  <SCORE.norm>
-0.515124

>  <SlogP_cresset>
4

>  <TPSA_cresset>
225.1

>  <_cresset_fieldpoints>
    -5      16.836018       5.832630      29.221167     -3.6840
    -5      12.689775      -0.157515      20.961832    -26.5835
    -5      10.603017       0.175630      26.550167     -8.1895
    -5      16.438017       3.291630      24.075167     -2.5740
    -5      10.777017       2.958630      26.544167    -13.1420
    -5      14.325016       6.363630      19.343166     -3.9175
    -5      10.138498      -1.142644      20.673992    -19.3483
    -5       8.999017       3.081630      18.875168    -11.2330
    -5      16.643017      -2.580370      18.078167    -12.9950
    -5       9.665886      -1.797647      20.491711    -20.2282
    -5       9.721017       2.679630      21.897167    -10.3470
    -5       9.495016      -3.987370      19.277166    -12.3125
    -6       9.544017       6.999630      25.870167     13.2990
    -6      11.781016       8.517631      22.930166      7.7900
    -6      14.607017       1.112630      25.440166      7.0810
    -6      15.386017       0.918630      28.446167      2.3985
    -6      18.624016       1.298630      27.807167      2.3740
    -6      20.392017       2.874630      26.722168      2.3035
    -6      17.648016       0.730630      28.195168      2.3685
    -6      14.512016       8.724630      26.097166      6.5595
    -6       8.569016      -0.973370      14.343166     10.8755
    -6       7.728017       1.126630      14.428167      9.6685
    -6       9.165016      -5.976370      22.174168      8.4205
    -6      13.686016      -5.263370      22.254168      6.1950
    -6      13.877016       8.944631      27.096167      6.4995
    -6      12.880016      -5.307370      17.193167     12.0245
    -7      15.472016       6.118630      22.868166     -3.2390
    -7      16.618017       6.190630      29.550167     -1.8400
    -7      20.678017       4.935630      25.563168     -0.9695
    -7      14.813017       8.811630      25.026167     -2.2140
    -7      10.993016       2.287630      26.765167     -3.3000
    -7      14.052017       0.966630      26.100166     -2.8945
    -7      19.113016       1.220630      27.604168     -0.9705
    -7      16.034016       2.731630      23.912167     -3.3250
    -7      10.857017       6.577630      27.959167     -2.0560
    -7       9.494017       3.463630      21.639168     -4.2685
    -7      10.789017       9.786630      25.500168     -0.9715
    -7      14.840016       6.494630      19.649166     -1.8715
    -7       8.671017       3.594630      18.487167     -2.1885
    -7       9.509016       9.096630      19.641167     -0.9730
    -7      10.391017      -1.625370      26.086166     -2.4190
    -7       4.660017      -1.773370      25.985167     -0.9695
    -7       4.569016       2.557630      27.332167     -0.9680
    -7      14.875017      -4.579370      21.768167     -1.8885
    -7      13.267016      -5.347370      16.886168     -1.9350
    -7       6.954017      -1.202370      16.804167     -1.5235
    -7      11.071016       0.523630      14.355167     -1.5285
    -7      13.461017       0.151630      20.851168     -4.5370
    -7       9.025017      -1.430370      20.607166     -4.2605
    -8      14.386017       5.687630      26.072166      5.7545
    -8      16.303017       4.649630      26.702168      7.2160
    -8      12.821016       4.074630      23.412167      5.8535
    -8      11.879017       5.300630      20.313168      7.2105
    -8      14.967016       5.182630      26.638166      5.8010
    -8      12.613016       4.247630      22.352167      5.8285
    -8      13.423017       5.009630      25.510166      5.6895
    -8      12.579017       4.458630      21.224167      5.7810
    -8       7.903017       1.063630      24.720167      7.0265
    -8      11.517016      -3.053370      22.483168      4.3445
    -8      12.238016      -3.808370      21.025167      4.6035
    -8      12.152017      -3.126370      18.429167      4.4460
    -8      10.771017      -2.113370      17.279167      4.9125

$$$$
Untitled
  RxDock  02242110093D
librxdock.so/0.1.0
 60 65  0  0  0  0  0  0  0  0999 V2000
  -55.7085   -7.1684   13.5721 C   0  0  0  0  0  0
  -55.3470   -6.0079   14.2183 C   0  0  0  0  0  0
  -55.0428   -6.0251   15.5620 C   0  0  0  0  0  0
  -55.1036   -7.2154   16.2550 C   0  0  0  0  0  0
  -55.4659   -8.3765   15.6108 C   0  0  0  0  0  0
  -55.7686   -8.3525   14.2689 C   0  0  0  0  0  0
  -54.6403   -4.7416   16.2742 C   0  0  0  0  0  0
  -53.1423   -4.3783   16.1710 C   0  0  0  0  0  0
  -52.8419   -3.9257   14.7669 N   0  3  0  0  0  0
  -52.2746   -5.5954   16.5667 C   0  0  0  0  0  0
  -52.5790   -5.9992   17.9137 O   0  0  0  0  0  0
  -50.7692   -5.2685   16.4629 C   0  0  0  0  0  0
  -50.3791   -4.0802   17.3699 C   0  0  0  0  0  0
  -49.1116   -4.4430   18.1762 C   0  0  0  0  0  0
  -49.2314   -5.6661   19.0724 C   0  0  0  0  0  0
  -48.9661   -6.9226   18.5723 C   0  0  0  0  0  0
  -49.0773   -8.0312   19.3815 C   0  0  0  0  0  0
  -49.4565   -7.8877   20.6957 C   0  0  0  0  0  0
  -49.7230   -6.6346   21.2008 C   0  0  0  0  0  0
  -49.6100   -5.5278   20.3901 C   0  0  0  0  0  0
  -50.1113   -2.8949   16.5441 N   0  0  0  0  0  0
  -50.9493   -1.6933   16.9026 P   0  0  0  0  0  0
  -50.2977   -0.3364   16.3377 O   0  0  0  0  0  0
  -50.9386   -1.4635   18.4992 O   0  0  0  0  0  0
  -52.3617   -1.8381   16.4001 O   0  0  0  0  0  0
  -49.5273   -0.3886   15.1280 C   0  0  0  0  0  0
  -51.6123   -2.2859   19.3587 C   0  0  0  0  0  0
  -51.0823   -2.6543   20.5819 C   0  0  0  0  0  0
  -51.7871   -3.4801   21.4257 C   0  0  0  0  0  0
  -53.0289   -3.9445   21.0565 C   0  0  0  0  0  0
  -53.5637   -3.5832   19.8410 C   0  0  0  0  0  0
  -52.8583   -2.7601   18.9960 C   0  0  0  0  0  0
  -48.4899   -1.5194   15.2212 C   0  0  0  0  0  0
  -47.8394   -1.5298   16.5034 O   0  0  0  0  0  0
  -46.4715   -1.9584   16.3659 C   0  0  0  0  0  0
  -46.2457   -2.1928   14.8534 C   0  0  0  0  0  0
  -47.3687   -1.3932   14.1801 C   0  0  0  0  0  0
  -46.9524   -0.0299   14.0057 O   0  0  0  0  0  0
  -44.9479   -1.7791   14.3978 O   0  0  0  0  0  0
  -45.6385   -0.8498   17.0002 C   0  0  0  0  0  0
  -46.3054   -3.2170   17.1042 C   0  0  0  0  0  0
  -46.1776   -4.1918   17.6752 N   0  0  0  0  0  0
  -44.5609   -1.1391   17.7681 N   0  0  0  0  0  0
  -44.0699    0.0655   18.1628 C   0  0  0  0  0  0
  -44.8123    1.0868   17.6634 C   0  0  0  0  0  0
  -45.8269    0.4852   16.9136 C   0  0  0  0  0  0
  -43.9684   -2.3051   18.1612 N   0  0  0  0  0  0
  -42.9089   -2.2228   18.9307 C   0  0  0  0  0  0
  -42.3255   -1.0675   19.3863 N   0  0  0  0  0  0
  -42.9185    0.0677   18.9923 C   0  0  0  0  0  0
  -42.3635    1.2481   19.4272 N   0  0  0  0  0  0
  -52.1095   -3.3878   14.7344 H   0  0  0  0  0  0
  -52.6777   -4.6309   14.2149 H   0  0  0  0  0  0
  -53.5322   -3.4672   14.3957 H   0  0  0  0  0  0
  -53.4748   -6.4531   17.9646 H   0  0  0  0  0  0
  -50.2155   -3.1262   15.5477 H   0  0  0  0  0  0
  -47.5175    0.4398   13.3180 H   0  0  0  0  0  0
  -44.2406   -2.4476   14.6517 H   0  0  0  0  0  0
  -41.6483    1.2319   19.9402 H   0  0  0  0  0  0
  -42.7180    2.0200   19.1950 H   0  0  0  0  0  0
  1  2  2  0  0  0
  2  3  1  0  0  0
  3  4  2  0  0  0
  3  7  1  0  0  0
  4  5  1  0  0  0
  5  6  2  0  0  0
  6  1  1  0  0  0
  7  8  1  0  0  0
  8  9  1  0  0  0
  8 10  1  0  0  0
 10 11  1  0  0  0
 10 12  1  0  0  0
 12 13  1  0  0  0
 13 14  1  0  0  0
 13 21  1  0  0  0
 14 15  1  0  0  0
 15 16  2  0  0  0
 16 17  1  0  0  0
 17 18  2  0  0  0
 18 19  1  0  0  0
 19 20  2  0  0  0
 20 15  1  0  0  0
 21 22  1  0  0  0
 22 23  1  0  0  0
 22 24  1  0  0  0
 22 25  2  0  0  0
 23 26  1  0  0  0
 24 27  1  0  0  0
 27 28  2  0  0  0
 28 29  1  0  0  0
 29 30  2  0  0  0
 30 31  1  0  0  0
 31 32  2  0  0  0
 32 27  1  0  0  0
 33 26  1  0  0  0
 33 34  1  0  0  0
 34 35  1  0  0  0
 35 36  1  0  0  0
 35 40  1  0  0  0
 35 41  1  0  0  0
 36 37  1  0  0  0
 36 39  1  0  0  0
 37 33  1  0  0  0
 37 38  1  0  0  0
 40 43  1  0  0  0
 41 42  3  0  0  0
 43 44  1  0  0  0
 43 47  1  0  0  0
 44 45  2  0  0  0
 45 46  1  0  0  0
 46 40  2  0  0  0
 47 48  2  0  0  0
 48 49  1  0  0  0
 49 50  2  0  0  0
 50 44  1  0  0  0
 50 51  1  0  0  0
  9 52  1  0  0  0
  9 53  1  0  0  0
  9 54  1  0  0  0
 11 55  1  0  0  0
 21 56  1  0  0  0
 38 57  1  0  0  0
 39 58  1  0  0  0
 51 59  1  0  0  0
 51 60  1  0  0  0
M  END
>  <#Atoms_cresset>
51

>  <#RB_cresset>
18

>  <BioMolTech Lead Finder LE>
-0.172

>  <BioMolTech Lead Finder Pose rank>
0

>  <BioMolTech Lead Finder Rank score>
-13.57

>  <BioMolTech Lead Finder SDF id>
0

>  <BioMolTech Lead Finder Structure Name>
/var/folders/xd/y7jw_xv579q2qqq7kks92xd80000gn/T/LeadFinder_21448_1/Ligand_1.sdf

>  <BioMolTech Lead Finder VSscore>
-13.341

>  <BioMolTech Lead Finder dG>
-8.761

>  <BioMolTech Lead Finder version>
2001 1, 19 January 2019

>  <CHROM.0>
-66.82062124,50.97323317,-175.52281631

>  <CHROM.1>
-85.04646407,71.73568883,155.93214719,-59.32846704,73.03317314,58.85403981
132.49490578,-59.15709540,123.52164926,87.42480368,160.94363847,30.42949509
-72.40432693,-49.81388331,141.02094527,-43.87250536,139.60176709,77.26054277
-87.11290780,-49.48393185,-3.27043966,17.31133904,2.93496358,0.47666652,2.17927514

>  <Confs_cresset>
0

>  <Favorite_cresset>
false

>  <Filename_cresset>
VTRRT-13V2.1.sdf

>  <Flexibility_cresset>
17.1

>  <LF LE>
-0.172

>  <LF Rank Score>
-13.57

>  <LF VSscore>
-13.341

>  <LF dG>
-8.761

>  <MW_cresset>
714.7

>  <Name>
Untitled

>  <Poses_cresset>
10

>  <Preferred Pose_cresset>
true

>  <Protein_cresset>
6Y2F_P

>  <RI>
-1.14932e+09

>  <Rbt.Current_Directory>
/root/miniconda3/envs/rdock/share/rxdock-2013.1.1_148c5bd1-0/data/ligands/prepped_ligands/VTRRT

>  <Rbt.Executable>
rbdock/0.1.0

>  <Rbt.Library>
librxdock.so/0.1.0

>  <Rbt.Parameter_File>
/root/miniconda3/envs/rdock/share/rxdock-2013.1.1_148c5bd1-0/data/scripts/dock.prm

>  <Rbt.Receptor>
def.prm

>  <Rof5_cresset>
3

>  <SCORE>
-27.6778

>  <SCORE.INTER>
-10.1644

>  <SCORE.INTER.CONST>
1

>  <SCORE.INTER.POLAR>
-1.22541

>  <SCORE.INTER.REPUL>
0.331789

>  <SCORE.INTER.ROT>
15

>  <SCORE.INTER.VDW>
-28.057

>  <SCORE.INTER.norm>
-0.199302

>  <SCORE.INTRA>
-17.2918

>  <SCORE.INTRA.DIHEDRAL>
-21.1052

>  <SCORE.INTRA.DIHEDRAL.0>
43.3056

>  <SCORE.INTRA.POLAR>
-0.0505998

>  <SCORE.INTRA.POLAR.0>
0

>  <SCORE.INTRA.REPUL>
-1.18384

>  <SCORE.INTRA.REPUL.0>
1.18384

>  <SCORE.INTRA.VDW>
-0.648026

>  <SCORE.INTRA.VDW.0>
-7.21879

>  <SCORE.INTRA.norm>
-0.339055

>  <SCORE.RESTR>
0.214458

>  <SCORE.RESTR.CAVITY>
0.214458

>  <SCORE.RESTR.norm>
0.00420505

>  <SCORE.SYSTEM>
-0.436032

>  <SCORE.SYSTEM.CONST>
0

>  <SCORE.SYSTEM.DIHEDRAL>
0.558984

>  <SCORE.SYSTEM.POLAR>
-0.0113484

>  <SCORE.SYSTEM.VDW>
-0.67694

>  <SCORE.SYSTEM.norm>
-0.00854966

>  <SCORE.heavy>
51

>  <SCORE.norm>
-0.542702

>  <SlogP_cresset>
4

>  <TPSA_cresset>
225.1

>  <_cresset_fieldpoints>
    -5      16.836018       5.832630      29.221167     -3.6840
    -5      12.689775      -0.157515      20.961832    -26.5835
    -5      10.603017       0.175630      26.550167     -8.1895
    -5      16.438017       3.291630      24.075167     -2.5740
    -5      10.777017       2.958630      26.544167    -13.1420
    -5      14.325016       6.363630      19.343166     -3.9175
    -5      10.138498      -1.142644      20.673992    -19.3483
    -5       8.999017       3.081630      18.875168    -11.2330
    -5      16.643017      -2.580370      18.078167    -12.9950
    -5       9.665886      -1.797647      20.491711    -20.2282
    -5       9.721017       2.679630      21.897167    -10.3470
    -5       9.495016      -3.987370      19.277166    -12.3125
    -6       9.544017       6.999630      25.870167     13.2990
    -6      11.781016       8.517631      22.930166      7.7900
    -6      14.607017       1.112630      25.440166      7.0810
    -6      15.386017       0.918630      28.446167      2.3985
    -6      18.624016       1.298630      27.807167      2.3740
    -6      20.392017       2.874630      26.722168      2.3035
    -6      17.648016       0.730630      28.195168      2.3685
    -6      14.512016       8.724630      26.097166      6.5595
    -6       8.569016      -0.973370      14.343166     10.8755
    -6       7.728017       1.126630      14.428167      9.6685
    -6       9.165016      -5.976370      22.174168      8.4205
    -6      13.686016      -5.263370      22.254168      6.1950
    -6      13.877016       8.944631      27.096167      6.4995
    -6      12.880016      -5.307370      17.193167     12.0245
    -7      15.472016       6.118630      22.868166     -3.2390
    -7      16.618017       6.190630      29.550167     -1.8400
    -7      20.678017       4.935630      25.563168     -0.9695
    -7      14.813017       8.811630      25.026167     -2.2140
    -7      10.993016       2.287630      26.765167     -3.3000
    -7      14.052017       0.966630      26.100166     -2.8945
    -7      19.113016       1.220630      27.604168     -0.9705
    -7      16.034016       2.731630      23.912167     -3.3250
    -7      10.857017       6.577630      27.959167     -2.0560
    -7       9.494017       3.463630      21.639168     -4.2685
    -7      10.789017       9.786630      25.500168     -0.9715
    -7      14.840016       6.494630      19.649166     -1.8715
    -7       8.671017       3.594630      18.487167     -2.1885
    -7       9.509016       9.096630      19.641167     -0.9730
    -7      10.391017      -1.625370      26.086166     -2.4190
    -7       4.660017      -1.773370      25.985167     -0.9695
    -7       4.569016       2.557630      27.332167     -0.9680
    -7      14.875017      -4.579370      21.768167     -1.8885
    -7      13.267016      -5.347370      16.886168     -1.9350
    -7       6.954017      -1.202370      16.804167     -1.5235
    -7      11.071016       0.523630      14.355167     -1.5285
    -7      13.461017       0.151630      20.851168     -4.5370
    -7       9.025017      -1.430370      20.607166     -4.2605
    -8      14.386017       5.687630      26.072166      5.7545
    -8      16.303017       4.649630      26.702168      7.2160
    -8      12.821016       4.074630      23.412167      5.8535
    -8      11.879017       5.300630      20.313168      7.2105
    -8      14.967016       5.182630      26.638166      5.8010
    -8      12.613016       4.247630      22.352167      5.8285
    -8      13.423017       5.009630      25.510166      5.6895
    -8      12.579017       4.458630      21.224167      5.7810
    -8       7.903017       1.063630      24.720167      7.0265
    -8      11.517016      -3.053370      22.483168      4.3445
    -8      12.238016      -3.808370      21.025167      4.6035
    -8      12.152017      -3.126370      18.429167      4.4460
    -8      10.771017      -2.113370      17.279167      4.9125

$$$$
Untitled
  RxDock  02242110093D
librxdock.so/0.1.0
 60 65  0  0  0  0  0  0  0  0999 V2000
  -52.1052   -8.1820   20.4934 C   0  0  0  0  0  0
  -51.5602   -8.2618   19.2318 C   0  0  0  0  0  0
  -50.3352   -8.8625   19.0393 C   0  0  0  0  0  0
  -49.6589   -9.3836   20.1218 C   0  0  0  0  0  0
  -50.2017   -9.3038   21.3841 C   0  0  0  0  0  0
  -51.4252   -8.7025   21.5695 C   0  0  0  0  0  0
  -49.7355   -8.9525   17.6433 C   0  0  0  0  0  0
  -48.5358   -8.0141   17.3848 C   0  0  0  0  0  0
  -47.3224   -8.5629   18.0868 N   0  3  0  0  0  0
  -48.8682   -6.5847   17.8720 C   0  0  0  0  0  0
  -48.9059   -6.5515   19.3099 O   0  0  0  0  0  0
  -50.2272   -6.1052   17.3177 C   0  0  0  0  0  0
  -50.2385   -4.5796   17.0745 C   0  0  0  0  0  0
  -49.8821   -3.8468   18.3877 C   0  0  0  0  0  0
  -51.0658   -3.3659   19.2130 C   0  0  0  0  0  0
  -51.0827   -2.0860   19.7236 C   0  0  0  0  0  0
  -52.1522   -1.6502   20.4737 C   0  0  0  0  0  0
  -53.2099   -2.4947   20.7180 C   0  0  0  0  0  0
  -53.1983   -3.7747   20.2106 C   0  0  0  0  0  0
  -52.1286   -4.2076   19.4601 C   0  0  0  0  0  0
  -49.2534   -4.2365   16.0398 N   0  0  0  0  0  0
  -49.5987   -3.0007   15.2474 P   0  0  0  0  0  0
  -49.1566   -1.6649   16.0253 O   0  0  0  0  0  0
  -51.1999   -2.8414   15.1341 O   0  0  0  0  0  0
  -48.9736   -3.0333   13.8775 O   0  0  0  0  0  0
  -48.3035   -1.7815   17.1735 C   0  0  0  0  0  0
  -52.0552   -3.8778   15.3851 C   0  0  0  0  0  0
  -53.1190   -3.7501   16.2597 C   0  0  0  0  0  0
  -53.9638   -4.8107   16.4878 C   0  0  0  0  0  0
  -53.7552   -6.0086   15.8432 C   0  0  0  0  0  0
  -52.6989   -6.1446   14.9716 C   0  0  0  0  0  0
  -51.8525   -5.0855   14.7455 C   0  0  0  0  0  0
  -46.8939   -2.2077   16.7321 C   0  0  0  0  0  0
  -45.9548   -2.1167   17.8170 O   0  0  0  0  0  0
  -44.6551   -1.7426   17.3224 C   0  0  0  0  0  0
  -44.8183   -1.5428   15.7969 C   0  0  0  0  0  0
  -46.3259   -1.3306   15.6074 C   0  0  0  0  0  0
  -46.6455    0.0564   15.7981 O   0  0  0  0  0  0
  -44.0544   -0.4420   15.2792 O   0  0  0  0  0  0
  -44.2649   -0.5023   18.1190 C   0  0  0  0  0  0
  -43.7232   -2.8450   17.5924 C   0  0  0  0  0  0
  -43.0024   -3.6991   17.8008 N   0  0  0  0  0  0
  -45.1007    0.0228   19.0466 N   0  0  0  0  0  0
  -44.4445    1.1022   19.5485 C   0  0  0  0  0  0
  -43.2319    1.2589   18.9580 C   0  0  0  0  0  0
  -43.1246    0.2171   18.0324 C   0  0  0  0  0  0
  -46.3445   -0.3180   19.4961 N   0  0  0  0  0  0
  -46.8829    0.4305   20.4294 C   0  0  0  0  0  0
  -46.3150    1.5363   21.0100 N   0  0  0  0  0  0
  -45.0950    1.8577   20.5583 C   0  0  0  0  0  0
  -44.4907    2.9598   21.1157 N   0  0  0  0  0  0
  -47.1283   -9.4087   17.8152 H   0  0  0  0  0  0
  -46.5832   -8.0564   17.9249 H   0  0  0  0  0  0
  -47.4240   -8.5840   18.9889 H   0  0  0  0  0  0
  -48.0014   -6.7484   19.7029 H   0  0  0  0  0  0
  -49.1023   -5.0387   15.4144 H   0  0  0  0  0  0
  -46.2552    0.4068   16.6571 H   0  0  0  0  0  0
  -44.6455    0.2294   14.8192 H   0  0  0  0  0  0
  -44.9076    3.4168   21.7421 H   0  0  0  0  0  0
  -43.6892    3.2108   20.8510 H   0  0  0  0  0  0
  1  2  2  0  0  0
  2  3  1  0  0  0
  3  4  2  0  0  0
  3  7  1  0  0  0
  4  5  1  0  0  0
  5  6  2  0  0  0
  6  1  1  0  0  0
  7  8  1  0  0  0
  8  9  1  0  0  0
  8 10  1  0  0  0
 10 11  1  0  0  0
 10 12  1  0  0  0
 12 13  1  0  0  0
 13 14  1  0  0  0
 13 21  1  0  0  0
 14 15  1  0  0  0
 15 16  2  0  0  0
 16 17  1  0  0  0
 17 18  2  0  0  0
 18 19  1  0  0  0
 19 20  2  0  0  0
 20 15  1  0  0  0
 21 22  1  0  0  0
 22 23  1  0  0  0
 22 24  1  0  0  0
 22 25  2  0  0  0
 23 26  1  0  0  0
 24 27  1  0  0  0
 27 28  2  0  0  0
 28 29  1  0  0  0
 29 30  2  0  0  0
 30 31  1  0  0  0
 31 32  2  0  0  0
 32 27  1  0  0  0
 33 26  1  0  0  0
 33 34  1  0  0  0
 34 35  1  0  0  0
 35 36  1  0  0  0
 35 40  1  0  0  0
 35 41  1  0  0  0
 36 37  1  0  0  0
 36 39  1  0  0  0
 37 33  1  0  0  0
 37 38  1  0  0  0
 40 43  1  0  0  0
 41 42  3  0  0  0
 43 44  1  0  0  0
 43 47  1  0  0  0
 44 45  2  0  0  0
 45 46  1  0  0  0
 46 40  2  0  0  0
 47 48  2  0  0  0
 48 49  1  0  0  0
 49 50  2  0  0  0
 50 44  1  0  0  0
 50 51  1  0  0  0
  9 52  1  0  0  0
  9 53  1  0  0  0
  9 54  1  0  0  0
 11 55  1  0  0  0
 21 56  1  0  0  0
 38 57  1  0  0  0
 39 58  1  0  0  0
 51 59  1  0  0  0
 51 60  1  0  0  0
M  END
>  <#Atoms_cresset>
51

>  <#RB_cresset>
18

>  <BioMolTech Lead Finder LE>
-0.172

>  <BioMolTech Lead Finder Pose rank>
0

>  <BioMolTech Lead Finder Rank score>
-13.57

>  <BioMolTech Lead Finder SDF id>
0

>  <BioMolTech Lead Finder Structure Name>
/var/folders/xd/y7jw_xv579q2qqq7kks92xd80000gn/T/LeadFinder_21448_1/Ligand_1.sdf

>  <BioMolTech Lead Finder VSscore>
-13.341

>  <BioMolTech Lead Finder dG>
-8.761

>  <BioMolTech Lead Finder version>
2001 1, 19 January 2019

>  <CHROM.0>
177.60984260,-179.78256802,-74.27450253

>  <CHROM.1>
107.51612282,74.64219787,57.55361752,70.80457523,64.63874378,-147.55246386
-56.49280801,-95.99282668,151.60446022,-133.34948971,82.51651543,11.70652674
-17.17121966,70.10982243,128.44848293,170.19604835,-1.09611511,-122.11032320
61.09202907,-48.61989806,-3.43242047,17.88284299,-2.47700222,-0.50938727
-0.53612140

>  <Confs_cresset>
0

>  <Favorite_cresset>
false

>  <Filename_cresset>
VTRRT-13V2.1.sdf

>  <Flexibility_cresset>
17.1

>  <LF LE>
-0.172

>  <LF Rank Score>
-13.57

>  <LF VSscore>
-13.341

>  <LF dG>
-8.761

>  <MW_cresset>
714.7

>  <Name>
Untitled

>  <Poses_cresset>
10

>  <Preferred Pose_cresset>
true

>  <Protein_cresset>
6Y2F_P

>  <RI>
-1.14932e+09

>  <Rbt.Current_Directory>
/root/miniconda3/envs/rdock/share/rxdock-2013.1.1_148c5bd1-0/data/ligands/prepped_ligands/VTRRT

>  <Rbt.Executable>
rbdock/0.1.0

>  <Rbt.Library>
librxdock.so/0.1.0

>  <Rbt.Parameter_File>
/root/miniconda3/envs/rdock/share/rxdock-2013.1.1_148c5bd1-0/data/scripts/dock.prm

>  <Rbt.Receptor>
def.prm

>  <Rof5_cresset>
3

>  <SCORE>
-12.7987

>  <SCORE.INTER>
-4.52129

>  <SCORE.INTER.CONST>
1

>  <SCORE.INTER.POLAR>
-0.556965

>  <SCORE.INTER.REPUL>
0.609883

>  <SCORE.INTER.ROT>
15

>  <SCORE.INTER.VDW>
-26.077

>  <SCORE.INTER.norm>
-0.0886527

>  <SCORE.INTRA>
-8.32405

>  <SCORE.INTRA.DIHEDRAL>
-14.8981

>  <SCORE.INTRA.DIHEDRAL.0>
43.3056

>  <SCORE.INTRA.POLAR>
0

>  <SCORE.INTRA.POLAR.0>
0

>  <SCORE.INTRA.REPUL>
-1.11355

>  <SCORE.INTRA.REPUL.0>
1.18384

>  <SCORE.INTRA.VDW>
4.69275

>  <SCORE.INTRA.VDW.0>
-7.21879

>  <SCORE.INTRA.norm>
-0.163217

>  <SCORE.RESTR>
0.84641

>  <SCORE.RESTR.CAVITY>
0.84641

>  <SCORE.RESTR.norm>
0.0165963

>  <SCORE.SYSTEM>
-0.799762

>  <SCORE.SYSTEM.CONST>
0

>  <SCORE.SYSTEM.DIHEDRAL>
0.50662

>  <SCORE.SYSTEM.VDW>
-1.05307

>  <SCORE.SYSTEM.norm>
-0.0156816

>  <SCORE.heavy>
51

>  <SCORE.norm>
-0.250955

>  <SlogP_cresset>
4

>  <TPSA_cresset>
225.1

>  <_cresset_fieldpoints>
    -5      16.836018       5.832630      29.221167     -3.6840
    -5      12.689775      -0.157515      20.961832    -26.5835
    -5      10.603017       0.175630      26.550167     -8.1895
    -5      16.438017       3.291630      24.075167     -2.5740
    -5      10.777017       2.958630      26.544167    -13.1420
    -5      14.325016       6.363630      19.343166     -3.9175
    -5      10.138498      -1.142644      20.673992    -19.3483
    -5       8.999017       3.081630      18.875168    -11.2330
    -5      16.643017      -2.580370      18.078167    -12.9950
    -5       9.665886      -1.797647      20.491711    -20.2282
    -5       9.721017       2.679630      21.897167    -10.3470
    -5       9.495016      -3.987370      19.277166    -12.3125
    -6       9.544017       6.999630      25.870167     13.2990
    -6      11.781016       8.517631      22.930166      7.7900
    -6      14.607017       1.112630      25.440166      7.0810
    -6      15.386017       0.918630      28.446167      2.3985
    -6      18.624016       1.298630      27.807167      2.3740
    -6      20.392017       2.874630      26.722168      2.3035
    -6      17.648016       0.730630      28.195168      2.3685
    -6      14.512016       8.724630      26.097166      6.5595
    -6       8.569016      -0.973370      14.343166     10.8755
    -6       7.728017       1.126630      14.428167      9.6685
    -6       9.165016      -5.976370      22.174168      8.4205
    -6      13.686016      -5.263370      22.254168      6.1950
    -6      13.877016       8.944631      27.096167      6.4995
    -6      12.880016      -5.307370      17.193167     12.0245
    -7      15.472016       6.118630      22.868166     -3.2390
    -7      16.618017       6.190630      29.550167     -1.8400
    -7      20.678017       4.935630      25.563168     -0.9695
    -7      14.813017       8.811630      25.026167     -2.2140
    -7      10.993016       2.287630      26.765167     -3.3000
    -7      14.052017       0.966630      26.100166     -2.8945
    -7      19.113016       1.220630      27.604168     -0.9705
    -7      16.034016       2.731630      23.912167     -3.3250
    -7      10.857017       6.577630      27.959167     -2.0560
    -7       9.494017       3.463630      21.639168     -4.2685
    -7      10.789017       9.786630      25.500168     -0.9715
    -7      14.840016       6.494630      19.649166     -1.8715
    -7       8.671017       3.594630      18.487167     -2.1885
    -7       9.509016       9.096630      19.641167     -0.9730
    -7      10.391017      -1.625370      26.086166     -2.4190
    -7       4.660017      -1.773370      25.985167     -0.9695
    -7       4.569016       2.557630      27.332167     -0.9680
    -7      14.875017      -4.579370      21.768167     -1.8885
    -7      13.267016      -5.347370      16.886168     -1.9350
    -7       6.954017      -1.202370      16.804167     -1.5235
    -7      11.071016       0.523630      14.355167     -1.5285
    -7      13.461017       0.151630      20.851168     -4.5370
    -7       9.025017      -1.430370      20.607166     -4.2605
    -8      14.386017       5.687630      26.072166      5.7545
    -8      16.303017       4.649630      26.702168      7.2160
    -8      12.821016       4.074630      23.412167      5.8535
    -8      11.879017       5.300630      20.313168      7.2105
    -8      14.967016       5.182630      26.638166      5.8010
    -8      12.613016       4.247630      22.352167      5.8285
    -8      13.423017       5.009630      25.510166      5.6895
    -8      12.579017       4.458630      21.224167      5.7810
    -8       7.903017       1.063630      24.720167      7.0265
    -8      11.517016      -3.053370      22.483168      4.3445
    -8      12.238016      -3.808370      21.025167      4.6035
    -8      12.152017      -3.126370      18.429167      4.4460
    -8      10.771017      -2.113370      17.279167      4.9125

$$$$
Untitled
  RxDock  02242110103D
librxdock.so/0.1.0
 60 65  0  0  0  0  0  0  0  0999 V2000
  -52.5568   -2.3983   19.0800 C   0  0  0  0  0  0
  -52.5491   -3.7748   19.0693 C   0  0  0  0  0  0
  -51.9098   -4.4752   20.0690 C   0  0  0  0  0  0
  -51.2773   -3.7853   21.0812 C   0  0  0  0  0  0
  -51.2830   -2.4090   21.0929 C   0  0  0  0  0  0
  -51.9230   -1.7157   20.0916 C   0  0  0  0  0  0
  -51.9049   -5.9972   20.0572 C   0  0  0  0  0  0
  -50.5672   -6.6438   19.6338 C   0  0  0  0  0  0
  -49.5589   -6.4534   20.7353 N   0  3  0  0  0  0
  -50.0750   -6.0199   18.3074 C   0  0  0  0  0  0
  -49.6810   -4.6530   18.5232 O   0  0  0  0  0  0
  -51.1742   -6.0661   17.2240 C   0  0  0  0  0  0
  -50.7272   -5.3566   15.9265 C   0  0  0  0  0  0
  -51.5902   -5.8538   14.7448 C   0  0  0  0  0  0
  -53.0924   -5.8522   14.9829 C   0  0  0  0  0  0
  -53.8365   -6.9854   14.7348 C   0  0  0  0  0  0
  -55.1972   -6.9846   14.9468 C   0  0  0  0  0  0
  -55.8204   -5.8481   15.4068 C   0  0  0  0  0  0
  -55.0820   -4.7129   15.6563 C   0  0  0  0  0  0
  -53.7218   -4.7166   15.4446 C   0  0  0  0  0  0
  -50.8914   -3.9041   16.0754 N   0  0  0  0  0  0
  -49.7493   -3.0952   15.5135 P   0  0  0  0  0  0
  -48.5220   -3.0183   16.5492 O   0  0  0  0  0  0
  -50.1867   -1.5507   15.3541 O   0  0  0  0  0  0
  -49.2799   -3.6492   14.1941 O   0  0  0  0  0  0
  -47.7794   -1.7947   16.6546 C   0  0  0  0  0  0
  -49.7012   -0.7549   14.3543 C   0  0  0  0  0  0
  -48.3881   -0.8384   13.9281 C   0  0  0  0  0  0
  -47.9313   -0.0262   12.9170 C   0  0  0  0  0  0
  -48.7823    0.8761   12.3206 C   0  0  0  0  0  0
  -50.0903    0.9663   12.7387 C   0  0  0  0  0  0
  -50.5466    0.1565   13.7513 C   0  0  0  0  0  0
  -48.5613   -0.7846   17.5099 C   0  0  0  0  0  0
  -47.8482    0.4573   17.6376 O   0  0  0  0  0  0
  -48.0950    1.0445   18.9292 C   0  0  0  0  0  0
  -49.0109    0.0515   19.6834 C   0  0  0  0  0  0
  -48.8112   -1.2770   18.9425 C   0  0  0  0  0  0
  -47.6686   -1.9617   19.4792 O   0  0  0  0  0  0
  -48.7006   -0.0643   21.0811 O   0  0  0  0  0  0
  -46.7149    1.2714   19.5366 C   0  0  0  0  0  0
  -48.7891    2.3233   18.7302 C   0  0  0  0  0  0
  -49.3273    3.3127   18.5756 N   0  0  0  0  0  0
  -46.2022    0.4084   20.4459 N   0  0  0  0  0  0
  -44.9817    0.9126   20.7684 C   0  0  0  0  0  0
  -44.7279    2.0596   20.0875 C   0  0  0  0  0  0
  -45.8560    2.2857   19.2938 C   0  0  0  0  0  0
  -46.6639   -0.7417   21.0197 N   0  0  0  0  0  0
  -45.8891   -1.3436   21.8907 C   0  0  0  0  0  0
  -44.6428   -0.9304   22.2888 N   0  0  0  0  0  0
  -44.2040    0.1994   21.7172 C   0  0  0  0  0  0
  -42.9582    0.6468   22.0890 N   0  0  0  0  0  0
  -49.4682   -5.5778   20.9632 H   0  0  0  0  0  0
  -49.7992   -6.9005   21.4913 H   0  0  0  0  0  0
  -48.7354   -6.7616   20.5082 H   0  0  0  0  0  0
  -49.1815   -4.2882   17.7305 H   0  0  0  0  0  0
  -51.0550   -3.6652   17.0621 H   0  0  0  0  0  0
  -47.6446   -1.9011   20.4835 H   0  0  0  0  0  0
  -49.3209   -0.7085   21.5415 H   0  0  0  0  0  0
  -42.4882    0.1917   22.6779 H   0  0  0  0  0  0
  -42.6272    1.3850   21.7410 H   0  0  0  0  0  0
  1  2  2  0  0  0
  2  3  1  0  0  0
  3  4  2  0  0  0
  3  7  1  0  0  0
  4  5  1  0  0  0
  5  6  2  0  0  0
  6  1  1  0  0  0
  7  8  1  0  0  0
  8  9  1  0  0  0
  8 10  1  0  0  0
 10 11  1  0  0  0
 10 12  1  0  0  0
 12 13  1  0  0  0
 13 14  1  0  0  0
 13 21  1  0  0  0
 14 15  1  0  0  0
 15 16  2  0  0  0
 16 17  1  0  0  0
 17 18  2  0  0  0
 18 19  1  0  0  0
 19 20  2  0  0  0
 20 15  1  0  0  0
 21 22  1  0  0  0
 22 23  1  0  0  0
 22 24  1  0  0  0
 22 25  2  0  0  0
 23 26  1  0  0  0
 24 27  1  0  0  0
 27 28  2  0  0  0
 28 29  1  0  0  0
 29 30  2  0  0  0
 30 31  1  0  0  0
 31 32  2  0  0  0
 32 27  1  0  0  0
 33 26  1  0  0  0
 33 34  1  0  0  0
 34 35  1  0  0  0
 35 36  1  0  0  0
 35 40  1  0  0  0
 35 41  1  0  0  0
 36 37  1  0  0  0
 36 39  1  0  0  0
 37 33  1  0  0  0
 37 38  1  0  0  0
 40 43  1  0  0  0
 41 42  3  0  0  0
 43 44  1  0  0  0
 43 47  1  0  0  0
 44 45  2  0  0  0
 45 46  1  0  0  0
 46 40  2  0  0  0
 47 48  2  0  0  0
 48 49  1  0  0  0
 49 50  2  0  0  0
 50 44  1  0  0  0
 50 51  1  0  0  0
  9 52  1  0  0  0
  9 53  1  0  0  0
  9 54  1  0  0  0
 11 55  1  0  0  0
 21 56  1  0  0  0
 38 57  1  0  0  0
 39 58  1  0  0  0
 51 59  1  0  0  0
 51 60  1  0  0  0
M  END
>  <#Atoms_cresset>
51

>  <#RB_cresset>
18

>  <BioMolTech Lead Finder LE>
-0.172

>  <BioMolTech Lead Finder Pose rank>
0

>  <BioMolTech Lead Finder Rank score>
-13.57

>  <BioMolTech Lead Finder SDF id>
0

>  <BioMolTech Lead Finder Structure Name>
/var/folders/xd/y7jw_xv579q2qqq7kks92xd80000gn/T/LeadFinder_21448_1/Ligand_1.sdf

>  <BioMolTech Lead Finder VSscore>
-13.341

>  <BioMolTech Lead Finder dG>
-8.761

>  <BioMolTech Lead Finder version>
2001 1, 19 January 2019

>  <CHROM.0>
50.97515469,61.37814789,163.36999003

>  <CHROM.1>
104.97209191,71.74750083,-54.71919338,68.85645959,168.07164871,175.99466673
159.48631628,48.79463268,138.21676492,-128.60702421,-81.81197946,-142.39124260
-147.51378738,78.69046181,-38.02717799,-179.94296267,-99.89234133,179.33960571
153.32619997,-49.47106431,-2.20254058,17.83481962,3.02589164,-0.82786430
-1.09175367

>  <Confs_cresset>
0

>  <Favorite_cresset>
false

>  <Filename_cresset>
VTRRT-13V2.1.sdf

>  <Flexibility_cresset>
17.1

>  <LF LE>
-0.172

>  <LF Rank Score>
-13.57

>  <LF VSscore>
-13.341

>  <LF dG>
-8.761

>  <MW_cresset>
714.7

>  <Name>
Untitled

>  <Poses_cresset>
10

>  <Preferred Pose_cresset>
true

>  <Protein_cresset>
6Y2F_P

>  <RI>
-1.14932e+09

>  <Rbt.Current_Directory>
/root/miniconda3/envs/rdock/share/rxdock-2013.1.1_148c5bd1-0/data/ligands/prepped_ligands/VTRRT

>  <Rbt.Executable>
rbdock/0.1.0

>  <Rbt.Library>
librxdock.so/0.1.0

>  <Rbt.Parameter_File>
/root/miniconda3/envs/rdock/share/rxdock-2013.1.1_148c5bd1-0/data/scripts/dock.prm

>  <Rbt.Receptor>
def.prm

>  <Rof5_cresset>
3

>  <SCORE>
-17.2295

>  <SCORE.INTER>
-4.74115

>  <SCORE.INTER.CONST>
1

>  <SCORE.INTER.POLAR>
-0.440104

>  <SCORE.INTER.REPUL>
0.0925705

>  <SCORE.INTER.ROT>
15

>  <SCORE.INTER.VDW>
-24.1076

>  <SCORE.INTER.norm>
-0.0929637

>  <SCORE.INTRA>
-12.4002

>  <SCORE.INTRA.DIHEDRAL>
-25.4729

>  <SCORE.INTRA.DIHEDRAL.0>
43.3056

>  <SCORE.INTRA.POLAR>
-1.21537

>  <SCORE.INTRA.POLAR.0>
0

>  <SCORE.INTRA.REPUL>
-1.18384

>  <SCORE.INTRA.REPUL.0>
1.18384

>  <SCORE.INTRA.VDW>
10.3877

>  <SCORE.INTRA.VDW.0>
-7.21879

>  <SCORE.INTRA.norm>
-0.243141

>  <SCORE.RESTR>
0.420067

>  <SCORE.RESTR.CAVITY>
0.420067

>  <SCORE.RESTR.norm>
0.00823661

>  <SCORE.SYSTEM>
-0.508205

>  <SCORE.SYSTEM.CONST>
0

>  <SCORE.SYSTEM.DIHEDRAL>
0.865449

>  <SCORE.SYSTEM.VDW>
-0.94093

>  <SCORE.SYSTEM.norm>
-0.00996481

>  <SCORE.heavy>
51

>  <SCORE.norm>
-0.337833

>  <SlogP_cresset>
4

>  <TPSA_cresset>
225.1

>  <_cresset_fieldpoints>
    -5      16.836018       5.832630      29.221167     -3.6840
    -5      12.689775      -0.157515      20.961832    -26.5835
    -5      10.603017       0.175630      26.550167     -8.1895
    -5      16.438017       3.291630      24.075167     -2.5740
    -5      10.777017       2.958630      26.544167    -13.1420
    -5      14.325016       6.363630      19.343166     -3.9175
    -5      10.138498      -1.142644      20.673992    -19.3483
    -5       8.999017       3.081630      18.875168    -11.2330
    -5      16.643017      -2.580370      18.078167    -12.9950
    -5       9.665886      -1.797647      20.491711    -20.2282
    -5       9.721017       2.679630      21.897167    -10.3470
    -5       9.495016      -3.987370      19.277166    -12.3125
    -6       9.544017       6.999630      25.870167     13.2990
    -6      11.781016       8.517631      22.930166      7.7900
    -6      14.607017       1.112630      25.440166      7.0810
    -6      15.386017       0.918630      28.446167      2.3985
    -6      18.624016       1.298630      27.807167      2.3740
    -6      20.392017       2.874630      26.722168      2.3035
    -6      17.648016       0.730630      28.195168      2.3685
    -6      14.512016       8.724630      26.097166      6.5595
    -6       8.569016      -0.973370      14.343166     10.8755
    -6       7.728017       1.126630      14.428167      9.6685
    -6       9.165016      -5.976370      22.174168      8.4205
    -6      13.686016      -5.263370      22.254168      6.1950
    -6      13.877016       8.944631      27.096167      6.4995
    -6      12.880016      -5.307370      17.193167     12.0245
    -7      15.472016       6.118630      22.868166     -3.2390
    -7      16.618017       6.190630      29.550167     -1.8400
    -7      20.678017       4.935630      25.563168     -0.9695
    -7      14.813017       8.811630      25.026167     -2.2140
    -7      10.993016       2.287630      26.765167     -3.3000
    -7      14.052017       0.966630      26.100166     -2.8945
    -7      19.113016       1.220630      27.604168     -0.9705
    -7      16.034016       2.731630      23.912167     -3.3250
    -7      10.857017       6.577630      27.959167     -2.0560
    -7       9.494017       3.463630      21.639168     -4.2685
    -7      10.789017       9.786630      25.500168     -0.9715
    -7      14.840016       6.494630      19.649166     -1.8715
    -7       8.671017       3.594630      18.487167     -2.1885
    -7       9.509016       9.096630      19.641167     -0.9730
    -7      10.391017      -1.625370      26.086166     -2.4190
    -7       4.660017      -1.773370      25.985167     -0.9695
    -7       4.569016       2.557630      27.332167     -0.9680
    -7      14.875017      -4.579370      21.768167     -1.8885
    -7      13.267016      -5.347370      16.886168     -1.9350
    -7       6.954017      -1.202370      16.804167     -1.5235
    -7      11.071016       0.523630      14.355167     -1.5285
    -7      13.461017       0.151630      20.851168     -4.5370
    -7       9.025017      -1.430370      20.607166     -4.2605
    -8      14.386017       5.687630      26.072166      5.7545
    -8      16.303017       4.649630      26.702168      7.2160
    -8      12.821016       4.074630      23.412167      5.8535
    -8      11.879017       5.300630      20.313168      7.2105
    -8      14.967016       5.182630      26.638166      5.8010
    -8      12.613016       4.247630      22.352167      5.8285
    -8      13.423017       5.009630      25.510166      5.6895
    -8      12.579017       4.458630      21.224167      5.7810
    -8       7.903017       1.063630      24.720167      7.0265
    -8      11.517016      -3.053370      22.483168      4.3445
    -8      12.238016      -3.808370      21.025167      4.6035
    -8      12.152017      -3.126370      18.429167      4.4460
    -8      10.771017      -2.113370      17.279167      4.9125

$$$$
Untitled
  RxDock  02242110103D
librxdock.so/0.1.0
 60 65  0  0  0  0  0  0  0  0999 V2000
  -45.4737   -1.4380   14.9097 C   0  0  0  0  0  0
  -44.8500   -0.6231   15.8272 C   0  0  0  0  0  0
  -44.6824   -1.0415   17.1293 C   0  0  0  0  0  0
  -45.1449   -2.2843   17.5061 C   0  0  0  0  0  0
  -45.7698   -3.1000   16.5903 C   0  0  0  0  0  0
  -45.9342   -2.6762   15.2918 C   0  0  0  0  0  0
  -43.9898   -0.1404   18.1417 C   0  0  0  0  0  0
  -44.7536    1.1553   18.4946 C   0  0  0  0  0  0
  -43.9859    1.9066   19.5493 N   0  3  0  0  0  0
  -46.1821    0.8122   18.9768 C   0  0  0  0  0  0
  -46.2039   -0.5070   19.5508 O   0  0  0  0  0  0
  -47.1969    0.8766   17.8147 C   0  0  0  0  0  0
  -48.4458    0.0128   18.0988 C   0  0  0  0  0  0
  -49.5665    0.3855   17.1021 C   0  0  0  0  0  0
  -49.5087   -0.3196   15.7556 C   0  0  0  0  0  0
  -50.6294   -0.9401   15.2475 C   0  0  0  0  0  0
  -50.5778   -1.5816   14.0300 C   0  0  0  0  0  0
  -49.4028   -1.6067   13.3157 C   0  0  0  0  0  0
  -48.2798   -0.9885   13.8186 C   0  0  0  0  0  0
  -48.3343   -0.3469   15.0353 C   0  0  0  0  0  0
  -48.1087   -1.4092   17.9469 N   0  0  0  0  0  0
  -49.1804   -2.3511   18.4353 P   0  0  0  0  0  0
  -50.1856   -2.7589   17.2486 O   0  0  0  0  0  0
  -50.1459   -1.5989   19.4861 O   0  0  0  0  0  0
  -48.5847   -3.5866   19.0573 O   0  0  0  0  0  0
  -50.0113   -4.0258   16.5972 C   0  0  0  0  0  0
  -51.2370   -2.2089   20.0394 C   0  0  0  0  0  0
  -51.1127   -3.1779   21.0185 C   0  0  0  0  0  0
  -52.2304   -3.7699   21.5579 C   0  0  0  0  0  0
  -53.4831   -3.3985   21.1257 C   0  0  0  0  0  0
  -53.6161   -2.4355   20.1516 C   0  0  0  0  0  0
  -52.4989   -1.8455   19.6101 C   0  0  0  0  0  0
  -50.1132   -5.1596   17.6304 C   0  0  0  0  0  0
  -50.4032   -6.4189   17.0001 O   0  0  0  0  0  0
  -51.2268   -7.2295   17.8595 C   0  0  0  0  0  0
  -51.5056   -6.3736   19.1178 C   0  0  0  0  0  0
  -51.2301   -4.9355   18.6596 C   0  0  0  0  0  0
  -52.4117   -4.3871   18.0552 O   0  0  0  0  0  0
  -52.8394   -6.5254   19.6288 O   0  0  0  0  0  0
  -52.4452   -7.5949   17.0186 C   0  0  0  0  0  0
  -50.4694   -8.4339   18.2232 C   0  0  0  0  0  0
  -49.8822   -9.3656   18.5053 N   0  0  0  0  0  0
  -52.9784   -6.7111   16.1416 N   0  0  0  0  0  0
  -54.0334   -7.3581   15.5792 C   0  0  0  0  0  0
  -54.1672   -8.6116   16.0837 C   0  0  0  0  0  0
  -53.1362   -8.7560   17.0162 C   0  0  0  0  0  0
  -52.6635   -5.4315   15.7829 N   0  0  0  0  0  0
  -53.4122   -4.8493   14.8765 C   0  0  0  0  0  0
  -54.4948   -5.4036   14.2412 N   0  0  0  0  0  0
  -54.7910   -6.6590   14.6041 C   0  0  0  0  0  0
  -55.8692   -7.2509   13.9895 N   0  0  0  0  0  0
  -44.5144    2.4958   19.9970 H   0  0  0  0  0  0
  -43.6309    1.3438   20.1708 H   0  0  0  0  0  0
  -43.2896    2.3754   19.2029 H   0  0  0  0  0  0
  -47.0238   -0.6449   20.1165 H   0  0  0  0  0  0
  -47.2107   -1.6115   18.4052 H   0  0  0  0  0  0
  -52.2277   -3.4876   17.6430 H   0  0  0  0  0  0
  -52.9698   -5.9963   20.4742 H   0  0  0  0  0  0
  -56.3278   -6.8037   13.3856 H   0  0  0  0  0  0
  -56.1032   -8.0746   14.1952 H   0  0  0  0  0  0
  1  2  2  0  0  0
  2  3  1  0  0  0
  3  4  2  0  0  0
  3  7  1  0  0  0
  4  5  1  0  0  0
  5  6  2  0  0  0
  6  1  1  0  0  0
  7  8  1  0  0  0
  8  9  1  0  0  0
  8 10  1  0  0  0
 10 11  1  0  0  0
 10 12  1  0  0  0
 12 13  1  0  0  0
 13 14  1  0  0  0
 13 21  1  0  0  0
 14 15  1  0  0  0
 15 16  2  0  0  0
 16 17  1  0  0  0
 17 18  2  0  0  0
 18 19  1  0  0  0
 19 20  2  0  0  0
 20 15  1  0  0  0
 21 22  1  0  0  0
 22 23  1  0  0  0
 22 24  1  0  0  0
 22 25  2  0  0  0
 23 26  1  0  0  0
 24 27  1  0  0  0
 27 28  2  0  0  0
 28 29  1  0  0  0
 29 30  2  0  0  0
 30 31  1  0  0  0
 31 32  2  0  0  0
 32 27  1  0  0  0
 33 26  1  0  0  0
 33 34  1  0  0  0
 34 35  1  0  0  0
 35 36  1  0  0  0
 35 40  1  0  0  0
 35 41  1  0  0  0
 36 37  1  0  0  0
 36 39  1  0  0  0
 37 33  1  0  0  0
 37 38  1  0  0  0
 40 43  1  0  0  0
 41 42  3  0  0  0
 43 44  1  0  0  0
 43 47  1  0  0  0
 44 45  2  0  0  0
 45 46  1  0  0  0
 46 40  2  0  0  0
 47 48  2  0  0  0
 48 49  1  0  0  0
 49 50  2  0  0  0
 50 44  1  0  0  0
 50 51  1  0  0  0
  9 52  1  0  0  0
  9 53  1  0  0  0
  9 54  1  0  0  0
 11 55  1  0  0  0
 21 56  1  0  0  0
 38 57  1  0  0  0
 39 58  1  0  0  0
 51 59  1  0  0  0
 51 60  1  0  0  0
M  END
>  <#Atoms_cresset>
51

>  <#RB_cresset>
18

>  <BioMolTech Lead Finder LE>
-0.172

>  <BioMolTech Lead Finder Pose rank>
0

>  <BioMolTech Lead Finder Rank score>
-13.57

>  <BioMolTech Lead Finder SDF id>
0

>  <BioMolTech Lead Finder Structure Name>
/var/folders/xd/y7jw_xv579q2qqq7kks92xd80000gn/T/LeadFinder_21448_1/Ligand_1.sdf

>  <BioMolTech Lead Finder VSscore>
-13.341

>  <BioMolTech Lead Finder dG>
-8.761

>  <BioMolTech Lead Finder version>
2001 1, 19 January 2019

>  <CHROM.0>
54.30673990,166.96005466,40.66891452

>  <CHROM.1>
66.45786554,177.26255418,-159.49333596,26.95389178,162.47415900,156.52010017
165.67822468,84.74121797,169.73168343,130.05874545,92.02284551,100.04919839
177.12883230,58.48797293,73.78995460,160.17222800,-36.59465341,176.81125441
-61.51438258,-49.91163645,-3.32984944,17.41338004,-0.14197900,-0.73507691
-1.66080164

>  <Confs_cresset>
0

>  <Favorite_cresset>
false

>  <Filename_cresset>
VTRRT-13V2.1.sdf

>  <Flexibility_cresset>
17.1

>  <LF LE>
-0.172

>  <LF Rank Score>
-13.57

>  <LF VSscore>
-13.341

>  <LF dG>
-8.761

>  <MW_cresset>
714.7

>  <Name>
Untitled

>  <Poses_cresset>
10

>  <Preferred Pose_cresset>
true

>  <Protein_cresset>
6Y2F_P

>  <RI>
-1.14932e+09

>  <Rbt.Current_Directory>
/root/miniconda3/envs/rdock/share/rxdock-2013.1.1_148c5bd1-0/data/ligands/prepped_ligands/VTRRT

>  <Rbt.Executable>
rbdock/0.1.0

>  <Rbt.Library>
librxdock.so/0.1.0

>  <Rbt.Parameter_File>
/root/miniconda3/envs/rdock/share/rxdock-2013.1.1_148c5bd1-0/data/scripts/dock.prm

>  <Rbt.Receptor>
def.prm

>  <Rof5_cresset>
3

>  <SCORE>
-27.5938

>  <SCORE.INTER>
-7.34316

>  <SCORE.INTER.CONST>
1

>  <SCORE.INTER.POLAR>
0

>  <SCORE.INTER.REPUL>
0.241422

>  <SCORE.INTER.ROT>
15

>  <SCORE.INTER.VDW>
-28.9503

>  <SCORE.INTER.norm>
-0.143983

>  <SCORE.INTRA>
-20.2515

>  <SCORE.INTRA.DIHEDRAL>
-21.3991

>  <SCORE.INTRA.DIHEDRAL.0>
43.3056

>  <SCORE.INTRA.POLAR>
-0.64921

>  <SCORE.INTRA.POLAR.0>
0

>  <SCORE.INTRA.REPUL>
-1.18384

>  <SCORE.INTRA.REPUL.0>
1.18384

>  <SCORE.INTRA.VDW>
-1.42549

>  <SCORE.INTRA.VDW.0>
-7.21879

>  <SCORE.INTRA.norm>
-0.397089

>  <SCORE.RESTR>
0.108558

>  <SCORE.RESTR.CAVITY>
0.108558

>  <SCORE.RESTR.norm>
0.00212859

>  <SCORE.SYSTEM>
-0.107623

>  <SCORE.SYSTEM.CONST>
0

>  <SCORE.SYSTEM.DIHEDRAL>
1.74987

>  <SCORE.SYSTEM.VDW>
-0.982558

>  <SCORE.SYSTEM.norm>
-0.00211025

>  <SCORE.heavy>
51

>  <SCORE.norm>
-0.541054

>  <SlogP_cresset>
4

>  <TPSA_cresset>
225.1

>  <_cresset_fieldpoints>
    -5      16.836018       5.832630      29.221167     -3.6840
    -5      12.689775      -0.157515      20.961832    -26.5835
    -5      10.603017       0.175630      26.550167     -8.1895
    -5      16.438017       3.291630      24.075167     -2.5740
    -5      10.777017       2.958630      26.544167    -13.1420
    -5      14.325016       6.363630      19.343166     -3.9175
    -5      10.138498      -1.142644      20.673992    -19.3483
    -5       8.999017       3.081630      18.875168    -11.2330
    -5      16.643017      -2.580370      18.078167    -12.9950
    -5       9.665886      -1.797647      20.491711    -20.2282
    -5       9.721017       2.679630      21.897167    -10.3470
    -5       9.495016      -3.987370      19.277166    -12.3125
    -6       9.544017       6.999630      25.870167     13.2990
    -6      11.781016       8.517631      22.930166      7.7900
    -6      14.607017       1.112630      25.440166      7.0810
    -6      15.386017       0.918630      28.446167      2.3985
    -6      18.624016       1.298630      27.807167      2.3740
    -6      20.392017       2.874630      26.722168      2.3035
    -6      17.648016       0.730630      28.195168      2.3685
    -6      14.512016       8.724630      26.097166      6.5595
    -6       8.569016      -0.973370      14.343166     10.8755
    -6       7.728017       1.126630      14.428167      9.6685
    -6       9.165016      -5.976370      22.174168      8.4205
    -6      13.686016      -5.263370      22.254168      6.1950
    -6      13.877016       8.944631      27.096167      6.4995
    -6      12.880016      -5.307370      17.193167     12.0245
    -7      15.472016       6.118630      22.868166     -3.2390
    -7      16.618017       6.190630      29.550167     -1.8400
    -7      20.678017       4.935630      25.563168     -0.9695
    -7      14.813017       8.811630      25.026167     -2.2140
    -7      10.993016       2.287630      26.765167     -3.3000
    -7      14.052017       0.966630      26.100166     -2.8945
    -7      19.113016       1.220630      27.604168     -0.9705
    -7      16.034016       2.731630      23.912167     -3.3250
    -7      10.857017       6.577630      27.959167     -2.0560
    -7       9.494017       3.463630      21.639168     -4.2685
    -7      10.789017       9.786630      25.500168     -0.9715
    -7      14.840016       6.494630      19.649166     -1.8715
    -7       8.671017       3.594630      18.487167     -2.1885
    -7       9.509016       9.096630      19.641167     -0.9730
    -7      10.391017      -1.625370      26.086166     -2.4190
    -7       4.660017      -1.773370      25.985167     -0.9695
    -7       4.569016       2.557630      27.332167     -0.9680
    -7      14.875017      -4.579370      21.768167     -1.8885
    -7      13.267016      -5.347370      16.886168     -1.9350
    -7       6.954017      -1.202370      16.804167     -1.5235
    -7      11.071016       0.523630      14.355167     -1.5285
    -7      13.461017       0.151630      20.851168     -4.5370
    -7       9.025017      -1.430370      20.607166     -4.2605
    -8      14.386017       5.687630      26.072166      5.7545
    -8      16.303017       4.649630      26.702168      7.2160
    -8      12.821016       4.074630      23.412167      5.8535
    -8      11.879017       5.300630      20.313168      7.2105
    -8      14.967016       5.182630      26.638166      5.8010
    -8      12.613016       4.247630      22.352167      5.8285
    -8      13.423017       5.009630      25.510166      5.6895
    -8      12.579017       4.458630      21.224167      5.7810
    -8       7.903017       1.063630      24.720167      7.0265
    -8      11.517016      -3.053370      22.483168      4.3445
    -8      12.238016      -3.808370      21.025167      4.6035
    -8      12.152017      -3.126370      18.429167      4.4460
    -8      10.771017      -2.113370      17.279167      4.9125

$$$$
Untitled
  RxDock  02242110103D
librxdock.so/0.1.0
 60 65  0  0  0  0  0  0  0  0999 V2000
  -54.3167   -4.7537   16.6568 C   0  0  0  0  0  0
  -53.4214   -3.7732   16.2933 C   0  0  0  0  0  0
  -52.4927   -4.0107   15.3035 C   0  0  0  0  0  0
  -52.4674   -5.2397   14.6795 C   0  0  0  0  0  0
  -53.3611   -6.2216   15.0423 C   0  0  0  0  0  0
  -54.2857   -5.9781   16.0315 C   0  0  0  0  0  0
  -51.5056   -2.9244   14.9008 C   0  0  0  0  0  0
  -50.0164   -3.3214   15.0077 C   0  0  0  0  0  0
  -49.7525   -4.4898   14.0958 N   0  3  0  0  0  0
  -49.6641   -3.6625   16.4742 C   0  0  0  0  0  0
  -48.2890   -4.0757   16.5664 O   0  0  0  0  0  0
  -50.5696   -4.7871   17.0214 C   0  0  0  0  0  0
  -50.4256   -4.9423   18.5517 C   0  0  0  0  0  0
  -49.0722   -5.6144   18.8755 C   0  0  0  0  0  0
  -48.9722   -7.0911   18.5251 C   0  0  0  0  0  0
  -47.9772   -7.8699   19.0753 C   0  0  0  0  0  0
  -47.8834   -9.2063   18.7565 C   0  0  0  0  0  0
  -48.7846   -9.7696   17.8837 C   0  0  0  0  0  0
  -49.7808   -8.9962   17.3308 C   0  0  0  0  0  0
  -49.8731   -7.6608   17.6519 C   0  0  0  0  0  0
  -50.4807   -3.6201   19.1902 N   0  0  0  0  0  0
  -51.2547   -3.5937   20.4843 P   0  0  0  0  0  0
  -51.0330   -2.2086   21.2700 O   0  0  0  0  0  0
  -50.6637   -4.6905   21.5088 O   0  0  0  0  0  0
  -52.7241   -3.8276   20.2511 O   0  0  0  0  0  0
  -49.7458   -1.5766   21.2112 C   0  0  0  0  0  0
  -51.0087   -6.0116   21.4414 C   0  0  0  0  0  0
  -52.3144   -6.4146   21.2282 C   0  0  0  0  0  0
  -52.6282   -7.7517   21.1617 C   0  0  0  0  0  0
  -51.6405   -8.6991   21.3059 C   0  0  0  0  0  0
  -50.3386   -8.3070   21.5188 C   0  0  0  0  0  0
  -50.0249   -6.9706   21.5882 C   0  0  0  0  0  0
  -49.5455   -0.9338   19.8291 C   0  0  0  0  0  0
  -48.4334   -1.5224   19.1333 O   0  0  0  0  0  0
  -47.7729   -0.5339   18.3207 C   0  0  0  0  0  0
  -48.5210    0.7969   18.5720 C   0  0  0  0  0  0
  -49.2481    0.5705   19.9038 C   0  0  0  0  0  0
  -48.3686    0.8880   20.9936 O   0  0  0  0  0  0
  -47.6529    1.9400   18.6246 O   0  0  0  0  0  0
  -46.3117   -0.5693   18.7551 C   0  0  0  0  0  0
  -47.9037   -0.9309   16.9129 C   0  0  0  0  0  0
  -48.0061   -1.2382   15.8231 N   0  0  0  0  0  0
  -45.3497   -1.0471   17.9298 N   0  0  0  0  0  0
  -44.1900   -0.9336   18.6297 C   0  0  0  0  0  0
  -44.4080   -0.4026   19.8602 C   0  0  0  0  0  0
  -45.7845   -0.1715   19.9337 C   0  0  0  0  0  0
  -45.3627   -1.5637   16.6657 N   0  0  0  0  0  0
  -44.2182   -1.9446   16.1497 C   0  0  0  0  0  0
  -42.9908   -1.8744   16.7588 N   0  0  0  0  0  0
  -42.9947   -1.3656   17.9985 C   0  0  0  0  0  0
  -41.7836   -1.2774   18.6434 N   0  0  0  0  0  0
  -48.9973   -4.3709   13.6036 H   0  0  0  0  0  0
  -49.6447   -5.2633   14.5640 H   0  0  0  0  0  0
  -50.4349   -4.6368   13.5149 H   0  0  0  0  0  0
  -47.7035   -3.5329   15.9550 H   0  0  0  0  0  0
  -50.8512   -2.9234   18.5309 H   0  0  0  0  0  0
  -48.4294    1.8617   21.2409 H   0  0  0  0  0  0
  -48.1503    2.7641   18.9165 H   0  0  0  0  0  0
  -41.0513   -1.5487   18.2371 H   0  0  0  0  0  0
  -41.7356   -0.9504   19.4596 H   0  0  0  0  0  0
  1  2  2  0  0  0
  2  3  1  0  0  0
  3  4  2  0  0  0
  3  7  1  0  0  0
  4  5  1  0  0  0
  5  6  2  0  0  0
  6  1  1  0  0  0
  7  8  1  0  0  0
  8  9  1  0  0  0
  8 10  1  0  0  0
 10 11  1  0  0  0
 10 12  1  0  0  0
 12 13  1  0  0  0
 13 14  1  0  0  0
 13 21  1  0  0  0
 14 15  1  0  0  0
 15 16  2  0  0  0
 16 17  1  0  0  0
 17 18  2  0  0  0
 18 19  1  0  0  0
 19 20  2  0  0  0
 20 15  1  0  0  0
 21 22  1  0  0  0
 22 23  1  0  0  0
 22 24  1  0  0  0
 22 25  2  0  0  0
 23 26  1  0  0  0
 24 27  1  0  0  0
 27 28  2  0  0  0
 28 29  1  0  0  0
 29 30  2  0  0  0
 30 31  1  0  0  0
 31 32  2  0  0  0
 32 27  1  0  0  0
 33 26  1  0  0  0
 33 34  1  0  0  0
 34 35  1  0  0  0
 35 36  1  0  0  0
 35 40  1  0  0  0
 35 41  1  0  0  0
 36 37  1  0  0  0
 36 39  1  0  0  0
 37 33  1  0  0  0
 37 38  1  0  0  0
 40 43  1  0  0  0
 41 42  3  0  0  0
 43 44  1  0  0  0
 43 47  1  0  0  0
 44 45  2  0  0  0
 45 46  1  0  0  0
 46 40  2  0  0  0
 47 48  2  0  0  0
 48 49  1  0  0  0
 49 50  2  0  0  0
 50 44  1  0  0  0
 50 51  1  0  0  0
  9 52  1  0  0  0
  9 53  1  0  0  0
  9 54  1  0  0  0
 11 55  1  0  0  0
 21 56  1  0  0  0
 38 57  1  0  0  0
 39 58  1  0  0  0
 51 59  1  0  0  0
 51 60  1  0  0  0
M  END
>  <#Atoms_cresset>
51

>  <#RB_cresset>
18

>  <BioMolTech Lead Finder LE>
-0.172

>  <BioMolTech Lead Finder Pose rank>
0

>  <BioMolTech Lead Finder Rank score>
-13.57

>  <BioMolTech Lead Finder SDF id>
0

>  <BioMolTech Lead Finder Structure Name>
/var/folders/xd/y7jw_xv579q2qqq7kks92xd80000gn/T/LeadFinder_21448_1/Ligand_1.sdf

>  <BioMolTech Lead Finder VSscore>
-13.341

>  <BioMolTech Lead Finder dG>
-8.761

>  <BioMolTech Lead Finder version>
2001 1, 19 January 2019

>  <CHROM.0>
-98.61093306,93.75915096,-37.43864528

>  <CHROM.1>
123.41163972,60.76332725,133.87680474,178.06574708,38.34461489,-168.57917615
-73.72470303,-71.62459383,140.47094018,-162.78136484,168.71959547,-35.57894834
-81.75969973,74.20328470,-42.83894132,-117.89562164,110.67422368,-171.97631253
-160.08084865,-49.16960649,-3.64845278,18.42419460,2.61430582,0.62031735
2.33009709

>  <Confs_cresset>
0

>  <Favorite_cresset>
false

>  <Filename_cresset>
VTRRT-13V2.1.sdf

>  <Flexibility_cresset>
17.1

>  <LF LE>
-0.172

>  <LF Rank Score>
-13.57

>  <LF VSscore>
-13.341

>  <LF dG>
-8.761

>  <MW_cresset>
714.7

>  <Name>
Untitled

>  <Poses_cresset>
10

>  <Preferred Pose_cresset>
true

>  <Protein_cresset>
6Y2F_P

>  <RI>
-1.14932e+09

>  <Rbt.Current_Directory>
/root/miniconda3/envs/rdock/share/rxdock-2013.1.1_148c5bd1-0/data/ligands/prepped_ligands/VTRRT

>  <Rbt.Executable>
rbdock/0.1.0

>  <Rbt.Library>
librxdock.so/0.1.0

>  <Rbt.Parameter_File>
/root/miniconda3/envs/rdock/share/rxdock-2013.1.1_148c5bd1-0/data/scripts/dock.prm

>  <Rbt.Receptor>
def.prm

>  <Rof5_cresset>
3

>  <SCORE>
-17.2879

>  <SCORE.INTER>
-8.5715

>  <SCORE.INTER.CONST>
1

>  <SCORE.INTER.POLAR>
-0.709318

>  <SCORE.INTER.REPUL>
0.22954

>  <SCORE.INTER.ROT>
15

>  <SCORE.INTER.VDW>
-27.7075

>  <SCORE.INTER.norm>
-0.168069

>  <SCORE.INTRA>
-13.6755

>  <SCORE.INTRA.DIHEDRAL>
-19.8933

>  <SCORE.INTRA.DIHEDRAL.0>
43.3056

>  <SCORE.INTRA.POLAR>
-0.139725

>  <SCORE.INTRA.POLAR.0>
0

>  <SCORE.INTRA.REPUL>
-1.18384

>  <SCORE.INTRA.REPUL.0>
1.18384

>  <SCORE.INTRA.VDW>
2.66537

>  <SCORE.INTRA.VDW.0>
-7.21879

>  <SCORE.INTRA.norm>
-0.268148

>  <SCORE.RESTR>
1.46208

>  <SCORE.RESTR.CAVITY>
1.46208

>  <SCORE.RESTR.norm>
0.0286683

>  <SCORE.SYSTEM>
3.49704

>  <SCORE.SYSTEM.CONST>
0

>  <SCORE.SYSTEM.DIHEDRAL>
8.00318

>  <SCORE.SYSTEM.POLAR>
-0.017989

>  <SCORE.SYSTEM.VDW>
-0.443382

>  <SCORE.SYSTEM.norm>
0.0685695

>  <SCORE.heavy>
51

>  <SCORE.norm>
-0.338978

>  <SlogP_cresset>
4

>  <TPSA_cresset>
225.1

>  <_cresset_fieldpoints>
    -5      16.836018       5.832630      29.221167     -3.6840
    -5      12.689775      -0.157515      20.961832    -26.5835
    -5      10.603017       0.175630      26.550167     -8.1895
    -5      16.438017       3.291630      24.075167     -2.5740
    -5      10.777017       2.958630      26.544167    -13.1420
    -5      14.325016       6.363630      19.343166     -3.9175
    -5      10.138498      -1.142644      20.673992    -19.3483
    -5       8.999017       3.081630      18.875168    -11.2330
    -5      16.643017      -2.580370      18.078167    -12.9950
    -5       9.665886      -1.797647      20.491711    -20.2282
    -5       9.721017       2.679630      21.897167    -10.3470
    -5       9.495016      -3.987370      19.277166    -12.3125
    -6       9.544017       6.999630      25.870167     13.2990
    -6      11.781016       8.517631      22.930166      7.7900
    -6      14.607017       1.112630      25.440166      7.0810
    -6      15.386017       0.918630      28.446167      2.3985
    -6      18.624016       1.298630      27.807167      2.3740
    -6      20.392017       2.874630      26.722168      2.3035
    -6      17.648016       0.730630      28.195168      2.3685
    -6      14.512016       8.724630      26.097166      6.5595
    -6       8.569016      -0.973370      14.343166     10.8755
    -6       7.728017       1.126630      14.428167      9.6685
    -6       9.165016      -5.976370      22.174168      8.4205
    -6      13.686016      -5.263370      22.254168      6.1950
    -6      13.877016       8.944631      27.096167      6.4995
    -6      12.880016      -5.307370      17.193167     12.0245
    -7      15.472016       6.118630      22.868166     -3.2390
    -7      16.618017       6.190630      29.550167     -1.8400
    -7      20.678017       4.935630      25.563168     -0.9695
    -7      14.813017       8.811630      25.026167     -2.2140
    -7      10.993016       2.287630      26.765167     -3.3000
    -7      14.052017       0.966630      26.100166     -2.8945
    -7      19.113016       1.220630      27.604168     -0.9705
    -7      16.034016       2.731630      23.912167     -3.3250
    -7      10.857017       6.577630      27.959167     -2.0560
    -7       9.494017       3.463630      21.639168     -4.2685
    -7      10.789017       9.786630      25.500168     -0.9715
    -7      14.840016       6.494630      19.649166     -1.8715
    -7       8.671017       3.594630      18.487167     -2.1885
    -7       9.509016       9.096630      19.641167     -0.9730
    -7      10.391017      -1.625370      26.086166     -2.4190
    -7       4.660017      -1.773370      25.985167     -0.9695
    -7       4.569016       2.557630      27.332167     -0.9680
    -7      14.875017      -4.579370      21.768167     -1.8885
    -7      13.267016      -5.347370      16.886168     -1.9350
    -7       6.954017      -1.202370      16.804167     -1.5235
    -7      11.071016       0.523630      14.355167     -1.5285
    -7      13.461017       0.151630      20.851168     -4.5370
    -7       9.025017      -1.430370      20.607166     -4.2605
    -8      14.386017       5.687630      26.072166      5.7545
    -8      16.303017       4.649630      26.702168      7.2160
    -8      12.821016       4.074630      23.412167      5.8535
    -8      11.879017       5.300630      20.313168      7.2105
    -8      14.967016       5.182630      26.638166      5.8010
    -8      12.613016       4.247630      22.352167      5.8285
    -8      13.423017       5.009630      25.510166      5.6895
    -8      12.579017       4.458630      21.224167      5.7810
    -8       7.903017       1.063630      24.720167      7.0265
    -8      11.517016      -3.053370      22.483168      4.3445
    -8      12.238016      -3.808370      21.025167      4.6035
    -8      12.152017      -3.126370      18.429167      4.4460
    -8      10.771017      -2.113370      17.279167      4.9125

$$$$
