Untitled
  xed2sdf_05210316543D
 
 92 97  0  0  1  0  0  0  0  0999 V2000
   17.3550    5.3506   26.1432 C   0  0  0  0  0  0  0  0  0  0  0  0
   16.0850    5.8816   26.1452 C   0  0  0  0  0  0  0  0  0  0  0  0
   15.0390    5.1826   26.7072 C   0  0  0  0  0  0  0  0  0  0  0  0
   15.2750    3.9456   27.2682 C   0  0  0  0  0  0  0  0  0  0  0  0
   16.5440    3.4126   27.2662 C   0  0  0  0  0  0  0  0  0  0  0  0
   17.5840    4.1156   26.7032 C   0  0  0  0  0  0  0  0  0  0  0  0
   13.6360    5.7726   26.7112 C   0  0  0  0  0  0  0  0  0  0  0  0
   13.0640    6.1096   25.3162 C   0  0  0  0  0  0  0  0  0  0  0  0
   12.2990    7.4036   25.3982 N   0  3  0  0  0  0  0  0  0  0  0  0
   12.1630    4.9546   24.8212 C   0  0  0  0  0  0  0  0  0  0  0  0
   11.1360    4.6816   25.7912 O   0  0  0  0  0  0  0  0  0  0  0  0
   12.9830    3.6696   24.5752 C   0  0  0  0  0  0  0  0  0  0  0  0
   12.5660    2.9686   23.2632 C   0  0  0  0  0  0  0  0  0  0  0  0
   13.3680    3.5646   22.0842 C   0  0  0  0  0  0  0  0  0  0  0  0
   12.5850    4.4766   21.1522 C   0  0  0  0  0  0  0  0  0  0  0  0
   12.3330    4.0916   19.8532 C   0  0  0  0  0  0  0  0  0  0  0  0
   11.6270    4.9176   19.0072 C   0  0  0  0  0  0  0  0  0  0  0  0
   11.1710    6.1346   19.4572 C   0  0  0  0  0  0  0  0  0  0  0  0
   11.4200    6.5246   20.7542 C   0  0  0  0  0  0  0  0  0  0  0  0
   12.1250    5.6966   21.5982 C   0  0  0  0  0  0  0  0  0  0  0  0
   12.8400    1.5286   23.3632 N   0  0  0  0  0  0  0  0  0  0  0  0
   11.6090    0.6806   23.5632 P   0  0  0  0  0  0  0  0  0  0  0  0
   11.4780   -0.4394   22.4172 O   0  0  0  0  0  0  0  0  0  0  0  0
   10.2800    1.5706   23.3542 O   0  0  0  0  0  0  0  0  0  0  0  0
   11.6020    0.0336   24.9232 O   0  0  0  0  0  0  0  0  0  0  0  0
   11.2890   -1.8084   22.8042 C   0  0  0  0  0  0  0  0  0  0  0  0
    9.1140    1.3066   24.0172 C   0  0  0  0  0  0  0  0  0  0  0  0
    8.5460    0.0456   24.0202 C   0  0  0  0  0  0  0  0  0  0  0  0
    7.3740   -0.1884   24.7002 C   0  0  0  0  0  0  0  0  0  0  0  0
    6.7590    0.8346   25.3852 C   0  0  0  0  0  0  0  0  0  0  0  0
    7.3170    2.0926   25.3872 C   0  0  0  0  0  0  0  0  0  0  0  0
    8.4870    2.3276   24.7052 C   0  0  0  0  0  0  0  0  0  0  0  0
   12.0730   -2.7294   21.8552 C   0  0  0  0  0  0  0  0  0  0  0  0
   12.4700   -2.0354   20.6602 O   0  0  0  0  0  0  0  0  0  0  0  0
   12.4640   -2.9344   19.5352 C   0  0  0  0  0  0  0  0  0  0  0  0
   11.9770   -4.2984   20.0792 C   0  0  0  0  0  0  0  0  0  0  0  0
   11.2580   -3.9434   21.3872 C   0  0  0  0  0  0  0  0  0  0  0  0
    9.8930   -3.5954   21.1082 O   0  0  0  0  0  0  0  0  0  0  0  0
   11.1160   -5.0024   19.1702 O   0  0  0  0  0  0  0  0  0  0  0  0
   11.5650   -2.2714   18.4972 C   0  0  0  0  0  0  0  0  0  0  0  0
   13.8380   -3.0514   19.0302 C   0  0  0  0  0  0  0  0  0  0  0  0
   14.9020   -3.1424   18.6402 N   0  0  0  0  0  0  0  0  0  0  0  0
   11.1320   -0.9984   18.6602 N   0  0  0  0  0  0  0  0  0  0  0  0
   10.3650   -0.7394   17.5682 C   0  0  0  0  0  0  0  0  0  0  0  0
   10.3110   -1.8134   16.7392 C   0  0  0  0  0  0  0  0  0  0  0  0
   11.0890   -2.8014   17.3492 C   0  0  0  0  0  0  0  0  0  0  0  0
   11.3190   -0.0554   19.6302 N   0  0  0  0  0  0  0  0  0  0  0  0
   10.7350    1.1086   19.4712 C   0  0  0  0  0  0  0  0  0  0  0  0
    9.9450    1.4816   18.4132 N   0  0  0  0  0  0  0  0  0  0  0  0
    9.7710    0.5456   17.4702 C   0  0  0  0  0  0  0  0  0  0  0  0
    8.9860    0.8806   16.3922 N   0  0  0  0  0  0  0  0  0  0  0  0
   13.8080    6.2186   24.6562 H   0  0  0  0  0  0  0  0  0  0  0  0
   11.7480    5.2386   23.9572 H   0  0  0  0  0  0  0  0  0  0  0  0
   11.5890    3.1106   23.1082 H   0  0  0  0  0  0  0  0  0  0  0  0
   12.8620   -3.0294   22.3912 H   0  0  0  0  0  0  0  0  0  0  0  0
   12.7410   -4.9304   20.2122 H   0  0  0  0  0  0  0  0  0  0  0  0
   11.2140   -4.6774   22.0652 H   0  0  0  0  0  0  0  0  0  0  0  0
   18.1100    5.8626   25.7342 H   0  0  0  0  0  0  0  0  0  0  0  0
   15.9210    6.7806   25.7372 H   0  0  0  0  0  0  0  0  0  0  0  0
   14.5210    3.4336   27.6782 H   0  0  0  0  0  0  0  0  0  0  0  0
   16.7100    2.5156   27.6752 H   0  0  0  0  0  0  0  0  0  0  0  0
   18.5070    3.7286   26.7022 H   0  0  0  0  0  0  0  0  0  0  0  0
   13.6530    6.6126   27.2532 H   0  0  0  0  0  0  0  0  0  0  0  0
   13.0390    5.0676   27.0932 H   0  0  0  0  0  0  0  0  0  0  0  0
   11.4120    7.2636   25.5412 H   0  0  0  0  0  0  0  0  0  0  0  0
   12.5980    7.9276   26.0802 H   0  0  0  0  0  0  0  0  0  0  0  0
   12.3770    7.9006   24.6422 H   0  0  0  0  0  0  0  0  0  0  0  0
   10.6160    5.5126   26.0152 H   0  0  0  0  0  0  0  0  0  0  0  0
   12.8420    3.0416   25.3402 H   0  0  0  0  0  0  0  0  0  0  0  0
   13.9470    3.9256   24.4982 H   0  0  0  0  0  0  0  0  0  0  0  0
   13.7320    2.8056   21.5432 H   0  0  0  0  0  0  0  0  0  0  0  0
   14.0760    4.1386   22.4962 H   0  0  0  0  0  0  0  0  0  0  0  0
   12.6650    3.2076   19.5232 H   0  0  0  0  0  0  0  0  0  0  0  0
   11.4460    4.6326   18.0662 H   0  0  0  0  0  0  0  0  0  0  0  0
   10.6590    6.7356   18.8442 H   0  0  0  0  0  0  0  0  0  0  0  0
   11.0890    7.4086   21.0822 H   0  0  0  0  0  0  0  0  0  0  0  0
   12.3050    5.9816   22.5392 H   0  0  0  0  0  0  0  0  0  0  0  0
   13.5290    1.3496   24.1052 H   0  0  0  0  0  0  0  0  0  0  0  0
   10.3160   -2.0354   22.7632 H   0  0  0  0  0  0  0  0  0  0  0  0
   11.6220   -1.9364   23.7382 H   0  0  0  0  0  0  0  0  0  0  0  0
    8.9910   -0.7014   23.5242 H   0  0  0  0  0  0  0  0  0  0  0  0
    6.9690   -1.1024   24.6962 H   0  0  0  0  0  0  0  0  0  0  0  0
    5.9080    0.6636   25.8822 H   0  0  0  0  0  0  0  0  0  0  0  0
    6.8710    2.8366   25.8852 H   0  0  0  0  0  0  0  0  0  0  0  0
    8.8880    3.2436   24.7072 H   0  0  0  0  0  0  0  0  0  0  0  0
    9.3060   -4.4124   21.0792 H   0  0  0  0  0  0  0  0  0  0  0  0
   11.6330   -5.3794   18.3942 H   0  0  0  0  0  0  0  0  0  0  0  0
    9.8170   -1.8834   15.8722 H   0  0  0  0  0  0  0  0  0  0  0  0
   11.2610   -3.7234   17.0032 H   0  0  0  0  0  0  0  0  0  0  0  0
   10.8800    1.7886   20.1892 H   0  0  0  0  0  0  0  0  0  0  0  0
    8.6260    1.6826   16.3462 H   0  0  0  0  0  0  0  0  0  0  0  0
    8.8420    0.2986   15.7472 H   0  0  0  0  0  0  0  0  0  0  0  0
  1  2  2  0
  2  3  1  0
  3  4  2  0
  3  7  1  0
  4  5  1  0
  5  6  2  0
  6  1  1  0
  7  8  1  0
  8  9  1  0
  8 10  1  0
 10 11  1  0
 10 12  1  0
 12 13  1  0
 13 14  1  0
 13 21  1  0
 14 15  1  0
 15 16  2  0
 16 17  1  0
 17 18  2  0
 18 19  1  0
 19 20  2  0
 20 15  1  0
 21 22  1  0
 22 23  1  0
 22 24  1  0
 22 25  2  0
 23 26  1  0
 24 27  1  0
 27 28  2  0
 28 29  1  0
 29 30  2  0
 30 31  1  0
 31 32  2  0
 32 27  1  0
 33 26  1  0
 33 34  1  0
 34 35  1  0
 35 36  1  0
 35 40  1  0
 35 41  1  0
 36 37  1  0
 36 39  1  0
 37 33  1  0
 37 38  1  0
 40 43  1  0
 41 42  3  0
 43 44  1  0
 43 47  1  0
 44 45  2  0
 45 46  1  0
 46 40  2  0
 47 48  2  0
 48 49  1  0
 49 50  2  0
 50 44  1  0
 50 51  1  0
  1 58  1  0
  2 59  1  0
  4 60  1  0
  5 61  1  0
  6 62  1  0
  7 63  1  0
  7 64  1  0
  8 52  1  0
  9 65  1  0
  9 66  1  0
  9 67  1  0
 10 53  1  0
 11 68  1  0
 12 69  1  0
 12 70  1  0
 13 54  1  0
 14 71  1  0
 14 72  1  0
 16 73  1  0
 17 74  1  0
 18 75  1  0
 19 76  1  0
 20 77  1  0
 21 78  1  0
 26 79  1  0
 26 80  1  0
 28 81  1  0
 29 82  1  0
 30 83  1  0
 31 84  1  0
 32 85  1  0
 33 55  1  0
 36 56  1  0
 37 57  1  0
 38 86  1  0
 39 87  1  0
 45 88  1  0
 46 89  1  0
 48 90  1  0
 51 91  1  0
 51 92  1  0
M  CHG  1   9   1
M  END
>  <BioMolTech Lead Finder dG>
-8.761

>  <BioMolTech Lead Finder VSscore>
-13.341

>  <BioMolTech Lead Finder Rank score>
-13.57

>  <BioMolTech Lead Finder LE>
-0.172

>  <BioMolTech Lead Finder Structure Name>
/var/folders/xd/y7jw_xv579q2qqq7kks92xd80000gn/T/LeadFinder_21448_1/Ligand_1.sdf

>  <BioMolTech Lead Finder SDF id>
0

>  <BioMolTech Lead Finder Pose rank>
0

>  <BioMolTech Lead Finder version>
2001 1, 19 January 2019

>  <LF dG>
-8.761

>  <LF VSscore>
-13.341

>  <LF Rank Score>
-13.57

>  <LF LE>
-0.172

>  <Preferred Pose_cresset>
true

>  <Favorite_cresset>
false

>  <Protein_cresset>
6Y2F_P

>  <MW_cresset>
714.7

>  <#Atoms_cresset>
51

>  <SlogP_cresset>
4

>  <TPSA_cresset>
225.1

>  <Flexibility_cresset>
17.1

>  <#RB_cresset>
18

>  <Rof5_cresset>
3

>  <Filename_cresset>
VTRRT-13V2.1.sdf

>  <Confs_cresset>
0

>  <Poses_cresset>
10

>  <_cresset_fieldpoints>
    -5      16.836018       5.832630      29.221167     -3.6840
    -5      12.689775      -0.157515      20.961832    -26.5835
    -5      10.603017       0.175630      26.550167     -8.1895
    -5      16.438017       3.291630      24.075167     -2.5740
    -5      10.777017       2.958630      26.544167    -13.1420
    -5      14.325016       6.363630      19.343166     -3.9175
    -5      10.138498      -1.142644      20.673992    -19.3483
    -5       8.999017       3.081630      18.875168    -11.2330
    -5      16.643017      -2.580370      18.078167    -12.9950
    -5       9.665886      -1.797647      20.491711    -20.2282
    -5       9.721017       2.679630      21.897167    -10.3470
    -5       9.495016      -3.987370      19.277166    -12.3125
    -6       9.544017       6.999630      25.870167     13.2990
    -6      11.781016       8.517631      22.930166      7.7900
    -6      14.607017       1.112630      25.440166      7.0810
    -6      15.386017       0.918630      28.446167      2.3985
    -6      18.624016       1.298630      27.807167      2.3740
    -6      20.392017       2.874630      26.722168      2.3035
    -6      17.648016       0.730630      28.195168      2.3685
    -6      14.512016       8.724630      26.097166      6.5595
    -6       8.569016      -0.973370      14.343166     10.8755
    -6       7.728017       1.126630      14.428167      9.6685
    -6       9.165016      -5.976370      22.174168      8.4205
    -6      13.686016      -5.263370      22.254168      6.1950
    -6      13.877016       8.944631      27.096167      6.4995
    -6      12.880016      -5.307370      17.193167     12.0245
    -7      15.472016       6.118630      22.868166     -3.2390
    -7      16.618017       6.190630      29.550167     -1.8400
    -7      20.678017       4.935630      25.563168     -0.9695
    -7      14.813017       8.811630      25.026167     -2.2140
    -7      10.993016       2.287630      26.765167     -3.3000
    -7      14.052017       0.966630      26.100166     -2.8945
    -7      19.113016       1.220630      27.604168     -0.9705
    -7      16.034016       2.731630      23.912167     -3.3250
    -7      10.857017       6.577630      27.959167     -2.0560
    -7       9.494017       3.463630      21.639168     -4.2685
    -7      10.789017       9.786630      25.500168     -0.9715
    -7      14.840016       6.494630      19.649166     -1.8715
    -7       8.671017       3.594630      18.487167     -2.1885
    -7       9.509016       9.096630      19.641167     -0.9730
    -7      10.391017      -1.625370      26.086166     -2.4190
    -7       4.660017      -1.773370      25.985167     -0.9695
    -7       4.569016       2.557630      27.332167     -0.9680
    -7      14.875017      -4.579370      21.768167     -1.8885
    -7      13.267016      -5.347370      16.886168     -1.9350
    -7       6.954017      -1.202370      16.804167     -1.5235
    -7      11.071016       0.523630      14.355167     -1.5285
    -7      13.461017       0.151630      20.851168     -4.5370
    -7       9.025017      -1.430370      20.607166     -4.2605
    -8      14.386017       5.687630      26.072166      5.7545
    -8      16.303017       4.649630      26.702168      7.2160
    -8      12.821016       4.074630      23.412167      5.8535
    -8      11.879017       5.300630      20.313168      7.2105
    -8      14.967016       5.182630      26.638166      5.8010
    -8      12.613016       4.247630      22.352167      5.8285
    -8      13.423017       5.009630      25.510166      5.6895
    -8      12.579017       4.458630      21.224167      5.7810
    -8       7.903017       1.063630      24.720167      7.0265
    -8      11.517016      -3.053370      22.483168      4.3445
    -8      12.238016      -3.808370      21.025167      4.6035
    -8      12.152017      -3.126370      18.429167      4.4460
    -8      10.771017      -2.113370      17.279167      4.9125

$$$$
