MODEL 1
REMARK VINA RESULT:      -7.6      0.000      0.000
REMARK  16 active torsions:
REMARK  status: ('A' for Active; 'I' for Inactive)
REMARK    1  A    between atoms: N_3  and  C_13 
REMARK    2  A    between atoms: C_6  and  C_37 
REMARK    3  A    between atoms: C_13  and  C_14 
REMARK    4  A    between atoms: C_13  and  C_17 
REMARK       I    between atoms: C_14  and  N_15 
REMARK    5  A    between atoms: N_15  and  C_16 
REMARK    6  A    between atoms: C_16  and  C_27 
REMARK    7  A    between atoms: C_16  and  C_28 
REMARK    8  A    between atoms: C_25  and  C_27 
REMARK    9  A    between atoms: C_28  and  C_29 
REMARK   10  A    between atoms: C_29  and  C_30 
REMARK   11  A    between atoms: C_29  and  O_36 
REMARK   12  A    between atoms: C_30  and  N_31 
REMARK   13  A    between atoms: C_30  and  C_37 
REMARK       I    between atoms: N_31  and  C_32 
REMARK   14  A    between atoms: C_32  and  C_33 
REMARK   15  A    between atoms: C_33  and  O_34 
REMARK   16  A    between atoms: O_34  and  C_35 
ROOT
HETATM    1  C   UNK     0     -45.023  -1.140  16.670  0.00  0.00     0.126 C 
HETATM    2  C   UNK     0     -47.447  -0.493  16.712  0.00  0.00     0.130 C 
HETATM    3  N   UNK     0     -47.791  -1.955  16.870  0.00  0.00    -0.320 N 
HETATM    4  C   UNK     0     -46.801  -2.927  16.920  0.00  0.00     0.319 C 
HETATM    5  N   UNK     0     -45.500  -2.528  16.826  0.00  0.00    -0.343 N 
HETATM    6  O   UNK     0     -47.062  -4.111  17.043  0.00  0.00    -0.247 OA
HETATM    7  C   UNK     0     -46.035  -0.124  17.213  0.00  0.00     0.040 C 
HETATM    8  H   UNK     0     -44.849  -3.311  16.877  0.00  0.00     0.164 HD
ENDROOT
BRANCH   3   9
HETATM    9  C   UNK     0     -49.231  -2.379  16.967  0.00  0.00     0.184 C 
BRANCH   9  10
HETATM   10  C   UNK     0     -49.403  -3.323  18.188  0.00  0.00     0.241 C 
HETATM   11  N   UNK     0     -49.705  -4.608  17.824  0.00  0.00    -0.354 N 
HETATM   12  H   UNK     0     -49.769  -4.739  16.815  0.00  0.00     0.162 HD
HETATM   13  O   UNK     0     -49.276  -2.918  19.345  0.00  0.00    -0.271 OA
BRANCH  11  14
HETATM   14  C   UNK     0     -49.922  -5.725  18.771  0.00  0.00     0.091 C 
BRANCH  14  15
HETATM   15  C   UNK     0     -51.430  -6.042  18.905  0.00  0.00     0.063 C 
BRANCH  15  16
HETATM   16  C   UNK     0     -51.906  -6.650  20.194  0.00  0.00    -0.056 A 
HETATM   17  C   UNK     0     -51.493  -7.958  20.565  0.00  0.00     0.007 A 
HETATM   18  C   UNK     0     -51.935  -8.540  21.775  0.00  0.00     0.001 A 
HETATM   19  C   UNK     0     -52.797  -7.815  22.631  0.00  0.00     0.000 A 
HETATM   20  C   UNK     0     -53.212  -6.512  22.269  0.00  0.00     0.001 A 
HETATM   21  C   UNK     0     -52.768  -5.933  21.056  0.00  0.00     0.007 A 
ENDBRANCH  15  16
ENDBRANCH  14  15
BRANCH  14  22
HETATM   22  C   UNK     0     -49.248  -7.024  18.278  0.00  0.00     0.059 C 
BRANCH  22  23
HETATM   23  C   UNK     0     -47.848  -7.404  18.794  0.00  0.00     0.143 C 
BRANCH  23  24
HETATM   24  C   UNK     0     -47.780  -8.263  20.082  0.00  0.00     0.117 C 
BRANCH  24  25
HETATM   25  N   UNK     0     -46.896  -9.423  19.820  0.00  0.00    -0.352 N 
HETATM   26  C   UNK     0     -47.348 -10.698  19.598  0.00  0.00     0.242 C 
HETATM   27  O   UNK     0     -48.536 -11.037  19.583  0.00  0.00    -0.271 OA
HETATM   28  H   UNK     0     -45.880  -9.334  19.789  0.00  0.00     0.163 HD
BRANCH  26  29
HETATM   29  C   UNK     0     -46.235 -11.741  19.374  0.00  0.00     0.278 C 
BRANCH  29  30
HETATM   30  O   UNK     0     -45.253 -11.711  20.427  0.00  0.00    -0.341 OA
BRANCH  30  31
HETATM   31  C   UNK     0     -43.951 -12.044  20.005  0.00  0.00     0.081 A 
HETATM   32  C   UNK     0     -43.160 -11.145  19.207  0.00  0.00    -0.028 A 
HETATM   33  C   UNK     0     -41.853 -11.538  18.814  0.00  0.00     0.009 A 
HETATM   34  C   UNK     0     -43.669  -9.792  18.770  0.00  0.00     0.051 C 
HETATM   35  C   UNK     0     -41.326 -12.790  19.197  0.00  0.00     0.001 A 
HETATM   36  C   UNK     0     -42.092 -13.676  19.981  0.00  0.00     0.009 A 
HETATM   37  C   UNK     0     -43.399 -13.318  20.391  0.00  0.00    -0.028 A 
HETATM   38  C   UNK     0     -44.181 -14.278  21.221  0.00  0.00     0.051 C 
ENDBRANCH  30  31
ENDBRANCH  29  30
ENDBRANCH  26  29
ENDBRANCH  24  25
BRANCH  24  39
HETATM   39  C   UNK     0     -47.190  -7.439  21.265  0.00  0.00     0.066 C 
BRANCH  39  40
HETATM   40  C   UNK     0     -48.222  -6.881  22.225  0.00  0.00    -0.056 A 
HETATM   41  C   UNK     0     -48.789  -5.605  21.990  0.00  0.00     0.007 A 
HETATM   42  C   UNK     0     -49.751  -5.061  22.876  0.00  0.00     0.001 A 
HETATM   43  C   UNK     0     -50.158  -5.791  24.009  0.00  0.00     0.000 A 
HETATM   44  C   UNK     0     -49.601  -7.065  24.253  0.00  0.00     0.001 A 
HETATM   45  C   UNK     0     -48.640  -7.608  23.369  0.00  0.00     0.007 A 
ENDBRANCH  39  40
ENDBRANCH  24  39
ENDBRANCH  23  24
BRANCH  23  46
HETATM   46  O   UNK     0     -47.249  -8.152  17.763  0.00  0.00    -0.393 OA
HETATM   47  H   UNK     0     -47.044  -8.999  18.143  0.00  0.00     0.210 HD
ENDBRANCH  23  46
ENDBRANCH  22  23
ENDBRANCH  14  22
ENDBRANCH  11  14
ENDBRANCH   9  10
BRANCH   9  48
HETATM   48  C   UNK     0     -49.745  -3.035  15.626  0.00  0.00     0.010 C 
HETATM   49  C   UNK     0     -51.272  -2.942  15.442  0.00  0.00     0.012 C 
HETATM   50  C   UNK     0     -49.064  -2.385  14.399  0.00  0.00     0.012 C 
ENDBRANCH   9  48
ENDBRANCH   3   9
TORSDOF 16
ENDMDL
MODEL 2
REMARK VINA RESULT:      -7.5      2.609      6.162
REMARK  16 active torsions:
REMARK  status: ('A' for Active; 'I' for Inactive)
REMARK    1  A    between atoms: N_3  and  C_13 
REMARK    2  A    between atoms: C_6  and  C_37 
REMARK    3  A    between atoms: C_13  and  C_14 
REMARK    4  A    between atoms: C_13  and  C_17 
REMARK       I    between atoms: C_14  and  N_15 
REMARK    5  A    between atoms: N_15  and  C_16 
REMARK    6  A    between atoms: C_16  and  C_27 
REMARK    7  A    between atoms: C_16  and  C_28 
REMARK    8  A    between atoms: C_25  and  C_27 
REMARK    9  A    between atoms: C_28  and  C_29 
REMARK   10  A    between atoms: C_29  and  C_30 
REMARK   11  A    between atoms: C_29  and  O_36 
REMARK   12  A    between atoms: C_30  and  N_31 
REMARK   13  A    between atoms: C_30  and  C_37 
REMARK       I    between atoms: N_31  and  C_32 
REMARK   14  A    between atoms: C_32  and  C_33 
REMARK   15  A    between atoms: C_33  and  O_34 
REMARK   16  A    between atoms: O_34  and  C_35 
ROOT
HETATM    1  C   UNK     0     -51.004  -6.892  24.714  0.00  0.00     0.126 C 
HETATM    2  C   UNK     0     -50.284  -6.035  22.468  0.00  0.00     0.130 C 
HETATM    3  N   UNK     0     -51.687  -6.284  21.970  0.00  0.00    -0.320 N 
HETATM    4  C   UNK     0     -52.667  -6.805  22.804  0.00  0.00     0.319 C 
HETATM    5  N   UNK     0     -52.331  -7.084  24.096  0.00  0.00    -0.343 N 
HETATM    6  O   UNK     0     -53.803  -7.015  22.416  0.00  0.00    -0.247 OA
HETATM    7  C   UNK     0     -50.191  -5.811  23.992  0.00  0.00     0.040 C 
HETATM    8  H   UNK     0     -53.116  -7.458  24.629  0.00  0.00     0.164 HD
ENDROOT
BRANCH   3   9
HETATM    9  C   UNK     0     -52.040  -5.973  20.541  0.00  0.00     0.184 C 
BRANCH   9  10
HETATM   10  C   UNK     0     -51.153  -6.831  19.597  0.00  0.00     0.241 C 
HETATM   11  N   UNK     0     -50.145  -6.108  19.018  0.00  0.00    -0.354 N 
HETATM   12  H   UNK     0     -50.139  -5.127  19.295  0.00  0.00     0.162 HD
HETATM   13  O   UNK     0     -51.370  -8.030  19.416  0.00  0.00    -0.271 OA
BRANCH  11  14
HETATM   14  C   UNK     0     -49.145  -6.659  18.077  0.00  0.00     0.091 C 
BRANCH  14  15
HETATM   15  C   UNK     0     -48.743  -5.602  17.023  0.00  0.00     0.063 C 
BRANCH  15  16
HETATM   16  C   UNK     0     -49.824  -4.718  16.469  0.00  0.00    -0.056 A 
HETATM   17  C   UNK     0     -50.906  -5.282  15.739  0.00  0.00     0.007 A 
HETATM   18  C   UNK     0     -51.929  -4.461  15.213  0.00  0.00     0.001 A 
HETATM   19  C   UNK     0     -51.881  -3.062  15.413  0.00  0.00     0.000 A 
HETATM   20  C   UNK     0     -50.808  -2.492  16.139  0.00  0.00     0.001 A 
HETATM   21  C   UNK     0     -49.785  -3.318  16.664  0.00  0.00     0.007 A 
ENDBRANCH  15  16
ENDBRANCH  14  15
BRANCH  14  22
HETATM   22  C   UNK     0     -47.844  -7.060  18.806  0.00  0.00     0.059 C 
BRANCH  22  23
HETATM   23  C   UNK     0     -47.615  -8.527  19.216  0.00  0.00     0.143 C 
BRANCH  23  24
HETATM   24  C   UNK     0     -47.242  -8.796  20.696  0.00  0.00     0.117 C 
BRANCH  24  25
HETATM   25  N   UNK     0     -47.451 -10.236  20.973  0.00  0.00    -0.352 N 
HETATM   26  C   UNK     0     -48.577 -10.749  21.564  0.00  0.00     0.242 C 
HETATM   27  O   UNK     0     -49.550 -10.083  21.932  0.00  0.00    -0.271 OA
HETATM   28  H   UNK     0     -46.754 -10.941  20.733  0.00  0.00     0.163 HD
BRANCH  26  29
HETATM   29  C   UNK     0     -48.551 -12.276  21.771  0.00  0.00     0.278 C 
BRANCH  29  30
HETATM   30  O   UNK     0     -47.208 -12.776  21.910  0.00  0.00    -0.341 OA
BRANCH  30  31
HETATM   31  C   UNK     0     -46.990 -14.015  21.277  0.00  0.00     0.081 A 
HETATM   32  C   UNK     0     -46.488 -14.100  19.931  0.00  0.00    -0.028 A 
HETATM   33  C   UNK     0     -46.287 -15.380  19.348  0.00  0.00     0.009 A 
HETATM   34  C   UNK     0     -46.164 -12.874  19.110  0.00  0.00     0.051 C 
HETATM   35  C   UNK     0     -46.570 -16.558  20.070  0.00  0.00     0.001 A 
HETATM   36  C   UNK     0     -47.059 -16.485  21.390  0.00  0.00     0.009 A 
HETATM   37  C   UNK     0     -47.272 -15.227  22.004  0.00  0.00    -0.028 A 
HETATM   38  C   UNK     0     -47.787 -15.186  23.402  0.00  0.00     0.051 C 
ENDBRANCH  30  31
ENDBRANCH  29  30
ENDBRANCH  26  29
ENDBRANCH  24  25
BRANCH  24  39
HETATM   39  C   UNK     0     -45.748  -8.445  20.961  0.00  0.00     0.066 C 
BRANCH  39  40
HETATM   40  C   UNK     0     -44.751  -9.327  20.235  0.00  0.00    -0.056 A 
HETATM   41  C   UNK     0     -44.594  -9.210  18.833  0.00  0.00     0.007 A 
HETATM   42  C   UNK     0     -43.673 -10.027  18.132  0.00  0.00     0.001 A 
HETATM   43  C   UNK     0     -42.897 -10.972  18.830  0.00  0.00     0.000 A 
HETATM   44  C   UNK     0     -43.045 -11.098  20.229  0.00  0.00     0.001 A 
HETATM   45  C   UNK     0     -43.964 -10.282  20.928  0.00  0.00     0.007 A 
ENDBRANCH  39  40
ENDBRANCH  24  39
ENDBRANCH  23  24
BRANCH  23  46
HETATM   46  O   UNK     0     -48.831  -9.190  18.966  0.00  0.00    -0.393 OA
HETATM   47  H   UNK     0     -49.038  -9.662  19.765  0.00  0.00     0.210 HD
ENDBRANCH  23  46
ENDBRANCH  22  23
ENDBRANCH  14  22
ENDBRANCH  11  14
ENDBRANCH   9  10
BRANCH   9  48
HETATM   48  C   UNK     0     -51.928  -4.429  20.228  0.00  0.00     0.010 C 
HETATM   49  C   UNK     0     -52.658  -4.009  18.938  0.00  0.00     0.012 C 
HETATM   50  C   UNK     0     -52.483  -3.588  21.401  0.00  0.00     0.012 C 
ENDBRANCH   9  48
ENDBRANCH   3   9
TORSDOF 16
ENDMDL
MODEL 3
REMARK VINA RESULT:      -7.4      5.532      9.882
REMARK  16 active torsions:
REMARK  status: ('A' for Active; 'I' for Inactive)
REMARK    1  A    between atoms: N_3  and  C_13 
REMARK    2  A    between atoms: C_6  and  C_37 
REMARK    3  A    between atoms: C_13  and  C_14 
REMARK    4  A    between atoms: C_13  and  C_17 
REMARK       I    between atoms: C_14  and  N_15 
REMARK    5  A    between atoms: N_15  and  C_16 
REMARK    6  A    between atoms: C_16  and  C_27 
REMARK    7  A    between atoms: C_16  and  C_28 
REMARK    8  A    between atoms: C_25  and  C_27 
REMARK    9  A    between atoms: C_28  and  C_29 
REMARK   10  A    between atoms: C_29  and  C_30 
REMARK   11  A    between atoms: C_29  and  O_36 
REMARK   12  A    between atoms: C_30  and  N_31 
REMARK   13  A    between atoms: C_30  and  C_37 
REMARK       I    between atoms: N_31  and  C_32 
REMARK   14  A    between atoms: C_32  and  C_33 
REMARK   15  A    between atoms: C_33  and  O_34 
REMARK   16  A    between atoms: O_34  and  C_35 
ROOT
HETATM    1  C   UNK     0     -39.731 -12.505  19.891  0.00  0.00     0.126 C 
HETATM    2  C   UNK     0     -42.221 -12.593  20.189  0.00  0.00     0.130 C 
HETATM    3  N   UNK     0     -42.173 -11.161  20.665  0.00  0.00    -0.320 N 
HETATM    4  C   UNK     0     -40.972 -10.468  20.742  0.00  0.00     0.319 C 
HETATM    5  N   UNK     0     -39.830 -11.114  20.373  0.00  0.00    -0.343 N 
HETATM    6  O   UNK     0     -40.916  -9.313  21.128  0.00  0.00    -0.247 OA
HETATM    7  C   UNK     0     -41.047 -12.988  19.269  0.00  0.00     0.040 C 
HETATM    8  H   UNK     0     -39.003 -10.522  20.461  0.00  0.00     0.164 HD
ENDROOT
BRANCH   3   9
HETATM    9  C   UNK     0     -43.442 -10.464  21.072  0.00  0.00     0.184 C 
BRANCH   9  10
HETATM   10  C   UNK     0     -44.494 -11.525  21.496  0.00  0.00     0.241 C 
HETATM   11  N   UNK     0     -45.111 -12.115  20.425  0.00  0.00    -0.354 N 
HETATM   12  H   UNK     0     -44.783 -11.764  19.525  0.00  0.00     0.162 HD
HETATM   13  O   UNK     0     -44.720 -11.778  22.680  0.00  0.00    -0.271 OA
BRANCH  11  14
HETATM   14  C   UNK     0     -46.152 -13.162  20.522  0.00  0.00     0.091 C 
BRANCH  14  15
HETATM   15  C   UNK     0     -47.426 -12.739  19.754  0.00  0.00     0.063 C 
BRANCH  15  16
HETATM   16  C   UNK     0     -48.123 -11.481  20.190  0.00  0.00    -0.056 A 
HETATM   17  C   UNK     0     -48.533 -11.321  21.542  0.00  0.00     0.007 A 
HETATM   18  C   UNK     0     -49.189 -10.142  21.964  0.00  0.00     0.001 A 
HETATM   19  C   UNK     0     -49.441  -9.106  21.035  0.00  0.00     0.000 A 
HETATM   20  C   UNK     0     -49.035  -9.257  19.687  0.00  0.00     0.001 A 
HETATM   21  C   UNK     0     -48.379 -10.440  19.269  0.00  0.00     0.007 A 
ENDBRANCH  15  16
ENDBRANCH  14  15
BRANCH  14  22
HETATM   22  C   UNK     0     -45.683 -14.488  19.885  0.00  0.00     0.059 C 
BRANCH  22  23
HETATM   23  C   UNK     0     -45.852 -15.810  20.655  0.00  0.00     0.143 C 
BRANCH  23  24
HETATM   24  C   UNK     0     -46.879 -16.827  20.093  0.00  0.00     0.117 C 
BRANCH  24  25
HETATM   25  N   UNK     0     -46.152 -18.066  19.727  0.00  0.00    -0.352 N 
HETATM   26  C   UNK     0     -46.500 -18.880  18.680  0.00  0.00     0.242 C 
HETATM   27  O   UNK     0     -47.449 -18.683  17.915  0.00  0.00    -0.271 OA
HETATM   28  H   UNK     0     -45.335 -18.388  20.246  0.00  0.00     0.163 HD
BRANCH  26  29
HETATM   29  C   UNK     0     -45.606 -20.125  18.515  0.00  0.00     0.278 C 
BRANCH  29  30
HETATM   30  O   UNK     0     -44.676 -19.977  17.427  0.00  0.00    -0.341 OA
BRANCH  30  31
HETATM   31  C   UNK     0     -44.977 -20.772  16.304  0.00  0.00     0.081 A 
HETATM   32  C   UNK     0     -44.695 -22.182  16.277  0.00  0.00    -0.028 A 
HETATM   33  C   UNK     0     -45.024 -22.931  15.115  0.00  0.00     0.009 A 
HETATM   34  C   UNK     0     -44.059 -22.902  17.443  0.00  0.00     0.051 C 
HETATM   35  C   UNK     0     -45.622 -22.311  13.999  0.00  0.00     0.001 A 
HETATM   36  C   UNK     0     -45.906 -20.930  14.017  0.00  0.00     0.009 A 
HETATM   37  C   UNK     0     -45.591 -20.152  15.157  0.00  0.00    -0.028 A 
HETATM   38  C   UNK     0     -45.906 -18.695  15.144  0.00  0.00     0.051 C 
ENDBRANCH  30  31
ENDBRANCH  29  30
ENDBRANCH  26  29
ENDBRANCH  24  25
BRANCH  24  39
HETATM   39  C   UNK     0     -47.955 -17.174  21.164  0.00  0.00     0.066 C 
BRANCH  39  40
HETATM   40  C   UNK     0     -47.405 -17.440  22.552  0.00  0.00    -0.056 A 
HETATM   41  C   UNK     0     -47.515 -16.448  23.556  0.00  0.00     0.007 A 
HETATM   42  C   UNK     0     -47.004 -16.672  24.859  0.00  0.00     0.001 A 
HETATM   43  C   UNK     0     -46.378 -17.894  25.170  0.00  0.00     0.000 A 
HETATM   44  C   UNK     0     -46.265 -18.891  24.177  0.00  0.00     0.001 A 
HETATM   45  C   UNK     0     -46.774 -18.667  22.876  0.00  0.00     0.007 A 
ENDBRANCH  39  40
ENDBRANCH  24  39
ENDBRANCH  23  24
BRANCH  23  46
HETATM   46  O   UNK     0     -44.591 -16.435  20.628  0.00  0.00    -0.393 OA
HETATM   47  H   UNK     0     -44.047 -15.896  20.065  0.00  0.00     0.210 HD
ENDBRANCH  23  46
ENDBRANCH  22  23
ENDBRANCH  14  22
ENDBRANCH  11  14
ENDBRANCH   9  10
BRANCH   9  48
HETATM   48  C   UNK     0     -43.981  -9.507  19.936  0.00  0.00     0.010 C 
HETATM   49  C   UNK     0     -44.246 -10.229  18.601  0.00  0.00     0.012 C 
HETATM   50  C   UNK     0     -45.285  -8.805  20.381  0.00  0.00     0.012 C 
ENDBRANCH   9  48
ENDBRANCH   3   9
TORSDOF 16
ENDMDL
MODEL 4
REMARK VINA RESULT:      -7.4      2.097      3.498
REMARK  16 active torsions:
REMARK  status: ('A' for Active; 'I' for Inactive)
REMARK    1  A    between atoms: N_3  and  C_13 
REMARK    2  A    between atoms: C_6  and  C_37 
REMARK    3  A    between atoms: C_13  and  C_14 
REMARK    4  A    between atoms: C_13  and  C_17 
REMARK       I    between atoms: C_14  and  N_15 
REMARK    5  A    between atoms: N_15  and  C_16 
REMARK    6  A    between atoms: C_16  and  C_27 
REMARK    7  A    between atoms: C_16  and  C_28 
REMARK    8  A    between atoms: C_25  and  C_27 
REMARK    9  A    between atoms: C_28  and  C_29 
REMARK   10  A    between atoms: C_29  and  C_30 
REMARK   11  A    between atoms: C_29  and  O_36 
REMARK   12  A    between atoms: C_30  and  N_31 
REMARK   13  A    between atoms: C_30  and  C_37 
REMARK       I    between atoms: N_31  and  C_32 
REMARK   14  A    between atoms: C_32  and  C_33 
REMARK   15  A    between atoms: C_33  and  O_34 
REMARK   16  A    between atoms: O_34  and  C_35 
ROOT
HETATM    1  C   UNK     0     -46.265  -0.815  16.385  0.00  0.00     0.126 C 
HETATM    2  C   UNK     0     -47.242  -3.123  16.516  0.00  0.00     0.130 C 
HETATM    3  N   UNK     0     -48.599  -2.492  16.712  0.00  0.00    -0.320 N 
HETATM    4  C   UNK     0     -48.756  -1.113  16.742  0.00  0.00     0.319 C 
HETATM    5  N   UNK     0     -47.647  -0.335  16.585  0.00  0.00    -0.343 N 
HETATM    6  O   UNK     0     -49.844  -0.588  16.903  0.00  0.00    -0.247 OA
HETATM    7  C   UNK     0     -46.233  -2.221  15.775  0.00  0.00     0.040 C 
HETATM    8  H   UNK     0     -47.864   0.661  16.617  0.00  0.00     0.164 HD
ENDROOT
BRANCH   3   9
HETATM    9  C   UNK     0     -49.812  -3.365  16.888  0.00  0.00     0.184 C 
BRANCH   9  10
HETATM   10  C   UNK     0     -50.023  -3.648  18.400  0.00  0.00     0.241 C 
HETATM   11  N   UNK     0     -51.314  -3.993  18.699  0.00  0.00    -0.354 N 
HETATM   12  H   UNK     0     -51.928  -4.006  17.885  0.00  0.00     0.162 HD
HETATM   13  O   UNK     0     -49.100  -3.560  19.212  0.00  0.00    -0.271 OA
BRANCH  11  14
HETATM   14  C   UNK     0     -51.808  -4.320  20.055  0.00  0.00     0.091 C 
BRANCH  14  15
HETATM   15  C   UNK     0     -53.174  -3.644  20.317  0.00  0.00     0.063 C 
BRANCH  15  16
HETATM   16  C   UNK     0     -53.531  -3.312  21.738  0.00  0.00    -0.056 A 
HETATM   17  C   UNK     0     -52.544  -2.800  22.624  0.00  0.00     0.007 A 
HETATM   18  C   UNK     0     -52.868  -2.484  23.963  0.00  0.00     0.001 A 
HETATM   19  C   UNK     0     -54.188  -2.675  24.431  0.00  0.00     0.000 A 
HETATM   20  C   UNK     0     -55.177  -3.183  23.556  0.00  0.00     0.001 A 
HETATM   21  C   UNK     0     -54.849  -3.499  22.216  0.00  0.00     0.007 A 
ENDBRANCH  15  16
ENDBRANCH  14  15
BRANCH  14  22
HETATM   22  C   UNK     0     -52.037  -5.838  20.223  0.00  0.00     0.059 C 
BRANCH  22  23
HETATM   23  C   UNK     0     -50.970  -6.701  20.922  0.00  0.00     0.143 C 
BRANCH  23  24
HETATM   24  C   UNK     0     -51.167  -8.238  20.877  0.00  0.00     0.117 C 
BRANCH  24  25
HETATM   25  N   UNK     0     -49.836  -8.879  20.992  0.00  0.00    -0.352 N 
HETATM   26  C   UNK     0     -49.101  -9.319  19.921  0.00  0.00     0.242 C 
HETATM   27  O   UNK     0     -49.449  -9.232  18.739  0.00  0.00    -0.271 OA
HETATM   28  H   UNK     0     -49.383  -9.031  21.893  0.00  0.00     0.163 HD
BRANCH  26  29
HETATM   29  C   UNK     0     -47.757  -9.976  20.295  0.00  0.00     0.278 C 
BRANCH  29  30
HETATM   30  O   UNK     0     -47.182 -10.689  19.185  0.00  0.00    -0.341 OA
BRANCH  30  31
HETATM   31  C   UNK     0     -45.804 -10.945  19.322  0.00  0.00     0.081 A 
HETATM   32  C   UNK     0     -45.311 -12.230  19.742  0.00  0.00    -0.028 A 
HETATM   33  C   UNK     0     -43.909 -12.428  19.860  0.00  0.00     0.009 A 
HETATM   34  C   UNK     0     -46.232 -13.383  20.064  0.00  0.00     0.051 C 
HETATM   35  C   UNK     0     -43.003 -11.386  19.569  0.00  0.00     0.001 A 
HETATM   36  C   UNK     0     -43.476 -10.125  19.154  0.00  0.00     0.009 A 
HETATM   37  C   UNK     0     -44.867  -9.892  19.026  0.00  0.00    -0.028 A 
HETATM   38  C   UNK     0     -45.333  -8.547  18.582  0.00  0.00     0.051 C 
ENDBRANCH  30  31
ENDBRANCH  29  30
ENDBRANCH  26  29
ENDBRANCH  24  25
BRANCH  24  39
HETATM   39  C   UNK     0     -52.058  -8.715  22.063  0.00  0.00     0.066 C 
BRANCH  39  40
HETATM   40  C   UNK     0     -52.157  -7.734  23.215  0.00  0.00    -0.056 A 
HETATM   41  C   UNK     0     -53.397  -7.116  23.511  0.00  0.00     0.007 A 
HETATM   42  C   UNK     0     -53.513  -6.192  24.579  0.00  0.00     0.001 A 
HETATM   43  C   UNK     0     -52.388  -5.879  25.365  0.00  0.00     0.000 A 
HETATM   44  C   UNK     0     -51.147  -6.489  25.080  0.00  0.00     0.001 A 
HETATM   45  C   UNK     0     -51.031  -7.411  24.013  0.00  0.00     0.007 A 
ENDBRANCH  39  40
ENDBRANCH  24  39
ENDBRANCH  23  24
BRANCH  23  46
HETATM   46  O   UNK     0     -49.757  -6.417  20.267  0.00  0.00    -0.393 OA
HETATM   47  H   UNK     0     -49.086  -6.889  20.748  0.00  0.00     0.210 HD
ENDBRANCH  23  46
ENDBRANCH  22  23
ENDBRANCH  14  22
ENDBRANCH  11  14
ENDBRANCH   9  10
BRANCH   9  48
HETATM   48  C   UNK     0     -49.711  -4.693  16.039  0.00  0.00     0.010 C 
HETATM   49  C   UNK     0     -49.441  -5.948  16.891  0.00  0.00     0.012 C 
HETATM   50  C   UNK     0     -51.004  -4.925  15.223  0.00  0.00     0.012 C 
ENDBRANCH   9  48
ENDBRANCH   3   9
TORSDOF 16
ENDMDL
MODEL 5
REMARK VINA RESULT:      -7.3      4.836      8.805
REMARK  16 active torsions:
REMARK  status: ('A' for Active; 'I' for Inactive)
REMARK    1  A    between atoms: N_3  and  C_13 
REMARK    2  A    between atoms: C_6  and  C_37 
REMARK    3  A    between atoms: C_13  and  C_14 
REMARK    4  A    between atoms: C_13  and  C_17 
REMARK       I    between atoms: C_14  and  N_15 
REMARK    5  A    between atoms: N_15  and  C_16 
REMARK    6  A    between atoms: C_16  and  C_27 
REMARK    7  A    between atoms: C_16  and  C_28 
REMARK    8  A    between atoms: C_25  and  C_27 
REMARK    9  A    between atoms: C_28  and  C_29 
REMARK   10  A    between atoms: C_29  and  C_30 
REMARK   11  A    between atoms: C_29  and  O_36 
REMARK   12  A    between atoms: C_30  and  N_31 
REMARK   13  A    between atoms: C_30  and  C_37 
REMARK       I    between atoms: N_31  and  C_32 
REMARK   14  A    between atoms: C_32  and  C_33 
REMARK   15  A    between atoms: C_33  and  O_34 
REMARK   16  A    between atoms: O_34  and  C_35 
ROOT
HETATM    1  C   UNK     0     -43.588   0.350  21.805  0.00  0.00     0.126 C 
HETATM    2  C   UNK     0     -45.299  -0.687  20.290  0.00  0.00     0.130 C 
HETATM    3  N   UNK     0     -44.811   0.221  19.187  0.00  0.00    -0.320 N 
HETATM    4  C   UNK     0     -43.782   1.127  19.401  0.00  0.00     0.319 C 
HETATM    5  N   UNK     0     -43.213   1.175  20.640  0.00  0.00    -0.343 N 
HETATM    6  O   UNK     0     -43.379   1.869  18.522  0.00  0.00    -0.247 OA
HETATM    7  C   UNK     0     -44.245  -0.969  21.382  0.00  0.00     0.040 C 
HETATM    8  H   UNK     0     -42.466   1.867  20.698  0.00  0.00     0.164 HD
ENDROOT
BRANCH   3   9
HETATM    9  C   UNK     0     -45.452   0.157  17.827  0.00  0.00     0.184 C 
BRANCH   9  10
HETATM   10  C   UNK     0     -46.994   0.256  17.984  0.00  0.00     0.241 C 
HETATM   11  N   UNK     0     -47.634  -0.911  17.663  0.00  0.00    -0.354 N 
HETATM   12  H   UNK     0     -46.999  -1.655  17.372  0.00  0.00     0.162 HD
HETATM   13  O   UNK     0     -47.543   1.294  18.358  0.00  0.00    -0.271 OA
BRANCH  11  14
HETATM   14  C   UNK     0     -49.099  -1.114  17.720  0.00  0.00     0.091 C 
BRANCH  14  15
HETATM   15  C   UNK     0     -49.677  -1.326  16.302  0.00  0.00     0.063 C 
BRANCH  15  16
HETATM   16  C   UNK     0     -50.387  -2.620  16.020  0.00  0.00    -0.056 A 
HETATM   17  C   UNK     0     -51.776  -2.749  16.293  0.00  0.00     0.007 A 
HETATM   18  C   UNK     0     -52.455  -3.961  16.032  0.00  0.00     0.001 A 
HETATM   19  C   UNK     0     -51.748  -5.061  15.492  0.00  0.00     0.000 A 
HETATM   20  C   UNK     0     -50.365  -4.941  15.217  0.00  0.00     0.001 A 
HETATM   21  C   UNK     0     -49.689  -3.725  15.481  0.00  0.00     0.007 A 
ENDBRANCH  15  16
ENDBRANCH  14  15
BRANCH  14  22
HETATM   22  C   UNK     0     -49.464  -2.376  18.530  0.00  0.00     0.059 C 
BRANCH  22  23
HETATM   23  C   UNK     0     -49.924  -2.241  19.994  0.00  0.00     0.143 C 
BRANCH  23  24
HETATM   24  C   UNK     0     -50.509  -3.508  20.669  0.00  0.00     0.117 C 
BRANCH  24  25
HETATM   25  N   UNK     0     -51.208  -3.092  21.907  0.00  0.00    -0.352 N 
HETATM   26  C   UNK     0     -51.295  -3.864  23.037  0.00  0.00     0.242 C 
HETATM   27  O   UNK     0     -50.801  -4.990  23.166  0.00  0.00    -0.271 OA
HETATM   28  H   UNK     0     -51.675  -2.189  21.989  0.00  0.00     0.163 HD
BRANCH  26  29
HETATM   29  C   UNK     0     -52.098  -3.226  24.187  0.00  0.00     0.278 C 
BRANCH  29  30
HETATM   30  O   UNK     0     -53.133  -4.102  24.669  0.00  0.00    -0.341 OA
BRANCH  30  31
HETATM   31  C   UNK     0     -54.406  -3.833  24.131  0.00  0.00     0.081 A 
HETATM   32  C   UNK     0     -55.179  -2.693  24.545  0.00  0.00    -0.028 A 
HETATM   33  C   UNK     0     -56.457  -2.475  23.962  0.00  0.00     0.009 A 
HETATM   34  C   UNK     0     -54.682  -1.712  25.580  0.00  0.00     0.051 C 
HETATM   35  C   UNK     0     -56.969  -3.357  22.988  0.00  0.00     0.001 A 
HETATM   36  C   UNK     0     -56.218  -4.476  22.574  0.00  0.00     0.009 A 
HETATM   37  C   UNK     0     -54.941  -4.725  23.133  0.00  0.00    -0.028 A 
HETATM   38  C   UNK     0     -54.173  -5.915  22.670  0.00  0.00     0.051 C 
ENDBRANCH  30  31
ENDBRANCH  29  30
ENDBRANCH  26  29
ENDBRANCH  24  25
BRANCH  24  39
HETATM   39  C   UNK     0     -51.529  -4.214  19.728  0.00  0.00     0.066 C 
BRANCH  39  40
HETATM   40  C   UNK     0     -51.041  -5.520  19.130  0.00  0.00    -0.056 A 
HETATM   41  C   UNK     0     -49.656  -5.724  18.916  0.00  0.00     0.007 A 
HETATM   42  C   UNK     0     -49.177  -6.934  18.354  0.00  0.00     0.001 A 
HETATM   43  C   UNK     0     -50.081  -7.954  18.001  0.00  0.00     0.000 A 
HETATM   44  C   UNK     0     -51.464  -7.761  18.211  0.00  0.00     0.001 A 
HETATM   45  C   UNK     0     -51.942  -6.554  18.772  0.00  0.00     0.007 A 
ENDBRANCH  39  40
ENDBRANCH  24  39
ENDBRANCH  23  24
BRANCH  23  46
HETATM   46  O   UNK     0     -48.778  -1.872  20.724  0.00  0.00    -0.393 OA
HETATM   47  H   UNK     0     -48.135  -2.552  20.558  0.00  0.00     0.210 HD
ENDBRANCH  23  46
ENDBRANCH  22  23
ENDBRANCH  14  22
ENDBRANCH  11  14
ENDBRANCH   9  10
BRANCH   9  48
HETATM   48  C   UNK     0     -45.013  -1.134  17.029  0.00  0.00     0.010 C 
HETATM   49  C   UNK     0     -44.901  -0.906  15.509  0.00  0.00     0.012 C 
HETATM   50  C   UNK     0     -43.656  -1.666  17.545  0.00  0.00     0.012 C 
ENDBRANCH   9  48
ENDBRANCH   3   9
TORSDOF 16
ENDMDL
MODEL 6
REMARK VINA RESULT:      -7.3      2.201      3.581
REMARK  16 active torsions:
REMARK  status: ('A' for Active; 'I' for Inactive)
REMARK    1  A    between atoms: N_3  and  C_13 
REMARK    2  A    between atoms: C_6  and  C_37 
REMARK    3  A    between atoms: C_13  and  C_14 
REMARK    4  A    between atoms: C_13  and  C_17 
REMARK       I    between atoms: C_14  and  N_15 
REMARK    5  A    between atoms: N_15  and  C_16 
REMARK    6  A    between atoms: C_16  and  C_27 
REMARK    7  A    between atoms: C_16  and  C_28 
REMARK    8  A    between atoms: C_25  and  C_27 
REMARK    9  A    between atoms: C_28  and  C_29 
REMARK   10  A    between atoms: C_29  and  C_30 
REMARK   11  A    between atoms: C_29  and  O_36 
REMARK   12  A    between atoms: C_30  and  N_31 
REMARK   13  A    between atoms: C_30  and  C_37 
REMARK       I    between atoms: N_31  and  C_32 
REMARK   14  A    between atoms: C_32  and  C_33 
REMARK   15  A    between atoms: C_33  and  O_34 
REMARK   16  A    between atoms: O_34  and  C_35 
ROOT
HETATM    1  C   UNK     0     -44.893  -0.322  16.935  0.00  0.00     0.126 C 
HETATM    2  C   UNK     0     -46.513  -1.915  15.870  0.00  0.00     0.130 C 
HETATM    3  N   UNK     0     -47.632  -1.168  16.554  0.00  0.00    -0.320 N 
HETATM    4  C   UNK     0     -47.376  -0.075  17.372  0.00  0.00     0.319 C 
HETATM    5  N   UNK     0     -46.080   0.313  17.541  0.00  0.00    -0.343 N 
HETATM    6  O   UNK     0     -48.268   0.535  17.934  0.00  0.00    -0.247 OA
HETATM    7  C   UNK     0     -45.242  -1.069  15.643  0.00  0.00     0.040 C 
HETATM    8  H   UNK     0     -45.994   1.124  18.153  0.00  0.00     0.164 HD
ENDROOT
BRANCH   3   9
HETATM    9  C   UNK     0     -49.057  -1.612  16.360  0.00  0.00     0.184 C 
BRANCH   9  10
HETATM   10  C   UNK     0     -49.483  -2.500  17.561  0.00  0.00     0.241 C 
HETATM   11  N   UNK     0     -50.800  -2.337  17.898  0.00  0.00    -0.354 N 
HETATM   12  H   UNK     0     -51.288  -1.660  17.310  0.00  0.00     0.162 HD
HETATM   13  O   UNK     0     -48.689  -3.256  18.123  0.00  0.00    -0.271 OA
BRANCH  11  14
HETATM   14  C   UNK     0     -51.485  -3.052  18.997  0.00  0.00     0.091 C 
BRANCH  14  15
HETATM   15  C   UNK     0     -52.582  -2.164  19.629  0.00  0.00     0.063 C 
BRANCH  15  16
HETATM   16  C   UNK     0     -53.073  -2.525  21.002  0.00  0.00    -0.056 A 
HETATM   17  C   UNK     0     -54.362  -3.098  21.174  0.00  0.00     0.007 A 
HETATM   18  C   UNK     0     -54.834  -3.442  22.461  0.00  0.00     0.001 A 
HETATM   19  C   UNK     0     -54.018  -3.217  23.594  0.00  0.00     0.000 A 
HETATM   20  C   UNK     0     -52.732  -2.647  23.431  0.00  0.00     0.001 A 
HETATM   21  C   UNK     0     -52.264  -2.303  22.140  0.00  0.00     0.007 A 
ENDBRANCH  15  16
ENDBRANCH  14  15
BRANCH  14  22
HETATM   22  C   UNK     0     -52.198  -4.324  18.487  0.00  0.00     0.059 C 
BRANCH  22  23
HETATM   23  C   UNK     0     -51.390  -5.614  18.253  0.00  0.00     0.143 C 
BRANCH  23  24
HETATM   24  C   UNK     0     -51.054  -6.472  19.499  0.00  0.00     0.117 C 
BRANCH  24  25
HETATM   25  N   UNK     0     -49.783  -7.188  19.239  0.00  0.00    -0.352 N 
HETATM   26  C   UNK     0     -49.434  -8.373  19.835  0.00  0.00     0.242 C 
HETATM   27  O   UNK     0     -50.129  -8.988  20.650  0.00  0.00    -0.271 OA
HETATM   28  H   UNK     0     -49.083  -6.832  18.588  0.00  0.00     0.163 HD
BRANCH  26  29
HETATM   29  C   UNK     0     -48.050  -8.912  19.423  0.00  0.00     0.278 C 
BRANCH  29  30
HETATM   30  O   UNK     0     -47.440  -9.684  20.474  0.00  0.00    -0.341 OA
BRANCH  30  31
HETATM   31  C   UNK     0     -46.490 -10.618  20.020  0.00  0.00     0.081 A 
HETATM   32  C   UNK     0     -46.873 -11.926  19.561  0.00  0.00    -0.028 A 
HETATM   33  C   UNK     0     -45.867 -12.824  19.114  0.00  0.00     0.009 A 
HETATM   34  C   UNK     0     -48.312 -12.385  19.536  0.00  0.00     0.051 C 
HETATM   35  C   UNK     0     -44.508 -12.448  19.112  0.00  0.00     0.001 A 
HETATM   36  C   UNK     0     -44.122 -11.167  19.558  0.00  0.00     0.009 A 
HETATM   37  C   UNK     0     -45.097 -10.246  20.011  0.00  0.00    -0.028 A 
HETATM   38  C   UNK     0     -44.656  -8.899  20.473  0.00  0.00     0.051 C 
ENDBRANCH  30  31
ENDBRANCH  29  30
ENDBRANCH  26  29
ENDBRANCH  24  25
BRANCH  24  39
HETATM   39  C   UNK     0     -50.874  -5.571  20.757  0.00  0.00     0.066 C 
BRANCH  39  40
HETATM   40  C   UNK     0     -51.699  -5.990  21.959  0.00  0.00    -0.056 A 
HETATM   41  C   UNK     0     -51.173  -5.837  23.265  0.00  0.00     0.007 A 
HETATM   42  C   UNK     0     -51.924  -6.225  24.402  0.00  0.00     0.001 A 
HETATM   43  C   UNK     0     -53.212  -6.771  24.244  0.00  0.00     0.000 A 
HETATM   44  C   UNK     0     -53.747  -6.927  22.946  0.00  0.00     0.001 A 
HETATM   45  C   UNK     0     -52.998  -6.540  21.811  0.00  0.00     0.007 A 
ENDBRANCH  39  40
ENDBRANCH  24  39
ENDBRANCH  23  24
BRANCH  23  46
HETATM   46  O   UNK     0     -52.177  -6.410  17.400  0.00  0.00    -0.393 OA
HETATM   47  H   UNK     0     -52.115  -7.295  17.741  0.00  0.00     0.210 HD
ENDBRANCH  23  46
ENDBRANCH  22  23
ENDBRANCH  14  22
ENDBRANCH  11  14
ENDBRANCH   9  10
BRANCH   9  48
HETATM   48  C   UNK     0     -49.264  -2.341  14.974  0.00  0.00     0.010 C 
HETATM   49  C   UNK     0     -49.980  -3.699  15.095  0.00  0.00     0.012 C 
HETATM   50  C   UNK     0     -50.067  -1.449  13.998  0.00  0.00     0.012 C 
ENDBRANCH   9  48
ENDBRANCH   3   9
TORSDOF 16
ENDMDL
MODEL 7
REMARK VINA RESULT:      -7.3      6.727     12.914
REMARK  16 active torsions:
REMARK  status: ('A' for Active; 'I' for Inactive)
REMARK    1  A    between atoms: N_3  and  C_13 
REMARK    2  A    between atoms: C_6  and  C_37 
REMARK    3  A    between atoms: C_13  and  C_14 
REMARK    4  A    between atoms: C_13  and  C_17 
REMARK       I    between atoms: C_14  and  N_15 
REMARK    5  A    between atoms: N_15  and  C_16 
REMARK    6  A    between atoms: C_16  and  C_27 
REMARK    7  A    between atoms: C_16  and  C_28 
REMARK    8  A    between atoms: C_25  and  C_27 
REMARK    9  A    between atoms: C_28  and  C_29 
REMARK   10  A    between atoms: C_29  and  C_30 
REMARK   11  A    between atoms: C_29  and  O_36 
REMARK   12  A    between atoms: C_30  and  N_31 
REMARK   13  A    between atoms: C_30  and  C_37 
REMARK       I    between atoms: N_31  and  C_32 
REMARK   14  A    between atoms: C_32  and  C_33 
REMARK   15  A    between atoms: C_33  and  O_34 
REMARK   16  A    between atoms: O_34  and  C_35 
ROOT
HETATM    1  C   UNK     0     -44.967 -12.699  29.913  0.00  0.00     0.126 C 
HETATM    2  C   UNK     0     -45.996 -13.756  27.884  0.00  0.00     0.130 C 
HETATM    3  N   UNK     0     -46.526 -14.853  28.775  0.00  0.00    -0.320 N 
HETATM    4  C   UNK     0     -46.278 -14.855  30.141  0.00  0.00     0.319 C 
HETATM    5  N   UNK     0     -45.543 -13.832  30.664  0.00  0.00    -0.343 N 
HETATM    6  O   UNK     0     -46.695 -15.735  30.874  0.00  0.00    -0.247 OA
HETATM    7  C   UNK     0     -45.737 -12.423  28.617  0.00  0.00     0.040 C 
HETATM    8  H   UNK     0     -45.419 -13.919  31.673  0.00  0.00     0.164 HD
ENDROOT
BRANCH   3   9
HETATM    9  C   UNK     0     -47.332 -15.977  28.182  0.00  0.00     0.184 C 
BRANCH   9  10
HETATM   10  C   UNK     0     -46.537 -16.611  27.008  0.00  0.00     0.241 C 
HETATM   11  N   UNK     0     -47.211 -16.547  25.818  0.00  0.00    -0.354 N 
HETATM   12  H   UNK     0     -48.123 -16.097  25.892  0.00  0.00     0.162 HD
HETATM   13  O   UNK     0     -45.423 -17.110  27.174  0.00  0.00    -0.271 OA
BRANCH  11  14
HETATM   14  C   UNK     0     -46.701 -17.067  24.530  0.00  0.00     0.091 C 
BRANCH  14  15
HETATM   15  C   UNK     0     -46.962 -18.587  24.411  0.00  0.00     0.063 C 
BRANCH  15  16
HETATM   16  C   UNK     0     -45.797 -19.475  24.076  0.00  0.00    -0.056 A 
HETATM   17  C   UNK     0     -46.014 -20.743  23.473  0.00  0.00     0.007 A 
HETATM   18  C   UNK     0     -44.926 -21.587  23.153  0.00  0.00     0.001 A 
HETATM   19  C   UNK     0     -43.604 -21.168  23.434  0.00  0.00     0.000 A 
HETATM   20  C   UNK     0     -43.380 -19.906  24.033  0.00  0.00     0.001 A 
HETATM   21  C   UNK     0     -44.472 -19.065  24.353  0.00  0.00     0.007 A 
ENDBRANCH  15  16
ENDBRANCH  14  15
BRANCH  14  22
HETATM   22  C   UNK     0     -47.417 -16.410  23.330  0.00  0.00     0.059 C 
BRANCH  22  23
HETATM   23  C   UNK     0     -46.900 -15.073  22.767  0.00  0.00     0.143 C 
BRANCH  23  24
HETATM   24  C   UNK     0     -46.044 -15.136  21.475  0.00  0.00     0.117 C 
BRANCH  24  25
HETATM   25  N   UNK     0     -45.961 -13.771  20.907  0.00  0.00    -0.352 N 
HETATM   26  C   UNK     0     -45.847 -13.502  19.568  0.00  0.00     0.242 C 
HETATM   27  O   UNK     0     -45.804 -14.355  18.675  0.00  0.00    -0.271 OA
HETATM   28  H   UNK     0     -45.986 -12.937  21.494  0.00  0.00     0.163 HD
BRANCH  26  29
HETATM   29  C   UNK     0     -45.751 -12.002  19.223  0.00  0.00     0.278 C 
BRANCH  29  30
HETATM   30  O   UNK     0     -44.436 -11.641  18.762  0.00  0.00    -0.341 OA
BRANCH  30  31
HETATM   31  C   UNK     0     -43.611 -11.091  19.761  0.00  0.00     0.081 A 
HETATM   32  C   UNK     0     -42.572 -11.860  20.394  0.00  0.00    -0.028 A 
HETATM   33  C   UNK     0     -41.771 -11.248  21.395  0.00  0.00     0.009 A 
HETATM   34  C   UNK     0     -42.299 -13.301  20.032  0.00  0.00     0.051 C 
HETATM   35  C   UNK     0     -41.980  -9.904  21.770  0.00  0.00     0.001 A 
HETATM   36  C   UNK     0     -42.993  -9.142  21.154  0.00  0.00     0.009 A 
HETATM   37  C   UNK     0     -43.812  -9.719  20.153  0.00  0.00    -0.028 A 
HETATM   38  C   UNK     0     -44.872  -8.883  19.520  0.00  0.00     0.051 C 
ENDBRANCH  30  31
ENDBRANCH  29  30
ENDBRANCH  26  29
ENDBRANCH  24  25
BRANCH  24  39
HETATM   39  C   UNK     0     -44.604 -15.638  21.791  0.00  0.00     0.066 C 
BRANCH  39  40
HETATM   40  C   UNK     0     -44.272 -17.007  21.231  0.00  0.00    -0.056 A 
HETATM   41  C   UNK     0     -42.923 -17.429  21.150  0.00  0.00     0.007 A 
HETATM   42  C   UNK     0     -42.589 -18.702  20.625  0.00  0.00     0.001 A 
HETATM   43  C   UNK     0     -43.604 -19.568  20.176  0.00  0.00     0.000 A 
HETATM   44  C   UNK     0     -44.953 -19.158  20.253  0.00  0.00     0.001 A 
HETATM   45  C   UNK     0     -45.287 -17.887  20.776  0.00  0.00     0.007 A 
ENDBRANCH  39  40
ENDBRANCH  24  39
ENDBRANCH  23  24
BRANCH  23  46
HETATM   46  O   UNK     0     -48.045 -14.312  22.470  0.00  0.00    -0.393 OA
HETATM   47  H   UNK     0     -48.780 -14.800  22.823  0.00  0.00     0.210 HD
ENDBRANCH  23  46
ENDBRANCH  22  23
ENDBRANCH  14  22
ENDBRANCH  11  14
ENDBRANCH   9  10
BRANCH   9  48
HETATM   48  C   UNK     0     -48.772 -15.500  27.741  0.00  0.00     0.010 C 
HETATM   49  C   UNK     0     -49.840 -16.607  27.832  0.00  0.00     0.012 C 
HETATM   50  C   UNK     0     -49.239 -14.299  28.595  0.00  0.00     0.012 C 
ENDBRANCH   9  48
ENDBRANCH   3   9
TORSDOF 16
ENDMDL
MODEL 8
REMARK VINA RESULT:      -7.3      2.936      5.499
REMARK  16 active torsions:
REMARK  status: ('A' for Active; 'I' for Inactive)
REMARK    1  A    between atoms: N_3  and  C_13 
REMARK    2  A    between atoms: C_6  and  C_37 
REMARK    3  A    between atoms: C_13  and  C_14 
REMARK    4  A    between atoms: C_13  and  C_17 
REMARK       I    between atoms: C_14  and  N_15 
REMARK    5  A    between atoms: N_15  and  C_16 
REMARK    6  A    between atoms: C_16  and  C_27 
REMARK    7  A    between atoms: C_16  and  C_28 
REMARK    8  A    between atoms: C_25  and  C_27 
REMARK    9  A    between atoms: C_28  and  C_29 
REMARK   10  A    between atoms: C_29  and  C_30 
REMARK   11  A    between atoms: C_29  and  O_36 
REMARK   12  A    between atoms: C_30  and  N_31 
REMARK   13  A    between atoms: C_30  and  C_37 
REMARK       I    between atoms: N_31  and  C_32 
REMARK   14  A    between atoms: C_32  and  C_33 
REMARK   15  A    between atoms: C_33  and  O_34 
REMARK   16  A    between atoms: O_34  and  C_35 
ROOT
HETATM    1  C   UNK     0     -44.890  -1.469  15.798  0.00  0.00     0.126 C 
HETATM    2  C   UNK     0     -47.371  -1.161  16.005  0.00  0.00     0.130 C 
HETATM    3  N   UNK     0     -47.206  -1.178  17.505  0.00  0.00    -0.320 N 
HETATM    4  C   UNK     0     -45.958  -1.334  18.091  0.00  0.00     0.319 C 
HETATM    5  N   UNK     0     -44.875  -1.468  17.274  0.00  0.00    -0.343 N 
HETATM    6  O   UNK     0     -45.808  -1.354  19.301  0.00  0.00    -0.247 OA
HETATM    7  C   UNK     0     -46.106  -0.720  15.240  0.00  0.00     0.040 C 
HETATM    8  H   UNK     0     -44.004  -1.573  17.796  0.00  0.00     0.164 HD
ENDROOT
BRANCH   3   9
HETATM    9  C   UNK     0     -48.412  -1.033  18.393  0.00  0.00     0.184 C 
BRANCH   9  10
HETATM   10  C   UNK     0     -49.081  -2.422  18.578  0.00  0.00     0.241 C 
HETATM   11  N   UNK     0     -50.040  -2.421  19.556  0.00  0.00    -0.354 N 
HETATM   12  H   UNK     0     -50.159  -1.514  20.005  0.00  0.00     0.162 HD
HETATM   13  O   UNK     0     -48.753  -3.396  17.898  0.00  0.00    -0.271 OA
BRANCH  11  14
HETATM   14  C   UNK     0     -50.844  -3.599  19.950  0.00  0.00     0.091 C 
BRANCH  14  15
HETATM   15  C   UNK     0     -51.503  -3.375  21.331  0.00  0.00     0.063 C 
BRANCH  15  16
HETATM   16  C   UNK     0     -52.130  -4.559  22.010  0.00  0.00    -0.056 A 
HETATM   17  C   UNK     0     -53.544  -4.695  22.052  0.00  0.00     0.007 A 
HETATM   18  C   UNK     0     -54.146  -5.805  22.688  0.00  0.00     0.001 A 
HETATM   19  C   UNK     0     -53.335  -6.796  23.289  0.00  0.00     0.000 A 
HETATM   20  C   UNK     0     -51.926  -6.669  23.251  0.00  0.00     0.001 A 
HETATM   21  C   UNK     0     -51.328  -5.555  22.614  0.00  0.00     0.007 A 
ENDBRANCH  15  16
ENDBRANCH  14  15
BRANCH  14  22
HETATM   22  C   UNK     0     -51.997  -3.856  18.957  0.00  0.00     0.059 C 
BRANCH  22  23
HETATM   23  C   UNK     0     -52.112  -5.219  18.250  0.00  0.00     0.143 C 
BRANCH  23  24
HETATM   24  C   UNK     0     -50.943  -5.631  17.318  0.00  0.00     0.117 C 
BRANCH  24  25
HETATM   25  N   UNK     0     -50.551  -7.020  17.653  0.00  0.00    -0.352 N 
HETATM   26  C   UNK     0     -49.264  -7.489  17.599  0.00  0.00     0.242 C 
HETATM   27  O   UNK     0     -48.278  -6.818  17.274  0.00  0.00    -0.271 OA
HETATM   28  H   UNK     0     -51.232  -7.720  17.948  0.00  0.00     0.163 HD
BRANCH  26  29
HETATM   29  C   UNK     0     -49.110  -8.978  17.968  0.00  0.00     0.278 C 
BRANCH  29  30
HETATM   30  O   UNK     0     -48.052  -9.187  18.922  0.00  0.00    -0.341 OA
BRANCH  30  31
HETATM   31  C   UNK     0     -48.489  -9.705  20.157  0.00  0.00     0.081 A 
HETATM   32  C   UNK     0     -48.566 -11.121  20.400  0.00  0.00    -0.028 A 
HETATM   33  C   UNK     0     -49.013 -11.581  21.667  0.00  0.00     0.009 A 
HETATM   34  C   UNK     0     -48.188 -12.143  19.354  0.00  0.00     0.051 C 
HETATM   35  C   UNK     0     -49.377 -10.671  22.682  0.00  0.00     0.001 A 
HETATM   36  C   UNK     0     -49.302  -9.283  22.455  0.00  0.00     0.009 A 
HETATM   37  C   UNK     0     -48.861  -8.787  21.204  0.00  0.00    -0.028 A 
HETATM   38  C   UNK     0     -48.791  -7.312  20.997  0.00  0.00     0.051 C 
ENDBRANCH  30  31
ENDBRANCH  29  30
ENDBRANCH  26  29
ENDBRANCH  24  25
BRANCH  24  39
HETATM   39  C   UNK     0     -51.382  -5.579  15.825  0.00  0.00     0.066 C 
BRANCH  39  40
HETATM   40  C   UNK     0     -51.009  -4.300  15.100  0.00  0.00    -0.056 A 
HETATM   41  C   UNK     0     -51.867  -3.176  15.163  0.00  0.00     0.007 A 
HETATM   42  C   UNK     0     -51.542  -1.973  14.489  0.00  0.00     0.001 A 
HETATM   43  C   UNK     0     -50.351  -1.882  13.744  0.00  0.00     0.000 A 
HETATM   44  C   UNK     0     -49.486  -2.997  13.675  0.00  0.00     0.001 A 
HETATM   45  C   UNK     0     -49.811  -4.198  14.347  0.00  0.00     0.007 A 
ENDBRANCH  39  40
ENDBRANCH  24  39
ENDBRANCH  23  24
BRANCH  23  46
HETATM   46  O   UNK     0     -52.184  -6.179  19.276  0.00  0.00    -0.393 OA
HETATM   47  H   UNK     0     -51.354  -6.644  19.256  0.00  0.00     0.210 HD
ENDBRANCH  23  46
ENDBRANCH  22  23
ENDBRANCH  14  22
ENDBRANCH  11  14
ENDBRANCH   9  10
BRANCH   9  48
HETATM   48  C   UNK     0     -49.423   0.049  17.842  0.00  0.00     0.010 C 
HETATM   49  C   UNK     0     -50.816  -0.522  17.514  0.00  0.00     0.012 C 
HETATM   50  C   UNK     0     -49.595   1.207  18.853  0.00  0.00     0.012 C 
ENDBRANCH   9  48
ENDBRANCH   3   9
TORSDOF 16
ENDMDL
MODEL 9
REMARK VINA RESULT:      -7.3      3.844      9.364
REMARK  16 active torsions:
REMARK  status: ('A' for Active; 'I' for Inactive)
REMARK    1  A    between atoms: N_3  and  C_13 
REMARK    2  A    between atoms: C_6  and  C_37 
REMARK    3  A    between atoms: C_13  and  C_14 
REMARK    4  A    between atoms: C_13  and  C_17 
REMARK       I    between atoms: C_14  and  N_15 
REMARK    5  A    between atoms: N_15  and  C_16 
REMARK    6  A    between atoms: C_16  and  C_27 
REMARK    7  A    between atoms: C_16  and  C_28 
REMARK    8  A    between atoms: C_25  and  C_27 
REMARK    9  A    between atoms: C_28  and  C_29 
REMARK   10  A    between atoms: C_29  and  C_30 
REMARK   11  A    between atoms: C_29  and  O_36 
REMARK   12  A    between atoms: C_30  and  N_31 
REMARK   13  A    between atoms: C_30  and  C_37 
REMARK       I    between atoms: N_31  and  C_32 
REMARK   14  A    between atoms: C_32  and  C_33 
REMARK   15  A    between atoms: C_33  and  O_34 
REMARK   16  A    between atoms: O_34  and  C_35 
ROOT
HETATM    1  C   UNK     0     -49.012 -10.091  21.140  0.00  0.00     0.126 C 
HETATM    2  C   UNK     0     -49.402  -8.327  22.882  0.00  0.00     0.130 C 
HETATM    3  N   UNK     0     -50.318  -7.627  21.908  0.00  0.00    -0.320 N 
HETATM    4  C   UNK     0     -50.551  -8.141  20.640  0.00  0.00     0.319 C 
HETATM    5  N   UNK     0     -49.929  -9.304  20.292  0.00  0.00    -0.343 N 
HETATM    6  O   UNK     0     -51.285  -7.586  19.840  0.00  0.00    -0.247 OA
HETATM    7  C   UNK     0     -49.262  -9.843  22.633  0.00  0.00     0.040 C 
HETATM    8  H   UNK     0     -50.164  -9.602  19.346  0.00  0.00     0.164 HD
ENDROOT
BRANCH   3   9
HETATM    9  C   UNK     0     -50.993  -6.342  22.306  0.00  0.00     0.184 C 
BRANCH   9  10
HETATM   10  C   UNK     0     -50.362  -5.166  21.512  0.00  0.00     0.241 C 
HETATM   11  N   UNK     0     -51.274  -4.503  20.735  0.00  0.00    -0.354 N 
HETATM   12  H   UNK     0     -52.216  -4.886  20.800  0.00  0.00     0.162 HD
HETATM   13  O   UNK     0     -49.163  -4.894  21.600  0.00  0.00    -0.271 OA
BRANCH  11  14
HETATM   14  C   UNK     0     -50.962  -3.341  19.874  0.00  0.00     0.091 C 
BRANCH  14  15
HETATM   15  C   UNK     0     -51.975  -3.234  18.711  0.00  0.00     0.063 C 
BRANCH  15  16
HETATM   16  C   UNK     0     -51.568  -3.782  17.373  0.00  0.00    -0.056 A 
HETATM   17  C   UNK     0     -50.659  -4.872  17.291  0.00  0.00     0.007 A 
HETATM   18  C   UNK     0     -50.269  -5.396  16.038  0.00  0.00     0.001 A 
HETATM   19  C   UNK     0     -50.786  -4.833  14.848  0.00  0.00     0.000 A 
HETATM   20  C   UNK     0     -51.693  -3.748  14.920  0.00  0.00     0.001 A 
HETATM   21  C   UNK     0     -52.080  -3.226  16.177  0.00  0.00     0.007 A 
ENDBRANCH  15  16
ENDBRANCH  14  15
BRANCH  14  22
HETATM   22  C   UNK     0     -51.059  -2.013  20.656  0.00  0.00     0.059 C 
BRANCH  22  23
HETATM   23  C   UNK     0     -49.808  -1.133  20.830  0.00  0.00     0.143 C 
BRANCH  23  24
HETATM   24  C   UNK     0     -49.104  -0.644  19.539  0.00  0.00     0.117 C 
BRANCH  24  25
HETATM   25  N   UNK     0     -47.932   0.173  19.930  0.00  0.00    -0.352 N 
HETATM   26  C   UNK     0     -47.654   1.413  19.416  0.00  0.00     0.242 C 
HETATM   27  O   UNK     0     -48.342   2.002  18.574  0.00  0.00    -0.271 OA
HETATM   28  H   UNK     0     -47.252  -0.149  20.619  0.00  0.00     0.163 HD
BRANCH  26  29
HETATM   29  C   UNK     0     -46.363   2.057  19.959  0.00  0.00     0.278 C 
BRANCH  29  30
HETATM   30  O   UNK     0     -45.276   1.953  19.022  0.00  0.00    -0.341 OA
BRANCH  30  31
HETATM   31  C   UNK     0     -44.543   0.755  19.126  0.00  0.00     0.081 A 
HETATM   32  C   UNK     0     -43.669   0.497  20.240  0.00  0.00    -0.028 A 
HETATM   33  C   UNK     0     -42.957  -0.732  20.289  0.00  0.00     0.009 A 
HETATM   34  C   UNK     0     -43.479   1.486  21.365  0.00  0.00     0.051 C 
HETATM   35  C   UNK     0     -43.100  -1.694  19.267  0.00  0.00     0.001 A 
HETATM   36  C   UNK     0     -43.955  -1.451  18.174  0.00  0.00     0.009 A 
HETATM   37  C   UNK     0     -44.680  -0.238  18.091  0.00  0.00    -0.028 A 
HETATM   38  C   UNK     0     -45.578  -0.014  16.922  0.00  0.00     0.051 C 
ENDBRANCH  30  31
ENDBRANCH  29  30
ENDBRANCH  26  29
ENDBRANCH  24  25
BRANCH  24  39
HETATM   39  C   UNK     0     -48.612  -1.852  18.687  0.00  0.00     0.066 C 
BRANCH  39  40
HETATM   40  C   UNK     0     -48.738  -1.664  17.188  0.00  0.00    -0.056 A 
HETATM   41  C   UNK     0     -47.978  -2.472  16.308  0.00  0.00     0.007 A 
HETATM   42  C   UNK     0     -48.075  -2.310  14.904  0.00  0.00     0.001 A 
HETATM   43  C   UNK     0     -48.937  -1.337  14.364  0.00  0.00     0.000 A 
HETATM   44  C   UNK     0     -49.701  -0.526  15.232  0.00  0.00     0.001 A 
HETATM   45  C   UNK     0     -49.604  -0.687  16.634  0.00  0.00     0.007 A 
ENDBRANCH  39  40
ENDBRANCH  24  39
ENDBRANCH  23  24
BRANCH  23  46
HETATM   46  O   UNK     0     -50.238   0.012  21.528  0.00  0.00    -0.393 OA
HETATM   47  H   UNK     0     -50.521  -0.296  22.382  0.00  0.00     0.210 HD
ENDBRANCH  23  46
ENDBRANCH  22  23
ENDBRANCH  14  22
ENDBRANCH  11  14
ENDBRANCH   9  10
BRANCH   9  48
HETATM   48  C   UNK     0     -50.940  -6.107  23.867  0.00  0.00     0.010 C 
HETATM   49  C   UNK     0     -50.758  -4.628  24.260  0.00  0.00     0.012 C 
HETATM   50  C   UNK     0     -52.223  -6.640  24.548  0.00  0.00     0.012 C 
ENDBRANCH   9  48
ENDBRANCH   3   9
TORSDOF 16
ENDMDL
MODEL 10
REMARK VINA RESULT:      -7.2      1.905      2.880
REMARK  16 active torsions:
REMARK  status: ('A' for Active; 'I' for Inactive)
REMARK    1  A    between atoms: N_3  and  C_13 
REMARK    2  A    between atoms: C_6  and  C_37 
REMARK    3  A    between atoms: C_13  and  C_14 
REMARK    4  A    between atoms: C_13  and  C_17 
REMARK       I    between atoms: C_14  and  N_15 
REMARK    5  A    between atoms: N_15  and  C_16 
REMARK    6  A    between atoms: C_16  and  C_27 
REMARK    7  A    between atoms: C_16  and  C_28 
REMARK    8  A    between atoms: C_25  and  C_27 
REMARK    9  A    between atoms: C_28  and  C_29 
REMARK   10  A    between atoms: C_29  and  C_30 
REMARK   11  A    between atoms: C_29  and  O_36 
REMARK   12  A    between atoms: C_30  and  N_31 
REMARK   13  A    between atoms: C_30  and  C_37 
REMARK       I    between atoms: N_31  and  C_32 
REMARK   14  A    between atoms: C_32  and  C_33 
REMARK   15  A    between atoms: C_33  and  O_34 
REMARK   16  A    between atoms: O_34  and  C_35 
ROOT
HETATM    1  C   UNK     0     -46.511  -0.913  15.980  0.00  0.00     0.126 C 
HETATM    2  C   UNK     0     -47.682  -3.116  16.241  0.00  0.00     0.130 C 
HETATM    3  N   UNK     0     -48.932  -2.360  16.622  0.00  0.00    -0.320 N 
HETATM    4  C   UNK     0     -48.947  -0.972  16.674  0.00  0.00     0.319 C 
HETATM    5  N   UNK     0     -47.799  -0.304  16.367  0.00  0.00    -0.343 N 
HETATM    6  O   UNK     0     -49.946  -0.347  16.984  0.00  0.00    -0.247 OA
HETATM    7  C   UNK     0     -46.700  -2.306  15.369  0.00  0.00     0.040 C 
HETATM    8  H   UNK     0     -47.910   0.708  16.430  0.00  0.00     0.164 HD
ENDROOT
BRANCH   3   9
HETATM    9  C   UNK     0     -50.189  -3.113  16.961  0.00  0.00     0.184 C 
BRANCH   9  10
HETATM   10  C   UNK     0     -49.938  -3.985  18.221  0.00  0.00     0.241 C 
HETATM   11  N   UNK     0     -51.096  -4.465  18.772  0.00  0.00    -0.354 N 
HETATM   12  H   UNK     0     -51.934  -4.172  18.270  0.00  0.00     0.162 HD
HETATM   13  O   UNK     0     -48.801  -4.197  18.648  0.00  0.00    -0.271 OA
BRANCH  11  14
HETATM   14  C   UNK     0     -51.166  -5.324  19.975  0.00  0.00     0.091 C 
BRANCH  14  15
HETATM   15  C   UNK     0     -52.605  -5.360  20.538  0.00  0.00     0.063 C 
BRANCH  15  16
HETATM   16  C   UNK     0     -52.822  -4.865  21.940  0.00  0.00    -0.056 A 
HETATM   17  C   UNK     0     -51.909  -3.945  22.524  0.00  0.00     0.007 A 
HETATM   18  C   UNK     0     -52.103  -3.472  23.842  0.00  0.00     0.001 A 
HETATM   19  C   UNK     0     -53.218  -3.914  24.592  0.00  0.00     0.000 A 
HETATM   20  C   UNK     0     -54.132  -4.829  24.017  0.00  0.00     0.001 A 
HETATM   21  C   UNK     0     -53.934  -5.301  22.697  0.00  0.00     0.007 A 
ENDBRANCH  15  16
ENDBRANCH  14  15
BRANCH  14  22
HETATM   22  C   UNK     0     -50.792  -6.786  19.648  0.00  0.00     0.059 C 
BRANCH  22  23
HETATM   23  C   UNK     0     -49.496  -7.392  20.218  0.00  0.00     0.143 C 
BRANCH  23  24
HETATM   24  C   UNK     0     -49.411  -8.938  20.288  0.00  0.00     0.117 C 
BRANCH  24  25
HETATM   25  N   UNK     0     -48.001  -9.336  20.070  0.00  0.00    -0.352 N 
HETATM   26  C   UNK     0     -47.609 -10.584  19.662  0.00  0.00     0.242 C 
HETATM   27  O   UNK     0     -48.374 -11.524  19.421  0.00  0.00    -0.271 OA
HETATM   28  H   UNK     0     -47.227  -8.688  20.215  0.00  0.00     0.163 HD
BRANCH  26  29
HETATM   29  C   UNK     0     -46.084 -10.764  19.530  0.00  0.00     0.278 C 
BRANCH  29  30
HETATM   30  O   UNK     0     -45.399  -9.500  19.453  0.00  0.00    -0.341 OA
BRANCH  30  31
HETATM   31  C   UNK     0     -44.201  -9.452  20.191  0.00  0.00     0.081 A 
HETATM   32  C   UNK     0     -43.003 -10.105  19.735  0.00  0.00    -0.028 A 
HETATM   33  C   UNK     0     -41.825 -10.018  20.525  0.00  0.00     0.009 A 
HETATM   34  C   UNK     0     -42.949 -10.884  18.442  0.00  0.00     0.051 C 
HETATM   35  C   UNK     0     -41.818  -9.301  21.739  0.00  0.00     0.001 A 
HETATM   36  C   UNK     0     -42.986  -8.655  22.193  0.00  0.00     0.009 A 
HETATM   37  C   UNK     0     -44.178  -8.721  21.433  0.00  0.00    -0.028 A 
HETATM   38  C   UNK     0     -45.395  -8.024  21.940  0.00  0.00     0.051 C 
ENDBRANCH  30  31
ENDBRANCH  29  30
ENDBRANCH  26  29
ENDBRANCH  24  25
BRANCH  24  39
HETATM   39  C   UNK     0     -49.869  -9.454  21.684  0.00  0.00     0.066 C 
BRANCH  39  40
HETATM   40  C   UNK     0     -49.905  -8.395  22.770  0.00  0.00    -0.056 A 
HETATM   41  C   UNK     0     -51.137  -8.042  23.371  0.00  0.00     0.007 A 
HETATM   42  C   UNK     0     -51.196  -7.052  24.383  0.00  0.00     0.001 A 
HETATM   43  C   UNK     0     -50.019  -6.406  24.806  0.00  0.00     0.000 A 
HETATM   44  C   UNK     0     -48.784  -6.751  24.214  0.00  0.00     0.001 A 
HETATM   45  C   UNK     0     -48.726  -7.738  23.203  0.00  0.00     0.007 A 
ENDBRANCH  39  40
ENDBRANCH  24  39
ENDBRANCH  23  24
BRANCH  23  46
HETATM   46  O   UNK     0     -48.462  -6.957  19.368  0.00  0.00    -0.393 OA
HETATM   47  H   UNK     0     -47.668  -7.364  19.696  0.00  0.00     0.210 HD
ENDBRANCH  23  46
ENDBRANCH  22  23
ENDBRANCH  14  22
ENDBRANCH  11  14
ENDBRANCH   9  10
BRANCH   9  48
HETATM   48  C   UNK     0     -50.714  -3.965  15.739  0.00  0.00     0.010 C 
HETATM   49  C   UNK     0     -50.496  -5.481  15.908  0.00  0.00     0.012 C 
HETATM   50  C   UNK     0     -52.220  -3.711  15.498  0.00  0.00     0.012 C 
ENDBRANCH   9  48
ENDBRANCH   3   9
TORSDOF 16
ENDMDL
