MODEL 1
REMARK VINA RESULT:      -8.2      0.000      0.000
REMARK  10 active torsions:
REMARK  status: ('A' for Active; 'I' for Inactive)
REMARK    1  A    between atoms: O_2  and  C_15 
REMARK    2  A    between atoms: O_2  and  C_18 
REMARK    3  A    between atoms: O_3  and  C_12 
REMARK    4  A    between atoms: O_4  and  C_13 
REMARK    5  A    between atoms: O_5  and  C_14 
REMARK    6  A    between atoms: O_6  and  C_17 
REMARK    7  A    between atoms: O_9  and  C_20 
REMARK    8  A    between atoms: O_10  and  C_23 
REMARK    9  A    between atoms: C_16  and  C_17 
REMARK   10  A    between atoms: C_25  and  C_27 
ROOT
HETATM    1  O   UNK     0     -48.563  -8.206  18.284  0.00  0.00    -0.340 OA
HETATM    2  C   UNK     0     -50.418  -8.228  20.479  0.00  0.00     0.183 C 
HETATM    3  C   UNK     0     -50.790  -7.687  19.098  0.00  0.00     0.205 C 
HETATM    4  C   UNK     0     -49.237  -9.195  20.401  0.00  0.00     0.189 C 
HETATM    5  C   UNK     0     -49.555  -7.184  18.350  0.00  0.00     0.299 C 
HETATM    6  C   UNK     0     -48.104  -8.598  19.573  0.00  0.00     0.253 C 
ENDROOT
BRANCH   5   7
HETATM    7  O   UNK     0     -49.958  -6.818  17.030  0.00  0.00    -0.315 OA
BRANCH   7   8
HETATM    8  C   UNK     0     -49.636  -5.558  16.620  0.00  0.00     0.110 A 
HETATM    9  C   UNK     0     -48.510  -4.932  17.154  0.00  0.00     0.078 A 
HETATM   10  C   UNK     0     -48.171  -3.642  16.741  0.00  0.00     0.096 A 
HETATM   11  O   UNK     0     -47.054  -3.079  17.302  0.00  0.00    -0.309 OA
HETATM   12  C   UNK     0     -48.959  -2.985  15.799  0.00  0.00     0.084 A 
HETATM   13  C   UNK     0     -46.689  -1.801  16.906  0.00  0.00     0.090 A 
HETATM   14  C   UNK     0     -47.367  -1.064  16.012  0.00  0.00     0.094 A 
HETATM   15  C   UNK     0     -48.580  -1.625  15.383  0.00  0.00     0.190 A 
HETATM   16  O   UNK     0     -49.226  -0.988  14.562  0.00  0.00    -0.287 OA
HETATM   17  C   UNK     0     -50.087  -3.608  15.261  0.00  0.00     0.118 A 
HETATM   18  C   UNK     0     -50.423  -4.897  15.676  0.00  0.00     0.134 A 
BRANCH  13  19
HETATM   19  C   UNK     0     -45.475  -1.289  17.574  0.00  0.00    -0.002 A 
HETATM   20  C   UNK     0     -44.428  -2.159  17.889  0.00  0.00     0.014 A 
HETATM   21  C   UNK     0     -43.281  -1.675  18.519  0.00  0.00     0.001 A 
HETATM   22  C   UNK     0     -43.177  -0.321  18.836  0.00  0.00     0.000 A 
HETATM   23  C   UNK     0     -44.221   0.551  18.523  0.00  0.00     0.001 A 
HETATM   24  C   UNK     0     -45.368   0.066  17.893  0.00  0.00     0.014 A 
ENDBRANCH  13  19
BRANCH  17  25
HETATM   25  O   UNK     0     -50.880  -2.995  14.337  0.00  0.00    -0.357 OA
HETATM   26  H   UNK     0     -50.821  -2.031  14.418  0.00  0.00     0.217 HD
ENDBRANCH  17  25
BRANCH  18  27
HETATM   27  O   UNK     0     -51.523  -5.516  15.158  0.00  0.00    -0.356 OA
HETATM   28  H   UNK     0     -52.227  -4.853  15.048  0.00  0.00     0.218 HD
ENDBRANCH  18  27
ENDBRANCH   7   8
ENDBRANCH   5   7
BRANCH   6  29
HETATM   29  C   UNK     0     -47.064  -9.627  19.269  0.00  0.00     0.172 C 
HETATM   30  O   UNK     0     -47.097 -10.790  19.643  0.00  0.00    -0.648 OA
BRANCH  29  31
HETATM   31  O   UNK     0     -46.069  -9.095  18.519  0.00  0.00    -0.774 OA
HETATM   32  H   UNK     0     -45.669  -9.757  17.916  0.00  0.00     0.167 HD
ENDBRANCH  29  31
ENDBRANCH   6  29
BRANCH   3  33
HETATM   33  O   UNK     0     -51.699  -6.597  19.245  0.00  0.00    -0.388 OA
HETATM   34  H   UNK     0     -51.846  -6.214  18.364  0.00  0.00     0.210 HD
ENDBRANCH   3  33
BRANCH   4  35
HETATM   35  O   UNK     0     -48.755  -9.451  21.718  0.00  0.00    -0.390 OA
HETATM   36  H   UNK     0     -48.062 -10.131  21.659  0.00  0.00     0.210 HD
ENDBRANCH   4  35
BRANCH   2  37
HETATM   37  O   UNK     0     -51.531  -8.933  21.030  0.00  0.00    -0.390 OA
HETATM   38  H   UNK     0     -51.194  -9.755  21.423  0.00  0.00     0.210 HD
ENDBRANCH   2  37
TORSDOF 10
ENDMDL
MODEL 2
REMARK VINA RESULT:      -8.0      1.461      2.118
REMARK  10 active torsions:
REMARK  status: ('A' for Active; 'I' for Inactive)
REMARK    1  A    between atoms: O_2  and  C_15 
REMARK    2  A    between atoms: O_2  and  C_18 
REMARK    3  A    between atoms: O_3  and  C_12 
REMARK    4  A    between atoms: O_4  and  C_13 
REMARK    5  A    between atoms: O_5  and  C_14 
REMARK    6  A    between atoms: O_6  and  C_17 
REMARK    7  A    between atoms: O_9  and  C_20 
REMARK    8  A    between atoms: O_10  and  C_23 
REMARK    9  A    between atoms: C_16  and  C_17 
REMARK   10  A    between atoms: C_25  and  C_27 
ROOT
HETATM    1  O   UNK     0     -49.766  -8.901  19.047  0.00  0.00    -0.340 OA
HETATM    2  C   UNK     0     -50.765  -8.118  21.625  0.00  0.00     0.183 C 
HETATM    3  C   UNK     0     -51.502  -7.788  20.326  0.00  0.00     0.205 C 
HETATM    4  C   UNK     0     -49.818  -9.304  21.444  0.00  0.00     0.189 C 
HETATM    5  C   UNK     0     -50.533  -7.704  19.146  0.00  0.00     0.299 C 
HETATM    6  C   UNK     0     -48.959  -9.124  20.198  0.00  0.00     0.253 C 
ENDROOT
BRANCH   5   7
HETATM    7  O   UNK     0     -51.302  -7.524  17.957  0.00  0.00    -0.315 OA
BRANCH   7   8
HETATM    8  C   UNK     0     -51.086  -6.373  17.258  0.00  0.00     0.110 A 
HETATM    9  C   UNK     0     -49.838  -5.754  17.329  0.00  0.00     0.078 A 
HETATM   10  C   UNK     0     -49.606  -4.576  16.617  0.00  0.00     0.096 A 
HETATM   11  O   UNK     0     -48.360  -4.014  16.726  0.00  0.00    -0.309 OA
HETATM   12  C   UNK     0     -50.621  -4.021  15.840  0.00  0.00     0.084 A 
HETATM   13  C   UNK     0     -48.098  -2.847  16.024  0.00  0.00     0.090 A 
HETATM   14  C   UNK     0     -48.992  -2.215  15.249  0.00  0.00     0.094 A 
HETATM   15  C   UNK     0     -50.350  -2.778  15.102  0.00  0.00     0.190 A 
HETATM   16  O   UNK     0     -51.194  -2.234  14.403  0.00  0.00    -0.287 OA
HETATM   17  C   UNK     0     -51.872  -4.638  15.767  0.00  0.00     0.118 A 
HETATM   18  C   UNK     0     -52.101  -5.815  16.479  0.00  0.00     0.134 A 
BRANCH  13  19
HETATM   19  C   UNK     0     -46.729  -2.326  16.216  0.00  0.00    -0.002 A 
HETATM   20  C   UNK     0     -46.145  -1.514  15.240  0.00  0.00     0.014 A 
HETATM   21  C   UNK     0     -44.852  -1.021  15.422  0.00  0.00     0.001 A 
HETATM   22  C   UNK     0     -44.141  -1.337  16.579  0.00  0.00     0.000 A 
HETATM   23  C   UNK     0     -44.721  -2.147  17.555  0.00  0.00     0.001 A 
HETATM   24  C   UNK     0     -46.014  -2.640  17.373  0.00  0.00     0.014 A 
ENDBRANCH  13  19
BRANCH  17  25
HETATM   25  O   UNK     0     -52.888  -4.124  15.017  0.00  0.00    -0.357 OA
HETATM   26  H   UNK     0     -53.350  -3.420  15.498  0.00  0.00     0.217 HD
ENDBRANCH  17  25
BRANCH  18  27
HETATM   27  O   UNK     0     -53.320  -6.426  16.415  0.00  0.00    -0.356 OA
HETATM   28  H   UNK     0     -53.664  -6.334  15.509  0.00  0.00     0.218 HD
ENDBRANCH  18  27
ENDBRANCH   7   8
ENDBRANCH   5   7
BRANCH   6  29
HETATM   29  C   UNK     0     -48.228 -10.384  19.866  0.00  0.00     0.172 C 
HETATM   30  O   UNK     0     -47.177 -10.443  19.245  0.00  0.00    -0.648 OA
BRANCH  29  31
HETATM   31  O   UNK     0     -48.893 -11.464  20.345  0.00  0.00    -0.774 OA
HETATM   32  H   UNK     0     -49.439 -11.240  21.128  0.00  0.00     0.167 HD
ENDBRANCH  29  31
ENDBRANCH   6  29
BRANCH   3  33
HETATM   33  O   UNK     0     -52.156  -6.526  20.460  0.00  0.00    -0.388 OA
HETATM   34  H   UNK     0     -51.715  -5.901  19.861  0.00  0.00     0.210 HD
ENDBRANCH   3  33
BRANCH   4  35
HETATM   35  O   UNK     0     -48.962  -9.395  22.580  0.00  0.00    -0.390 OA
HETATM   36  H   UNK     0     -48.088  -9.694  22.276  0.00  0.00     0.210 HD
ENDBRANCH   4  35
BRANCH   2  37
HETATM   37  O   UNK     0     -51.713  -8.459  22.637  0.00  0.00    -0.390 OA
HETATM   38  H   UNK     0     -51.227  -8.567  23.472  0.00  0.00     0.210 HD
ENDBRANCH   2  37
TORSDOF 10
ENDMDL
MODEL 3
REMARK VINA RESULT:      -8.0      1.712      2.939
REMARK  10 active torsions:
REMARK  status: ('A' for Active; 'I' for Inactive)
REMARK    1  A    between atoms: O_2  and  C_15 
REMARK    2  A    between atoms: O_2  and  C_18 
REMARK    3  A    between atoms: O_3  and  C_12 
REMARK    4  A    between atoms: O_4  and  C_13 
REMARK    5  A    between atoms: O_5  and  C_14 
REMARK    6  A    between atoms: O_6  and  C_17 
REMARK    7  A    between atoms: O_9  and  C_20 
REMARK    8  A    between atoms: O_10  and  C_23 
REMARK    9  A    between atoms: C_16  and  C_17 
REMARK   10  A    between atoms: C_25  and  C_27 
ROOT
HETATM    1  O   UNK     0     -47.110  -9.639  18.892  0.00  0.00    -0.340 OA
HETATM    2  C   UNK     0     -48.086 -10.377  21.492  0.00  0.00     0.183 C 
HETATM    3  C   UNK     0     -49.023 -10.039  20.332  0.00  0.00     0.205 C 
HETATM    4  C   UNK     0     -46.705 -10.796  20.991  0.00  0.00     0.189 C 
HETATM    5  C   UNK     0     -48.350  -9.093  19.336  0.00  0.00     0.299 C 
HETATM    6  C   UNK     0     -46.181  -9.806  19.957  0.00  0.00     0.253 C 
ENDROOT
BRANCH   5   7
HETATM    7  O   UNK     0     -49.230  -8.928  18.223  0.00  0.00    -0.315 OA
BRANCH   7   8
HETATM    8  C   UNK     0     -49.536  -7.646  17.871  0.00  0.00     0.110 A 
HETATM    9  C   UNK     0     -48.505  -6.733  17.651  0.00  0.00     0.078 A 
HETATM   10  C   UNK     0     -48.807  -5.419  17.290  0.00  0.00     0.096 A 
HETATM   11  O   UNK     0     -47.752  -4.567  17.087  0.00  0.00    -0.309 OA
HETATM   12  C   UNK     0     -50.137  -5.024  17.153  0.00  0.00     0.084 A 
HETATM   13  C   UNK     0     -48.022  -3.257  16.721  0.00  0.00     0.090 A 
HETATM   14  C   UNK     0     -49.257  -2.756  16.563  0.00  0.00     0.094 A 
HETATM   15  C   UNK     0     -50.427  -3.632  16.774  0.00  0.00     0.190 A 
HETATM   16  O   UNK     0     -51.570  -3.215  16.639  0.00  0.00    -0.287 OA
HETATM   17  C   UNK     0     -51.172  -5.935  17.373  0.00  0.00     0.118 A 
HETATM   18  C   UNK     0     -50.866  -7.248  17.733  0.00  0.00     0.134 A 
BRANCH  13  19
HETATM   19  C   UNK     0     -46.816  -2.426  16.533  0.00  0.00    -0.002 A 
HETATM   20  C   UNK     0     -46.778  -1.463  15.520  0.00  0.00     0.014 A 
HETATM   21  C   UNK     0     -45.639  -0.678  15.343  0.00  0.00     0.001 A 
HETATM   22  C   UNK     0     -44.535  -0.851  16.177  0.00  0.00     0.000 A 
HETATM   23  C   UNK     0     -44.569  -1.810  17.189  0.00  0.00     0.001 A 
HETATM   24  C   UNK     0     -45.708  -2.596  17.366  0.00  0.00     0.014 A 
ENDBRANCH  13  19
BRANCH  17  25
HETATM   25  O   UNK     0     -52.483  -5.584  17.248  0.00  0.00    -0.357 OA
HETATM   26  H   UNK     0     -52.588  -4.870  16.601  0.00  0.00     0.217 HD
ENDBRANCH  17  25
BRANCH  18  27
HETATM   27  O   UNK     0     -51.869  -8.148  17.951  0.00  0.00    -0.356 OA
HETATM   28  H   UNK     0     -52.213  -8.013  18.852  0.00  0.00     0.218 HD
ENDBRANCH  18  27
ENDBRANCH   7   8
ENDBRANCH   5   7
BRANCH   6  29
HETATM   29  C   UNK     0     -44.966 -10.341  19.272  0.00  0.00     0.172 C 
HETATM   30  O   UNK     0     -44.262 -11.246  19.695  0.00  0.00    -0.648 OA
BRANCH  29  31
HETATM   31  O   UNK     0     -44.743  -9.681  18.109  0.00  0.00    -0.774 OA
HETATM   32  H   UNK     0     -45.580  -9.427  17.665  0.00  0.00     0.167 HD
ENDBRANCH  29  31
ENDBRANCH   6  29
BRANCH   3  33
HETATM   33  O   UNK     0     -50.193  -9.398  20.838  0.00  0.00    -0.388 OA
HETATM   34  H   UNK     0     -50.861 -10.085  20.995  0.00  0.00     0.210 HD
ENDBRANCH   3  33
BRANCH   4  35
HETATM   35  O   UNK     0     -45.799 -10.830  22.092  0.00  0.00    -0.390 OA
HETATM   36  H   UNK     0     -45.758  -9.938  22.476  0.00  0.00     0.210 HD
ENDBRANCH   4  35
BRANCH   2  37
HETATM   37  O   UNK     0     -48.632 -11.461  22.245  0.00  0.00    -0.390 OA
HETATM   38  H   UNK     0     -49.530 -11.627  21.913  0.00  0.00     0.210 HD
ENDBRANCH   2  37
TORSDOF 10
ENDMDL
MODEL 4
REMARK VINA RESULT:      -8.0      2.356      7.947
REMARK  10 active torsions:
REMARK  status: ('A' for Active; 'I' for Inactive)
REMARK    1  A    between atoms: O_2  and  C_15 
REMARK    2  A    between atoms: O_2  and  C_18 
REMARK    3  A    between atoms: O_3  and  C_12 
REMARK    4  A    between atoms: O_4  and  C_13 
REMARK    5  A    between atoms: O_5  and  C_14 
REMARK    6  A    between atoms: O_6  and  C_17 
REMARK    7  A    between atoms: O_9  and  C_20 
REMARK    8  A    between atoms: O_10  and  C_23 
REMARK    9  A    between atoms: C_16  and  C_17 
REMARK   10  A    between atoms: C_25  and  C_27 
ROOT
HETATM    1  O   UNK     0     -48.087  -1.030  16.799  0.00  0.00    -0.340 OA
HETATM    2  C   UNK     0     -45.343  -1.358  16.011  0.00  0.00     0.183 C 
HETATM    3  C   UNK     0     -46.507  -1.841  15.145  0.00  0.00     0.205 C 
HETATM    4  C   UNK     0     -45.787  -0.265  16.983  0.00  0.00     0.189 C 
HETATM    5  C   UNK     0     -47.736  -2.156  15.997  0.00  0.00     0.299 C 
HETATM    6  C   UNK     0     -47.057  -0.679  17.717  0.00  0.00     0.253 C 
ENDROOT
BRANCH   5   7
HETATM    7  O   UNK     0     -48.814  -2.473  15.116  0.00  0.00    -0.315 OA
BRANCH   7   8
HETATM    8  C   UNK     0     -49.705  -3.409  15.553  0.00  0.00     0.110 A 
HETATM    9  C   UNK     0     -49.273  -4.412  16.420  0.00  0.00     0.078 A 
HETATM   10  C   UNK     0     -50.177  -5.374  16.874  0.00  0.00     0.096 A 
HETATM   11  O   UNK     0     -49.694  -6.336  17.724  0.00  0.00    -0.309 OA
HETATM   12  C   UNK     0     -51.506  -5.330  16.458  0.00  0.00     0.084 A 
HETATM   13  C   UNK     0     -50.570  -7.300  18.196  0.00  0.00     0.090 A 
HETATM   14  C   UNK     0     -51.869  -7.368  17.866  0.00  0.00     0.094 A 
HETATM   15  C   UNK     0     -52.437  -6.358  16.950  0.00  0.00     0.190 A 
HETATM   16  O   UNK     0     -53.617  -6.382  16.626  0.00  0.00    -0.287 OA
HETATM   17  C   UNK     0     -51.943  -4.327  15.590  0.00  0.00     0.118 A 
HETATM   18  C   UNK     0     -51.037  -3.367  15.139  0.00  0.00     0.134 A 
BRANCH  13  19
HETATM   19  C   UNK     0     -49.946  -8.288  19.100  0.00  0.00    -0.002 A 
HETATM   20  C   UNK     0     -50.272  -8.300  20.459  0.00  0.00     0.014 A 
HETATM   21  C   UNK     0     -49.682  -9.234  21.312  0.00  0.00     0.001 A 
HETATM   22  C   UNK     0     -48.767 -10.158  20.809  0.00  0.00     0.000 A 
HETATM   23  C   UNK     0     -48.439 -10.149  19.453  0.00  0.00     0.001 A 
HETATM   24  C   UNK     0     -49.028  -9.215  18.600  0.00  0.00     0.014 A 
ENDBRANCH  13  19
BRANCH  17  25
HETATM   25  O   UNK     0     -53.236  -4.253  15.164  0.00  0.00    -0.357 OA
HETATM   26  H   UNK     0     -53.844  -4.568  15.850  0.00  0.00     0.217 HD
ENDBRANCH  17  25
BRANCH  18  27
HETATM   27  O   UNK     0     -51.452  -2.382  14.290  0.00  0.00    -0.356 OA
HETATM   28  H   UNK     0     -51.228  -1.521  14.684  0.00  0.00     0.218 HD
ENDBRANCH  18  27
ENDBRANCH   7   8
ENDBRANCH   5   7
BRANCH   6  29
HETATM   29  C   UNK     0     -47.643   0.475  18.464  0.00  0.00     0.172 C 
HETATM   30  O   UNK     0     -48.667   0.433  19.130  0.00  0.00    -0.648 OA
BRANCH  29  31
HETATM   31  O   UNK     0     -46.884   1.586  18.301  0.00  0.00    -0.774 OA
HETATM   32  H   UNK     0     -47.327   2.253  17.735  0.00  0.00     0.167 HD
ENDBRANCH  29  31
ENDBRANCH   6  29
BRANCH   3  33
HETATM   33  O   UNK     0     -46.123  -3.031  14.456  0.00  0.00    -0.388 OA
HETATM   34  H   UNK     0     -46.724  -3.741  14.736  0.00  0.00     0.210 HD
ENDBRANCH   3  33
BRANCH   4  35
HETATM   35  O   UNK     0     -44.755  -0.048  17.943  0.00  0.00    -0.390 OA
HETATM   36  H   UNK     0     -44.546  -0.901  18.360  0.00  0.00     0.210 HD
ENDBRANCH   4  35
BRANCH   2  37
HETATM   37  O   UNK     0     -44.320  -0.816  15.174  0.00  0.00    -0.390 OA
HETATM   38  H   UNK     0     -44.064  -1.504  14.538  0.00  0.00     0.210 HD
ENDBRANCH   2  37
TORSDOF 10
ENDMDL
MODEL 5
REMARK VINA RESULT:      -8.0      7.747     13.695
REMARK  10 active torsions:
REMARK  status: ('A' for Active; 'I' for Inactive)
REMARK    1  A    between atoms: O_2  and  C_15 
REMARK    2  A    between atoms: O_2  and  C_18 
REMARK    3  A    between atoms: O_3  and  C_12 
REMARK    4  A    between atoms: O_4  and  C_13 
REMARK    5  A    between atoms: O_5  and  C_14 
REMARK    6  A    between atoms: O_6  and  C_17 
REMARK    7  A    between atoms: O_9  and  C_20 
REMARK    8  A    between atoms: O_10  and  C_23 
REMARK    9  A    between atoms: C_16  and  C_17 
REMARK   10  A    between atoms: C_25  and  C_27 
ROOT
HETATM    1  O   UNK     0     -48.072 -12.951  21.226  0.00  0.00    -0.340 OA
HETATM    2  C   UNK     0     -45.756 -12.018  19.803  0.00  0.00     0.183 C 
HETATM    3  C   UNK     0     -46.190 -13.484  19.789  0.00  0.00     0.205 C 
HETATM    4  C   UNK     0     -46.920 -11.094  20.159  0.00  0.00     0.189 C 
HETATM    5  C   UNK     0     -46.972 -13.841  21.054  0.00  0.00     0.299 C 
HETATM    6  C   UNK     0     -47.653 -11.601  21.396  0.00  0.00     0.253 C 
ENDROOT
BRANCH   5   7
HETATM    7  O   UNK     0     -47.452 -15.179  20.912  0.00  0.00    -0.315 OA
BRANCH   7   8
HETATM    8  C   UNK     0     -47.524 -15.926  22.050  0.00  0.00     0.110 A 
HETATM    9  C   UNK     0     -47.571 -15.284  23.288  0.00  0.00     0.078 A 
HETATM   10  C   UNK     0     -47.644 -16.040  24.459  0.00  0.00     0.096 A 
HETATM   11  O   UNK     0     -47.687 -15.353  25.645  0.00  0.00    -0.309 OA
HETATM   12  C   UNK     0     -47.670 -17.431  24.389  0.00  0.00     0.084 A 
HETATM   13  C   UNK     0     -47.767 -16.077  26.825  0.00  0.00     0.090 A 
HETATM   14  C   UNK     0     -47.793 -17.418  26.889  0.00  0.00     0.094 A 
HETATM   15  C   UNK     0     -47.746 -18.203  25.639  0.00  0.00     0.190 A 
HETATM   16  O   UNK     0     -47.770 -19.427  25.652  0.00  0.00    -0.287 OA
HETATM   17  C   UNK     0     -47.624 -18.078  23.151  0.00  0.00     0.118 A 
HETATM   18  C   UNK     0     -47.550 -17.320  21.983  0.00  0.00     0.134 A 
BRANCH  13  19
HETATM   19  C   UNK     0     -47.803 -15.240  28.042  0.00  0.00    -0.002 A 
HETATM   20  C   UNK     0     -46.932 -15.507  29.102  0.00  0.00     0.014 A 
HETATM   21  C   UNK     0     -46.965 -14.715  30.250  0.00  0.00     0.001 A 
HETATM   22  C   UNK     0     -47.868 -13.656  30.343  0.00  0.00     0.000 A 
HETATM   23  C   UNK     0     -48.739 -13.388  29.286  0.00  0.00     0.001 A 
HETATM   24  C   UNK     0     -48.705 -14.179  28.138  0.00  0.00     0.014 A 
ENDBRANCH  13  19
BRANCH  17  25
HETATM   25  O   UNK     0     -47.647 -19.437  23.045  0.00  0.00    -0.357 OA
HETATM   26  H   UNK     0     -46.748 -19.798  23.038  0.00  0.00     0.217 HD
ENDBRANCH  17  25
BRANCH  18  27
HETATM   27  O   UNK     0     -47.504 -17.940  20.768  0.00  0.00    -0.356 OA
HETATM   28  H   UNK     0     -46.652 -18.405  20.692  0.00  0.00     0.218 HD
ENDBRANCH  18  27
ENDBRANCH   7   8
ENDBRANCH   5   7
BRANCH   6  29
HETATM   29  C   UNK     0     -48.939 -10.866  21.595  0.00  0.00     0.172 C 
HETATM   30  O   UNK     0     -49.586 -10.852  22.631  0.00  0.00    -0.648 OA
BRANCH  29  31
HETATM   31  O   UNK     0     -49.297 -10.213  20.463  0.00  0.00    -0.774 OA
HETATM   32  H   UNK     0     -48.831  -9.354  20.371  0.00  0.00     0.167 HD
ENDBRANCH  29  31
ENDBRANCH   6  29
BRANCH   3  33
HETATM   33  O   UNK     0     -45.034 -14.320  19.726  0.00  0.00    -0.388 OA
HETATM   34  H   UNK     0     -44.962 -14.787  20.575  0.00  0.00     0.210 HD
ENDBRANCH   3  33
BRANCH   4  35
HETATM   35  O   UNK     0     -46.415  -9.789  20.430  0.00  0.00    -0.390 OA
HETATM   36  H   UNK     0     -46.181  -9.745  21.373  0.00  0.00     0.210 HD
ENDBRANCH   4  35
BRANCH   2  37
HETATM   37  O   UNK     0     -45.280 -11.650  18.507  0.00  0.00    -0.390 OA
HETATM   38  H   UNK     0     -44.318 -11.790  18.496  0.00  0.00     0.210 HD
ENDBRANCH   2  37
TORSDOF 10
ENDMDL
MODEL 6
REMARK VINA RESULT:      -8.0      3.878      8.295
REMARK  10 active torsions:
REMARK  status: ('A' for Active; 'I' for Inactive)
REMARK    1  A    between atoms: O_2  and  C_15 
REMARK    2  A    between atoms: O_2  and  C_18 
REMARK    3  A    between atoms: O_3  and  C_12 
REMARK    4  A    between atoms: O_4  and  C_13 
REMARK    5  A    between atoms: O_5  and  C_14 
REMARK    6  A    between atoms: O_6  and  C_17 
REMARK    7  A    between atoms: O_9  and  C_20 
REMARK    8  A    between atoms: O_10  and  C_23 
REMARK    9  A    between atoms: C_16  and  C_17 
REMARK   10  A    between atoms: C_25  and  C_27 
ROOT
HETATM    1  O   UNK     0     -46.166  -0.633  18.175  0.00  0.00    -0.340 OA
HETATM    2  C   UNK     0     -43.617  -0.411  19.483  0.00  0.00     0.183 C 
HETATM    3  C   UNK     0     -43.821  -1.256  18.225  0.00  0.00     0.205 C 
HETATM    4  C   UNK     0     -44.697   0.662  19.616  0.00  0.00     0.189 C 
HETATM    5  C   UNK     0     -45.268  -1.738  18.112  0.00  0.00     0.299 C 
HETATM    6  C   UNK     0     -46.084   0.060  19.415  0.00  0.00     0.253 C 
ENDROOT
BRANCH   5   7
HETATM    7  O   UNK     0     -45.413  -2.406  16.858  0.00  0.00    -0.315 OA
BRANCH   7   8
HETATM    8  C   UNK     0     -46.592  -2.217  16.198  0.00  0.00     0.110 A 
HETATM    9  C   UNK     0     -47.656  -3.088  16.437  0.00  0.00     0.078 A 
HETATM   10  C   UNK     0     -48.867  -2.903  15.768  0.00  0.00     0.096 A 
HETATM   11  O   UNK     0     -49.875  -3.791  16.042  0.00  0.00    -0.309 OA
HETATM   12  C   UNK     0     -49.009  -1.852  14.864  0.00  0.00     0.084 A 
HETATM   13  C   UNK     0     -51.092  -3.628  15.398  0.00  0.00     0.090 A 
HETATM   14  C   UNK     0     -51.350  -2.660  14.504  0.00  0.00     0.094 A 
HETATM   15  C   UNK     0     -50.295  -1.682  14.171  0.00  0.00     0.190 A 
HETATM   16  O   UNK     0     -50.490  -0.783  13.363  0.00  0.00    -0.287 OA
HETATM   17  C   UNK     0     -47.946  -0.978  14.622  0.00  0.00     0.118 A 
HETATM   18  C   UNK     0     -46.737  -1.165  15.293  0.00  0.00     0.134 A 
BRANCH  13  19
HETATM   19  C   UNK     0     -52.105  -4.639  15.763  0.00  0.00    -0.002 A 
HETATM   20  C   UNK     0     -53.339  -4.665  15.107  0.00  0.00     0.014 A 
HETATM   21  C   UNK     0     -54.295  -5.621  15.452  0.00  0.00     0.001 A 
HETATM   22  C   UNK     0     -54.020  -6.554  16.452  0.00  0.00     0.000 A 
HETATM   23  C   UNK     0     -52.790  -6.531  17.108  0.00  0.00     0.001 A 
HETATM   24  C   UNK     0     -51.834  -5.575  16.764  0.00  0.00     0.014 A 
ENDBRANCH  13  19
BRANCH  17  25
HETATM   25  O   UNK     0     -48.049   0.061  13.746  0.00  0.00    -0.357 OA
HETATM   26  H   UNK     0     -47.230   0.578  13.726  0.00  0.00     0.217 HD
ENDBRANCH  17  25
BRANCH  18  27
HETATM   27  O   UNK     0     -45.691  -0.318  15.065  0.00  0.00    -0.356 OA
HETATM   28  H   UNK     0     -46.045   0.578  14.928  0.00  0.00     0.218 HD
ENDBRANCH  18  27
ENDBRANCH   7   8
ENDBRANCH   5   7
BRANCH   6  29
HETATM   29  C   UNK     0     -47.117   1.131  19.279  0.00  0.00     0.172 C 
HETATM   30  O   UNK     0     -47.315   2.023  20.091  0.00  0.00    -0.648 OA
BRANCH  29  31
HETATM   31  O   UNK     0     -47.815   0.979  18.127  0.00  0.00    -0.774 OA
HETATM   32  H   UNK     0     -48.512   1.662  18.028  0.00  0.00     0.167 HD
ENDBRANCH  29  31
ENDBRANCH   6  29
BRANCH   3  33
HETATM   33  O   UNK     0     -42.971  -2.402  18.281  0.00  0.00    -0.388 OA
HETATM   34  H   UNK     0     -42.136  -2.171  17.839  0.00  0.00     0.210 HD
ENDBRANCH   3  33
BRANCH   4  35
HETATM   35  O   UNK     0     -44.631   1.232  20.921  0.00  0.00    -0.390 OA
HETATM   36  H   UNK     0     -43.726   1.111  21.257  0.00  0.00     0.210 HD
ENDBRANCH   4  35
BRANCH   2  37
HETATM   37  O   UNK     0     -42.349   0.244  19.415  0.00  0.00    -0.390 OA
HETATM   38  H   UNK     0     -42.285   0.673  18.546  0.00  0.00     0.210 HD
ENDBRANCH   2  37
TORSDOF 10
ENDMDL
MODEL 7
REMARK VINA RESULT:      -7.9     11.157     15.141
REMARK  10 active torsions:
REMARK  status: ('A' for Active; 'I' for Inactive)
REMARK    1  A    between atoms: O_2  and  C_15 
REMARK    2  A    between atoms: O_2  and  C_18 
REMARK    3  A    between atoms: O_3  and  C_12 
REMARK    4  A    between atoms: O_4  and  C_13 
REMARK    5  A    between atoms: O_5  and  C_14 
REMARK    6  A    between atoms: O_6  and  C_17 
REMARK    7  A    between atoms: O_9  and  C_20 
REMARK    8  A    between atoms: O_10  and  C_23 
REMARK    9  A    between atoms: C_16  and  C_17 
REMARK   10  A    between atoms: C_25  and  C_27 
ROOT
HETATM    1  O   UNK     0     -46.775 -16.641  22.733  0.00  0.00    -0.340 OA
HETATM    2  C   UNK     0     -46.068 -17.984  20.293  0.00  0.00     0.183 C 
HETATM    3  C   UNK     0     -46.327 -18.738  21.598  0.00  0.00     0.205 C 
HETATM    4  C   UNK     0     -46.732 -16.607  20.303  0.00  0.00     0.189 C 
HETATM    5  C   UNK     0     -46.036 -17.857  22.813  0.00  0.00     0.299 C 
HETATM    6  C   UNK     0     -46.417 -15.864  21.596  0.00  0.00     0.253 C 
ENDROOT
BRANCH   5   7
HETATM    7  O   UNK     0     -46.422 -18.580  23.983  0.00  0.00    -0.315 OA
BRANCH   7   8
HETATM    8  C   UNK     0     -47.069 -17.871  24.953  0.00  0.00     0.110 A 
HETATM    9  C   UNK     0     -46.339 -17.351  26.021  0.00  0.00     0.078 A 
HETATM   10  C   UNK     0     -46.991 -16.624  27.019  0.00  0.00     0.096 A 
HETATM   11  O   UNK     0     -46.221 -16.138  28.044  0.00  0.00    -0.309 OA
HETATM   12  C   UNK     0     -48.368 -16.421  26.944  0.00  0.00     0.084 A 
HETATM   13  C   UNK     0     -46.840 -15.406  29.045  0.00  0.00     0.090 A 
HETATM   14  C   UNK     0     -48.157 -15.148  29.089  0.00  0.00     0.094 A 
HETATM   15  C   UNK     0     -49.030 -15.653  28.010  0.00  0.00     0.190 A 
HETATM   16  O   UNK     0     -50.235 -15.439  28.011  0.00  0.00    -0.287 OA
HETATM   17  C   UNK     0     -49.102 -16.941  25.876  0.00  0.00     0.118 A 
HETATM   18  C   UNK     0     -48.447 -17.667  24.881  0.00  0.00     0.134 A 
BRANCH  13  19
HETATM   19  C   UNK     0     -45.921 -14.934  30.101  0.00  0.00    -0.002 A 
HETATM   20  C   UNK     0     -44.592 -14.631  29.790  0.00  0.00     0.014 A 
HETATM   21  C   UNK     0     -43.724 -14.185  30.787  0.00  0.00     0.001 A 
HETATM   22  C   UNK     0     -44.181 -14.039  32.096  0.00  0.00     0.000 A 
HETATM   23  C   UNK     0     -45.507 -14.341  32.410  0.00  0.00     0.001 A 
HETATM   24  C   UNK     0     -46.375 -14.787  31.413  0.00  0.00     0.014 A 
ENDBRANCH  13  19
BRANCH  17  25
HETATM   25  O   UNK     0     -50.449 -16.762  25.770  0.00  0.00    -0.357 OA
HETATM   26  H   UNK     0     -50.654 -15.887  25.408  0.00  0.00     0.217 HD
ENDBRANCH  17  25
BRANCH  18  27
HETATM   27  O   UNK     0     -49.154 -18.180  23.832  0.00  0.00    -0.356 OA
HETATM   28  H   UNK     0     -49.854 -17.547  23.593  0.00  0.00     0.218 HD
ENDBRANCH  18  27
ENDBRANCH   7   8
ENDBRANCH   5   7
BRANCH   6  29
HETATM   29  C   UNK     0     -47.268 -14.643  21.732  0.00  0.00     0.172 C 
HETATM   30  O   UNK     0     -47.543 -13.874  20.824  0.00  0.00    -0.648 OA
BRANCH  29  31
HETATM   31  O   UNK     0     -47.695 -14.498  23.010  0.00  0.00    -0.774 OA
HETATM   32  H   UNK     0     -46.950 -14.357  23.633  0.00  0.00     0.167 HD
ENDBRANCH  29  31
ENDBRANCH   6  29
BRANCH   3  33
HETATM   33  O   UNK     0     -45.475 -19.883  21.660  0.00  0.00    -0.388 OA
HETATM   34  H   UNK     0     -46.021 -20.666  21.480  0.00  0.00     0.210 HD
ENDBRANCH   3  33
BRANCH   4  35
HETATM   35  O   UNK     0     -46.240 -15.843  19.204  0.00  0.00    -0.390 OA
HETATM   36  H   UNK     0     -46.899 -15.160  18.993  0.00  0.00     0.210 HD
ENDBRANCH   4  35
BRANCH   2  37
HETATM   37  O   UNK     0     -46.605 -18.727  19.198  0.00  0.00    -0.390 OA
HETATM   38  H   UNK     0     -45.975 -18.665  18.462  0.00  0.00     0.210 HD
ENDBRANCH   2  37
TORSDOF 10
ENDMDL
MODEL 8
REMARK VINA RESULT:      -7.9      2.174      7.779
REMARK  10 active torsions:
REMARK  status: ('A' for Active; 'I' for Inactive)
REMARK    1  A    between atoms: O_2  and  C_15 
REMARK    2  A    between atoms: O_2  and  C_18 
REMARK    3  A    between atoms: O_3  and  C_12 
REMARK    4  A    between atoms: O_4  and  C_13 
REMARK    5  A    between atoms: O_5  and  C_14 
REMARK    6  A    between atoms: O_6  and  C_17 
REMARK    7  A    between atoms: O_9  and  C_20 
REMARK    8  A    between atoms: O_10  and  C_23 
REMARK    9  A    between atoms: C_16  and  C_17 
REMARK   10  A    between atoms: C_25  and  C_27 
ROOT
HETATM    1  O   UNK     0     -47.983  -1.319  17.488  0.00  0.00    -0.340 OA
HETATM    2  C   UNK     0     -45.695  -1.180  15.754  0.00  0.00     0.183 C 
HETATM    3  C   UNK     0     -47.001  -1.855  15.334  0.00  0.00     0.205 C 
HETATM    4  C   UNK     0     -45.924  -0.176  16.884  0.00  0.00     0.189 C 
HETATM    5  C   UNK     0     -47.773  -2.371  16.549  0.00  0.00     0.299 C 
HETATM    6  C   UNK     0     -46.761  -0.796  17.997  0.00  0.00     0.253 C 
ENDROOT
BRANCH   5   7
HETATM    7  O   UNK     0     -49.031  -2.869  16.093  0.00  0.00    -0.315 OA
BRANCH   7   8
HETATM    8  C   UNK     0     -49.429  -4.074  16.592  0.00  0.00     0.110 A 
HETATM    9  C   UNK     0     -48.472  -4.953  17.100  0.00  0.00     0.078 A 
HETATM   10  C   UNK     0     -48.868  -6.189  17.614  0.00  0.00     0.096 A 
HETATM   11  O   UNK     0     -47.882  -7.010  18.099  0.00  0.00    -0.309 OA
HETATM   12  C   UNK     0     -50.216  -6.541  17.616  0.00  0.00     0.084 A 
HETATM   13  C   UNK     0     -48.247  -8.241  18.622  0.00  0.00     0.090 A 
HETATM   14  C   UNK     0     -49.509  -8.696  18.676  0.00  0.00     0.094 A 
HETATM   15  C   UNK     0     -50.605  -7.851  18.162  0.00  0.00     0.190 A 
HETATM   16  O   UNK     0     -51.770  -8.227  18.194  0.00  0.00    -0.287 OA
HETATM   17  C   UNK     0     -51.177  -5.664  17.108  0.00  0.00     0.118 A 
HETATM   18  C   UNK     0     -50.778  -4.430  16.596  0.00  0.00     0.134 A 
BRANCH  13  19
HETATM   19  C   UNK     0     -47.109  -9.046  19.112  0.00  0.00    -0.002 A 
HETATM   20  C   UNK     0     -47.328 -10.320  19.642  0.00  0.00     0.014 A 
HETATM   21  C   UNK     0     -46.253 -11.080  20.103  0.00  0.00     0.001 A 
HETATM   22  C   UNK     0     -44.957 -10.570  20.036  0.00  0.00     0.000 A 
HETATM   23  C   UNK     0     -44.735  -9.298  19.508  0.00  0.00     0.001 A 
HETATM   24  C   UNK     0     -45.810  -8.537  19.047  0.00  0.00     0.014 A 
ENDBRANCH  13  19
BRANCH  17  25
HETATM   25  O   UNK     0     -52.504  -5.975  17.095  0.00  0.00    -0.357 OA
HETATM   26  H   UNK     0     -52.668  -6.765  16.556  0.00  0.00     0.217 HD
ENDBRANCH  17  25
BRANCH  18  27
HETATM   27  O   UNK     0     -51.708  -3.564  16.096  0.00  0.00    -0.356 OA
HETATM   28  H   UNK     0     -51.527  -2.678  16.454  0.00  0.00     0.218 HD
ENDBRANCH  18  27
ENDBRANCH   7   8
ENDBRANCH   5   7
BRANCH   6  29
HETATM   29  C   UNK     0     -47.212   0.243  18.970  0.00  0.00     0.172 C 
HETATM   30  O   UNK     0     -47.654   0.015  20.087  0.00  0.00    -0.648 OA
BRANCH  29  31
HETATM   31  O   UNK     0     -47.068   1.485  18.446  0.00  0.00    -0.774 OA
HETATM   32  H   UNK     0     -46.258   1.930  18.775  0.00  0.00     0.167 HD
ENDBRANCH  29  31
ENDBRANCH   6  29
BRANCH   3  33
HETATM   33  O   UNK     0     -46.709  -2.965  14.484  0.00  0.00    -0.388 OA
HETATM   34  H   UNK     0     -46.961  -3.774  14.960  0.00  0.00     0.210 HD
ENDBRANCH   3  33
BRANCH   4  35
HETATM   35  O   UNK     0     -44.664   0.216  17.423  0.00  0.00    -0.390 OA
HETATM   36  H   UNK     0     -44.063   0.403  16.681  0.00  0.00     0.210 HD
ENDBRANCH   4  35
BRANCH   2  37
HETATM   37  O   UNK     0     -45.144  -0.474  14.641  0.00  0.00    -0.390 OA
HETATM   38  H   UNK     0     -44.441   0.105  14.978  0.00  0.00     0.210 HD
ENDBRANCH   2  37
TORSDOF 10
ENDMDL
MODEL 9
REMARK VINA RESULT:      -7.9      5.920     12.435
REMARK  10 active torsions:
REMARK  status: ('A' for Active; 'I' for Inactive)
REMARK    1  A    between atoms: O_2  and  C_15 
REMARK    2  A    between atoms: O_2  and  C_18 
REMARK    3  A    between atoms: O_3  and  C_12 
REMARK    4  A    between atoms: O_4  and  C_13 
REMARK    5  A    between atoms: O_5  and  C_14 
REMARK    6  A    between atoms: O_6  and  C_17 
REMARK    7  A    between atoms: O_9  and  C_20 
REMARK    8  A    between atoms: O_10  and  C_23 
REMARK    9  A    between atoms: C_16  and  C_17 
REMARK   10  A    between atoms: C_25  and  C_27 
ROOT
HETATM    1  O   UNK     0     -48.486 -10.737  19.793  0.00  0.00    -0.340 OA
HETATM    2  C   UNK     0     -45.987  -9.318  19.748  0.00  0.00     0.183 C 
HETATM    3  C   UNK     0     -46.119 -10.760  19.256  0.00  0.00     0.205 C 
HETATM    4  C   UNK     0     -47.335  -8.597  19.730  0.00  0.00     0.189 C 
HETATM    5  C   UNK     0     -47.277 -11.477  19.950  0.00  0.00     0.299 C 
HETATM    6  C   UNK     0     -48.412  -9.448  20.391  0.00  0.00     0.253 C 
ENDROOT
BRANCH   5   7
HETATM    7  O   UNK     0     -47.420 -12.766  19.351  0.00  0.00    -0.315 OA
BRANCH   7   8
HETATM    8  C   UNK     0     -47.207 -13.843  20.160  0.00  0.00     0.110 A 
HETATM    9  C   UNK     0     -47.705 -13.827  21.464  0.00  0.00     0.078 A 
HETATM   10  C   UNK     0     -47.493 -14.924  22.300  0.00  0.00     0.096 A 
HETATM   11  O   UNK     0     -48.005 -14.851  23.570  0.00  0.00    -0.309 OA
HETATM   12  C   UNK     0     -46.786 -16.030  21.832  0.00  0.00     0.084 A 
HETATM   13  C   UNK     0     -47.816 -15.929  24.422  0.00  0.00     0.090 A 
HETATM   14  C   UNK     0     -47.150 -17.046  24.090  0.00  0.00     0.094 A 
HETATM   15  C   UNK     0     -46.576 -17.172  22.735  0.00  0.00     0.190 A 
HETATM   16  O   UNK     0     -45.963 -18.174  22.392  0.00  0.00    -0.287 OA
HETATM   17  C   UNK     0     -46.287 -16.050  20.527  0.00  0.00     0.118 A 
HETATM   18  C   UNK     0     -46.500 -14.952  19.694  0.00  0.00     0.134 A 
BRANCH  13  19
HETATM   19  C   UNK     0     -48.403 -15.743  25.764  0.00  0.00    -0.002 A 
HETATM   20  C   UNK     0     -48.024 -14.652  26.551  0.00  0.00     0.014 A 
HETATM   21  C   UNK     0     -48.580 -14.476  27.818  0.00  0.00     0.001 A 
HETATM   22  C   UNK     0     -49.515 -15.390  28.304  0.00  0.00     0.000 A 
HETATM   23  C   UNK     0     -49.895 -16.481  27.521  0.00  0.00     0.001 A 
HETATM   24  C   UNK     0     -49.340 -16.656  26.254  0.00  0.00     0.014 A 
ENDBRANCH  13  19
BRANCH  17  25
HETATM   25  O   UNK     0     -45.591 -17.114  20.036  0.00  0.00    -0.357 OA
HETATM   26  H   UNK     0     -45.090 -16.863  19.245  0.00  0.00     0.217 HD
ENDBRANCH  17  25
BRANCH  18  27
HETATM   27  O   UNK     0     -46.017 -14.959  18.417  0.00  0.00    -0.356 OA
HETATM   28  H   UNK     0     -45.765 -14.050  18.179  0.00  0.00     0.218 HD
ENDBRANCH  18  27
ENDBRANCH   7   8
ENDBRANCH   5   7
BRANCH   6  29
HETATM   29  C   UNK     0     -49.771  -8.877  20.145  0.00  0.00     0.172 C 
HETATM   30  O   UNK     0     -50.064  -8.135  19.219  0.00  0.00    -0.648 OA
BRANCH  29  31
HETATM   31  O   UNK     0     -50.644  -9.293  21.095  0.00  0.00    -0.774 OA
HETATM   32  H   UNK     0     -50.524 -10.242  21.314  0.00  0.00     0.167 HD
ENDBRANCH  29  31
ENDBRANCH   6  29
BRANCH   3  33
HETATM   33  O   UNK     0     -44.915 -11.471  19.545  0.00  0.00    -0.388 OA
HETATM   34  H   UNK     0     -45.108 -12.098  20.261  0.00  0.00     0.210 HD
ENDBRANCH   3  33
BRANCH   4  35
HETATM   35  O   UNK     0     -47.217  -7.370  20.446  0.00  0.00    -0.390 OA
HETATM   36  H   UNK     0     -46.799  -6.717  19.859  0.00  0.00     0.210 HD
ENDBRANCH   4  35
BRANCH   2  37
HETATM   37  O   UNK     0     -45.091  -8.604  18.895  0.00  0.00    -0.390 OA
HETATM   38  H   UNK     0     -44.965  -9.133  18.090  0.00  0.00     0.210 HD
ENDBRANCH   2  37
TORSDOF 10
ENDMDL
MODEL 10
REMARK VINA RESULT:      -7.7      7.303     13.679
REMARK  10 active torsions:
REMARK  status: ('A' for Active; 'I' for Inactive)
REMARK    1  A    between atoms: O_2  and  C_15 
REMARK    2  A    between atoms: O_2  and  C_18 
REMARK    3  A    between atoms: O_3  and  C_12 
REMARK    4  A    between atoms: O_4  and  C_13 
REMARK    5  A    between atoms: O_5  and  C_14 
REMARK    6  A    between atoms: O_6  and  C_17 
REMARK    7  A    between atoms: O_9  and  C_20 
REMARK    8  A    between atoms: O_10  and  C_23 
REMARK    9  A    between atoms: C_16  and  C_17 
REMARK   10  A    between atoms: C_25  and  C_27 
ROOT
HETATM    1  O   UNK     0     -46.176 -12.254  21.682  0.00  0.00    -0.340 OA
HETATM    2  C   UNK     0     -47.181 -10.851  19.385  0.00  0.00     0.183 C 
HETATM    3  C   UNK     0     -47.991 -11.929  20.105  0.00  0.00     0.205 C 
HETATM    4  C   UNK     0     -46.107 -10.258  20.296  0.00  0.00     0.189 C 
HETATM    5  C   UNK     0     -47.076 -12.932  20.808  0.00  0.00     0.299 C 
HETATM    6  C   UNK     0     -45.313 -11.362  20.984  0.00  0.00     0.253 C 
ENDROOT
BRANCH   5   7
HETATM    7  O   UNK     0     -47.896 -13.826  21.560  0.00  0.00    -0.315 OA
BRANCH   7   8
HETATM    8  C   UNK     0     -47.507 -15.133  21.591  0.00  0.00     0.110 A 
HETATM    9  C   UNK     0     -47.207 -15.785  20.395  0.00  0.00     0.078 A 
HETATM   10  C   UNK     0     -46.807 -17.122  20.416  0.00  0.00     0.096 A 
HETATM   11  O   UNK     0     -46.526 -17.710  19.209  0.00  0.00    -0.309 OA
HETATM   12  C   UNK     0     -46.710 -17.801  21.629  0.00  0.00     0.084 A 
HETATM   13  C   UNK     0     -46.120 -19.036  19.199  0.00  0.00     0.090 A 
HETATM   14  C   UNK     0     -45.994 -19.796  20.298  0.00  0.00     0.094 A 
HETATM   15  C   UNK     0     -46.288 -19.210  21.621  0.00  0.00     0.190 A 
HETATM   16  O   UNK     0     -46.184 -19.868  22.648  0.00  0.00    -0.287 OA
HETATM   17  C   UNK     0     -47.010 -17.151  22.829  0.00  0.00     0.118 A 
HETATM   18  C   UNK     0     -47.409 -15.815  22.805  0.00  0.00     0.134 A 
BRANCH  13  19
HETATM   19  C   UNK     0     -45.848 -19.570  17.849  0.00  0.00    -0.002 A 
HETATM   20  C   UNK     0     -46.324 -18.898  16.720  0.00  0.00     0.014 A 
HETATM   21  C   UNK     0     -46.066 -19.402  15.445  0.00  0.00     0.001 A 
HETATM   22  C   UNK     0     -45.331 -20.578  15.294  0.00  0.00     0.000 A 
HETATM   23  C   UNK     0     -44.855 -21.251  16.419  0.00  0.00     0.001 A 
HETATM   24  C   UNK     0     -45.113 -20.747  17.694  0.00  0.00     0.014 A 
ENDBRANCH  13  19
BRANCH  17  25
HETATM   25  O   UNK     0     -46.925 -17.783  24.033  0.00  0.00    -0.357 OA
HETATM   26  H   UNK     0     -47.426 -17.303  24.710  0.00  0.00     0.217 HD
ENDBRANCH  17  25
BRANCH  18  27
HETATM   27  O   UNK     0     -47.704 -15.169  23.971  0.00  0.00    -0.356 OA
HETATM   28  H   UNK     0     -48.583 -14.760  23.882  0.00  0.00     0.218 HD
ENDBRANCH  18  27
ENDBRANCH   7   8
ENDBRANCH   5   7
BRANCH   6  29
HETATM   29  C   UNK     0     -44.448 -10.804  22.067  0.00  0.00     0.172 C 
HETATM   30  O   UNK     0     -43.876  -9.725  22.023  0.00  0.00    -0.648 OA
BRANCH  29  31
HETATM   31  O   UNK     0     -44.379 -11.662  23.114  0.00  0.00    -0.774 OA
HETATM   32  H   UNK     0     -43.635 -12.295  23.021  0.00  0.00     0.167 HD
ENDBRANCH  29  31
ENDBRANCH   6  29
BRANCH   3  33
HETATM   33  O   UNK     0     -48.786 -12.639  19.154  0.00  0.00    -0.388 OA
HETATM   34  H   UNK     0     -49.040 -13.486  19.557  0.00  0.00     0.210 HD
ENDBRANCH   3  33
BRANCH   4  35
HETATM   35  O   UNK     0     -45.212  -9.472  19.512  0.00  0.00    -0.390 OA
HETATM   36  H   UNK     0     -45.641  -9.287  18.659  0.00  0.00     0.210 HD
ENDBRANCH   4  35
BRANCH   2  37
HETATM   37  O   UNK     0     -48.051  -9.793  18.980  0.00  0.00    -0.390 OA
HETATM   38  H   UNK     0     -48.249  -9.918  18.037  0.00  0.00     0.210 HD
ENDBRANCH   2  37
TORSDOF 10
ENDMDL
