MODEL 1
REMARK VINA RESULT:      -8.1      0.000      0.000
REMARK  13 active torsions:
REMARK  status: ('A' for Active; 'I' for Inactive)
REMARK    1  A    between atoms: C_5  and  N_6 
REMARK    2  A    between atoms: C_9  and  N_10 
REMARK    3  A    between atoms: N_10  and  C_11 
REMARK    4  A    between atoms: C_11  and  C_12 
REMARK    5  A    between atoms: C_12  and  C_13 
REMARK    6  A    between atoms: C_13  and  C_14 
REMARK    7  A    between atoms: C_14  and  C_15 
REMARK    8  A    between atoms: C_15  and  C_16 
REMARK    9  A    between atoms: C_16  and  N_17 
REMARK       I    between atoms: N_17  and  C_18 
REMARK   10  A    between atoms: C_18  and  C_20 
REMARK   11  A    between atoms: C_25  and  N_26 
REMARK       I    between atoms: N_26  and  C_27 
REMARK   12  A    between atoms: C_27  and  C_29 
REMARK   13  A    between atoms: C_29  and  C_30 
ROOT
HETATM    1  O   MOL     1     -42.828  -0.110  20.313  1.00 -0.03    -0.273 OA
HETATM    2  C   MOL     1     -43.654  -0.331  19.444  1.00 -0.41     0.224 C 
HETATM    3  C   MOL     1     -43.442  -1.406  18.403  1.00 -0.27     0.106 C 
HETATM    4  C   MOL     1     -44.762  -2.027  17.939  1.00 -0.23     0.044 C 
HETATM    5  C   MOL     1     -45.599  -0.863  17.399  1.00 -0.30     0.180 C 
HETATM    6  C   MOL     1     -45.822   0.199  18.454  1.00 -0.49     0.247 C 
HETATM    7  O   MOL     1     -46.845   0.861  18.487  1.00 -0.12    -0.271 OA
HETATM    8  N   MOL     1     -44.817   0.353  19.344  1.00 -0.04    -0.296 N 
HETATM    9  HN  MOL     1     -44.941   0.979  19.951  1.00 -0.27     0.171 HD
ENDROOT
BRANCH   5  10
HETATM   10  N   MOL     1     -46.874  -1.348  16.847  1.00  0.05    -0.337 N 
HETATM   11  C   MOL     1     -47.738  -2.294  17.573  1.00 -0.25     0.138 C 
HETATM   12  C   MOL     1     -48.351  -2.860  16.279  1.00 -0.27     0.070 C 
HETATM   13  C   MOL     1     -49.490  -3.855  16.242  1.00 -0.20     0.011 C 
HETATM   14  C   MOL     1     -48.655  -1.615  15.440  1.00 -0.40     0.112 C 
HETATM   15  C   MOL     1     -50.211  -3.980  15.116  1.00 -0.28     0.025 C 
HETATM   16  C   MOL     1     -49.896  -3.156  13.948  1.00 -0.47    -0.001 C 
HETATM   17  C   MOL     1     -49.169  -2.049  14.091  1.00 -0.52    -0.012 C 
HETATM   18  C   MOL     1     -47.314  -0.968  15.637  1.00 -0.44     0.229 C 
HETATM   19  O   MOL     1     -46.739  -0.238  14.842  1.00 -0.63    -0.273 OA
BRANCH  13  20
HETATM   20  N   MOL     1     -49.640  -4.564  17.398  1.00  0.04    -0.393 N 
HETATM   21  HN  MOL     1     -48.940  -4.994  17.719  1.00 -0.01     0.159 HD
BRANCH  20  22
HETATM   22  C   MOL     1     -50.729  -4.237  18.329  1.00 -0.24     0.119 C 
BRANCH  22  23
HETATM   23  C   MOL     1     -51.861  -5.275  18.361  1.00 -0.09     0.020 C 
BRANCH  23  24
HETATM   24  C   MOL     1     -51.449  -6.458  17.472  1.00 -0.19     0.002 C 
BRANCH  24  25
HETATM   25  C   MOL     1     -51.419  -7.758  18.289  1.00 -0.35     0.002 C 
BRANCH  25  26
HETATM   26  C   MOL     1     -50.046  -7.870  18.969  1.00 -0.42     0.020 C 
BRANCH  26  27
HETATM   27  C   MOL     1     -49.289  -9.092  18.430  1.00 -0.29     0.123 C 
BRANCH  27  28
HETATM   28  N   MOL     1     -47.866  -8.948  18.772  1.00 -0.04    -0.357 N 
HETATM   29  C   MOL     1     -47.236  -9.926  19.459  1.00 -0.29     0.254 C 
HETATM   30  O   MOL     1     -47.801 -10.954  19.824  1.00 -0.19    -0.268 OA
HETATM   31  HN  MOL     1     -47.429  -8.233  18.507  1.00 -0.09     0.162 HD
BRANCH  29  32
HETATM   32  C   MOL     1     -45.797  -9.781  19.821  1.00 -0.21     0.061 A 
HETATM   33  C   MOL     1     -44.805 -10.125  18.924  1.00 -0.36     0.038 A 
HETATM   34  C   MOL     1     -43.482  -9.967  19.250  1.00 -0.38     0.117 A 
HETATM   35  N   MOL     1     -43.054  -9.480  20.430  1.00 -0.12    -0.271 NA
HETATM   36  C   MOL     1     -44.022  -9.147  21.299  1.00 -0.27     0.146 A 
HETATM   37  C   MOL     1     -45.378  -9.279  21.050  1.00 -0.14     0.068 A 
BRANCH  37  38
HETATM   38  N   MOL     1     -46.308  -8.921  22.033  1.00  0.07    -0.325 N 
HETATM   39  C   MOL     1     -47.071  -7.809  22.034  1.00 -0.29     0.226 C 
HETATM   40  O   MOL     1     -47.073  -6.965  21.150  1.00 -0.10    -0.273 OA
HETATM   41  HN  MOL     1     -46.402  -9.476  22.707  1.00  0.05     0.169 HD
BRANCH  39  42
HETATM   42  C   MOL     1     -47.975  -7.707  23.246  1.00 -0.34     0.141 C 
BRANCH  42  43
HETATM   43  C   MOL     1     -49.401  -8.068  22.874  1.00 -0.21    -0.048 A 
HETATM   44  C   MOL     1     -49.760  -9.387  22.708  1.00 -0.31     0.007 A 
HETATM   45  C   MOL     1     -51.054  -9.714  22.371  1.00 -0.36     0.002 A 
HETATM   46  C   MOL     1     -51.993  -8.723  22.201  1.00 -0.30     0.024 A 
HETATM   47  C   MOL     1     -51.637  -7.403  22.368  1.00 -0.25     0.034 A 
HETATM   48 CL   MOL     1     -52.823  -6.148  22.154  1.00 -0.85    -0.084 Cl
HETATM   49  C   MOL     1     -50.342  -7.077  22.705  1.00 -0.22     0.031 A 
ENDBRANCH  42  43
ENDBRANCH  39  42
ENDBRANCH  37  38
ENDBRANCH  29  32
ENDBRANCH  27  28
ENDBRANCH  26  27
ENDBRANCH  25  26
ENDBRANCH  24  25
ENDBRANCH  23  24
ENDBRANCH  22  23
ENDBRANCH  20  22
ENDBRANCH  13  20
ENDBRANCH   5  10
TORSDOF 13
ENDMDL
MODEL 2
REMARK VINA RESULT:      -7.9      2.231      8.664
REMARK  13 active torsions:
REMARK  status: ('A' for Active; 'I' for Inactive)
REMARK    1  A    between atoms: C_5  and  N_6 
REMARK    2  A    between atoms: C_9  and  N_10 
REMARK    3  A    between atoms: N_10  and  C_11 
REMARK    4  A    between atoms: C_11  and  C_12 
REMARK    5  A    between atoms: C_12  and  C_13 
REMARK    6  A    between atoms: C_13  and  C_14 
REMARK    7  A    between atoms: C_14  and  C_15 
REMARK    8  A    between atoms: C_15  and  C_16 
REMARK    9  A    between atoms: C_16  and  N_17 
REMARK       I    between atoms: N_17  and  C_18 
REMARK   10  A    between atoms: C_18  and  C_20 
REMARK   11  A    between atoms: C_25  and  N_26 
REMARK       I    between atoms: N_26  and  C_27 
REMARK   12  A    between atoms: C_27  and  C_29 
REMARK   13  A    between atoms: C_29  and  C_30 
ROOT
HETATM    1  O   MOL     1     -43.566 -11.181  18.741  1.00 -0.03    -0.273 OA
HETATM    2  C   MOL     1     -44.620 -10.636  19.021  1.00 -0.41     0.224 C 
HETATM    3  C   MOL     1     -44.687  -9.163  19.356  1.00 -0.27     0.106 C 
HETATM    4  C   MOL     1     -46.023  -8.540  18.941  1.00 -0.23     0.044 C 
HETATM    5  C   MOL     1     -47.101  -9.344  19.673  1.00 -0.30     0.180 C 
HETATM    6  C   MOL     1     -47.037 -10.813  19.316  1.00 -0.49     0.247 C 
HETATM    7  O   MOL     1     -48.040 -11.505  19.275  1.00 -0.12    -0.271 OA
HETATM    8  N   MOL     1     -45.802 -11.293  19.047  1.00 -0.04    -0.296 N 
HETATM    9  HN  MOL     1     -45.763 -12.151  18.851  1.00 -0.27     0.171 HD
ENDROOT
BRANCH   5  10
HETATM   10  N   MOL     1     -48.437  -8.786  19.412  1.00  0.05    -0.337 N 
HETATM   11  C   MOL     1     -48.818  -8.233  18.101  1.00 -0.25     0.138 C 
HETATM   12  C   MOL     1     -49.864  -7.282  18.712  1.00 -0.27     0.070 C 
HETATM   13  C   MOL     1     -50.812  -6.426  17.899  1.00 -0.20     0.011 C 
HETATM   14  C   MOL     1     -50.612  -8.156  19.722  1.00 -0.40     0.112 C 
HETATM   15  C   MOL     1     -51.926  -5.955  18.480  1.00 -0.28     0.025 C 
HETATM   16  C   MOL     1     -52.216  -6.274  19.879  1.00 -0.47    -0.001 C 
HETATM   17  C   MOL     1     -51.605  -7.302  20.467  1.00 -0.52    -0.012 C 
HETATM   18  C   MOL     1     -49.382  -8.733  20.364  1.00 -0.44     0.229 C 
HETATM   19  O   MOL     1     -49.270  -9.081  21.531  1.00 -0.63    -0.273 OA
BRANCH  13  20
HETATM   20  N   MOL     1     -50.389  -6.198  16.621  1.00  0.04    -0.393 N 
HETATM   21  HN  MOL     1     -50.673  -6.736  15.984  1.00 -0.01     0.159 HD
BRANCH  20  22
HETATM   22  C   MOL     1     -49.911  -4.865  16.230  1.00 -0.24     0.119 C 
BRANCH  22  23
HETATM   23  C   MOL     1     -50.892  -4.080  15.344  1.00 -0.09     0.020 C 
BRANCH  23  24
HETATM   24  C   MOL     1     -50.073  -3.204  14.385  1.00 -0.19     0.002 C 
BRANCH  24  25
HETATM   25  C   MOL     1     -50.624  -1.771  14.364  1.00 -0.35     0.002 C 
BRANCH  25  26
HETATM   26  C   MOL     1     -49.554  -0.832  14.939  1.00 -0.42     0.020 C 
BRANCH  26  27
HETATM   27  C   MOL     1     -48.202  -1.556  15.013  1.00 -0.29     0.123 C 
BRANCH  27  28
HETATM   28  N   MOL     1     -47.266  -0.722  15.781  1.00 -0.04    -0.357 N 
HETATM   29  C   MOL     1     -47.156  -0.889  17.118  1.00 -0.29     0.254 C 
HETATM   30  O   MOL     1     -47.812  -1.721  17.741  1.00 -0.19    -0.268 OA
HETATM   31  HN  MOL     1     -46.769  -0.131  15.361  1.00 -0.09     0.162 HD
BRANCH  29  32
HETATM   32  C   MOL     1     -46.221  -0.038  17.906  1.00 -0.21     0.061 A 
HETATM   33  C   MOL     1     -44.877   0.017  17.589  1.00 -0.36     0.038 A 
HETATM   34  C   MOL     1     -44.023   0.820  18.299  1.00 -0.38     0.117 A 
HETATM   35  N   MOL     1     -44.408   1.596  19.330  1.00 -0.12    -0.271 NA
HETATM   36  C   MOL     1     -45.714   1.540  19.636  1.00 -0.27     0.146 A 
HETATM   37  C   MOL     1     -46.640   0.753  18.972  1.00 -0.14     0.068 A 
BRANCH  37  38
HETATM   38  N   MOL     1     -47.979   0.751  19.382  1.00  0.07    -0.325 N 
HETATM   39  C   MOL     1     -48.836   1.789  19.295  1.00 -0.29     0.226 C 
HETATM   40  O   MOL     1     -48.564   2.879  18.813  1.00 -0.10    -0.273 OA
HETATM   41  HN  MOL     1     -48.285   0.002  19.724  1.00  0.05     0.169 HD
BRANCH  39  42
HETATM   42  C   MOL     1     -50.216   1.469  19.833  1.00 -0.34     0.141 C 
BRANCH  42  43
HETATM   43  C   MOL     1     -50.604   0.045  19.481  1.00 -0.21    -0.048 A 
HETATM   44  C   MOL     1     -51.213  -0.229  18.277  1.00 -0.31     0.007 A 
HETATM   45  C   MOL     1     -51.563  -1.522  17.958  1.00 -0.36     0.002 A 
HETATM   46  C   MOL     1     -51.305  -2.544  18.843  1.00 -0.30     0.024 A 
HETATM   47  C   MOL     1     -50.695  -2.273  20.047  1.00 -0.25     0.034 A 
HETATM   48 CL   MOL     1     -50.368  -3.563  21.166  1.00 -0.85    -0.084 Cl
HETATM   49  C   MOL     1     -50.345  -0.979  20.365  1.00 -0.22     0.031 A 
ENDBRANCH  42  43
ENDBRANCH  39  42
ENDBRANCH  37  38
ENDBRANCH  29  32
ENDBRANCH  27  28
ENDBRANCH  26  27
ENDBRANCH  25  26
ENDBRANCH  24  25
ENDBRANCH  23  24
ENDBRANCH  22  23
ENDBRANCH  20  22
ENDBRANCH  13  20
ENDBRANCH   5  10
TORSDOF 13
ENDMDL
MODEL 3
REMARK VINA RESULT:      -7.8      3.740      4.507
REMARK  13 active torsions:
REMARK  status: ('A' for Active; 'I' for Inactive)
REMARK    1  A    between atoms: C_5  and  N_6 
REMARK    2  A    between atoms: C_9  and  N_10 
REMARK    3  A    between atoms: N_10  and  C_11 
REMARK    4  A    between atoms: C_11  and  C_12 
REMARK    5  A    between atoms: C_12  and  C_13 
REMARK    6  A    between atoms: C_13  and  C_14 
REMARK    7  A    between atoms: C_14  and  C_15 
REMARK    8  A    between atoms: C_15  and  C_16 
REMARK    9  A    between atoms: C_16  and  N_17 
REMARK       I    between atoms: N_17  and  C_18 
REMARK   10  A    between atoms: C_18  and  C_20 
REMARK   11  A    between atoms: C_25  and  N_26 
REMARK       I    between atoms: N_26  and  C_27 
REMARK   12  A    between atoms: C_27  and  C_29 
REMARK   13  A    between atoms: C_29  and  C_30 
ROOT
HETATM    1  O   MOL     1     -42.922  -0.493  19.020  1.00 -0.03    -0.273 OA
HETATM    2  C   MOL     1     -43.919  -0.590  18.326  1.00 -0.41     0.224 C 
HETATM    3  C   MOL     1     -44.047  -1.660  17.266  1.00 -0.27     0.106 C 
HETATM    4  C   MOL     1     -45.499  -2.100  17.065  1.00 -0.23     0.044 C 
HETATM    5  C   MOL     1     -46.270  -0.830  16.694  1.00 -0.30     0.180 C 
HETATM    6  C   MOL     1     -46.152   0.227  17.770  1.00 -0.49     0.247 C 
HETATM    7  O   MOL     1     -47.058   1.010  17.999  1.00 -0.12    -0.271 OA
HETATM    8  N   MOL     1     -44.984   0.235  18.451  1.00 -0.04    -0.296 N 
HETATM    9  HN  MOL     1     -44.911   0.858  19.070  1.00 -0.27     0.171 HD
ENDROOT
BRANCH   5  10
HETATM   10  N   MOL     1     -47.677  -1.140  16.398  1.00  0.05    -0.337 N 
HETATM   11  C   MOL     1     -48.521  -1.926  17.315  1.00 -0.25     0.138 C 
HETATM   12  C   MOL     1     -49.427  -2.437  16.180  1.00 -0.27     0.070 C 
HETATM   13  C   MOL     1     -50.682  -3.255  16.396  1.00 -0.20     0.011 C 
HETATM   14  C   MOL     1     -49.700  -1.189  15.335  1.00 -0.40     0.112 C 
HETATM   15  C   MOL     1     -51.602  -3.309  15.420  1.00 -0.28     0.025 C 
HETATM   16  C   MOL     1     -51.389  -2.578  14.170  1.00 -0.47    -0.001 C 
HETATM   17  C   MOL     1     -50.502  -1.586  14.122  1.00 -0.52    -0.012 C 
HETATM   18  C   MOL     1     -48.269  -0.739  15.262  1.00 -0.44     0.229 C 
HETATM   19  O   MOL     1     -47.749  -0.128  14.339  1.00 -0.63    -0.273 OA
BRANCH  13  20
HETATM   20  N   MOL     1     -50.720  -3.897  17.600  1.00  0.04    -0.393 N 
HETATM   21  HN  MOL     1     -49.964  -4.002  18.042  1.00 -0.01     0.159 HD
BRANCH  20  22
HETATM   22  C   MOL     1     -51.974  -3.963  18.362  1.00 -0.24     0.119 C 
BRANCH  22  23
HETATM   23  C   MOL     1     -52.351  -5.377  18.832  1.00 -0.09     0.020 C 
BRANCH  23  24
HETATM   24  C   MOL     1     -52.010  -6.361  17.702  1.00 -0.19     0.002 C 
BRANCH  24  25
HETATM   25  C   MOL     1     -51.422  -7.657  18.280  1.00 -0.35     0.002 C 
BRANCH  25  26
HETATM   26  C   MOL     1     -50.779  -7.334  19.637  1.00 -0.42     0.020 C 
BRANCH  26  27
HETATM   27  C   MOL     1     -50.232  -8.617  20.280  1.00 -0.29     0.123 C 
BRANCH  27  28
HETATM   28  N   MOL     1     -48.967  -8.969  19.619  1.00 -0.04    -0.357 N 
HETATM   29  C   MOL     1     -47.962  -9.519  20.336  1.00 -0.29     0.254 C 
HETATM   30  O   MOL     1     -48.052  -9.747  21.541  1.00 -0.19    -0.268 OA
HETATM   31  HN  MOL     1     -48.881  -8.837  18.754  1.00 -0.09     0.162 HD
BRANCH  29  32
HETATM   32  C   MOL     1     -46.672  -9.867  19.677  1.00 -0.21     0.061 A 
HETATM   33  C   MOL     1     -45.829  -8.878  19.209  1.00 -0.36     0.038 A 
HETATM   34  C   MOL     1     -44.630  -9.199  18.625  1.00 -0.38     0.117 A 
HETATM   35  N   MOL     1     -44.190 -10.461  18.464  1.00 -0.12    -0.271 NA
HETATM   36  C   MOL     1     -45.013 -11.419  18.920  1.00 -0.27     0.146 A 
HETATM   37  C   MOL     1     -46.239 -11.180  19.517  1.00 -0.14     0.068 A 
BRANCH  37  38
HETATM   38  N   MOL     1     -47.032 -12.253  19.941  1.00  0.07    -0.325 N 
HETATM   39  C   MOL     1     -46.881 -12.945  21.088  1.00 -0.29     0.226 C 
HETATM   40  O   MOL     1     -46.036 -12.707  21.939  1.00 -0.10    -0.273 OA
HETATM   41  HN  MOL     1     -47.689 -12.492  19.409  1.00  0.05     0.169 HD
BRANCH  39  42
HETATM   42  C   MOL     1     -47.898 -14.056  21.253  1.00 -0.34     0.141 C 
BRANCH  42  43
HETATM   43  C   MOL     1     -47.262 -15.261  21.920  1.00 -0.21    -0.048 A 
HETATM   44  C   MOL     1     -47.499 -15.521  23.252  1.00 -0.31     0.007 A 
HETATM   45  C   MOL     1     -46.922 -16.615  23.856  1.00 -0.36     0.002 A 
HETATM   46  C   MOL     1     -46.106 -17.453  23.130  1.00 -0.30     0.024 A 
HETATM   47  C   MOL     1     -45.868 -17.197  21.798  1.00 -0.25     0.034 A 
HETATM   48 CL   MOL     1     -44.838 -18.254  20.879  1.00 -0.85    -0.084 Cl
HETATM   49  C   MOL     1     -46.446 -16.101  21.194  1.00 -0.22     0.031 A 
ENDBRANCH  42  43
ENDBRANCH  39  42
ENDBRANCH  37  38
ENDBRANCH  29  32
ENDBRANCH  27  28
ENDBRANCH  26  27
ENDBRANCH  25  26
ENDBRANCH  24  25
ENDBRANCH  23  24
ENDBRANCH  22  23
ENDBRANCH  20  22
ENDBRANCH  13  20
ENDBRANCH   5  10
TORSDOF 13
ENDMDL
MODEL 4
REMARK VINA RESULT:      -7.5      2.241      3.691
REMARK  13 active torsions:
REMARK  status: ('A' for Active; 'I' for Inactive)
REMARK    1  A    between atoms: C_5  and  N_6 
REMARK    2  A    between atoms: C_9  and  N_10 
REMARK    3  A    between atoms: N_10  and  C_11 
REMARK    4  A    between atoms: C_11  and  C_12 
REMARK    5  A    between atoms: C_12  and  C_13 
REMARK    6  A    between atoms: C_13  and  C_14 
REMARK    7  A    between atoms: C_14  and  C_15 
REMARK    8  A    between atoms: C_15  and  C_16 
REMARK    9  A    between atoms: C_16  and  N_17 
REMARK       I    between atoms: N_17  and  C_18 
REMARK   10  A    between atoms: C_18  and  C_20 
REMARK   11  A    between atoms: C_25  and  N_26 
REMARK       I    between atoms: N_26  and  C_27 
REMARK   12  A    between atoms: C_27  and  C_29 
REMARK   13  A    between atoms: C_29  and  C_30 
ROOT
HETATM    1  O   MOL     1     -42.756  -0.617  19.258  1.00 -0.03    -0.273 OA
HETATM    2  C   MOL     1     -43.750  -0.733  18.562  1.00 -0.41     0.224 C 
HETATM    3  C   MOL     1     -43.901  -1.870  17.577  1.00 -0.27     0.106 C 
HETATM    4  C   MOL     1     -45.365  -2.280  17.393  1.00 -0.23     0.044 C 
HETATM    5  C   MOL     1     -46.094  -1.017  16.926  1.00 -0.30     0.180 C 
HETATM    6  C   MOL     1     -45.952   0.109  17.928  1.00 -0.49     0.247 C 
HETATM    7  O   MOL     1     -46.836   0.933  18.092  1.00 -0.12    -0.271 OA
HETATM    8  N   MOL     1     -44.790   0.130  18.619  1.00 -0.04    -0.296 N 
HETATM    9  HN  MOL     1     -44.703   0.792  19.193  1.00 -0.27     0.171 HD
ENDROOT
BRANCH   5  10
HETATM   10  N   MOL     1     -47.507  -1.305  16.638  1.00  0.05    -0.337 N 
HETATM   11  C   MOL     1     -48.353  -2.092  17.552  1.00 -0.25     0.138 C 
HETATM   12  C   MOL     1     -49.275  -2.576  16.418  1.00 -0.27     0.070 C 
HETATM   13  C   MOL     1     -50.538  -3.381  16.634  1.00 -0.20     0.011 C 
HETATM   14  C   MOL     1     -49.539  -1.314  15.592  1.00 -0.40     0.112 C 
HETATM   15  C   MOL     1     -51.467  -3.410  15.665  1.00 -0.28     0.025 C 
HETATM   16  C   MOL     1     -51.255  -2.666  14.423  1.00 -0.47    -0.001 C 
HETATM   17  C   MOL     1     -50.356  -1.684  14.381  1.00 -0.52    -0.012 C 
HETATM   18  C   MOL     1     -48.103  -0.881  15.513  1.00 -0.44     0.229 C 
HETATM   19  O   MOL     1     -47.583  -0.265  14.594  1.00 -0.63    -0.273 OA
BRANCH  13  20
HETATM   20  N   MOL     1     -50.575  -4.038  17.830  1.00  0.04    -0.393 N 
HETATM   21  HN  MOL     1     -50.952  -3.636  18.517  1.00 -0.01     0.159 HD
BRANCH  20  22
HETATM   22  C   MOL     1     -50.461  -5.502  17.871  1.00 -0.24     0.119 C 
BRANCH  22  23
HETATM   23  C   MOL     1     -50.261  -6.078  19.283  1.00 -0.09     0.020 C 
BRANCH  23  24
HETATM   24  C   MOL     1     -50.958  -7.445  19.343  1.00 -0.19     0.002 C 
BRANCH  24  25
HETATM   25  C   MOL     1     -50.076  -8.464  20.079  1.00 -0.35     0.002 C 
BRANCH  25  26
HETATM   26  C   MOL     1     -49.308  -9.286  19.033  1.00 -0.42     0.020 C 
BRANCH  26  27
HETATM   27  C   MOL     1     -47.796  -9.146  19.259  1.00 -0.29     0.123 C 
BRANCH  27  28
HETATM   28  N   MOL     1     -47.184 -10.479  19.160  1.00 -0.04    -0.357 N 
HETATM   29  C   MOL     1     -46.976 -11.210  20.279  1.00 -0.29     0.254 C 
HETATM   30  O   MOL     1     -47.278 -10.809  21.400  1.00 -0.19    -0.268 OA
HETATM   31  HN  MOL     1     -46.976 -10.801  18.369  1.00 -0.09     0.162 HD
BRANCH  29  32
HETATM   32  C   MOL     1     -46.343 -12.556  20.188  1.00 -0.21     0.061 A 
HETATM   33  C   MOL     1     -47.110 -13.684  19.972  1.00 -0.36     0.038 A 
HETATM   34  C   MOL     1     -46.522 -14.919  19.864  1.00 -0.38     0.117 A 
HETATM   35  N   MOL     1     -45.196 -15.127  19.956  1.00 -0.12    -0.271 NA
HETATM   36  C   MOL     1     -44.454 -14.028  20.167  1.00 -0.27     0.146 A 
HETATM   37  C   MOL     1     -44.968 -12.749  20.291  1.00 -0.14     0.068 A 
BRANCH  37  38
HETATM   38  N   MOL     1     -44.108 -11.669  20.530  1.00  0.07    -0.325 N 
HETATM   39  C   MOL     1     -43.734 -10.740  19.626  1.00 -0.29     0.226 C 
HETATM   40  O   MOL     1     -44.122 -10.699  18.468  1.00 -0.10    -0.273 OA
HETATM   41  HN  MOL     1     -43.789 -11.593  21.344  1.00  0.05     0.169 HD
BRANCH  39  42
HETATM   42  C   MOL     1     -42.787  -9.704  20.195  1.00 -0.34     0.141 C 
BRANCH  42  43
HETATM   43  C   MOL     1     -43.456  -8.938  21.322  1.00 -0.21    -0.048 A 
HETATM   44  C   MOL     1     -42.748  -8.622  22.460  1.00 -0.31     0.007 A 
HETATM   45  C   MOL     1     -43.355  -7.927  23.481  1.00 -0.36     0.002 A 
HETATM   46  C   MOL     1     -44.672  -7.545  23.367  1.00 -0.30     0.024 A 
HETATM   47  C   MOL     1     -45.383  -7.859  22.230  1.00 -0.25     0.034 A 
HETATM   48 CL   MOL     1     -47.047  -7.377  22.083  1.00 -0.85    -0.084 Cl
HETATM   49  C   MOL     1     -44.774  -8.555  21.208  1.00 -0.22     0.031 A 
ENDBRANCH  42  43
ENDBRANCH  39  42
ENDBRANCH  37  38
ENDBRANCH  29  32
ENDBRANCH  27  28
ENDBRANCH  26  27
ENDBRANCH  25  26
ENDBRANCH  24  25
ENDBRANCH  23  24
ENDBRANCH  22  23
ENDBRANCH  20  22
ENDBRANCH  13  20
ENDBRANCH   5  10
TORSDOF 13
ENDMDL
MODEL 5
REMARK VINA RESULT:      -7.5      3.133      8.994
REMARK  13 active torsions:
REMARK  status: ('A' for Active; 'I' for Inactive)
REMARK    1  A    between atoms: C_5  and  N_6 
REMARK    2  A    between atoms: C_9  and  N_10 
REMARK    3  A    between atoms: N_10  and  C_11 
REMARK    4  A    between atoms: C_11  and  C_12 
REMARK    5  A    between atoms: C_12  and  C_13 
REMARK    6  A    between atoms: C_13  and  C_14 
REMARK    7  A    between atoms: C_14  and  C_15 
REMARK    8  A    between atoms: C_15  and  C_16 
REMARK    9  A    between atoms: C_16  and  N_17 
REMARK       I    between atoms: N_17  and  C_18 
REMARK   10  A    between atoms: C_18  and  C_20 
REMARK   11  A    between atoms: C_25  and  N_26 
REMARK       I    between atoms: N_26  and  C_27 
REMARK   12  A    between atoms: C_27  and  C_29 
REMARK   13  A    between atoms: C_29  and  C_30 
ROOT
HETATM    1  O   MOL     1     -50.314  -9.310  21.804  1.00 -0.03    -0.273 OA
HETATM    2  C   MOL     1     -50.548  -8.636  20.816  1.00 -0.41     0.224 C 
HETATM    3  C   MOL     1     -51.445  -7.420  20.880  1.00 -0.27     0.106 C 
HETATM    4  C   MOL     1     -51.038  -6.351  19.862  1.00 -0.23     0.044 C 
HETATM    5  C   MOL     1     -51.098  -7.038  18.494  1.00 -0.30     0.180 C 
HETATM    6  C   MOL     1     -50.183  -8.241  18.435  1.00 -0.49     0.247 C 
HETATM    7  O   MOL     1     -49.630  -8.572  17.400  1.00 -0.12    -0.271 OA
HETATM    8  N   MOL     1     -50.027  -8.911  19.598  1.00 -0.04    -0.296 N 
HETATM    9  HN  MOL     1     -49.504  -9.618  19.561  1.00 -0.27     0.171 HD
ENDROOT
BRANCH   5  10
HETATM   10  N   MOL     1     -50.800  -6.082  17.416  1.00  0.05    -0.337 N 
HETATM   11  C   MOL     1     -49.440  -5.572  17.170  1.00 -0.25     0.138 C 
HETATM   12  C   MOL     1     -49.954  -4.260  16.549  1.00 -0.27     0.070 C 
HETATM   13  C   MOL     1     -49.064  -3.219  15.904  1.00 -0.20     0.011 C 
HETATM   14  C   MOL     1     -51.076  -4.710  15.609  1.00 -0.40     0.112 C 
HETATM   15  C   MOL     1     -49.607  -2.332  15.054  1.00 -0.28     0.025 C 
HETATM   16  C   MOL     1     -51.039  -2.383  14.757  1.00 -0.47    -0.001 C 
HETATM   17  C   MOL     1     -51.733  -3.491  15.014  1.00 -0.52    -0.012 C 
HETATM   18  C   MOL     1     -51.757  -5.605  16.604  1.00 -0.44     0.229 C 
HETATM   19  O   MOL     1     -52.955  -5.846  16.660  1.00 -0.63    -0.273 OA
BRANCH  13  20
HETATM   20  N   MOL     1     -47.760  -3.286  16.302  1.00  0.04    -0.393 N 
HETATM   21  HN  MOL     1     -47.548  -3.851  16.944  1.00 -0.01     0.159 HD
BRANCH  20  22
HETATM   22  C   MOL     1     -46.689  -2.838  15.401  1.00 -0.24     0.119 C 
BRANCH  22  23
HETATM   23  C   MOL     1     -46.260  -1.377  15.614  1.00 -0.09     0.020 C 
BRANCH  23  24
HETATM   24  C   MOL     1     -44.742  -1.356  15.846  1.00 -0.19     0.002 C 
BRANCH  24  25
HETATM   25  C   MOL     1     -44.410  -0.614  17.149  1.00 -0.35     0.002 C 
BRANCH  25  26
HETATM   26  C   MOL     1     -43.622  -1.566  18.061  1.00 -0.42     0.020 C 
BRANCH  26  27
HETATM   27  C   MOL     1     -42.861  -0.766  19.127  1.00 -0.29     0.123 C 
BRANCH  27  28
HETATM   28  N   MOL     1     -43.838  -0.153  20.038  1.00 -0.04    -0.357 N 
HETATM   29  C   MOL     1     -43.974   1.192  20.076  1.00 -0.29     0.254 C 
HETATM   30  O   MOL     1     -43.308   1.947  19.372  1.00 -0.19    -0.268 OA
HETATM   31  HN  MOL     1     -44.343  -0.669  20.540  1.00 -0.09     0.162 HD
BRANCH  29  32
HETATM   32  C   MOL     1     -44.952   1.821  21.007  1.00 -0.21     0.061 A 
HETATM   33  C   MOL     1     -44.522   2.563  22.090  1.00 -0.36     0.038 A 
HETATM   34  C   MOL     1     -45.424   3.162  22.930  1.00 -0.38     0.117 A 
HETATM   35  N   MOL     1     -46.759   3.081  22.776  1.00 -0.12    -0.271 NA
HETATM   36  C   MOL     1     -47.174   2.360  21.723  1.00 -0.27     0.146 A 
HETATM   37  C   MOL     1     -46.330   1.720  20.830  1.00 -0.14     0.068 A 
BRANCH  37  38
HETATM   38  N   MOL     1     -46.865   0.974  19.773  1.00  0.07    -0.325 N 
HETATM   39  C   MOL     1     -47.760   1.414  18.866  1.00 -0.29     0.226 C 
HETATM   40  O   MOL     1     -48.212   2.550  18.827  1.00 -0.10    -0.273 OA
HETATM   41  HN  MOL     1     -46.585   0.145  19.696  1.00  0.05     0.169 HD
BRANCH  39  42
HETATM   42  C   MOL     1     -48.147   0.359  17.850  1.00 -0.34     0.141 C 
BRANCH  42  43
HETATM   43  C   MOL     1     -49.336  -0.442  18.347  1.00 -0.21    -0.048 A 
HETATM   44  C   MOL     1     -50.582  -0.249  17.792  1.00 -0.31     0.007 A 
HETATM   45  C   MOL     1     -51.660  -0.977  18.242  1.00 -0.36     0.002 A 
HETATM   46  C   MOL     1     -51.495  -1.901  19.248  1.00 -0.30     0.024 A 
HETATM   47  C   MOL     1     -50.251  -2.098  19.804  1.00 -0.25     0.034 A 
HETATM   48 CL   MOL     1     -50.040  -3.266  21.075  1.00 -0.85    -0.084 Cl
HETATM   49  C   MOL     1     -49.172  -1.369  19.352  1.00 -0.22     0.031 A 
ENDBRANCH  42  43
ENDBRANCH  39  42
ENDBRANCH  37  38
ENDBRANCH  29  32
ENDBRANCH  27  28
ENDBRANCH  26  27
ENDBRANCH  25  26
ENDBRANCH  24  25
ENDBRANCH  23  24
ENDBRANCH  22  23
ENDBRANCH  20  22
ENDBRANCH  13  20
ENDBRANCH   5  10
TORSDOF 13
ENDMDL
MODEL 6
REMARK VINA RESULT:      -7.4      3.200      8.423
REMARK  13 active torsions:
REMARK  status: ('A' for Active; 'I' for Inactive)
REMARK    1  A    between atoms: C_5  and  N_6 
REMARK    2  A    between atoms: C_9  and  N_10 
REMARK    3  A    between atoms: N_10  and  C_11 
REMARK    4  A    between atoms: C_11  and  C_12 
REMARK    5  A    between atoms: C_12  and  C_13 
REMARK    6  A    between atoms: C_13  and  C_14 
REMARK    7  A    between atoms: C_14  and  C_15 
REMARK    8  A    between atoms: C_15  and  C_16 
REMARK    9  A    between atoms: C_16  and  N_17 
REMARK       I    between atoms: N_17  and  C_18 
REMARK   10  A    between atoms: C_18  and  C_20 
REMARK   11  A    between atoms: C_25  and  N_26 
REMARK       I    between atoms: N_26  and  C_27 
REMARK   12  A    between atoms: C_27  and  C_29 
REMARK   13  A    between atoms: C_29  and  C_30 
ROOT
HETATM    1  O   MOL     1     -44.807  -8.766  18.824  1.00 -0.03    -0.273 OA
HETATM    2  C   MOL     1     -45.907  -8.697  19.346  1.00 -0.41     0.224 C 
HETATM    3  C   MOL     1     -46.080  -8.222  20.770  1.00 -0.27     0.106 C 
HETATM    4  C   MOL     1     -47.419  -7.509  20.980  1.00 -0.23     0.044 C 
HETATM    5  C   MOL     1     -48.495  -8.521  20.578  1.00 -0.30     0.180 C 
HETATM    6  C   MOL     1     -48.324  -8.975  19.144  1.00 -0.49     0.247 C 
HETATM    7  O   MOL     1     -49.281  -9.270  18.449  1.00 -0.12    -0.271 OA
HETATM    8  N   MOL     1     -47.049  -9.026  18.699  1.00 -0.04    -0.296 N 
HETATM    9  HN  MOL     1     -46.948  -9.301  17.868  1.00 -0.27     0.171 HD
ENDROOT
BRANCH   5  10
HETATM   10  N   MOL     1     -49.841  -7.974  20.811  1.00  0.05    -0.337 N 
HETATM   11  C   MOL     1     -50.223  -6.616  20.387  1.00 -0.25     0.138 C 
HETATM   12  C   MOL     1     -51.295  -6.484  21.486  1.00 -0.27     0.070 C 
HETATM   13  C   MOL     1     -52.254  -5.319  21.602  1.00 -0.20     0.011 C 
HETATM   14  C   MOL     1     -52.031  -7.826  21.446  1.00 -0.40     0.112 C 
HETATM   15  C   MOL     1     -53.383  -5.472  22.312  1.00 -0.28     0.025 C 
HETATM   16  C   MOL     1     -53.676  -6.753  22.957  1.00 -0.47    -0.001 C 
HETATM   17  C   MOL     1     -53.048  -7.858  22.558  1.00 -0.52    -0.012 C 
HETATM   18  C   MOL     1     -50.794  -8.678  21.441  1.00 -0.44     0.229 C 
HETATM   19  O   MOL     1     -50.683  -9.796  21.924  1.00 -0.63    -0.273 OA
BRANCH  13  20
HETATM   20  N   MOL     1     -51.827  -4.189  20.967  1.00  0.04    -0.393 N 
HETATM   21  HN  MOL     1     -50.965  -4.007  20.972  1.00 -0.01     0.159 HD
BRANCH  20  22
HETATM   22  C   MOL     1     -52.651  -3.576  19.916  1.00 -0.24     0.119 C 
BRANCH  22  23
HETATM   23  C   MOL     1     -52.663  -4.358  18.592  1.00 -0.09     0.020 C 
BRANCH  23  24
HETATM   24  C   MOL     1     -51.342  -4.077  17.861  1.00 -0.19     0.002 C 
BRANCH  24  25
HETATM   25  C   MOL     1     -51.523  -2.941  16.844  1.00 -0.35     0.002 C 
BRANCH  25  26
HETATM   26  C   MOL     1     -51.216  -3.491  15.443  1.00 -0.42     0.020 C 
BRANCH  26  27
HETATM   27  C   MOL     1     -49.878  -4.244  15.453  1.00 -0.29     0.123 C 
BRANCH  27  28
HETATM   28  N   MOL     1     -48.788  -3.258  15.461  1.00 -0.04    -0.357 N 
HETATM   29  C   MOL     1     -47.868  -3.279  16.452  1.00 -0.29     0.254 C 
HETATM   30  O   MOL     1     -47.895  -4.097  17.368  1.00 -0.19    -0.268 OA
HETATM   31  HN  MOL     1     -48.730  -2.673  14.808  1.00 -0.09     0.162 HD
BRANCH  29  32
HETATM   32  C   MOL     1     -46.768  -2.274  16.475  1.00 -0.21     0.061 A 
HETATM   33  C   MOL     1     -45.810  -2.252  15.479  1.00 -0.36     0.038 A 
HETATM   34  C   MOL     1     -44.813  -1.310  15.489  1.00 -0.38     0.117 A 
HETATM   35  N   MOL     1     -44.688  -0.362  16.436  1.00 -0.12    -0.271 NA
HETATM   36  C   MOL     1     -45.620  -0.387  17.402  1.00 -0.27     0.146 A 
HETATM   37  C   MOL     1     -46.655  -1.305  17.468  1.00 -0.14     0.068 A 
BRANCH  37  38
HETATM   38  N   MOL     1     -47.566  -1.258  18.530  1.00  0.07    -0.325 N 
HETATM   39  C   MOL     1     -48.441  -0.262  18.781  1.00 -0.29     0.226 C 
HETATM   40  O   MOL     1     -48.578   0.735  18.088  1.00 -0.10    -0.273 OA
HETATM   41  HN  MOL     1     -47.566  -1.943  19.079  1.00  0.05     0.169 HD
BRANCH  39  42
HETATM   42  C   MOL     1     -49.286  -0.508  20.014  1.00 -0.34     0.141 C 
BRANCH  42  43
HETATM   43  C   MOL     1     -50.606   0.233  19.906  1.00 -0.21    -0.048 A 
HETATM   44  C   MOL     1     -51.583  -0.216  19.045  1.00 -0.31     0.007 A 
HETATM   45  C   MOL     1     -52.781   0.456  18.948  1.00 -0.36     0.002 A 
HETATM   46  C   MOL     1     -53.005   1.578  19.713  1.00 -0.30     0.024 A 
HETATM   47  C   MOL     1     -52.031   2.028  20.576  1.00 -0.25     0.034 A 
HETATM   48 CL   MOL     1     -52.313   3.445  21.543  1.00 -0.85    -0.084 Cl
HETATM   49  C   MOL     1     -50.833   1.355  20.672  1.00 -0.22     0.031 A 
ENDBRANCH  42  43
ENDBRANCH  39  42
ENDBRANCH  37  38
ENDBRANCH  29  32
ENDBRANCH  27  28
ENDBRANCH  26  27
ENDBRANCH  25  26
ENDBRANCH  24  25
ENDBRANCH  23  24
ENDBRANCH  22  23
ENDBRANCH  20  22
ENDBRANCH  13  20
ENDBRANCH   5  10
TORSDOF 13
ENDMDL
MODEL 7
REMARK VINA RESULT:      -7.4      2.663      8.844
REMARK  13 active torsions:
REMARK  status: ('A' for Active; 'I' for Inactive)
REMARK    1  A    between atoms: C_5  and  N_6 
REMARK    2  A    between atoms: C_9  and  N_10 
REMARK    3  A    between atoms: N_10  and  C_11 
REMARK    4  A    between atoms: C_11  and  C_12 
REMARK    5  A    between atoms: C_12  and  C_13 
REMARK    6  A    between atoms: C_13  and  C_14 
REMARK    7  A    between atoms: C_14  and  C_15 
REMARK    8  A    between atoms: C_15  and  C_16 
REMARK    9  A    between atoms: C_16  and  N_17 
REMARK       I    between atoms: N_17  and  C_18 
REMARK   10  A    between atoms: C_18  and  C_20 
REMARK   11  A    between atoms: C_25  and  N_26 
REMARK       I    between atoms: N_26  and  C_27 
REMARK   12  A    between atoms: C_27  and  C_29 
REMARK   13  A    between atoms: C_29  and  C_30 
ROOT
HETATM    1  O   MOL     1     -44.699 -11.845  18.857  1.00 -0.03    -0.273 OA
HETATM    2  C   MOL     1     -45.441 -10.951  19.225  1.00 -0.41     0.224 C 
HETATM    3  C   MOL     1     -44.904  -9.666  19.815  1.00 -0.27     0.106 C 
HETATM    4  C   MOL     1     -45.812  -8.471  19.512  1.00 -0.23     0.044 C 
HETATM    5  C   MOL     1     -47.184  -8.836  20.086  1.00 -0.30     0.180 C 
HETATM    6  C   MOL     1     -47.721 -10.112  19.475  1.00 -0.49     0.247 C 
HETATM    7  O   MOL     1     -48.916 -10.287  19.309  1.00 -0.12    -0.271 OA
HETATM    8  N   MOL     1     -46.789 -11.028  19.130  1.00 -0.04    -0.296 N 
HETATM    9  HN  MOL     1     -47.102 -11.776  18.785  1.00 -0.27     0.171 HD
ENDROOT
BRANCH   5  10
HETATM   10  N   MOL     1     -48.131  -7.722  19.924  1.00  0.05    -0.337 N 
HETATM   11  C   MOL     1     -49.049  -7.306  20.997  1.00 -0.25     0.138 C 
HETATM   12  C   MOL     1     -50.087  -6.744  20.008  1.00 -0.27     0.070 C 
HETATM   13  C   MOL     1     -51.331  -5.986  20.420  1.00 -0.20     0.011 C 
HETATM   14  C   MOL     1     -49.247  -5.954  19.001  1.00 -0.40     0.112 C 
HETATM   15  C   MOL     1     -51.947  -5.204  19.519  1.00 -0.28     0.025 C 
HETATM   16  C   MOL     1     -51.411  -5.087  18.162  1.00 -0.47    -0.001 C 
HETATM   17  C   MOL     1     -50.150  -5.435  17.912  1.00 -0.52    -0.012 C 
HETATM   18  C   MOL     1     -48.226  -7.032  18.776  1.00 -0.44     0.229 C 
HETATM   19  O   MOL     1     -47.606  -7.238  17.742  1.00 -0.63    -0.273 OA
BRANCH  13  20
HETATM   20  N   MOL     1     -51.717  -6.220  21.708  1.00  0.04    -0.393 N 
HETATM   21  HN  MOL     1     -51.566  -7.018  22.052  1.00 -0.01     0.159 HD
BRANCH  20  22
HETATM   22  C   MOL     1     -51.905  -5.098  22.638  1.00 -0.24     0.119 C 
BRANCH  22  23
HETATM   23  C   MOL     1     -50.633  -4.275  22.895  1.00 -0.09     0.020 C 
BRANCH  23  24
HETATM   24  C   MOL     1     -51.057  -2.866  23.337  1.00 -0.19     0.002 C 
BRANCH  24  25
HETATM   25  C   MOL     1     -50.408  -1.804  22.438  1.00 -0.35     0.002 C 
BRANCH  25  26
HETATM   26  C   MOL     1     -49.979  -2.477  21.126  1.00 -0.42     0.020 C 
BRANCH  26  27
HETATM   27  C   MOL     1     -49.469  -1.422  20.134  1.00 -0.29     0.123 C 
BRANCH  27  28
HETATM   28  N   MOL     1     -49.719  -1.904  18.768  1.00 -0.04    -0.357 N 
HETATM   29  C   MOL     1     -49.431  -1.113  17.710  1.00 -0.29     0.254 C 
HETATM   30  O   MOL     1     -48.959   0.015  17.832  1.00 -0.19    -0.268 OA
HETATM   31  HN  MOL     1     -50.037  -2.715  18.649  1.00 -0.09     0.162 HD
BRANCH  29  32
HETATM   32  C   MOL     1     -49.695  -1.590  16.324  1.00 -0.21     0.061 A 
HETATM   33  C   MOL     1     -50.924  -2.118  15.980  1.00 -0.36     0.038 A 
HETATM   34  C   MOL     1     -51.173  -2.532  14.696  1.00 -0.38     0.117 A 
HETATM   35  N   MOL     1     -50.272  -2.461  13.698  1.00 -0.12    -0.271 NA
HETATM   36  C   MOL     1     -49.079  -1.947  14.036  1.00 -0.27     0.146 A 
HETATM   37  C   MOL     1     -48.746  -1.511  15.308  1.00 -0.14     0.068 A 
BRANCH  37  38
HETATM   38  N   MOL     1     -47.464  -1.008  15.562  1.00  0.07    -0.325 N 
HETATM   39  C   MOL     1     -46.391  -1.729  15.945  1.00 -0.29     0.226 C 
HETATM   40  O   MOL     1     -46.386  -2.943  16.097  1.00 -0.10    -0.273 OA
HETATM   41  HN  MOL     1     -47.354  -0.143  15.459  1.00  0.05     0.169 HD
BRANCH  39  42
HETATM   42  C   MOL     1     -45.148  -0.888  16.147  1.00 -0.34     0.141 C 
BRANCH  42  43
HETATM   43  C   MOL     1     -44.695  -0.953  17.594  1.00 -0.21    -0.048 A 
HETATM   44  C   MOL     1     -43.440  -1.424  17.906  1.00 -0.31     0.007 A 
HETATM   45  C   MOL     1     -43.029  -1.482  19.219  1.00 -0.36     0.002 A 
HETATM   46  C   MOL     1     -43.873  -1.067  20.224  1.00 -0.30     0.024 A 
HETATM   47  C   MOL     1     -45.129  -0.594  19.915  1.00 -0.25     0.034 A 
HETATM   48 CL   MOL     1     -46.197  -0.069  21.183  1.00 -0.85    -0.084 Cl
HETATM   49  C   MOL     1     -45.539  -0.536  18.601  1.00 -0.22     0.031 A 
ENDBRANCH  42  43
ENDBRANCH  39  42
ENDBRANCH  37  38
ENDBRANCH  29  32
ENDBRANCH  27  28
ENDBRANCH  26  27
ENDBRANCH  25  26
ENDBRANCH  24  25
ENDBRANCH  23  24
ENDBRANCH  22  23
ENDBRANCH  20  22
ENDBRANCH  13  20
ENDBRANCH   5  10
TORSDOF 13
ENDMDL
MODEL 8
REMARK VINA RESULT:      -7.3      2.946      5.114
REMARK  13 active torsions:
REMARK  status: ('A' for Active; 'I' for Inactive)
REMARK    1  A    between atoms: C_5  and  N_6 
REMARK    2  A    between atoms: C_9  and  N_10 
REMARK    3  A    between atoms: N_10  and  C_11 
REMARK    4  A    between atoms: C_11  and  C_12 
REMARK    5  A    between atoms: C_12  and  C_13 
REMARK    6  A    between atoms: C_13  and  C_14 
REMARK    7  A    between atoms: C_14  and  C_15 
REMARK    8  A    between atoms: C_15  and  C_16 
REMARK    9  A    between atoms: C_16  and  N_17 
REMARK       I    between atoms: N_17  and  C_18 
REMARK   10  A    between atoms: C_18  and  C_20 
REMARK   11  A    between atoms: C_25  and  N_26 
REMARK       I    between atoms: N_26  and  C_27 
REMARK   12  A    between atoms: C_27  and  C_29 
REMARK   13  A    between atoms: C_29  and  C_30 
ROOT
HETATM    1  O   MOL     1     -52.553  -1.247  21.861  1.00 -0.03    -0.273 OA
HETATM    2  C   MOL     1     -51.469  -1.201  21.305  1.00 -0.41     0.224 C 
HETATM    3  C   MOL     1     -50.807  -2.442  20.753  1.00 -0.27     0.106 C 
HETATM    4  C   MOL     1     -49.946  -2.137  19.524  1.00 -0.23     0.044 C 
HETATM    5  C   MOL     1     -48.921  -1.097  19.984  1.00 -0.30     0.180 C 
HETATM    6  C   MOL     1     -49.594   0.150  20.517  1.00 -0.49     0.247 C 
HETATM    7  O   MOL     1     -49.087   1.252  20.393  1.00 -0.12    -0.271 OA
HETATM    8  N   MOL     1     -50.782  -0.048  21.129  1.00 -0.04    -0.296 N 
HETATM    9  HN  MOL     1     -51.169   0.676  21.450  1.00 -0.27     0.171 HD
ENDROOT
BRANCH   5  10
HETATM   10  N   MOL     1     -47.978  -0.777  18.901  1.00  0.05    -0.337 N 
HETATM   11  C   MOL     1     -48.420  -0.540  17.516  1.00 -0.25     0.138 C 
HETATM   12  C   MOL     1     -47.074  -0.993  16.920  1.00 -0.27     0.070 C 
HETATM   13  C   MOL     1     -46.720  -0.897  15.451  1.00 -0.20     0.011 C 
HETATM   14  C   MOL     1     -46.029  -0.307  17.804  1.00 -0.40     0.112 C 
HETATM   15  C   MOL     1     -45.427  -0.929  15.089  1.00 -0.28     0.025 C 
HETATM   16  C   MOL     1     -44.383  -1.050  16.107  1.00 -0.47    -0.001 C 
HETATM   17  C   MOL     1     -44.656  -0.761  17.378  1.00 -0.52    -0.012 C 
HETATM   18  C   MOL     1     -46.654  -0.701  19.111  1.00 -0.44     0.229 C 
HETATM   19  O   MOL     1     -46.064  -0.913  20.161  1.00 -0.63    -0.273 OA
BRANCH  13  20
HETATM   20  N   MOL     1     -47.805  -0.815  14.627  1.00  0.04    -0.393 N 
HETATM   21  HN  MOL     1     -47.934  -0.068  14.179  1.00 -0.01     0.159 HD
BRANCH  20  22
HETATM   22  C   MOL     1     -48.436  -2.040  14.115  1.00 -0.24     0.119 C 
BRANCH  22  23
HETATM   23  C   MOL     1     -49.886  -2.242  14.584  1.00 -0.09     0.020 C 
BRANCH  23  24
HETATM   24  C   MOL     1     -50.075  -3.729  14.920  1.00 -0.19     0.002 C 
BRANCH  24  25
HETATM   25  C   MOL     1     -50.908  -3.887  16.200  1.00 -0.35     0.002 C 
BRANCH  25  26
HETATM   26  C   MOL     1     -52.102  -4.802  15.890  1.00 -0.42     0.020 C 
BRANCH  26  27
HETATM   27  C   MOL     1     -52.567  -5.514  17.168  1.00 -0.29     0.123 C 
BRANCH  27  28
HETATM   28  N   MOL     1     -51.386  -6.039  17.867  1.00 -0.04    -0.357 N 
HETATM   29  C   MOL     1     -51.307  -7.356  18.163  1.00 -0.29     0.254 C 
HETATM   30  O   MOL     1     -52.192  -8.157  17.871  1.00 -0.19    -0.268 OA
HETATM   31  HN  MOL     1     -50.727  -5.494  18.071  1.00 -0.09     0.162 HD
BRANCH  29  32
HETATM   32  C   MOL     1     -50.119  -7.894  18.883  1.00 -0.21     0.061 A 
HETATM   33  C   MOL     1     -48.885  -7.953  18.266  1.00 -0.36     0.038 A 
HETATM   34  C   MOL     1     -47.788  -8.425  18.940  1.00 -0.38     0.117 A 
HETATM   35  N   MOL     1     -47.820  -8.854  20.215  1.00 -0.12    -0.271 NA
HETATM   36  C   MOL     1     -49.021  -8.796  20.812  1.00 -0.27     0.146 A 
HETATM   37  C   MOL     1     -50.177  -8.338  20.202  1.00 -0.14     0.068 A 
BRANCH  37  38
HETATM   38  N   MOL     1     -51.387  -8.335  20.907  1.00  0.07    -0.325 N 
HETATM   39  C   MOL     1     -51.911  -7.289  21.577  1.00 -0.29     0.226 C 
HETATM   40  O   MOL     1     -51.407  -6.177  21.637  1.00 -0.10    -0.273 OA
HETATM   41  HN  MOL     1     -51.843  -9.085  20.907  1.00  0.05     0.169 HD
BRANCH  39  42
HETATM   42  C   MOL     1     -53.233  -7.610  22.243  1.00 -0.34     0.141 C 
BRANCH  42  43
HETATM   43  C   MOL     1     -53.621  -6.505  23.209  1.00 -0.21    -0.048 A 
HETATM   44  C   MOL     1     -53.025  -6.428  24.448  1.00 -0.31     0.007 A 
HETATM   45  C   MOL     1     -53.377  -5.425  25.323  1.00 -0.36     0.002 A 
HETATM   46  C   MOL     1     -54.325  -4.496  24.961  1.00 -0.30     0.024 A 
HETATM   47  C   MOL     1     -54.922  -4.570  23.722  1.00 -0.25     0.034 A 
HETATM   48 CL   MOL     1     -56.121  -3.397  23.262  1.00 -0.85    -0.084 Cl
HETATM   49  C   MOL     1     -54.569  -5.574  22.847  1.00 -0.22     0.031 A 
ENDBRANCH  42  43
ENDBRANCH  39  42
ENDBRANCH  37  38
ENDBRANCH  29  32
ENDBRANCH  27  28
ENDBRANCH  26  27
ENDBRANCH  25  26
ENDBRANCH  24  25
ENDBRANCH  23  24
ENDBRANCH  22  23
ENDBRANCH  20  22
ENDBRANCH  13  20
ENDBRANCH   5  10
TORSDOF 13
ENDMDL
MODEL 9
REMARK VINA RESULT:      -7.3      6.829     12.858
REMARK  13 active torsions:
REMARK  status: ('A' for Active; 'I' for Inactive)
REMARK    1  A    between atoms: C_5  and  N_6 
REMARK    2  A    between atoms: C_9  and  N_10 
REMARK    3  A    between atoms: N_10  and  C_11 
REMARK    4  A    between atoms: C_11  and  C_12 
REMARK    5  A    between atoms: C_12  and  C_13 
REMARK    6  A    between atoms: C_13  and  C_14 
REMARK    7  A    between atoms: C_14  and  C_15 
REMARK    8  A    between atoms: C_15  and  C_16 
REMARK    9  A    between atoms: C_16  and  N_17 
REMARK       I    between atoms: N_17  and  C_18 
REMARK   10  A    between atoms: C_18  and  C_20 
REMARK   11  A    between atoms: C_25  and  N_26 
REMARK       I    between atoms: N_26  and  C_27 
REMARK   12  A    between atoms: C_27  and  C_29 
REMARK   13  A    between atoms: C_29  and  C_30 
ROOT
HETATM    1  O   MOL     1     -43.000  -9.744  29.953  1.00 -0.03    -0.273 OA
HETATM    2  C   MOL     1     -43.905 -10.518  29.694  1.00 -0.41     0.224 C 
HETATM    3  C   MOL     1     -44.544 -10.562  28.325  1.00 -0.27     0.106 C 
HETATM    4  C   MOL     1     -45.044 -11.964  27.969  1.00 -0.23     0.044 C 
HETATM    5  C   MOL     1     -46.032 -12.345  29.075  1.00 -0.30     0.180 C 
HETATM    6  C   MOL     1     -45.378 -12.316  30.439  1.00 -0.49     0.247 C 
HETATM    7  O   MOL     1     -45.719 -13.080  31.327  1.00 -0.12    -0.271 OA
HETATM    8  N   MOL     1     -44.402 -11.395  30.596  1.00 -0.04    -0.296 N 
HETATM    9  HN  MOL     1     -44.029 -11.371  31.394  1.00 -0.27     0.171 HD
ENDROOT
BRANCH   5  10
HETATM   10  N   MOL     1     -46.645 -13.654  28.800  1.00  0.05    -0.337 N 
HETATM   11  C   MOL     1     -45.866 -14.800  28.301  1.00 -0.25     0.138 C 
HETATM   12  C   MOL     1     -47.086 -15.435  27.608  1.00 -0.27     0.070 C 
HETATM   13  C   MOL     1     -47.074 -16.796  26.945  1.00 -0.20     0.011 C 
HETATM   14  C   MOL     1     -48.204 -15.319  28.648  1.00 -0.40     0.112 C 
HETATM   15  C   MOL     1     -48.238 -17.429  26.734  1.00 -0.28     0.025 C 
HETATM   16  C   MOL     1     -49.497 -16.807  27.147  1.00 -0.47    -0.001 C 
HETATM   17  C   MOL     1     -49.489 -15.820  28.041  1.00 -0.52    -0.012 C 
HETATM   18  C   MOL     1     -47.958 -13.873  28.973  1.00 -0.44     0.229 C 
HETATM   19  O   MOL     1     -48.799 -13.057  29.324  1.00 -0.63    -0.273 OA
BRANCH  13  20
HETATM   20  N   MOL     1     -45.827 -17.228  26.597  1.00  0.04    -0.393 N 
HETATM   21  HN  MOL     1     -45.237 -17.362  27.237  1.00 -0.01     0.159 HD
BRANCH  20  22
HETATM   22  C   MOL     1     -45.614 -17.912  25.314  1.00 -0.24     0.119 C 
BRANCH  22  23
HETATM   23  C   MOL     1     -45.480 -16.964  24.111  1.00 -0.09     0.020 C 
BRANCH  23  24
HETATM   24  C   MOL     1     -46.768 -17.064  23.279  1.00 -0.19     0.002 C 
BRANCH  24  25
HETATM   25  C   MOL     1     -47.418 -15.681  23.130  1.00 -0.35     0.002 C 
BRANCH  25  26
HETATM   26  C   MOL     1     -47.725 -15.448  21.643  1.00 -0.42     0.020 C 
BRANCH  26  27
HETATM   27  C   MOL     1     -46.683 -14.502  21.031  1.00 -0.29     0.123 C 
BRANCH  27  28
HETATM   28  N   MOL     1     -47.359 -13.262  20.624  1.00 -0.04    -0.357 N 
HETATM   29  C   MOL     1     -46.937 -12.073  21.110  1.00 -0.29     0.254 C 
HETATM   30  O   MOL     1     -45.996 -11.971  21.893  1.00 -0.19    -0.268 OA
HETATM   31  HN  MOL     1     -48.023 -13.301  20.049  1.00 -0.09     0.162 HD
BRANCH  29  32
HETATM   32  C   MOL     1     -47.627 -10.813  20.714  1.00 -0.21     0.061 A 
HETATM   33  C   MOL     1     -48.790 -10.415  21.343  1.00 -0.36     0.038 A 
HETATM   34  C   MOL     1     -49.409  -9.242  20.993  1.00 -0.38     0.117 A 
HETATM   35  N   MOL     1     -48.950  -8.409  20.041  1.00 -0.12    -0.271 NA
HETATM   36  C   MOL     1     -47.819  -8.799  19.432  1.00 -0.27     0.146 A 
HETATM   37  C   MOL     1     -47.136  -9.968  19.722  1.00 -0.14     0.068 A 
BRANCH  37  38
HETATM   38  N   MOL     1     -45.973 -10.293  19.013  1.00  0.07    -0.325 N 
HETATM   39  C   MOL     1     -44.725  -9.871  19.302  1.00 -0.29     0.226 C 
HETATM   40  O   MOL     1     -44.432  -9.160  20.252  1.00 -0.10    -0.273 OA
HETATM   41  HN  MOL     1     -46.070 -10.824  18.320  1.00  0.05     0.169 HD
BRANCH  39  42
HETATM   42  C   MOL     1     -43.681 -10.396  18.338  1.00 -0.34     0.141 C 
BRANCH  42  43
HETATM   43  C   MOL     1     -42.770 -11.391  19.034  1.00 -0.21    -0.048 A 
HETATM   44  C   MOL     1     -41.409 -11.183  19.060  1.00 -0.31     0.007 A 
HETATM   45  C   MOL     1     -40.584 -12.085  19.692  1.00 -0.36     0.002 A 
HETATM   46  C   MOL     1     -41.118 -13.198  20.301  1.00 -0.30     0.024 A 
HETATM   47  C   MOL     1     -42.479 -13.408  20.278  1.00 -0.25     0.034 A 
HETATM   48 CL   MOL     1     -43.156 -14.813  21.047  1.00 -0.85    -0.084 Cl
HETATM   49  C   MOL     1     -43.304 -12.504  19.644  1.00 -0.22     0.031 A 
ENDBRANCH  42  43
ENDBRANCH  39  42
ENDBRANCH  37  38
ENDBRANCH  29  32
ENDBRANCH  27  28
ENDBRANCH  26  27
ENDBRANCH  25  26
ENDBRANCH  24  25
ENDBRANCH  23  24
ENDBRANCH  22  23
ENDBRANCH  20  22
ENDBRANCH  13  20
ENDBRANCH   5  10
TORSDOF 13
ENDMDL
MODEL 10
REMARK VINA RESULT:      -7.2      7.680     12.429
REMARK  13 active torsions:
REMARK  status: ('A' for Active; 'I' for Inactive)
REMARK    1  A    between atoms: C_5  and  N_6 
REMARK    2  A    between atoms: C_9  and  N_10 
REMARK    3  A    between atoms: N_10  and  C_11 
REMARK    4  A    between atoms: C_11  and  C_12 
REMARK    5  A    between atoms: C_12  and  C_13 
REMARK    6  A    between atoms: C_13  and  C_14 
REMARK    7  A    between atoms: C_14  and  C_15 
REMARK    8  A    between atoms: C_15  and  C_16 
REMARK    9  A    between atoms: C_16  and  N_17 
REMARK       I    between atoms: N_17  and  C_18 
REMARK   10  A    between atoms: C_18  and  C_20 
REMARK   11  A    between atoms: C_25  and  N_26 
REMARK       I    between atoms: N_26  and  C_27 
REMARK   12  A    between atoms: C_27  and  C_29 
REMARK   13  A    between atoms: C_29  and  C_30 
ROOT
HETATM    1  O   MOL     1     -45.734  -9.250  19.721  1.00 -0.03    -0.273 OA
HETATM    2  C   MOL     1     -45.891 -10.450  19.864  1.00 -0.41     0.224 C 
HETATM    3  C   MOL     1     -44.818 -11.323  20.476  1.00 -0.27     0.106 C 
HETATM    4  C   MOL     1     -45.410 -12.514  21.235  1.00 -0.23     0.044 C 
HETATM    5  C   MOL     1     -46.257 -13.278  20.213  1.00 -0.30     0.180 C 
HETATM    6  C   MOL     1     -47.338 -12.401  19.621  1.00 -0.49     0.247 C 
HETATM    7  O   MOL     1     -48.417 -12.859  19.282  1.00 -0.12    -0.271 OA
HETATM    8  N   MOL     1     -47.025 -11.092  19.500  1.00 -0.04    -0.296 N 
HETATM    9  HN  MOL     1     -47.650 -10.584  19.144  1.00 -0.27     0.171 HD
ENDROOT
BRANCH   5  10
HETATM   10  N   MOL     1     -46.821 -14.498  20.809  1.00  0.05    -0.337 N 
HETATM   11  C   MOL     1     -47.588 -14.480  22.066  1.00 -0.25     0.138 C 
HETATM   12  C   MOL     1     -47.213 -15.932  22.416  1.00 -0.27     0.070 C 
HETATM   13  C   MOL     1     -47.781 -16.696  23.593  1.00 -0.20     0.011 C 
HETATM   14  C   MOL     1     -47.403 -16.690  21.099  1.00 -0.40     0.112 C 
HETATM   15  C   MOL     1     -47.719 -18.037  23.590  1.00 -0.28     0.025 C 
HETATM   16  C   MOL     1     -47.114 -18.742  22.458  1.00 -0.47    -0.001 C 
HETATM   17  C   MOL     1     -46.963 -18.118  21.290  1.00 -0.52    -0.012 C 
HETATM   18  C   MOL     1     -46.651 -15.707  20.249  1.00 -0.44     0.229 C 
HETATM   19  O   MOL     1     -46.007 -15.965  19.241  1.00 -0.63    -0.273 OA
BRANCH  13  20
HETATM   20  N   MOL     1     -48.285 -15.897  24.577  1.00  0.04    -0.393 N 
HETATM   21  HN  MOL     1     -48.438 -15.050  24.391  1.00 -0.01     0.159 HD
BRANCH  20  22
HETATM   22  C   MOL     1     -49.006 -16.490  25.712  1.00 -0.24     0.119 C 
BRANCH  22  23
HETATM   23  C   MOL     1     -48.303 -16.310  27.067  1.00 -0.09     0.020 C 
BRANCH  23  24
HETATM   24  C   MOL     1     -48.169 -14.804  27.338  1.00 -0.19     0.002 C 
BRANCH  24  25
HETATM   25  C   MOL     1     -47.581 -14.561  28.736  1.00 -0.35     0.002 C 
BRANCH  25  26
HETATM   26  C   MOL     1     -46.279 -15.366  28.860  1.00 -0.42     0.020 C 
BRANCH  26  27
HETATM   27  C   MOL     1     -45.196 -14.761  27.955  1.00 -0.29     0.123 C 
BRANCH  27  28
HETATM   28  N   MOL     1     -44.669 -15.820  27.084  1.00 -0.04    -0.357 N 
HETATM   29  C   MOL     1     -44.827 -15.733  25.744  1.00 -0.29     0.254 C 
HETATM   30  O   MOL     1     -45.402 -14.791  25.203  1.00 -0.19    -0.268 OA
HETATM   31  HN  MOL     1     -44.235 -16.496  27.441  1.00 -0.09     0.162 HD
BRANCH  29  32
HETATM   32  C   MOL     1     -44.308 -16.810  24.855  1.00 -0.21     0.061 A 
HETATM   33  C   MOL     1     -44.465 -18.141  25.191  1.00 -0.36     0.038 A 
HETATM   34  C   MOL     1     -44.009 -19.130  24.358  1.00 -0.38     0.117 A 
HETATM   35  N   MOL     1     -43.390 -18.897  23.185  1.00 -0.12    -0.271 NA
HETATM   36  C   MOL     1     -43.239 -17.602  22.863  1.00 -0.27     0.146 A 
HETATM   37  C   MOL     1     -43.667 -16.545  23.648  1.00 -0.14     0.068 A 
BRANCH  37  38
HETATM   38  N   MOL     1     -43.443 -15.227  23.230  1.00  0.07    -0.325 N 
HETATM   39  C   MOL     1     -42.317 -14.512  23.431  1.00 -0.29     0.226 C 
HETATM   40  O   MOL     1     -41.314 -14.934  23.989  1.00 -0.10    -0.273 OA
HETATM   41  HN  MOL     1     -44.097 -14.836  22.795  1.00  0.05     0.169 HD
BRANCH  39  42
HETATM   42  C   MOL     1     -42.391 -13.110  22.862  1.00 -0.34     0.141 C 
BRANCH  42  43
HETATM   43  C   MOL     1     -41.196 -12.839  21.967  1.00 -0.21    -0.048 A 
HETATM   44  C   MOL     1     -40.360 -11.777  22.232  1.00 -0.31     0.007 A 
HETATM   45  C   MOL     1     -39.275 -11.533  21.421  1.00 -0.36     0.002 A 
HETATM   46  C   MOL     1     -39.023 -12.349  20.341  1.00 -0.30     0.024 A 
HETATM   47  C   MOL     1     -39.857 -13.412  20.075  1.00 -0.25     0.034 A 
HETATM   48 CL   MOL     1     -39.541 -14.445  18.712  1.00 -0.85    -0.084 Cl
HETATM   49  C   MOL     1     -40.942 -13.656  20.888  1.00 -0.22     0.031 A 
ENDBRANCH  42  43
ENDBRANCH  39  42
ENDBRANCH  37  38
ENDBRANCH  29  32
ENDBRANCH  27  28
ENDBRANCH  26  27
ENDBRANCH  25  26
ENDBRANCH  24  25
ENDBRANCH  23  24
ENDBRANCH  22  23
ENDBRANCH  20  22
ENDBRANCH  13  20
ENDBRANCH   5  10
TORSDOF 13
ENDMDL
