MODEL 1
REMARK VINA RESULT:      -8.5      0.000      0.000
REMARK  20 active torsions:
REMARK  status: ('A' for Active; 'I' for Inactive)
REMARK    1  A    between atoms: C_3  and  C_7 
REMARK    2  A    between atoms: C_7  and  C_8 
REMARK    3  A    between atoms: C_8  and  N_9 
REMARK    4  A    between atoms: C_8  and  C_10 
REMARK    5  A    between atoms: C_10  and  O_11 
REMARK    6  A    between atoms: C_10  and  C_12 
REMARK    7  A    between atoms: C_12  and  C_13 
REMARK    8  A    between atoms: C_13  and  C_14 
REMARK    9  A    between atoms: C_13  and  N_21 
REMARK   10  A    between atoms: C_14  and  C_15 
REMARK   11  A    between atoms: N_21  and  P_22 
REMARK   12  A    between atoms: P_22  and  O_23 
REMARK   13  A    between atoms: P_22  and  O_24 
REMARK   14  A    between atoms: O_23  and  C_26 
REMARK   15  A    between atoms: O_24  and  C_27 
REMARK   16  A    between atoms: C_26  and  C_33 
REMARK   17  A    between atoms: C_35  and  C_40 
REMARK   18  A    between atoms: C_36  and  O_39 
REMARK   19  A    between atoms: C_37  and  O_38 
REMARK   20  A    between atoms: C_50  and  N_51 
ROOT
HETATM    1  C   MOL     1     -43.325   1.174  19.543  1.00 -0.25     0.001 A 
HETATM    2  C   MOL     1     -43.939   1.030  18.319  1.00 -0.30     0.007 A 
HETATM    3  C   MOL     1     -44.220  -0.225  17.825  1.00 -0.25    -0.056 A 
HETATM    4  C   MOL     1     -43.881  -1.337  18.566  1.00 -0.33     0.007 A 
HETATM    5  C   MOL     1     -43.266  -1.195  19.789  1.00 -0.34     0.001 A 
HETATM    6  C   MOL     1     -42.987   0.061  20.277  1.00 -0.27     0.000 A 
ENDROOT
BRANCH   3   7
HETATM    7  C   MOL     1     -44.902  -0.382  16.473  1.00 -0.43     0.074 C 
BRANCH   7   8
HETATM    8  C   MOL     1     -44.884  -1.814  15.894  1.00 -0.43     0.216 C 
BRANCH   8   9
HETATM    9  N   MOL     1     -44.125  -1.809  14.594  1.00  0.05    -0.072 N 
HETATM   10  H   MOL     1     -44.092  -2.637  14.218  1.00 -0.64     0.274 HD
HETATM   11  H   MOL     1     -44.510  -1.255  13.982  1.00 -0.76     0.274 HD
HETATM   12  H   MOL     1     -43.269  -1.522  14.694  1.00 -0.15     0.274 HD
ENDBRANCH   8   9
BRANCH   8  13
HETATM   13  C   MOL     1     -46.331  -2.323  15.697  1.00 -0.29     0.150 C 
BRANCH  13  14
HETATM   14  O   MOL     1     -46.472  -2.912  14.392  1.00  0.06    -0.393 OA
HETATM   15  H   MOL     1     -45.585  -3.220  14.034  1.00 -0.27     0.210 HD
ENDBRANCH  13  14
BRANCH  13  16
HETATM   16  C   MOL     1     -47.354  -1.176  15.849  1.00 -0.14     0.054 C 
BRANCH  16  17
HETATM   17  C   MOL     1     -48.221  -1.348  17.117  1.00 -0.12     0.073 C 
BRANCH  17  18
HETATM   18  C   MOL     1     -48.614   0.042  17.664  1.00 -0.13     0.058 C 
BRANCH  18  19
HETATM   19  C   MOL     1     -47.845   0.507  18.891  1.00 -0.16    -0.057 A 
HETATM   20  C   MOL     1     -47.348  -0.413  19.789  1.00 -0.21     0.007 A 
HETATM   21  C   MOL     1     -46.655   0.006  20.902  1.00 -0.25     0.001 A 
HETATM   22  C   MOL     1     -46.456   1.349  21.123  1.00 -0.37     0.000 A 
HETATM   23  C   MOL     1     -46.951   2.273  20.230  1.00 -0.40     0.001 A 
HETATM   24  C   MOL     1     -47.643   1.851  19.117  1.00 -0.21     0.007 A 
ENDBRANCH  18  19
ENDBRANCH  17  18
BRANCH  17  25
HETATM   25  N   MOL     1     -49.435  -2.106  16.786  1.00  0.15    -0.221 NA
HETATM   26  H   MOL     1     -49.417  -2.392  15.799  1.00  0.32     0.134 HD
BRANCH  25  27
HETATM   27  P   MOL     1     -49.681  -3.295  17.681  1.00  0.09     0.413 P 
HETATM   28  O   MOL     1     -48.908  -3.184  18.969  1.00  0.07    -0.239 OA
BRANCH  27  29
HETATM   29  O   MOL     1     -49.317  -4.673  16.935  1.00  0.12    -0.299 OA
BRANCH  29  30
HETATM   30  C   MOL     1     -48.206  -5.446  17.410  1.00 -0.20     0.214 C 
BRANCH  30  31
HETATM   31  C   MOL     1     -48.670  -6.388  18.533  1.00 -0.04     0.180 C 
HETATM   32  O   MOL     1     -47.587  -6.728  19.414  1.00  0.26    -0.347 OA
HETATM   33  C   MOL     1     -47.745  -8.073  19.904  1.00 -0.04     0.222 C 
HETATM   34  C   MOL     1     -49.021  -8.628  19.229  1.00 -0.10     0.205 C 
HETATM   35  C   MOL     1     -47.926  -8.015  21.361  1.00 -0.21     0.107 C 
HETATM   36  C   MOL     1     -49.222  -7.721  18.008  1.00 -0.06     0.182 C 
HETATM   37  N   MOL     1     -48.067  -7.970  22.488  1.00  0.07    -0.193 NA
BRANCH  33  38
HETATM   38  C   MOL     1     -46.442  -8.783  19.553  1.00 -0.19     0.088 A 
HETATM   39  N   MOL     1     -46.168 -10.018  20.038  1.00 -0.03    -0.229 N 
HETATM   40  C   MOL     1     -44.946 -10.337  19.533  1.00 -0.22     0.104 A 
HETATM   41  N   MOL     1     -46.841 -10.882  20.854  1.00  0.23    -0.160 NA
HETATM   42  C   MOL     1     -44.460  -9.336  18.755  1.00 -0.37     0.038 A 
HETATM   43  C   MOL     1     -44.399 -11.599  19.881  1.00 -0.44     0.151 A 
HETATM   44  C   MOL     1     -45.433  -8.334  18.775  1.00 -0.17     0.034 A 
HETATM   45  N   MOL     1     -45.046 -12.457  20.681  1.00 -0.19    -0.221 NA
HETATM   46  C   MOL     1     -46.269 -12.029  21.133  1.00 -0.33     0.258 A 
BRANCH  43  47
HETATM   47  N   MOL     1     -43.170 -11.991  19.405  1.00 -0.25    -0.382 N 
HETATM   48  H   MOL     1     -43.120 -12.609  18.780  1.00 -0.27     0.157 HD
HETATM   49  H   MOL     1     -42.433 -11.627  19.720  1.00 -0.19     0.157 HD
ENDBRANCH  43  47
ENDBRANCH  33  38
BRANCH  34  50
HETATM   50  O   MOL     1     -48.916 -10.011  18.856  1.00  0.41    -0.388 OA
HETATM   51  H   MOL     1     -49.034 -10.615  19.652  1.00 -0.42     0.210 HD
ENDBRANCH  34  50
BRANCH  36  52
HETATM   52  O   MOL     1     -48.451  -8.221  16.904  1.00  0.07    -0.390 OA
HETATM   53  H   MOL     1     -47.465  -8.093  17.059  1.00 -0.09     0.210 HD
ENDBRANCH  36  52
ENDBRANCH  30  31
ENDBRANCH  29  30
ENDBRANCH  27  29
BRANCH  27  54
HETATM   54  O   MOL     1     -51.258  -3.450  17.980  1.00  0.13    -0.260 OA
BRANCH  54  55
HETATM   55  C   MOL     1     -52.058  -4.294  17.260  1.00 -0.29     0.080 A 
HETATM   56  C   MOL     1     -52.612  -3.918  16.050  1.00 -0.28     0.037 A 
HETATM   57  C   MOL     1     -53.409  -4.791  15.348  1.00 -0.40     0.003 A 
HETATM   58  C   MOL     1     -53.659  -6.049  15.847  1.00 -0.35     0.000 A 
HETATM   59  C   MOL     1     -53.112  -6.431  17.051  1.00 -0.47     0.003 A 
HETATM   60  C   MOL     1     -52.318  -5.557  17.755  1.00 -0.37     0.037 A 
ENDBRANCH  54  55
ENDBRANCH  27  54
ENDBRANCH  25  27
ENDBRANCH  17  25
ENDBRANCH  16  17
ENDBRANCH  13  16
ENDBRANCH   8  13
ENDBRANCH   7   8
ENDBRANCH   3   7
TORSDOF 20
ENDMDL
MODEL 2
REMARK VINA RESULT:      -8.1      6.960     14.942
REMARK  20 active torsions:
REMARK  status: ('A' for Active; 'I' for Inactive)
REMARK    1  A    between atoms: C_3  and  C_7 
REMARK    2  A    between atoms: C_7  and  C_8 
REMARK    3  A    between atoms: C_8  and  N_9 
REMARK    4  A    between atoms: C_8  and  C_10 
REMARK    5  A    between atoms: C_10  and  O_11 
REMARK    6  A    between atoms: C_10  and  C_12 
REMARK    7  A    between atoms: C_12  and  C_13 
REMARK    8  A    between atoms: C_13  and  C_14 
REMARK    9  A    between atoms: C_13  and  N_21 
REMARK   10  A    between atoms: C_14  and  C_15 
REMARK   11  A    between atoms: N_21  and  P_22 
REMARK   12  A    between atoms: P_22  and  O_23 
REMARK   13  A    between atoms: P_22  and  O_24 
REMARK   14  A    between atoms: O_23  and  C_26 
REMARK   15  A    between atoms: O_24  and  C_27 
REMARK   16  A    between atoms: C_26  and  C_33 
REMARK   17  A    between atoms: C_35  and  C_40 
REMARK   18  A    between atoms: C_36  and  O_39 
REMARK   19  A    between atoms: C_37  and  O_38 
REMARK   20  A    between atoms: C_50  and  N_51 
ROOT
HETATM    1  C   MOL     1     -46.626 -14.295  30.713  1.00 -0.25     0.001 A 
HETATM    2  C   MOL     1     -46.996 -15.357  29.920  1.00 -0.30     0.007 A 
HETATM    3  C   MOL     1     -47.949 -15.195  28.938  1.00 -0.25    -0.056 A 
HETATM    4  C   MOL     1     -48.530 -13.958  28.756  1.00 -0.33     0.007 A 
HETATM    5  C   MOL     1     -48.163 -12.895  29.549  1.00 -0.34     0.001 A 
HETATM    6  C   MOL     1     -47.210 -13.063  30.528  1.00 -0.27     0.000 A 
ENDROOT
BRANCH   3   7
HETATM    7  C   MOL     1     -48.354 -16.371  28.061  1.00 -0.43     0.074 C 
BRANCH   7   8
HETATM    8  C   MOL     1     -49.369 -16.035  26.945  1.00 -0.43     0.216 C 
BRANCH   8   9
HETATM    9  N   MOL     1     -50.712 -16.608  27.314  1.00  0.05    -0.072 N 
HETATM   10  H   MOL     1     -50.676 -17.509  27.427  1.00 -0.64     0.274 HD
HETATM   11  H   MOL     1     -51.024 -16.255  28.093  1.00 -0.76     0.274 HD
HETATM   12  H   MOL     1     -51.345 -16.438  26.685  1.00 -0.15     0.274 HD
ENDBRANCH   8   9
BRANCH   8  13
HETATM   13  C   MOL     1     -48.872 -16.595  25.592  1.00 -0.29     0.150 C 
BRANCH  13  14
HETATM   14  O   MOL     1     -49.958 -17.229  24.893  1.00  0.06    -0.393 OA
HETATM   15  H   MOL     1     -49.971 -18.220  25.062  1.00 -0.27     0.210 HD
ENDBRANCH  13  14
BRANCH  13  16
HETATM   16  C   MOL     1     -47.732 -17.617  25.793  1.00 -0.14     0.054 C 
BRANCH  16  17
HETATM   17  C   MOL     1     -46.954 -17.869  24.483  1.00 -0.12     0.073 C 
BRANCH  17  18
HETATM   18  C   MOL     1     -47.194 -19.322  24.013  1.00 -0.13     0.058 C 
BRANCH  18  19
HETATM   19  C   MOL     1     -46.002 -20.258  24.137  1.00 -0.16    -0.057 A 
HETATM   20  C   MOL     1     -46.188 -21.623  24.135  1.00 -0.21     0.007 A 
HETATM   21  C   MOL     1     -45.110 -22.472  24.251  1.00 -0.25     0.001 A 
HETATM   22  C   MOL     1     -43.840 -21.958  24.372  1.00 -0.37     0.000 A 
HETATM   23  C   MOL     1     -43.648 -20.594  24.374  1.00 -0.40     0.001 A 
HETATM   24  C   MOL     1     -44.728 -19.748  24.257  1.00 -0.21     0.007 A 
ENDBRANCH  18  19
ENDBRANCH  17  18
BRANCH  17  25
HETATM   25  N   MOL     1     -47.416 -16.936  23.446  1.00  0.15    -0.221 NA
HETATM   26  H   MOL     1     -48.162 -16.334  23.818  1.00  0.32     0.134 HD
BRANCH  25  27
HETATM   27  P   MOL     1     -46.317 -16.106  22.832  1.00  0.09     0.413 P 
HETATM   28  O   MOL     1     -45.063 -16.150  23.665  1.00  0.07    -0.239 OA
BRANCH  27  29
HETATM   29  O   MOL     1     -46.785 -14.583  22.617  1.00  0.12    -0.299 OA
BRANCH  29  30
HETATM   30  C   MOL     1     -47.394 -14.214  21.371  1.00 -0.20     0.214 C 
BRANCH  30  31
HETATM   31  C   MOL     1     -46.889 -12.828  20.937  1.00 -0.04     0.180 C 
HETATM   32  O   MOL     1     -47.239 -11.818  21.899  1.00  0.26    -0.347 OA
HETATM   33  C   MOL     1     -47.500 -10.566  21.236  1.00 -0.04     0.222 C 
HETATM   34  C   MOL     1     -47.337 -10.841  19.722  1.00 -0.10     0.205 C 
HETATM   35  C   MOL     1     -46.499  -9.589  21.684  1.00 -0.21     0.107 C 
HETATM   36  C   MOL     1     -47.486 -12.363  19.601  1.00 -0.06     0.182 C 
HETATM   37  N   MOL     1     -45.724  -8.833  22.031  1.00  0.07    -0.193 NA
BRANCH  33  38
HETATM   38  C   MOL     1     -48.895 -10.154  21.693  1.00 -0.19     0.088 A 
HETATM   39  N   MOL     1     -49.438  -8.977  21.300  1.00 -0.03    -0.229 N 
HETATM   40  C   MOL     1     -50.664  -8.936  21.886  1.00 -0.22     0.104 A 
HETATM   41  N   MOL     1     -49.000  -7.952  20.511  1.00  0.23    -0.160 NA
HETATM   42  C   MOL     1     -50.892 -10.051  22.628  1.00 -0.37     0.038 A 
HETATM   43  C   MOL     1     -51.473  -7.796  21.644  1.00 -0.44     0.151 A 
HETATM   44  C   MOL     1     -49.741 -10.832  22.499  1.00 -0.17     0.034 A 
HETATM   45  N   MOL     1     -51.057  -6.782  20.872  1.00 -0.19    -0.221 NA
HETATM   46  C   MOL     1     -49.803  -6.930  20.336  1.00 -0.33     0.258 A 
BRANCH  43  47
HETATM   47  N   MOL     1     -52.726  -7.687  22.199  1.00 -0.25    -0.382 N 
HETATM   48  H   MOL     1     -52.939  -6.968  22.660  1.00 -0.27     0.157 HD
HETATM   49  H   MOL     1     -53.317  -8.332  22.097  1.00 -0.19     0.157 HD
ENDBRANCH  43  47
ENDBRANCH  33  38
BRANCH  34  50
HETATM   50  O   MOL     1     -48.294 -10.144  18.909  1.00  0.41    -0.388 OA
HETATM   51  H   MOL     1     -49.142  -9.958  19.418  1.00 -0.42     0.210 HD
ENDBRANCH  34  50
BRANCH  36  52
HETATM   52  O   MOL     1     -48.876 -12.705  19.488  1.00  0.07    -0.390 OA
HETATM   53  H   MOL     1     -49.438 -11.892  19.299  1.00 -0.09     0.210 HD
ENDBRANCH  36  52
ENDBRANCH  30  31
ENDBRANCH  29  30
ENDBRANCH  27  29
BRANCH  27  54
HETATM   54  O   MOL     1     -46.014 -16.607  21.329  1.00  0.13    -0.260 OA
BRANCH  54  55
HETATM   55  C   MOL     1     -45.407 -17.804  21.068  1.00 -0.29     0.080 A 
HETATM   56  C   MOL     1     -44.037 -17.964  21.162  1.00 -0.28     0.037 A 
HETATM   57  C   MOL     1     -43.458 -19.182  20.897  1.00 -0.40     0.003 A 
HETATM   58  C   MOL     1     -44.242 -20.254  20.537  1.00 -0.35     0.000 A 
HETATM   59  C   MOL     1     -45.607 -20.104  20.441  1.00 -0.47     0.003 A 
HETATM   60  C   MOL     1     -46.186 -18.886  20.703  1.00 -0.37     0.037 A 
ENDBRANCH  54  55
ENDBRANCH  27  54
ENDBRANCH  25  27
ENDBRANCH  17  25
ENDBRANCH  16  17
ENDBRANCH  13  16
ENDBRANCH   8  13
ENDBRANCH   7   8
ENDBRANCH   3   7
TORSDOF 20
ENDMDL
MODEL 3
REMARK VINA RESULT:      -7.9      1.708      4.568
REMARK  20 active torsions:
REMARK  status: ('A' for Active; 'I' for Inactive)
REMARK    1  A    between atoms: C_3  and  C_7 
REMARK    2  A    between atoms: C_7  and  C_8 
REMARK    3  A    between atoms: C_8  and  N_9 
REMARK    4  A    between atoms: C_8  and  C_10 
REMARK    5  A    between atoms: C_10  and  O_11 
REMARK    6  A    between atoms: C_10  and  C_12 
REMARK    7  A    between atoms: C_12  and  C_13 
REMARK    8  A    between atoms: C_13  and  C_14 
REMARK    9  A    between atoms: C_13  and  N_21 
REMARK   10  A    between atoms: C_14  and  C_15 
REMARK   11  A    between atoms: N_21  and  P_22 
REMARK   12  A    between atoms: P_22  and  O_23 
REMARK   13  A    between atoms: P_22  and  O_24 
REMARK   14  A    between atoms: O_23  and  C_26 
REMARK   15  A    between atoms: O_24  and  C_27 
REMARK   16  A    between atoms: C_26  and  C_33 
REMARK   17  A    between atoms: C_35  and  C_40 
REMARK   18  A    between atoms: C_36  and  O_39 
REMARK   19  A    between atoms: C_37  and  O_38 
REMARK   20  A    between atoms: C_50  and  N_51 
ROOT
HETATM    1  C   MOL     1     -43.690   1.161  19.684  1.00 -0.25     0.001 A 
HETATM    2  C   MOL     1     -44.405   1.034  18.514  1.00 -0.30     0.007 A 
HETATM    3  C   MOL     1     -44.376  -0.147  17.805  1.00 -0.25    -0.056 A 
HETATM    4  C   MOL     1     -43.624  -1.202  18.276  1.00 -0.33     0.007 A 
HETATM    5  C   MOL     1     -42.908  -1.077  19.445  1.00 -0.34     0.001 A 
HETATM    6  C   MOL     1     -42.941   0.105  20.148  1.00 -0.27     0.000 A 
ENDROOT
BRANCH   3   7
HETATM    7  C   MOL     1     -45.170  -0.286  16.513  1.00 -0.43     0.074 C 
BRANCH   7   8
HETATM    8  C   MOL     1     -45.195  -1.709  15.911  1.00 -0.43     0.216 C 
BRANCH   8   9
HETATM    9  N   MOL     1     -44.303  -1.745  14.699  1.00  0.05    -0.072 N 
HETATM   10  H   MOL     1     -44.777  -1.879  13.935  1.00 -0.64     0.274 HD
HETATM   11  H   MOL     1     -43.846  -0.965  14.595  1.00 -0.76     0.274 HD
HETATM   12  H   MOL     1     -43.677  -2.402  14.749  1.00 -0.15     0.274 HD
ENDBRANCH   8   9
BRANCH   8  13
HETATM   13  C   MOL     1     -46.646  -2.105  15.553  1.00 -0.29     0.150 C 
BRANCH  13  14
HETATM   14  O   MOL     1     -46.662  -2.856  14.326  1.00  0.06    -0.393 OA
HETATM   15  H   MOL     1     -45.957  -2.529  13.689  1.00 -0.27     0.210 HD
ENDBRANCH  13  14
BRANCH  13  16
HETATM   16  C   MOL     1     -47.546  -0.860  15.397  1.00 -0.14     0.054 C 
BRANCH  16  17
HETATM   17  C   MOL     1     -48.823  -0.966  16.260  1.00 -0.12     0.073 C 
BRANCH  17  18
HETATM   18  C   MOL     1     -50.047  -1.186  15.342  1.00 -0.13     0.058 C 
BRANCH  18  19
HETATM   19  C   MOL     1     -50.665  -2.574  15.394  1.00 -0.16    -0.057 A 
HETATM   20  C   MOL     1     -50.047  -3.634  14.769  1.00 -0.21     0.007 A 
HETATM   21  C   MOL     1     -50.607  -4.892  14.812  1.00 -0.25     0.001 A 
HETATM   22  C   MOL     1     -51.792  -5.093  15.481  1.00 -0.37     0.000 A 
HETATM   23  C   MOL     1     -52.415  -4.037  16.108  1.00 -0.40     0.001 A 
HETATM   24  C   MOL     1     -51.852  -2.782  16.064  1.00 -0.21     0.007 A 
ENDBRANCH  18  19
ENDBRANCH  17  18
BRANCH  17  25
HETATM   25  N   MOL     1     -48.699  -2.097  17.190  1.00  0.15    -0.221 NA
HETATM   26  H   MOL     1     -47.890  -2.678  16.935  1.00  0.32     0.134 HD
BRANCH  25  27
HETATM   27  P   MOL     1     -48.630  -1.695  18.642  1.00  0.09     0.413 P 
HETATM   28  O   MOL     1     -47.205  -1.508  19.093  1.00  0.07    -0.239 OA
BRANCH  27  29
HETATM   29  O   MOL     1     -49.371  -2.769  19.581  1.00  0.12    -0.299 OA
BRANCH  29  30
HETATM   30  C   MOL     1     -49.952  -3.934  18.978  1.00 -0.20     0.214 C 
BRANCH  30  31
HETATM   31  C   MOL     1     -50.277  -4.974  20.063  1.00 -0.04     0.180 C 
HETATM   32  O   MOL     1     -49.080  -5.553  20.609  1.00  0.26    -0.347 OA
HETATM   33  C   MOL     1     -49.308  -6.930  20.964  1.00 -0.04     0.222 C 
HETATM   34  C   MOL     1     -50.769  -7.240  20.559  1.00 -0.10     0.205 C 
HETATM   35  C   MOL     1     -49.144  -7.065  22.417  1.00 -0.21     0.107 C 
HETATM   36  C   MOL     1     -51.112  -6.149  19.537  1.00 -0.06     0.182 C 
HETATM   37  N   MOL     1     -49.019  -7.169  23.542  1.00  0.07    -0.193 NA
BRANCH  33  38
HETATM   38  C   MOL     1     -48.230  -7.718  20.227  1.00 -0.19     0.088 A 
HETATM   39  N   MOL     1     -48.026  -9.031  20.486  1.00 -0.03    -0.229 N 
HETATM   40  C   MOL     1     -47.008  -9.403  19.666  1.00 -0.22     0.104 A 
HETATM   41  N   MOL     1     -48.607  -9.926  21.338  1.00  0.23    -0.160 NA
HETATM   42  C   MOL     1     -46.578  -8.359  18.911  1.00 -0.37     0.038 A 
HETATM   43  C   MOL     1     -46.575 -10.753  19.723  1.00 -0.44     0.151 A 
HETATM   44  C   MOL     1     -47.373  -7.271  19.282  1.00 -0.17     0.034 A 
HETATM   45  N   MOL     1     -47.135 -11.643  20.554  1.00 -0.19    -0.221 NA
HETATM   46  C   MOL     1     -48.151 -11.156  21.337  1.00 -0.33     0.258 A 
BRANCH  43  47
HETATM   47  N   MOL     1     -45.553 -11.202  18.921  1.00 -0.25    -0.382 N 
HETATM   48  H   MOL     1     -45.610 -11.108  18.047  1.00 -0.27     0.157 HD
HETATM   49  H   MOL     1     -44.842 -11.582  19.274  1.00 -0.19     0.157 HD
ENDBRANCH  43  47
ENDBRANCH  33  38
BRANCH  34  50
HETATM   50  O   MOL     1     -50.944  -8.558  20.015  1.00  0.41    -0.388 OA
HETATM   51  H   MOL     1     -50.427  -9.242  20.540  1.00 -0.42     0.210 HD
ENDBRANCH  34  50
BRANCH  36  52
HETATM   52  O   MOL     1     -50.689  -6.564  18.229  1.00  0.07    -0.390 OA
HETATM   53  H   MOL     1     -49.736  -6.890  18.239  1.00 -0.09     0.210 HD
ENDBRANCH  36  52
ENDBRANCH  30  31
ENDBRANCH  29  30
ENDBRANCH  27  29
BRANCH  27  54
HETATM   54  O   MOL     1     -49.482  -0.348  18.888  1.00  0.13    -0.260 OA
BRANCH  54  55
HETATM   55  C   MOL     1     -48.959   0.739  19.531  1.00 -0.29     0.080 A 
HETATM   56  C   MOL     1     -48.121   1.633  18.889  1.00 -0.28     0.037 A 
HETATM   57  C   MOL     1     -47.614   2.719  19.563  1.00 -0.40     0.003 A 
HETATM   58  C   MOL     1     -47.940   2.923  20.884  1.00 -0.35     0.000 A 
HETATM   59  C   MOL     1     -48.772   2.038  21.531  1.00 -0.47     0.003 A 
HETATM   60  C   MOL     1     -49.277   0.951  20.858  1.00 -0.37     0.037 A 
ENDBRANCH  54  55
ENDBRANCH  27  54
ENDBRANCH  25  27
ENDBRANCH  17  25
ENDBRANCH  16  17
ENDBRANCH  13  16
ENDBRANCH   8  13
ENDBRANCH   7   8
ENDBRANCH   3   7
TORSDOF 20
ENDMDL
MODEL 4
REMARK VINA RESULT:      -7.8      3.763      6.010
REMARK  20 active torsions:
REMARK  status: ('A' for Active; 'I' for Inactive)
REMARK    1  A    between atoms: C_3  and  C_7 
REMARK    2  A    between atoms: C_7  and  C_8 
REMARK    3  A    between atoms: C_8  and  N_9 
REMARK    4  A    between atoms: C_8  and  C_10 
REMARK    5  A    between atoms: C_10  and  O_11 
REMARK    6  A    between atoms: C_10  and  C_12 
REMARK    7  A    between atoms: C_12  and  C_13 
REMARK    8  A    between atoms: C_13  and  C_14 
REMARK    9  A    between atoms: C_13  and  N_21 
REMARK   10  A    between atoms: C_14  and  C_15 
REMARK   11  A    between atoms: N_21  and  P_22 
REMARK   12  A    between atoms: P_22  and  O_23 
REMARK   13  A    between atoms: P_22  and  O_24 
REMARK   14  A    between atoms: O_23  and  C_26 
REMARK   15  A    between atoms: O_24  and  C_27 
REMARK   16  A    between atoms: C_26  and  C_33 
REMARK   17  A    between atoms: C_35  and  C_40 
REMARK   18  A    between atoms: C_36  and  O_39 
REMARK   19  A    between atoms: C_37  and  O_38 
REMARK   20  A    between atoms: C_50  and  N_51 
ROOT
HETATM    1  C   MOL     1     -42.280   2.515  20.623  1.00 -0.25     0.001 A 
HETATM    2  C   MOL     1     -42.762   1.989  19.445  1.00 -0.30     0.007 A 
HETATM    3  C   MOL     1     -43.124   0.662  19.372  1.00 -0.25    -0.056 A 
HETATM    4  C   MOL     1     -43.000  -0.137  20.488  1.00 -0.33     0.007 A 
HETATM    5  C   MOL     1     -42.516   0.386  21.666  1.00 -0.34     0.001 A 
HETATM    6  C   MOL     1     -42.156   1.712  21.733  1.00 -0.27     0.000 A 
ENDROOT
BRANCH   3   7
HETATM    7  C   MOL     1     -43.661   0.084  18.070  1.00 -0.43     0.074 C 
BRANCH   7   8
HETATM    8  C   MOL     1     -44.205  -1.358  18.170  1.00 -0.43     0.216 C 
BRANCH   8   9
HETATM    9  N   MOL     1     -43.402  -2.251  17.261  1.00  0.05    -0.072 N 
HETATM   10  H   MOL     1     -42.508  -2.123  17.366  1.00 -0.64     0.274 HD
HETATM   11  H   MOL     1     -43.565  -3.131  17.426  1.00 -0.76     0.274 HD
HETATM   12  H   MOL     1     -43.595  -2.116  16.384  1.00 -0.15     0.274 HD
ENDBRANCH   8   9
BRANCH   8  13
HETATM   13  C   MOL     1     -45.706  -1.384  17.799  1.00 -0.29     0.150 C 
BRANCH  13  14
HETATM   14  O   MOL     1     -45.909  -2.190  16.625  1.00  0.06    -0.393 OA
HETATM   15  H   MOL     1     -46.013  -1.619  15.804  1.00 -0.27     0.210 HD
ENDBRANCH  13  14
BRANCH  13  16
HETATM   16  C   MOL     1     -46.243   0.040  17.536  1.00 -0.14     0.054 C 
BRANCH  16  17
HETATM   17  C   MOL     1     -47.202   0.504  18.655  1.00 -0.12     0.073 C 
BRANCH  17  18
HETATM   18  C   MOL     1     -46.601   1.734  19.371  1.00 -0.13     0.058 C 
BRANCH  18  19
HETATM   19  C   MOL     1     -46.296   1.548  20.850  1.00 -0.16    -0.057 A 
HETATM   20  C   MOL     1     -46.430   0.309  21.437  1.00 -0.21     0.007 A 
HETATM   21  C   MOL     1     -46.158   0.140  22.776  1.00 -0.25     0.001 A 
HETATM   22  C   MOL     1     -45.752   1.212  23.535  1.00 -0.37     0.000 A 
HETATM   23  C   MOL     1     -45.617   2.453  22.954  1.00 -0.40     0.001 A 
HETATM   24  C   MOL     1     -45.888   2.619  21.615  1.00 -0.21     0.007 A 
ENDBRANCH  18  19
ENDBRANCH  17  18
BRANCH  17  25
HETATM   25  N   MOL     1     -48.503   0.864  18.073  1.00  0.15    -0.221 NA
HETATM   26  H   MOL     1     -48.422   0.953  17.052  1.00  0.32     0.134 HD
BRANCH  25  27
HETATM   27  P   MOL     1     -49.622  -0.078  18.438  1.00  0.09     0.413 P 
HETATM   28  O   MOL     1     -49.093  -1.358  19.030  1.00  0.07    -0.239 OA
BRANCH  27  29
HETATM   29  O   MOL     1     -50.554  -0.400  17.168  1.00  0.12    -0.299 OA
BRANCH  29  30
HETATM   30  C   MOL     1     -49.931  -0.702  15.911  1.00 -0.20     0.214 C 
BRANCH  30  31
HETATM   31  C   MOL     1     -50.389  -2.087  15.424  1.00 -0.04     0.180 C 
HETATM   32  O   MOL     1     -51.497  -2.575  16.199  1.00  0.26    -0.347 OA
HETATM   33  C   MOL     1     -51.427  -4.008  16.323  1.00 -0.04     0.222 C 
HETATM   34  C   MOL     1     -50.132  -4.438  15.594  1.00 -0.10     0.205 C 
HETATM   35  C   MOL     1     -52.601  -4.588  15.658  1.00 -0.21     0.107 C 
HETATM   36  C   MOL     1     -49.293  -3.156  15.535  1.00 -0.06     0.182 C 
HETATM   37  N   MOL     1     -53.509  -5.036  15.142  1.00  0.07    -0.193 NA
BRANCH  33  38
HETATM   38  C   MOL     1     -51.469  -4.283  17.823  1.00 -0.19     0.088 A 
HETATM   39  N   MOL     1     -51.476  -5.550  18.300  1.00 -0.03    -0.229 N 
HETATM   40  C   MOL     1     -51.520  -5.422  19.653  1.00 -0.22     0.104 A 
HETATM   41  N   MOL     1     -51.453  -6.781  17.708  1.00  0.23    -0.160 NA
HETATM   42  C   MOL     1     -51.542  -4.116  20.023  1.00 -0.37     0.038 A 
HETATM   43  C   MOL     1     -51.536  -6.612  20.426  1.00 -0.44     0.151 A 
HETATM   44  C   MOL     1     -51.511  -3.385  18.832  1.00 -0.17     0.034 A 
HETATM   45  N   MOL     1     -51.513  -7.826  19.861  1.00 -0.19    -0.221 NA
HETATM   46  C   MOL     1     -51.473  -7.835  18.490  1.00 -0.33     0.258 A 
BRANCH  43  47
HETATM   47  N   MOL     1     -51.576  -6.560  21.800  1.00 -0.25    -0.382 N 
HETATM   48  H   MOL     1     -50.869  -6.286  22.248  1.00 -0.27     0.157 HD
HETATM   49  H   MOL     1     -52.304  -6.799  22.234  1.00 -0.19     0.157 HD
ENDBRANCH  43  47
ENDBRANCH  33  38
BRANCH  34  50
HETATM   50  O   MOL     1     -49.432  -5.506  16.252  1.00  0.41    -0.388 OA
HETATM   51  H   MOL     1     -49.613  -5.507  17.242  1.00 -0.42     0.210 HD
ENDBRANCH  34  50
BRANCH  36  52
HETATM   52  O   MOL     1     -48.535  -3.019  16.747  1.00  0.07    -0.390 OA
HETATM   53  H   MOL     1     -47.638  -3.471  16.670  1.00 -0.09     0.210 HD
ENDBRANCH  36  52
ENDBRANCH  30  31
ENDBRANCH  29  30
ENDBRANCH  27  29
BRANCH  27  54
HETATM   54  O   MOL     1     -50.641   0.639  19.463  1.00  0.13    -0.260 OA
BRANCH  54  55
HETATM   55  C   MOL     1     -50.211   1.484  20.447  1.00 -0.29     0.080 A 
HETATM   56  C   MOL     1     -49.986   1.046  21.739  1.00 -0.28     0.037 A 
HETATM   57  C   MOL     1     -49.550   1.921  22.706  1.00 -0.40     0.003 A 
HETATM   58  C   MOL     1     -49.331   3.243  22.390  1.00 -0.35     0.000 A 
HETATM   59  C   MOL     1     -49.552   3.688  21.107  1.00 -0.47     0.003 A 
HETATM   60  C   MOL     1     -49.992   2.814  20.141  1.00 -0.37     0.037 A 
ENDBRANCH  54  55
ENDBRANCH  27  54
ENDBRANCH  25  27
ENDBRANCH  17  25
ENDBRANCH  16  17
ENDBRANCH  13  16
ENDBRANCH   8  13
ENDBRANCH   7   8
ENDBRANCH   3   7
TORSDOF 20
ENDMDL
MODEL 5
REMARK VINA RESULT:      -7.7      6.758     14.317
REMARK  20 active torsions:
REMARK  status: ('A' for Active; 'I' for Inactive)
REMARK    1  A    between atoms: C_3  and  C_7 
REMARK    2  A    between atoms: C_7  and  C_8 
REMARK    3  A    between atoms: C_8  and  N_9 
REMARK    4  A    between atoms: C_8  and  C_10 
REMARK    5  A    between atoms: C_10  and  O_11 
REMARK    6  A    between atoms: C_10  and  C_12 
REMARK    7  A    between atoms: C_12  and  C_13 
REMARK    8  A    between atoms: C_13  and  C_14 
REMARK    9  A    between atoms: C_13  and  N_21 
REMARK   10  A    between atoms: C_14  and  C_15 
REMARK   11  A    between atoms: N_21  and  P_22 
REMARK   12  A    between atoms: P_22  and  O_23 
REMARK   13  A    between atoms: P_22  and  O_24 
REMARK   14  A    between atoms: O_23  and  C_26 
REMARK   15  A    between atoms: O_24  and  C_27 
REMARK   16  A    between atoms: C_26  and  C_33 
REMARK   17  A    between atoms: C_35  and  C_40 
REMARK   18  A    between atoms: C_36  and  O_39 
REMARK   19  A    between atoms: C_37  and  O_38 
REMARK   20  A    between atoms: C_50  and  N_51 
ROOT
HETATM    1  C   MOL     1     -46.962 -12.640  31.181  1.00 -0.25     0.001 A 
HETATM    2  C   MOL     1     -47.362 -13.396  30.103  1.00 -0.30     0.007 A 
HETATM    3  C   MOL     1     -47.256 -14.769  30.137  1.00 -0.25    -0.056 A 
HETATM    4  C   MOL     1     -46.744 -15.381  31.261  1.00 -0.33     0.007 A 
HETATM    5  C   MOL     1     -46.343 -14.627  32.341  1.00 -0.34     0.001 A 
HETATM    6  C   MOL     1     -46.452 -13.256  32.300  1.00 -0.27     0.000 A 
ENDROOT
BRANCH   3   7
HETATM    7  C   MOL     1     -47.701 -15.603  28.944  1.00 -0.43     0.074 C 
BRANCH   7   8
HETATM    8  C   MOL     1     -47.813 -14.832  27.611  1.00 -0.43     0.216 C 
BRANCH   8   9
HETATM    9  N   MOL     1     -49.265 -14.575  27.311  1.00  0.05    -0.072 N 
HETATM   10  H   MOL     1     -49.795 -14.749  28.030  1.00 -0.64     0.274 HD
HETATM   11  H   MOL     1     -49.412 -13.707  27.078  1.00 -0.76     0.274 HD
HETATM   12  H   MOL     1     -49.571 -15.079  26.620  1.00 -0.15     0.274 HD
ENDBRANCH   8   9
BRANCH   8  13
HETATM   13  C   MOL     1     -47.138 -15.637  26.476  1.00 -0.29     0.150 C 
BRANCH  13  14
HETATM   14  O   MOL     1     -46.006 -14.912  25.964  1.00  0.06    -0.393 OA
HETATM   15  H   MOL     1     -46.277 -14.004  25.626  1.00 -0.27     0.210 HD
ENDBRANCH  13  14
BRANCH  13  16
HETATM   16  C   MOL     1     -48.127 -15.916  25.323  1.00 -0.14     0.054 C 
BRANCH  16  17
HETATM   17  C   MOL     1     -47.406 -16.474  24.076  1.00 -0.12     0.073 C 
BRANCH  17  18
HETATM   18  C   MOL     1     -47.761 -17.969  23.902  1.00 -0.13     0.058 C 
BRANCH  18  19
HETATM   19  C   MOL     1     -46.587 -18.934  23.970  1.00 -0.16    -0.057 A 
HETATM   20  C   MOL     1     -45.357 -18.502  24.415  1.00 -0.21     0.007 A 
HETATM   21  C   MOL     1     -44.292 -19.374  24.474  1.00 -0.25     0.001 A 
HETATM   22  C   MOL     1     -44.454 -20.683  24.084  1.00 -0.37     0.000 A 
HETATM   23  C   MOL     1     -45.681 -21.120  23.638  1.00 -0.40     0.001 A 
HETATM   24  C   MOL     1     -46.744 -20.247  23.581  1.00 -0.21     0.007 A 
ENDBRANCH  18  19
ENDBRANCH  17  18
BRANCH  17  25
HETATM   25  N   MOL     1     -47.832 -15.729  22.883  1.00  0.15    -0.221 NA
HETATM   26  H   MOL     1     -48.672 -15.174  23.093  1.00  0.32     0.134 HD
BRANCH  25  27
HETATM   27  P   MOL     1     -46.755 -14.859  22.285  1.00  0.09     0.413 P 
HETATM   28  O   MOL     1     -45.586 -14.707  23.223  1.00  0.07    -0.239 OA
BRANCH  27  29
HETATM   29  O   MOL     1     -47.330 -13.413  21.878  1.00  0.12    -0.299 OA
BRANCH  29  30
HETATM   30  C   MOL     1     -47.033 -12.891  20.575  1.00 -0.20     0.214 C 
BRANCH  30  31
HETATM   31  C   MOL     1     -46.800 -11.374  20.664  1.00 -0.04     0.180 C 
HETATM   32  O   MOL     1     -47.324 -10.834  21.889  1.00  0.26    -0.347 OA
HETATM   33  C   MOL     1     -47.819  -9.499  21.674  1.00 -0.04     0.222 C 
HETATM   34  C   MOL     1     -47.621  -9.205  20.168  1.00 -0.10     0.205 C 
HETATM   35  C   MOL     1     -47.014  -8.573  22.482  1.00 -0.21     0.107 C 
HETATM   36  C   MOL     1     -47.484 -10.594  19.532  1.00 -0.06     0.182 C 
HETATM   37  N   MOL     1     -46.390  -7.856  23.106  1.00  0.07    -0.193 NA
BRANCH  33  38
HETATM   38  C   MOL     1     -49.263  -9.523  22.164  1.00 -0.19     0.088 A 
HETATM   39  N   MOL     1     -50.003  -8.390  22.210  1.00 -0.03    -0.229 N 
HETATM   40  C   MOL     1     -51.215  -8.774  22.691  1.00 -0.22     0.104 A 
HETATM   41  N   MOL     1     -49.752  -7.085  21.893  1.00  0.23    -0.160 NA
HETATM   42  C   MOL     1     -51.243 -10.108  22.943  1.00 -0.37     0.038 A 
HETATM   43  C   MOL     1     -52.210  -7.774  22.845  1.00 -0.44     0.151 A 
HETATM   44  C   MOL     1     -49.975 -10.585  22.602  1.00 -0.17     0.034 A 
HETATM   45  N   MOL     1     -51.979  -6.490  22.539  1.00 -0.19    -0.221 NA
HETATM   46  C   MOL     1     -50.720  -6.217  22.066  1.00 -0.33     0.258 A 
BRANCH  43  47
HETATM   47  N   MOL     1     -53.461  -8.090  23.322  1.00 -0.25    -0.382 N 
HETATM   48  H   MOL     1     -53.699  -7.831  24.129  1.00 -0.27     0.157 HD
HETATM   49  H   MOL     1     -54.025  -8.548  22.824  1.00 -0.19     0.157 HD
ENDBRANCH  43  47
ENDBRANCH  33  38
BRANCH  34  50
HETATM   50  O   MOL     1     -48.698  -8.454  19.586  1.00  0.41    -0.388 OA
HETATM   51  H   MOL     1     -49.016  -8.875  18.729  1.00 -0.42     0.210 HD
ENDBRANCH  34  50
BRANCH  36  52
HETATM   52  O   MOL     1     -48.787 -11.118  19.233  1.00  0.07    -0.390 OA
HETATM   53  H   MOL     1     -49.343 -11.213  20.066  1.00 -0.09     0.210 HD
ENDBRANCH  36  52
ENDBRANCH  30  31
ENDBRANCH  29  30
ENDBRANCH  27  29
BRANCH  27  54
HETATM   54  O   MOL     1     -46.270 -15.467  20.872  1.00  0.13    -0.260 OA
BRANCH  54  55
HETATM   55  C   MOL     1     -45.798 -16.744  20.751  1.00 -0.29     0.080 A 
HETATM   56  C   MOL     1     -46.587 -17.770  20.262  1.00 -0.28     0.037 A 
HETATM   57  C   MOL     1     -46.082 -19.044  20.149  1.00 -0.40     0.003 A 
HETATM   58  C   MOL     1     -44.783 -19.305  20.522  1.00 -0.35     0.000 A 
HETATM   59  C   MOL     1     -43.991 -18.291  21.009  1.00 -0.47     0.003 A 
HETATM   60  C   MOL     1     -44.497 -17.018  21.125  1.00 -0.37     0.037 A 
ENDBRANCH  54  55
ENDBRANCH  27  54
ENDBRANCH  25  27
ENDBRANCH  17  25
ENDBRANCH  16  17
ENDBRANCH  13  16
ENDBRANCH   8  13
ENDBRANCH   7   8
ENDBRANCH   3   7
TORSDOF 20
ENDMDL
MODEL 6
REMARK VINA RESULT:      -7.6      3.275      8.991
REMARK  20 active torsions:
REMARK  status: ('A' for Active; 'I' for Inactive)
REMARK    1  A    between atoms: C_3  and  C_7 
REMARK    2  A    between atoms: C_7  and  C_8 
REMARK    3  A    between atoms: C_8  and  N_9 
REMARK    4  A    between atoms: C_8  and  C_10 
REMARK    5  A    between atoms: C_10  and  O_11 
REMARK    6  A    between atoms: C_10  and  C_12 
REMARK    7  A    between atoms: C_12  and  C_13 
REMARK    8  A    between atoms: C_13  and  C_14 
REMARK    9  A    between atoms: C_13  and  N_21 
REMARK   10  A    between atoms: C_14  and  C_15 
REMARK   11  A    between atoms: N_21  and  P_22 
REMARK   12  A    between atoms: P_22  and  O_23 
REMARK   13  A    between atoms: P_22  and  O_24 
REMARK   14  A    between atoms: O_23  and  C_26 
REMARK   15  A    between atoms: O_24  and  C_27 
REMARK   16  A    between atoms: C_26  and  C_33 
REMARK   17  A    between atoms: C_35  and  C_40 
REMARK   18  A    between atoms: C_36  and  O_39 
REMARK   19  A    between atoms: C_37  and  O_38 
REMARK   20  A    between atoms: C_50  and  N_51 
ROOT
HETATM    1  C   MOL     1     -52.438  -3.346  23.547  1.00 -0.25     0.001 A 
HETATM    2  C   MOL     1     -53.018  -3.447  22.302  1.00 -0.30     0.007 A 
HETATM    3  C   MOL     1     -52.255  -3.783  21.205  1.00 -0.25    -0.056 A 
HETATM    4  C   MOL     1     -50.906  -4.017  21.363  1.00 -0.33     0.007 A 
HETATM    5  C   MOL     1     -50.325  -3.916  22.606  1.00 -0.34     0.001 A 
HETATM    6  C   MOL     1     -51.091  -3.580  23.698  1.00 -0.27     0.000 A 
ENDROOT
BRANCH   3   7
HETATM    7  C   MOL     1     -52.899  -3.897  19.830  1.00 -0.43     0.074 C 
BRANCH   7   8
HETATM    8  C   MOL     1     -51.930  -3.730  18.638  1.00 -0.43     0.216 C 
BRANCH   8   9
HETATM    9  N   MOL     1     -52.089  -2.347  18.065  1.00  0.05    -0.072 N 
HETATM   10  H   MOL     1     -51.538  -2.209  17.355  1.00 -0.64     0.274 HD
HETATM   11  H   MOL     1     -52.939  -2.201  17.774  1.00 -0.76     0.274 HD
HETATM   12  H   MOL     1     -51.914  -1.697  18.675  1.00 -0.15     0.274 HD
ENDBRANCH   8   9
BRANCH   8  13
HETATM   13  C   MOL     1     -52.209  -4.815  17.573  1.00 -0.29     0.150 C 
BRANCH  13  14
HETATM   14  O   MOL     1     -53.371  -4.460  16.803  1.00  0.06    -0.393 OA
HETATM   15  H   MOL     1     -53.460  -5.042  15.987  1.00 -0.27     0.210 HD
ENDBRANCH  13  14
BRANCH  13  16
HETATM   16  C   MOL     1     -52.435  -6.196  18.225  1.00 -0.14     0.054 C 
BRANCH  16  17
HETATM   17  C   MOL     1     -51.162  -6.708  18.934  1.00 -0.12     0.073 C 
BRANCH  17  18
HETATM   18  C   MOL     1     -51.519  -7.923  19.820  1.00 -0.13     0.058 C 
BRANCH  18  19
HETATM   19  C   MOL     1     -51.522  -7.665  21.319  1.00 -0.16    -0.057 A 
HETATM   20  C   MOL     1     -50.352  -7.756  22.041  1.00 -0.21     0.007 A 
HETATM   21  C   MOL     1     -50.353  -7.525  23.399  1.00 -0.25     0.001 A 
HETATM   22  C   MOL     1     -51.526  -7.204  24.041  1.00 -0.37     0.000 A 
HETATM   23  C   MOL     1     -52.698  -7.112  23.324  1.00 -0.40     0.001 A 
HETATM   24  C   MOL     1     -52.694  -7.342  21.967  1.00 -0.21     0.007 A 
ENDBRANCH  18  19
ENDBRANCH  17  18
BRANCH  17  25
HETATM   25  N   MOL     1     -50.165  -7.109  17.932  1.00  0.15    -0.221 NA
HETATM   26  H   MOL     1     -50.458  -6.799  16.997  1.00  0.32     0.134 HD
BRANCH  25  27
HETATM   27  P   MOL     1     -48.764  -6.639  18.235  1.00  0.09     0.413 P 
HETATM   28  O   MOL     1     -48.716  -5.843  19.513  1.00  0.07    -0.239 OA
BRANCH  27  29
HETATM   29  O   MOL     1     -48.163  -5.773  17.021  1.00  0.12    -0.299 OA
BRANCH  29  30
HETATM   30  C   MOL     1     -48.830  -4.562  16.636  1.00 -0.20     0.214 C 
BRANCH  30  31
HETATM   31  C   MOL     1     -47.812  -3.414  16.551  1.00 -0.04     0.180 C 
HETATM   32  O   MOL     1     -47.432  -2.950  17.858  1.00  0.26    -0.347 OA
HETATM   33  C   MOL     1     -47.176  -1.533  17.831  1.00 -0.04     0.222 C 
HETATM   34  C   MOL     1     -47.466  -1.073  16.382  1.00 -0.10     0.205 C 
HETATM   35  C   MOL     1     -45.762  -1.314  18.159  1.00 -0.21     0.107 C 
HETATM   36  C   MOL     1     -48.355  -2.184  15.808  1.00 -0.06     0.182 C 
HETATM   37  N   MOL     1     -44.667  -1.144  18.413  1.00  0.07    -0.193 NA
BRANCH  33  38
HETATM   38  C   MOL     1     -48.076  -0.943  18.910  1.00 -0.19     0.088 A 
HETATM   39  N   MOL     1     -47.995   0.366  19.248  1.00 -0.03    -0.229 N 
HETATM   40  C   MOL     1     -48.922   0.542  20.226  1.00 -0.22     0.104 A 
HETATM   41  N   MOL     1     -47.221   1.405  18.815  1.00  0.23    -0.160 NA
HETATM   42  C   MOL     1     -49.570  -0.619  20.503  1.00 -0.37     0.038 A 
HETATM   43  C   MOL     1     -49.060   1.842  20.778  1.00 -0.44     0.151 A 
HETATM   44  C   MOL     1     -49.016  -1.575  19.648  1.00 -0.17     0.034 A 
HETATM   45  N   MOL     1     -48.309   2.872  20.364  1.00 -0.19    -0.221 NA
HETATM   46  C   MOL     1     -47.404   2.578  19.375  1.00 -0.33     0.258 A 
BRANCH  43  47
HETATM   47  N   MOL     1     -49.980   2.095  21.768  1.00 -0.25    -0.382 N 
HETATM   48  H   MOL     1     -49.769   1.945  22.609  1.00 -0.27     0.157 HD
HETATM   49  H   MOL     1     -50.778   2.409  21.566  1.00 -0.19     0.157 HD
ENDBRANCH  43  47
ENDBRANCH  33  38
BRANCH  34  50
HETATM   50  O   MOL     1     -48.102   0.212  16.307  1.00  0.41    -0.388 OA
HETATM   51  H   MOL     1     -47.574   0.849  15.735  1.00 -0.42     0.210 HD
ENDBRANCH  34  50
BRANCH  36  52
HETATM   52  O   MOL     1     -49.727  -1.923  16.139  1.00  0.07    -0.390 OA
HETATM   53  H   MOL     1     -50.301  -1.881  15.314  1.00 -0.09     0.210 HD
ENDBRANCH  36  52
ENDBRANCH  30  31
ENDBRANCH  29  30
ENDBRANCH  27  29
BRANCH  27  54
HETATM   54  O   MOL     1     -47.760  -7.899  18.316  1.00  0.13    -0.260 OA
BRANCH  54  55
HETATM   55  C   MOL     1     -47.764  -8.768  19.370  1.00 -0.29     0.080 A 
HETATM   56  C   MOL     1     -48.512  -9.932  19.353  1.00 -0.28     0.037 A 
HETATM   57  C   MOL     1     -48.491 -10.788  20.429  1.00 -0.40     0.003 A 
HETATM   58  C   MOL     1     -47.722 -10.492  21.531  1.00 -0.35     0.000 A 
HETATM   59  C   MOL     1     -46.975  -9.336  21.557  1.00 -0.47     0.003 A 
HETATM   60  C   MOL     1     -46.998  -8.478  20.483  1.00 -0.37     0.037 A 
ENDBRANCH  54  55
ENDBRANCH  27  54
ENDBRANCH  25  27
ENDBRANCH  17  25
ENDBRANCH  16  17
ENDBRANCH  13  16
ENDBRANCH   8  13
ENDBRANCH   7   8
ENDBRANCH   3   7
TORSDOF 20
ENDMDL
MODEL 7
REMARK VINA RESULT:      -7.6      3.810      6.467
REMARK  20 active torsions:
REMARK  status: ('A' for Active; 'I' for Inactive)
REMARK    1  A    between atoms: C_3  and  C_7 
REMARK    2  A    between atoms: C_7  and  C_8 
REMARK    3  A    between atoms: C_8  and  N_9 
REMARK    4  A    between atoms: C_8  and  C_10 
REMARK    5  A    between atoms: C_10  and  O_11 
REMARK    6  A    between atoms: C_10  and  C_12 
REMARK    7  A    between atoms: C_12  and  C_13 
REMARK    8  A    between atoms: C_13  and  C_14 
REMARK    9  A    between atoms: C_13  and  N_21 
REMARK   10  A    between atoms: C_14  and  C_15 
REMARK   11  A    between atoms: N_21  and  P_22 
REMARK   12  A    between atoms: P_22  and  O_23 
REMARK   13  A    between atoms: P_22  and  O_24 
REMARK   14  A    between atoms: O_23  and  C_26 
REMARK   15  A    between atoms: O_24  and  C_27 
REMARK   16  A    between atoms: C_26  and  C_33 
REMARK   17  A    between atoms: C_35  and  C_40 
REMARK   18  A    between atoms: C_36  and  O_39 
REMARK   19  A    between atoms: C_37  and  O_38 
REMARK   20  A    between atoms: C_50  and  N_51 
ROOT
HETATM    1  C   MOL     1     -43.257   1.164  19.470  1.00 -0.25     0.001 A 
HETATM    2  C   MOL     1     -43.929   1.011  18.278  1.00 -0.30     0.007 A 
HETATM    3  C   MOL     1     -44.237  -0.248  17.809  1.00 -0.25    -0.056 A 
HETATM    4  C   MOL     1     -43.867  -1.353  18.545  1.00 -0.33     0.007 A 
HETATM    5  C   MOL     1     -43.195  -1.202  19.737  1.00 -0.34     0.001 A 
HETATM    6  C   MOL     1     -42.890   0.057  20.199  1.00 -0.27     0.000 A 
ENDROOT
BRANCH   3   7
HETATM    7  C   MOL     1     -44.982  -0.415  16.493  1.00 -0.43     0.074 C 
BRANCH   7   8
HETATM    8  C   MOL     1     -44.925  -1.835  15.885  1.00 -0.43     0.216 C 
BRANCH   8   9
HETATM    9  N   MOL     1     -44.099  -1.799  14.627  1.00  0.05    -0.072 N 
HETATM   10  H   MOL     1     -44.611  -1.652  13.890  1.00 -0.64     0.274 HD
HETATM   11  H   MOL     1     -43.477  -1.135  14.654  1.00 -0.76     0.274 HD
HETATM   12  H   MOL     1     -43.642  -2.571  14.491  1.00 -0.15     0.274 HD
ENDBRANCH   8   9
BRANCH   8  13
HETATM   13  C   MOL     1     -46.357  -2.346  15.603  1.00 -0.29     0.150 C 
BRANCH  13  14
HETATM   14  O   MOL     1     -46.414  -2.953  14.299  1.00  0.06    -0.393 OA
HETATM   15  H   MOL     1     -45.822  -2.470  13.646  1.00 -0.27     0.210 HD
ENDBRANCH  13  14
BRANCH  13  16
HETATM   16  C   MOL     1     -47.387  -1.198  15.673  1.00 -0.14     0.054 C 
BRANCH  16  17
HETATM   17  C   MOL     1     -48.490  -1.484  16.716  1.00 -0.12     0.073 C 
BRANCH  17  18
HETATM   18  C   MOL     1     -48.941  -0.156  17.365  1.00 -0.13     0.058 C 
BRANCH  18  19
HETATM   19  C   MOL     1     -48.116   0.306  18.556  1.00 -0.16    -0.057 A 
HETATM   20  C   MOL     1     -47.921   1.651  18.787  1.00 -0.21     0.007 A 
HETATM   21  C   MOL     1     -47.171   2.071  19.863  1.00 -0.25     0.001 A 
HETATM   22  C   MOL     1     -46.611   1.146  20.713  1.00 -0.37     0.000 A 
HETATM   23  C   MOL     1     -46.802  -0.199  20.488  1.00 -0.40     0.001 A 
HETATM   24  C   MOL     1     -47.553  -0.616  19.412  1.00 -0.21     0.007 A 
ENDBRANCH  18  19
ENDBRANCH  17  18
BRANCH  17  25
HETATM   25  N   MOL     1     -49.638  -2.123  16.059  1.00  0.15    -0.221 NA
HETATM   26  H   MOL     1     -49.326  -2.652  15.235  1.00  0.32     0.134 HD
BRANCH  25  27
HETATM   27  P   MOL     1     -50.463  -2.995  16.972  1.00  0.09     0.413 P 
HETATM   28  O   MOL     1     -51.756  -2.325  17.354  1.00  0.07    -0.239 OA
BRANCH  27  29
HETATM   29  O   MOL     1     -49.639  -3.403  18.291  1.00  0.12    -0.299 OA
BRANCH  29  30
HETATM   30  C   MOL     1     -49.990  -2.794  19.543  1.00 -0.20     0.214 C 
BRANCH  30  31
HETATM   31  C   MOL     1     -50.342  -3.883  20.570  1.00 -0.04     0.180 C 
HETATM   32  O   MOL     1     -51.697  -4.335  20.412  1.00  0.26    -0.347 OA
HETATM   33  C   MOL     1     -52.260  -4.684  21.691  1.00 -0.04     0.222 C 
HETATM   34  C   MOL     1     -51.163  -4.378  22.739  1.00 -0.10     0.205 C 
HETATM   35  C   MOL     1     -52.568  -6.119  21.684  1.00 -0.21     0.107 C 
HETATM   36  C   MOL     1     -50.224  -3.399  22.022  1.00 -0.06     0.182 C 
HETATM   37  N   MOL     1     -52.806  -7.231  21.678  1.00  0.07    -0.193 NA
BRANCH  33  38
HETATM   38  C   MOL     1     -53.538  -3.860  21.805  1.00 -0.19     0.088 A 
HETATM   39  N   MOL     1     -54.359  -3.990  22.875  1.00 -0.03    -0.229 N 
HETATM   40  C   MOL     1     -55.382  -3.124  22.647  1.00 -0.22     0.104 A 
HETATM   41  N   MOL     1     -54.324  -4.760  24.002  1.00  0.23    -0.160 NA
HETATM   42  C   MOL     1     -55.218  -2.468  21.469  1.00 -0.37     0.038 A 
HETATM   43  C   MOL     1     -56.409  -3.047  23.623  1.00 -0.44     0.151 A 
HETATM   44  C   MOL     1     -54.023  -2.952  20.930  1.00 -0.17     0.034 A 
HETATM   45  N   MOL     1     -56.389  -3.795  24.734  1.00 -0.19    -0.221 NA
HETATM   46  C   MOL     1     -55.311  -4.634  24.857  1.00 -0.33     0.258 A 
BRANCH  43  47
HETATM   47  N   MOL     1     -57.473  -2.191  23.462  1.00 -0.25    -0.382 N 
HETATM   48  H   MOL     1     -57.328  -1.342  23.280  1.00 -0.27     0.157 HD
HETATM   49  H   MOL     1     -58.299  -2.487  23.540  1.00 -0.19     0.157 HD
ENDBRANCH  43  47
ENDBRANCH  33  38
BRANCH  34  50
HETATM   50  O   MOL     1     -51.678  -3.827  23.961  1.00  0.41    -0.388 OA
HETATM   51  H   MOL     1     -52.253  -3.021  23.786  1.00 -0.42     0.210 HD
ENDBRANCH  34  50
BRANCH  36  52
HETATM   52  O   MOL     1     -50.713  -2.058  22.180  1.00  0.07    -0.390 OA
HETATM   53  H   MOL     1     -50.528  -1.708  23.105  1.00 -0.09     0.210 HD
ENDBRANCH  36  52
ENDBRANCH  30  31
ENDBRANCH  29  30
ENDBRANCH  27  29
BRANCH  27  54
HETATM   54  O   MOL     1     -50.751  -4.419  16.270  1.00  0.13    -0.260 OA
BRANCH  54  55
HETATM   55  C   MOL     1     -50.604  -5.603  16.936  1.00 -0.29     0.080 A 
HETATM   56  C   MOL     1     -49.383  -6.249  17.015  1.00 -0.28     0.037 A 
HETATM   57  C   MOL     1     -49.267  -7.438  17.696  1.00 -0.40     0.003 A 
HETATM   58  C   MOL     1     -50.369  -7.992  18.307  1.00 -0.35     0.000 A 
HETATM   59  C   MOL     1     -51.587  -7.357  18.233  1.00 -0.47     0.003 A 
HETATM   60  C   MOL     1     -51.704  -6.170  17.550  1.00 -0.37     0.037 A 
ENDBRANCH  54  55
ENDBRANCH  27  54
ENDBRANCH  25  27
ENDBRANCH  17  25
ENDBRANCH  16  17
ENDBRANCH  13  16
ENDBRANCH   8  13
ENDBRANCH   7   8
ENDBRANCH   3   7
TORSDOF 20
ENDMDL
MODEL 8
REMARK VINA RESULT:      -7.6      6.806     14.192
REMARK  20 active torsions:
REMARK  status: ('A' for Active; 'I' for Inactive)
REMARK    1  A    between atoms: C_3  and  C_7 
REMARK    2  A    between atoms: C_7  and  C_8 
REMARK    3  A    between atoms: C_8  and  N_9 
REMARK    4  A    between atoms: C_8  and  C_10 
REMARK    5  A    between atoms: C_10  and  O_11 
REMARK    6  A    between atoms: C_10  and  C_12 
REMARK    7  A    between atoms: C_12  and  C_13 
REMARK    8  A    between atoms: C_13  and  C_14 
REMARK    9  A    between atoms: C_13  and  N_21 
REMARK   10  A    between atoms: C_14  and  C_15 
REMARK   11  A    between atoms: N_21  and  P_22 
REMARK   12  A    between atoms: P_22  and  O_23 
REMARK   13  A    between atoms: P_22  and  O_24 
REMARK   14  A    between atoms: O_23  and  C_26 
REMARK   15  A    between atoms: O_24  and  C_27 
REMARK   16  A    between atoms: C_26  and  C_33 
REMARK   17  A    between atoms: C_35  and  C_40 
REMARK   18  A    between atoms: C_36  and  O_39 
REMARK   19  A    between atoms: C_37  and  O_38 
REMARK   20  A    between atoms: C_50  and  N_51 
ROOT
HETATM    1  C   MOL     1     -47.588 -12.563  29.605  1.00 -0.25     0.001 A 
HETATM    2  C   MOL     1     -48.247 -13.619  29.017  1.00 -0.30     0.007 A 
HETATM    3  C   MOL     1     -47.876 -14.916  29.301  1.00 -0.25    -0.056 A 
HETATM    4  C   MOL     1     -46.838 -15.147  30.178  1.00 -0.33     0.007 A 
HETATM    5  C   MOL     1     -46.177 -14.092  30.766  1.00 -0.34     0.001 A 
HETATM    6  C   MOL     1     -46.553 -12.800  30.479  1.00 -0.27     0.000 A 
ENDROOT
BRANCH   3   7
HETATM    7  C   MOL     1     -48.607 -16.083  28.652  1.00 -0.43     0.074 C 
BRANCH   7   8
HETATM    8  C   MOL     1     -49.302 -15.756  27.312  1.00 -0.43     0.216 C 
BRANCH   8   9
HETATM    9  N   MOL     1     -50.486 -16.669  27.136  1.00  0.05    -0.072 N 
HETATM   10  H   MOL     1     -50.522 -17.304  27.786  1.00 -0.64     0.274 HD
HETATM   11  H   MOL     1     -51.272 -16.211  27.169  1.00 -0.76     0.274 HD
HETATM   12  H   MOL     1     -50.475 -17.100  26.337  1.00 -0.15     0.274 HD
ENDBRANCH   8   9
BRANCH   8  13
HETATM   13  C   MOL     1     -48.299 -15.905  26.146  1.00 -0.29     0.150 C 
BRANCH  13  14
HETATM   14  O   MOL     1     -48.146 -14.648  25.463  1.00  0.06    -0.393 OA
HETATM   15  H   MOL     1     -48.857 -14.525  24.763  1.00 -0.27     0.210 HD
ENDBRANCH  13  14
BRANCH  13  16
HETATM   16  C   MOL     1     -48.767 -16.976  25.137  1.00 -0.14     0.054 C 
BRANCH  16  17
HETATM   17  C   MOL     1     -47.769 -17.135  23.968  1.00 -0.12     0.073 C 
BRANCH  17  18
HETATM   18  C   MOL     1     -47.783 -18.600  23.475  1.00 -0.13     0.058 C 
BRANCH  18  19
HETATM   19  C   MOL     1     -46.476 -19.361  23.642  1.00 -0.16    -0.057 A 
HETATM   20  C   MOL     1     -46.357 -20.649  23.166  1.00 -0.21     0.007 A 
HETATM   21  C   MOL     1     -45.176 -21.340  23.319  1.00 -0.25     0.001 A 
HETATM   22  C   MOL     1     -44.109 -20.746  23.951  1.00 -0.37     0.000 A 
HETATM   23  C   MOL     1     -44.222 -19.459  24.428  1.00 -0.40     0.001 A 
HETATM   24  C   MOL     1     -45.403 -18.770  24.273  1.00 -0.21     0.007 A 
ENDBRANCH  18  19
ENDBRANCH  17  18
BRANCH  17  25
HETATM   25  N   MOL     1     -48.153 -16.244  22.865  1.00  0.15    -0.221 NA
HETATM   26  H   MOL     1     -49.055 -15.795  23.070  1.00  0.32     0.134 HD
BRANCH  25  27
HETATM   27  P   MOL     1     -47.111 -15.210  22.518  1.00  0.09     0.413 P 
HETATM   28  O   MOL     1     -45.998 -15.190  23.532  1.00  0.07    -0.239 OA
BRANCH  27  29
HETATM   29  O   MOL     1     -47.762 -13.746  22.382  1.00  0.12    -0.299 OA
BRANCH  29  30
HETATM   30  C   MOL     1     -48.019 -13.221  21.071  1.00 -0.20     0.214 C 
BRANCH  30  31
HETATM   31  C   MOL     1     -46.923 -12.213  20.691  1.00 -0.04     0.180 C 
HETATM   32  O   MOL     1     -46.758 -11.209  21.707  1.00  0.26    -0.347 OA
HETATM   33  C   MOL     1     -46.400  -9.948  21.111  1.00 -0.04     0.222 C 
HETATM   34  C   MOL     1     -46.385 -10.186  19.583  1.00 -0.10     0.205 C 
HETATM   35  C   MOL     1     -45.059  -9.580  21.581  1.00 -0.21     0.107 C 
HETATM   36  C   MOL     1     -47.230 -11.452  19.393  1.00 -0.06     0.182 C 
HETATM   37  N   MOL     1     -44.019  -9.296  21.944  1.00  0.07    -0.193 NA
BRANCH  33  38
HETATM   38  C   MOL     1     -47.439  -8.955  21.621  1.00 -0.19     0.088 A 
HETATM   39  N   MOL     1     -48.635  -9.378  22.095  1.00 -0.03    -0.229 N 
HETATM   40  C   MOL     1     -49.298  -8.246  22.452  1.00 -0.22     0.104 A 
HETATM   41  N   MOL     1     -49.208 -10.608  22.246  1.00  0.23    -0.160 NA
HETATM   42  C   MOL     1     -48.548  -7.140  22.211  1.00 -0.37     0.038 A 
HETATM   43  C   MOL     1     -50.603  -8.390  22.992  1.00 -0.44     0.151 A 
HETATM   44  C   MOL     1     -47.347  -7.608  21.671  1.00 -0.17     0.034 A 
HETATM   45  N   MOL     1     -51.178  -9.589  23.147  1.00 -0.19    -0.221 NA
HETATM   46  C   MOL     1     -50.419 -10.661  22.750  1.00 -0.33     0.258 A 
BRANCH  43  47
HETATM   47  N   MOL     1     -51.331  -7.290  23.380  1.00 -0.25    -0.382 N 
HETATM   48  H   MOL     1     -50.950  -6.497  23.396  1.00 -0.27     0.157 HD
HETATM   49  H   MOL     1     -52.177  -7.374  23.610  1.00 -0.19     0.157 HD
ENDBRANCH  43  47
ENDBRANCH  33  38
BRANCH  34  50
HETATM   50  O   MOL     1     -46.902  -9.080  18.826  1.00  0.41    -0.388 OA
HETATM   51  H   MOL     1     -46.169  -8.600  18.332  1.00 -0.42     0.210 HD
ENDBRANCH  34  50
BRANCH  36  52
HETATM   52  O   MOL     1     -48.618 -11.096  19.298  1.00  0.07    -0.390 OA
HETATM   53  H   MOL     1     -49.195 -11.731  19.824  1.00 -0.09     0.210 HD
ENDBRANCH  36  52
ENDBRANCH  30  31
ENDBRANCH  29  30
ENDBRANCH  27  29
BRANCH  27  54
HETATM   54  O   MOL     1     -46.525 -15.485  21.041  1.00  0.13    -0.260 OA
BRANCH  54  55
HETATM   55  C   MOL     1     -46.095 -16.722  20.646  1.00 -0.29     0.080 A 
HETATM   56  C   MOL     1     -44.899 -17.254  21.091  1.00 -0.28     0.037 A 
HETATM   57  C   MOL     1     -44.496 -18.503  20.678  1.00 -0.40     0.003 A 
HETATM   58  C   MOL     1     -45.285 -19.231  19.817  1.00 -0.35     0.000 A 
HETATM   59  C   MOL     1     -46.477 -18.708  19.369  1.00 -0.47     0.003 A 
HETATM   60  C   MOL     1     -46.878 -17.460  19.779  1.00 -0.37     0.037 A 
ENDBRANCH  54  55
ENDBRANCH  27  54
ENDBRANCH  25  27
ENDBRANCH  17  25
ENDBRANCH  16  17
ENDBRANCH  13  16
ENDBRANCH   8  13
ENDBRANCH   7   8
ENDBRANCH   3   7
TORSDOF 20
ENDMDL
MODEL 9
REMARK VINA RESULT:      -7.6      4.981     10.621
REMARK  20 active torsions:
REMARK  status: ('A' for Active; 'I' for Inactive)
REMARK    1  A    between atoms: C_3  and  C_7 
REMARK    2  A    between atoms: C_7  and  C_8 
REMARK    3  A    between atoms: C_8  and  N_9 
REMARK    4  A    between atoms: C_8  and  C_10 
REMARK    5  A    between atoms: C_10  and  O_11 
REMARK    6  A    between atoms: C_10  and  C_12 
REMARK    7  A    between atoms: C_12  and  C_13 
REMARK    8  A    between atoms: C_13  and  C_14 
REMARK    9  A    between atoms: C_13  and  N_21 
REMARK   10  A    between atoms: C_14  and  C_15 
REMARK   11  A    between atoms: N_21  and  P_22 
REMARK   12  A    between atoms: P_22  and  O_23 
REMARK   13  A    between atoms: P_22  and  O_24 
REMARK   14  A    between atoms: O_23  and  C_26 
REMARK   15  A    between atoms: O_24  and  C_27 
REMARK   16  A    between atoms: C_26  and  C_33 
REMARK   17  A    between atoms: C_35  and  C_40 
REMARK   18  A    between atoms: C_36  and  O_39 
REMARK   19  A    between atoms: C_37  and  O_38 
REMARK   20  A    between atoms: C_50  and  N_51 
ROOT
HETATM    1  C   MOL     1     -37.969 -13.917  19.645  1.00 -0.25     0.001 A 
HETATM    2  C   MOL     1     -38.181 -12.681  20.211  1.00 -0.30     0.007 A 
HETATM    3  C   MOL     1     -38.946 -12.559  21.351  1.00 -0.25    -0.056 A 
HETATM    4  C   MOL     1     -39.497 -13.688  21.920  1.00 -0.33     0.007 A 
HETATM    5  C   MOL     1     -39.286 -14.925  21.354  1.00 -0.34     0.001 A 
HETATM    6  C   MOL     1     -38.522 -15.039  20.216  1.00 -0.27     0.000 A 
ENDROOT
BRANCH   3   7
HETATM    7  C   MOL     1     -39.178 -11.192  21.978  1.00 -0.43     0.074 C 
BRANCH   7   8
HETATM    8  C   MOL     1     -39.943 -10.186  21.089  1.00 -0.43     0.216 C 
BRANCH   8   9
HETATM    9  N   MOL     1     -40.248  -8.952  21.895  1.00  0.05    -0.072 N 
HETATM   10  H   MOL     1     -40.988  -8.521  21.587  1.00 -0.64     0.274 HD
HETATM   11  H   MOL     1     -40.403  -9.151  22.769  1.00 -0.76     0.274 HD
HETATM   12  H   MOL     1     -39.564  -8.355  21.887  1.00 -0.15     0.274 HD
ENDBRANCH   8   9
BRANCH   8  13
HETATM   13  C   MOL     1     -41.237 -10.837  20.547  1.00 -0.29     0.150 C 
BRANCH  13  14
HETATM   14  O   MOL     1     -41.374 -10.562  19.141  1.00  0.06    -0.393 OA
HETATM   15  H   MOL     1     -40.869 -11.232  18.588  1.00 -0.27     0.210 HD
ENDBRANCH  13  14
BRANCH  13  16
HETATM   16  C   MOL     1     -42.483 -10.312  21.291  1.00 -0.14     0.054 C 
BRANCH  16  17
HETATM   17  C   MOL     1     -43.689 -11.264  21.128  1.00 -0.12     0.073 C 
BRANCH  17  18
HETATM   18  C   MOL     1     -43.900 -12.055  22.439  1.00 -0.13     0.058 C 
BRANCH  18  19
HETATM   19  C   MOL     1     -43.747 -13.564  22.326  1.00 -0.16    -0.057 A 
HETATM   20  C   MOL     1     -44.258 -14.390  23.304  1.00 -0.21     0.007 A 
HETATM   21  C   MOL     1     -44.118 -15.756  23.205  1.00 -0.25     0.001 A 
HETATM   22  C   MOL     1     -43.463 -16.303  22.127  1.00 -0.37     0.000 A 
HETATM   23  C   MOL     1     -42.950 -15.483  21.146  1.00 -0.40     0.001 A 
HETATM   24  C   MOL     1     -43.093 -14.118  21.247  1.00 -0.21     0.007 A 
ENDBRANCH  18  19
ENDBRANCH  17  18
BRANCH  17  25
HETATM   25  N   MOL     1     -44.898 -10.484  20.827  1.00  0.15    -0.221 NA
HETATM   26  H   MOL     1     -44.758  -9.500  21.088  1.00  0.32     0.134 HD
BRANCH  25  27
HETATM   27  P   MOL     1     -45.361 -10.596  19.396  1.00  0.09     0.413 P 
HETATM   28  O   MOL     1     -44.296 -11.199  18.519  1.00  0.07    -0.239 OA
BRANCH  27  29
HETATM   29  O   MOL     1     -45.813  -9.167  18.815  1.00  0.12    -0.299 OA
BRANCH  29  30
HETATM   30  C   MOL     1     -46.333  -8.183  19.720  1.00 -0.20     0.214 C 
BRANCH  30  31
HETATM   31  C   MOL     1     -47.321  -7.267  18.981  1.00 -0.04     0.180 C 
HETATM   32  O   MOL     1     -48.252  -6.657  19.890  1.00  0.26    -0.347 OA
HETATM   33  C   MOL     1     -49.534  -6.488  19.255  1.00 -0.04     0.222 C 
HETATM   34  C   MOL     1     -49.391  -7.088  17.836  1.00 -0.10     0.205 C 
HETATM   35  C   MOL     1     -49.821  -5.050  19.170  1.00 -0.21     0.107 C 
HETATM   36  C   MOL     1     -48.172  -8.014  17.944  1.00 -0.06     0.182 C 
HETATM   37  N   MOL     1     -50.043  -3.937  19.104  1.00  0.07    -0.193 NA
BRANCH  33  38
HETATM   38  C   MOL     1     -50.532  -7.182  20.175  1.00 -0.19     0.088 A 
HETATM   39  N   MOL     1     -50.156  -8.226  20.952  1.00 -0.03    -0.229 N 
HETATM   40  C   MOL     1     -51.278  -8.593  21.626  1.00 -0.22     0.104 A 
HETATM   41  N   MOL     1     -48.975  -8.888  21.136  1.00  0.23    -0.160 NA
HETATM   42  C   MOL     1     -52.333  -7.808  21.287  1.00 -0.37     0.038 A 
HETATM   43  C   MOL     1     -51.178  -9.681  22.530  1.00 -0.44     0.151 A 
HETATM   44  C   MOL     1     -51.842  -6.898  20.346  1.00 -0.17     0.034 A 
HETATM   45  N   MOL     1     -50.027 -10.340  22.722  1.00 -0.19    -0.221 NA
HETATM   46  C   MOL     1     -48.961  -9.886  21.987  1.00 -0.33     0.258 A 
BRANCH  43  47
HETATM   47  N   MOL     1     -52.270 -10.105  23.250  1.00 -0.25    -0.382 N 
HETATM   48  H   MOL     1     -52.942  -9.554  23.390  1.00 -0.27     0.157 HD
HETATM   49  H   MOL     1     -52.302 -10.925  23.570  1.00 -0.19     0.157 HD
ENDBRANCH  43  47
ENDBRANCH  33  38
BRANCH  34  50
HETATM   50  O   MOL     1     -50.561  -7.795  17.394  1.00  0.41    -0.388 OA
HETATM   51  H   MOL     1     -50.315  -8.615  16.865  1.00 -0.42     0.210 HD
ENDBRANCH  34  50
BRANCH  36  52
HETATM   52  O   MOL     1     -48.586  -9.303  18.421  1.00  0.07    -0.390 OA
HETATM   53  H   MOL     1     -49.362  -9.226  19.057  1.00 -0.09     0.210 HD
ENDBRANCH  36  52
ENDBRANCH  30  31
ENDBRANCH  29  30
ENDBRANCH  27  29
BRANCH  27  54
HETATM   54  O   MOL     1     -46.718 -11.465  19.317  1.00  0.13    -0.260 OA
BRANCH  54  55
HETATM   55  C   MOL     1     -46.806 -12.728  19.832  1.00 -0.29     0.080 A 
HETATM   56  C   MOL     1     -47.480 -12.990  21.011  1.00 -0.28     0.037 A 
HETATM   57  C   MOL     1     -47.553 -14.272  21.502  1.00 -0.40     0.003 A 
HETATM   58  C   MOL     1     -46.956 -15.306  20.818  1.00 -0.35     0.000 A 
HETATM   59  C   MOL     1     -46.282 -15.055  19.644  1.00 -0.47     0.003 A 
HETATM   60  C   MOL     1     -46.206 -13.773  19.155  1.00 -0.37     0.037 A 
ENDBRANCH  54  55
ENDBRANCH  27  54
ENDBRANCH  25  27
ENDBRANCH  17  25
ENDBRANCH  16  17
ENDBRANCH  13  16
ENDBRANCH   8  13
ENDBRANCH   7   8
ENDBRANCH   3   7
TORSDOF 20
ENDMDL
MODEL 10
REMARK VINA RESULT:      -7.5      4.501      7.255
REMARK  20 active torsions:
REMARK  status: ('A' for Active; 'I' for Inactive)
REMARK    1  A    between atoms: C_3  and  C_7 
REMARK    2  A    between atoms: C_7  and  C_8 
REMARK    3  A    between atoms: C_8  and  N_9 
REMARK    4  A    between atoms: C_8  and  C_10 
REMARK    5  A    between atoms: C_10  and  O_11 
REMARK    6  A    between atoms: C_10  and  C_12 
REMARK    7  A    between atoms: C_12  and  C_13 
REMARK    8  A    between atoms: C_13  and  C_14 
REMARK    9  A    between atoms: C_13  and  N_21 
REMARK   10  A    between atoms: C_14  and  C_15 
REMARK   11  A    between atoms: N_21  and  P_22 
REMARK   12  A    between atoms: P_22  and  O_23 
REMARK   13  A    between atoms: P_22  and  O_24 
REMARK   14  A    between atoms: O_23  and  C_26 
REMARK   15  A    between atoms: O_24  and  C_27 
REMARK   16  A    between atoms: C_26  and  C_33 
REMARK   17  A    between atoms: C_35  and  C_40 
REMARK   18  A    between atoms: C_36  and  O_39 
REMARK   19  A    between atoms: C_37  and  O_38 
REMARK   20  A    between atoms: C_50  and  N_51 
ROOT
HETATM    1  C   MOL     1     -43.247   1.073  19.426  1.00 -0.25     0.001 A 
HETATM    2  C   MOL     1     -44.013   0.964  18.288  1.00 -0.30     0.007 A 
HETATM    3  C   MOL     1     -44.197  -0.263  17.687  1.00 -0.25    -0.056 A 
HETATM    4  C   MOL     1     -43.606  -1.381  18.236  1.00 -0.33     0.007 A 
HETATM    5  C   MOL     1     -42.839  -1.273  19.374  1.00 -0.34     0.001 A 
HETATM    6  C   MOL     1     -42.660  -0.046  19.969  1.00 -0.27     0.000 A 
ENDROOT
BRANCH   3   7
HETATM    7  C   MOL     1     -45.047  -0.382  16.430  1.00 -0.43     0.074 C 
BRANCH   7   8
HETATM    8  C   MOL     1     -45.144  -1.806  15.839  1.00 -0.43     0.216 C 
BRANCH   8   9
HETATM    9  N   MOL     1     -44.259  -1.895  14.624  1.00  0.05    -0.072 N 
HETATM   10  H   MOL     1     -44.422  -1.221  14.037  1.00 -0.64     0.274 HD
HETATM   11  H   MOL     1     -43.378  -1.846  14.847  1.00 -0.76     0.274 HD
HETATM   12  H   MOL     1     -44.365  -2.678  14.175  1.00 -0.15     0.274 HD
ENDBRANCH   8   9
BRANCH   8  13
HETATM   13  C   MOL     1     -46.614  -2.134  15.489  1.00 -0.29     0.150 C 
BRANCH  13  14
HETATM   14  O   MOL     1     -46.672  -2.890  14.266  1.00  0.06    -0.393 OA
HETATM   15  H   MOL     1     -45.817  -2.803  13.744  1.00 -0.27     0.210 HD
ENDBRANCH  13  14
BRANCH  13  16
HETATM   16  C   MOL     1     -47.453  -0.848  15.331  1.00 -0.14     0.054 C 
BRANCH  16  17
HETATM   17  C   MOL     1     -48.761  -0.914  16.151  1.00 -0.12     0.073 C 
BRANCH  17  18
HETATM   18  C   MOL     1     -49.942  -1.242  15.210  1.00 -0.13     0.058 C 
BRANCH  18  19
HETATM   19  C   MOL     1     -50.578  -2.610  15.406  1.00 -0.16    -0.057 A 
HETATM   20  C   MOL     1     -49.979  -3.736  14.884  1.00 -0.21     0.007 A 
HETATM   21  C   MOL     1     -50.555  -4.974  15.058  1.00 -0.25     0.001 A 
HETATM   22  C   MOL     1     -51.735  -5.092  15.754  1.00 -0.37     0.000 A 
HETATM   23  C   MOL     1     -52.338  -3.970  16.278  1.00 -0.40     0.001 A 
HETATM   24  C   MOL     1     -51.760  -2.733  16.103  1.00 -0.21     0.007 A 
ENDBRANCH  18  19
ENDBRANCH  17  18
BRANCH  17  25
HETATM   25  N   MOL     1     -48.648  -1.960  17.177  1.00  0.15    -0.221 NA
HETATM   26  H   MOL     1     -47.892  -2.613  16.936  1.00  0.32     0.134 HD
BRANCH  25  27
HETATM   27  P   MOL     1     -48.468  -1.430  18.578  1.00  0.09     0.413 P 
HETATM   28  O   MOL     1     -47.014  -1.397  18.970  1.00  0.07    -0.239 OA
BRANCH  27  29
HETATM   29  O   MOL     1     -49.308  -2.293  19.642  1.00  0.12    -0.299 OA
BRANCH  29  30
HETATM   30  C   MOL     1     -50.073  -3.415  19.175  1.00 -0.20     0.214 C 
BRANCH  30  31
HETATM   31  C   MOL     1     -50.404  -4.344  20.354  1.00 -0.04     0.180 C 
HETATM   32  O   MOL     1     -51.782  -4.755  20.328  1.00  0.26    -0.347 OA
HETATM   33  C   MOL     1     -52.283  -4.910  21.669  1.00 -0.04     0.222 C 
HETATM   34  C   MOL     1     -51.119  -4.517  22.609  1.00 -0.10     0.205 C 
HETATM   35  C   MOL     1     -52.641  -6.320  21.868  1.00 -0.21     0.107 C 
HETATM   36  C   MOL     1     -50.188  -3.680  21.722  1.00 -0.06     0.182 C 
HETATM   37  N   MOL     1     -52.917  -7.412  22.022  1.00  0.07    -0.193 NA
BRANCH  33  38
HETATM   38  C   MOL     1     -53.523  -4.026  21.738  1.00 -0.19     0.088 A 
HETATM   39  N   MOL     1     -54.356  -4.073  22.805  1.00 -0.03    -0.229 N 
HETATM   40  C   MOL     1     -55.337  -3.173  22.533  1.00 -0.22     0.104 A 
HETATM   41  N   MOL     1     -54.364  -4.797  23.963  1.00  0.23    -0.160 NA
HETATM   42  C   MOL     1     -55.136  -2.574  21.331  1.00 -0.37     0.038 A 
HETATM   43  C   MOL     1     -56.366  -3.009  23.497  1.00 -0.44     0.151 A 
HETATM   44  C   MOL     1     -53.960  -3.133  20.823  1.00 -0.17     0.034 A 
HETATM   45  N   MOL     1     -56.388  -3.711  24.638  1.00 -0.19    -0.221 NA
HETATM   46  C   MOL     1     -55.349  -4.592  24.805  1.00 -0.33     0.258 A 
BRANCH  43  47
HETATM   47  N   MOL     1     -57.389  -2.113  23.292  1.00 -0.25    -0.382 N 
HETATM   48  H   MOL     1     -57.354  -1.317  23.666  1.00 -0.27     0.157 HD
HETATM   49  H   MOL     1     -58.078  -2.331  22.789  1.00 -0.19     0.157 HD
ENDBRANCH  43  47
ENDBRANCH  33  38
BRANCH  34  50
HETATM   50  O   MOL     1     -51.544  -3.789  23.773  1.00  0.41    -0.388 OA
HETATM   51  H   MOL     1     -51.726  -4.408  24.545  1.00 -0.42     0.210 HD
ENDBRANCH  34  50
BRANCH  36  52
HETATM   52  O   MOL     1     -50.620  -2.311  21.725  1.00  0.07    -0.390 OA
HETATM   53  H   MOL     1     -50.961  -2.033  20.820  1.00 -0.09     0.210 HD
ENDBRANCH  36  52
ENDBRANCH  30  31
ENDBRANCH  29  30
ENDBRANCH  27  29
BRANCH  27  54
HETATM   54  O   MOL     1     -49.121   0.039  18.705  1.00  0.13    -0.260 OA
BRANCH  54  55
HETATM   55  C   MOL     1     -50.360   0.242  19.246  1.00 -0.29     0.080 A 
HETATM   56  C   MOL     1     -50.526   0.780  20.509  1.00 -0.28     0.037 A 
HETATM   57  C   MOL     1     -51.786   0.974  21.023  1.00 -0.40     0.003 A 
HETATM   58  C   MOL     1     -52.894   0.635  20.280  1.00 -0.35     0.000 A 
HETATM   59  C   MOL     1     -52.738   0.098  19.022  1.00 -0.47     0.003 A 
HETATM   60  C   MOL     1     -51.478  -0.099  18.509  1.00 -0.37     0.037 A 
ENDBRANCH  54  55
ENDBRANCH  27  54
ENDBRANCH  25  27
ENDBRANCH  17  25
ENDBRANCH  16  17
ENDBRANCH  13  16
ENDBRANCH   8  13
ENDBRANCH   7   8
ENDBRANCH   3   7
TORSDOF 20
ENDMDL
