MODEL 1
REMARK VINA RESULT:      -3.9      0.000      0.000
REMARK  9 active torsions:
REMARK  status: ('A' for Active; 'I' for Inactive)
REMARK    1  A    between atoms: S_1  and  S_2 
REMARK    2  A    between atoms: S_1  and  C_15 
REMARK    3  A    between atoms: S_2  and  C_16 
REMARK    4  A    between atoms: N_5  and  C_7 
REMARK    5  A    between atoms: N_5  and  C_8 
REMARK    6  A    between atoms: N_5  and  C_15 
REMARK    7  A    between atoms: N_6  and  C_9 
REMARK    8  A    between atoms: N_6  and  C_10 
REMARK    9  A    between atoms: N_6  and  C_16 
ROOT
HETATM    1  S   MOL     1     -47.357  -0.845  16.541  1.00  0.00    -0.020 SA
ENDROOT
BRANCH   1   2
HETATM    2  S   MOL     1     -47.628  -2.886  16.438  1.00  0.00    -0.020 SA
BRANCH   2   3
HETATM    3  C   MOL     1     -49.402  -3.009  16.420  1.00  0.00     0.147 C 
HETATM    4  S   MOL     1     -50.253  -2.462  17.775  1.00  0.00    -0.052 SA
BRANCH   3   5
HETATM    5  N   MOL     1     -49.981  -3.538  15.249  1.00  0.00    -0.367 N 
BRANCH   5   6
HETATM    6  C   MOL     1     -49.882  -2.861  13.953  1.00  0.00     0.120 C 
HETATM    7  C   MOL     1     -50.447  -1.457  14.016  1.00  0.00     0.026 C 
ENDBRANCH   5   6
BRANCH   5   8
HETATM    8  C   MOL     1     -50.713  -4.807  15.190  1.00  0.00     0.120 C 
HETATM    9  C   MOL     1     -52.206  -4.592  15.322  1.00  0.00     0.026 C 
ENDBRANCH   5   8
ENDBRANCH   3   5
ENDBRANCH   2   3
ENDBRANCH   1   2
BRANCH   1  10
HETATM   10  C   MOL     1     -45.598  -0.730  16.758  1.00  0.00     0.147 C 
HETATM   11  S   MOL     1     -44.604  -1.110  15.443  1.00  0.00    -0.052 SA
BRANCH  10  12
HETATM   12  N   MOL     1     -45.149  -0.301  18.023  1.00  0.00    -0.367 N 
BRANCH  12  13
HETATM   13  C   MOL     1     -46.036   0.139  19.107  1.00  0.00     0.120 C 
HETATM   14  C   MOL     1     -45.856   1.613  19.405  1.00  0.00     0.026 C 
ENDBRANCH  12  13
BRANCH  12  15
HETATM   15  C   MOL     1     -43.728  -0.237  18.370  1.00  0.00     0.120 C 
HETATM   16  C   MOL     1     -43.266  -1.505  19.059  1.00  0.00     0.026 C 
ENDBRANCH  12  15
ENDBRANCH  10  12
ENDBRANCH   1  10
TORSDOF 9
ENDMDL
MODEL 2
REMARK VINA RESULT:      -3.9      1.375      2.052
REMARK  9 active torsions:
REMARK  status: ('A' for Active; 'I' for Inactive)
REMARK    1  A    between atoms: S_1  and  S_2 
REMARK    2  A    between atoms: S_1  and  C_15 
REMARK    3  A    between atoms: S_2  and  C_16 
REMARK    4  A    between atoms: N_5  and  C_7 
REMARK    5  A    between atoms: N_5  and  C_8 
REMARK    6  A    between atoms: N_5  and  C_15 
REMARK    7  A    between atoms: N_6  and  C_9 
REMARK    8  A    between atoms: N_6  and  C_10 
REMARK    9  A    between atoms: N_6  and  C_16 
ROOT
HETATM    1  S   MOL     1     -46.685  -0.052  17.539  1.00  0.00    -0.020 SA
ENDROOT
BRANCH   1   2
HETATM    2  S   MOL     1     -47.516  -1.015  15.916  1.00  0.00    -0.020 SA
BRANCH   2   3
HETATM    3  C   MOL     1     -48.983  -1.718  16.633  1.00  0.00     0.147 C 
HETATM    4  S   MOL     1     -49.510  -1.118  18.123  1.00  0.00    -0.052 SA
BRANCH   3   5
HETATM    5  N   MOL     1     -49.627  -2.723  15.882  1.00  0.00    -0.367 N 
BRANCH   5   6
HETATM    6  C   MOL     1     -49.649  -2.712  14.417  1.00  0.00     0.120 C 
HETATM    7  C   MOL     1     -50.664  -1.723  13.885  1.00  0.00     0.026 C 
ENDBRANCH   5   6
BRANCH   5   8
HETATM    8  C   MOL     1     -50.313  -3.879  16.468  1.00  0.00     0.120 C 
HETATM    9  C   MOL     1     -49.414  -5.098  16.503  1.00  0.00     0.026 C 
ENDBRANCH   5   8
ENDBRANCH   3   5
ENDBRANCH   2   3
ENDBRANCH   1   2
BRANCH   1  10
HETATM   10  C   MOL     1     -44.954  -0.361  17.287  1.00  0.00     0.147 C 
HETATM   11  S   MOL     1     -44.485  -1.187  15.888  1.00  0.00    -0.052 SA
BRANCH  10  12
HETATM   12  N   MOL     1     -44.080   0.133  18.276  1.00  0.00    -0.367 N 
BRANCH  12  13
HETATM   13  C   MOL     1     -43.044  -0.668  18.936  1.00  0.00     0.120 C 
HETATM   14  C   MOL     1     -43.565  -1.310  20.206  1.00  0.00     0.026 C 
ENDBRANCH  12  13
BRANCH  12  15
HETATM   15  C   MOL     1     -44.142   1.516  18.756  1.00  0.00     0.120 C 
HETATM   16  C   MOL     1     -42.761   2.130  18.861  1.00  0.00     0.026 C 
ENDBRANCH  12  15
ENDBRANCH  10  12
ENDBRANCH   1  10
TORSDOF 9
ENDMDL
MODEL 3
REMARK VINA RESULT:      -3.8      1.297      6.942
REMARK  9 active torsions:
REMARK  status: ('A' for Active; 'I' for Inactive)
REMARK    1  A    between atoms: S_1  and  S_2 
REMARK    2  A    between atoms: S_1  and  C_15 
REMARK    3  A    between atoms: S_2  and  C_16 
REMARK    4  A    between atoms: N_5  and  C_7 
REMARK    5  A    between atoms: N_5  and  C_8 
REMARK    6  A    between atoms: N_5  and  C_15 
REMARK    7  A    between atoms: N_6  and  C_9 
REMARK    8  A    between atoms: N_6  and  C_10 
REMARK    9  A    between atoms: N_6  and  C_16 
ROOT
HETATM    1  S   MOL     1     -47.566  -2.395  15.215  1.00  0.00    -0.020 SA
ENDROOT
BRANCH   1   2
HETATM    2  S   MOL     1     -47.448  -0.674  16.344  1.00  0.00    -0.020 SA
BRANCH   2   3
HETATM    3  C   MOL     1     -45.698  -0.560  16.636  1.00  0.00     0.147 C 
HETATM    4  S   MOL     1     -44.649  -1.011  15.389  1.00  0.00    -0.052 SA
BRANCH   3   5
HETATM    5  N   MOL     1     -45.304  -0.069  17.898  1.00  0.00    -0.367 N 
BRANCH   5   6
HETATM    6  C   MOL     1     -46.267   0.471  18.862  1.00  0.00     0.120 C 
HETATM    7  C   MOL     1     -45.730   1.710  19.548  1.00  0.00     0.026 C 
ENDBRANCH   5   6
BRANCH   5   8
HETATM    8  C   MOL     1     -43.922  -0.064  18.387  1.00  0.00     0.120 C 
HETATM    9  C   MOL     1     -43.567  -1.373  19.060  1.00  0.00     0.026 C 
ENDBRANCH   5   8
ENDBRANCH   3   5
ENDBRANCH   2   3
ENDBRANCH   1   2
BRANCH   1  10
HETATM   10  C   MOL     1     -49.324  -2.622  15.096  1.00  0.00     0.147 C 
HETATM   11  S   MOL     1     -50.216  -1.495  14.205  1.00  0.00    -0.052 SA
BRANCH  10  12
HETATM   12  N   MOL     1     -49.854  -3.757  15.742  1.00  0.00    -0.367 N 
BRANCH  12  13
HETATM   13  C   MOL     1     -49.552  -4.133  17.128  1.00  0.00     0.120 C 
HETATM   14  C   MOL     1     -48.877  -5.487  17.200  1.00  0.00     0.026 C 
ENDBRANCH  12  13
BRANCH  12  15
HETATM   15  C   MOL     1     -50.758  -4.691  15.068  1.00  0.00     0.120 C 
HETATM   16  C   MOL     1     -52.196  -4.480  15.496  1.00  0.00     0.026 C 
ENDBRANCH  12  15
ENDBRANCH  10  12
ENDBRANCH   1  10
TORSDOF 9
ENDMDL
MODEL 4
REMARK VINA RESULT:      -3.8      5.732      8.849
REMARK  9 active torsions:
REMARK  status: ('A' for Active; 'I' for Inactive)
REMARK    1  A    between atoms: S_1  and  S_2 
REMARK    2  A    between atoms: S_1  and  C_15 
REMARK    3  A    between atoms: S_2  and  C_16 
REMARK    4  A    between atoms: N_5  and  C_7 
REMARK    5  A    between atoms: N_5  and  C_8 
REMARK    6  A    between atoms: N_5  and  C_15 
REMARK    7  A    between atoms: N_6  and  C_9 
REMARK    8  A    between atoms: N_6  and  C_10 
REMARK    9  A    between atoms: N_6  and  C_16 
ROOT
HETATM    1  S   MOL     1     -51.737  -6.955  18.243  1.00  0.00    -0.020 SA
ENDROOT
BRANCH   1   2
HETATM    2  S   MOL     1     -50.322  -6.690  19.719  1.00  0.00    -0.020 SA
BRANCH   2   3
HETATM    3  C   MOL     1     -49.799  -8.363  20.015  1.00  0.00     0.147 C 
HETATM    4  S   MOL     1     -49.016  -9.187  18.763  1.00  0.00    -0.052 SA
BRANCH   3   5
HETATM    5  N   MOL     1     -50.055  -8.882  21.301  1.00  0.00    -0.367 N 
BRANCH   5   6
HETATM    6  C   MOL     1     -51.387  -8.839  21.910  1.00  0.00     0.120 C 
HETATM    7  C   MOL     1     -51.360  -8.144  23.255  1.00  0.00     0.026 C 
ENDBRANCH   5   6
BRANCH   5   8
HETATM    8  C   MOL     1     -49.047  -9.528  22.146  1.00  0.00     0.120 C 
HETATM    9  C   MOL     1     -49.257 -11.026  22.213  1.00  0.00     0.026 C 
ENDBRANCH   5   8
ENDBRANCH   3   5
ENDBRANCH   2   3
ENDBRANCH   1   2
BRANCH   1  10
HETATM   10  C   MOL     1     -52.011  -5.283  17.709  1.00  0.00     0.147 C 
HETATM   11  S   MOL     1     -52.325  -4.109  18.886  1.00  0.00    -0.052 SA
BRANCH  10  12
HETATM   12  N   MOL     1     -51.921  -5.046  16.322  1.00  0.00    -0.367 N 
BRANCH  12  13
HETATM   13  C   MOL     1     -50.696  -5.215  15.534  1.00  0.00     0.120 C 
HETATM   14  C   MOL     1     -49.471  -4.786  16.316  1.00  0.00     0.026 C 
ENDBRANCH  12  13
BRANCH  12  15
HETATM   15  C   MOL     1     -53.064  -4.582  15.531  1.00  0.00     0.120 C 
HETATM   16  C   MOL     1     -54.289  -5.440  15.770  1.00  0.00     0.026 C 
ENDBRANCH  12  15
ENDBRANCH  10  12
ENDBRANCH   1  10
TORSDOF 9
ENDMDL
MODEL 5
REMARK VINA RESULT:      -3.8      1.781      2.880
REMARK  9 active torsions:
REMARK  status: ('A' for Active; 'I' for Inactive)
REMARK    1  A    between atoms: S_1  and  S_2 
REMARK    2  A    between atoms: S_1  and  C_15 
REMARK    3  A    between atoms: S_2  and  C_16 
REMARK    4  A    between atoms: N_5  and  C_7 
REMARK    5  A    between atoms: N_5  and  C_8 
REMARK    6  A    between atoms: N_5  and  C_15 
REMARK    7  A    between atoms: N_6  and  C_9 
REMARK    8  A    between atoms: N_6  and  C_10 
REMARK    9  A    between atoms: N_6  and  C_16 
ROOT
HETATM    1  S   MOL     1     -48.347  -2.015  17.544  1.00  0.00    -0.020 SA
ENDROOT
BRANCH   1   2
HETATM    2  S   MOL     1     -48.186  -2.551  15.559  1.00  0.00    -0.020 SA
BRANCH   2   3
HETATM    3  C   MOL     1     -49.892  -2.587  15.061  1.00  0.00     0.147 C 
HETATM    4  S   MOL     1     -50.443  -1.379  14.014  1.00  0.00    -0.052 SA
BRANCH   3   5
HETATM    5  N   MOL     1     -50.669  -3.651  15.563  1.00  0.00    -0.367 N 
BRANCH   5   6
HETATM    6  C   MOL     1     -51.971  -3.437  16.200  1.00  0.00     0.120 C 
HETATM    7  C   MOL     1     -53.014  -4.398  15.669  1.00  0.00     0.026 C 
ENDBRANCH   5   6
BRANCH   5   8
HETATM    8  C   MOL     1     -50.281  -5.063  15.486  1.00  0.00     0.120 C 
HETATM    9  C   MOL     1     -49.767  -5.570  16.817  1.00  0.00     0.026 C 
ENDBRANCH   5   8
ENDBRANCH   3   5
ENDBRANCH   2   3
ENDBRANCH   1   2
BRANCH   1  10
HETATM   10  C   MOL     1     -47.088  -0.769  17.679  1.00  0.00     0.147 C 
HETATM   11  S   MOL     1     -47.486   0.690  18.437  1.00  0.00    -0.052 SA
BRANCH  10  12
HETATM   12  N   MOL     1     -45.821  -1.100  17.159  1.00  0.00    -0.367 N 
BRANCH  12  13
HETATM   13  C   MOL     1     -44.952  -2.148  17.707  1.00  0.00     0.120 C 
HETATM   14  C   MOL     1     -43.983  -1.586  18.726  1.00  0.00     0.026 C 
ENDBRANCH  12  13
BRANCH  12  15
HETATM   15  C   MOL     1     -45.238  -0.400  16.011  1.00  0.00     0.120 C 
HETATM   16  C   MOL     1     -44.449  -1.343  15.127  1.00  0.00     0.026 C 
ENDBRANCH  12  15
ENDBRANCH  10  12
ENDBRANCH   1  10
TORSDOF 9
ENDMDL
MODEL 6
REMARK VINA RESULT:      -3.8      6.211      8.804
REMARK  9 active torsions:
REMARK  status: ('A' for Active; 'I' for Inactive)
REMARK    1  A    between atoms: S_1  and  S_2 
REMARK    2  A    between atoms: S_1  and  C_15 
REMARK    3  A    between atoms: S_2  and  C_16 
REMARK    4  A    between atoms: N_5  and  C_7 
REMARK    5  A    between atoms: N_5  and  C_8 
REMARK    6  A    between atoms: N_5  and  C_15 
REMARK    7  A    between atoms: N_6  and  C_9 
REMARK    8  A    between atoms: N_6  and  C_10 
REMARK    9  A    between atoms: N_6  and  C_16 
ROOT
HETATM    1  S   MOL     1     -51.515  -7.167  18.272  1.00  0.00    -0.020 SA
ENDROOT
BRANCH   1   2
HETATM    2  S   MOL     1     -50.519  -6.551  19.969  1.00  0.00    -0.020 SA
BRANCH   2   3
HETATM    3  C   MOL     1     -49.776  -8.070  20.517  1.00  0.00     0.147 C 
HETATM    4  S   MOL     1     -50.458  -8.858  21.848  1.00  0.00    -0.052 SA
BRANCH   3   5
HETATM    5  N   MOL     1     -48.669  -8.529  19.774  1.00  0.00    -0.367 N 
BRANCH   5   6
HETATM    6  C   MOL     1     -47.371  -7.850  19.804  1.00  0.00     0.120 C 
HETATM    7  C   MOL     1     -46.789  -7.827  21.202  1.00  0.00     0.026 C 
ENDBRANCH   5   6
BRANCH   5   8
HETATM    8  C   MOL     1     -48.683  -9.723  18.923  1.00  0.00     0.120 C 
HETATM    9  C   MOL     1     -48.187 -10.943  19.672  1.00  0.00     0.026 C 
ENDBRANCH   5   8
ENDBRANCH   3   5
ENDBRANCH   2   3
ENDBRANCH   1   2
BRANCH   1  10
HETATM   10  C   MOL     1     -52.293  -5.659  17.748  1.00  0.00     0.147 C 
HETATM   11  S   MOL     1     -52.201  -4.315  18.772  1.00  0.00    -0.052 SA
BRANCH  10  12
HETATM   12  N   MOL     1     -52.922  -5.683  16.487  1.00  0.00    -0.367 N 
BRANCH  12  13
HETATM   13  C   MOL     1     -54.071  -6.533  16.155  1.00  0.00     0.120 C 
HETATM   14  C   MOL     1     -54.893  -5.938  15.030  1.00  0.00     0.026 C 
ENDBRANCH  12  13
BRANCH  12  15
HETATM   15  C   MOL     1     -52.463  -4.859  15.367  1.00  0.00     0.120 C 
HETATM   16  C   MOL     1     -50.969  -4.991  15.156  1.00  0.00     0.026 C 
ENDBRANCH  12  15
ENDBRANCH  10  12
ENDBRANCH   1  10
TORSDOF 9
ENDMDL
MODEL 7
REMARK VINA RESULT:      -3.8      1.792      6.789
REMARK  9 active torsions:
REMARK  status: ('A' for Active; 'I' for Inactive)
REMARK    1  A    between atoms: S_1  and  S_2 
REMARK    2  A    between atoms: S_1  and  C_15 
REMARK    3  A    between atoms: S_2  and  C_16 
REMARK    4  A    between atoms: N_5  and  C_7 
REMARK    5  A    between atoms: N_5  and  C_8 
REMARK    6  A    between atoms: N_5  and  C_15 
REMARK    7  A    between atoms: N_6  and  C_9 
REMARK    8  A    between atoms: N_6  and  C_10 
REMARK    9  A    between atoms: N_6  and  C_16 
ROOT
HETATM    1  S   MOL     1     -49.401  -0.616  16.702  1.00  0.00    -0.020 SA
ENDROOT
BRANCH   1   2
HETATM    2  S   MOL     1     -47.366  -0.747  16.394  1.00  0.00    -0.020 SA
BRANCH   2   3
HETATM    3  C   MOL     1     -46.738   0.206  17.757  1.00  0.00     0.147 C 
HETATM    4  S   MOL     1     -47.833   1.124  18.661  1.00  0.00    -0.052 SA
BRANCH   3   5
HETATM    5  N   MOL     1     -45.354   0.106  18.007  1.00  0.00    -0.367 N 
BRANCH   5   6
HETATM    6  C   MOL     1     -44.442  -0.583  17.090  1.00  0.00     0.120 C 
HETATM    7  C   MOL     1     -43.918  -1.870  17.691  1.00  0.00     0.026 C 
ENDBRANCH   5   6
BRANCH   5   8
HETATM    8  C   MOL     1     -44.681   0.685  19.174  1.00  0.00     0.120 C 
HETATM    9  C   MOL     1     -43.608   1.670  18.762  1.00  0.00     0.026 C 
ENDBRANCH   5   8
ENDBRANCH   3   5
ENDBRANCH   2   3
ENDBRANCH   1   2
BRANCH   1  10
HETATM   10  C   MOL     1     -50.013  -1.825  15.553  1.00  0.00     0.147 C 
HETATM   11  S   MOL     1     -50.355  -1.325  13.974  1.00  0.00    -0.052 SA
BRANCH  10  12
HETATM   12  N   MOL     1     -50.148  -3.140  16.042  1.00  0.00    -0.367 N 
BRANCH  12  13
HETATM   13  C   MOL     1     -50.193  -3.490  17.465  1.00  0.00     0.120 C 
HETATM   14  C   MOL     1     -48.993  -4.323  17.869  1.00  0.00     0.026 C 
ENDBRANCH  12  13
BRANCH  12  15
HETATM   15  C   MOL     1     -50.239  -4.300  15.152  1.00  0.00     0.120 C 
HETATM   16  C   MOL     1     -51.553  -5.033  15.328  1.00  0.00     0.026 C 
ENDBRANCH  12  15
ENDBRANCH  10  12
ENDBRANCH   1  10
TORSDOF 9
ENDMDL
MODEL 8
REMARK VINA RESULT:      -3.8      5.113      7.505
REMARK  9 active torsions:
REMARK  status: ('A' for Active; 'I' for Inactive)
REMARK    1  A    between atoms: S_1  and  S_2 
REMARK    2  A    between atoms: S_1  and  C_15 
REMARK    3  A    between atoms: S_2  and  C_16 
REMARK    4  A    between atoms: N_5  and  C_7 
REMARK    5  A    between atoms: N_5  and  C_8 
REMARK    6  A    between atoms: N_5  and  C_15 
REMARK    7  A    between atoms: N_6  and  C_9 
REMARK    8  A    between atoms: N_6  and  C_10 
REMARK    9  A    between atoms: N_6  and  C_16 
ROOT
HETATM    1  S   MOL     1     -51.635  -7.569  18.144  1.00  0.00    -0.020 SA
ENDROOT
BRANCH   1   2
HETATM    2  S   MOL     1     -51.883  -5.575  18.609  1.00  0.00    -0.020 SA
BRANCH   2   3
HETATM    3  C   MOL     1     -52.116  -4.861  16.998  1.00  0.00     0.147 C 
HETATM    4  S   MOL     1     -53.627  -5.032  16.259  1.00  0.00    -0.052 SA
BRANCH   3   5
HETATM    5  N   MOL     1     -51.013  -4.169  16.454  1.00  0.00    -0.367 N 
BRANCH   5   6
HETATM    6  C   MOL     1     -49.742  -4.835  16.157  1.00  0.00     0.120 C 
HETATM    7  C   MOL     1     -48.582  -4.153  16.851  1.00  0.00     0.026 C 
ENDBRANCH   5   6
BRANCH   5   8
HETATM    8  C   MOL     1     -51.020  -2.743  16.112  1.00  0.00     0.120 C 
HETATM    9  C   MOL     1     -51.180  -2.532  14.622  1.00  0.00     0.026 C 
ENDBRANCH   5   8
ENDBRANCH   3   5
ENDBRANCH   2   3
ENDBRANCH   1   2
BRANCH   1  10
HETATM   10  C   MOL     1     -50.801  -8.170  19.593  1.00  0.00     0.147 C 
HETATM   11  S   MOL     1     -51.557  -7.969  21.092  1.00  0.00    -0.052 SA
BRANCH  10  12
HETATM   12  N   MOL     1     -49.560  -8.804  19.382  1.00  0.00    -0.367 N 
BRANCH  12  13
HETATM   13  C   MOL     1     -48.922  -9.709  20.345  1.00  0.00     0.120 C 
HETATM   14  C   MOL     1     -48.273 -10.889  19.650  1.00  0.00     0.026 C 
ENDBRANCH  12  13
BRANCH  12  15
HETATM   15  C   MOL     1     -48.771  -8.597  18.165  1.00  0.00     0.120 C 
HETATM   16  C   MOL     1     -47.790  -7.454  18.327  1.00  0.00     0.026 C 
ENDBRANCH  12  15
ENDBRANCH  10  12
ENDBRANCH   1  10
TORSDOF 9
ENDMDL
MODEL 9
REMARK VINA RESULT:      -3.7      2.701      6.833
REMARK  9 active torsions:
REMARK  status: ('A' for Active; 'I' for Inactive)
REMARK    1  A    between atoms: S_1  and  S_2 
REMARK    2  A    between atoms: S_1  and  C_15 
REMARK    3  A    between atoms: S_2  and  C_16 
REMARK    4  A    between atoms: N_5  and  C_7 
REMARK    5  A    between atoms: N_5  and  C_8 
REMARK    6  A    between atoms: N_5  and  C_15 
REMARK    7  A    between atoms: N_6  and  C_9 
REMARK    8  A    between atoms: N_6  and  C_10 
REMARK    9  A    between atoms: N_6  and  C_16 
ROOT
HETATM    1  S   MOL     1     -51.477  -1.952  17.837  1.00  0.00    -0.020 SA
ENDROOT
BRANCH   1   2
HETATM    2  S   MOL     1     -49.598  -2.078  18.677  1.00  0.00    -0.020 SA
BRANCH   2   3
HETATM    3  C   MOL     1     -48.621  -2.598  17.286  1.00  0.00     0.147 C 
HETATM    4  S   MOL     1     -48.185  -4.228  17.181  1.00  0.00    -0.052 SA
BRANCH   3   5
HETATM    5  N   MOL     1     -48.297  -1.602  16.341  1.00  0.00    -0.367 N 
BRANCH   5   6
HETATM    6  C   MOL     1     -47.586  -0.375  16.711  1.00  0.00     0.120 C 
HETATM    7  C   MOL     1     -46.099  -0.495  16.451  1.00  0.00     0.026 C 
ENDBRANCH   5   6
BRANCH   5   8
HETATM    8  C   MOL     1     -48.608  -1.688  14.911  1.00  0.00     0.120 C 
HETATM    9  C   MOL     1     -49.757  -0.776  14.537  1.00  0.00     0.026 C 
ENDBRANCH   5   8
ENDBRANCH   3   5
ENDBRANCH   2   3
ENDBRANCH   1   2
BRANCH   1  10
HETATM   10  C   MOL     1     -52.029  -3.637  17.945  1.00  0.00     0.147 C 
HETATM   11  S   MOL     1     -52.222  -4.318  19.481  1.00  0.00    -0.052 SA
BRANCH  10  12
HETATM   12  N   MOL     1     -52.294  -4.289  16.723  1.00  0.00    -0.367 N 
BRANCH  12  13
HETATM   13  C   MOL     1     -51.760  -3.858  15.426  1.00  0.00     0.120 C 
HETATM   14  C   MOL     1     -50.756  -4.855  14.882  1.00  0.00     0.026 C 
ENDBRANCH  12  13
BRANCH  12  15
HETATM   15  C   MOL     1     -53.160  -5.467  16.635  1.00  0.00     0.120 C 
HETATM   16  C   MOL     1     -54.390  -5.191  15.797  1.00  0.00     0.026 C 
ENDBRANCH  12  15
ENDBRANCH  10  12
ENDBRANCH   1  10
TORSDOF 9
ENDMDL
MODEL 10
REMARK VINA RESULT:      -3.7      5.163      7.498
REMARK  9 active torsions:
REMARK  status: ('A' for Active; 'I' for Inactive)
REMARK    1  A    between atoms: S_1  and  S_2 
REMARK    2  A    between atoms: S_1  and  C_15 
REMARK    3  A    between atoms: S_2  and  C_16 
REMARK    4  A    between atoms: N_5  and  C_7 
REMARK    5  A    between atoms: N_5  and  C_8 
REMARK    6  A    between atoms: N_5  and  C_15 
REMARK    7  A    between atoms: N_6  and  C_9 
REMARK    8  A    between atoms: N_6  and  C_10 
REMARK    9  A    between atoms: N_6  and  C_16 
ROOT
HETATM    1  S   MOL     1     -51.552  -5.339  18.467  1.00  0.00    -0.020 SA
ENDROOT
BRANCH   1   2
HETATM    2  S   MOL     1     -51.862  -7.356  18.173  1.00  0.00    -0.020 SA
BRANCH   2   3
HETATM    3  C   MOL     1     -50.951  -8.058  19.529  1.00  0.00     0.147 C 
HETATM    4  S   MOL     1     -51.595  -7.906  21.085  1.00  0.00    -0.052 SA
BRANCH   3   5
HETATM    5  N   MOL     1     -49.752  -8.723  19.201  1.00  0.00    -0.367 N 
BRANCH   5   6
HETATM    6  C   MOL     1     -49.100  -8.563  17.899  1.00  0.00     0.120 C 
HETATM    7  C   MOL     1     -48.207  -7.341  17.871  1.00  0.00     0.026 C 
ENDBRANCH   5   6
BRANCH   5   8
HETATM    8  C   MOL     1     -49.026  -9.613  20.113  1.00  0.00     0.120 C 
HETATM    9  C   MOL     1     -48.336 -10.732  19.362  1.00  0.00     0.026 C 
ENDBRANCH   5   8
ENDBRANCH   3   5
ENDBRANCH   2   3
ENDBRANCH   1   2
BRANCH   1  10
HETATM   10  C   MOL     1     -52.302  -4.648  17.013  1.00  0.00     0.147 C 
HETATM   11  S   MOL     1     -53.586  -5.487  16.301  1.00  0.00    -0.052 SA
BRANCH  10  12
HETATM   12  N   MOL     1     -51.779  -3.419  16.563  1.00  0.00    -0.367 N 
BRANCH  12  13
HETATM   13  C   MOL     1     -51.224  -3.199  15.223  1.00  0.00     0.120 C 
HETATM   14  C   MOL     1     -50.286  -4.320  14.822  1.00  0.00     0.026 C 
ENDBRANCH  12  13
BRANCH  12  15
HETATM   15  C   MOL     1     -51.727  -2.230  17.418  1.00  0.00     0.120 C 
HETATM   16  C   MOL     1     -50.586  -1.314  17.027  1.00  0.00     0.026 C 
ENDBRANCH  12  15
ENDBRANCH  10  12
ENDBRANCH   1  10
TORSDOF 9
ENDMDL
