MODEL 1
REMARK VINA RESULT:      -7.5      0.000      0.000
REMARK  4 active torsions:
REMARK  status: ('A' for Active; 'I' for Inactive)
REMARK    1  A    between atoms: O_2  and  C_9 
REMARK    2  A    between atoms: O_3  and  C_14 
REMARK    3  A    between atoms: O_4  and  C_15 
REMARK    4  A    between atoms: C_8  and  C_12 
ROOT
HETATM    1  O   UNK     0     -43.949   0.063  17.586  0.00  0.00    -0.309 OA
HETATM    2  O   UNK     0     -47.673   1.243  18.744  0.00  0.00    -0.287 OA
HETATM    3  C   UNK     0     -46.357  -0.122  17.334  0.00  0.00     0.084 A 
HETATM    4  C   UNK     0     -45.056  -0.481  16.987  0.00  0.00     0.096 A 
HETATM    5  C   UNK     0     -44.135   1.018  18.574  0.00  0.00     0.090 A 
HETATM    6  C   UNK     0     -47.448  -0.711  16.691  0.00  0.00     0.118 A 
HETATM    7  C   UNK     0     -46.559   0.884  18.389  0.00  0.00     0.190 A 
HETATM    8  C   UNK     0     -45.336   1.442  19.000  0.00  0.00     0.094 A 
HETATM    9  C   UNK     0     -44.838  -1.434  15.992  0.00  0.00     0.077 A 
HETATM   10  C   UNK     0     -47.227  -1.664  15.695  0.00  0.00     0.133 A 
HETATM   11  C   UNK     0     -45.925  -2.024  15.347  0.00  0.00     0.104 A 
ENDROOT
BRANCH   5  12
HETATM   12  C   UNK     0     -42.879   1.534  19.155  0.00  0.00    -0.002 A 
HETATM   13  C   UNK     0     -42.340   2.741  18.703  0.00  0.00     0.014 A 
HETATM   14  C   UNK     0     -41.153   3.228  19.251  0.00  0.00     0.001 A 
HETATM   15  C   UNK     0     -40.501   2.508  20.252  0.00  0.00     0.000 A 
HETATM   16  C   UNK     0     -41.035   1.303  20.706  0.00  0.00     0.001 A 
HETATM   17  C   UNK     0     -42.222   0.816  20.157  0.00  0.00     0.014 A 
ENDBRANCH   5  12
BRANCH   6  18
HETATM   18  O   UNK     0     -48.735  -0.385  17.003  0.00  0.00    -0.357 OA
HETATM   19  H   UNK     0     -49.326  -1.139  16.855  0.00  0.00     0.217 HD
ENDBRANCH   6  18
BRANCH  11  20
HETATM   20  O   UNK     0     -45.700  -2.953  14.375  0.00  0.00    -0.358 OA
HETATM   21  H   UNK     0     -45.588  -3.821  14.802  0.00  0.00     0.217 HD
ENDBRANCH  11  20
BRANCH  10  22
HETATM   22  O   UNK     0     -48.283  -2.247  15.059  0.00  0.00    -0.356 OA
HETATM   23  H   UNK     0     -48.274  -3.200  15.259  0.00  0.00     0.218 HD
ENDBRANCH  10  22
TORSDOF 4
ENDMDL
MODEL 2
REMARK VINA RESULT:      -7.5      6.425     10.535
REMARK  4 active torsions:
REMARK  status: ('A' for Active; 'I' for Inactive)
REMARK    1  A    between atoms: O_2  and  C_9 
REMARK    2  A    between atoms: O_3  and  C_14 
REMARK    3  A    between atoms: O_4  and  C_15 
REMARK    4  A    between atoms: C_8  and  C_12 
ROOT
HETATM    1  O   UNK     0     -52.433  -3.875  14.881  0.00  0.00    -0.309 OA
HETATM    2  O   UNK     0     -49.044  -5.339  16.604  0.00  0.00    -0.287 OA
HETATM    3  C   UNK     0     -50.068  -3.609  15.361  0.00  0.00     0.084 A 
HETATM    4  C   UNK     0     -51.262  -3.167  14.795  0.00  0.00     0.096 A 
HETATM    5  C   UNK     0     -52.424  -5.089  15.552  0.00  0.00     0.090 A 
HETATM    6  C   UNK     0     -48.905  -2.845  15.244  0.00  0.00     0.118 A 
HETATM    7  C   UNK     0     -50.056  -4.892  16.082  0.00  0.00     0.190 A 
HETATM    8  C   UNK     0     -51.340  -5.618  16.143  0.00  0.00     0.094 A 
HETATM    9  C   UNK     0     -51.301  -1.953  14.108  0.00  0.00     0.077 A 
HETATM   10  C   UNK     0     -48.945  -1.631  14.555  0.00  0.00     0.133 A 
HETATM   11  C   UNK     0     -50.141  -1.187  13.989  0.00  0.00     0.104 A 
ENDROOT
BRANCH   5  12
HETATM   12  C   UNK     0     -53.737  -5.764  15.588  0.00  0.00    -0.002 A 
HETATM   13  C   UNK     0     -54.904  -5.020  15.774  0.00  0.00     0.014 A 
HETATM   14  C   UNK     0     -56.145  -5.658  15.809  0.00  0.00     0.001 A 
HETATM   15  C   UNK     0     -56.221  -7.042  15.657  0.00  0.00     0.000 A 
HETATM   16  C   UNK     0     -55.058  -7.789  15.471  0.00  0.00     0.001 A 
HETATM   17  C   UNK     0     -53.817  -7.151  15.437  0.00  0.00     0.014 A 
ENDBRANCH   5  12
BRANCH   6  18
HETATM   18  O   UNK     0     -47.718  -3.246  15.783  0.00  0.00    -0.357 OA
HETATM   19  H   UNK     0     -47.460  -2.665  16.516  0.00  0.00     0.217 HD
ENDBRANCH   6  18
BRANCH  11  20
HETATM   20  O   UNK     0     -50.190  -0.003  13.314  0.00  0.00    -0.358 OA
HETATM   21  H   UNK     0     -50.177   0.720  13.966  0.00  0.00     0.217 HD
ENDBRANCH  11  20
BRANCH  10  22
HETATM   22  O   UNK     0     -47.817  -0.875  14.434  0.00  0.00    -0.356 OA
HETATM   23  H   UNK     0     -47.753  -0.293  15.212  0.00  0.00     0.218 HD
ENDBRANCH  10  22
TORSDOF 4
ENDMDL
MODEL 3
REMARK VINA RESULT:      -7.4      6.064      8.266
REMARK  4 active torsions:
REMARK  status: ('A' for Active; 'I' for Inactive)
REMARK    1  A    between atoms: O_2  and  C_9 
REMARK    2  A    between atoms: O_3  and  C_14 
REMARK    3  A    between atoms: O_4  and  C_15 
REMARK    4  A    between atoms: C_8  and  C_12 
ROOT
HETATM    1  O   UNK     0     -48.779  -4.462  16.344  0.00  0.00    -0.309 OA
HETATM    2  O   UNK     0     -52.628  -4.325  15.017  0.00  0.00    -0.287 OA
HETATM    3  C   UNK     0     -50.502  -3.297  15.090  0.00  0.00     0.084 A 
HETATM    4  C   UNK     0     -49.200  -3.407  15.576  0.00  0.00     0.096 A 
HETATM    5  C   UNK     0     -49.692  -5.457  16.656  0.00  0.00     0.090 A 
HETATM    6  C   UNK     0     -50.875  -2.200  14.311  0.00  0.00     0.118 A 
HETATM    7  C   UNK     0     -51.471  -4.356  15.412  0.00  0.00     0.190 A 
HETATM    8  C   UNK     0     -50.970  -5.468  16.244  0.00  0.00     0.094 A 
HETATM    9  C   UNK     0     -48.261  -2.417  15.284  0.00  0.00     0.077 A 
HETATM   10  C   UNK     0     -49.934  -1.210  14.020  0.00  0.00     0.133 A 
HETATM   11  C   UNK     0     -48.631  -1.320  14.506  0.00  0.00     0.104 A 
ENDROOT
BRANCH   5  12
HETATM   12  C   UNK     0     -49.133  -6.547  17.482  0.00  0.00    -0.002 A 
HETATM   13  C   UNK     0     -47.896  -6.386  18.111  0.00  0.00     0.014 A 
HETATM   14  C   UNK     0     -47.366  -7.415  18.891  0.00  0.00     0.001 A 
HETATM   15  C   UNK     0     -48.074  -8.607  19.044  0.00  0.00     0.000 A 
HETATM   16  C   UNK     0     -49.309  -8.771  18.418  0.00  0.00     0.001 A 
HETATM   17  C   UNK     0     -49.837  -7.743  17.638  0.00  0.00     0.014 A 
ENDBRANCH   5  12
BRANCH   6  18
HETATM   18  O   UNK     0     -52.139  -2.058  13.819  0.00  0.00    -0.357 OA
HETATM   19  H   UNK     0     -52.391  -2.832  13.291  0.00  0.00     0.217 HD
ENDBRANCH   6  18
BRANCH  11  20
HETATM   20  O   UNK     0     -47.706  -0.357  14.228  0.00  0.00    -0.358 OA
HETATM   21  H   UNK     0     -48.075   0.506  14.487  0.00  0.00     0.217 HD
ENDBRANCH  11  20
BRANCH  10  22
HETATM   22  O   UNK     0     -50.286  -0.134  13.260  0.00  0.00    -0.356 OA
HETATM   23  H   UNK     0     -49.647   0.581  13.426  0.00  0.00     0.218 HD
ENDBRANCH  10  22
TORSDOF 4
ENDMDL
MODEL 4
REMARK VINA RESULT:      -7.2      4.622      8.802
REMARK  4 active torsions:
REMARK  status: ('A' for Active; 'I' for Inactive)
REMARK    1  A    between atoms: O_2  and  C_9 
REMARK    2  A    between atoms: O_3  and  C_14 
REMARK    3  A    between atoms: O_4  and  C_15 
REMARK    4  A    between atoms: C_8  and  C_12 
ROOT
HETATM    1  O   UNK     0     -49.622  -3.845  16.192  0.00  0.00    -0.309 OA
HETATM    2  O   UNK     0     -49.995  -0.719  13.606  0.00  0.00    -0.287 OA
HETATM    3  C   UNK     0     -48.615  -1.926  15.096  0.00  0.00     0.084 A 
HETATM    4  C   UNK     0     -48.555  -3.013  15.966  0.00  0.00     0.096 A 
HETATM    5  C   UNK     0     -50.812  -3.586  15.531  0.00  0.00     0.090 A 
HETATM    6  C   UNK     0     -47.496  -1.112  14.904  0.00  0.00     0.118 A 
HETATM    7  C   UNK     0     -49.874  -1.654  14.385  0.00  0.00     0.190 A 
HETATM    8  C   UNK     0     -50.993  -2.576  14.665  0.00  0.00     0.094 A 
HETATM    9  C   UNK     0     -47.372  -3.294  16.651  0.00  0.00     0.077 A 
HETATM   10  C   UNK     0     -46.314  -1.395  15.591  0.00  0.00     0.133 A 
HETATM   11  C   UNK     0     -46.253  -2.483  16.462  0.00  0.00     0.104 A 
ENDROOT
BRANCH   5  12
HETATM   12  C   UNK     0     -51.892  -4.545  15.842  0.00  0.00    -0.002 A 
HETATM   13  C   UNK     0     -51.686  -5.551  16.789  0.00  0.00     0.014 A 
HETATM   14  C   UNK     0     -52.705  -6.457  17.084  0.00  0.00     0.001 A 
HETATM   15  C   UNK     0     -53.934  -6.360  16.431  0.00  0.00     0.000 A 
HETATM   16  C   UNK     0     -54.143  -5.357  15.484  0.00  0.00     0.001 A 
HETATM   17  C   UNK     0     -53.124  -4.452  15.190  0.00  0.00     0.014 A 
ENDBRANCH   5  12
BRANCH   6  18
HETATM   18  O   UNK     0     -47.517  -0.040  14.061  0.00  0.00    -0.357 OA
HETATM   19  H   UNK     0     -47.839  -0.299  13.184  0.00  0.00     0.217 HD
ENDBRANCH   6  18
BRANCH  11  20
HETATM   20  O   UNK     0     -45.103  -2.766  17.137  0.00  0.00    -0.358 OA
HETATM   21  H   UNK     0     -44.791  -1.949  17.565  0.00  0.00     0.217 HD
ENDBRANCH  11  20
BRANCH  10  22
HETATM   22  O   UNK     0     -45.214  -0.609  15.411  0.00  0.00    -0.356 OA
HETATM   23  H   UNK     0     -45.511   0.305  15.254  0.00  0.00     0.218 HD
ENDBRANCH  10  22
TORSDOF 4
ENDMDL
MODEL 5
REMARK VINA RESULT:      -7.1      2.422      3.972
REMARK  4 active torsions:
REMARK  status: ('A' for Active; 'I' for Inactive)
REMARK    1  A    between atoms: O_2  and  C_9 
REMARK    2  A    between atoms: O_3  and  C_14 
REMARK    3  A    between atoms: O_4  and  C_15 
REMARK    4  A    between atoms: C_8  and  C_12 
ROOT
HETATM    1  O   UNK     0     -46.541  -2.546  17.472  0.00  0.00    -0.309 OA
HETATM    2  O   UNK     0     -48.170  -0.450  14.382  0.00  0.00    -0.287 OA
HETATM    3  C   UNK     0     -48.223  -2.391  15.728  0.00  0.00     0.084 A 
HETATM    4  C   UNK     0     -47.618  -3.055  16.794  0.00  0.00     0.096 A 
HETATM    5  C   UNK     0     -46.027  -1.322  17.073  0.00  0.00     0.090 A 
HETATM    6  C   UNK     0     -49.321  -2.957  15.075  0.00  0.00     0.118 A 
HETATM    7  C   UNK     0     -47.687  -1.088  15.307  0.00  0.00     0.190 A 
HETATM    8  C   UNK     0     -46.524  -0.585  16.067  0.00  0.00     0.094 A 
HETATM    9  C   UNK     0     -48.110  -4.291  17.214  0.00  0.00     0.077 A 
HETATM   10  C   UNK     0     -49.809  -4.194  15.496  0.00  0.00     0.133 A 
HETATM   11  C   UNK     0     -49.205  -4.859  16.563  0.00  0.00     0.104 A 
ENDROOT
BRANCH   5  12
HETATM   12  C   UNK     0     -44.872  -0.866  17.873  0.00  0.00    -0.002 A 
HETATM   13  C   UNK     0     -43.961  -1.795  18.383  0.00  0.00     0.014 A 
HETATM   14  C   UNK     0     -42.870  -1.365  19.138  0.00  0.00     0.001 A 
HETATM   15  C   UNK     0     -42.688  -0.005  19.387  0.00  0.00     0.000 A 
HETATM   16  C   UNK     0     -43.595   0.925  18.881  0.00  0.00     0.001 A 
HETATM   17  C   UNK     0     -44.686   0.495  18.125  0.00  0.00     0.014 A 
ENDBRANCH   5  12
BRANCH   6  18
HETATM   18  O   UNK     0     -49.937  -2.337  14.028  0.00  0.00    -0.357 OA
HETATM   19  H   UNK     0     -50.151  -2.975  13.329  0.00  0.00     0.217 HD
ENDBRANCH   6  18
BRANCH  11  20
HETATM   20  O   UNK     0     -49.675  -6.069  16.981  0.00  0.00    -0.358 OA
HETATM   21  H   UNK     0     -50.440  -5.915  17.564  0.00  0.00     0.217 HD
ENDBRANCH  11  20
BRANCH  10  22
HETATM   22  O   UNK     0     -50.880  -4.757  14.867  0.00  0.00    -0.356 OA
HETATM   23  H   UNK     0     -51.519  -4.052  14.657  0.00  0.00     0.218 HD
ENDBRANCH  10  22
TORSDOF 4
ENDMDL
MODEL 6
REMARK VINA RESULT:      -6.6      1.282      2.992
REMARK  4 active torsions:
REMARK  status: ('A' for Active; 'I' for Inactive)
REMARK    1  A    between atoms: O_2  and  C_9 
REMARK    2  A    between atoms: O_3  and  C_14 
REMARK    3  A    between atoms: O_4  and  C_15 
REMARK    4  A    between atoms: C_8  and  C_12 
ROOT
HETATM    1  O   UNK     0     -45.991   0.352  18.044  0.00  0.00    -0.309 OA
HETATM    2  O   UNK     0     -45.107  -2.114  14.924  0.00  0.00    -0.287 OA
HETATM    3  C   UNK     0     -46.768  -1.011  16.191  0.00  0.00     0.084 A 
HETATM    4  C   UNK     0     -47.000  -0.162  17.271  0.00  0.00     0.096 A 
HETATM    5  C   UNK     0     -44.684   0.003  17.740  0.00  0.00     0.090 A 
HETATM    6  C   UNK     0     -47.837  -1.504  15.438  0.00  0.00     0.118 A 
HETATM    7  C   UNK     0     -45.382  -1.376  15.859  0.00  0.00     0.190 A 
HETATM    8  C   UNK     0     -44.332  -0.799  16.723  0.00  0.00     0.094 A 
HETATM    9  C   UNK     0     -48.306   0.201  17.605  0.00  0.00     0.077 A 
HETATM   10  C   UNK     0     -49.142  -1.141  15.774  0.00  0.00     0.133 A 
HETATM   11  C   UNK     0     -49.374  -0.290  16.856  0.00  0.00     0.104 A 
ENDROOT
BRANCH   5  12
HETATM   12  C   UNK     0     -43.677   0.616  18.630  0.00  0.00    -0.002 A 
HETATM   13  C   UNK     0     -43.339   1.964  18.486  0.00  0.00     0.014 A 
HETATM   14  C   UNK     0     -42.388   2.543  19.326  0.00  0.00     0.001 A 
HETATM   15  C   UNK     0     -41.772   1.775  20.314  0.00  0.00     0.000 A 
HETATM   16  C   UNK     0     -42.106   0.429  20.461  0.00  0.00     0.001 A 
HETATM   17  C   UNK     0     -43.056  -0.150  19.620  0.00  0.00     0.014 A 
ENDBRANCH   5  12
BRANCH   6  18
HETATM   18  O   UNK     0     -47.649  -2.338  14.375  0.00  0.00    -0.357 OA
HETATM   19  H   UNK     0     -46.713  -2.579  14.289  0.00  0.00     0.217 HD
ENDBRANCH   6  18
BRANCH  11  20
HETATM   20  O   UNK     0     -50.646   0.070  17.192  0.00  0.00    -0.358 OA
HETATM   21  H   UNK     0     -50.601   0.872  17.742  0.00  0.00     0.217 HD
ENDBRANCH  11  20
BRANCH  10  22
HETATM   22  O   UNK     0     -50.193  -1.614  15.047  0.00  0.00    -0.356 OA
HETATM   23  H   UNK     0     -51.007  -1.191  15.372  0.00  0.00     0.218 HD
ENDBRANCH  10  22
TORSDOF 4
ENDMDL
MODEL 7
REMARK VINA RESULT:      -6.6      4.104      6.624
REMARK  4 active torsions:
REMARK  status: ('A' for Active; 'I' for Inactive)
REMARK    1  A    between atoms: O_2  and  C_9 
REMARK    2  A    between atoms: O_3  and  C_14 
REMARK    3  A    between atoms: O_4  and  C_15 
REMARK    4  A    between atoms: C_8  and  C_12 
ROOT
HETATM    1  O   UNK     0     -48.537  -3.949  16.634  0.00  0.00    -0.309 OA
HETATM    2  O   UNK     0     -51.387  -2.235  14.281  0.00  0.00    -0.287 OA
HETATM    3  C   UNK     0     -50.789  -4.003  15.730  0.00  0.00     0.084 A 
HETATM    4  C   UNK     0     -49.770  -4.536  16.517  0.00  0.00     0.096 A 
HETATM    5  C   UNK     0     -48.292  -2.779  15.930  0.00  0.00     0.090 A 
HETATM    6  C   UNK     0     -52.028  -4.644  15.649  0.00  0.00     0.118 A 
HETATM    7  C   UNK     0     -50.537  -2.758  14.989  0.00  0.00     0.190 A 
HETATM    8  C   UNK     0     -49.193  -2.167  15.145  0.00  0.00     0.094 A 
HETATM    9  C   UNK     0     -49.985  -5.715  17.231  0.00  0.00     0.077 A 
HETATM   10  C   UNK     0     -52.240  -5.824  16.364  0.00  0.00     0.133 A 
HETATM   11  C   UNK     0     -51.220  -6.358  17.153  0.00  0.00     0.104 A 
ENDROOT
BRANCH   5  12
HETATM   12  C   UNK     0     -46.936  -2.230  16.132  0.00  0.00    -0.002 A 
HETATM   13  C   UNK     0     -46.123  -2.724  17.155  0.00  0.00     0.014 A 
HETATM   14  C   UNK     0     -44.842  -2.206  17.346  0.00  0.00     0.001 A 
HETATM   15  C   UNK     0     -44.370  -1.191  16.514  0.00  0.00     0.000 A 
HETATM   16  C   UNK     0     -45.178  -0.695  15.491  0.00  0.00     0.001 A 
HETATM   17  C   UNK     0     -46.459  -1.214  15.301  0.00  0.00     0.014 A 
ENDBRANCH   5  12
BRANCH   6  18
HETATM   18  O   UNK     0     -53.048  -4.154  14.889  0.00  0.00    -0.357 OA
HETATM   19  H   UNK     0     -52.886  -3.227  14.653  0.00  0.00     0.217 HD
ENDBRANCH   6  18
BRANCH  11  20
HETATM   20  O   UNK     0     -51.418  -7.510  17.854  0.00  0.00    -0.358 OA
HETATM   21  H   UNK     0     -51.813  -8.168  17.255  0.00  0.00     0.217 HD
ENDBRANCH  11  20
BRANCH  10  22
HETATM   22  O   UNK     0     -53.444  -6.459  16.294  0.00  0.00    -0.356 OA
HETATM   23  H   UNK     0     -54.022  -5.958  15.691  0.00  0.00     0.218 HD
ENDBRANCH  10  22
TORSDOF 4
ENDMDL
MODEL 8
REMARK VINA RESULT:      -6.6      4.461      6.679
REMARK  4 active torsions:
REMARK  status: ('A' for Active; 'I' for Inactive)
REMARK    1  A    between atoms: O_2  and  C_9 
REMARK    2  A    between atoms: O_3  and  C_14 
REMARK    3  A    between atoms: O_4  and  C_15 
REMARK    4  A    between atoms: C_8  and  C_12 
ROOT
HETATM    1  O   UNK     0     -47.640  -4.472  17.376  0.00  0.00    -0.309 OA
HETATM    2  O   UNK     0     -51.062  -3.889  15.243  0.00  0.00    -0.287 OA
HETATM    3  C   UNK     0     -49.875  -5.221  16.792  0.00  0.00     0.084 A 
HETATM    4  C   UNK     0     -48.678  -5.360  17.492  0.00  0.00     0.096 A 
HETATM    5  C   UNK     0     -47.787  -3.394  16.516  0.00  0.00     0.090 A 
HETATM    6  C   UNK     0     -50.900  -6.158  16.950  0.00  0.00     0.118 A 
HETATM    7  C   UNK     0     -50.038  -4.074  15.886  0.00  0.00     0.190 A 
HETATM    8  C   UNK     0     -48.892  -3.148  15.793  0.00  0.00     0.094 A 
HETATM    9  C   UNK     0     -48.499  -6.439  18.359  0.00  0.00     0.077 A 
HETATM   10  C   UNK     0     -50.717  -7.236  17.817  0.00  0.00     0.133 A 
HETATM   11  C   UNK     0     -49.520  -7.376  18.520  0.00  0.00     0.104 A 
ENDROOT
BRANCH   5  12
HETATM   12  C   UNK     0     -46.613  -2.498  16.471  0.00  0.00    -0.002 A 
HETATM   13  C   UNK     0     -45.599  -2.623  17.423  0.00  0.00     0.014 A 
HETATM   14  C   UNK     0     -44.490  -1.777  17.382  0.00  0.00     0.001 A 
HETATM   15  C   UNK     0     -44.393  -0.804  16.387  0.00  0.00     0.000 A 
HETATM   16  C   UNK     0     -45.404  -0.677  15.434  0.00  0.00     0.001 A 
HETATM   17  C   UNK     0     -46.513  -1.522  15.477  0.00  0.00     0.014 A 
ENDBRANCH   5  12
BRANCH   6  18
HETATM   18  O   UNK     0     -52.083  -6.055  16.282  0.00  0.00    -0.357 OA
HETATM   19  H   UNK     0     -52.302  -6.890  15.839  0.00  0.00     0.217 HD
ENDBRANCH   6  18
BRANCH  11  20
HETATM   20  O   UNK     0     -49.333  -8.427  19.368  0.00  0.00    -0.358 OA
HETATM   21  H   UNK     0     -50.003  -8.373  20.073  0.00  0.00     0.217 HD
ENDBRANCH  11  20
BRANCH  10  22
HETATM   22  O   UNK     0     -51.710  -8.156  17.982  0.00  0.00    -0.356 OA
HETATM   23  H   UNK     0     -51.949  -8.511  17.107  0.00  0.00     0.218 HD
ENDBRANCH  10  22
TORSDOF 4
ENDMDL
MODEL 9
REMARK VINA RESULT:      -6.5      4.423      8.222
REMARK  4 active torsions:
REMARK  status: ('A' for Active; 'I' for Inactive)
REMARK    1  A    between atoms: O_2  and  C_9 
REMARK    2  A    between atoms: O_3  and  C_14 
REMARK    3  A    between atoms: O_4  and  C_15 
REMARK    4  A    between atoms: C_8  and  C_12 
ROOT
HETATM    1  O   UNK     0     -48.440  -4.386  17.261  0.00  0.00    -0.309 OA
HETATM    2  O   UNK     0     -50.378  -2.785  14.055  0.00  0.00    -0.287 OA
HETATM    3  C   UNK     0     -48.469  -2.772  15.447  0.00  0.00     0.084 A 
HETATM    4  C   UNK     0     -47.862  -3.365  16.552  0.00  0.00     0.096 A 
HETATM    5  C   UNK     0     -49.688  -4.841  16.863  0.00  0.00     0.090 A 
HETATM    6  C   UNK     0     -47.832  -1.735  14.762  0.00  0.00     0.118 A 
HETATM    7  C   UNK     0     -49.789  -3.258  15.017  0.00  0.00     0.190 A 
HETATM    8  C   UNK     0     -50.371  -4.357  15.814  0.00  0.00     0.094 A 
HETATM    9  C   UNK     0     -46.609  -2.923  16.979  0.00  0.00     0.077 A 
HETATM   10  C   UNK     0     -46.579  -1.294  15.192  0.00  0.00     0.133 A 
HETATM   11  C   UNK     0     -45.970  -1.888  16.298  0.00  0.00     0.104 A 
ENDROOT
BRANCH   5  12
HETATM   12  C   UNK     0     -50.216  -5.945  17.691  0.00  0.00    -0.002 A 
HETATM   13  C   UNK     0     -49.702  -7.236  17.550  0.00  0.00     0.014 A 
HETATM   14  C   UNK     0     -50.199  -8.279  18.331  0.00  0.00     0.001 A 
HETATM   15  C   UNK     0     -51.214  -8.033  19.256  0.00  0.00     0.000 A 
HETATM   16  C   UNK     0     -51.730  -6.746  19.400  0.00  0.00     0.001 A 
HETATM   17  C   UNK     0     -51.232  -5.704  18.618  0.00  0.00     0.014 A 
ENDBRANCH   5  12
BRANCH   6  18
HETATM   18  O   UNK     0     -48.396  -1.130  13.677  0.00  0.00    -0.357 OA
HETATM   19  H   UNK     0     -48.630  -1.786  13.002  0.00  0.00     0.217 HD
ENDBRANCH   6  18
BRANCH  11  20
HETATM   20  O   UNK     0     -44.746  -1.463  16.725  0.00  0.00    -0.358 OA
HETATM   21  H   UNK     0     -44.764  -0.491  16.784  0.00  0.00     0.217 HD
ENDBRANCH  11  20
BRANCH  10  22
HETATM   22  O   UNK     0     -45.946  -0.283  14.531  0.00  0.00    -0.356 OA
HETATM   23  H   UNK     0     -46.310  -0.229  13.630  0.00  0.00     0.218 HD
ENDBRANCH  10  22
TORSDOF 4
ENDMDL
MODEL 10
REMARK VINA RESULT:      -6.4      9.645     11.282
REMARK  4 active torsions:
REMARK  status: ('A' for Active; 'I' for Inactive)
REMARK    1  A    between atoms: O_2  and  C_9 
REMARK    2  A    between atoms: O_3  and  C_14 
REMARK    3  A    between atoms: O_4  and  C_15 
REMARK    4  A    between atoms: C_8  and  C_12 
ROOT
HETATM    1  O   UNK     0     -48.175  -9.891  21.111  0.00  0.00    -0.309 OA
HETATM    2  O   UNK     0     -48.766  -5.862  21.223  0.00  0.00    -0.287 OA
HETATM    3  C   UNK     0     -49.565  -8.015  21.778  0.00  0.00     0.084 A 
HETATM    4  C   UNK     0     -49.301  -9.381  21.706  0.00  0.00     0.096 A 
HETATM    5  C   UNK     0     -47.266  -9.006  20.551  0.00  0.00     0.090 A 
HETATM    6  C   UNK     0     -50.729  -7.552  22.398  0.00  0.00     0.118 A 
HETATM    7  C   UNK     0     -48.599  -7.073  21.193  0.00  0.00     0.190 A 
HETATM    8  C   UNK     0     -47.405  -7.671  20.562  0.00  0.00     0.094 A 
HETATM    9  C   UNK     0     -50.200 -10.296  22.255  0.00  0.00     0.077 A 
HETATM   10  C   UNK     0     -51.627  -8.469  22.945  0.00  0.00     0.133 A 
HETATM   11  C   UNK     0     -51.363  -9.837  22.874  0.00  0.00     0.104 A 
ENDROOT
BRANCH   5  12
HETATM   12  C   UNK     0     -46.090  -9.660  19.943  0.00  0.00    -0.002 A 
HETATM   13  C   UNK     0     -44.921  -8.930  19.713  0.00  0.00     0.014 A 
HETATM   14  C   UNK     0     -43.810  -9.546  19.138  0.00  0.00     0.001 A 
HETATM   15  C   UNK     0     -43.864 -10.897  18.791  0.00  0.00     0.000 A 
HETATM   16  C   UNK     0     -45.028 -11.629  19.019  0.00  0.00     0.001 A 
HETATM   17  C   UNK     0     -46.140 -11.012  19.593  0.00  0.00     0.014 A 
ENDBRANCH   5  12
BRANCH   6  18
HETATM   18  O   UNK     0     -51.021  -6.223  22.487  0.00  0.00    -0.357 OA
HETATM   19  H   UNK     0     -51.198  -5.971  23.407  0.00  0.00     0.217 HD
ENDBRANCH   6  18
BRANCH  11  20
HETATM   20  O   UNK     0     -52.236 -10.739  23.406  0.00  0.00    -0.358 OA
HETATM   21  H   UNK     0     -51.722 -11.450  23.828  0.00  0.00     0.217 HD
ENDBRANCH  11  20
BRANCH  10  22
HETATM   22  O   UNK     0     -52.766  -8.030  23.554  0.00  0.00    -0.356 OA
HETATM   23  H   UNK     0     -52.570  -7.870  24.494  0.00  0.00     0.218 HD
ENDBRANCH  10  22
TORSDOF 4
ENDMDL
