MODEL 1
REMARK VINA RESULT:      -7.4      0.000      0.000
REMARK  16 active torsions:
REMARK  status: ('A' for Active; 'I' for Inactive)
REMARK    1  A    between atoms: N_3  and  C_13 
REMARK    2  A    between atoms: C_6  and  C_37 
REMARK    3  A    between atoms: C_13  and  C_14 
REMARK    4  A    between atoms: C_13  and  C_17 
REMARK       I    between atoms: C_14  and  N_15 
REMARK    5  A    between atoms: N_15  and  C_16 
REMARK    6  A    between atoms: C_16  and  C_27 
REMARK    7  A    between atoms: C_16  and  C_28 
REMARK    8  A    between atoms: C_25  and  C_27 
REMARK    9  A    between atoms: C_28  and  C_29 
REMARK   10  A    between atoms: C_29  and  C_30 
REMARK   11  A    between atoms: C_29  and  O_36 
REMARK   12  A    between atoms: C_30  and  N_31 
REMARK   13  A    between atoms: C_30  and  C_37 
REMARK       I    between atoms: N_31  and  C_32 
REMARK   14  A    between atoms: C_32  and  C_33 
REMARK   15  A    between atoms: C_33  and  O_34 
REMARK   16  A    between atoms: O_34  and  C_35 
ROOT
HETATM    1  C   UNK     0     -46.519  -1.118  15.535  0.00  0.00     0.126 C 
HETATM    2  C   UNK     0     -47.896  -2.845  16.725  0.00  0.00     0.130 C 
HETATM    3  N   UNK     0     -49.135  -2.138  16.230  0.00  0.00    -0.320 N 
HETATM    4  C   UNK     0     -49.047  -0.997  15.443  0.00  0.00     0.319 C 
HETATM    5  N   UNK     0     -47.808  -0.530  15.121  0.00  0.00    -0.343 N 
HETATM    6  O   UNK     0     -50.038  -0.413  15.038  0.00  0.00    -0.247 OA
HETATM    7  C   UNK     0     -46.649  -2.614  15.847  0.00  0.00     0.040 C 
HETATM    8  H   UNK     0     -47.847   0.307  14.539  0.00  0.00     0.164 HD
ENDROOT
BRANCH   3   9
HETATM    9  C   UNK     0     -50.495  -2.665  16.596  0.00  0.00     0.184 C 
BRANCH   9  10
HETATM   10  C   UNK     0     -50.513  -3.026  18.107  0.00  0.00     0.241 C 
HETATM   11  N   UNK     0     -50.602  -4.375  18.327  0.00  0.00    -0.354 N 
HETATM   12  H   UNK     0     -50.645  -4.923  17.468  0.00  0.00     0.162 HD
HETATM   13  O   UNK     0     -50.453  -2.161  18.982  0.00  0.00    -0.271 OA
BRANCH  11  14
HETATM   14  C   UNK     0     -50.637  -5.012  19.662  0.00  0.00     0.091 C 
BRANCH  14  15
HETATM   15  C   UNK     0     -52.082  -5.057  20.210  0.00  0.00     0.063 C 
BRANCH  15  16
HETATM   16  C   UNK     0     -52.383  -4.280  21.460  0.00  0.00    -0.056 A 
HETATM   17  C   UNK     0     -53.720  -3.911  21.770  0.00  0.00     0.007 A 
HETATM   18  C   UNK     0     -54.016  -3.180  22.943  0.00  0.00     0.001 A 
HETATM   19  C   UNK     0     -52.972  -2.811  23.823  0.00  0.00     0.000 A 
HETATM   20  C   UNK     0     -51.638  -3.175  23.522  0.00  0.00     0.001 A 
HETATM   21  C   UNK     0     -51.347  -3.906  22.346  0.00  0.00     0.007 A 
ENDBRANCH  15  16
ENDBRANCH  14  15
BRANCH  14  22
HETATM   22  C   UNK     0     -50.150  -6.476  19.603  0.00  0.00     0.059 C 
BRANCH  22  23
HETATM   23  C   UNK     0     -49.295  -7.046  20.750  0.00  0.00     0.143 C 
BRANCH  23  24
HETATM   24  C   UNK     0     -49.311  -8.584  20.944  0.00  0.00     0.117 C 
BRANCH  24  25
HETATM   25  N   UNK     0     -47.941  -9.096  20.704  0.00  0.00    -0.352 N 
HETATM   26  C   UNK     0     -47.659 -10.228  19.983  0.00  0.00     0.242 C 
HETATM   27  O   UNK     0     -48.502 -10.953  19.444  0.00  0.00    -0.271 OA
HETATM   28  H   UNK     0     -47.114  -8.624  21.070  0.00  0.00     0.163 HD
BRANCH  26  29
HETATM   29  C   UNK     0     -46.159 -10.571  19.894  0.00  0.00     0.278 C 
BRANCH  29  30
HETATM   30  O   UNK     0     -45.356  -9.405  19.635  0.00  0.00    -0.341 OA
BRANCH  30  31
HETATM   31  C   UNK     0     -44.135  -9.384  20.337  0.00  0.00     0.081 A 
HETATM   32  C   UNK     0     -43.994  -8.694  21.591  0.00  0.00    -0.028 A 
HETATM   33  C   UNK     0     -42.737  -8.710  22.252  0.00  0.00     0.009 A 
HETATM   34  C   UNK     0     -45.138  -7.948  22.236  0.00  0.00     0.051 C 
HETATM   35  C   UNK     0     -41.635  -9.393  21.696  0.00  0.00     0.001 A 
HETATM   36  C   UNK     0     -41.764 -10.075  20.469  0.00  0.00     0.009 A 
HETATM   37  C   UNK     0     -43.002 -10.079  19.782  0.00  0.00    -0.028 A 
HETATM   38  C   UNK     0     -43.104 -10.812  18.488  0.00  0.00     0.051 C 
ENDBRANCH  30  31
ENDBRANCH  29  30
ENDBRANCH  26  29
ENDBRANCH  24  25
BRANCH  24  39
HETATM   39  C   UNK     0     -49.738  -8.953  22.395  0.00  0.00     0.066 C 
BRANCH  39  40
HETATM   40  C   UNK     0     -50.967  -8.221  22.899  0.00  0.00    -0.056 A 
HETATM   41  C   UNK     0     -52.212  -8.402  22.249  0.00  0.00     0.007 A 
HETATM   42  C   UNK     0     -53.373  -7.725  22.698  0.00  0.00     0.001 A 
HETATM   43  C   UNK     0     -53.300  -6.860  23.806  0.00  0.00     0.000 A 
HETATM   44  C   UNK     0     -52.064  -6.672  24.463  0.00  0.00     0.001 A 
HETATM   45  C   UNK     0     -50.905  -7.348  24.014  0.00  0.00     0.007 A 
ENDBRANCH  39  40
ENDBRANCH  24  39
ENDBRANCH  23  24
BRANCH  23  46
HETATM   46  O   UNK     0     -47.968  -6.678  20.460  0.00  0.00    -0.393 OA
HETATM   47  H   UNK     0     -47.630  -7.354  19.883  0.00  0.00     0.210 HD
ENDBRANCH  23  46
ENDBRANCH  22  23
ENDBRANCH  14  22
ENDBRANCH  11  14
ENDBRANCH   9  10
BRANCH   9  48
HETATM   48  C   UNK     0     -50.921  -3.883  15.685  0.00  0.00     0.010 C 
HETATM   49  C   UNK     0     -52.415  -3.873  15.306  0.00  0.00     0.012 C 
HETATM   50  C   UNK     0     -50.087  -3.914  14.383  0.00  0.00     0.012 C 
ENDBRANCH   9  48
ENDBRANCH   3   9
TORSDOF 16
ENDMDL
MODEL 2
REMARK VINA RESULT:      -7.4      1.820      2.301
REMARK  16 active torsions:
REMARK  status: ('A' for Active; 'I' for Inactive)
REMARK    1  A    between atoms: N_3  and  C_13 
REMARK    2  A    between atoms: C_6  and  C_37 
REMARK    3  A    between atoms: C_13  and  C_14 
REMARK    4  A    between atoms: C_13  and  C_17 
REMARK       I    between atoms: C_14  and  N_15 
REMARK    5  A    between atoms: N_15  and  C_16 
REMARK    6  A    between atoms: C_16  and  C_27 
REMARK    7  A    between atoms: C_16  and  C_28 
REMARK    8  A    between atoms: C_25  and  C_27 
REMARK    9  A    between atoms: C_28  and  C_29 
REMARK   10  A    between atoms: C_29  and  C_30 
REMARK   11  A    between atoms: C_29  and  O_36 
REMARK   12  A    between atoms: C_30  and  N_31 
REMARK   13  A    between atoms: C_30  and  C_37 
REMARK       I    between atoms: N_31  and  C_32 
REMARK   14  A    between atoms: C_32  and  C_33 
REMARK   15  A    between atoms: C_33  and  O_34 
REMARK   16  A    between atoms: O_34  and  C_35 
ROOT
HETATM    1  C   UNK     0     -44.777  -0.685  16.383  0.00  0.00     0.126 C 
HETATM    2  C   UNK     0     -46.433  -2.367  15.531  0.00  0.00     0.130 C 
HETATM    3  N   UNK     0     -47.509  -1.631  16.292  0.00  0.00    -0.320 N 
HETATM    4  C   UNK     0     -47.216  -0.502  17.044  0.00  0.00     0.319 C 
HETATM    5  N   UNK     0     -45.925  -0.066  17.076  0.00  0.00    -0.343 N 
HETATM    6  O   UNK     0     -48.073   0.101  17.668  0.00  0.00    -0.247 OA
HETATM    7  C   UNK     0     -45.220  -1.490  15.155  0.00  0.00     0.040 C 
HETATM    8  H   UNK     0     -45.810   0.769  17.650  0.00  0.00     0.164 HD
ENDROOT
BRANCH   3   9
HETATM    9  C   UNK     0     -48.929  -2.127  16.249  0.00  0.00     0.184 C 
BRANCH   9  10
HETATM   10  C   UNK     0     -49.137  -3.177  17.375  0.00  0.00     0.241 C 
HETATM   11  N   UNK     0     -50.438  -3.249  17.796  0.00  0.00    -0.354 N 
HETATM   12  H   UNK     0     -51.058  -2.603  17.308  0.00  0.00     0.162 HD
HETATM   13  O   UNK     0     -48.204  -3.852  17.814  0.00  0.00    -0.271 OA
BRANCH  11  14
HETATM   14  C   UNK     0     -50.934  -4.159  18.853  0.00  0.00     0.091 C 
BRANCH  14  15
HETATM   15  C   UNK     0     -52.271  -3.645  19.434  0.00  0.00     0.063 C 
BRANCH  15  16
HETATM   16  C   UNK     0     -52.403  -3.569  20.929  0.00  0.00    -0.056 A 
HETATM   17  C   UNK     0     -53.683  -3.652  21.541  0.00  0.00     0.007 A 
HETATM   18  C   UNK     0     -53.819  -3.582  22.946  0.00  0.00     0.001 A 
HETATM   19  C   UNK     0     -52.671  -3.429  23.757  0.00  0.00     0.000 A 
HETATM   20  C   UNK     0     -51.392  -3.347  23.156  0.00  0.00     0.001 A 
HETATM   21  C   UNK     0     -51.261  -3.417  21.749  0.00  0.00     0.007 A 
ENDBRANCH  15  16
ENDBRANCH  14  15
BRANCH  14  22
HETATM   22  C   UNK     0     -51.218  -5.571  18.295  0.00  0.00     0.059 C 
BRANCH  22  23
HETATM   23  C   UNK     0     -50.088  -6.615  18.239  0.00  0.00     0.143 C 
BRANCH  23  24
HETATM   24  C   UNK     0     -49.989  -7.612  19.422  0.00  0.00     0.117 C 
BRANCH  24  25
HETATM   25  N   UNK     0     -48.849  -8.523  19.166  0.00  0.00    -0.352 N 
HETATM   26  C   UNK     0     -48.582  -9.646  19.906  0.00  0.00     0.242 C 
HETATM   27  O   UNK     0     -49.254 -10.038  20.866  0.00  0.00    -0.271 OA
HETATM   28  H   UNK     0     -48.185  -8.362  18.408  0.00  0.00     0.163 HD
BRANCH  26  29
HETATM   29  C   UNK     0     -47.325 -10.420  19.463  0.00  0.00     0.278 C 
BRANCH  29  30
HETATM   30  O   UNK     0     -46.154 -10.003  20.190  0.00  0.00    -0.341 OA
BRANCH  30  31
HETATM   31  C   UNK     0     -44.983 -10.699  19.836  0.00  0.00     0.081 A 
HETATM   32  C   UNK     0     -44.626 -11.947  20.458  0.00  0.00    -0.028 A 
HETATM   33  C   UNK     0     -43.432 -12.603  20.056  0.00  0.00     0.009 A 
HETATM   34  C   UNK     0     -45.478 -12.591  21.526  0.00  0.00     0.051 C 
HETATM   35  C   UNK     0     -42.600 -12.049  19.060  0.00  0.00     0.001 A 
HETATM   36  C   UNK     0     -42.942 -10.828  18.444  0.00  0.00     0.009 A 
HETATM   37  C   UNK     0     -44.125 -10.146  18.819  0.00  0.00    -0.028 A 
HETATM   38  C   UNK     0     -44.458  -8.859  18.145  0.00  0.00     0.051 C 
ENDBRANCH  30  31
ENDBRANCH  29  30
ENDBRANCH  26  29
ENDBRANCH  24  25
BRANCH  24  39
HETATM   39  C   UNK     0     -49.737  -6.856  20.761  0.00  0.00     0.066 C 
BRANCH  39  40
HETATM   40  C   UNK     0     -50.861  -6.969  21.773  0.00  0.00    -0.056 A 
HETATM   41  C   UNK     0     -50.573  -6.907  23.158  0.00  0.00     0.007 A 
HETATM   42  C   UNK     0     -51.606  -7.016  24.121  0.00  0.00     0.001 A 
HETATM   43  C   UNK     0     -52.941  -7.186  23.708  0.00  0.00     0.000 A 
HETATM   44  C   UNK     0     -53.240  -7.249  22.329  0.00  0.00     0.001 A 
HETATM   45  C   UNK     0     -52.209  -7.141  21.367  0.00  0.00     0.007 A 
ENDBRANCH  39  40
ENDBRANCH  24  39
ENDBRANCH  23  24
BRANCH  23  46
HETATM   46  O   UNK     0     -50.321  -7.372  17.076  0.00  0.00    -0.393 OA
HETATM   47  H   UNK     0     -50.722  -8.183  17.370  0.00  0.00     0.210 HD
ENDBRANCH  23  46
ENDBRANCH  22  23
ENDBRANCH  14  22
ENDBRANCH  11  14
ENDBRANCH   9  10
BRANCH   9  48
HETATM   48  C   UNK     0     -49.314  -2.692  14.825  0.00  0.00     0.010 C 
HETATM   49  C   UNK     0     -50.044  -4.048  14.879  0.00  0.00     0.012 C 
HETATM   50  C   UNK     0     -50.203  -1.688  14.056  0.00  0.00     0.012 C 
ENDBRANCH   9  48
ENDBRANCH   3   9
TORSDOF 16
ENDMDL
MODEL 3
REMARK VINA RESULT:      -7.2      1.921      2.968
REMARK  16 active torsions:
REMARK  status: ('A' for Active; 'I' for Inactive)
REMARK    1  A    between atoms: N_3  and  C_13 
REMARK    2  A    between atoms: C_6  and  C_37 
REMARK    3  A    between atoms: C_13  and  C_14 
REMARK    4  A    between atoms: C_13  and  C_17 
REMARK       I    between atoms: C_14  and  N_15 
REMARK    5  A    between atoms: N_15  and  C_16 
REMARK    6  A    between atoms: C_16  and  C_27 
REMARK    7  A    between atoms: C_16  and  C_28 
REMARK    8  A    between atoms: C_25  and  C_27 
REMARK    9  A    between atoms: C_28  and  C_29 
REMARK   10  A    between atoms: C_29  and  C_30 
REMARK   11  A    between atoms: C_29  and  O_36 
REMARK   12  A    between atoms: C_30  and  N_31 
REMARK   13  A    between atoms: C_30  and  C_37 
REMARK       I    between atoms: N_31  and  C_32 
REMARK   14  A    between atoms: C_32  and  C_33 
REMARK   15  A    between atoms: C_33  and  O_34 
REMARK   16  A    between atoms: O_34  and  C_35 
ROOT
HETATM    1  C   UNK     0     -45.087  -0.687  16.545  0.00  0.00     0.126 C 
HETATM    2  C   UNK     0     -46.571  -2.534  15.719  0.00  0.00     0.130 C 
HETATM    3  N   UNK     0     -47.751  -1.785  16.289  0.00  0.00    -0.320 N 
HETATM    4  C   UNK     0     -47.587  -0.571  16.942  0.00  0.00     0.319 C 
HETATM    5  N   UNK     0     -46.326  -0.065  17.053  0.00  0.00    -0.343 N 
HETATM    6  O   UNK     0     -48.528   0.044  17.411  0.00  0.00    -0.247 OA
HETATM    7  C   UNK     0     -45.365  -1.635  15.373  0.00  0.00     0.040 C 
HETATM    8  H   UNK     0     -46.308   0.830  17.544  0.00  0.00     0.164 HD
ENDROOT
BRANCH   3   9
HETATM    9  C   UNK     0     -49.135  -2.360  16.161  0.00  0.00     0.184 C 
BRANCH   9  10
HETATM   10  C   UNK     0     -49.486  -3.142  17.456  0.00  0.00     0.241 C 
HETATM   11  N   UNK     0     -50.775  -2.932  17.868  0.00  0.00    -0.354 N 
HETATM   12  H   UNK     0     -51.295  -2.298  17.263  0.00  0.00     0.162 HD
HETATM   13  O   UNK     0     -48.661  -3.862  18.022  0.00  0.00    -0.271 OA
BRANCH  11  14
HETATM   14  C   UNK     0     -51.388  -3.547  19.066  0.00  0.00     0.091 C 
BRANCH  14  15
HETATM   15  C   UNK     0     -52.356  -2.556  19.754  0.00  0.00     0.063 C 
BRANCH  15  16
HETATM   16  C   UNK     0     -52.494  -2.633  21.248  0.00  0.00    -0.056 A 
HETATM   17  C   UNK     0     -53.782  -2.690  21.847  0.00  0.00     0.007 A 
HETATM   18  C   UNK     0     -53.924  -2.763  23.252  0.00  0.00     0.001 A 
HETATM   19  C   UNK     0     -52.774  -2.781  24.075  0.00  0.00     0.000 A 
HETATM   20  C   UNK     0     -51.488  -2.726  23.486  0.00  0.00     0.001 A 
HETATM   21  C   UNK     0     -51.350  -2.652  22.080  0.00  0.00     0.007 A 
ENDBRANCH  15  16
ENDBRANCH  14  15
BRANCH  14  22
HETATM   22  C   UNK     0     -52.229  -4.789  18.698  0.00  0.00     0.059 C 
BRANCH  22  23
HETATM   23  C   UNK     0     -51.544  -6.159  18.540  0.00  0.00     0.143 C 
BRANCH  23  24
HETATM   24  C   UNK     0     -51.518  -7.082  19.785  0.00  0.00     0.117 C 
BRANCH  24  25
HETATM   25  N   UNK     0     -50.695  -8.271  19.464  0.00  0.00    -0.352 N 
HETATM   26  C   UNK     0     -49.400  -8.211  19.019  0.00  0.00     0.242 C 
HETATM   27  O   UNK     0     -48.760  -7.170  18.837  0.00  0.00    -0.271 OA
HETATM   28  H   UNK     0     -51.055  -9.221  19.558  0.00  0.00     0.163 HD
BRANCH  26  29
HETATM   29  C   UNK     0     -48.760  -9.583  18.727  0.00  0.00     0.278 C 
BRANCH  29  30
HETATM   30  O   UNK     0     -48.368 -10.260  19.935  0.00  0.00    -0.341 OA
BRANCH  30  31
HETATM   31  C   UNK     0     -47.671  -9.445  20.847  0.00  0.00     0.081 A 
HETATM   32  C   UNK     0     -46.355  -8.940  20.560  0.00  0.00    -0.028 A 
HETATM   33  C   UNK     0     -45.704  -8.120  21.520  0.00  0.00     0.009 A 
HETATM   34  C   UNK     0     -45.634  -9.250  19.269  0.00  0.00     0.051 C 
HETATM   35  C   UNK     0     -46.331  -7.796  22.742  0.00  0.00     0.001 A 
HETATM   36  C   UNK     0     -47.622  -8.283  23.031  0.00  0.00     0.009 A 
HETATM   37  C   UNK     0     -48.301  -9.104  22.098  0.00  0.00    -0.028 A 
HETATM   38  C   UNK     0     -49.666  -9.599  22.434  0.00  0.00     0.051 C 
ENDBRANCH  30  31
ENDBRANCH  29  30
ENDBRANCH  26  29
ENDBRANCH  24  25
BRANCH  24  39
HETATM   39  C   UNK     0     -50.885  -6.347  21.004  0.00  0.00     0.066 C 
BRANCH  39  40
HETATM   40  C   UNK     0     -51.735  -6.355  22.260  0.00  0.00    -0.056 A 
HETATM   41  C   UNK     0     -53.147  -6.309  22.158  0.00  0.00     0.007 A 
HETATM   42  C   UNK     0     -53.961  -6.310  23.317  0.00  0.00     0.001 A 
HETATM   43  C   UNK     0     -53.370  -6.359  24.593  0.00  0.00     0.000 A 
HETATM   44  C   UNK     0     -51.964  -6.406  24.708  0.00  0.00     0.001 A 
HETATM   45  C   UNK     0     -51.150  -6.405  23.551  0.00  0.00     0.007 A 
ENDBRANCH  39  40
ENDBRANCH  24  39
ENDBRANCH  23  24
BRANCH  23  46
HETATM   46  O   UNK     0     -52.262  -6.834  17.536  0.00  0.00    -0.393 OA
HETATM   47  H   UNK     0     -52.779  -7.494  17.986  0.00  0.00     0.210 HD
ENDBRANCH  23  46
ENDBRANCH  22  23
ENDBRANCH  14  22
ENDBRANCH  11  14
ENDBRANCH   9  10
BRANCH   9  48
HETATM   48  C   UNK     0     -49.286  -3.250  14.865  0.00  0.00     0.010 C 
HETATM   49  C   UNK     0     -50.245  -4.443  15.047  0.00  0.00     0.012 C 
HETATM   50  C   UNK     0     -49.782  -2.403  13.670  0.00  0.00     0.012 C 
ENDBRANCH   9  48
ENDBRANCH   3   9
TORSDOF 16
ENDMDL
MODEL 4
REMARK VINA RESULT:      -7.2      6.220     11.795
REMARK  16 active torsions:
REMARK  status: ('A' for Active; 'I' for Inactive)
REMARK    1  A    between atoms: N_3  and  C_13 
REMARK    2  A    between atoms: C_6  and  C_37 
REMARK    3  A    between atoms: C_13  and  C_14 
REMARK    4  A    between atoms: C_13  and  C_17 
REMARK       I    between atoms: C_14  and  N_15 
REMARK    5  A    between atoms: N_15  and  C_16 
REMARK    6  A    between atoms: C_16  and  C_27 
REMARK    7  A    between atoms: C_16  and  C_28 
REMARK    8  A    between atoms: C_25  and  C_27 
REMARK    9  A    between atoms: C_28  and  C_29 
REMARK   10  A    between atoms: C_29  and  C_30 
REMARK   11  A    between atoms: C_29  and  O_36 
REMARK   12  A    between atoms: C_30  and  N_31 
REMARK   13  A    between atoms: C_30  and  C_37 
REMARK       I    between atoms: N_31  and  C_32 
REMARK   14  A    between atoms: C_32  and  C_33 
REMARK   15  A    between atoms: C_33  and  O_34 
REMARK   16  A    between atoms: O_34  and  C_35 
ROOT
HETATM    1  C   UNK     0     -48.901  -9.615  20.334  0.00  0.00     0.126 C 
HETATM    2  C   UNK     0     -46.406  -9.356  20.264  0.00  0.00     0.130 C 
HETATM    3  N   UNK     0     -46.318 -10.756  19.708  0.00  0.00    -0.320 N 
HETATM    4  C   UNK     0     -47.458 -11.518  19.490  0.00  0.00     0.319 C 
HETATM    5  N   UNK     0     -48.668 -10.967  19.788  0.00  0.00    -0.343 N 
HETATM    6  O   UNK     0     -47.403 -12.652  19.045  0.00  0.00    -0.247 OA
HETATM    7  C   UNK     0     -47.755  -8.657  19.992  0.00  0.00     0.040 C 
HETATM    8  H   UNK     0     -49.443 -11.600  19.590  0.00  0.00     0.164 HD
ENDROOT
BRANCH   3   9
HETATM    9  C   UNK     0     -44.974 -11.351  19.388  0.00  0.00     0.184 C 
BRANCH   9  10
HETATM   10  C   UNK     0     -44.597 -12.384  20.486  0.00  0.00     0.241 C 
HETATM   11  N   UNK     0     -44.058 -13.531  19.969  0.00  0.00    -0.354 N 
HETATM   12  H   UNK     0     -43.992 -13.526  18.951  0.00  0.00     0.162 HD
HETATM   13  O   UNK     0     -44.782 -12.155  21.682  0.00  0.00    -0.271 OA
BRANCH  11  14
HETATM   14  C   UNK     0     -43.605 -14.687  20.774  0.00  0.00     0.091 C 
BRANCH  14  15
HETATM   15  C   UNK     0     -42.504 -14.261  21.772  0.00  0.00     0.063 C 
BRANCH  15  16
HETATM   16  C   UNK     0     -41.210 -13.742  21.211  0.00  0.00    -0.056 A 
HETATM   17  C   UNK     0     -40.668 -14.304  20.023  0.00  0.00     0.007 A 
HETATM   18  C   UNK     0     -39.452 -13.825  19.485  0.00  0.00     0.001 A 
HETATM   19  C   UNK     0     -38.764 -12.772  20.131  0.00  0.00     0.000 A 
HETATM   20  C   UNK     0     -39.297 -12.206  21.314  0.00  0.00     0.001 A 
HETATM   21  C   UNK     0     -40.514 -12.690  21.850  0.00  0.00     0.007 A 
ENDBRANCH  15  16
ENDBRANCH  14  15
BRANCH  14  22
HETATM   22  C   UNK     0     -44.755 -15.272  21.622  0.00  0.00     0.059 C 
BRANCH  22  23
HETATM   23  C   UNK     0     -46.118 -15.564  20.968  0.00  0.00     0.143 C 
BRANCH  23  24
HETATM   24  C   UNK     0     -46.808 -16.901  21.341  0.00  0.00     0.117 C 
BRANCH  24  25
HETATM   25  N   UNK     0     -47.678 -16.663  22.516  0.00  0.00    -0.352 N 
HETATM   26  C   UNK     0     -47.404 -17.120  23.779  0.00  0.00     0.242 C 
HETATM   27  O   UNK     0     -46.406 -17.776  24.095  0.00  0.00    -0.271 OA
HETATM   28  H   UNK     0     -48.547 -16.134  22.448  0.00  0.00     0.163 HD
BRANCH  26  29
HETATM   29  C   UNK     0     -48.473 -16.767  24.832  0.00  0.00     0.278 C 
BRANCH  29  30
HETATM   30  O   UNK     0     -48.042 -17.096  26.165  0.00  0.00    -0.341 OA
BRANCH  30  31
HETATM   31  C   UNK     0     -48.038 -16.002  27.052  0.00  0.00     0.081 A 
HETATM   32  C   UNK     0     -46.853 -15.221  27.285  0.00  0.00    -0.028 A 
HETATM   33  C   UNK     0     -46.913 -14.128  28.190  0.00  0.00     0.009 A 
HETATM   34  C   UNK     0     -45.540 -15.520  26.601  0.00  0.00     0.051 C 
HETATM   35  C   UNK     0     -48.114 -13.801  28.855  0.00  0.00     0.001 A 
HETATM   36  C   UNK     0     -49.281 -14.559  28.630  0.00  0.00     0.009 A 
HETATM   37  C   UNK     0     -49.258 -15.656  27.736  0.00  0.00    -0.028 A 
HETATM   38  C   UNK     0     -50.511 -16.434  27.519  0.00  0.00     0.051 C 
ENDBRANCH  30  31
ENDBRANCH  29  30
ENDBRANCH  26  29
ENDBRANCH  24  25
BRANCH  24  39
HETATM   39  C   UNK     0     -47.685 -17.417  20.162  0.00  0.00     0.066 C 
BRANCH  39  40
HETATM   40  C   UNK     0     -46.948 -18.273  19.151  0.00  0.00    -0.056 A 
HETATM   41  C   UNK     0     -45.892 -19.115  19.575  0.00  0.00     0.007 A 
HETATM   42  C   UNK     0     -45.186 -19.921  18.648  0.00  0.00     0.001 A 
HETATM   43  C   UNK     0     -45.531 -19.893  17.283  0.00  0.00     0.000 A 
HETATM   44  C   UNK     0     -46.584 -19.057  16.849  0.00  0.00     0.001 A 
HETATM   45  C   UNK     0     -47.288 -18.253  17.774  0.00  0.00     0.007 A 
ENDBRANCH  39  40
ENDBRANCH  24  39
ENDBRANCH  23  24
BRANCH  23  46
HETATM   46  O   UNK     0     -46.973 -14.526  21.384  0.00  0.00    -0.393 OA
HETATM   47  H   UNK     0     -47.849 -14.896  21.388  0.00  0.00     0.210 HD
ENDBRANCH  23  46
ENDBRANCH  22  23
ENDBRANCH  14  22
ENDBRANCH  11  14
ENDBRANCH   9  10
BRANCH   9  48
HETATM   48  C   UNK     0     -43.865 -10.240  19.206  0.00  0.00     0.010 C 
HETATM   49  C   UNK     0     -42.432 -10.804  19.165  0.00  0.00     0.012 C 
HETATM   50  C   UNK     0     -44.108  -9.428  17.913  0.00  0.00     0.012 C 
ENDBRANCH   9  48
ENDBRANCH   3   9
TORSDOF 16
ENDMDL
MODEL 5
REMARK VINA RESULT:      -7.2      2.116      8.761
REMARK  16 active torsions:
REMARK  status: ('A' for Active; 'I' for Inactive)
REMARK    1  A    between atoms: N_3  and  C_13 
REMARK    2  A    between atoms: C_6  and  C_37 
REMARK    3  A    between atoms: C_13  and  C_14 
REMARK    4  A    between atoms: C_13  and  C_17 
REMARK       I    between atoms: C_14  and  N_15 
REMARK    5  A    between atoms: N_15  and  C_16 
REMARK    6  A    between atoms: C_16  and  C_27 
REMARK    7  A    between atoms: C_16  and  C_28 
REMARK    8  A    between atoms: C_25  and  C_27 
REMARK    9  A    between atoms: C_28  and  C_29 
REMARK   10  A    between atoms: C_29  and  C_30 
REMARK   11  A    between atoms: C_29  and  O_36 
REMARK   12  A    between atoms: C_30  and  N_31 
REMARK   13  A    between atoms: C_30  and  C_37 
REMARK       I    between atoms: N_31  and  C_32 
REMARK   14  A    between atoms: C_32  and  C_33 
REMARK   15  A    between atoms: C_33  and  O_34 
REMARK   16  A    between atoms: O_34  and  C_35 
ROOT
HETATM    1  C   UNK     0     -44.282 -10.137  18.627  0.00  0.00     0.126 C 
HETATM    2  C   UNK     0     -46.292  -8.775  19.260  0.00  0.00     0.130 C 
HETATM    3  N   UNK     0     -47.041 -10.065  19.493  0.00  0.00    -0.320 N 
HETATM    4  C   UNK     0     -46.432 -11.298  19.298  0.00  0.00     0.319 C 
HETATM    5  N   UNK     0     -45.130 -11.316  18.892  0.00  0.00    -0.343 N 
HETATM    6  O   UNK     0     -47.023 -12.348  19.478  0.00  0.00    -0.247 OA
HETATM    7  C   UNK     0     -44.761  -8.904  19.403  0.00  0.00     0.040 C 
HETATM    8  H   UNK     0     -44.771 -12.264  18.780  0.00  0.00     0.164 HD
ENDROOT
BRANCH   3   9
HETATM    9  C   UNK     0     -48.478 -10.028  19.938  0.00  0.00     0.184 C 
BRANCH   9  10
HETATM   10  C   UNK     0     -49.315  -9.238  18.895  0.00  0.00     0.241 C 
HETATM   11  N   UNK     0     -50.254  -8.428  19.475  0.00  0.00    -0.354 N 
HETATM   12  H   UNK     0     -50.255  -8.474  20.493  0.00  0.00     0.162 HD
HETATM   13  O   UNK     0     -49.122  -9.357  17.683  0.00  0.00    -0.271 OA
BRANCH  11  14
HETATM   14  C   UNK     0     -51.192  -7.557  18.732  0.00  0.00     0.091 C 
BRANCH  14  15
HETATM   15  C   UNK     0     -51.888  -6.561  19.688  0.00  0.00     0.063 C 
BRANCH  15  16
HETATM   16  C   UNK     0     -51.626  -6.702  21.160  0.00  0.00    -0.056 A 
HETATM   17  C   UNK     0     -50.521  -6.036  21.759  0.00  0.00     0.007 A 
HETATM   18  C   UNK     0     -50.265  -6.162  23.143  0.00  0.00     0.001 A 
HETATM   19  C   UNK     0     -51.115  -6.956  23.947  0.00  0.00     0.000 A 
HETATM   20  C   UNK     0     -52.217  -7.622  23.359  0.00  0.00     0.001 A 
HETATM   21  C   UNK     0     -52.470  -7.494  21.973  0.00  0.00     0.007 A 
ENDBRANCH  15  16
ENDBRANCH  14  15
BRANCH  14  22
HETATM   22  C   UNK     0     -50.457  -6.703  17.676  0.00  0.00     0.059 C 
BRANCH  22  23
HETATM   23  C   UNK     0     -51.037  -5.342  17.252  0.00  0.00     0.143 C 
BRANCH  23  24
HETATM   24  C   UNK     0     -50.134  -4.098  17.450  0.00  0.00     0.117 C 
BRANCH  24  25
HETATM   25  N   UNK     0     -50.101  -3.774  18.895  0.00  0.00    -0.352 N 
HETATM   26  C   UNK     0     -50.027  -2.499  19.395  0.00  0.00     0.242 C 
HETATM   27  O   UNK     0     -49.984  -1.471  18.711  0.00  0.00    -0.271 OA
HETATM   28  H   UNK     0     -50.132  -4.497  19.614  0.00  0.00     0.163 HD
BRANCH  26  29
HETATM   29  C   UNK     0     -49.980  -2.418  20.934  0.00  0.00     0.278 C 
BRANCH  29  30
HETATM   30  O   UNK     0     -51.145  -1.766  21.472  0.00  0.00    -0.341 OA
BRANCH  30  31
HETATM   31  C   UNK     0     -51.894  -2.569  22.354  0.00  0.00     0.081 A 
HETATM   32  C   UNK     0     -51.559  -2.679  23.748  0.00  0.00    -0.028 A 
HETATM   33  C   UNK     0     -52.354  -3.504  24.587  0.00  0.00     0.009 A 
HETATM   34  C   UNK     0     -50.387  -1.947  24.359  0.00  0.00     0.051 C 
HETATM   35  C   UNK     0     -53.463  -4.209  24.071  0.00  0.00     0.001 A 
HETATM   36  C   UNK     0     -53.801  -4.104  22.707  0.00  0.00     0.009 A 
HETATM   37  C   UNK     0     -53.030  -3.292  21.841  0.00  0.00    -0.028 A 
HETATM   38  C   UNK     0     -53.417  -3.202  20.404  0.00  0.00     0.051 C 
ENDBRANCH  30  31
ENDBRANCH  29  30
ENDBRANCH  26  29
ENDBRANCH  24  25
BRANCH  24  39
HETATM   39  C   UNK     0     -48.682  -4.387  16.967  0.00  0.00     0.066 C 
BRANCH  39  40
HETATM   40  C   UNK     0     -47.934  -3.176  16.445  0.00  0.00    -0.056 A 
HETATM   41  C   UNK     0     -48.581  -2.270  15.570  0.00  0.00     0.007 A 
HETATM   42  C   UNK     0     -47.901  -1.134  15.065  0.00  0.00     0.001 A 
HETATM   43  C   UNK     0     -46.564  -0.891  15.433  0.00  0.00     0.000 A 
HETATM   44  C   UNK     0     -45.909  -1.788  16.305  0.00  0.00     0.001 A 
HETATM   45  C   UNK     0     -46.587  -2.922  16.809  0.00  0.00     0.007 A 
ENDBRANCH  39  40
ENDBRANCH  24  39
ENDBRANCH  23  24
BRANCH  23  46
HETATM   46  O   UNK     0     -51.301  -5.449  15.874  0.00  0.00    -0.393 OA
HETATM   47  H   UNK     0     -51.727  -6.291  15.756  0.00  0.00     0.210 HD
ENDBRANCH  23  46
ENDBRANCH  22  23
ENDBRANCH  14  22
ENDBRANCH  11  14
ENDBRANCH   9  10
BRANCH   9  48
HETATM   48  C   UNK     0     -48.628  -9.439  21.396  0.00  0.00     0.010 C 
HETATM   49  C   UNK     0     -49.572 -10.260  22.295  0.00  0.00     0.012 C 
HETATM   50  C   UNK     0     -47.252  -9.338  22.094  0.00  0.00     0.012 C 
ENDBRANCH   9  48
ENDBRANCH   3   9
TORSDOF 16
ENDMDL
MODEL 6
REMARK VINA RESULT:      -7.1      5.003     12.646
REMARK  16 active torsions:
REMARK  status: ('A' for Active; 'I' for Inactive)
REMARK    1  A    between atoms: N_3  and  C_13 
REMARK    2  A    between atoms: C_6  and  C_37 
REMARK    3  A    between atoms: C_13  and  C_14 
REMARK    4  A    between atoms: C_13  and  C_17 
REMARK       I    between atoms: C_14  and  N_15 
REMARK    5  A    between atoms: N_15  and  C_16 
REMARK    6  A    between atoms: C_16  and  C_27 
REMARK    7  A    between atoms: C_16  and  C_28 
REMARK    8  A    between atoms: C_25  and  C_27 
REMARK    9  A    between atoms: C_28  and  C_29 
REMARK   10  A    between atoms: C_29  and  C_30 
REMARK   11  A    between atoms: C_29  and  O_36 
REMARK   12  A    between atoms: C_30  and  N_31 
REMARK   13  A    between atoms: C_30  and  C_37 
REMARK       I    between atoms: N_31  and  C_32 
REMARK   14  A    between atoms: C_32  and  C_33 
REMARK   15  A    between atoms: C_33  and  O_34 
REMARK   16  A    between atoms: O_34  and  C_35 
ROOT
HETATM    1  C   UNK     0     -47.589 -16.380  27.646  0.00  0.00     0.126 C 
HETATM    2  C   UNK     0     -48.287 -16.282  25.238  0.00  0.00     0.130 C 
HETATM    3  N   UNK     0     -46.895 -16.726  24.860  0.00  0.00    -0.320 N 
HETATM    4  C   UNK     0     -45.929 -16.973  25.827  0.00  0.00     0.319 C 
HETATM    5  N   UNK     0     -46.272 -16.807  27.136  0.00  0.00    -0.343 N 
HETATM    6  O   UNK     0     -44.800 -17.329  25.538  0.00  0.00    -0.247 OA
HETATM    7  C   UNK     0     -48.716 -16.705  26.659  0.00  0.00     0.040 C 
HETATM    8  H   UNK     0     -45.499 -17.016  27.769  0.00  0.00     0.164 HD
ENDROOT
BRANCH   3   9
HETATM    9  C   UNK     0     -46.532 -16.901  23.410  0.00  0.00     0.184 C 
BRANCH   9  10
HETATM   10  C   UNK     0     -46.270 -15.507  22.778  0.00  0.00     0.241 C 
HETATM   11  N   UNK     0     -45.175 -15.496  21.956  0.00  0.00    -0.354 N 
HETATM   12  H   UNK     0     -44.707 -16.401  21.893  0.00  0.00     0.162 HD
HETATM   13  O   UNK     0     -46.995 -14.539  23.017  0.00  0.00    -0.271 OA
BRANCH  11  14
HETATM   14  C   UNK     0     -44.686 -14.312  21.217  0.00  0.00     0.091 C 
BRANCH  14  15
HETATM   15  C   UNK     0     -43.260 -14.557  20.672  0.00  0.00     0.063 C 
BRANCH  15  16
HETATM   16  C   UNK     0     -42.101 -14.059  21.489  0.00  0.00    -0.056 A 
HETATM   17  C   UNK     0     -42.326 -13.457  22.757  0.00  0.00     0.007 A 
HETATM   18  C   UNK     0     -41.244 -12.986  23.536  0.00  0.00     0.001 A 
HETATM   19  C   UNK     0     -39.921 -13.113  23.052  0.00  0.00     0.000 A 
HETATM   20  C   UNK     0     -39.689 -13.712  21.791  0.00  0.00     0.001 A 
HETATM   21  C   UNK     0     -40.775 -14.183  21.014  0.00  0.00     0.007 A 
ENDBRANCH  15  16
ENDBRANCH  14  15
BRANCH  14  22
HETATM   22  C   UNK     0     -45.572 -14.006  19.989  0.00  0.00     0.059 C 
BRANCH  22  23
HETATM   23  C   UNK     0     -46.543 -12.812  20.023  0.00  0.00     0.143 C 
BRANCH  23  24
HETATM   24  C   UNK     0     -45.998 -11.445  19.536  0.00  0.00     0.117 C 
BRANCH  24  25
HETATM   25  N   UNK     0     -47.151 -10.553  19.272  0.00  0.00    -0.352 N 
HETATM   26  C   UNK     0     -47.045  -9.204  19.051  0.00  0.00     0.242 C 
HETATM   27  O   UNK     0     -45.985  -8.570  19.041  0.00  0.00    -0.271 OA
HETATM   28  H   UNK     0     -48.109 -10.902  19.238  0.00  0.00     0.163 HD
BRANCH  26  29
HETATM   29  C   UNK     0     -48.389  -8.486  18.825  0.00  0.00     0.278 C 
BRANCH  29  30
HETATM   30  O   UNK     0     -49.507  -9.299  19.226  0.00  0.00    -0.341 OA
BRANCH  30  31
HETATM   31  C   UNK     0     -50.310  -8.716  20.226  0.00  0.00     0.081 A 
HETATM   32  C   UNK     0     -50.144  -9.043  21.617  0.00  0.00    -0.028 A 
HETATM   33  C   UNK     0     -50.984  -8.419  22.578  0.00  0.00     0.009 A 
HETATM   34  C   UNK     0     -49.105 -10.029  22.098  0.00  0.00     0.051 C 
HETATM   35  C   UNK     0     -51.968  -7.489  22.185  0.00  0.00     0.001 A 
HETATM   36  C   UNK     0     -52.136  -7.160  20.825  0.00  0.00     0.009 A 
HETATM   37  C   UNK     0     -51.318  -7.762  19.839  0.00  0.00    -0.028 A 
HETATM   38  C   UNK     0     -51.520  -7.389  18.410  0.00  0.00     0.051 C 
ENDBRANCH  30  31
ENDBRANCH  29  30
ENDBRANCH  26  29
ENDBRANCH  24  25
BRANCH  24  39
HETATM   39  C   UNK     0     -45.097 -10.791  20.625  0.00  0.00     0.066 C 
BRANCH  39  40
HETATM   40  C   UNK     0     -43.614 -10.795  20.306  0.00  0.00    -0.056 A 
HETATM   41  C   UNK     0     -43.158 -11.321  19.073  0.00  0.00     0.007 A 
HETATM   42  C   UNK     0     -41.778 -11.341  18.756  0.00  0.00     0.001 A 
HETATM   43  C   UNK     0     -40.837 -10.832  19.671  0.00  0.00     0.000 A 
HETATM   44  C   UNK     0     -41.279 -10.304  20.904  0.00  0.00     0.001 A 
HETATM   45  C   UNK     0     -42.658 -10.285  21.221  0.00  0.00     0.007 A 
ENDBRANCH  39  40
ENDBRANCH  24  39
ENDBRANCH  23  24
BRANCH  23  46
HETATM   46  O   UNK     0     -47.610 -13.160  19.174  0.00  0.00    -0.393 OA
HETATM   47  H   UNK     0     -47.800 -12.381  18.663  0.00  0.00     0.210 HD
ENDBRANCH  23  46
ENDBRANCH  22  23
ENDBRANCH  14  22
ENDBRANCH  11  14
ENDBRANCH   9  10
BRANCH   9  48
HETATM   48  C   UNK     0     -47.630 -17.719  22.622  0.00  0.00     0.010 C 
HETATM   49  C   UNK     0     -47.499 -17.606  21.091  0.00  0.00     0.012 C 
HETATM   50  C   UNK     0     -47.583 -19.216  23.008  0.00  0.00     0.012 C 
ENDBRANCH   9  48
ENDBRANCH   3   9
TORSDOF 16
ENDMDL
MODEL 7
REMARK VINA RESULT:      -7.1      2.062      4.637
REMARK  16 active torsions:
REMARK  status: ('A' for Active; 'I' for Inactive)
REMARK    1  A    between atoms: N_3  and  C_13 
REMARK    2  A    between atoms: C_6  and  C_37 
REMARK    3  A    between atoms: C_13  and  C_14 
REMARK    4  A    between atoms: C_13  and  C_17 
REMARK       I    between atoms: C_14  and  N_15 
REMARK    5  A    between atoms: N_15  and  C_16 
REMARK    6  A    between atoms: C_16  and  C_27 
REMARK    7  A    between atoms: C_16  and  C_28 
REMARK    8  A    between atoms: C_25  and  C_27 
REMARK    9  A    between atoms: C_28  and  C_29 
REMARK   10  A    between atoms: C_29  and  C_30 
REMARK   11  A    between atoms: C_29  and  O_36 
REMARK   12  A    between atoms: C_30  and  N_31 
REMARK   13  A    between atoms: C_30  and  C_37 
REMARK       I    between atoms: N_31  and  C_32 
REMARK   14  A    between atoms: C_32  and  C_33 
REMARK   15  A    between atoms: C_33  and  O_34 
REMARK   16  A    between atoms: O_34  and  C_35 
ROOT
HETATM    1  C   UNK     0     -48.494  -1.425  21.960  0.00  0.00     0.126 C 
HETATM    2  C   UNK     0     -50.001  -2.074  20.061  0.00  0.00     0.130 C 
HETATM    3  N   UNK     0     -50.514  -3.210  20.912  0.00  0.00    -0.320 N 
HETATM    4  C   UNK     0     -50.034  -3.423  22.197  0.00  0.00     0.319 C 
HETATM    5  N   UNK     0     -49.083  -2.572  22.678  0.00  0.00    -0.343 N 
HETATM    6  O   UNK     0     -50.435  -4.338  22.895  0.00  0.00    -0.247 OA
HETATM    7  C   UNK     0     -49.433  -0.890  20.873  0.00  0.00     0.040 C 
HETATM    8  H   UNK     0     -48.797  -2.807  23.629  0.00  0.00     0.164 HD
ENDROOT
BRANCH   3   9
HETATM    9  C   UNK     0     -51.560  -4.142  20.364  0.00  0.00     0.184 C 
BRANCH   9  10
HETATM   10  C   UNK     0     -51.242  -4.449  18.875  0.00  0.00     0.241 C 
HETATM   11  N   UNK     0     -50.060  -5.122  18.715  0.00  0.00    -0.354 N 
HETATM   12  H   UNK     0     -49.580  -5.312  19.594  0.00  0.00     0.162 HD
HETATM   13  O   UNK     0     -51.998  -4.104  17.965  0.00  0.00    -0.271 OA
BRANCH  11  14
HETATM   14  C   UNK     0     -49.502  -5.550  17.413  0.00  0.00     0.091 C 
BRANCH  14  15
HETATM   15  C   UNK     0     -48.541  -4.477  16.851  0.00  0.00     0.063 C 
BRANCH  15  16
HETATM   16  C   UNK     0     -49.137  -3.348  16.059  0.00  0.00    -0.056 A 
HETATM   17  C   UNK     0     -49.927  -3.618  14.909  0.00  0.00     0.007 A 
HETATM   18  C   UNK     0     -50.493  -2.564  14.156  0.00  0.00     0.001 A 
HETATM   19  C   UNK     0     -50.274  -1.222  14.548  0.00  0.00     0.000 A 
HETATM   20  C   UNK     0     -49.488  -0.945  15.692  0.00  0.00     0.001 A 
HETATM   21  C   UNK     0     -48.923  -2.004  16.443  0.00  0.00     0.007 A 
ENDBRANCH  15  16
ENDBRANCH  14  15
BRANCH  14  22
HETATM   22  C   UNK     0     -48.673  -6.845  17.550  0.00  0.00     0.059 C 
BRANCH  22  23
HETATM   23  C   UNK     0     -49.387  -8.203  17.679  0.00  0.00     0.143 C 
BRANCH  23  24
HETATM   24  C   UNK     0     -49.109  -9.027  18.962  0.00  0.00     0.117 C 
BRANCH  24  25
HETATM   25  N   UNK     0     -47.750  -9.608  18.855  0.00  0.00    -0.352 N 
HETATM   26  C   UNK     0     -47.345 -10.742  19.509  0.00  0.00     0.242 C 
HETATM   27  O   UNK     0     -48.057 -11.420  20.259  0.00  0.00    -0.271 OA
HETATM   28  H   UNK     0     -47.024  -9.186  18.275  0.00  0.00     0.163 HD
BRANCH  26  29
HETATM   29  C   UNK     0     -45.876 -11.135  19.259  0.00  0.00     0.278 C 
BRANCH  29  30
HETATM   30  O   UNK     0     -45.060  -9.990  18.949  0.00  0.00    -0.341 OA
BRANCH  30  31
HETATM   31  C   UNK     0     -44.029  -9.753  19.878  0.00  0.00     0.081 A 
HETATM   32  C   UNK     0     -44.234  -8.938  21.046  0.00  0.00    -0.028 A 
HETATM   33  C   UNK     0     -43.155  -8.738  21.948  0.00  0.00     0.009 A 
HETATM   34  C   UNK     0     -45.561  -8.284  21.353  0.00  0.00     0.051 C 
HETATM   35  C   UNK     0     -41.895  -9.328  21.713  0.00  0.00     0.001 A 
HETATM   36  C   UNK     0     -41.685 -10.130  20.573  0.00  0.00     0.009 A 
HETATM   37  C   UNK     0     -42.737 -10.351  19.652  0.00  0.00    -0.028 A 
HETATM   38  C   UNK     0     -42.482 -11.207  18.459  0.00  0.00     0.051 C 
ENDBRANCH  30  31
ENDBRANCH  29  30
ENDBRANCH  26  29
ENDBRANCH  24  25
BRANCH  24  39
HETATM   39  C   UNK     0     -49.169  -8.119  20.226  0.00  0.00     0.066 C 
BRANCH  39  40
HETATM   40  C   UNK     0     -50.361  -8.368  21.129  0.00  0.00    -0.056 A 
HETATM   41  C   UNK     0     -51.483  -7.505  21.071  0.00  0.00     0.007 A 
HETATM   42  C   UNK     0     -52.606  -7.715  21.909  0.00  0.00     0.001 A 
HETATM   43  C   UNK     0     -52.620  -8.793  22.814  0.00  0.00     0.000 A 
HETATM   44  C   UNK     0     -51.507  -9.660  22.880  0.00  0.00     0.001 A 
HETATM   45  C   UNK     0     -50.385  -9.450  22.044  0.00  0.00     0.007 A 
ENDBRANCH  39  40
ENDBRANCH  24  39
ENDBRANCH  23  24
BRANCH  23  46
HETATM   46  O   UNK     0     -50.765  -7.916  17.660  0.00  0.00    -0.393 OA
HETATM   47  H   UNK     0     -50.844  -7.049  17.279  0.00  0.00     0.210 HD
ENDBRANCH  23  46
ENDBRANCH  22  23
ENDBRANCH  14  22
ENDBRANCH  11  14
ENDBRANCH   9  10
BRANCH   9  48
HETATM   48  C   UNK     0     -53.020  -3.569  20.558  0.00  0.00     0.010 C 
HETATM   49  C   UNK     0     -53.747  -4.145  21.789  0.00  0.00     0.012 C 
HETATM   50  C   UNK     0     -52.994  -2.028  20.682  0.00  0.00     0.012 C 
ENDBRANCH   9  48
ENDBRANCH   3   9
TORSDOF 16
ENDMDL
MODEL 8
REMARK VINA RESULT:      -7.1      6.227     10.894
REMARK  16 active torsions:
REMARK  status: ('A' for Active; 'I' for Inactive)
REMARK    1  A    between atoms: N_3  and  C_13 
REMARK    2  A    between atoms: C_6  and  C_37 
REMARK    3  A    between atoms: C_13  and  C_14 
REMARK    4  A    between atoms: C_13  and  C_17 
REMARK       I    between atoms: C_14  and  N_15 
REMARK    5  A    between atoms: N_15  and  C_16 
REMARK    6  A    between atoms: C_16  and  C_27 
REMARK    7  A    between atoms: C_16  and  C_28 
REMARK    8  A    between atoms: C_25  and  C_27 
REMARK    9  A    between atoms: C_28  and  C_29 
REMARK   10  A    between atoms: C_29  and  C_30 
REMARK   11  A    between atoms: C_29  and  O_36 
REMARK   12  A    between atoms: C_30  and  N_31 
REMARK   13  A    between atoms: C_30  and  C_37 
REMARK       I    between atoms: N_31  and  C_32 
REMARK   14  A    between atoms: C_32  and  C_33 
REMARK   15  A    between atoms: C_33  and  O_34 
REMARK   16  A    between atoms: O_34  and  C_35 
ROOT
HETATM    1  C   UNK     0     -41.270  -8.671  23.193  0.00  0.00     0.126 C 
HETATM    2  C   UNK     0     -41.503 -11.150  22.888  0.00  0.00     0.130 C 
HETATM    3  N   UNK     0     -42.351 -10.878  21.669  0.00  0.00    -0.320 N 
HETATM    4  C   UNK     0     -42.628  -9.582  21.259  0.00  0.00     0.319 C 
HETATM    5  N   UNK     0     -42.111  -8.551  21.986  0.00  0.00    -0.343 N 
HETATM    6  O   UNK     0     -43.314  -9.345  20.279  0.00  0.00    -0.247 OA
HETATM    7  C   UNK     0     -40.524 -10.010  23.238  0.00  0.00     0.040 C 
HETATM    8  H   UNK     0     -42.366  -7.640  21.605  0.00  0.00     0.164 HD
ENDROOT
BRANCH   3   9
HETATM    9  C   UNK     0     -42.918 -12.027  20.880  0.00  0.00     0.184 C 
BRANCH   9  10
HETATM   10  C   UNK     0     -44.348 -12.345  21.395  0.00  0.00     0.241 C 
HETATM   11  N   UNK     0     -45.290 -12.302  20.402  0.00  0.00    -0.354 N 
HETATM   12  H   UNK     0     -44.904 -12.067  19.488  0.00  0.00     0.162 HD
HETATM   13  O   UNK     0     -44.568 -12.601  22.580  0.00  0.00    -0.271 OA
BRANCH  11  14
HETATM   14  C   UNK     0     -46.733 -12.563  20.596  0.00  0.00     0.091 C 
BRANCH  14  15
HETATM   15  C   UNK     0     -47.567 -11.883  19.486  0.00  0.00     0.063 C 
BRANCH  15  16
HETATM   16  C   UNK     0     -48.386 -10.681  19.861  0.00  0.00    -0.056 A 
HETATM   17  C   UNK     0     -48.771  -9.738  18.869  0.00  0.00     0.007 A 
HETATM   18  C   UNK     0     -49.542  -8.603  19.210  0.00  0.00     0.001 A 
HETATM   19  C   UNK     0     -49.939  -8.400  20.552  0.00  0.00     0.000 A 
HETATM   20  C   UNK     0     -49.561  -9.334  21.546  0.00  0.00     0.001 A 
HETATM   21  C   UNK     0     -48.788 -10.468  21.200  0.00  0.00     0.007 A 
ENDBRANCH  15  16
ENDBRANCH  14  15
BRANCH  14  22
HETATM   22  C   UNK     0     -47.051 -14.072  20.513  0.00  0.00     0.059 C 
BRANCH  22  23
HETATM   23  C   UNK     0     -47.689 -14.789  21.717  0.00  0.00     0.143 C 
BRANCH  23  24
HETATM   24  C   UNK     0     -47.369 -16.295  21.892  0.00  0.00     0.117 C 
BRANCH  24  25
HETATM   25  N   UNK     0     -48.038 -16.771  23.126  0.00  0.00    -0.352 N 
HETATM   26  C   UNK     0     -47.412 -17.494  24.109  0.00  0.00     0.242 C 
HETATM   27  O   UNK     0     -46.223 -17.831  24.092  0.00  0.00    -0.271 OA
HETATM   28  H   UNK     0     -49.022 -16.582  23.317  0.00  0.00     0.163 HD
BRANCH  26  29
HETATM   29  C   UNK     0     -48.324 -17.897  25.285  0.00  0.00     0.278 C 
BRANCH  29  30
HETATM   30  O   UNK     0     -47.638 -17.815  26.548  0.00  0.00    -0.341 OA
BRANCH  30  31
HETATM   31  C   UNK     0     -47.740 -16.558  27.174  0.00  0.00     0.081 A 
HETATM   32  C   UNK     0     -49.001 -16.042  27.635  0.00  0.00    -0.028 A 
HETATM   33  C   UNK     0     -49.039 -14.767  28.261  0.00  0.00     0.009 A 
HETATM   34  C   UNK     0     -50.294 -16.807  27.477  0.00  0.00     0.051 C 
HETATM   35  C   UNK     0     -47.861 -14.011  28.437  0.00  0.00     0.001 A 
HETATM   36  C   UNK     0     -46.620 -14.510  27.992  0.00  0.00     0.009 A 
HETATM   37  C   UNK     0     -46.545 -15.776  27.363  0.00  0.00    -0.028 A 
HETATM   38  C   UNK     0     -45.216 -16.274  26.907  0.00  0.00     0.051 C 
ENDBRANCH  30  31
ENDBRANCH  29  30
ENDBRANCH  26  29
ENDBRANCH  24  25
BRANCH  24  39
HETATM   39  C   UNK     0     -47.904 -17.117  20.682  0.00  0.00     0.066 C 
BRANCH  39  40
HETATM   40  C   UNK     0     -46.882 -18.034  20.038  0.00  0.00    -0.056 A 
HETATM   41  C   UNK     0     -47.050 -18.445  18.693  0.00  0.00     0.007 A 
HETATM   42  C   UNK     0     -46.111 -19.304  18.072  0.00  0.00     0.001 A 
HETATM   43  C   UNK     0     -44.990 -19.762  18.791  0.00  0.00     0.000 A 
HETATM   44  C   UNK     0     -44.812 -19.358  20.132  0.00  0.00     0.001 A 
HETATM   45  C   UNK     0     -45.749 -18.500  20.753  0.00  0.00     0.007 A 
ENDBRANCH  39  40
ENDBRANCH  24  39
ENDBRANCH  23  24
BRANCH  23  46
HETATM   46  O   UNK     0     -47.205 -14.125  22.860  0.00  0.00    -0.393 OA
HETATM   47  H   UNK     0     -46.299 -13.910  22.671  0.00  0.00     0.210 HD
ENDBRANCH  23  46
ENDBRANCH  22  23
ENDBRANCH  14  22
ENDBRANCH  11  14
ENDBRANCH   9  10
BRANCH   9  48
HETATM   48  C   UNK     0     -41.973 -13.293  20.918  0.00  0.00     0.010 C 
HETATM   49  C   UNK     0     -42.734 -14.630  20.829  0.00  0.00     0.012 C 
HETATM   50  C   UNK     0     -40.938 -13.241  19.771  0.00  0.00     0.012 C 
ENDBRANCH   9  48
ENDBRANCH   3   9
TORSDOF 16
ENDMDL
MODEL 9
REMARK VINA RESULT:      -7.0      3.488      7.700
REMARK  16 active torsions:
REMARK  status: ('A' for Active; 'I' for Inactive)
REMARK    1  A    between atoms: N_3  and  C_13 
REMARK    2  A    between atoms: C_6  and  C_37 
REMARK    3  A    between atoms: C_13  and  C_14 
REMARK    4  A    between atoms: C_13  and  C_17 
REMARK       I    between atoms: C_14  and  N_15 
REMARK    5  A    between atoms: N_15  and  C_16 
REMARK    6  A    between atoms: C_16  and  C_27 
REMARK    7  A    between atoms: C_16  and  C_28 
REMARK    8  A    between atoms: C_25  and  C_27 
REMARK    9  A    between atoms: C_28  and  C_29 
REMARK   10  A    between atoms: C_29  and  C_30 
REMARK   11  A    between atoms: C_29  and  O_36 
REMARK   12  A    between atoms: C_30  and  N_31 
REMARK   13  A    between atoms: C_30  and  C_37 
REMARK       I    between atoms: N_31  and  C_32 
REMARK   14  A    between atoms: C_32  and  C_33 
REMARK   15  A    between atoms: C_33  and  O_34 
REMARK   16  A    between atoms: O_34  and  C_35 
ROOT
HETATM    1  C   UNK     0     -44.837  -0.789  16.824  0.00  0.00     0.126 C 
HETATM    2  C   UNK     0     -46.494  -2.172  15.545  0.00  0.00     0.130 C 
HETATM    3  N   UNK     0     -47.599  -1.387  16.209  0.00  0.00    -0.320 N 
HETATM    4  C   UNK     0     -47.319  -0.376  17.118  0.00  0.00     0.319 C 
HETATM    5  N   UNK     0     -46.012  -0.104  17.397  0.00  0.00    -0.343 N 
HETATM    6  O   UNK     0     -48.199   0.265  17.666  0.00  0.00    -0.247 OA
HETATM    7  C   UNK     0     -45.151  -1.417  15.461  0.00  0.00     0.040 C 
HETATM    8  H   UNK     0     -45.908   0.654  18.071  0.00  0.00     0.164 HD
ENDROOT
BRANCH   3   9
HETATM    9  C   UNK     0     -49.036  -1.702  15.893  0.00  0.00     0.184 C 
BRANCH   9  10
HETATM   10  C   UNK     0     -49.414  -3.064  16.537  0.00  0.00     0.241 C 
HETATM   11  N   UNK     0     -50.054  -2.920  17.739  0.00  0.00    -0.354 N 
HETATM   12  H   UNK     0     -50.177  -1.947  18.018  0.00  0.00     0.162 HD
HETATM   13  O   UNK     0     -49.146  -4.136  15.992  0.00  0.00    -0.271 OA
BRANCH  11  14
HETATM   14  C   UNK     0     -50.533  -4.040  18.579  0.00  0.00     0.091 C 
BRANCH  14  15
HETATM   15  C   UNK     0     -49.343  -4.830  19.169  0.00  0.00     0.063 C 
BRANCH  15  16
HETATM   16  C   UNK     0     -49.263  -6.302  18.877  0.00  0.00    -0.056 A 
HETATM   17  C   UNK     0     -50.318  -6.952  18.181  0.00  0.00     0.007 A 
HETATM   18  C   UNK     0     -50.254  -8.336  17.900  0.00  0.00     0.001 A 
HETATM   19  C   UNK     0     -49.130  -9.087  18.314  0.00  0.00     0.000 A 
HETATM   20  C   UNK     0     -48.075  -8.447  19.008  0.00  0.00     0.001 A 
HETATM   21  C   UNK     0     -48.143  -7.061  19.287  0.00  0.00     0.007 A 
ENDBRANCH  15  16
ENDBRANCH  14  15
BRANCH  14  22
HETATM   22  C   UNK     0     -51.356  -3.533  19.783  0.00  0.00     0.059 C 
BRANCH  22  23
HETATM   23  C   UNK     0     -52.598  -4.316  20.247  0.00  0.00     0.143 C 
BRANCH  23  24
HETATM   24  C   UNK     0     -52.456  -5.161  21.539  0.00  0.00     0.117 C 
BRANCH  24  25
HETATM   25  N   UNK     0     -53.614  -4.867  22.415  0.00  0.00    -0.352 N 
HETATM   26  C   UNK     0     -53.610  -5.038  23.775  0.00  0.00     0.242 C 
HETATM   27  O   UNK     0     -52.650  -5.450  24.436  0.00  0.00    -0.271 OA
HETATM   28  H   UNK     0     -54.496  -4.512  22.047  0.00  0.00     0.163 HD
BRANCH  26  29
HETATM   29  C   UNK     0     -54.943  -4.687  24.467  0.00  0.00     0.278 C 
BRANCH  29  30
HETATM   30  O   UNK     0     -54.937  -3.348  24.995  0.00  0.00    -0.341 OA
BRANCH  30  31
HETATM   31  C   UNK     0     -54.836  -2.346  24.012  0.00  0.00     0.081 A 
HETATM   32  C   UNK     0     -55.884  -2.117  23.053  0.00  0.00    -0.028 A 
HETATM   33  C   UNK     0     -55.724  -1.089  22.086  0.00  0.00     0.009 A 
HETATM   34  C   UNK     0     -57.155  -2.933  23.035  0.00  0.00     0.051 C 
HETATM   35  C   UNK     0     -54.559  -0.294  22.059  0.00  0.00     0.001 A 
HETATM   36  C   UNK     0     -53.528  -0.509  22.996  0.00  0.00     0.009 A 
HETATM   37  C   UNK     0     -53.652  -1.525  23.973  0.00  0.00    -0.028 A 
HETATM   38  C   UNK     0     -52.544  -1.723  24.951  0.00  0.00     0.051 C 
ENDBRANCH  30  31
ENDBRANCH  29  30
ENDBRANCH  26  29
ENDBRANCH  24  25
BRANCH  24  39
HETATM   39  C   UNK     0     -52.453  -6.682  21.205  0.00  0.00     0.066 C 
BRANCH  39  40
HETATM   40  C   UNK     0     -51.238  -7.439  21.707  0.00  0.00    -0.056 A 
HETATM   41  C   UNK     0     -51.151  -8.840  21.520  0.00  0.00     0.007 A 
HETATM   42  C   UNK     0     -50.029  -9.568  21.985  0.00  0.00     0.001 A 
HETATM   43  C   UNK     0     -48.979  -8.900  22.644  0.00  0.00     0.000 A 
HETATM   44  C   UNK     0     -49.054  -7.503  22.836  0.00  0.00     0.001 A 
HETATM   45  C   UNK     0     -50.175  -6.776  22.372  0.00  0.00     0.007 A 
ENDBRANCH  39  40
ENDBRANCH  24  39
ENDBRANCH  23  24
BRANCH  23  46
HETATM   46  O   UNK     0     -53.593  -3.350  20.490  0.00  0.00    -0.393 OA
HETATM   47  H   UNK     0     -53.435  -2.652  19.864  0.00  0.00     0.210 HD
ENDBRANCH  23  46
ENDBRANCH  22  23
ENDBRANCH  14  22
ENDBRANCH  11  14
ENDBRANCH   9  10
BRANCH   9  48
HETATM   48  C   UNK     0     -49.317  -1.677  14.338  0.00  0.00     0.010 C 
HETATM   49  C   UNK     0     -50.783  -1.978  13.975  0.00  0.00     0.012 C 
HETATM   50  C   UNK     0     -48.934  -0.307  13.732  0.00  0.00     0.012 C 
ENDBRANCH   9  48
ENDBRANCH   3   9
TORSDOF 16
ENDMDL
MODEL 10
REMARK VINA RESULT:      -7.0      2.569      7.858
REMARK  16 active torsions:
REMARK  status: ('A' for Active; 'I' for Inactive)
REMARK    1  A    between atoms: N_3  and  C_13 
REMARK    2  A    between atoms: C_6  and  C_37 
REMARK    3  A    between atoms: C_13  and  C_14 
REMARK    4  A    between atoms: C_13  and  C_17 
REMARK       I    between atoms: C_14  and  N_15 
REMARK    5  A    between atoms: N_15  and  C_16 
REMARK    6  A    between atoms: C_16  and  C_27 
REMARK    7  A    between atoms: C_16  and  C_28 
REMARK    8  A    between atoms: C_25  and  C_27 
REMARK    9  A    between atoms: C_28  and  C_29 
REMARK   10  A    between atoms: C_29  and  C_30 
REMARK   11  A    between atoms: C_29  and  O_36 
REMARK   12  A    between atoms: C_30  and  N_31 
REMARK   13  A    between atoms: C_30  and  C_37 
REMARK       I    between atoms: N_31  and  C_32 
REMARK   14  A    between atoms: C_32  and  C_33 
REMARK   15  A    between atoms: C_33  and  O_34 
REMARK   16  A    between atoms: O_34  and  C_35 
ROOT
HETATM    1  C   UNK     0     -51.438  -1.488  23.337  0.00  0.00     0.126 C 
HETATM    2  C   UNK     0     -51.426  -3.366  25.000  0.00  0.00     0.130 C 
HETATM    3  N   UNK     0     -50.175  -3.890  24.337  0.00  0.00    -0.320 N 
HETATM    4  C   UNK     0     -49.612  -3.242  23.246  0.00  0.00     0.319 C 
HETATM    5  N   UNK     0     -50.217  -2.110  22.787  0.00  0.00    -0.343 N 
HETATM    6  O   UNK     0     -48.605  -3.654  22.697  0.00  0.00    -0.247 OA
HETATM    7  C   UNK     0     -51.648  -1.850  24.811  0.00  0.00     0.040 C 
HETATM    8  H   UNK     0     -49.729  -1.705  21.988  0.00  0.00     0.164 HD
ENDROOT
BRANCH   3   9
HETATM    9  C   UNK     0     -49.522  -5.143  24.854  0.00  0.00     0.184 C 
BRANCH   9  10
HETATM   10  C   UNK     0     -50.419  -6.365  24.512  0.00  0.00     0.241 C 
HETATM   11  N   UNK     0     -50.029  -7.001  23.364  0.00  0.00    -0.354 N 
HETATM   12  H   UNK     0     -49.218  -6.573  22.919  0.00  0.00     0.162 HD
HETATM   13  O   UNK     0     -51.370  -6.691  25.224  0.00  0.00    -0.271 OA
BRANCH  11  14
HETATM   14  C   UNK     0     -50.692  -8.195  22.795  0.00  0.00     0.091 C 
BRANCH  14  15
HETATM   15  C   UNK     0     -51.659  -7.793  21.657  0.00  0.00     0.063 C 
BRANCH  15  16
HETATM   16  C   UNK     0     -52.527  -6.586  21.868  0.00  0.00    -0.056 A 
HETATM   17  C   UNK     0     -53.707  -6.680  22.655  0.00  0.00     0.007 A 
HETATM   18  C   UNK     0     -54.531  -5.550  22.861  0.00  0.00     0.001 A 
HETATM   19  C   UNK     0     -54.182  -4.309  22.280  0.00  0.00     0.000 A 
HETATM   20  C   UNK     0     -53.008  -4.206  21.496  0.00  0.00     0.001 A 
HETATM   21  C   UNK     0     -52.186  -5.340  21.292  0.00  0.00     0.007 A 
ENDBRANCH  15  16
ENDBRANCH  14  15
BRANCH  14  22
HETATM   22  C   UNK     0     -49.668  -9.167  22.170  0.00  0.00     0.059 C 
BRANCH  22  23
HETATM   23  C   UNK     0     -49.416  -9.143  20.651  0.00  0.00     0.143 C 
BRANCH  23  24
HETATM   24  C   UNK     0     -48.150  -8.396  20.157  0.00  0.00     0.117 C 
BRANCH  24  25
HETATM   25  N   UNK     0     -48.578  -7.120  19.537  0.00  0.00    -0.352 N 
HETATM   26  C   UNK     0     -48.370  -6.798  18.221  0.00  0.00     0.242 C 
HETATM   27  O   UNK     0     -47.810  -7.525  17.394  0.00  0.00    -0.271 OA
HETATM   28  H   UNK     0     -49.062  -6.395  20.067  0.00  0.00     0.163 HD
BRANCH  26  29
HETATM   29  C   UNK     0     -48.882  -5.401  17.816  0.00  0.00     0.278 C 
BRANCH  29  30
HETATM   30  O   UNK     0     -50.135  -5.085  18.450  0.00  0.00    -0.341 OA
BRANCH  30  31
HETATM   31  C   UNK     0     -51.215  -4.965  17.555  0.00  0.00     0.081 A 
HETATM   32  C   UNK     0     -51.444  -3.762  16.801  0.00  0.00    -0.028 A 
HETATM   33  C   UNK     0     -52.551  -3.703  15.912  0.00  0.00     0.009 A 
HETATM   34  C   UNK     0     -50.548  -2.551  16.918  0.00  0.00     0.051 C 
HETATM   35  C   UNK     0     -53.419  -4.805  15.761  0.00  0.00     0.001 A 
HETATM   36  C   UNK     0     -53.201  -5.989  16.493  0.00  0.00     0.009 A 
HETATM   37  C   UNK     0     -52.108  -6.084  17.388  0.00  0.00    -0.028 A 
HETATM   38  C   UNK     0     -51.906  -7.352  18.145  0.00  0.00     0.051 C 
ENDBRANCH  30  31
ENDBRANCH  29  30
ENDBRANCH  26  29
ENDBRANCH  24  25
BRANCH  24  39
HETATM   39  C   UNK     0     -47.196  -8.081  21.347  0.00  0.00     0.066 C 
BRANCH  39  40
HETATM   40  C   UNK     0     -45.755  -8.500  21.131  0.00  0.00    -0.056 A 
HETATM   41  C   UNK     0     -45.370  -9.104  19.909  0.00  0.00     0.007 A 
HETATM   42  C   UNK     0     -44.031  -9.507  19.686  0.00  0.00     0.001 A 
HETATM   43  C   UNK     0     -43.059  -9.310  20.685  0.00  0.00     0.000 A 
HETATM   44  C   UNK     0     -43.431  -8.708  21.908  0.00  0.00     0.001 A 
HETATM   45  C   UNK     0     -44.768  -8.305  22.131  0.00  0.00     0.007 A 
ENDBRANCH  39  40
ENDBRANCH  24  39
ENDBRANCH  23  24
BRANCH  23  46
HETATM   46  O   UNK     0     -49.282 -10.489  20.262  0.00  0.00    -0.393 OA
HETATM   47  H   UNK     0     -48.741 -10.481  19.480  0.00  0.00     0.210 HD
ENDBRANCH  23  46
ENDBRANCH  22  23
ENDBRANCH  14  22
ENDBRANCH  11  14
ENDBRANCH   9  10
BRANCH   9  48
HETATM   48  C   UNK     0     -49.204  -5.048  26.399  0.00  0.00     0.010 C 
HETATM   49  C   UNK     0     -48.500  -6.299  26.959  0.00  0.00     0.012 C 
HETATM   50  C   UNK     0     -48.325  -3.813  26.704  0.00  0.00     0.012 C 
ENDBRANCH   9  48
ENDBRANCH   3   9
TORSDOF 16
ENDMDL
