MODEL 1
REMARK VINA RESULT:      -8.1      0.000      0.000
REMARK  10 active torsions:
REMARK  status: ('A' for Active; 'I' for Inactive)
REMARK    1  A    between atoms: O_2  and  C_15 
REMARK    2  A    between atoms: O_2  and  C_18 
REMARK    3  A    between atoms: O_3  and  C_12 
REMARK    4  A    between atoms: O_4  and  C_13 
REMARK    5  A    between atoms: O_5  and  C_14 
REMARK    6  A    between atoms: O_6  and  C_17 
REMARK    7  A    between atoms: O_9  and  C_19 
REMARK    8  A    between atoms: O_10  and  C_23 
REMARK    9  A    between atoms: C_16  and  C_17 
REMARK   10  A    between atoms: C_25  and  C_27 
ROOT
HETATM    1  O   UNK     0     -47.536 -13.673  22.469  0.00  0.00    -0.340 OA
HETATM    2  C   UNK     0     -46.936 -14.773  19.884  0.00  0.00     0.183 C 
HETATM    3  C   UNK     0     -46.822 -13.278  20.183  0.00  0.00     0.205 C 
HETATM    4  C   UNK     0     -46.857 -15.606  21.163  0.00  0.00     0.189 C 
HETATM    5  C   UNK     0     -47.765 -12.867  21.315  0.00  0.00     0.299 C 
HETATM    6  C   UNK     0     -47.794 -15.051  22.228  0.00  0.00     0.253 C 
ENDROOT
BRANCH   5   7
HETATM    7  O   UNK     0     -47.512 -11.498  21.625  0.00  0.00    -0.315 OA
BRANCH   7   8
HETATM    8  C   UNK     0     -48.570 -10.643  21.527  0.00  0.00     0.111 A 
HETATM    9  C   UNK     0     -48.696  -9.795  20.426  0.00  0.00     0.137 A 
HETATM   10  C   UNK     0     -49.786  -8.926  20.342  0.00  0.00     0.129 A 
HETATM   11  O   UNK     0     -49.856  -8.116  19.237  0.00  0.00    -0.306 OA
HETATM   12  C   UNK     0     -50.742  -8.908  21.355  0.00  0.00     0.084 A 
HETATM   13  C   UNK     0     -50.930  -7.248  19.122  0.00  0.00     0.090 A 
HETATM   14  C   UNK     0     -51.910  -7.132  20.033  0.00  0.00     0.094 A 
HETATM   15  C   UNK     0     -51.879  -7.981  21.241  0.00  0.00     0.190 A 
HETATM   16  O   UNK     0     -52.754  -7.911  22.093  0.00  0.00    -0.287 OA
HETATM   17  C   UNK     0     -50.619  -9.755  22.458  0.00  0.00     0.085 A 
HETATM   18  C   UNK     0     -49.529 -10.622  22.541  0.00  0.00     0.077 A 
BRANCH   9  19
HETATM   19  O   UNK     0     -47.756  -9.818  19.438  0.00  0.00    -0.351 OA
HETATM   20  C   UNK     0     -46.613  -8.984  19.612  0.00  0.00     0.210 C 
ENDBRANCH   9  19
BRANCH  13  21
HETATM   21  C   UNK     0     -50.904  -6.419  17.900  0.00  0.00    -0.002 A 
HETATM   22  C   UNK     0     -49.685  -5.988  17.369  0.00  0.00     0.014 A 
HETATM   23  C   UNK     0     -49.661  -5.206  16.215  0.00  0.00     0.001 A 
HETATM   24  C   UNK     0     -50.854  -4.853  15.586  0.00  0.00     0.000 A 
HETATM   25  C   UNK     0     -52.073  -5.281  16.112  0.00  0.00     0.001 A 
HETATM   26  C   UNK     0     -52.098  -6.063  17.268  0.00  0.00     0.014 A 
ENDBRANCH  13  21
BRANCH  17  27
HETATM   27  O   UNK     0     -51.526  -9.774  23.474  0.00  0.00    -0.360 OA
HETATM   28  H   UNK     0     -51.312  -9.097  24.134  0.00  0.00     0.217 HD
ENDBRANCH  17  27
ENDBRANCH   7   8
ENDBRANCH   5   7
BRANCH   6  29
HETATM   29  C   UNK     0     -47.534 -15.687  23.555  0.00  0.00     0.172 C 
HETATM   30  O   UNK     0     -46.745 -15.270  24.390  0.00  0.00    -0.648 OA
BRANCH  29  31
HETATM   31  O   UNK     0     -48.291 -16.800  23.710  0.00  0.00    -0.774 OA
HETATM   32  H   UNK     0     -48.734 -17.061  22.875  0.00  0.00     0.167 HD
ENDBRANCH  29  31
ENDBRANCH   6  29
BRANCH   3  33
HETATM   33  O   UNK     0     -47.172 -12.533  19.018  0.00  0.00    -0.388 OA
HETATM   34  H   UNK     0     -47.934 -11.973  19.244  0.00  0.00     0.210 HD
ENDBRANCH   3  33
BRANCH   4  35
HETATM   35  O   UNK     0     -47.242 -16.949  20.870  0.00  0.00    -0.390 OA
HETATM   36  H   UNK     0     -48.207 -16.967  20.751  0.00  0.00     0.210 HD
ENDBRANCH   4  35
BRANCH   2  37
HETATM   37  O   UNK     0     -45.862 -15.170  19.030  0.00  0.00    -0.390 OA
HETATM   38  H   UNK     0     -45.183 -15.589  19.585  0.00  0.00     0.210 HD
ENDBRANCH   2  37
TORSDOF 10
ENDMDL
MODEL 2
REMARK VINA RESULT:      -7.6      2.549      9.484
REMARK  10 active torsions:
REMARK  status: ('A' for Active; 'I' for Inactive)
REMARK    1  A    between atoms: O_2  and  C_15 
REMARK    2  A    between atoms: O_2  and  C_18 
REMARK    3  A    between atoms: O_3  and  C_12 
REMARK    4  A    between atoms: O_4  and  C_13 
REMARK    5  A    between atoms: O_5  and  C_14 
REMARK    6  A    between atoms: O_6  and  C_17 
REMARK    7  A    between atoms: O_9  and  C_19 
REMARK    8  A    between atoms: O_10  and  C_23 
REMARK    9  A    between atoms: C_16  and  C_17 
REMARK   10  A    between atoms: C_25  and  C_27 
ROOT
HETATM    1  O   UNK     0     -48.147  -5.585  18.125  0.00  0.00    -0.340 OA
HETATM    2  C   UNK     0     -50.813  -6.327  17.350  0.00  0.00     0.183 C 
HETATM    3  C   UNK     0     -50.108  -6.948  18.556  0.00  0.00     0.205 C 
HETATM    4  C   UNK     0     -50.205  -4.973  16.985  0.00  0.00     0.189 C 
HETATM    5  C   UNK     0     -48.588  -6.915  18.387  0.00  0.00     0.299 C 
HETATM    6  C   UNK     0     -48.685  -5.064  16.915  0.00  0.00     0.253 C 
ENDROOT
BRANCH   5   7
HETATM    7  O   UNK     0     -48.000  -7.388  19.597  0.00  0.00    -0.315 OA
BRANCH   7   8
HETATM    8  C   UNK     0     -47.116  -8.422  19.484  0.00  0.00     0.111 A 
HETATM    9  C   UNK     0     -47.467  -9.704  19.910  0.00  0.00     0.137 A 
HETATM   10  C   UNK     0     -46.551 -10.750  19.787  0.00  0.00     0.129 A 
HETATM   11  O   UNK     0     -46.952 -11.987  20.224  0.00  0.00    -0.306 OA
HETATM   12  C   UNK     0     -45.292 -10.513  19.239  0.00  0.00     0.084 A 
HETATM   13  C   UNK     0     -46.067 -13.047  20.107  0.00  0.00     0.090 A 
HETATM   14  C   UNK     0     -44.826 -12.945  19.605  0.00  0.00     0.094 A 
HETATM   15  C   UNK     0     -44.347 -11.634  19.123  0.00  0.00     0.190 A 
HETATM   16  O   UNK     0     -43.225 -11.497  18.653  0.00  0.00    -0.287 OA
HETATM   17  C   UNK     0     -44.938  -9.232  18.811  0.00  0.00     0.085 A 
HETATM   18  C   UNK     0     -45.854  -8.187  18.936  0.00  0.00     0.077 A 
BRANCH   9  19
HETATM   19  O   UNK     0     -48.701  -9.928  20.445  0.00  0.00    -0.351 OA
HETATM   20  C   UNK     0     -48.847  -9.715  21.847  0.00  0.00     0.210 C 
ENDBRANCH   9  19
BRANCH  13  21
HETATM   21  C   UNK     0     -46.596 -14.329  20.613  0.00  0.00    -0.002 A 
HETATM   22  C   UNK     0     -47.186 -14.396  21.879  0.00  0.00     0.014 A 
HETATM   23  C   UNK     0     -47.687 -15.607  22.356  0.00  0.00     0.001 A 
HETATM   24  C   UNK     0     -47.601 -16.756  21.571  0.00  0.00     0.000 A 
HETATM   25  C   UNK     0     -47.012 -16.694  20.307  0.00  0.00     0.001 A 
HETATM   26  C   UNK     0     -46.511 -15.483  19.829  0.00  0.00     0.014 A 
ENDBRANCH  13  21
BRANCH  17  27
HETATM   27  O   UNK     0     -43.720  -8.949  18.270  0.00  0.00    -0.360 OA
HETATM   28  H   UNK     0     -43.807  -8.302  17.555  0.00  0.00     0.217 HD
ENDBRANCH  17  27
ENDBRANCH   7   8
ENDBRANCH   5   7
BRANCH   6  29
HETATM   29  C   UNK     0     -48.071  -3.705  16.822  0.00  0.00     0.172 C 
HETATM   30  O   UNK     0     -47.639  -3.064  17.769  0.00  0.00    -0.648 OA
BRANCH  29  31
HETATM   31  O   UNK     0     -48.060  -3.271  15.539  0.00  0.00    -0.774 OA
HETATM   32  H   UNK     0     -48.921  -3.420  15.093  0.00  0.00     0.167 HD
ENDBRANCH  29  31
ENDBRANCH   6  29
BRANCH   3  33
HETATM   33  O   UNK     0     -50.512  -8.310  18.692  0.00  0.00    -0.388 OA
HETATM   34  H   UNK     0     -50.486  -8.715  17.809  0.00  0.00     0.210 HD
ENDBRANCH   3  33
BRANCH   4  35
HETATM   35  O   UNK     0     -50.698  -4.568  15.709  0.00  0.00    -0.390 OA
HETATM   36  H   UNK     0     -51.480  -4.008  15.852  0.00  0.00     0.210 HD
ENDBRANCH   4  35
BRANCH   2  37
HETATM   37  O   UNK     0     -52.193  -6.123  17.658  0.00  0.00    -0.390 OA
HETATM   38  H   UNK     0     -52.679  -6.072  16.818  0.00  0.00     0.210 HD
ENDBRANCH   2  37
TORSDOF 10
ENDMDL
MODEL 3
REMARK VINA RESULT:      -7.5      6.472     10.854
REMARK  10 active torsions:
REMARK  status: ('A' for Active; 'I' for Inactive)
REMARK    1  A    between atoms: O_2  and  C_15 
REMARK    2  A    between atoms: O_2  and  C_18 
REMARK    3  A    between atoms: O_3  and  C_12 
REMARK    4  A    between atoms: O_4  and  C_13 
REMARK    5  A    between atoms: O_5  and  C_14 
REMARK    6  A    between atoms: O_6  and  C_17 
REMARK    7  A    between atoms: O_9  and  C_19 
REMARK    8  A    between atoms: O_10  and  C_23 
REMARK    9  A    between atoms: C_16  and  C_17 
REMARK   10  A    between atoms: C_25  and  C_27 
ROOT
HETATM    1  O   UNK     0     -51.647  -4.143  16.861  0.00  0.00    -0.340 OA
HETATM    2  C   UNK     0     -50.969  -6.417  18.482  0.00  0.00     0.183 C 
HETATM    3  C   UNK     0     -50.383  -5.027  18.734  0.00  0.00     0.205 C 
HETATM    4  C   UNK     0     -52.279  -6.336  17.698  0.00  0.00     0.189 C 
HETATM    5  C   UNK     0     -50.349  -4.199  17.449  0.00  0.00     0.299 C 
HETATM    6  C   UNK     0     -52.126  -5.428  16.484  0.00  0.00     0.253 C 
ENDROOT
BRANCH   5   7
HETATM    7  O   UNK     0     -49.916  -2.882  17.785  0.00  0.00    -0.315 OA
BRANCH   7   8
HETATM    8  C   UNK     0     -48.674  -2.518  17.351  0.00  0.00     0.111 A 
HETATM    9  C   UNK     0     -47.806  -1.821  18.193  0.00  0.00     0.137 A 
HETATM   10  C   UNK     0     -46.539  -1.456  17.733  0.00  0.00     0.129 A 
HETATM   11  O   UNK     0     -45.731  -0.773  18.605  0.00  0.00    -0.306 OA
HETATM   12  C   UNK     0     -46.146  -1.788  16.438  0.00  0.00     0.084 A 
HETATM   13  C   UNK     0     -44.464  -0.403  18.179  0.00  0.00     0.090 A 
HETATM   14  C   UNK     0     -43.973  -0.658  16.956  0.00  0.00     0.094 A 
HETATM   15  C   UNK     0     -44.806  -1.390  15.980  0.00  0.00     0.190 A 
HETATM   16  O   UNK     0     -44.396  -1.647  14.856  0.00  0.00    -0.287 OA
HETATM   17  C   UNK     0     -47.012  -2.486  15.594  0.00  0.00     0.085 A 
HETATM   18  C   UNK     0     -48.278  -2.849  16.055  0.00  0.00     0.077 A 
BRANCH   9  19
HETATM   19  O   UNK     0     -48.198  -1.499  19.459  0.00  0.00    -0.351 OA
HETATM   20  C   UNK     0     -48.908  -0.274  19.625  0.00  0.00     0.210 C 
ENDBRANCH   9  19
BRANCH  13  21
HETATM   21  C   UNK     0     -43.681   0.333  19.192  0.00  0.00    -0.002 A 
HETATM   22  C   UNK     0     -43.409  -0.253  20.432  0.00  0.00     0.014 A 
HETATM   23  C   UNK     0     -42.669   0.442  21.388  0.00  0.00     0.001 A 
HETATM   24  C   UNK     0     -42.198   1.724  21.109  0.00  0.00     0.000 A 
HETATM   25  C   UNK     0     -42.468   2.313  19.873  0.00  0.00     0.001 A 
HETATM   26  C   UNK     0     -43.208   1.618  18.916  0.00  0.00     0.014 A 
ENDBRANCH  13  21
BRANCH  17  27
HETATM   27  O   UNK     0     -46.675  -2.832  14.320  0.00  0.00    -0.360 OA
HETATM   28  H   UNK     0     -47.012  -3.715  14.107  0.00  0.00     0.217 HD
ENDBRANCH  17  27
ENDBRANCH   7   8
ENDBRANCH   5   7
BRANCH   6  29
HETATM   29  C   UNK     0     -53.454  -5.133  15.865  0.00  0.00     0.172 C 
HETATM   30  O   UNK     0     -54.520  -5.607  16.232  0.00  0.00    -0.648 OA
BRANCH  29  31
HETATM   31  O   UNK     0     -53.321  -4.266  14.833  0.00  0.00    -0.774 OA
HETATM   32  H   UNK     0     -52.982  -3.393  15.127  0.00  0.00     0.167 HD
ENDBRANCH  29  31
ENDBRANCH   6  29
BRANCH   3  33
HETATM   33  O   UNK     0     -49.047  -5.157  19.217  0.00  0.00    -0.388 OA
HETATM   34  H   UNK     0     -48.659  -5.947  18.803  0.00  0.00     0.210 HD
ENDBRANCH   3  33
BRANCH   4  35
HETATM   35  O   UNK     0     -52.637  -7.642  17.251  0.00  0.00    -0.390 OA
HETATM   36  H   UNK     0     -53.591  -7.646  17.063  0.00  0.00     0.210 HD
ENDBRANCH   4  35
BRANCH   2  37
HETATM   37  O   UNK     0     -51.240  -7.053  19.732  0.00  0.00    -0.390 OA
HETATM   38  H   UNK     0     -51.999  -6.600  20.135  0.00  0.00     0.210 HD
ENDBRANCH   2  37
TORSDOF 10
ENDMDL
MODEL 4
REMARK VINA RESULT:      -7.3      5.429     10.206
REMARK  10 active torsions:
REMARK  status: ('A' for Active; 'I' for Inactive)
REMARK    1  A    between atoms: O_2  and  C_15 
REMARK    2  A    between atoms: O_2  and  C_18 
REMARK    3  A    between atoms: O_3  and  C_12 
REMARK    4  A    between atoms: O_4  and  C_13 
REMARK    5  A    between atoms: O_5  and  C_14 
REMARK    6  A    between atoms: O_6  and  C_17 
REMARK    7  A    between atoms: O_9  and  C_19 
REMARK    8  A    between atoms: O_10  and  C_23 
REMARK    9  A    between atoms: C_16  and  C_17 
REMARK   10  A    between atoms: C_25  and  C_27 
ROOT
HETATM    1  O   UNK     0     -48.513  -2.764  16.486  0.00  0.00    -0.340 OA
HETATM    2  C   UNK     0     -48.140  -1.311  14.036  0.00  0.00     0.183 C 
HETATM    3  C   UNK     0     -49.515  -1.784  14.505  0.00  0.00     0.205 C 
HETATM    4  C   UNK     0     -47.156  -1.209  15.202  0.00  0.00     0.189 C 
HETATM    5  C   UNK     0     -49.400  -3.020  15.400  0.00  0.00     0.299 C 
HETATM    6  C   UNK     0     -47.190  -2.475  16.049  0.00  0.00     0.253 C 
ENDROOT
BRANCH   5   7
HETATM    7  O   UNK     0     -50.701  -3.324  15.901  0.00  0.00    -0.315 OA
BRANCH   7   8
HETATM    8  C   UNK     0     -50.785  -4.341  16.806  0.00  0.00     0.111 A 
HETATM    9  C   UNK     0     -51.452  -4.158  18.018  0.00  0.00     0.137 A 
HETATM   10  C   UNK     0     -51.529  -5.209  18.933  0.00  0.00     0.129 A 
HETATM   11  O   UNK     0     -52.197  -4.969  20.106  0.00  0.00    -0.306 OA
HETATM   12  C   UNK     0     -50.941  -6.437  18.634  0.00  0.00     0.084 A 
HETATM   13  C   UNK     0     -52.296  -5.997  21.031  0.00  0.00     0.090 A 
HETATM   14  C   UNK     0     -51.767  -7.219  20.864  0.00  0.00     0.094 A 
HETATM   15  C   UNK     0     -51.036  -7.527  19.617  0.00  0.00     0.190 A 
HETATM   16  O   UNK     0     -50.542  -8.629  19.422  0.00  0.00    -0.287 OA
HETATM   17  C   UNK     0     -50.273  -6.623  17.422  0.00  0.00     0.085 A 
HETATM   18  C   UNK     0     -50.196  -5.571  16.510  0.00  0.00     0.077 A 
BRANCH   9  19
HETATM   19  O   UNK     0     -52.025  -2.953  18.303  0.00  0.00    -0.351 OA
HETATM   20  C   UNK     0     -51.184  -1.956  18.878  0.00  0.00     0.210 C 
ENDBRANCH   9  19
BRANCH  13  21
HETATM   21  C   UNK     0     -53.028  -5.630  22.260  0.00  0.00    -0.002 A 
HETATM   22  C   UNK     0     -52.970  -6.456  23.386  0.00  0.00     0.014 A 
HETATM   23  C   UNK     0     -53.661  -6.109  24.547  0.00  0.00     0.001 A 
HETATM   24  C   UNK     0     -54.412  -4.935  24.587  0.00  0.00     0.000 A 
HETATM   25  C   UNK     0     -54.473  -4.107  23.465  0.00  0.00     0.001 A 
HETATM   26  C   UNK     0     -53.782  -4.454  22.304  0.00  0.00     0.014 A 
ENDBRANCH  13  21
BRANCH  17  27
HETATM   27  O   UNK     0     -49.681  -7.804  17.085  0.00  0.00    -0.360 OA
HETATM   28  H   UNK     0     -48.968  -7.656  16.446  0.00  0.00     0.217 HD
ENDBRANCH  17  27
ENDBRANCH   7   8
ENDBRANCH   5   7
BRANCH   6  29
HETATM   29  C   UNK     0     -46.439  -2.285  17.327  0.00  0.00     0.172 C 
HETATM   30  O   UNK     0     -46.915  -1.837  18.360  0.00  0.00    -0.648 OA
BRANCH  29  31
HETATM   31  O   UNK     0     -45.149  -2.674  17.187  0.00  0.00    -0.774 OA
HETATM   32  H   UNK     0     -45.000  -3.159  16.347  0.00  0.00     0.167 HD
ENDBRANCH  29  31
ENDBRANCH   6  29
BRANCH   3  33
HETATM   33  O   UNK     0     -50.311  -2.127  13.371  0.00  0.00    -0.388 OA
HETATM   34  H   UNK     0     -50.344  -3.097  13.316  0.00  0.00     0.210 HD
ENDBRANCH   3  33
BRANCH   4  35
HETATM   35  O   UNK     0     -45.837  -1.038  14.687  0.00  0.00    -0.390 OA
HETATM   36  H   UNK     0     -45.876  -1.135  13.720  0.00  0.00     0.210 HD
ENDBRANCH   4  35
BRANCH   2  37
HETATM   37  O   UNK     0     -48.259  -0.016  13.443  0.00  0.00    -0.390 OA
HETATM   38  H   UNK     0     -49.031   0.421  13.840  0.00  0.00     0.210 HD
ENDBRANCH   2  37
TORSDOF 10
ENDMDL
MODEL 5
REMARK VINA RESULT:      -7.3      2.545      5.245
REMARK  10 active torsions:
REMARK  status: ('A' for Active; 'I' for Inactive)
REMARK    1  A    between atoms: O_2  and  C_15 
REMARK    2  A    between atoms: O_2  and  C_18 
REMARK    3  A    between atoms: O_3  and  C_12 
REMARK    4  A    between atoms: O_4  and  C_13 
REMARK    5  A    between atoms: O_5  and  C_14 
REMARK    6  A    between atoms: O_6  and  C_17 
REMARK    7  A    between atoms: O_9  and  C_19 
REMARK    8  A    between atoms: O_10  and  C_23 
REMARK    9  A    between atoms: C_16  and  C_17 
REMARK   10  A    between atoms: C_25  and  C_27 
ROOT
HETATM    1  O   UNK     0     -48.344  -9.622  20.647  0.00  0.00    -0.340 OA
HETATM    2  C   UNK     0     -45.991 -10.639  19.349  0.00  0.00     0.183 C 
HETATM    3  C   UNK     0     -46.284  -9.142  19.458  0.00  0.00     0.205 C 
HETATM    4  C   UNK     0     -46.739 -11.433  20.420  0.00  0.00     0.189 C 
HETATM    5  C   UNK     0     -47.786  -8.879  19.565  0.00  0.00     0.299 C 
HETATM    6  C   UNK     0     -48.207 -11.027  20.466  0.00  0.00     0.253 C 
ENDROOT
BRANCH   5   7
HETATM    7  O   UNK     0     -47.973  -7.483  19.793  0.00  0.00    -0.315 OA
BRANCH   7   8
HETATM    8  C   UNK     0     -48.584  -6.778  18.798  0.00  0.00     0.111 A 
HETATM    9  C   UNK     0     -49.916  -7.029  18.465  0.00  0.00     0.137 A 
HETATM   10  C   UNK     0     -50.526  -6.298  17.444  0.00  0.00     0.129 A 
HETATM   11  O   UNK     0     -51.835  -6.590  17.163  0.00  0.00    -0.306 OA
HETATM   12  C   UNK     0     -49.804  -5.321  16.761  0.00  0.00     0.084 A 
HETATM   13  C   UNK     0     -52.470  -5.875  16.158  0.00  0.00     0.090 A 
HETATM   14  C   UNK     0     -51.882  -4.916  15.425  0.00  0.00     0.094 A 
HETATM   15  C   UNK     0     -50.471  -4.567  15.689  0.00  0.00     0.190 A 
HETATM   16  O   UNK     0     -49.898  -3.697  15.047  0.00  0.00    -0.287 OA
HETATM   17  C   UNK     0     -48.471  -5.067  17.091  0.00  0.00     0.085 A 
HETATM   18  C   UNK     0     -47.864  -5.799  18.111  0.00  0.00     0.077 A 
BRANCH   9  19
HETATM   19  O   UNK     0     -50.616  -7.987  19.139  0.00  0.00    -0.351 OA
HETATM   20  C   UNK     0     -51.289  -7.580  20.328  0.00  0.00     0.210 C 
ENDBRANCH   9  19
BRANCH  13  21
HETATM   21  C   UNK     0     -53.874  -6.273  15.933  0.00  0.00    -0.002 A 
HETATM   22  C   UNK     0     -54.870  -5.300  15.817  0.00  0.00     0.014 A 
HETATM   23  C   UNK     0     -56.196  -5.677  15.603  0.00  0.00     0.001 A 
HETATM   24  C   UNK     0     -56.531  -7.027  15.504  0.00  0.00     0.000 A 
HETATM   25  C   UNK     0     -55.539  -8.002  15.619  0.00  0.00     0.001 A 
HETATM   26  C   UNK     0     -54.213  -7.625  15.833  0.00  0.00     0.014 A 
ENDBRANCH  13  21
BRANCH  17  27
HETATM   27  O   UNK     0     -47.724  -4.123  16.452  0.00  0.00    -0.360 OA
HETATM   28  H   UNK     0     -46.997  -3.825  17.019  0.00  0.00     0.217 HD
ENDBRANCH  17  27
ENDBRANCH   7   8
ENDBRANCH   5   7
BRANCH   6  29
HETATM   29  C   UNK     0     -48.882 -11.596  21.671  0.00  0.00     0.172 C 
HETATM   30  O   UNK     0     -48.527 -12.606  22.263  0.00  0.00    -0.648 OA
BRANCH  29  31
HETATM   31  O   UNK     0     -49.952 -10.843  22.023  0.00  0.00    -0.774 OA
HETATM   32  H   UNK     0     -50.597 -11.350  22.560  0.00  0.00     0.167 HD
ENDBRANCH  29  31
ENDBRANCH   6  29
BRANCH   3  33
HETATM   33  O   UNK     0     -45.796  -8.478  18.293  0.00  0.00    -0.388 OA
HETATM   34  H   UNK     0     -45.824  -7.522  18.465  0.00  0.00     0.210 HD
ENDBRANCH   3  33
BRANCH   4  35
HETATM   35  O   UNK     0     -46.659 -12.824  20.110  0.00  0.00    -0.390 OA
HETATM   36  H   UNK     0     -46.810 -13.324  20.930  0.00  0.00     0.210 HD
ENDBRANCH   4  35
BRANCH   2  37
HETATM   37  O   UNK     0     -44.591 -10.864  19.529  0.00  0.00    -0.390 OA
HETATM   38  H   UNK     0     -44.470 -11.295  20.391  0.00  0.00     0.210 HD
ENDBRANCH   2  37
TORSDOF 10
ENDMDL
MODEL 6
REMARK VINA RESULT:      -7.2      6.280     10.435
REMARK  10 active torsions:
REMARK  status: ('A' for Active; 'I' for Inactive)
REMARK    1  A    between atoms: O_2  and  C_15 
REMARK    2  A    between atoms: O_2  and  C_18 
REMARK    3  A    between atoms: O_3  and  C_12 
REMARK    4  A    between atoms: O_4  and  C_13 
REMARK    5  A    between atoms: O_5  and  C_14 
REMARK    6  A    between atoms: O_6  and  C_17 
REMARK    7  A    between atoms: O_9  and  C_19 
REMARK    8  A    between atoms: O_10  and  C_23 
REMARK    9  A    between atoms: C_16  and  C_17 
REMARK   10  A    between atoms: C_25  and  C_27 
ROOT
HETATM    1  O   UNK     0     -49.425  -4.586  18.337  0.00  0.00    -0.340 OA
HETATM    2  C   UNK     0     -51.746  -5.617  16.994  0.00  0.00     0.183 C 
HETATM    3  C   UNK     0     -51.401  -4.127  17.007  0.00  0.00     0.205 C 
HETATM    4  C   UNK     0     -50.512  -6.477  17.266  0.00  0.00     0.189 C 
HETATM    5  C   UNK     0     -50.582  -3.759  18.244  0.00  0.00     0.299 C 
HETATM    6  C   UNK     0     -49.752  -5.963  18.482  0.00  0.00     0.253 C 
ENDROOT
BRANCH   5   7
HETATM    7  O   UNK     0     -50.190  -2.393  18.123  0.00  0.00    -0.315 OA
BRANCH   7   8
HETATM    8  C   UNK     0     -48.948  -2.157  17.610  0.00  0.00     0.111 A 
HETATM    9  C   UNK     0     -47.978  -1.507  18.373  0.00  0.00     0.137 A 
HETATM   10  C   UNK     0     -46.712  -1.273  17.833  0.00  0.00     0.129 A 
HETATM   11  O   UNK     0     -45.800  -0.631  18.631  0.00  0.00    -0.306 OA
HETATM   12  C   UNK     0     -46.421  -1.689  16.535  0.00  0.00     0.084 A 
HETATM   13  C   UNK     0     -44.533  -0.391  18.124  0.00  0.00     0.090 A 
HETATM   14  C   UNK     0     -44.134  -0.736  16.889  0.00  0.00     0.094 A 
HETATM   15  C   UNK     0     -45.080  -1.428  15.991  0.00  0.00     0.190 A 
HETATM   16  O   UNK     0     -44.757  -1.764  14.859  0.00  0.00    -0.287 OA
HETATM   17  C   UNK     0     -47.390  -2.340  15.768  0.00  0.00     0.085 A 
HETATM   18  C   UNK     0     -48.655  -2.571  16.310  0.00  0.00     0.077 A 
BRANCH   9  19
HETATM   19  O   UNK     0     -48.270  -1.103  19.644  0.00  0.00    -0.351 OA
HETATM   20  C   UNK     0     -48.855   0.188  19.793  0.00  0.00     0.210 C 
ENDBRANCH   9  19
BRANCH  13  21
HETATM   21  C   UNK     0     -43.634   0.312  19.062  0.00  0.00    -0.002 A 
HETATM   22  C   UNK     0     -43.184  -0.331  20.219  0.00  0.00     0.014 A 
HETATM   23  C   UNK     0     -42.334   0.332  21.104  0.00  0.00     0.001 A 
HETATM   24  C   UNK     0     -41.932   1.640  20.836  0.00  0.00     0.000 A 
HETATM   25  C   UNK     0     -42.379   2.286  19.683  0.00  0.00     0.001 A 
HETATM   26  C   UNK     0     -43.229   1.622  18.797  0.00  0.00     0.014 A 
ENDBRANCH  13  21
BRANCH  17  27
HETATM   27  O   UNK     0     -47.155  -2.764  14.495  0.00  0.00    -0.360 OA
HETATM   28  H   UNK     0     -47.982  -2.802  13.992  0.00  0.00     0.217 HD
ENDBRANCH  17  27
ENDBRANCH   7   8
ENDBRANCH   5   7
BRANCH   6  29
HETATM   29  C   UNK     0     -48.418  -6.624  18.599  0.00  0.00     0.172 C 
HETATM   30  O   UNK     0     -47.728  -6.639  19.609  0.00  0.00    -0.648 OA
BRANCH  29  31
HETATM   31  O   UNK     0     -48.066  -7.207  17.427  0.00  0.00    -0.774 OA
HETATM   32  H   UNK     0     -47.579  -8.047  17.566  0.00  0.00     0.167 HD
ENDBRANCH  29  31
ENDBRANCH   6  29
BRANCH   3  33
HETATM   33  O   UNK     0     -52.606  -3.362  17.024  0.00  0.00    -0.388 OA
HETATM   34  H   UNK     0     -53.351  -3.983  16.957  0.00  0.00     0.210 HD
ENDBRANCH   3  33
BRANCH   4  35
HETATM   35  O   UNK     0     -50.925  -7.819  17.518  0.00  0.00    -0.390 OA
HETATM   36  H   UNK     0     -51.149  -7.894  18.461  0.00  0.00     0.210 HD
ENDBRANCH   4  35
BRANCH   2  37
HETATM   37  O   UNK     0     -52.261  -5.975  15.710  0.00  0.00    -0.390 OA
HETATM   38  H   UNK     0     -51.641  -5.643  15.040  0.00  0.00     0.210 HD
ENDBRANCH   2  37
TORSDOF 10
ENDMDL
MODEL 7
REMARK VINA RESULT:      -7.2      6.442     10.529
REMARK  10 active torsions:
REMARK  status: ('A' for Active; 'I' for Inactive)
REMARK    1  A    between atoms: O_2  and  C_15 
REMARK    2  A    between atoms: O_2  and  C_18 
REMARK    3  A    between atoms: O_3  and  C_12 
REMARK    4  A    between atoms: O_4  and  C_13 
REMARK    5  A    between atoms: O_5  and  C_14 
REMARK    6  A    between atoms: O_6  and  C_17 
REMARK    7  A    between atoms: O_9  and  C_19 
REMARK    8  A    between atoms: O_10  and  C_23 
REMARK    9  A    between atoms: C_16  and  C_17 
REMARK   10  A    between atoms: C_25  and  C_27 
ROOT
HETATM    1  O   UNK     0     -46.678 -16.576  22.782  0.00  0.00    -0.340 OA
HETATM    2  C   UNK     0     -46.040 -17.943  20.337  0.00  0.00     0.183 C 
HETATM    3  C   UNK     0     -46.218 -18.680  21.665  0.00  0.00     0.205 C 
HETATM    4  C   UNK     0     -46.745 -16.586  20.353  0.00  0.00     0.189 C 
HETATM    5  C   UNK     0     -45.900 -17.769  22.851  0.00  0.00     0.299 C 
HETATM    6  C   UNK     0     -46.396 -15.811  21.617  0.00  0.00     0.253 C 
ENDROOT
BRANCH   5   7
HETATM    7  O   UNK     0     -46.212 -18.479  24.048  0.00  0.00    -0.315 OA
BRANCH   7   8
HETATM    8  C   UNK     0     -46.898 -17.791  25.007  0.00  0.00     0.111 A 
HETATM    9  C   UNK     0     -46.233 -17.272  26.118  0.00  0.00     0.137 A 
HETATM   10  C   UNK     0     -46.949 -16.570  27.090  0.00  0.00     0.129 A 
HETATM   11  O   UNK     0     -46.242 -16.085  28.159  0.00  0.00    -0.306 OA
HETATM   12  C   UNK     0     -48.323 -16.390  26.946  0.00  0.00     0.084 A 
HETATM   13  C   UNK     0     -46.925 -15.377  29.136  0.00  0.00     0.090 A 
HETATM   14  C   UNK     0     -48.247 -15.144  29.116  0.00  0.00     0.094 A 
HETATM   15  C   UNK     0     -49.053 -15.648  27.986  0.00  0.00     0.190 A 
HETATM   16  O   UNK     0     -50.260 -15.454  27.926  0.00  0.00    -0.287 OA
HETATM   17  C   UNK     0     -48.992 -16.908  25.835  0.00  0.00     0.085 A 
HETATM   18  C   UNK     0     -48.274 -17.609  24.866  0.00  0.00     0.077 A 
BRANCH   9  19
HETATM   19  O   UNK     0     -44.887 -17.452  26.251  0.00  0.00    -0.351 OA
HETATM   20  C   UNK     0     -44.043 -16.426  25.735  0.00  0.00     0.210 C 
ENDBRANCH   9  19
BRANCH  13  21
HETATM   21  C   UNK     0     -46.070 -14.906  30.245  0.00  0.00    -0.002 A 
HETATM   22  C   UNK     0     -44.719 -14.630  30.021  0.00  0.00     0.014 A 
HETATM   23  C   UNK     0     -43.912 -14.184  31.067  0.00  0.00     0.001 A 
HETATM   24  C   UNK     0     -44.453 -14.012  32.341  0.00  0.00     0.000 A 
HETATM   25  C   UNK     0     -45.801 -14.287  32.569  0.00  0.00     0.001 A 
HETATM   26  C   UNK     0     -46.609 -14.733  31.522  0.00  0.00     0.014 A 
ENDBRANCH  13  21
BRANCH  17  27
HETATM   27  O   UNK     0     -50.334 -16.759  25.651  0.00  0.00    -0.360 OA
HETATM   28  H   UNK     0     -50.825 -17.230  26.340  0.00  0.00     0.217 HD
ENDBRANCH  17  27
ENDBRANCH   7   8
ENDBRANCH   5   7
BRANCH   6  29
HETATM   29  C   UNK     0     -47.275 -14.612  21.770  0.00  0.00     0.172 C 
HETATM   30  O   UNK     0     -47.553 -13.827  20.875  0.00  0.00    -0.648 OA
BRANCH  29  31
HETATM   31  O   UNK     0     -47.723 -14.505  23.044  0.00  0.00    -0.774 OA
HETATM   32  H   UNK     0     -48.403 -15.182  23.252  0.00  0.00     0.167 HD
ENDBRANCH  29  31
ENDBRANCH   6  29
BRANCH   3  33
HETATM   33  O   UNK     0     -45.332 -19.797  21.709  0.00  0.00    -0.388 OA
HETATM   34  H   UNK     0     -45.588 -20.347  22.469  0.00  0.00     0.210 HD
ENDBRANCH   3  33
BRANCH   4  35
HETATM   35  O   UNK     0     -46.325 -15.828  19.220  0.00  0.00    -0.390 OA
HETATM   36  H   UNK     0     -46.803 -16.160  18.441  0.00  0.00     0.210 HD
ENDBRANCH   4  35
BRANCH   2  37
HETATM   37  O   UNK     0     -46.603 -18.722  19.281  0.00  0.00    -0.390 OA
HETATM   38  H   UNK     0     -45.955 -18.753  18.558  0.00  0.00     0.210 HD
ENDBRANCH   2  37
TORSDOF 10
ENDMDL
MODEL 8
REMARK VINA RESULT:      -7.2      4.790     10.144
REMARK  10 active torsions:
REMARK  status: ('A' for Active; 'I' for Inactive)
REMARK    1  A    between atoms: O_2  and  C_15 
REMARK    2  A    between atoms: O_2  and  C_18 
REMARK    3  A    between atoms: O_3  and  C_12 
REMARK    4  A    between atoms: O_4  and  C_13 
REMARK    5  A    between atoms: O_5  and  C_14 
REMARK    6  A    between atoms: O_6  and  C_17 
REMARK    7  A    between atoms: O_9  and  C_19 
REMARK    8  A    between atoms: O_10  and  C_23 
REMARK    9  A    between atoms: C_16  and  C_17 
REMARK   10  A    between atoms: C_25  and  C_27 
ROOT
HETATM    1  O   UNK     0     -47.126  -2.632  17.099  0.00  0.00    -0.340 OA
HETATM    2  C   UNK     0     -47.166  -1.297  14.555  0.00  0.00     0.183 C 
HETATM    3  C   UNK     0     -48.442  -1.776  15.248  0.00  0.00     0.205 C 
HETATM    4  C   UNK     0     -46.023  -1.115  15.554  0.00  0.00     0.189 C 
HETATM    5  C   UNK     0     -48.158  -2.961  16.172  0.00  0.00     0.299 C 
HETATM    6  C   UNK     0     -45.893  -2.337  16.455  0.00  0.00     0.253 C 
ENDROOT
BRANCH   5   7
HETATM    7  O   UNK     0     -49.360  -3.268  16.877  0.00  0.00    -0.315 OA
BRANCH   7   8
HETATM    8  C   UNK     0     -49.347  -4.395  17.646  0.00  0.00     0.111 A 
HETATM    9  C   UNK     0     -49.965  -4.406  18.897  0.00  0.00     0.137 A 
HETATM   10  C   UNK     0     -49.944  -5.567  19.671  0.00  0.00     0.129 A 
HETATM   11  O   UNK     0     -50.567  -5.518  20.892  0.00  0.00    -0.306 OA
HETATM   12  C   UNK     0     -49.307  -6.711  19.193  0.00  0.00     0.084 A 
HETATM   13  C   UNK     0     -50.568  -6.658  21.679  0.00  0.00     0.090 A 
HETATM   14  C   UNK     0     -49.983  -7.817  21.334  0.00  0.00     0.094 A 
HETATM   15  C   UNK     0     -49.298  -7.920  20.030  0.00  0.00     0.190 A 
HETATM   16  O   UNK     0     -48.757  -8.958  19.674  0.00  0.00    -0.287 OA
HETATM   17  C   UNK     0     -48.688  -6.703  17.941  0.00  0.00     0.085 A 
HETATM   18  C   UNK     0     -48.710  -5.541  17.170  0.00  0.00     0.077 A 
BRANCH   9  19
HETATM   19  O   UNK     0     -50.587  -3.282  19.359  0.00  0.00    -0.351 OA
HETATM   20  C   UNK     0     -51.956  -3.108  19.000  0.00  0.00     0.210 C 
ENDBRANCH   9  19
BRANCH  13  21
HETATM   21  C   UNK     0     -51.259  -6.493  22.974  0.00  0.00    -0.002 A 
HETATM   22  C   UNK     0     -52.646  -6.645  23.054  0.00  0.00     0.014 A 
HETATM   23  C   UNK     0     -53.299  -6.491  24.277  0.00  0.00     0.001 A 
HETATM   24  C   UNK     0     -52.568  -6.183  25.424  0.00  0.00     0.000 A 
HETATM   25  C   UNK     0     -51.183  -6.029  25.348  0.00  0.00     0.001 A 
HETATM   26  C   UNK     0     -50.530  -6.185  24.125  0.00  0.00     0.014 A 
ENDBRANCH  13  21
BRANCH  17  27
HETATM   27  O   UNK     0     -48.052  -7.795  17.430  0.00  0.00    -0.360 OA
HETATM   28  H   UNK     0     -48.632  -8.270  16.817  0.00  0.00     0.217 HD
ENDBRANCH  17  27
ENDBRANCH   7   8
ENDBRANCH   5   7
BRANCH   6  29
HETATM   29  C   UNK     0     -44.965  -2.066  17.595  0.00  0.00     0.172 C 
HETATM   30  O   UNK     0     -45.311  -1.698  18.709  0.00  0.00    -0.648 OA
BRANCH  29  31
HETATM   31  O   UNK     0     -43.679  -2.278  17.227  0.00  0.00    -0.774 OA
HETATM   32  H   UNK     0     -43.511  -3.219  17.004  0.00  0.00     0.167 HD
ENDBRANCH  29  31
ENDBRANCH   6  29
BRANCH   3  33
HETATM   33  O   UNK     0     -49.387  -2.193  14.265  0.00  0.00    -0.388 OA
HETATM   34  H   UNK     0     -48.890  -2.558  13.513  0.00  0.00     0.210 HD
ENDBRANCH   3  33
BRANCH   4  35
HETATM   35  O   UNK     0     -44.801  -0.941  14.839  0.00  0.00    -0.390 OA
HETATM   36  H   UNK     0     -44.286  -0.248  15.285  0.00  0.00     0.210 HD
ENDBRANCH   4  35
BRANCH   2  37
HETATM   37  O   UNK     0     -47.410  -0.037  13.928  0.00  0.00    -0.390 OA
HETATM   38  H   UNK     0     -48.218  -0.124  13.395  0.00  0.00     0.210 HD
ENDBRANCH   2  37
TORSDOF 10
ENDMDL
MODEL 9
REMARK VINA RESULT:      -7.1      6.801     10.783
REMARK  10 active torsions:
REMARK  status: ('A' for Active; 'I' for Inactive)
REMARK    1  A    between atoms: O_2  and  C_15 
REMARK    2  A    between atoms: O_2  and  C_18 
REMARK    3  A    between atoms: O_3  and  C_12 
REMARK    4  A    between atoms: O_4  and  C_13 
REMARK    5  A    between atoms: O_5  and  C_14 
REMARK    6  A    between atoms: O_6  and  C_17 
REMARK    7  A    between atoms: O_9  and  C_19 
REMARK    8  A    between atoms: O_10  and  C_23 
REMARK    9  A    between atoms: C_16  and  C_17 
REMARK   10  A    between atoms: C_25  and  C_27 
ROOT
HETATM    1  O   UNK     0     -46.516  -0.419  17.365  0.00  0.00    -0.340 OA
HETATM    2  C   UNK     0     -45.070  -2.096  15.534  0.00  0.00     0.183 C 
HETATM    3  C   UNK     0     -46.522  -1.683  15.294  0.00  0.00     0.205 C 
HETATM    4  C   UNK     0     -44.364  -1.128  16.484  0.00  0.00     0.189 C 
HETATM    5  C   UNK     0     -47.240  -1.389  16.612  0.00  0.00     0.299 C 
HETATM    6  C   UNK     0     -45.215  -0.870  17.722  0.00  0.00     0.253 C 
ENDROOT
BRANCH   5   7
HETATM    7  O   UNK     0     -48.539  -0.889  16.303  0.00  0.00    -0.315 OA
BRANCH   7   8
HETATM    8  C   UNK     0     -49.559  -1.795  16.301  0.00  0.00     0.111 A 
HETATM    9  C   UNK     0     -49.728  -2.674  17.371  0.00  0.00     0.137 A 
HETATM   10  C   UNK     0     -50.777  -3.596  17.354  0.00  0.00     0.129 A 
HETATM   11  O   UNK     0     -50.892  -4.433  18.433  0.00  0.00    -0.306 OA
HETATM   12  C   UNK     0     -51.650  -3.634  16.269  0.00  0.00     0.084 A 
HETATM   13  C   UNK     0     -51.928  -5.354  18.446  0.00  0.00     0.090 A 
HETATM   14  C   UNK     0     -52.828  -5.494  17.460  0.00  0.00     0.094 A 
HETATM   15  C   UNK     0     -52.746  -4.616  16.275  0.00  0.00     0.190 A 
HETATM   16  O   UNK     0     -53.548  -4.707  15.356  0.00  0.00    -0.287 OA
HETATM   17  C   UNK     0     -51.484  -2.756  15.196  0.00  0.00     0.085 A 
HETATM   18  C   UNK     0     -50.435  -1.837  15.216  0.00  0.00     0.077 A 
BRANCH   9  19
HETATM   19  O   UNK     0     -48.868  -2.630  18.430  0.00  0.00    -0.351 OA
HETATM   20  C   UNK     0     -49.245  -1.812  19.535  0.00  0.00     0.210 C 
ENDBRANCH   9  19
BRANCH  13  21
HETATM   21  C   UNK     0     -51.955  -6.210  19.650  0.00  0.00    -0.002 A 
HETATM   22  C   UNK     0     -52.516  -5.733  20.838  0.00  0.00     0.014 A 
HETATM   23  C   UNK     0     -52.543  -6.542  21.974  0.00  0.00     0.001 A 
HETATM   24  C   UNK     0     -52.009  -7.829  21.927  0.00  0.00     0.000 A 
HETATM   25  C   UNK     0     -51.447  -8.309  20.743  0.00  0.00     0.001 A 
HETATM   26  C   UNK     0     -51.421  -7.500  19.606  0.00  0.00     0.014 A 
ENDBRANCH  13  21
BRANCH  17  27
HETATM   27  O   UNK     0     -52.311  -2.756  14.113  0.00  0.00    -0.360 OA
HETATM   28  H   UNK     0     -52.844  -3.565  14.092  0.00  0.00     0.217 HD
ENDBRANCH  17  27
ENDBRANCH   7   8
ENDBRANCH   5   7
BRANCH   6  29
HETATM   29  C   UNK     0     -44.664   0.265  18.523  0.00  0.00     0.172 C 
HETATM   30  O   UNK     0     -43.606   0.243  19.136  0.00  0.00    -0.648 OA
BRANCH  29  31
HETATM   31  O   UNK     0     -45.501   1.330  18.484  0.00  0.00    -0.774 OA
HETATM   32  H   UNK     0     -45.013   2.181  18.485  0.00  0.00     0.167 HD
ENDBRANCH  29  31
ENDBRANCH   6  29
BRANCH   3  33
HETATM   33  O   UNK     0     -47.213  -2.744  14.636  0.00  0.00    -0.388 OA
HETATM   34  H   UNK     0     -48.151  -2.686  14.887  0.00  0.00     0.210 HD
ENDBRANCH   3  33
BRANCH   4  35
HETATM   35  O   UNK     0     -43.122  -1.697  16.893  0.00  0.00    -0.390 OA
HETATM   36  H   UNK     0     -43.086  -1.677  17.865  0.00  0.00     0.210 HD
ENDBRANCH   4  35
BRANCH   2  37
HETATM   37  O   UNK     0     -44.362  -2.093  14.293  0.00  0.00    -0.390 OA
HETATM   38  H   UNK     0     -44.418  -1.195  13.924  0.00  0.00     0.210 HD
ENDBRANCH   2  37
TORSDOF 10
ENDMDL
MODEL 10
REMARK VINA RESULT:      -7.0      4.349      8.998
REMARK  10 active torsions:
REMARK  status: ('A' for Active; 'I' for Inactive)
REMARK    1  A    between atoms: O_2  and  C_15 
REMARK    2  A    between atoms: O_2  and  C_18 
REMARK    3  A    between atoms: O_3  and  C_12 
REMARK    4  A    between atoms: O_4  and  C_13 
REMARK    5  A    between atoms: O_5  and  C_14 
REMARK    6  A    between atoms: O_6  and  C_17 
REMARK    7  A    between atoms: O_9  and  C_19 
REMARK    8  A    between atoms: O_10  and  C_23 
REMARK    9  A    between atoms: C_16  and  C_17 
REMARK   10  A    between atoms: C_25  and  C_27 
ROOT
HETATM    1  O   UNK     0     -44.557 -12.734  19.864  0.00  0.00    -0.340 OA
HETATM    2  C   UNK     0     -44.204  -9.889  19.667  0.00  0.00     0.183 C 
HETATM    3  C   UNK     0     -45.586 -10.540  19.727  0.00  0.00     0.205 C 
HETATM    4  C   UNK     0     -43.130 -10.806  20.252  0.00  0.00     0.189 C 
HETATM    5  C   UNK     0     -45.549 -11.969  19.182  0.00  0.00     0.299 C 
HETATM    6  C   UNK     0     -43.247 -12.212  19.678  0.00  0.00     0.253 C 
ENDROOT
BRANCH   5   7
HETATM    7  O   UNK     0     -46.834 -12.553  19.389  0.00  0.00    -0.315 OA
BRANCH   7   8
HETATM    8  C   UNK     0     -46.869 -13.721  20.093  0.00  0.00     0.111 A 
HETATM    9  C   UNK     0     -47.260 -13.730  21.432  0.00  0.00     0.137 A 
HETATM   10  C   UNK     0     -47.291 -14.934  22.138  0.00  0.00     0.129 A 
HETATM   11  O   UNK     0     -47.684 -14.880  23.450  0.00  0.00    -0.306 OA
HETATM   12  C   UNK     0     -46.932 -16.122  21.504  0.00  0.00     0.084 A 
HETATM   13  C   UNK     0     -47.731 -16.061  24.175  0.00  0.00     0.090 A 
HETATM   14  C   UNK     0     -47.403 -17.266  23.680  0.00  0.00     0.094 A 
HETATM   15  C   UNK     0     -46.972 -17.376  22.272  0.00  0.00     0.190 A 
HETATM   16  O   UNK     0     -46.668 -18.454  21.779  0.00  0.00    -0.287 OA
HETATM   17  C   UNK     0     -46.540 -16.116  20.163  0.00  0.00     0.085 A 
HETATM   18  C   UNK     0     -46.509 -14.912  19.461  0.00  0.00     0.077 A 
BRANCH   9  19
HETATM   19  O   UNK     0     -47.611 -12.563  22.046  0.00  0.00    -0.351 OA
HETATM   20  C   UNK     0     -48.838 -11.962  21.639  0.00  0.00     0.210 C 
ENDBRANCH   9  19
BRANCH  13  21
HETATM   21  C   UNK     0     -48.159 -15.889  25.577  0.00  0.00    -0.002 A 
HETATM   22  C   UNK     0     -49.302 -16.541  26.048  0.00  0.00     0.014 A 
HETATM   23  C   UNK     0     -49.706 -16.379  27.373  0.00  0.00     0.001 A 
HETATM   24  C   UNK     0     -48.969 -15.564  28.233  0.00  0.00     0.000 A 
HETATM   25  C   UNK     0     -47.828 -14.911  27.767  0.00  0.00     0.001 A 
HETATM   26  C   UNK     0     -47.423 -15.073  26.441  0.00  0.00     0.014 A 
ENDBRANCH  13  21
BRANCH  17  27
HETATM   27  O   UNK     0     -46.178 -17.251  19.500  0.00  0.00    -0.360 OA
HETATM   28  H   UNK     0     -46.954 -17.674  19.104  0.00  0.00     0.217 HD
ENDBRANCH  17  27
ENDBRANCH   7   8
ENDBRANCH   5   7
BRANCH   6  29
HETATM   29  C   UNK     0     -42.384 -13.172  20.430  0.00  0.00     0.172 C 
HETATM   30  O   UNK     0     -41.274 -12.917  20.875  0.00  0.00    -0.648 OA
BRANCH  29  31
HETATM   31  O   UNK     0     -42.995 -14.375  20.550  0.00  0.00    -0.774 OA
HETATM   32  H   UNK     0     -43.775 -14.332  21.143  0.00  0.00     0.167 HD
ENDBRANCH  29  31
ENDBRANCH   6  29
BRANCH   3  33
HETATM   33  O   UNK     0     -46.500  -9.784  18.934  0.00  0.00    -0.388 OA
HETATM   34  H   UNK     0     -46.638 -10.267  18.102  0.00  0.00     0.210 HD
ENDBRANCH   3  33
BRANCH   4  35
HETATM   35  O   UNK     0     -41.842 -10.284  19.926  0.00  0.00    -0.390 OA
HETATM   36  H   UNK     0     -41.245 -11.034  19.765  0.00  0.00     0.210 HD
ENDBRANCH   4  35
BRANCH   2  37
HETATM   37  O   UNK     0     -44.215  -8.679  20.426  0.00  0.00    -0.390 OA
HETATM   38  H   UNK     0     -43.600  -8.792  21.170  0.00  0.00     0.210 HD
ENDBRANCH   2  37
TORSDOF 10
ENDMDL
