MODEL 1
REMARK VINA RESULT:      -6.0      0.000      0.000
REMARK  7 active torsions:
REMARK  status: ('A' for Active; 'I' for Inactive)
REMARK    1  A    between atoms: O_2  and  C_10 
REMARK    2  A    between atoms: O_3  and  C_11 
REMARK    3  A    between atoms: O_4  and  C_14 
REMARK    4  A    between atoms: O_6  and  N_9 
REMARK    5  A    between atoms: N_7  and  C_12 
REMARK    6  A    between atoms: N_9  and  C_18 
REMARK    7  A    between atoms: C_13  and  C_14 
ROOT
HETATM    1  O   UNK     0     -46.186  -1.684  18.270  0.00  0.00    -0.353 OA
HETATM    2  C   UNK     0     -44.682  -1.310  16.478  0.00  0.00     0.198 C 
HETATM    3  C   UNK     0     -43.977  -0.987  17.778  0.00  0.00     0.182 C 
HETATM    4  C   UNK     0     -45.850  -2.155  16.954  0.00  0.00     0.264 C 
HETATM    5  C   UNK     0     -45.144  -0.801  18.737  0.00  0.00     0.179 C 
ENDROOT
BRANCH   4   6
HETATM    6  N   UNK     0     -47.001  -2.029  16.106  0.00  0.00    -0.278 N 
HETATM    7  C   UNK     0     -47.125  -0.895  15.317  0.00  0.00     0.102 A 
HETATM    8  C   UNK     0     -48.157  -0.696  14.500  0.00  0.00     0.070 A 
HETATM    9  C   UNK     0     -49.192  -1.762  14.471  0.00  0.00     0.153 A 
HETATM   10  N   UNK     0     -49.090  -2.835  15.209  0.00  0.00    -0.174 NA
HETATM   11  C   UNK     0     -48.008  -3.026  16.051  0.00  0.00     0.352 A 
HETATM   12  O   UNK     0     -47.927  -4.045  16.737  0.00  0.00    -0.244 OA
BRANCH   9  13
HETATM   13  N   UNK     0     -50.276  -1.593  13.641  0.00  0.00    -0.251 N 
HETATM   14  H   UNK     0     -50.953  -2.299  13.376  0.00  0.00     0.196 HD
BRANCH  13  15
HETATM   15  O   UNK     0     -50.463  -0.301  13.244  0.00  0.00    -0.288 OA
HETATM   16  H   UNK     0     -50.897   0.088  14.022  0.00  0.00     0.244 HD
ENDBRANCH  13  15
ENDBRANCH   9  13
ENDBRANCH   4   6
BRANCH   5  17
HETATM   17  C   UNK     0     -45.696   0.620  18.744  0.00  0.00     0.198 C 
BRANCH  17  18
HETATM   18  O   UNK     0     -44.644   1.515  18.429  0.00  0.00    -0.398 OA
HETATM   19  H   UNK     0     -44.921   2.398  18.729  0.00  0.00     0.209 HD
ENDBRANCH  17  18
ENDBRANCH   5  17
BRANCH   2  20
HETATM   20  O   UNK     0     -43.846  -1.999  15.570  0.00  0.00    -0.388 OA
HETATM   21  H   UNK     0     -43.915  -1.551  14.711  0.00  0.00     0.210 HD
ENDBRANCH   2  20
BRANCH   3  22
HETATM   22  O   UNK     0     -43.219  -2.113  18.222  0.00  0.00    -0.390 OA
HETATM   23  H   UNK     0     -43.095  -2.052  19.183  0.00  0.00     0.210 HD
ENDBRANCH   3  22
TORSDOF 7
ENDMDL
MODEL 2
REMARK VINA RESULT:      -6.0      2.171      2.596
REMARK  7 active torsions:
REMARK  status: ('A' for Active; 'I' for Inactive)
REMARK    1  A    between atoms: O_2  and  C_10 
REMARK    2  A    between atoms: O_3  and  C_11 
REMARK    3  A    between atoms: O_4  and  C_14 
REMARK    4  A    between atoms: O_6  and  N_9 
REMARK    5  A    between atoms: N_7  and  C_12 
REMARK    6  A    between atoms: N_9  and  C_18 
REMARK    7  A    between atoms: C_13  and  C_14 
ROOT
HETATM    1  O   UNK     0     -46.584  -2.262  17.804  0.00  0.00    -0.353 OA
HETATM    2  C   UNK     0     -46.099  -2.137  15.488  0.00  0.00     0.198 C 
HETATM    3  C   UNK     0     -45.107  -1.273  16.238  0.00  0.00     0.182 C 
HETATM    4  C   UNK     0     -46.635  -3.031  16.591  0.00  0.00     0.264 C 
HETATM    5  C   UNK     0     -45.811  -1.065  17.572  0.00  0.00     0.179 C 
ENDROOT
BRANCH   4   6
HETATM    6  N   UNK     0     -47.990  -3.441  16.356  0.00  0.00    -0.278 N 
HETATM    7  C   UNK     0     -48.764  -2.704  15.472  0.00  0.00     0.102 A 
HETATM    8  C   UNK     0     -50.028  -3.012  15.193  0.00  0.00     0.070 A 
HETATM    9  C   UNK     0     -50.586  -4.203  15.885  0.00  0.00     0.153 A 
HETATM   10  N   UNK     0     -49.871  -4.908  16.720  0.00  0.00    -0.174 NA
HETATM   11  C   UNK     0     -48.556  -4.573  16.996  0.00  0.00     0.352 A 
HETATM   12  O   UNK     0     -47.895  -5.250  17.785  0.00  0.00    -0.244 OA
BRANCH   9  13
HETATM   13  N   UNK     0     -51.891  -4.554  15.625  0.00  0.00    -0.251 N 
HETATM   14  H   UNK     0     -52.655  -3.928  15.401  0.00  0.00     0.196 HD
BRANCH  13  15
HETATM   15  O   UNK     0     -52.094  -5.903  15.583  0.00  0.00    -0.288 OA
HETATM   16  H   UNK     0     -52.869  -5.972  15.001  0.00  0.00     0.244 HD
ENDBRANCH  13  15
ENDBRANCH   9  13
ENDBRANCH   4   6
BRANCH   5  17
HETATM   17  C   UNK     0     -46.765   0.123  17.570  0.00  0.00     0.198 C 
BRANCH  17  18
HETATM   18  O   UNK     0     -46.132   1.214  18.213  0.00  0.00    -0.398 OA
HETATM   19  H   UNK     0     -46.526   1.291  19.099  0.00  0.00     0.209 HD
ENDBRANCH  17  18
ENDBRANCH   5  17
BRANCH   2  20
HETATM   20  O   UNK     0     -45.490  -2.868  14.443  0.00  0.00    -0.388 OA
HETATM   21  H   UNK     0     -44.718  -3.325  14.817  0.00  0.00     0.210 HD
ENDBRANCH   2  20
BRANCH   3  22
HETATM   22  O   UNK     0     -43.904  -2.001  16.485  0.00  0.00    -0.390 OA
HETATM   23  H   UNK     0     -43.973  -2.877  16.072  0.00  0.00     0.210 HD
ENDBRANCH   3  22
TORSDOF 7
ENDMDL
MODEL 3
REMARK VINA RESULT:      -6.0      3.079      5.137
REMARK  7 active torsions:
REMARK  status: ('A' for Active; 'I' for Inactive)
REMARK    1  A    between atoms: O_2  and  C_10 
REMARK    2  A    between atoms: O_3  and  C_11 
REMARK    3  A    between atoms: O_4  and  C_14 
REMARK    4  A    between atoms: O_6  and  N_9 
REMARK    5  A    between atoms: N_7  and  C_12 
REMARK    6  A    between atoms: N_9  and  C_18 
REMARK    7  A    between atoms: C_13  and  C_14 
ROOT
HETATM    1  O   UNK     0     -49.550  -1.509  16.260  0.00  0.00    -0.353 OA
HETATM    2  C   UNK     0     -47.719  -2.509  15.138  0.00  0.00     0.198 C 
HETATM    3  C   UNK     0     -47.819  -1.061  14.707  0.00  0.00     0.182 C 
HETATM    4  C   UNK     0     -48.536  -2.514  16.418  0.00  0.00     0.264 C 
HETATM    5  C   UNK     0     -49.249  -0.711  15.095  0.00  0.00     0.179 C 
ENDROOT
BRANCH   4   6
HETATM    6  N   UNK     0     -49.167  -3.780  16.661  0.00  0.00    -0.278 N 
HETATM    7  C   UNK     0     -50.466  -3.972  16.214  0.00  0.00     0.102 A 
HETATM    8  C   UNK     0     -51.127  -5.113  16.394  0.00  0.00     0.070 A 
HETATM    9  C   UNK     0     -50.399  -6.193  17.110  0.00  0.00     0.153 A 
HETATM   10  N   UNK     0     -49.176  -6.027  17.538  0.00  0.00    -0.174 NA
HETATM   11  C   UNK     0     -48.504  -4.834  17.339  0.00  0.00     0.352 A 
HETATM   12  O   UNK     0     -47.349  -4.696  17.747  0.00  0.00    -0.244 OA
BRANCH   9  13
HETATM   13  N   UNK     0     -51.049  -7.388  17.319  0.00  0.00    -0.251 N 
HETATM   14  H   UNK     0     -52.049  -7.547  17.300  0.00  0.00     0.196 HD
BRANCH  13  15
HETATM   15  O   UNK     0     -50.203  -8.449  17.464  0.00  0.00    -0.288 OA
HETATM   16  H   UNK     0     -49.397  -8.125  17.029  0.00  0.00     0.244 HD
ENDBRANCH  13  15
ENDBRANCH   9  13
ENDBRANCH   4   6
BRANCH   5  17
HETATM   17  C   UNK     0     -50.267  -1.049  14.013  0.00  0.00     0.198 C 
BRANCH  17  18
HETATM   18  O   UNK     0     -50.324   0.027  13.094  0.00  0.00    -0.398 OA
HETATM   19  H   UNK     0     -50.280  -0.357  12.201  0.00  0.00     0.209 HD
ENDBRANCH  17  18
ENDBRANCH   5  17
BRANCH   2  20
HETATM   20  O   UNK     0     -46.382  -2.916  15.345  0.00  0.00    -0.388 OA
HETATM   21  H   UNK     0     -46.308  -3.839  15.049  0.00  0.00     0.210 HD
ENDBRANCH   2  20
BRANCH   3  22
HETATM   22  O   UNK     0     -46.941  -0.250  15.488  0.00  0.00    -0.390 OA
HETATM   23  H   UNK     0     -47.468   0.296  16.094  0.00  0.00     0.210 HD
ENDBRANCH   3  22
TORSDOF 7
ENDMDL
MODEL 4
REMARK VINA RESULT:      -5.9      2.258      6.130
REMARK  7 active torsions:
REMARK  status: ('A' for Active; 'I' for Inactive)
REMARK    1  A    between atoms: O_2  and  C_10 
REMARK    2  A    between atoms: O_3  and  C_11 
REMARK    3  A    between atoms: O_4  and  C_14 
REMARK    4  A    between atoms: O_6  and  N_9 
REMARK    5  A    between atoms: N_7  and  C_12 
REMARK    6  A    between atoms: N_9  and  C_18 
REMARK    7  A    between atoms: C_13  and  C_14 
ROOT
HETATM    1  O   UNK     0     -49.896  -3.066  16.831  0.00  0.00    -0.353 OA
HETATM    2  C   UNK     0     -49.672  -3.132  14.474  0.00  0.00     0.198 C 
HETATM    3  C   UNK     0     -50.956  -3.836  14.858  0.00  0.00     0.182 C 
HETATM    4  C   UNK     0     -49.373  -2.319  15.721  0.00  0.00     0.264 C 
HETATM    5  C   UNK     0     -50.725  -4.138  16.333  0.00  0.00     0.179 C 
ENDROOT
BRANCH   4   6
HETATM    6  N   UNK     0     -47.966  -2.115  15.918  0.00  0.00    -0.278 N 
HETATM    7  C   UNK     0     -47.287  -2.955  16.787  0.00  0.00     0.102 A 
HETATM    8  C   UNK     0     -45.983  -2.840  17.029  0.00  0.00     0.070 A 
HETATM    9  C   UNK     0     -45.272  -1.748  16.312  0.00  0.00     0.153 A 
HETATM   10  N   UNK     0     -45.898  -0.948  15.490  0.00  0.00    -0.174 NA
HETATM   11  C   UNK     0     -47.254  -1.085  15.251  0.00  0.00     0.352 A 
HETATM   12  O   UNK     0     -47.827  -0.323  14.471  0.00  0.00    -0.244 OA
BRANCH   9  13
HETATM   13  N   UNK     0     -43.923  -1.594  16.536  0.00  0.00    -0.251 N 
HETATM   14  H   UNK     0     -43.333  -0.845  16.192  0.00  0.00     0.196 HD
BRANCH  13  15
HETATM   15  O   UNK     0     -43.404  -2.519  17.394  0.00  0.00    -0.288 OA
HETATM   16  H   UNK     0     -42.957  -1.957  18.049  0.00  0.00     0.244 HD
ENDBRANCH  13  15
ENDBRANCH   9  13
ENDBRANCH   4   6
BRANCH   5  17
HETATM   17  C   UNK     0     -49.993  -5.452  16.570  0.00  0.00     0.198 C 
BRANCH  17  18
HETATM   18  O   UNK     0     -50.952  -6.487  16.702  0.00  0.00    -0.398 OA
HETATM   19  H   UNK     0     -50.883  -6.827  17.610  0.00  0.00     0.209 HD
ENDBRANCH  17  18
ENDBRANCH   5  17
BRANCH   2  20
HETATM   20  O   UNK     0     -49.826  -2.326  13.323  0.00  0.00    -0.388 OA
HETATM   21  H   UNK     0     -48.944  -2.007  13.070  0.00  0.00     0.210 HD
ENDBRANCH   2  20
BRANCH   3  22
HETATM   22  O   UNK     0     -52.061  -2.938  14.761  0.00  0.00    -0.390 OA
HETATM   23  H   UNK     0     -51.826  -2.098  15.189  0.00  0.00     0.210 HD
ENDBRANCH   3  22
TORSDOF 7
ENDMDL
MODEL 5
REMARK VINA RESULT:      -5.9      2.077      5.374
REMARK  7 active torsions:
REMARK  status: ('A' for Active; 'I' for Inactive)
REMARK    1  A    between atoms: O_2  and  C_10 
REMARK    2  A    between atoms: O_3  and  C_11 
REMARK    3  A    between atoms: O_4  and  C_14 
REMARK    4  A    between atoms: O_6  and  N_9 
REMARK    5  A    between atoms: N_7  and  C_12 
REMARK    6  A    between atoms: N_9  and  C_18 
REMARK    7  A    between atoms: C_13  and  C_14 
ROOT
HETATM    1  O   UNK     0     -48.898  -0.453  15.888  0.00  0.00    -0.353 OA
HETATM    2  C   UNK     0     -48.707  -2.321  14.443  0.00  0.00     0.198 C 
HETATM    3  C   UNK     0     -50.146  -1.849  14.437  0.00  0.00     0.182 C 
HETATM    4  C   UNK     0     -47.980  -1.109  14.998  0.00  0.00     0.264 C 
HETATM    5  C   UNK     0     -50.214  -1.020  15.713  0.00  0.00     0.179 C 
ENDROOT
BRANCH   4   6
HETATM    6  N   UNK     0     -46.797  -1.466  15.728  0.00  0.00    -0.278 N 
HETATM    7  C   UNK     0     -45.645  -0.719  15.534  0.00  0.00     0.102 A 
HETATM    8  C   UNK     0     -44.504  -0.978  16.170  0.00  0.00     0.070 A 
HETATM    9  C   UNK     0     -44.519  -2.126  17.113  0.00  0.00     0.153 A 
HETATM   10  N   UNK     0     -45.596  -2.840  17.307  0.00  0.00    -0.174 NA
HETATM   11  C   UNK     0     -46.774  -2.554  16.638  0.00  0.00     0.352 A 
HETATM   12  O   UNK     0     -47.781  -3.236  16.834  0.00  0.00    -0.244 OA
BRANCH   9  13
HETATM   13  N   UNK     0     -43.359  -2.428  17.789  0.00  0.00    -0.251 N 
HETATM   14  H   UNK     0     -42.824  -3.286  17.723  0.00  0.00     0.196 HD
BRANCH  13  15
HETATM   15  O   UNK     0     -42.876  -1.391  18.533  0.00  0.00    -0.288 OA
HETATM   16  H   UNK     0     -42.309  -0.931  17.892  0.00  0.00     0.244 HD
ENDBRANCH  13  15
ENDBRANCH   9  13
ENDBRANCH   4   6
BRANCH   5  17
HETATM   17  C   UNK     0     -50.544  -1.845  16.950  0.00  0.00     0.198 C 
BRANCH  17  18
HETATM   18  O   UNK     0     -49.788  -1.348  18.040  0.00  0.00    -0.398 OA
HETATM   19  H   UNK     0     -48.872  -1.648  17.913  0.00  0.00     0.209 HD
ENDBRANCH  17  18
ENDBRANCH   5  17
BRANCH   2  20
HETATM   20  O   UNK     0     -48.256  -2.681  13.153  0.00  0.00    -0.388 OA
HETATM   21  H   UNK     0     -47.862  -3.567  13.219  0.00  0.00     0.210 HD
ENDBRANCH   2  20
BRANCH   3  22
HETATM   22  O   UNK     0     -50.376  -0.975  13.332  0.00  0.00    -0.390 OA
HETATM   23  H   UNK     0     -49.904  -0.139  13.485  0.00  0.00     0.210 HD
ENDBRANCH   3  22
TORSDOF 7
ENDMDL
MODEL 6
REMARK VINA RESULT:      -5.7     17.068     18.653
REMARK  7 active torsions:
REMARK  status: ('A' for Active; 'I' for Inactive)
REMARK    1  A    between atoms: O_2  and  C_10 
REMARK    2  A    between atoms: O_3  and  C_11 
REMARK    3  A    between atoms: O_4  and  C_14 
REMARK    4  A    between atoms: O_6  and  N_9 
REMARK    5  A    between atoms: N_7  and  C_12 
REMARK    6  A    between atoms: N_9  and  C_18 
REMARK    7  A    between atoms: C_13  and  C_14 
ROOT
HETATM    1  O   UNK     0     -47.497 -15.125  26.565  0.00  0.00    -0.353 OA
HETATM    2  C   UNK     0     -49.388 -16.390  27.226  0.00  0.00     0.198 C 
HETATM    3  C   UNK     0     -49.158 -15.294  28.245  0.00  0.00     0.182 C 
HETATM    4  C   UNK     0     -48.596 -15.883  26.034  0.00  0.00     0.264 C 
HETATM    5  C   UNK     0     -47.710 -14.907  27.976  0.00  0.00     0.179 C 
ENDROOT
BRANCH   4   6
HETATM    6  N   UNK     0     -48.079 -16.950  25.225  0.00  0.00    -0.278 N 
HETATM    7  C   UNK     0     -47.932 -18.205  25.795  0.00  0.00     0.102 A 
HETATM    8  C   UNK     0     -47.462 -19.252  25.119  0.00  0.00     0.070 A 
HETATM    9  C   UNK     0     -47.094 -19.010  23.700  0.00  0.00     0.153 A 
HETATM   10  N   UNK     0     -47.226 -17.833  23.148  0.00  0.00    -0.174 NA
HETATM   11  C   UNK     0     -47.718 -16.757  23.867  0.00  0.00     0.352 A 
HETATM   12  O   UNK     0     -47.838 -15.655  23.331  0.00  0.00    -0.244 OA
BRANCH   9  13
HETATM   13  N   UNK     0     -46.602 -20.066  22.966  0.00  0.00    -0.251 N 
HETATM   14  H   UNK     0     -46.102 -20.013  22.087  0.00  0.00     0.196 HD
BRANCH  13  15
HETATM   15  O   UNK     0     -46.748 -21.274  23.585  0.00  0.00    -0.288 OA
HETATM   16  H   UNK     0     -45.931 -21.332  24.108  0.00  0.00     0.244 HD
ENDBRANCH  13  15
ENDBRANCH   9  13
ENDBRANCH   4   6
BRANCH   5  17
HETATM   17  C   UNK     0     -46.707 -15.760  28.743  0.00  0.00     0.198 C 
BRANCH  17  18
HETATM   18  O   UNK     0     -45.809 -16.346  27.817  0.00  0.00    -0.398 OA
HETATM   19  H   UNK     0     -46.242 -17.141  27.462  0.00  0.00     0.209 HD
ENDBRANCH  17  18
ENDBRANCH   5  17
BRANCH   2  20
HETATM   20  O   UNK     0     -50.758 -16.570  26.932  0.00  0.00    -0.388 OA
HETATM   21  H   UNK     0     -51.268 -16.120  27.627  0.00  0.00     0.210 HD
ENDBRANCH   2  20
BRANCH   3  22
HETATM   22  O   UNK     0     -49.977 -14.163  27.949  0.00  0.00    -0.390 OA
HETATM   23  H   UNK     0     -49.536 -13.359  28.270  0.00  0.00     0.210 HD
ENDBRANCH   3  22
TORSDOF 7
ENDMDL
MODEL 7
REMARK VINA RESULT:      -5.7      3.358      4.572
REMARK  7 active torsions:
REMARK  status: ('A' for Active; 'I' for Inactive)
REMARK    1  A    between atoms: O_2  and  C_10 
REMARK    2  A    between atoms: O_3  and  C_11 
REMARK    3  A    between atoms: O_4  and  C_14 
REMARK    4  A    between atoms: O_6  and  N_9 
REMARK    5  A    between atoms: N_7  and  C_12 
REMARK    6  A    between atoms: N_9  and  C_18 
REMARK    7  A    between atoms: C_13  and  C_14 
ROOT
HETATM    1  O   UNK     0     -48.617  -2.393  16.807  0.00  0.00    -0.353 OA
HETATM    2  C   UNK     0     -48.789  -2.102  14.462  0.00  0.00     0.198 C 
HETATM    3  C   UNK     0     -47.816  -1.077  15.008  0.00  0.00     0.182 C 
HETATM    4  C   UNK     0     -48.838  -3.120  15.587  0.00  0.00     0.264 C 
HETATM    5  C   UNK     0     -48.171  -1.057  16.488  0.00  0.00     0.179 C 
ENDROOT
BRANCH   4   6
HETATM    6  N   UNK     0     -50.105  -3.789  15.667  0.00  0.00    -0.278 N 
HETATM    7  C   UNK     0     -51.235  -3.132  15.204  0.00  0.00     0.102 A 
HETATM    8  C   UNK     0     -52.449  -3.677  15.237  0.00  0.00     0.070 A 
HETATM    9  C   UNK     0     -52.543  -5.047  15.804  0.00  0.00     0.153 A 
HETATM   10  N   UNK     0     -51.488  -5.680  16.245  0.00  0.00    -0.174 NA
HETATM   11  C   UNK     0     -50.233  -5.097  16.200  0.00  0.00     0.352 A 
HETATM   12  O   UNK     0     -49.249  -5.709  16.618  0.00  0.00    -0.244 OA
BRANCH   9  13
HETATM   13  N   UNK     0     -53.781  -5.645  15.859  0.00  0.00    -0.251 N 
HETATM   14  H   UNK     0     -53.981  -6.635  15.771  0.00  0.00     0.196 HD
BRANCH  13  15
HETATM   15  O   UNK     0     -54.791  -4.779  16.160  0.00  0.00    -0.288 OA
HETATM   16  H   UNK     0     -55.565  -5.236  15.790  0.00  0.00     0.244 HD
ENDBRANCH  13  15
ENDBRANCH   9  13
ENDBRANCH   4   6
BRANCH   5  17
HETATM   17  C   UNK     0     -49.299  -0.090  16.823  0.00  0.00     0.198 C 
BRANCH  17  18
HETATM   18  O   UNK     0     -50.191  -0.727  17.720  0.00  0.00    -0.398 OA
HETATM   19  H   UNK     0     -50.714  -0.028  18.149  0.00  0.00     0.209 HD
ENDBRANCH  17  18
ENDBRANCH   5  17
BRANCH   2  20
HETATM   20  O   UNK     0     -48.349  -2.661  13.241  0.00  0.00    -0.388 OA
HETATM   21  H   UNK     0     -49.125  -2.743  12.661  0.00  0.00     0.210 HD
ENDBRANCH   2  20
BRANCH   3  22
HETATM   22  O   UNK     0     -46.476  -1.552  14.884  0.00  0.00    -0.390 OA
HETATM   23  H   UNK     0     -45.885  -0.797  14.728  0.00  0.00     0.210 HD
ENDBRANCH   3  22
TORSDOF 7
ENDMDL
MODEL 8
REMARK VINA RESULT:      -5.7      3.315      4.223
REMARK  7 active torsions:
REMARK  status: ('A' for Active; 'I' for Inactive)
REMARK    1  A    between atoms: O_2  and  C_10 
REMARK    2  A    between atoms: O_3  and  C_11 
REMARK    3  A    between atoms: O_4  and  C_14 
REMARK    4  A    between atoms: O_6  and  N_9 
REMARK    5  A    between atoms: N_7  and  C_12 
REMARK    6  A    between atoms: N_9  and  C_18 
REMARK    7  A    between atoms: C_13  and  C_14 
ROOT
HETATM    1  O   UNK     0     -47.090  -2.156  17.504  0.00  0.00    -0.353 OA
HETATM    2  C   UNK     0     -46.568  -0.732  15.685  0.00  0.00     0.198 C 
HETATM    3  C   UNK     0     -45.650  -1.934  15.637  0.00  0.00     0.182 C 
HETATM    4  C   UNK     0     -47.685  -1.224  16.588  0.00  0.00     0.264 C 
HETATM    5  C   UNK     0     -45.753  -2.471  17.058  0.00  0.00     0.179 C 
ENDROOT
BRANCH   4   6
HETATM    6  N   UNK     0     -48.295  -0.161  17.334  0.00  0.00    -0.278 N 
HETATM    7  C   UNK     0     -47.501   0.602  18.176  0.00  0.00     0.102 A 
HETATM    8  C   UNK     0     -47.981   1.608  18.904  0.00  0.00     0.070 A 
HETATM    9  C   UNK     0     -49.436   1.881  18.774  0.00  0.00     0.153 A 
HETATM   10  N   UNK     0     -50.199   1.170  17.986  0.00  0.00    -0.174 NA
HETATM   11  C   UNK     0     -49.680   0.130  17.235  0.00  0.00     0.352 A 
HETATM   12  O   UNK     0     -50.413  -0.528  16.496  0.00  0.00    -0.244 OA
BRANCH   9  13
HETATM   13  N   UNK     0     -49.974   2.911  19.512  0.00  0.00    -0.251 N 
HETATM   14  H   UNK     0     -49.465   3.654  19.977  0.00  0.00     0.196 HD
BRANCH  13  15
HETATM   15  O   UNK     0     -51.338   2.936  19.499  0.00  0.00    -0.288 OA
HETATM   16  H   UNK     0     -51.556   2.480  20.329  0.00  0.00     0.244 HD
ENDBRANCH  13  15
ENDBRANCH   9  13
ENDBRANCH   4   6
BRANCH   5  17
HETATM   17  C   UNK     0     -44.767  -1.821  18.020  0.00  0.00     0.198 C 
BRANCH  17  18
HETATM   18  O   UNK     0     -43.467  -2.298  17.726  0.00  0.00    -0.398 OA
HETATM   19  H   UNK     0     -43.451  -2.522  16.780  0.00  0.00     0.209 HD
ENDBRANCH  17  18
ENDBRANCH   5  17
BRANCH   2  20
HETATM   20  O   UNK     0     -47.030  -0.358  14.402  0.00  0.00    -0.388 OA
HETATM   21  H   UNK     0     -46.553  -0.899  13.751  0.00  0.00     0.210 HD
ENDBRANCH   2  20
BRANCH   3  22
HETATM   22  O   UNK     0     -46.177  -2.925  14.753  0.00  0.00    -0.390 OA
HETATM   23  H   UNK     0     -47.117  -3.063  14.956  0.00  0.00     0.210 HD
ENDBRANCH   3  22
TORSDOF 7
ENDMDL
MODEL 9
REMARK VINA RESULT:      -5.6      3.544      6.795
REMARK  7 active torsions:
REMARK  status: ('A' for Active; 'I' for Inactive)
REMARK    1  A    between atoms: O_2  and  C_10 
REMARK    2  A    between atoms: O_3  and  C_11 
REMARK    3  A    between atoms: O_4  and  C_14 
REMARK    4  A    between atoms: O_6  and  N_9 
REMARK    5  A    between atoms: N_7  and  C_12 
REMARK    6  A    between atoms: N_9  and  C_18 
REMARK    7  A    between atoms: C_13  and  C_14 
ROOT
HETATM    1  O   UNK     0     -51.261  -4.088  18.003  0.00  0.00    -0.353 OA
HETATM    2  C   UNK     0     -51.968  -4.500  15.780  0.00  0.00     0.198 C 
HETATM    3  C   UNK     0     -52.873  -5.262  16.725  0.00  0.00     0.182 C 
HETATM    4  C   UNK     0     -51.336  -3.476  16.705  0.00  0.00     0.264 C 
HETATM    5  C   UNK     0     -52.041  -5.303  17.999  0.00  0.00     0.179 C 
ENDROOT
BRANCH   4   6
HETATM    6  N   UNK     0     -50.015  -3.102  16.289  0.00  0.00    -0.278 N 
HETATM    7  C   UNK     0     -48.928  -3.702  16.906  0.00  0.00     0.102 A 
HETATM    8  C   UNK     0     -47.668  -3.417  16.582  0.00  0.00     0.070 A 
HETATM    9  C   UNK     0     -47.474  -2.406  15.511  0.00  0.00     0.153 A 
HETATM   10  N   UNK     0     -48.488  -1.830  14.920  0.00  0.00    -0.174 NA
HETATM   11  C   UNK     0     -49.791  -2.142  15.269  0.00  0.00     0.352 A 
HETATM   12  O   UNK     0     -50.734  -1.591  14.700  0.00  0.00    -0.244 OA
BRANCH   9  13
HETATM   13  N   UNK     0     -46.187  -2.081  15.148  0.00  0.00    -0.251 N 
HETATM   14  H   UNK     0     -45.639  -1.301  15.489  0.00  0.00     0.196 HD
BRANCH  13  15
HETATM   15  O   UNK     0     -45.610  -2.995  14.314  0.00  0.00    -0.288 OA
HETATM   16  H   UNK     0     -46.257  -3.719  14.330  0.00  0.00     0.244 HD
ENDBRANCH  13  15
ENDBRANCH   9  13
ENDBRANCH   4   6
BRANCH   5  17
HETATM   17  C   UNK     0     -51.079  -6.484  18.051  0.00  0.00     0.198 C 
BRANCH  17  18
HETATM   18  O   UNK     0     -51.723  -7.617  17.498  0.00  0.00    -0.398 OA
HETATM   19  H   UNK     0     -52.662  -7.388  17.390  0.00  0.00     0.209 HD
ENDBRANCH  17  18
ENDBRANCH   5  17
BRANCH   2  20
HETATM   20  O   UNK     0     -52.683  -3.904  14.716  0.00  0.00    -0.388 OA
HETATM   21  H   UNK     0     -52.332  -4.270  13.887  0.00  0.00     0.210 HD
ENDBRANCH   2  20
BRANCH   3  22
HETATM   22  O   UNK     0     -54.054  -4.506  16.996  0.00  0.00    -0.390 OA
HETATM   23  H   UNK     0     -54.033  -4.205  17.919  0.00  0.00     0.210 HD
ENDBRANCH   3  22
TORSDOF 7
ENDMDL
MODEL 10
REMARK VINA RESULT:      -5.6      2.417      5.677
REMARK  7 active torsions:
REMARK  status: ('A' for Active; 'I' for Inactive)
REMARK    1  A    between atoms: O_2  and  C_10 
REMARK    2  A    between atoms: O_3  and  C_11 
REMARK    3  A    between atoms: O_4  and  C_14 
REMARK    4  A    between atoms: O_6  and  N_9 
REMARK    5  A    between atoms: N_7  and  C_12 
REMARK    6  A    between atoms: N_9  and  C_18 
REMARK    7  A    between atoms: C_13  and  C_14 
ROOT
HETATM    1  O   UNK     0     -48.357  -0.203  15.485  0.00  0.00    -0.353 OA
HETATM    2  C   UNK     0     -47.287  -2.296  15.190  0.00  0.00     0.198 C 
HETATM    3  C   UNK     0     -48.666  -2.364  14.566  0.00  0.00     0.182 C 
HETATM    4  C   UNK     0     -47.063  -0.799  15.296  0.00  0.00     0.264 C 
HETATM    5  C   UNK     0     -49.376  -1.195  15.235  0.00  0.00     0.179 C 
ENDROOT
BRANCH   4   6
HETATM    6  N   UNK     0     -46.221  -0.447  16.404  0.00  0.00    -0.278 N 
HETATM    7  C   UNK     0     -46.803   0.118  17.528  0.00  0.00     0.102 A 
HETATM    8  C   UNK     0     -46.100   0.473  18.602  0.00  0.00     0.070 A 
HETATM    9  C   UNK     0     -44.634   0.233  18.540  0.00  0.00     0.153 A 
HETATM   10  N   UNK     0     -44.070  -0.298  17.488  0.00  0.00    -0.174 NA
HETATM   11  C   UNK     0     -44.820  -0.663  16.382  0.00  0.00     0.352 A 
HETATM   12  O   UNK     0     -44.272  -1.164  15.399  0.00  0.00    -0.244 OA
BRANCH   9  13
HETATM   13  N   UNK     0     -43.871   0.588  19.628  0.00  0.00    -0.251 N 
HETATM   14  H   UNK     0     -44.209   0.889  20.535  0.00  0.00     0.196 HD
BRANCH  13  15
HETATM   15  O   UNK     0     -42.532   0.402  19.438  0.00  0.00    -0.288 OA
HETATM   16  H   UNK     0     -42.491  -0.542  19.213  0.00  0.00     0.244 HD
ENDBRANCH  13  15
ENDBRANCH   9  13
ENDBRANCH   4   6
BRANCH   5  17
HETATM   17  C   UNK     0     -50.017  -1.562  16.567  0.00  0.00     0.198 C 
BRANCH  17  18
HETATM   18  O   UNK     0     -51.214  -2.274  16.312  0.00  0.00    -0.398 OA
HETATM   19  H   UNK     0     -51.365  -2.246  15.352  0.00  0.00     0.209 HD
ENDBRANCH  17  18
ENDBRANCH   5  17
BRANCH   2  20
HETATM   20  O   UNK     0     -46.309  -2.938  14.398  0.00  0.00    -0.388 OA
HETATM   21  H   UNK     0     -45.452  -2.824  14.843  0.00  0.00     0.210 HD
ENDBRANCH   2  20
BRANCH   3  22
HETATM   22  O   UNK     0     -48.590  -2.091  13.167  0.00  0.00    -0.390 OA
HETATM   23  H   UNK     0     -48.822  -1.160  13.013  0.00  0.00     0.210 HD
ENDBRANCH   3  22
TORSDOF 7
ENDMDL
