MODEL 1
REMARK VINA RESULT:      -8.5      0.000      0.000
REMARK  20 active torsions:
REMARK  status: ('A' for Active; 'I' for Inactive)
REMARK    1  A    between atoms: C_3  and  C_7 
REMARK    2  A    between atoms: C_7  and  C_8 
REMARK    3  A    between atoms: C_8  and  N_9 
REMARK    4  A    between atoms: C_8  and  C_10 
REMARK    5  A    between atoms: C_10  and  O_11 
REMARK    6  A    between atoms: C_10  and  C_12 
REMARK    7  A    between atoms: C_12  and  C_13 
REMARK    8  A    between atoms: C_13  and  C_14 
REMARK    9  A    between atoms: C_13  and  N_21 
REMARK   10  A    between atoms: C_14  and  C_15 
REMARK   11  A    between atoms: N_21  and  P_22 
REMARK   12  A    between atoms: P_22  and  O_23 
REMARK   13  A    between atoms: P_22  and  O_24 
REMARK   14  A    between atoms: O_23  and  C_26 
REMARK   15  A    between atoms: O_24  and  C_27 
REMARK   16  A    between atoms: C_26  and  C_33 
REMARK   17  A    between atoms: C_35  and  C_40 
REMARK   18  A    between atoms: C_36  and  O_39 
REMARK   19  A    between atoms: C_37  and  O_38 
REMARK   20  A    between atoms: C_50  and  N_51 
ROOT
HETATM    1  C   MOL     1     -43.197   1.248  19.408  1.00 -0.25     0.001 A 
HETATM    2  C   MOL     1     -43.949   1.074  18.268  1.00 -0.30     0.007 A 
HETATM    3  C   MOL     1     -44.266  -0.194  17.830  1.00 -0.25    -0.056 A 
HETATM    4  C   MOL     1     -43.822  -1.287  18.542  1.00 -0.33     0.007 A 
HETATM    5  C   MOL     1     -43.068  -1.115  19.681  1.00 -0.34     0.001 A 
HETATM    6  C   MOL     1     -42.756   0.153  20.114  1.00 -0.27     0.000 A 
ENDROOT
BRANCH   3   7
HETATM    7  C   MOL     1     -45.100  -0.384  16.571  1.00 -0.43     0.074 C 
BRANCH   7   8
HETATM    8  C   MOL     1     -45.103  -1.819  15.999  1.00 -0.43     0.216 C 
BRANCH   8   9
HETATM    9  N   MOL     1     -44.387  -1.822  14.675  1.00  0.05    -0.072 N 
HETATM   10  H   MOL     1     -43.901  -1.063  14.552  1.00 -0.64     0.274 HD
HETATM   11  H   MOL     1     -43.808  -2.521  14.608  1.00 -0.76     0.274 HD
HETATM   12  H   MOL     1     -44.958  -1.896  13.973  1.00 -0.15     0.274 HD
ENDBRANCH   8   9
BRANCH   8  13
HETATM   13  C   MOL     1     -46.556  -2.327  15.853  1.00 -0.29     0.150 C 
BRANCH  13  14
HETATM   14  O   MOL     1     -46.752  -2.887  14.542  1.00  0.06    -0.393 OA
HETATM   15  H   MOL     1     -46.171  -3.695  14.401  1.00 -0.27     0.210 HD
ENDBRANCH  13  14
BRANCH  13  16
HETATM   16  C   MOL     1     -47.574  -1.187  16.075  1.00 -0.14     0.054 C 
BRANCH  16  17
HETATM   17  C   MOL     1     -48.376  -1.383  17.381  1.00 -0.12     0.073 C 
BRANCH  17  18
HETATM   18  C   MOL     1     -48.734  -0.003  17.977  1.00 -0.13     0.058 C 
BRANCH  18  19
HETATM   19  C   MOL     1     -47.843   0.472  19.114  1.00 -0.16    -0.057 A 
HETATM   20  C   MOL     1     -47.622   1.818  19.308  1.00 -0.21     0.007 A 
HETATM   21  C   MOL     1     -46.813   2.250  20.336  1.00 -0.25     0.001 A 
HETATM   22  C   MOL     1     -46.219   1.335  21.174  1.00 -0.37     0.000 A 
HETATM   23  C   MOL     1     -46.437  -0.012  20.985  1.00 -0.40     0.001 A 
HETATM   24  C   MOL     1     -47.247  -0.440  19.957  1.00 -0.21     0.007 A 
ENDBRANCH  18  19
ENDBRANCH  17  18
BRANCH  17  25
HETATM   25  N   MOL     1     -49.609  -2.128  17.096  1.00  0.15    -0.221 NA
HETATM   26  H   MOL     1     -49.658  -2.364  16.096  1.00  0.32     0.134 HD
BRANCH  25  27
HETATM   27  P   MOL     1     -49.793  -3.362  17.944  1.00  0.09     0.413 P 
HETATM   28  O   MOL     1     -49.071  -3.236  19.260  1.00  0.07    -0.239 OA
BRANCH  27  29
HETATM   29  O   MOL     1     -49.304  -4.683  17.169  1.00  0.12    -0.299 OA
BRANCH  29  30
HETATM   30  C   MOL     1     -48.169  -5.402  17.672  1.00 -0.20     0.214 C 
BRANCH  30  31
HETATM   31  C   MOL     1     -48.634  -6.464  18.683  1.00 -0.04     0.180 C 
HETATM   32  O   MOL     1     -47.562  -6.863  19.554  1.00  0.26    -0.347 OA
HETATM   33  C   MOL     1     -47.694  -8.254  19.904  1.00 -0.04     0.222 C 
HETATM   34  C   MOL     1     -48.939  -8.770  19.144  1.00 -0.10     0.205 C 
HETATM   35  C   MOL     1     -47.911  -8.347  21.353  1.00 -0.21     0.107 C 
HETATM   36  C   MOL     1     -49.136  -7.751  18.014  1.00 -0.06     0.182 C 
HETATM   37  N   MOL     1     -48.079  -8.419  22.475  1.00  0.07    -0.193 NA
BRANCH  33  38
HETATM   38  C   MOL     1     -46.365  -8.893  19.517  1.00 -0.19     0.088 A 
HETATM   39  N   MOL     1     -46.052 -10.149  19.916  1.00 -0.03    -0.229 N 
HETATM   40  C   MOL     1     -44.816 -10.389  19.404  1.00 -0.22     0.104 A 
HETATM   41  N   MOL     1     -46.701 -11.090  20.662  1.00  0.23    -0.160 NA
HETATM   42  C   MOL     1     -44.357  -9.319  18.704  1.00 -0.37     0.038 A 
HETATM   43  C   MOL     1     -44.228 -11.653  19.667  1.00 -0.44     0.151 A 
HETATM   44  C   MOL     1     -45.366  -8.355  18.784  1.00 -0.17     0.034 A 
HETATM   45  N   MOL     1     -44.851 -12.587  20.397  1.00 -0.19    -0.221 NA
HETATM   46  C   MOL     1     -46.092 -12.235  20.866  1.00 -0.33     0.258 A 
BRANCH  43  47
HETATM   47  N   MOL     1     -42.982 -11.968  19.178  1.00 -0.25    -0.382 N 
HETATM   48  H   MOL     1     -42.365 -12.282  19.723  1.00 -0.27     0.157 HD
HETATM   49  H   MOL     1     -42.797 -11.859  18.324  1.00 -0.19     0.157 HD
ENDBRANCH  43  47
ENDBRANCH  33  38
BRANCH  34  50
HETATM   50  O   MOL     1     -48.787 -10.106  18.638  1.00  0.41    -0.388 OA
HETATM   51  H   MOL     1     -48.787 -10.782  19.383  1.00 -0.42     0.210 HD
ENDBRANCH  34  50
BRANCH  36  52
HETATM   52  O   MOL     1     -48.326  -8.118  16.886  1.00  0.07    -0.390 OA
HETATM   53  H   MOL     1     -48.774  -8.827  16.330  1.00 -0.09     0.210 HD
ENDBRANCH  36  52
ENDBRANCH  30  31
ENDBRANCH  29  30
ENDBRANCH  27  29
BRANCH  27  54
HETATM   54  O   MOL     1     -51.363  -3.643  18.186  1.00  0.13    -0.260 OA
BRANCH  54  55
HETATM   55  C   MOL     1     -52.125  -4.340  17.291  1.00 -0.29     0.080 A 
HETATM   56  C   MOL     1     -52.465  -3.815  16.058  1.00 -0.28     0.037 A 
HETATM   57  C   MOL     1     -53.230  -4.544  15.178  1.00 -0.40     0.003 A 
HETATM   58  C   MOL     1     -53.661  -5.805  15.521  1.00 -0.35     0.000 A 
HETATM   59  C   MOL     1     -53.327  -6.335  16.746  1.00 -0.47     0.003 A 
HETATM   60  C   MOL     1     -52.565  -5.606  17.627  1.00 -0.37     0.037 A 
ENDBRANCH  54  55
ENDBRANCH  27  54
ENDBRANCH  25  27
ENDBRANCH  17  25
ENDBRANCH  16  17
ENDBRANCH  13  16
ENDBRANCH   8  13
ENDBRANCH   7   8
ENDBRANCH   3   7
TORSDOF 20
ENDMDL
MODEL 2
REMARK VINA RESULT:      -8.1      1.937      3.993
REMARK  20 active torsions:
REMARK  status: ('A' for Active; 'I' for Inactive)
REMARK    1  A    between atoms: C_3  and  C_7 
REMARK    2  A    between atoms: C_7  and  C_8 
REMARK    3  A    between atoms: C_8  and  N_9 
REMARK    4  A    between atoms: C_8  and  C_10 
REMARK    5  A    between atoms: C_10  and  O_11 
REMARK    6  A    between atoms: C_10  and  C_12 
REMARK    7  A    between atoms: C_12  and  C_13 
REMARK    8  A    between atoms: C_13  and  C_14 
REMARK    9  A    between atoms: C_13  and  N_21 
REMARK   10  A    between atoms: C_14  and  C_15 
REMARK   11  A    between atoms: N_21  and  P_22 
REMARK   12  A    between atoms: P_22  and  O_23 
REMARK   13  A    between atoms: P_22  and  O_24 
REMARK   14  A    between atoms: O_23  and  C_26 
REMARK   15  A    between atoms: O_24  and  C_27 
REMARK   16  A    between atoms: C_26  and  C_33 
REMARK   17  A    between atoms: C_35  and  C_40 
REMARK   18  A    between atoms: C_36  and  O_39 
REMARK   19  A    between atoms: C_37  and  O_38 
REMARK   20  A    between atoms: C_50  and  N_51 
ROOT
HETATM    1  C   MOL     1     -43.076   1.001  19.742  1.00 -0.25     0.001 A 
HETATM    2  C   MOL     1     -43.693   0.916  18.514  1.00 -0.30     0.007 A 
HETATM    3  C   MOL     1     -44.103  -0.304  18.023  1.00 -0.25    -0.056 A 
HETATM    4  C   MOL     1     -43.891  -1.441  18.773  1.00 -0.33     0.007 A 
HETATM    5  C   MOL     1     -43.274  -1.359  20.001  1.00 -0.34     0.001 A 
HETATM    6  C   MOL     1     -42.866  -0.137  20.485  1.00 -0.27     0.000 A 
ENDROOT
BRANCH   3   7
HETATM    7  C   MOL     1     -44.787  -0.395  16.667  1.00 -0.43     0.074 C 
BRANCH   7   8
HETATM    8  C   MOL     1     -45.171  -1.824  16.222  1.00 -0.43     0.216 C 
BRANCH   8   9
HETATM    9  N   MOL     1     -44.775  -2.014  14.782  1.00  0.05    -0.072 N 
HETATM   10  H   MOL     1     -45.060  -2.814  14.456  1.00 -0.64     0.274 HD
HETATM   11  H   MOL     1     -45.131  -1.368  14.248  1.00 -0.76     0.274 HD
HETATM   12  H   MOL     1     -43.876  -1.976  14.662  1.00 -0.15     0.274 HD
ENDBRANCH   8   9
BRANCH   8  13
HETATM   13  C   MOL     1     -46.688  -2.050  16.423  1.00 -0.29     0.150 C 
BRANCH  13  14
HETATM   14  O   MOL     1     -47.181  -2.976  15.438  1.00  0.06    -0.393 OA
HETATM   15  H   MOL     1     -48.072  -3.355  15.709  1.00 -0.27     0.210 HD
ENDBRANCH  13  14
BRANCH  13  16
HETATM   16  C   MOL     1     -47.472  -0.725  16.311  1.00 -0.14     0.054 C 
BRANCH  16  17
HETATM   17  C   MOL     1     -48.265  -0.420  17.601  1.00 -0.12     0.073 C 
BRANCH  17  18
HETATM   18  C   MOL     1     -47.829   0.953  18.161  1.00 -0.13     0.058 C 
BRANCH  18  19
HETATM   19  C   MOL     1     -47.208   0.929  19.549  1.00 -0.16    -0.057 A 
HETATM   20  C   MOL     1     -47.077  -0.261  20.231  1.00 -0.21     0.007 A 
HETATM   21  C   MOL     1     -46.517  -0.284  21.489  1.00 -0.25     0.001 A 
HETATM   22  C   MOL     1     -46.088   0.886  22.072  1.00 -0.37     0.000 A 
HETATM   23  C   MOL     1     -46.217   2.078  21.395  1.00 -0.40     0.001 A 
HETATM   24  C   MOL     1     -46.775   2.098  20.137  1.00 -0.21     0.007 A 
ENDBRANCH  18  19
ENDBRANCH  17  18
BRANCH  17  25
HETATM   25  N   MOL     1     -49.703  -0.393  17.303  1.00  0.15    -0.221 NA
HETATM   26  H   MOL     1     -49.871  -0.700  16.336  1.00  0.32     0.134 HD
BRANCH  25  27
HETATM   27  P   MOL     1     -50.546  -1.188  18.268  1.00  0.09     0.413 P 
HETATM   28  O   MOL     1     -49.693  -2.037  19.174  1.00  0.07    -0.239 OA
BRANCH  27  29
HETATM   29  O   MOL     1     -51.614  -2.107  17.492  1.00  0.12    -0.299 OA
BRANCH  29  30
HETATM   30  C   MOL     1     -51.201  -3.395  17.014  1.00 -0.20     0.214 C 
BRANCH  30  31
HETATM   31  C   MOL     1     -51.712  -4.490  17.964  1.00 -0.04     0.180 C 
HETATM   32  O   MOL     1     -50.707  -4.862  18.923  1.00  0.26    -0.347 OA
HETATM   33  C   MOL     1     -50.815  -6.263  19.242  1.00 -0.04     0.222 C 
HETATM   34  C   MOL     1     -51.965  -6.814  18.365  1.00 -0.10     0.205 C 
HETATM   35  C   MOL     1     -51.157  -6.388  20.664  1.00 -0.21     0.107 C 
HETATM   36  C   MOL     1     -52.100  -5.785  17.236  1.00 -0.06     0.182 C 
HETATM   37  N   MOL     1     -51.422  -6.485  21.765  1.00  0.07    -0.193 NA
BRANCH  33  38
HETATM   38  C   MOL     1     -49.432  -6.843  18.968  1.00 -0.19     0.088 A 
HETATM   39  N   MOL     1     -49.073  -8.053  19.460  1.00 -0.03    -0.229 N 
HETATM   40  C   MOL     1     -47.798  -8.249  19.032  1.00 -0.22     0.104 A 
HETATM   41  N   MOL     1     -49.711  -8.987  20.225  1.00  0.23    -0.160 NA
HETATM   42  C   MOL     1     -47.360  -7.197  18.294  1.00 -0.37     0.038 A 
HETATM   43  C   MOL     1     -47.157  -9.459  19.404  1.00 -0.44     0.151 A 
HETATM   44  C   MOL     1     -48.423  -6.290  18.260  1.00 -0.17     0.034 A 
HETATM   45  N   MOL     1     -47.769 -10.385  20.154  1.00 -0.19    -0.221 NA
HETATM   46  C   MOL     1     -49.053 -10.080  20.531  1.00 -0.33     0.258 A 
BRANCH  43  47
HETATM   47  N   MOL     1     -45.869  -9.728  19.005  1.00 -0.25    -0.382 N 
HETATM   48  H   MOL     1     -45.408 -10.358  19.411  1.00 -0.27     0.157 HD
HETATM   49  H   MOL     1     -45.503  -9.275  18.344  1.00 -0.19     0.157 HD
ENDBRANCH  43  47
ENDBRANCH  33  38
BRANCH  34  50
HETATM   50  O   MOL     1     -51.715  -8.135  17.858  1.00  0.41    -0.388 OA
HETATM   51  H   MOL     1     -50.779  -8.218  17.500  1.00 -0.42     0.210 HD
ENDBRANCH  34  50
BRANCH  36  52
HETATM   52  O   MOL     1     -51.178  -6.102  16.182  1.00  0.07    -0.390 OA
HETATM   53  H   MOL     1     -50.574  -5.323  15.977  1.00 -0.09     0.210 HD
ENDBRANCH  36  52
ENDBRANCH  30  31
ENDBRANCH  29  30
ENDBRANCH  27  29
BRANCH  27  54
HETATM   54  O   MOL     1     -51.481  -0.200  19.136  1.00  0.13    -0.260 OA
BRANCH  54  55
HETATM   55  C   MOL     1     -50.967   0.657  20.068  1.00 -0.29     0.080 A 
HETATM   56  C   MOL     1     -50.529   0.214  21.303  1.00 -0.28     0.037 A 
HETATM   57  C   MOL     1     -50.013   1.102  22.218  1.00 -0.40     0.003 A 
HETATM   58  C   MOL     1     -49.929   2.440  21.908  1.00 -0.35     0.000 A 
HETATM   59  C   MOL     1     -50.364   2.890  20.682  1.00 -0.47     0.003 A 
HETATM   60  C   MOL     1     -50.882   2.003  19.768  1.00 -0.37     0.037 A 
ENDBRANCH  54  55
ENDBRANCH  27  54
ENDBRANCH  25  27
ENDBRANCH  17  25
ENDBRANCH  16  17
ENDBRANCH  13  16
ENDBRANCH   8  13
ENDBRANCH   7   8
ENDBRANCH   3   7
TORSDOF 20
ENDMDL
MODEL 3
REMARK VINA RESULT:      -8.1      8.407     12.148
REMARK  20 active torsions:
REMARK  status: ('A' for Active; 'I' for Inactive)
REMARK    1  A    between atoms: C_3  and  C_7 
REMARK    2  A    between atoms: C_7  and  C_8 
REMARK    3  A    between atoms: C_8  and  N_9 
REMARK    4  A    between atoms: C_8  and  C_10 
REMARK    5  A    between atoms: C_10  and  O_11 
REMARK    6  A    between atoms: C_10  and  C_12 
REMARK    7  A    between atoms: C_12  and  C_13 
REMARK    8  A    between atoms: C_13  and  C_14 
REMARK    9  A    between atoms: C_13  and  N_21 
REMARK   10  A    between atoms: C_14  and  C_15 
REMARK   11  A    between atoms: N_21  and  P_22 
REMARK   12  A    between atoms: P_22  and  O_23 
REMARK   13  A    between atoms: P_22  and  O_24 
REMARK   14  A    between atoms: O_23  and  C_26 
REMARK   15  A    between atoms: O_24  and  C_27 
REMARK   16  A    between atoms: C_26  and  C_33 
REMARK   17  A    between atoms: C_35  and  C_40 
REMARK   18  A    between atoms: C_36  and  O_39 
REMARK   19  A    between atoms: C_37  and  O_38 
REMARK   20  A    between atoms: C_50  and  N_51 
ROOT
HETATM    1  C   MOL     1     -40.796 -10.776  22.012  1.00 -0.25     0.001 A 
HETATM    2  C   MOL     1     -40.916 -12.147  22.041  1.00 -0.30     0.007 A 
HETATM    3  C   MOL     1     -40.933 -12.869  20.867  1.00 -0.25    -0.056 A 
HETATM    4  C   MOL     1     -40.828 -12.207  19.663  1.00 -0.33     0.007 A 
HETATM    5  C   MOL     1     -40.709 -10.836  19.632  1.00 -0.34     0.001 A 
HETATM    6  C   MOL     1     -40.693 -10.121  20.808  1.00 -0.27     0.000 A 
ENDROOT
BRANCH   3   7
HETATM    7  C   MOL     1     -41.063 -14.385  20.901  1.00 -0.43     0.074 C 
BRANCH   7   8
HETATM    8  C   MOL     1     -41.368 -14.985  22.292  1.00 -0.43     0.216 C 
BRANCH   8   9
HETATM    9  N   MOL     1     -40.758 -16.358  22.380  1.00  0.05    -0.072 N 
HETATM   10  H   MOL     1     -39.950 -16.397  21.964  1.00 -0.64     0.274 HD
HETATM   11  H   MOL     1     -40.623 -16.611  23.244  1.00 -0.76     0.274 HD
HETATM   12  H   MOL     1     -41.286 -16.997  22.007  1.00 -0.15     0.274 HD
ENDBRANCH   8   9
BRANCH   8  13
HETATM   13  C   MOL     1     -42.896 -15.034  22.522  1.00 -0.29     0.150 C 
BRANCH  13  14
HETATM   14  O   MOL     1     -43.213 -16.029  23.512  1.00  0.06    -0.393 OA
HETATM   15  H   MOL     1     -44.207 -16.154  23.598  1.00 -0.27     0.210 HD
ENDBRANCH  13  14
BRANCH  13  16
HETATM   16  C   MOL     1     -43.651 -15.359  21.215  1.00 -0.14     0.054 C 
BRANCH  16  17
HETATM   17  C   MOL     1     -44.831 -14.390  20.980  1.00 -0.12     0.073 C 
BRANCH  17  18
HETATM   18  C   MOL     1     -44.557 -13.544  19.716  1.00 -0.13     0.058 C 
BRANCH  18  19
HETATM   19  C   MOL     1     -44.491 -12.041  19.934  1.00 -0.16    -0.057 A 
HETATM   20  C   MOL     1     -44.352 -11.188  18.860  1.00 -0.21     0.007 A 
HETATM   21  C   MOL     1     -44.288  -9.826  19.056  1.00 -0.25     0.001 A 
HETATM   22  C   MOL     1     -44.361  -9.311  20.330  1.00 -0.37     0.000 A 
HETATM   23  C   MOL     1     -44.500 -10.158  21.406  1.00 -0.40     0.001 A 
HETATM   24  C   MOL     1     -44.565 -11.519  21.207  1.00 -0.21     0.007 A 
ENDBRANCH  18  19
ENDBRANCH  17  18
BRANCH  17  25
HETATM   25  N   MOL     1     -46.071 -15.156  20.797  1.00  0.15    -0.221 NA
HETATM   26  H   MOL     1     -45.856 -16.152  20.661  1.00  0.32     0.134 HD
BRANCH  25  27
HETATM   27  P   MOL     1     -47.075 -14.976  21.909  1.00  0.09     0.413 P 
HETATM   28  O   MOL     1     -46.467 -14.264  23.088  1.00  0.07    -0.239 OA
BRANCH  27  29
HETATM   29  O   MOL     1     -47.694 -16.385  22.372  1.00  0.12    -0.299 OA
BRANCH  29  30
HETATM   30  C   MOL     1     -47.614 -16.756  23.756  1.00 -0.20     0.214 C 
BRANCH  30  31
HETATM   31  C   MOL     1     -46.465 -17.757  23.960  1.00 -0.04     0.180 C 
HETATM   32  O   MOL     1     -45.588 -17.787  22.821  1.00  0.26    -0.347 OA
HETATM   33  C   MOL     1     -45.065 -19.115  22.630  1.00 -0.04     0.222 C 
HETATM   34  C   MOL     1     -45.713 -19.994  23.726  1.00 -0.10     0.205 C 
HETATM   35  C   MOL     1     -43.608 -19.069  22.812  1.00 -0.21     0.107 C 
HETATM   36  C   MOL     1     -46.953 -19.199  24.156  1.00 -0.06     0.182 C 
HETATM   37  N   MOL     1     -42.481 -19.032  22.955  1.00  0.07    -0.193 NA
BRANCH  33  38
HETATM   38  C   MOL     1     -45.414 -19.480  21.191  1.00 -0.19     0.088 A 
HETATM   39  N   MOL     1     -44.904 -20.592  20.609  1.00 -0.03    -0.229 N 
HETATM   40  C   MOL     1     -45.414 -20.602  19.349  1.00 -0.22     0.104 A 
HETATM   41  N   MOL     1     -44.060 -21.577  21.036  1.00  0.23    -0.160 NA
HETATM   42  C   MOL     1     -46.221 -19.530  19.137  1.00 -0.37     0.038 A 
HETATM   43  C   MOL     1     -45.043 -21.674  18.497  1.00 -0.44     0.151 A 
HETATM   44  C   MOL     1     -46.214 -18.808  20.333  1.00 -0.17     0.034 A 
HETATM   45  N   MOL     1     -44.217 -22.648  18.901  1.00 -0.19    -0.221 NA
HETATM   46  C   MOL     1     -43.761 -22.534  20.190  1.00 -0.33     0.258 A 
BRANCH  43  47
HETATM   47  N   MOL     1     -45.524 -21.753  17.211  1.00 -0.25    -0.382 N 
HETATM   48  H   MOL     1     -45.528 -22.527  16.793  1.00 -0.27     0.157 HD
HETATM   49  H   MOL     1     -45.827 -21.034  16.803  1.00 -0.19     0.157 HD
ENDBRANCH  43  47
ENDBRANCH  33  38
BRANCH  34  50
HETATM   50  O   MOL     1     -46.054 -21.314  23.274  1.00  0.41    -0.388 OA
HETATM   51  H   MOL     1     -46.919 -21.627  23.680  1.00 -0.42     0.210 HD
ENDBRANCH  34  50
BRANCH  36  52
HETATM   52  O   MOL     1     -48.053 -19.514  23.289  1.00  0.07    -0.390 OA
HETATM   53  H   MOL     1     -47.813 -19.358  22.324  1.00 -0.09     0.210 HD
ENDBRANCH  36  52
ENDBRANCH  30  31
ENDBRANCH  29  30
ENDBRANCH  27  29
BRANCH  27  54
HETATM   54  O   MOL     1     -48.365 -14.172  21.368  1.00  0.13    -0.260 OA
BRANCH  54  55
HETATM   55  C   MOL     1     -48.296 -12.868  20.966  1.00 -0.29     0.080 A 
HETATM   56  C   MOL     1     -48.125 -12.522  19.638  1.00 -0.28     0.037 A 
HETATM   57  C   MOL     1     -48.063 -11.199  19.266  1.00 -0.40     0.003 A 
HETATM   58  C   MOL     1     -48.174 -10.210  20.216  1.00 -0.35     0.000 A 
HETATM   59  C   MOL     1     -48.344 -10.546  21.540  1.00 -0.47     0.003 A 
HETATM   60  C   MOL     1     -48.402 -11.867  21.913  1.00 -0.37     0.037 A 
ENDBRANCH  54  55
ENDBRANCH  27  54
ENDBRANCH  25  27
ENDBRANCH  17  25
ENDBRANCH  16  17
ENDBRANCH  13  16
ENDBRANCH   8  13
ENDBRANCH   7   8
ENDBRANCH   3   7
TORSDOF 20
ENDMDL
MODEL 4
REMARK VINA RESULT:      -8.1      6.768     14.058
REMARK  20 active torsions:
REMARK  status: ('A' for Active; 'I' for Inactive)
REMARK    1  A    between atoms: C_3  and  C_7 
REMARK    2  A    between atoms: C_7  and  C_8 
REMARK    3  A    between atoms: C_8  and  N_9 
REMARK    4  A    between atoms: C_8  and  C_10 
REMARK    5  A    between atoms: C_10  and  O_11 
REMARK    6  A    between atoms: C_10  and  C_12 
REMARK    7  A    between atoms: C_12  and  C_13 
REMARK    8  A    between atoms: C_13  and  C_14 
REMARK    9  A    between atoms: C_13  and  N_21 
REMARK   10  A    between atoms: C_14  and  C_15 
REMARK   11  A    between atoms: N_21  and  P_22 
REMARK   12  A    between atoms: P_22  and  O_23 
REMARK   13  A    between atoms: P_22  and  O_24 
REMARK   14  A    between atoms: O_23  and  C_26 
REMARK   15  A    between atoms: O_24  and  C_27 
REMARK   16  A    between atoms: C_26  and  C_33 
REMARK   17  A    between atoms: C_35  and  C_40 
REMARK   18  A    between atoms: C_36  and  O_39 
REMARK   19  A    between atoms: C_37  and  O_38 
REMARK   20  A    between atoms: C_50  and  N_51 
ROOT
HETATM    1  C   MOL     1     -46.740 -14.234  30.823  1.00 -0.25     0.001 A 
HETATM    2  C   MOL     1     -47.158 -15.332  30.106  1.00 -0.30     0.007 A 
HETATM    3  C   MOL     1     -48.002 -15.179  29.028  1.00 -0.25    -0.056 A 
HETATM    4  C   MOL     1     -48.425 -13.916  28.672  1.00 -0.33     0.007 A 
HETATM    5  C   MOL     1     -48.009 -12.817  29.389  1.00 -0.34     0.001 A 
HETATM    6  C   MOL     1     -47.166 -12.977  30.465  1.00 -0.27     0.000 A 
ENDROOT
BRANCH   3   7
HETATM    7  C   MOL     1     -48.460 -16.394  28.234  1.00 -0.43     0.074 C 
BRANCH   7   8
HETATM    8  C   MOL     1     -49.330 -16.078  26.997  1.00 -0.43     0.216 C 
BRANCH   8   9
HETATM    9  N   MOL     1     -50.681 -16.721  27.168  1.00  0.05    -0.072 N 
HETATM   10  H   MOL     1     -51.162 -16.706  26.397  1.00 -0.64     0.274 HD
HETATM   11  H   MOL     1     -50.608 -17.593  27.419  1.00 -0.76     0.274 HD
HETATM   12  H   MOL     1     -51.180 -16.313  27.808  1.00 -0.15     0.274 HD
ENDBRANCH   8   9
BRANCH   8  13
HETATM   13  C   MOL     1     -48.628 -16.579  25.714  1.00 -0.29     0.150 C 
BRANCH  13  14
HETATM   14  O   MOL     1     -49.584 -17.213  24.845  1.00  0.06    -0.393 OA
HETATM   15  H   MOL     1     -49.249 -18.105  24.524  1.00 -0.27     0.210 HD
ENDBRANCH  13  14
BRANCH  13  16
HETATM   16  C   MOL     1     -47.502 -17.582  26.047  1.00 -0.14     0.054 C 
BRANCH  16  17
HETATM   17  C   MOL     1     -46.118 -17.053  25.610  1.00 -0.12     0.073 C 
BRANCH  17  18
HETATM   18  C   MOL     1     -45.123 -17.185  26.785  1.00 -0.13     0.058 C 
BRANCH  18  19
HETATM   19  C   MOL     1     -44.697 -15.877  27.435  1.00 -0.16    -0.057 A 
HETATM   20  C   MOL     1     -43.854 -15.884  28.524  1.00 -0.21     0.007 A 
HETATM   21  C   MOL     1     -43.470 -14.701  29.116  1.00 -0.25     0.001 A 
HETATM   22  C   MOL     1     -43.932 -13.504  28.620  1.00 -0.37     0.000 A 
HETATM   23  C   MOL     1     -44.775 -13.490  27.532  1.00 -0.40     0.001 A 
HETATM   24  C   MOL     1     -45.156 -14.674  26.942  1.00 -0.21     0.007 A 
ENDBRANCH  18  19
ENDBRANCH  17  18
BRANCH  17  25
HETATM   25  N   MOL     1     -45.629 -17.833  24.465  1.00  0.15    -0.221 NA
HETATM   26  H   MOL     1     -46.099 -18.746  24.432  1.00  0.32     0.134 HD
BRANCH  25  27
HETATM   27  P   MOL     1     -45.751 -17.122  23.140  1.00  0.09     0.413 P 
HETATM   28  O   MOL     1     -44.446 -17.135  22.388  1.00  0.07    -0.239 OA
BRANCH  27  29
HETATM   29  O   MOL     1     -46.264 -15.611  23.332  1.00  0.12    -0.299 OA
BRANCH  29  30
HETATM   30  C   MOL     1     -46.891 -14.946  22.226  1.00 -0.20     0.214 C 
BRANCH  30  31
HETATM   31  C   MOL     1     -45.891 -13.986  21.562  1.00 -0.04     0.180 C 
HETATM   32  O   MOL     1     -46.045 -12.644  22.056  1.00  0.26    -0.347 OA
HETATM   33  C   MOL     1     -45.761 -11.692  21.013  1.00 -0.04     0.222 C 
HETATM   34  C   MOL     1     -45.444 -12.525  19.748  1.00 -0.10     0.205 C 
HETATM   35  C   MOL     1     -44.584 -10.908  21.411  1.00 -0.21     0.107 C 
HETATM   36  C   MOL     1     -46.065 -13.897  20.039  1.00 -0.06     0.182 C 
HETATM   37  N   MOL     1     -43.673 -10.303  21.720  1.00  0.07    -0.193 NA
BRANCH  33  38
HETATM   38  C   MOL     1     -46.997 -10.803  20.934  1.00 -0.19     0.088 A 
HETATM   39  N   MOL     1     -46.996  -9.671  20.191  1.00 -0.03    -0.229 N 
HETATM   40  C   MOL     1     -48.236  -9.137  20.351  1.00 -0.22     0.104 A 
HETATM   41  N   MOL     1     -46.059  -9.056  19.409  1.00  0.23    -0.160 NA
HETATM   42  C   MOL     1     -48.999  -9.905  21.170  1.00 -0.37     0.038 A 
HETATM   43  C   MOL     1     -48.523  -7.924  19.673  1.00 -0.44     0.151 A 
HETATM   44  C   MOL     1     -48.189 -10.981  21.545  1.00 -0.17     0.034 A 
HETATM   45  N   MOL     1     -47.616  -7.310  18.902  1.00 -0.19    -0.221 NA
HETATM   46  C   MOL     1     -46.398  -7.936  18.817  1.00 -0.33     0.258 A 
BRANCH  43  47
HETATM   47  N   MOL     1     -49.758  -7.328  19.785  1.00 -0.25    -0.382 N 
HETATM   48  H   MOL     1     -50.241  -7.457  20.509  1.00 -0.27     0.157 HD
HETATM   49  H   MOL     1     -50.067  -6.818  19.137  1.00 -0.19     0.157 HD
ENDBRANCH  43  47
ENDBRANCH  33  38
BRANCH  34  50
HETATM   50  O   MOL     1     -45.965 -11.948  18.539  1.00  0.41    -0.388 OA
HETATM   51  H   MOL     1     -45.557 -12.375  17.725  1.00 -0.42     0.210 HD
ENDBRANCH  34  50
BRANCH  36  52
HETATM   52  O   MOL     1     -47.450 -13.891  19.658  1.00  0.07    -0.390 OA
HETATM   53  H   MOL     1     -47.594 -14.387  18.794  1.00 -0.09     0.210 HD
ENDBRANCH  36  52
ENDBRANCH  30  31
ENDBRANCH  29  30
ENDBRANCH  27  29
BRANCH  27  54
HETATM   54  O   MOL     1     -46.921 -17.792  22.255  1.00  0.13    -0.260 OA
BRANCH  54  55
HETATM   55  C   MOL     1     -46.677 -18.360  21.035  1.00 -0.29     0.080 A 
HETATM   56  C   MOL     1     -47.005 -17.719  19.854  1.00 -0.28     0.037 A 
HETATM   57  C   MOL     1     -46.743 -18.316  18.643  1.00 -0.40     0.003 A 
HETATM   58  C   MOL     1     -46.151 -19.557  18.600  1.00 -0.35     0.000 A 
HETATM   59  C   MOL     1     -45.822 -20.202  19.770  1.00 -0.47     0.003 A 
HETATM   60  C   MOL     1     -46.086 -19.608  20.981  1.00 -0.37     0.037 A 
ENDBRANCH  54  55
ENDBRANCH  27  54
ENDBRANCH  25  27
ENDBRANCH  17  25
ENDBRANCH  16  17
ENDBRANCH  13  16
ENDBRANCH   8  13
ENDBRANCH   7   8
ENDBRANCH   3   7
TORSDOF 20
ENDMDL
MODEL 5
REMARK VINA RESULT:      -8.0      6.952     14.936
REMARK  20 active torsions:
REMARK  status: ('A' for Active; 'I' for Inactive)
REMARK    1  A    between atoms: C_3  and  C_7 
REMARK    2  A    between atoms: C_7  and  C_8 
REMARK    3  A    between atoms: C_8  and  N_9 
REMARK    4  A    between atoms: C_8  and  C_10 
REMARK    5  A    between atoms: C_10  and  O_11 
REMARK    6  A    between atoms: C_10  and  C_12 
REMARK    7  A    between atoms: C_12  and  C_13 
REMARK    8  A    between atoms: C_13  and  C_14 
REMARK    9  A    between atoms: C_13  and  N_21 
REMARK   10  A    between atoms: C_14  and  C_15 
REMARK   11  A    between atoms: N_21  and  P_22 
REMARK   12  A    between atoms: P_22  and  O_23 
REMARK   13  A    between atoms: P_22  and  O_24 
REMARK   14  A    between atoms: O_23  and  C_26 
REMARK   15  A    between atoms: O_24  and  C_27 
REMARK   16  A    between atoms: C_26  and  C_33 
REMARK   17  A    between atoms: C_35  and  C_40 
REMARK   18  A    between atoms: C_36  and  O_39 
REMARK   19  A    between atoms: C_37  and  O_38 
REMARK   20  A    between atoms: C_50  and  N_51 
ROOT
HETATM    1  C   MOL     1     -48.177 -13.057  29.769  1.00 -0.25     0.001 A 
HETATM    2  C   MOL     1     -48.437 -14.053  28.855  1.00 -0.30     0.007 A 
HETATM    3  C   MOL     1     -47.866 -15.298  29.000  1.00 -0.25    -0.056 A 
HETATM    4  C   MOL     1     -47.031 -15.540  30.070  1.00 -0.33     0.007 A 
HETATM    5  C   MOL     1     -46.768 -14.545  30.984  1.00 -0.34     0.001 A 
HETATM    6  C   MOL     1     -47.341 -13.304  30.833  1.00 -0.27     0.000 A 
ENDROOT
BRANCH   3   7
HETATM    7  C   MOL     1     -48.158 -16.399  27.990  1.00 -0.43     0.074 C 
BRANCH   7   8
HETATM    8  C   MOL     1     -49.242 -16.056  26.944  1.00 -0.43     0.216 C 
BRANCH   8   9
HETATM    9  N   MOL     1     -50.569 -16.584  27.421  1.00  0.05    -0.072 N 
HETATM   10  H   MOL     1     -50.490 -17.408  27.798  1.00 -0.64     0.274 HD
HETATM   11  H   MOL     1     -50.940 -16.040  28.050  1.00 -0.76     0.274 HD
HETATM   12  H   MOL     1     -51.177 -16.650  26.750  1.00 -0.15     0.274 HD
ENDBRANCH   8   9
BRANCH   8  13
HETATM   13  C   MOL     1     -48.860 -16.655  25.571  1.00 -0.29     0.150 C 
BRANCH  13  14
HETATM   14  O   MOL     1     -50.031 -17.183  24.922  1.00  0.06    -0.393 OA
HETATM   15  H   MOL     1     -50.511 -17.839  25.514  1.00 -0.27     0.210 HD
ENDBRANCH  13  14
BRANCH  13  16
HETATM   16  C   MOL     1     -47.813 -17.779  25.721  1.00 -0.14     0.054 C 
BRANCH  16  17
HETATM   17  C   MOL     1     -47.004 -17.984  24.421  1.00 -0.12     0.073 C 
BRANCH  17  18
HETATM   18  C   MOL     1     -47.141 -19.451  23.955  1.00 -0.13     0.058 C 
BRANCH  18  19
HETATM   19  C   MOL     1     -45.866 -20.278  24.008  1.00 -0.16    -0.057 A 
HETATM   20  C   MOL     1     -44.659 -19.676  24.289  1.00 -0.21     0.007 A 
HETATM   21  C   MOL     1     -43.502 -20.423  24.334  1.00 -0.25     0.001 A 
HETATM   22  C   MOL     1     -43.549 -21.777  24.095  1.00 -0.37     0.000 A 
HETATM   23  C   MOL     1     -44.753 -22.384  23.813  1.00 -0.40     0.001 A 
HETATM   24  C   MOL     1     -45.907 -21.635  23.770  1.00 -0.21     0.007 A 
ENDBRANCH  18  19
ENDBRANCH  17  18
BRANCH  17  25
HETATM   25  N   MOL     1     -47.516 -17.089  23.374  1.00  0.15    -0.221 NA
HETATM   26  H   MOL     1     -48.329 -16.564  23.723  1.00  0.32     0.134 HD
BRANCH  25  27
HETATM   27  P   MOL     1     -46.480 -16.151  22.806  1.00  0.09     0.413 P 
HETATM   28  O   MOL     1     -45.244 -16.112  23.665  1.00  0.07    -0.239 OA
BRANCH  27  29
HETATM   29  O   MOL     1     -47.073 -14.668  22.622  1.00  0.12    -0.299 OA
BRANCH  29  30
HETATM   30  C   MOL     1     -47.577 -14.277  21.336  1.00 -0.20     0.214 C 
BRANCH  30  31
HETATM   31  C   MOL     1     -46.972 -12.923  20.931  1.00 -0.04     0.180 C 
HETATM   32  O   MOL     1     -47.281 -11.901  21.894  1.00  0.26    -0.347 OA
HETATM   33  C   MOL     1     -47.442 -10.629  21.238  1.00 -0.04     0.222 C 
HETATM   34  C   MOL     1     -47.256 -10.900  19.726  1.00 -0.10     0.205 C 
HETATM   35  C   MOL     1     -46.392  -9.723  21.723  1.00 -0.21     0.107 C 
HETATM   36  C   MOL     1     -47.500 -12.408  19.585  1.00 -0.06     0.182 C 
HETATM   37  N   MOL     1     -45.579  -9.023  22.098  1.00  0.07    -0.193 NA
BRANCH  33  38
HETATM   38  C   MOL     1     -48.819 -10.131  21.662  1.00 -0.19     0.088 A 
HETATM   39  N   MOL     1     -49.274  -8.917  21.267  1.00 -0.03    -0.229 N 
HETATM   40  C   MOL     1     -50.510  -8.802  21.821  1.00 -0.22     0.104 A 
HETATM   41  N   MOL     1     -48.749  -7.917  20.501  1.00  0.23    -0.160 NA
HETATM   42  C   MOL     1     -50.830  -9.905  22.545  1.00 -0.37     0.038 A 
HETATM   43  C   MOL     1     -51.236  -7.609  21.570  1.00 -0.44     0.151 A 
HETATM   44  C   MOL     1     -49.729 -10.760  22.438  1.00 -0.17     0.034 A 
HETATM   45  N   MOL     1     -50.735  -6.618  20.819  1.00 -0.19    -0.221 NA
HETATM   46  C   MOL     1     -49.478  -6.842  20.315  1.00 -0.33     0.258 A 
BRANCH  43  47
HETATM   47  N   MOL     1     -52.494  -7.424  22.093  1.00 -0.25    -0.382 N 
HETATM   48  H   MOL     1     -53.030  -8.114  22.197  1.00 -0.27     0.157 HD
HETATM   49  H   MOL     1     -52.766  -6.619  22.325  1.00 -0.19     0.157 HD
ENDBRANCH  43  47
ENDBRANCH  33  38
BRANCH  34  50
HETATM   50  O   MOL     1     -48.144 -10.135  18.895  1.00  0.41    -0.388 OA
HETATM   51  H   MOL     1     -48.589  -9.399  19.415  1.00 -0.42     0.210 HD
ENDBRANCH  34  50
BRANCH  36  52
HETATM   52  O   MOL     1     -48.906 -12.657  19.432  1.00  0.07    -0.390 OA
HETATM   53  H   MOL     1     -49.455 -11.928  19.855  1.00 -0.09     0.210 HD
ENDBRANCH  36  52
ENDBRANCH  30  31
ENDBRANCH  29  30
ENDBRANCH  27  29
BRANCH  27  54
HETATM   54  O   MOL     1     -46.107 -16.582  21.297  1.00  0.13    -0.260 OA
BRANCH  54  55
HETATM   55  C   MOL     1     -45.515 -17.780  21.006  1.00 -0.29     0.080 A 
HETATM   56  C   MOL     1     -46.249 -18.870  20.576  1.00 -0.28     0.037 A 
HETATM   57  C   MOL     1     -45.622 -20.060  20.288  1.00 -0.40     0.003 A 
HETATM   58  C   MOL     1     -44.258 -20.171  20.425  1.00 -0.35     0.000 A 
HETATM   59  C   MOL     1     -43.520 -19.091  20.853  1.00 -0.47     0.003 A 
HETATM   60  C   MOL     1     -44.146 -17.902  21.144  1.00 -0.37     0.037 A 
ENDBRANCH  54  55
ENDBRANCH  27  54
ENDBRANCH  25  27
ENDBRANCH  17  25
ENDBRANCH  16  17
ENDBRANCH  13  16
ENDBRANCH   8  13
ENDBRANCH   7   8
ENDBRANCH   3   7
TORSDOF 20
ENDMDL
MODEL 6
REMARK VINA RESULT:      -7.9      2.545      3.590
REMARK  20 active torsions:
REMARK  status: ('A' for Active; 'I' for Inactive)
REMARK    1  A    between atoms: C_3  and  C_7 
REMARK    2  A    between atoms: C_7  and  C_8 
REMARK    3  A    between atoms: C_8  and  N_9 
REMARK    4  A    between atoms: C_8  and  C_10 
REMARK    5  A    between atoms: C_10  and  O_11 
REMARK    6  A    between atoms: C_10  and  C_12 
REMARK    7  A    between atoms: C_12  and  C_13 
REMARK    8  A    between atoms: C_13  and  C_14 
REMARK    9  A    between atoms: C_13  and  N_21 
REMARK   10  A    between atoms: C_14  and  C_15 
REMARK   11  A    between atoms: N_21  and  P_22 
REMARK   12  A    between atoms: P_22  and  O_23 
REMARK   13  A    between atoms: P_22  and  O_24 
REMARK   14  A    between atoms: O_23  and  C_26 
REMARK   15  A    between atoms: O_24  and  C_27 
REMARK   16  A    between atoms: C_26  and  C_33 
REMARK   17  A    between atoms: C_35  and  C_40 
REMARK   18  A    between atoms: C_36  and  O_39 
REMARK   19  A    between atoms: C_37  and  O_38 
REMARK   20  A    between atoms: C_50  and  N_51 
ROOT
HETATM    1  C   MOL     1     -43.011  -1.419  19.260  1.00 -0.25     0.001 A 
HETATM    2  C   MOL     1     -43.930  -1.655  18.263  1.00 -0.30     0.007 A 
HETATM    3  C   MOL     1     -44.524  -0.603  17.600  1.00 -0.25    -0.056 A 
HETATM    4  C   MOL     1     -44.190   0.689  17.944  1.00 -0.33     0.007 A 
HETATM    5  C   MOL     1     -43.272   0.928  18.942  1.00 -0.34     0.001 A 
HETATM    6  C   MOL     1     -42.683  -0.127  19.600  1.00 -0.27     0.000 A 
ENDROOT
BRANCH   3   7
HETATM    7  C   MOL     1     -45.538  -0.866  16.496  1.00 -0.43     0.074 C 
BRANCH   7   8
HETATM    8  C   MOL     1     -45.891  -2.354  16.273  1.00 -0.43     0.216 C 
BRANCH   8   9
HETATM    9  N   MOL     1     -45.934  -2.633  14.795  1.00  0.05    -0.072 N 
HETATM   10  H   MOL     1     -45.513  -1.985  14.316  1.00 -0.64     0.274 HD
HETATM   11  H   MOL     1     -45.527  -3.421  14.590  1.00 -0.76     0.274 HD
HETATM   12  H   MOL     1     -46.783  -2.695  14.478  1.00 -0.15     0.274 HD
ENDBRANCH   8   9
BRANCH   8  13
HETATM   13  C   MOL     1     -47.244  -2.682  16.947  1.00 -0.29     0.150 C 
BRANCH  13  14
HETATM   14  O   MOL     1     -47.904  -3.742  16.233  1.00  0.06    -0.393 OA
HETATM   15  H   MOL     1     -48.720  -3.405  15.751  1.00 -0.27     0.210 HD
ENDBRANCH  13  14
BRANCH  13  16
HETATM   16  C   MOL     1     -48.167  -1.444  16.984  1.00 -0.14     0.054 C 
BRANCH  16  17
HETATM   17  C   MOL     1     -48.743  -1.204  18.397  1.00 -0.12     0.073 C 
BRANCH  17  18
HETATM   18  C   MOL     1     -48.489   0.262  18.814  1.00 -0.13     0.058 C 
BRANCH  18  19
HETATM   19  C   MOL     1     -47.427   0.467  19.883  1.00 -0.16    -0.057 A 
HETATM   20  C   MOL     1     -46.997   1.737  20.202  1.00 -0.21     0.007 A 
HETATM   21  C   MOL     1     -46.033   1.923  21.167  1.00 -0.25     0.001 A 
HETATM   22  C   MOL     1     -45.493   0.839  21.818  1.00 -0.37     0.000 A 
HETATM   23  C   MOL     1     -45.919  -0.433  21.504  1.00 -0.40     0.001 A 
HETATM   24  C   MOL     1     -46.884  -0.616  20.539  1.00 -0.21     0.007 A 
ENDBRANCH  18  19
ENDBRANCH  17  18
BRANCH  17  25
HETATM   25  N   MOL     1     -50.188  -1.469  18.394  1.00  0.15    -0.221 NA
HETATM   26  H   MOL     1     -50.555  -1.417  17.435  1.00  0.32     0.134 HD
BRANCH  25  27
HETATM   27  P   MOL     1     -50.575  -2.774  19.042  1.00  0.09     0.413 P 
HETATM   28  O   MOL     1     -51.988  -2.732  19.562  1.00  0.07    -0.239 OA
BRANCH  27  29
HETATM   29  O   MOL     1     -49.561  -3.162  20.228  1.00  0.12    -0.299 OA
BRANCH  29  30
HETATM   30  C   MOL     1     -49.836  -2.694  21.557  1.00 -0.20     0.214 C 
BRANCH  30  31
HETATM   31  C   MOL     1     -49.704  -3.856  22.555  1.00 -0.04     0.180 C 
HETATM   32  O   MOL     1     -49.008  -4.971  21.972  1.00  0.26    -0.347 OA
HETATM   33  C   MOL     1     -49.524  -6.210  22.493  1.00 -0.04     0.222 C 
HETATM   34  C   MOL     1     -50.675  -5.825  23.453  1.00 -0.10     0.205 C 
HETATM   35  C   MOL     1     -48.450  -6.884  23.233  1.00 -0.21     0.107 C 
HETATM   36  C   MOL     1     -51.060  -4.403  23.023  1.00 -0.06     0.182 C 
HETATM   37  N   MOL     1     -47.618  -7.404  23.807  1.00  0.07    -0.193 NA
BRANCH  33  38
HETATM   38  C   MOL     1     -49.924  -7.024  21.267  1.00 -0.19     0.088 A 
HETATM   39  N   MOL     1     -49.066  -7.194  20.232  1.00 -0.03    -0.229 N 
HETATM   40  C   MOL     1     -49.741  -7.954  19.330  1.00 -0.22     0.104 A 
HETATM   41  N   MOL     1     -47.792  -6.770  19.984  1.00  0.23    -0.160 NA
HETATM   42  C   MOL     1     -50.988  -8.256  19.776  1.00 -0.37     0.038 A 
HETATM   43  C   MOL     1     -49.073  -8.295  18.125  1.00 -0.44     0.151 A 
HETATM   44  C   MOL     1     -51.098  -7.648  21.030  1.00 -0.17     0.034 A 
HETATM   45  N   MOL     1     -47.823  -7.887  17.867  1.00 -0.19    -0.221 NA
HETATM   46  C   MOL     1     -47.242  -7.123  18.847  1.00 -0.33     0.258 A 
BRANCH  43  47
HETATM   47  N   MOL     1     -49.692  -9.065  17.168  1.00 -0.25    -0.382 N 
HETATM   48  H   MOL     1     -49.216  -9.420  16.518  1.00 -0.27     0.157 HD
HETATM   49  H   MOL     1     -50.560  -9.206  17.202  1.00 -0.19     0.157 HD
ENDBRANCH  43  47
ENDBRANCH  33  38
BRANCH  34  50
HETATM   50  O   MOL     1     -51.794  -6.723  23.394  1.00  0.41    -0.388 OA
HETATM   51  H   MOL     1     -51.506  -7.650  23.130  1.00 -0.42     0.210 HD
ENDBRANCH  34  50
BRANCH  36  52
HETATM   52  O   MOL     1     -52.011  -4.465  21.948  1.00  0.07    -0.390 OA
HETATM   53  H   MOL     1     -52.305  -5.412  21.774  1.00 -0.09     0.210 HD
ENDBRANCH  36  52
ENDBRANCH  30  31
ENDBRANCH  29  30
ENDBRANCH  27  29
BRANCH  27  54
HETATM   54  O   MOL     1     -50.394  -3.990  17.998  1.00  0.13    -0.260 OA
BRANCH  54  55
HETATM   55  C   MOL     1     -51.425  -4.446  17.224  1.00 -0.29     0.080 A 
HETATM   56  C   MOL     1     -51.770  -3.833  16.033  1.00 -0.28     0.037 A 
HETATM   57  C   MOL     1     -52.809  -4.319  15.276  1.00 -0.40     0.003 A 
HETATM   58  C   MOL     1     -53.513  -5.423  15.700  1.00 -0.35     0.000 A 
HETATM   59  C   MOL     1     -53.177  -6.039  16.883  1.00 -0.47     0.003 A 
HETATM   60  C   MOL     1     -52.140  -5.552  17.642  1.00 -0.37     0.037 A 
ENDBRANCH  54  55
ENDBRANCH  27  54
ENDBRANCH  25  27
ENDBRANCH  17  25
ENDBRANCH  16  17
ENDBRANCH  13  16
ENDBRANCH   8  13
ENDBRANCH   7   8
ENDBRANCH   3   7
TORSDOF 20
ENDMDL
MODEL 7
REMARK VINA RESULT:      -7.9      1.680      4.696
REMARK  20 active torsions:
REMARK  status: ('A' for Active; 'I' for Inactive)
REMARK    1  A    between atoms: C_3  and  C_7 
REMARK    2  A    between atoms: C_7  and  C_8 
REMARK    3  A    between atoms: C_8  and  N_9 
REMARK    4  A    between atoms: C_8  and  C_10 
REMARK    5  A    between atoms: C_10  and  O_11 
REMARK    6  A    between atoms: C_10  and  C_12 
REMARK    7  A    between atoms: C_12  and  C_13 
REMARK    8  A    between atoms: C_13  and  C_14 
REMARK    9  A    between atoms: C_13  and  N_21 
REMARK   10  A    between atoms: C_14  and  C_15 
REMARK   11  A    between atoms: N_21  and  P_22 
REMARK   12  A    between atoms: P_22  and  O_23 
REMARK   13  A    between atoms: P_22  and  O_24 
REMARK   14  A    between atoms: O_23  and  C_26 
REMARK   15  A    between atoms: O_24  and  C_27 
REMARK   16  A    between atoms: C_26  and  C_33 
REMARK   17  A    between atoms: C_35  and  C_40 
REMARK   18  A    between atoms: C_36  and  O_39 
REMARK   19  A    between atoms: C_37  and  O_38 
REMARK   20  A    between atoms: C_50  and  N_51 
ROOT
HETATM    1  C   MOL     1     -42.902  -1.169  19.458  1.00 -0.25     0.001 A 
HETATM    2  C   MOL     1     -43.718  -1.315  18.359  1.00 -0.30     0.007 A 
HETATM    3  C   MOL     1     -44.291  -0.211  17.766  1.00 -0.25    -0.056 A 
HETATM    4  C   MOL     1     -44.040   1.042  18.282  1.00 -0.33     0.007 A 
HETATM    5  C   MOL     1     -43.225   1.190  19.382  1.00 -0.34     0.001 A 
HETATM    6  C   MOL     1     -42.657   0.084  19.970  1.00 -0.27     0.000 A 
ENDROOT
BRANCH   3   7
HETATM    7  C   MOL     1     -45.190  -0.374  16.549  1.00 -0.43     0.074 C 
BRANCH   7   8
HETATM    8  C   MOL     1     -45.170  -1.778  15.904  1.00 -0.43     0.216 C 
BRANCH   8   9
HETATM    9  N   MOL     1     -44.272  -1.752  14.696  1.00  0.05    -0.072 N 
HETATM   10  H   MOL     1     -44.429  -2.456  14.143  1.00 -0.64     0.274 HD
HETATM   11  H   MOL     1     -44.394  -0.995  14.204  1.00 -0.76     0.274 HD
HETATM   12  H   MOL     1     -43.392  -1.772  14.919  1.00 -0.15     0.274 HD
ENDBRANCH   8   9
BRANCH   8  13
HETATM   13  C   MOL     1     -46.607  -2.206  15.526  1.00 -0.29     0.150 C 
BRANCH  13  14
HETATM   14  O   MOL     1     -46.603  -2.868  14.249  1.00  0.06    -0.393 OA
HETATM   15  H   MOL     1     -45.772  -2.649  13.727  1.00 -0.27     0.210 HD
ENDBRANCH  13  14
BRANCH  13  16
HETATM   16  C   MOL     1     -47.557  -0.990  15.464  1.00 -0.14     0.054 C 
BRANCH  16  17
HETATM   17  C   MOL     1     -48.951  -1.324  16.041  1.00 -0.12     0.073 C 
BRANCH  17  18
HETATM   18  C   MOL     1     -49.881  -1.793  14.899  1.00 -0.13     0.058 C 
BRANCH  18  19
HETATM   19  C   MOL     1     -50.730  -3.017  15.205  1.00 -0.16    -0.057 A 
HETATM   20  C   MOL     1     -50.289  -4.274  14.851  1.00 -0.21     0.007 A 
HETATM   21  C   MOL     1     -51.058  -5.384  15.124  1.00 -0.25     0.001 A 
HETATM   22  C   MOL     1     -52.273  -5.240  15.752  1.00 -0.37     0.000 A 
HETATM   23  C   MOL     1     -52.719  -3.987  16.108  1.00 -0.40     0.001 A 
HETATM   24  C   MOL     1     -51.948  -2.879  15.835  1.00 -0.21     0.007 A 
ENDBRANCH  18  19
ENDBRANCH  17  18
BRANCH  17  25
HETATM   25  N   MOL     1     -48.828  -2.393  17.042  1.00  0.15    -0.221 NA
HETATM   26  H   MOL     1     -48.026  -2.996  16.820  1.00  0.32     0.134 HD
BRANCH  25  27
HETATM   27  P   MOL     1     -48.745  -1.896  18.464  1.00  0.09     0.413 P 
HETATM   28  O   MOL     1     -47.314  -1.742  18.909  1.00  0.07    -0.239 OA
BRANCH  27  29
HETATM   29  O   MOL     1     -49.535  -2.870  19.470  1.00  0.12    -0.299 OA
BRANCH  29  30
HETATM   30  C   MOL     1     -50.182  -4.036  18.941  1.00 -0.20     0.214 C 
BRANCH  30  31
HETATM   31  C   MOL     1     -50.407  -5.061  20.066  1.00 -0.04     0.180 C 
HETATM   32  O   MOL     1     -49.159  -5.557  20.580  1.00  0.26    -0.347 OA
HETATM   33  C   MOL     1     -49.296  -6.933  20.980  1.00 -0.04     0.222 C 
HETATM   34  C   MOL     1     -50.752  -7.335  20.642  1.00 -0.10     0.205 C 
HETATM   35  C   MOL     1     -49.071  -7.018  22.429  1.00 -0.21     0.107 C 
HETATM   36  C   MOL     1     -51.195  -6.295  19.605  1.00 -0.06     0.182 C 
HETATM   37  N   MOL     1     -48.897  -7.082  23.550  1.00  0.07    -0.193 NA
BRANCH  33  38
HETATM   38  C   MOL     1     -48.205  -7.682  20.222  1.00 -0.19     0.088 A 
HETATM   39  N   MOL     1     -47.947  -8.987  20.478  1.00 -0.03    -0.229 N 
HETATM   40  C   MOL     1     -46.932  -9.321  19.639  1.00 -0.22     0.104 A 
HETATM   41  N   MOL     1     -48.478  -9.901  21.343  1.00  0.23    -0.160 NA
HETATM   42  C   MOL     1     -46.556  -8.263  18.875  1.00 -0.37     0.038 A 
HETATM   43  C   MOL     1     -46.448 -10.655  19.689  1.00 -0.44     0.151 A 
HETATM   44  C   MOL     1     -47.384  -7.206  19.261  1.00 -0.17     0.034 A 
HETATM   45  N   MOL     1     -46.958 -11.564  20.531  1.00 -0.19    -0.221 NA
HETATM   46  C   MOL     1     -47.976 -11.113  21.333  1.00 -0.33     0.258 A 
BRANCH  43  47
HETATM   47  N   MOL     1     -45.426 -11.066  18.866  1.00 -0.25    -0.382 N 
HETATM   48  H   MOL     1     -45.229 -10.599  18.147  1.00 -0.27     0.157 HD
HETATM   49  H   MOL     1     -44.967 -11.794  19.056  1.00 -0.19     0.157 HD
ENDBRANCH  43  47
ENDBRANCH  33  38
BRANCH  34  50
HETATM   50  O   MOL     1     -50.873  -8.676  20.140  1.00  0.41    -0.388 OA
HETATM   51  H   MOL     1     -50.528  -8.746  19.198  1.00 -0.42     0.210 HD
ENDBRANCH  34  50
BRANCH  36  52
HETATM   52  O   MOL     1     -50.798  -6.723  18.293  1.00  0.07    -0.390 OA
HETATM   53  H   MOL     1     -50.434  -5.956  17.752  1.00 -0.09     0.210 HD
ENDBRANCH  36  52
ENDBRANCH  30  31
ENDBRANCH  29  30
ENDBRANCH  27  29
BRANCH  27  54
HETATM   54  O   MOL     1     -49.537  -0.499  18.614  1.00  0.13    -0.260 OA
BRANCH  54  55
HETATM   55  C   MOL     1     -48.983   0.591  19.224  1.00 -0.29     0.080 A 
HETATM   56  C   MOL     1     -47.952   1.307  18.644  1.00 -0.28     0.037 A 
HETATM   57  C   MOL     1     -47.419   2.402  19.283  1.00 -0.40     0.003 A 
HETATM   58  C   MOL     1     -47.913   2.793  20.506  1.00 -0.35     0.000 A 
HETATM   59  C   MOL     1     -48.938   2.087  21.091  1.00 -0.47     0.003 A 
HETATM   60  C   MOL     1     -49.469   0.990  20.454  1.00 -0.37     0.037 A 
ENDBRANCH  54  55
ENDBRANCH  27  54
ENDBRANCH  25  27
ENDBRANCH  17  25
ENDBRANCH  16  17
ENDBRANCH  13  16
ENDBRANCH   8  13
ENDBRANCH   7   8
ENDBRANCH   3   7
TORSDOF 20
ENDMDL
MODEL 8
REMARK VINA RESULT:      -7.8      2.905      5.719
REMARK  20 active torsions:
REMARK  status: ('A' for Active; 'I' for Inactive)
REMARK    1  A    between atoms: C_3  and  C_7 
REMARK    2  A    between atoms: C_7  and  C_8 
REMARK    3  A    between atoms: C_8  and  N_9 
REMARK    4  A    between atoms: C_8  and  C_10 
REMARK    5  A    between atoms: C_10  and  O_11 
REMARK    6  A    between atoms: C_10  and  C_12 
REMARK    7  A    between atoms: C_12  and  C_13 
REMARK    8  A    between atoms: C_13  and  C_14 
REMARK    9  A    between atoms: C_13  and  N_21 
REMARK   10  A    between atoms: C_14  and  C_15 
REMARK   11  A    between atoms: N_21  and  P_22 
REMARK   12  A    between atoms: P_22  and  O_23 
REMARK   13  A    between atoms: P_22  and  O_24 
REMARK   14  A    between atoms: O_23  and  C_26 
REMARK   15  A    between atoms: O_24  and  C_27 
REMARK   16  A    between atoms: C_26  and  C_33 
REMARK   17  A    between atoms: C_35  and  C_40 
REMARK   18  A    between atoms: C_36  and  O_39 
REMARK   19  A    between atoms: C_37  and  O_38 
REMARK   20  A    between atoms: C_50  and  N_51 
ROOT
HETATM    1  C   MOL     1     -42.903  -1.214  19.372  1.00 -0.25     0.001 A 
HETATM    2  C   MOL     1     -43.790  -1.327  18.325  1.00 -0.30     0.007 A 
HETATM    3  C   MOL     1     -44.352  -0.201  17.764  1.00 -0.25    -0.056 A 
HETATM    4  C   MOL     1     -44.018   1.041  18.260  1.00 -0.33     0.007 A 
HETATM    5  C   MOL     1     -43.133   1.157  19.308  1.00 -0.34     0.001 A 
HETATM    6  C   MOL     1     -42.576   0.028  19.864  1.00 -0.27     0.000 A 
ENDROOT
BRANCH   3   7
HETATM    7  C   MOL     1     -45.329  -0.328  16.604  1.00 -0.43     0.074 C 
BRANCH   7   8
HETATM    8  C   MOL     1     -45.364  -1.716  15.927  1.00 -0.43     0.216 C 
BRANCH   8   9
HETATM    9  N   MOL     1     -44.417  -1.716  14.757  1.00  0.05    -0.072 N 
HETATM   10  H   MOL     1     -43.811  -1.041  14.813  1.00 -0.64     0.274 HD
HETATM   11  H   MOL     1     -43.944  -2.493  14.708  1.00 -0.76     0.274 HD
HETATM   12  H   MOL     1     -44.848  -1.629  13.963  1.00 -0.15     0.274 HD
ENDBRANCH   8   9
BRANCH   8  13
HETATM   13  C   MOL     1     -46.807  -2.051  15.482  1.00 -0.29     0.150 C 
BRANCH  13  14
HETATM   14  O   MOL     1     -46.780  -2.823  14.268  1.00  0.06    -0.393 OA
HETATM   15  H   MOL     1     -46.351  -3.720  14.416  1.00 -0.27     0.210 HD
ENDBRANCH  13  14
BRANCH  13  16
HETATM   16  C   MOL     1     -47.634  -0.768  15.250  1.00 -0.14     0.054 C 
BRANCH  16  17
HETATM   17  C   MOL     1     -49.048  -0.882  15.862  1.00 -0.12     0.073 C 
BRANCH  17  18
HETATM   18  C   MOL     1     -50.030  -1.411  14.792  1.00 -0.13     0.058 C 
BRANCH  18  19
HETATM   19  C   MOL     1     -50.673  -2.755  15.100  1.00 -0.16    -0.057 A 
HETATM   20  C   MOL     1     -50.020  -3.927  14.785  1.00 -0.21     0.007 A 
HETATM   21  C   MOL     1     -50.602  -5.144  15.060  1.00 -0.25     0.001 A 
HETATM   22  C   MOL     1     -51.843  -5.194  15.650  1.00 -0.37     0.000 A 
HETATM   23  C   MOL     1     -52.501  -4.026  15.967  1.00 -0.40     0.001 A 
HETATM   24  C   MOL     1     -51.916  -2.811  15.692  1.00 -0.21     0.007 A 
ENDBRANCH  18  19
ENDBRANCH  17  18
BRANCH  17  25
HETATM   25  N   MOL     1     -49.020  -1.808  17.002  1.00  0.15    -0.221 NA
HETATM   26  H   MOL     1     -48.084  -2.222  17.099  1.00  0.32     0.134 HD
BRANCH  25  27
HETATM   27  P   MOL     1     -49.469  -1.193  18.304  1.00  0.09     0.413 P 
HETATM   28  O   MOL     1     -48.424  -1.354  19.377  1.00  0.07    -0.239 OA
BRANCH  27  29
HETATM   29  O   MOL     1     -50.866  -1.818  18.795  1.00  0.12    -0.299 OA
BRANCH  29  30
HETATM   30  C   MOL     1     -51.494  -1.278  19.967  1.00 -0.20     0.214 C 
BRANCH  30  31
HETATM   31  C   MOL     1     -51.560  -2.353  21.064  1.00 -0.04     0.180 C 
HETATM   32  O   MOL     1     -50.378  -3.171  21.069  1.00  0.26    -0.347 OA
HETATM   33  C   MOL     1     -50.705  -4.520  21.449  1.00 -0.04     0.222 C 
HETATM   34  C   MOL     1     -52.238  -4.548  21.656  1.00 -0.10     0.205 C 
HETATM   35  C   MOL     1     -50.018  -4.824  22.711  1.00 -0.21     0.107 C 
HETATM   36  C   MOL     1     -52.740  -3.319  20.886  1.00 -0.06     0.182 C 
HETATM   37  N   MOL     1     -49.486  -5.059  23.688  1.00  0.07    -0.193 NA
BRANCH  33  38
HETATM   38  C   MOL     1     -50.169  -5.396  20.322  1.00 -0.19     0.088 A 
HETATM   39  N   MOL     1     -50.032  -6.734  20.482  1.00 -0.03    -0.229 N 
HETATM   40  C   MOL     1     -49.534  -7.186  19.300  1.00 -0.22     0.104 A 
HETATM   41  N   MOL     1     -50.280  -7.590  21.516  1.00  0.23    -0.160 NA
HETATM   42  C   MOL     1     -49.360  -6.168  18.419  1.00 -0.37     0.038 A 
HETATM   43  C   MOL     1     -49.288  -8.578  19.179  1.00 -0.44     0.151 A 
HETATM   44  C   MOL     1     -49.771  -5.013  19.089  1.00 -0.17     0.034 A 
HETATM   45  N   MOL     1     -49.526  -9.431  20.184  1.00 -0.19    -0.221 NA
HETATM   46  C   MOL     1     -50.024  -8.863  21.330  1.00 -0.33     0.258 A 
BRANCH  43  47
HETATM   47  N   MOL     1     -48.789  -9.108  18.012  1.00 -0.25    -0.382 N 
HETATM   48  H   MOL     1     -48.638  -9.973  17.955  1.00 -0.27     0.157 HD
HETATM   49  H   MOL     1     -48.621  -8.588  17.322  1.00 -0.19     0.157 HD
ENDBRANCH  43  47
ENDBRANCH  33  38
BRANCH  34  50
HETATM   50  O   MOL     1     -52.856  -5.758  21.193  1.00  0.41    -0.388 OA
HETATM   51  H   MOL     1     -52.259  -6.554  21.341  1.00 -0.42     0.210 HD
ENDBRANCH  34  50
BRANCH  36  52
HETATM   52  O   MOL     1     -52.945  -3.665  19.507  1.00  0.07    -0.390 OA
HETATM   53  H   MOL     1     -53.829  -4.129  19.374  1.00 -0.09     0.210 HD
ENDBRANCH  36  52
ENDBRANCH  30  31
ENDBRANCH  29  30
ENDBRANCH  27  29
BRANCH  27  54
HETATM   54  O   MOL     1     -49.824   0.366  18.091  1.00  0.13    -0.260 OA
BRANCH  54  55
HETATM   55  C   MOL     1     -49.198   1.359  18.793  1.00 -0.29     0.080 A 
HETATM   56  C   MOL     1     -49.894   2.207  19.635  1.00 -0.28     0.037 A 
HETATM   57  C   MOL     1     -49.235   3.193  20.330  1.00 -0.40     0.003 A 
HETATM   58  C   MOL     1     -47.874   3.341  20.192  1.00 -0.35     0.000 A 
HETATM   59  C   MOL     1     -47.173   2.502  19.355  1.00 -0.47     0.003 A 
HETATM   60  C   MOL     1     -47.832   1.518  18.658  1.00 -0.37     0.037 A 
ENDBRANCH  54  55
ENDBRANCH  27  54
ENDBRANCH  25  27
ENDBRANCH  17  25
ENDBRANCH  16  17
ENDBRANCH  13  16
ENDBRANCH   8  13
ENDBRANCH   7   8
ENDBRANCH   3   7
TORSDOF 20
ENDMDL
MODEL 9
REMARK VINA RESULT:      -7.8      9.187     13.573
REMARK  20 active torsions:
REMARK  status: ('A' for Active; 'I' for Inactive)
REMARK    1  A    between atoms: C_3  and  C_7 
REMARK    2  A    between atoms: C_7  and  C_8 
REMARK    3  A    between atoms: C_8  and  N_9 
REMARK    4  A    between atoms: C_8  and  C_10 
REMARK    5  A    between atoms: C_10  and  O_11 
REMARK    6  A    between atoms: C_10  and  C_12 
REMARK    7  A    between atoms: C_12  and  C_13 
REMARK    8  A    between atoms: C_13  and  C_14 
REMARK    9  A    between atoms: C_13  and  N_21 
REMARK   10  A    between atoms: C_14  and  C_15 
REMARK   11  A    between atoms: N_21  and  P_22 
REMARK   12  A    between atoms: P_22  and  O_23 
REMARK   13  A    between atoms: P_22  and  O_24 
REMARK   14  A    between atoms: O_23  and  C_26 
REMARK   15  A    between atoms: O_24  and  C_27 
REMARK   16  A    between atoms: C_26  and  C_33 
REMARK   17  A    between atoms: C_35  and  C_40 
REMARK   18  A    between atoms: C_36  and  O_39 
REMARK   19  A    between atoms: C_37  and  O_38 
REMARK   20  A    between atoms: C_50  and  N_51 
ROOT
HETATM    1  C   MOL     1     -43.979  -9.568  21.009  1.00 -0.25     0.001 A 
HETATM    2  C   MOL     1     -44.690 -10.670  21.428  1.00 -0.30     0.007 A 
HETATM    3  C   MOL     1     -45.232 -11.540  20.507  1.00 -0.25    -0.056 A 
HETATM    4  C   MOL     1     -45.056 -11.298  19.162  1.00 -0.33     0.007 A 
HETATM    5  C   MOL     1     -44.346 -10.196  18.741  1.00 -0.34     0.001 A 
HETATM    6  C   MOL     1     -43.808  -9.331  19.666  1.00 -0.27     0.000 A 
ENDROOT
BRANCH   3   7
HETATM    7  C   MOL     1     -46.015 -12.760  20.972  1.00 -0.43     0.074 C 
BRANCH   7   8
HETATM    8  C   MOL     1     -46.098 -13.914  19.948  1.00 -0.43     0.216 C 
BRANCH   8   9
HETATM    9  N   MOL     1     -47.474 -14.521  20.002  1.00  0.05    -0.072 N 
HETATM   10  H   MOL     1     -47.907 -14.449  19.206  1.00 -0.64     0.274 HD
HETATM   11  H   MOL     1     -47.442 -15.407  20.208  1.00 -0.76     0.274 HD
HETATM   12  H   MOL     1     -48.000 -14.132  20.632  1.00 -0.15     0.274 HD
ENDBRANCH   8   9
BRANCH   8  13
HETATM   13  C   MOL     1     -45.007 -14.967  20.249  1.00 -0.29     0.150 C 
BRANCH  13  14
HETATM   14  O   MOL     1     -45.510 -16.287  19.977  1.00  0.06    -0.393 OA
HETATM   15  H   MOL     1     -45.426 -16.515  19.001  1.00 -0.27     0.210 HD
ENDBRANCH  13  14
BRANCH  13  16
HETATM   16  C   MOL     1     -44.547 -14.893  21.721  1.00 -0.14     0.054 C 
BRANCH  16  17
HETATM   17  C   MOL     1     -43.011 -15.009  21.846  1.00 -0.12     0.073 C 
BRANCH  17  18
HETATM   18  C   MOL     1     -42.443 -13.703  22.446  1.00 -0.13     0.058 C 
BRANCH  18  19
HETATM   19  C   MOL     1     -41.762 -12.769  21.457  1.00 -0.16    -0.057 A 
HETATM   20  C   MOL     1     -41.025 -11.696  21.910  1.00 -0.21     0.007 A 
HETATM   21  C   MOL     1     -40.411 -10.847  21.017  1.00 -0.25     0.001 A 
HETATM   22  C   MOL     1     -40.532 -11.067  19.665  1.00 -0.37     0.000 A 
HETATM   23  C   MOL     1     -41.268 -12.138  19.206  1.00 -0.40     0.001 A 
HETATM   24  C   MOL     1     -41.880 -12.985  20.102  1.00 -0.21     0.007 A 
ENDBRANCH  18  19
ENDBRANCH  17  18
BRANCH  17  25
HETATM   25  N   MOL     1     -42.670 -16.139  22.721  1.00  0.15    -0.221 NA
HETATM   26  H   MOL     1     -43.494 -16.427  23.265  1.00  0.32     0.134 HD
BRANCH  25  27
HETATM   27  P   MOL     1     -42.069 -17.318  21.998  1.00  0.09     0.413 P 
HETATM   28  O   MOL     1     -42.466 -17.333  20.545  1.00  0.07    -0.239 OA
BRANCH  27  29
HETATM   29  O   MOL     1     -42.482 -18.705  22.698  1.00  0.12    -0.299 OA
BRANCH  29  30
HETATM   30  C   MOL     1     -43.099 -19.727  21.902  1.00 -0.20     0.214 C 
BRANCH  30  31
HETATM   31  C   MOL     1     -44.623 -19.530  21.894  1.00 -0.04     0.180 C 
HETATM   32  O   MOL     1     -44.989 -18.248  22.431  1.00  0.26    -0.347 OA
HETATM   33  C   MOL     1     -46.245 -18.339  23.131  1.00 -0.04     0.222 C 
HETATM   34  C   MOL     1     -46.671 -19.824  23.054  1.00 -0.10     0.205 C 
HETATM   35  C   MOL     1     -47.223 -17.494  22.435  1.00 -0.21     0.107 C 
HETATM   36  C   MOL     1     -45.368 -20.571  22.742  1.00 -0.06     0.182 C 
HETATM   37  N   MOL     1     -47.981 -16.840  21.895  1.00  0.07    -0.193 NA
BRANCH  33  38
HETATM   38  C   MOL     1     -45.965 -17.798  24.529  1.00 -0.19     0.088 A 
HETATM   39  N   MOL     1     -46.976 -17.407  25.341  1.00 -0.03    -0.229 N 
HETATM   40  C   MOL     1     -46.374 -16.985  26.484  1.00 -0.22     0.104 A 
HETATM   41  N   MOL     1     -48.335 -17.373  25.206  1.00  0.23    -0.160 NA
HETATM   42  C   MOL     1     -45.023 -17.102  26.400  1.00 -0.37     0.038 A 
HETATM   43  C   MOL     1     -47.206 -16.513  27.532  1.00 -0.44     0.151 A 
HETATM   44  C   MOL     1     -44.767 -17.627  25.130  1.00 -0.17     0.034 A 
HETATM   45  N   MOL     1     -48.540 -16.472  27.415  1.00 -0.19    -0.221 NA
HETATM   46  C   MOL     1     -49.038 -16.920  26.217  1.00 -0.33     0.258 A 
BRANCH  43  47
HETATM   47  N   MOL     1     -46.667 -16.074  28.718  1.00 -0.25    -0.382 N 
HETATM   48  H   MOL     1     -45.825 -15.820  28.748  1.00 -0.27     0.157 HD
HETATM   49  H   MOL     1     -47.160 -16.044  29.448  1.00 -0.19     0.157 HD
ENDBRANCH  43  47
ENDBRANCH  33  38
BRANCH  34  50
HETATM   50  O   MOL     1     -47.288 -20.306  24.258  1.00  0.41    -0.388 OA
HETATM   51  H   MOL     1     -47.839 -21.129  24.084  1.00 -0.42     0.210 HD
ENDBRANCH  34  50
BRANCH  36  52
HETATM   52  O   MOL     1     -44.673 -20.860  23.965  1.00  0.07    -0.390 OA
HETATM   53  H   MOL     1     -44.328 -21.805  23.975  1.00 -0.09     0.210 HD
ENDBRANCH  36  52
ENDBRANCH  30  31
ENDBRANCH  29  30
ENDBRANCH  27  29
BRANCH  27  54
HETATM   54  O   MOL     1     -40.463 -17.301  22.145  1.00  0.13    -0.260 OA
BRANCH  54  55
HETATM   55  C   MOL     1     -39.711 -16.211  21.806  1.00 -0.29     0.080 A 
HETATM   56  C   MOL     1     -39.119 -15.407  22.763  1.00 -0.28     0.037 A 
HETATM   57  C   MOL     1     -38.365 -14.319  22.389  1.00 -0.40     0.003 A 
HETATM   58  C   MOL     1     -38.194 -14.026  21.055  1.00 -0.35     0.000 A 
HETATM   59  C   MOL     1     -38.780 -14.821  20.096  1.00 -0.47     0.003 A 
HETATM   60  C   MOL     1     -39.536 -15.906  20.470  1.00 -0.37     0.037 A 
ENDBRANCH  54  55
ENDBRANCH  27  54
ENDBRANCH  25  27
ENDBRANCH  17  25
ENDBRANCH  16  17
ENDBRANCH  13  16
ENDBRANCH   8  13
ENDBRANCH   7   8
ENDBRANCH   3   7
TORSDOF 20
ENDMDL
MODEL 10
REMARK VINA RESULT:      -7.7      2.379      4.635
REMARK  20 active torsions:
REMARK  status: ('A' for Active; 'I' for Inactive)
REMARK    1  A    between atoms: C_3  and  C_7 
REMARK    2  A    between atoms: C_7  and  C_8 
REMARK    3  A    between atoms: C_8  and  N_9 
REMARK    4  A    between atoms: C_8  and  C_10 
REMARK    5  A    between atoms: C_10  and  O_11 
REMARK    6  A    between atoms: C_10  and  C_12 
REMARK    7  A    between atoms: C_12  and  C_13 
REMARK    8  A    between atoms: C_13  and  C_14 
REMARK    9  A    between atoms: C_13  and  N_21 
REMARK   10  A    between atoms: C_14  and  C_15 
REMARK   11  A    between atoms: N_21  and  P_22 
REMARK   12  A    between atoms: P_22  and  O_23 
REMARK   13  A    between atoms: P_22  and  O_24 
REMARK   14  A    between atoms: O_23  and  C_26 
REMARK   15  A    between atoms: O_24  and  C_27 
REMARK   16  A    between atoms: C_26  and  C_33 
REMARK   17  A    between atoms: C_35  and  C_40 
REMARK   18  A    between atoms: C_36  and  O_39 
REMARK   19  A    between atoms: C_37  and  O_38 
REMARK   20  A    between atoms: C_50  and  N_51 
ROOT
HETATM    1  C   MOL     1     -43.138  -1.478  18.929  1.00 -0.25     0.001 A 
HETATM    2  C   MOL     1     -44.254  -1.826  18.201  1.00 -0.30     0.007 A 
HETATM    3  C   MOL     1     -45.131  -0.858  17.766  1.00 -0.25    -0.056 A 
HETATM    4  C   MOL     1     -44.883   0.465  18.065  1.00 -0.33     0.007 A 
HETATM    5  C   MOL     1     -43.768   0.815  18.793  1.00 -0.34     0.001 A 
HETATM    6  C   MOL     1     -42.896  -0.157  19.225  1.00 -0.27     0.000 A 
ENDROOT
BRANCH   3   7
HETATM    7  C   MOL     1     -46.362  -1.244  16.959  1.00 -0.43     0.074 C 
BRANCH   7   8
HETATM    8  C   MOL     1     -46.384  -2.705  16.458  1.00 -0.43     0.216 C 
BRANCH   8   9
HETATM    9  N   MOL     1     -46.212  -2.715  14.962  1.00  0.05    -0.072 N 
HETATM   10  H   MOL     1     -46.200  -3.560  14.628  1.00 -0.64     0.274 HD
HETATM   11  H   MOL     1     -46.890  -2.274  14.544  1.00 -0.76     0.274 HD
HETATM   12  H   MOL     1     -45.444  -2.308  14.699  1.00 -0.15     0.274 HD
ENDBRANCH   8   9
BRANCH   8  13
HETATM   13  C   MOL     1     -47.707  -3.388  16.876  1.00 -0.29     0.150 C 
BRANCH  13  14
HETATM   14  O   MOL     1     -48.438  -3.800  15.707  1.00  0.06    -0.393 OA
HETATM   15  H   MOL     1     -47.873  -3.727  14.879  1.00 -0.27     0.210 HD
ENDBRANCH  13  14
BRANCH  13  16
HETATM   16  C   MOL     1     -48.587  -2.438  17.717  1.00 -0.14     0.054 C 
BRANCH  16  17
HETATM   17  C   MOL     1     -49.607  -3.217  18.576  1.00 -0.12     0.073 C 
BRANCH  17  18
HETATM   18  C   MOL     1     -51.028  -2.668  18.312  1.00 -0.13     0.058 C 
BRANCH  18  19
HETATM   19  C   MOL     1     -51.822  -3.392  17.236  1.00 -0.16    -0.057 A 
HETATM   20  C   MOL     1     -51.639  -3.077  15.907  1.00 -0.21     0.007 A 
HETATM   21  C   MOL     1     -52.360  -3.730  14.932  1.00 -0.25     0.001 A 
HETATM   22  C   MOL     1     -53.268  -4.701  15.282  1.00 -0.37     0.000 A 
HETATM   23  C   MOL     1     -53.455  -5.020  16.609  1.00 -0.40     0.001 A 
HETATM   24  C   MOL     1     -52.733  -4.366  17.582  1.00 -0.21     0.007 A 
ENDBRANCH  18  19
ENDBRANCH  17  18
BRANCH  17  25
HETATM   25  N   MOL     1     -49.561  -4.643  18.228  1.00  0.15    -0.221 NA
HETATM   26  H   MOL     1     -48.759  -4.832  17.614  1.00  0.32     0.134 HD
BRANCH  25  27
HETATM   27  P   MOL     1     -49.550  -5.567  19.419  1.00  0.09     0.413 P 
HETATM   28  O   MOL     1     -49.489  -4.797  20.712  1.00  0.07    -0.239 OA
BRANCH  27  29
HETATM   29  O   MOL     1     -48.329  -6.610  19.339  1.00  0.12    -0.299 OA
BRANCH  29  30
HETATM   30  C   MOL     1     -48.046  -7.435  20.479  1.00 -0.20     0.214 C 
BRANCH  30  31
HETATM   31  C   MOL     1     -46.615  -7.988  20.377  1.00 -0.04     0.180 C 
HETATM   32  O   MOL     1     -46.517  -9.008  19.368  1.00  0.26    -0.347 OA
HETATM   33  C   MOL     1     -45.552 -10.004  19.758  1.00 -0.04     0.222 C 
HETATM   34  C   MOL     1     -45.040  -9.582  21.155  1.00 -0.10     0.205 C 
HETATM   35  C   MOL     1     -44.451  -9.984  18.786  1.00 -0.21     0.107 C 
HETATM   36  C   MOL     1     -46.127  -8.635  21.681  1.00 -0.06     0.182 C 
HETATM   37  N   MOL     1     -43.598  -9.968  18.035  1.00  0.07    -0.193 NA
BRANCH  33  38
HETATM   38  C   MOL     1     -46.300 -11.331  19.695  1.00 -0.19     0.088 A 
HETATM   39  N   MOL     1     -45.650 -12.507  19.867  1.00 -0.03    -0.229 N 
HETATM   40  C   MOL     1     -46.607 -13.465  19.746  1.00 -0.22     0.104 A 
HETATM   41  N   MOL     1     -44.347 -12.838  20.107  1.00  0.23    -0.160 NA
HETATM   42  C   MOL     1     -47.825 -12.916  19.504  1.00 -0.37     0.038 A 
HETATM   43  C   MOL     1     -46.205 -14.819  19.884  1.00 -0.44     0.151 A 
HETATM   44  C   MOL     1     -47.617 -11.534  19.470  1.00 -0.17     0.034 A 
HETATM   45  N   MOL     1     -44.930 -15.160  20.121  1.00 -0.19    -0.221 NA
HETATM   46  C   MOL     1     -44.051 -14.111  20.220  1.00 -0.33     0.258 A 
BRANCH  43  47
HETATM   47  N   MOL     1     -47.118 -15.842  19.779  1.00 -0.25    -0.382 N 
HETATM   48  H   MOL     1     -47.128 -16.482  20.382  1.00 -0.27     0.157 HD
HETATM   49  H   MOL     1     -47.693 -15.859  19.112  1.00 -0.19     0.157 HD
ENDBRANCH  43  47
ENDBRANCH  33  38
BRANCH  34  50
HETATM   50  O   MOL     1     -44.820 -10.689  22.043  1.00  0.41    -0.388 OA
HETATM   51  H   MOL     1     -43.961 -11.166  21.828  1.00 -0.42     0.210 HD
ENDBRANCH  34  50
BRANCH  36  52
HETATM   52  O   MOL     1     -47.163  -9.398  22.319  1.00  0.07    -0.390 OA
HETATM   53  H   MOL     1     -47.897  -9.632  21.671  1.00 -0.09     0.210 HD
ENDBRANCH  36  52
ENDBRANCH  30  31
ENDBRANCH  29  30
ENDBRANCH  27  29
BRANCH  27  54
HETATM   54  O   MOL     1     -50.848  -6.525  19.393  1.00  0.13    -0.260 OA
BRANCH  54  55
HETATM   55  C   MOL     1     -51.623  -6.734  20.500  1.00 -0.29     0.080 A 
HETATM   56  C   MOL     1     -52.462  -5.754  20.998  1.00 -0.28     0.037 A 
HETATM   57  C   MOL     1     -53.232  -5.997  22.111  1.00 -0.40     0.003 A 
HETATM   58  C   MOL     1     -53.172  -7.221  22.737  1.00 -0.35     0.000 A 
HETATM   59  C   MOL     1     -52.339  -8.202  22.248  1.00 -0.47     0.003 A 
HETATM   60  C   MOL     1     -51.567  -7.958  21.137  1.00 -0.37     0.037 A 
ENDBRANCH  54  55
ENDBRANCH  27  54
ENDBRANCH  25  27
ENDBRANCH  17  25
ENDBRANCH  16  17
ENDBRANCH  13  16
ENDBRANCH   8  13
ENDBRANCH   7   8
ENDBRANCH   3   7
TORSDOF 20
ENDMDL
