MODEL 1
REMARK VINA RESULT:      -7.5      0.000      0.000
REMARK  13 active torsions:
REMARK  status: ('A' for Active; 'I' for Inactive)
REMARK    1  A    between atoms: C_5  and  N_6 
REMARK    2  A    between atoms: C_9  and  N_10 
REMARK    3  A    between atoms: N_10  and  C_11 
REMARK    4  A    between atoms: C_11  and  C_12 
REMARK    5  A    between atoms: C_12  and  C_13 
REMARK    6  A    between atoms: C_13  and  C_14 
REMARK    7  A    between atoms: C_14  and  C_15 
REMARK    8  A    between atoms: C_15  and  C_16 
REMARK    9  A    between atoms: C_16  and  N_17 
REMARK       I    between atoms: N_17  and  C_18 
REMARK   10  A    between atoms: C_18  and  C_20 
REMARK   11  A    between atoms: C_25  and  N_26 
REMARK       I    between atoms: N_26  and  C_27 
REMARK   12  A    between atoms: C_27  and  C_29 
REMARK   13  A    between atoms: C_29  and  C_30 
ROOT
HETATM    1  O   MOL     1     -50.720  -9.103  22.640  1.00 -0.03    -0.273 OA
HETATM    2  C   MOL     1     -49.680  -9.244  22.021  1.00 -0.41     0.224 C 
HETATM    3  C   MOL     1     -48.348  -8.830  22.604  1.00 -0.27     0.106 C 
HETATM    4  C   MOL     1     -47.200  -9.708  22.098  1.00 -0.23     0.044 C 
HETATM    5  C   MOL     1     -47.224  -9.582  20.572  1.00 -0.30     0.180 C 
HETATM    6  C   MOL     1     -48.554 -10.018  19.998  1.00 -0.49     0.247 C 
HETATM    7  O   MOL     1     -48.635 -10.545  18.901  1.00 -0.12    -0.271 OA
HETATM    8  N   MOL     1     -49.630  -9.784  20.782  1.00 -0.04    -0.296 N 
HETATM    9  HN  MOL     1     -50.406 -10.027  20.443  1.00 -0.27     0.171 HD
ENDROOT
BRANCH   5  10
HETATM   10  N   MOL     1     -46.108 -10.328  19.969  1.00  0.05    -0.337 N 
HETATM   11  C   MOL     1     -45.892 -11.763  20.222  1.00 -0.25     0.138 C 
HETATM   12  C   MOL     1     -44.376 -11.665  19.970  1.00 -0.27     0.070 C 
HETATM   13  C   MOL     1     -43.442 -12.856  19.927  1.00 -0.20     0.011 C 
HETATM   14  C   MOL     1     -44.266 -10.810  18.705  1.00 -0.40     0.112 C 
HETATM   15  C   MOL     1     -42.252 -12.730  19.318  1.00 -0.28     0.025 C 
HETATM   16  C   MOL     1     -41.874 -11.458  18.702  1.00 -0.47    -0.001 C 
HETATM   17  C   MOL     1     -42.809 -10.555  18.413  1.00 -0.52    -0.012 C 
HETATM   18  C   MOL     1     -45.211  -9.737  19.165  1.00 -0.44     0.229 C 
HETATM   19  O   MOL     1     -45.163  -8.552  18.863  1.00 -0.63    -0.273 OA
BRANCH  13  20
HETATM   20  N   MOL     1     -43.928 -13.960  20.566  1.00  0.04    -0.393 N 
HETATM   21  HN  MOL     1     -44.323 -14.583  20.084  1.00 -0.01     0.159 HD
BRANCH  20  22
HETATM   22  C   MOL     1     -43.395 -14.345  21.880  1.00 -0.24     0.119 C 
BRANCH  22  23
HETATM   23  C   MOL     1     -44.370 -15.169  22.737  1.00 -0.09     0.020 C 
BRANCH  23  24
HETATM   24  C   MOL     1     -43.643 -16.443  23.193  1.00 -0.19     0.002 C 
BRANCH  24  25
HETATM   25  C   MOL     1     -43.695 -17.513  22.092  1.00 -0.35     0.002 C 
BRANCH  25  26
HETATM   26  C   MOL     1     -43.186 -18.837  22.679  1.00 -0.42     0.020 C 
BRANCH  26  27
HETATM   27  C   MOL     1     -43.789 -20.022  21.911  1.00 -0.29     0.123 C 
BRANCH  27  28
HETATM   28  N   MOL     1     -44.107 -19.580  20.545  1.00 -0.04    -0.357 N 
HETATM   29  C   MOL     1     -45.167 -20.109  19.895  1.00 -0.29     0.254 C 
HETATM   30  O   MOL     1     -45.898 -20.960  20.397  1.00 -0.19    -0.268 OA
HETATM   31  HN  MOL     1     -43.614 -18.958  20.168  1.00 -0.09     0.162 HD
BRANCH  29  32
HETATM   32  C   MOL     1     -45.488 -19.677  18.506  1.00 -0.21     0.061 A 
HETATM   33  C   MOL     1     -44.793 -20.191  17.428  1.00 -0.36     0.038 A 
HETATM   34  C   MOL     1     -45.107 -19.811  16.148  1.00 -0.38     0.117 A 
HETATM   35  N   MOL     1     -46.084 -18.936  15.845  1.00 -0.12    -0.271 NA
HETATM   36  C   MOL     1     -46.756 -18.438  16.895  1.00 -0.27     0.146 A 
HETATM   37  C   MOL     1     -46.500 -18.766  18.216  1.00 -0.14     0.068 A 
BRANCH  37  38
HETATM   38  N   MOL     1     -47.248 -18.175  19.242  1.00  0.07    -0.325 N 
HETATM   39  C   MOL     1     -46.904 -17.073  19.939  1.00 -0.29     0.226 C 
HETATM   40  O   MOL     1     -45.892 -16.414  19.746  1.00 -0.10    -0.273 OA
HETATM   41  HN  MOL     1     -48.011 -18.560  19.445  1.00  0.05     0.169 HD
BRANCH  39  42
HETATM   42  C   MOL     1     -47.925 -16.690  20.990  1.00 -0.34     0.141 C 
BRANCH  42  43
HETATM   43  C   MOL     1     -47.524 -17.247  22.344  1.00 -0.21    -0.048 A 
HETATM   44  C   MOL     1     -47.450 -16.416  23.440  1.00 -0.31     0.007 A 
HETATM   45  C   MOL     1     -47.087 -16.921  24.667  1.00 -0.36     0.002 A 
HETATM   46  C   MOL     1     -46.797 -18.260  24.803  1.00 -0.30     0.024 A 
HETATM   47  C   MOL     1     -46.871 -19.094  23.710  1.00 -0.25     0.034 A 
HETATM   48 CL   MOL     1     -46.505 -20.785  23.879  1.00 -0.85    -0.084 Cl
HETATM   49  C   MOL     1     -47.235 -18.586  22.481  1.00 -0.22     0.031 A 
ENDBRANCH  42  43
ENDBRANCH  39  42
ENDBRANCH  37  38
ENDBRANCH  29  32
ENDBRANCH  27  28
ENDBRANCH  26  27
ENDBRANCH  25  26
ENDBRANCH  24  25
ENDBRANCH  23  24
ENDBRANCH  22  23
ENDBRANCH  20  22
ENDBRANCH  13  20
ENDBRANCH   5  10
TORSDOF 13
ENDMDL
MODEL 2
REMARK VINA RESULT:      -7.4      6.671     13.288
REMARK  13 active torsions:
REMARK  status: ('A' for Active; 'I' for Inactive)
REMARK    1  A    between atoms: C_5  and  N_6 
REMARK    2  A    between atoms: C_9  and  N_10 
REMARK    3  A    between atoms: N_10  and  C_11 
REMARK    4  A    between atoms: C_11  and  C_12 
REMARK    5  A    between atoms: C_12  and  C_13 
REMARK    6  A    between atoms: C_13  and  C_14 
REMARK    7  A    between atoms: C_14  and  C_15 
REMARK    8  A    between atoms: C_15  and  C_16 
REMARK    9  A    between atoms: C_16  and  N_17 
REMARK       I    between atoms: N_17  and  C_18 
REMARK   10  A    between atoms: C_18  and  C_20 
REMARK   11  A    between atoms: C_25  and  N_26 
REMARK       I    between atoms: N_26  and  C_27 
REMARK   12  A    between atoms: C_27  and  C_29 
REMARK   13  A    between atoms: C_29  and  C_30 
ROOT
HETATM    1  O   MOL     1     -41.525 -11.592  19.928  1.00 -0.03    -0.273 OA
HETATM    2  C   MOL     1     -42.626 -11.108  20.121  1.00 -0.41     0.224 C 
HETATM    3  C   MOL     1     -42.823  -9.927  21.044  1.00 -0.27     0.106 C 
HETATM    4  C   MOL     1     -43.991  -9.040  20.603  1.00 -0.23     0.044 C 
HETATM    5  C   MOL     1     -45.218  -9.955  20.574  1.00 -0.30     0.180 C 
HETATM    6  C   MOL     1     -45.019 -11.123  19.633  1.00 -0.49     0.247 C 
HETATM    7  O   MOL     1     -45.950 -11.613  19.016  1.00 -0.12    -0.271 OA
HETATM    8  N   MOL     1     -43.749 -11.575  19.527  1.00 -0.04    -0.296 N 
HETATM    9  HN  MOL     1     -43.635 -12.262  18.989  1.00 -0.27     0.171 HD
ENDROOT
BRANCH   5  10
HETATM   10  N   MOL     1     -46.430  -9.193  20.235  1.00  0.05    -0.337 N 
HETATM   11  C   MOL     1     -47.659  -9.267  21.045  1.00 -0.25     0.138 C 
HETATM   12  C   MOL     1     -48.567  -8.919  19.851  1.00 -0.27     0.070 C 
HETATM   13  C   MOL     1     -50.057  -8.675  19.959  1.00 -0.20     0.011 C 
HETATM   14  C   MOL     1     -47.848  -7.755  19.165  1.00 -0.40     0.112 C 
HETATM   15  C   MOL     1     -50.680  -8.001  18.979  1.00 -0.28     0.025 C 
HETATM   16  C   MOL     1     -49.920  -7.507  17.830  1.00 -0.47    -0.001 C 
HETATM   17  C   MOL     1     -48.595  -7.389  17.909  1.00 -0.52    -0.012 C 
HETATM   18  C   MOL     1     -46.491  -8.399  19.155  1.00 -0.44     0.229 C 
HETATM   19  O   MOL     1     -45.616  -8.231  18.317  1.00 -0.63    -0.273 OA
BRANCH  13  20
HETATM   20  N   MOL     1     -50.625  -9.219  21.074  1.00  0.04    -0.393 N 
HETATM   21  HN  MOL     1     -50.544 -10.087  21.204  1.00 -0.01     0.159 HD
BRANCH  20  22
HETATM   22  C   MOL     1     -50.912  -8.375  22.243  1.00 -0.24     0.119 C 
BRANCH  22  23
HETATM   23  C   MOL     1     -52.378  -8.414  22.701  1.00 -0.09     0.020 C 
BRANCH  23  24
HETATM   24  C   MOL     1     -53.072  -7.144  22.187  1.00 -0.19     0.002 C 
BRANCH  24  25
HETATM   25  C   MOL     1     -52.040  -6.037  21.928  1.00 -0.35     0.002 C 
BRANCH  25  26
HETATM   26  C   MOL     1     -52.794  -4.731  21.638  1.00 -0.42     0.020 C 
BRANCH  26  27
HETATM   27  C   MOL     1     -51.841  -3.698  21.019  1.00 -0.29     0.123 C 
BRANCH  27  28
HETATM   28  N   MOL     1     -51.458  -4.161  19.677  1.00 -0.04    -0.357 N 
HETATM   29  C   MOL     1     -51.523  -3.312  18.627  1.00 -0.29     0.254 C 
HETATM   30  O   MOL     1     -51.894  -2.146  18.736  1.00 -0.19    -0.268 OA
HETATM   31  HN  MOL     1     -51.169  -4.984  19.571  1.00 -0.09     0.162 HD
BRANCH  29  32
HETATM   32  C   MOL     1     -51.149  -3.778  17.262  1.00 -0.21     0.061 A 
HETATM   33  C   MOL     1     -51.905  -4.733  16.609  1.00 -0.36     0.038 A 
HETATM   34  C   MOL     1     -51.574  -5.141  15.342  1.00 -0.38     0.117 A 
HETATM   35  N   MOL     1     -50.522  -4.662  14.652  1.00 -0.12    -0.271 NA
HETATM   36  C   MOL     1     -49.789  -3.735  15.290  1.00 -0.27     0.146 A 
HETATM   37  C   MOL     1     -50.053  -3.272  16.568  1.00 -0.14     0.068 A 
BRANCH  37  38
HETATM   38  N   MOL     1     -49.215  -2.314  17.153  1.00  0.07    -0.325 N 
HETATM   39  C   MOL     1     -49.214  -0.993  16.884  1.00 -0.29     0.226 C 
HETATM   40  O   MOL     1     -49.975  -0.440  16.104  1.00 -0.10    -0.273 OA
HETATM   41  HN  MOL     1     -48.641  -2.606  17.750  1.00  0.05     0.169 HD
BRANCH  39  42
HETATM   42  C   MOL     1     -48.179  -0.224  17.680  1.00 -0.34     0.141 C 
BRANCH  42  43
HETATM   43  C   MOL     1     -46.780  -0.594  17.224  1.00 -0.21    -0.048 A 
HETATM   44  C   MOL     1     -46.460  -0.571  15.885  1.00 -0.31     0.007 A 
HETATM   45  C   MOL     1     -45.190  -0.906  15.472  1.00 -0.36     0.002 A 
HETATM   46  C   MOL     1     -44.236  -1.263  16.397  1.00 -0.30     0.024 A 
HETATM   47  C   MOL     1     -44.553  -1.285  17.737  1.00 -0.25     0.034 A 
HETATM   48 CL   MOL     1     -43.349  -1.736  18.909  1.00 -0.85    -0.084 Cl
HETATM   49  C   MOL     1     -45.824  -0.950  18.150  1.00 -0.22     0.031 A 
ENDBRANCH  42  43
ENDBRANCH  39  42
ENDBRANCH  37  38
ENDBRANCH  29  32
ENDBRANCH  27  28
ENDBRANCH  26  27
ENDBRANCH  25  26
ENDBRANCH  24  25
ENDBRANCH  23  24
ENDBRANCH  22  23
ENDBRANCH  20  22
ENDBRANCH  13  20
ENDBRANCH   5  10
TORSDOF 13
ENDMDL
MODEL 3
REMARK VINA RESULT:      -7.3      5.674      9.553
REMARK  13 active torsions:
REMARK  status: ('A' for Active; 'I' for Inactive)
REMARK    1  A    between atoms: C_5  and  N_6 
REMARK    2  A    between atoms: C_9  and  N_10 
REMARK    3  A    between atoms: N_10  and  C_11 
REMARK    4  A    between atoms: C_11  and  C_12 
REMARK    5  A    between atoms: C_12  and  C_13 
REMARK    6  A    between atoms: C_13  and  C_14 
REMARK    7  A    between atoms: C_14  and  C_15 
REMARK    8  A    between atoms: C_15  and  C_16 
REMARK    9  A    between atoms: C_16  and  N_17 
REMARK       I    between atoms: N_17  and  C_18 
REMARK   10  A    between atoms: C_18  and  C_20 
REMARK   11  A    between atoms: C_25  and  N_26 
REMARK       I    between atoms: N_26  and  C_27 
REMARK   12  A    between atoms: C_27  and  C_29 
REMARK   13  A    between atoms: C_29  and  C_30 
ROOT
HETATM    1  O   MOL     1     -44.725  -0.333  16.773  1.00 -0.03    -0.273 OA
HETATM    2  C   MOL     1     -45.805  -0.835  16.517  1.00 -0.41     0.224 C 
HETATM    3  C   MOL     1     -45.915  -2.125  15.736  1.00 -0.27     0.106 C 
HETATM    4  C   MOL     1     -47.142  -2.944  16.148  1.00 -0.23     0.044 C 
HETATM    5  C   MOL     1     -48.348  -2.029  15.918  1.00 -0.30     0.180 C 
HETATM    6  C   MOL     1     -48.237  -0.750  16.718  1.00 -0.49     0.247 C 
HETATM    7  O   MOL     1     -49.224  -0.182  17.155  1.00 -0.12    -0.271 OA
HETATM    8  N   MOL     1     -46.980  -0.292  16.912  1.00 -0.04    -0.296 N 
HETATM    9  HN  MOL     1     -46.916   0.459  17.368  1.00 -0.27     0.171 HD
ENDROOT
BRANCH   5  10
HETATM   10  N   MOL     1     -49.604  -2.737  16.208  1.00  0.05    -0.337 N 
HETATM   11  C   MOL     1     -49.741  -3.665  17.344  1.00 -0.25     0.138 C 
HETATM   12  C   MOL     1     -50.850  -4.481  16.653  1.00 -0.27     0.070 C 
HETATM   13  C   MOL     1     -51.622  -5.600  17.318  1.00 -0.20     0.011 C 
HETATM   14  C   MOL     1     -51.782  -3.416  16.068  1.00 -0.40     0.112 C 
HETATM   15  C   MOL     1     -52.805  -5.972  16.804  1.00 -0.28     0.025 C 
HETATM   16  C   MOL     1     -53.336  -5.293  15.621  1.00 -0.47    -0.001 C 
HETATM   17  C   MOL     1     -52.863  -4.098  15.270  1.00 -0.52    -0.012 C 
HETATM   18  C   MOL     1     -50.695  -2.591  15.440  1.00 -0.44     0.229 C 
HETATM   19  O   MOL     1     -50.792  -1.921  14.422  1.00 -0.63    -0.273 OA
BRANCH  13  20
HETATM   20  N   MOL     1     -50.982  -6.147  18.392  1.00  0.04    -0.393 N 
HETATM   21  HN  MOL     1     -50.103  -6.096  18.426  1.00 -0.01     0.159 HD
BRANCH  20  22
HETATM   22  C   MOL     1     -51.706  -6.357  19.654  1.00 -0.24     0.119 C 
BRANCH  22  23
HETATM   23  C   MOL     1     -51.635  -7.797  20.187  1.00 -0.09     0.020 C 
BRANCH  23  24
HETATM   24  C   MOL     1     -50.917  -7.767  21.545  1.00 -0.19     0.002 C 
BRANCH  24  25
HETATM   25  C   MOL     1     -50.319  -9.145  21.865  1.00 -0.35     0.002 C 
BRANCH  25  26
HETATM   26  C   MOL     1     -49.115  -8.946  22.797  1.00 -0.42     0.020 C 
BRANCH  26  27
HETATM   27  C   MOL     1     -48.155  -7.905  22.204  1.00 -0.29     0.123 C 
BRANCH  27  28
HETATM   28  N   MOL     1     -47.039  -8.611  21.558  1.00 -0.04    -0.357 N 
HETATM   29  C   MOL     1     -47.048  -8.805  20.221  1.00 -0.29     0.254 C 
HETATM   30  O   MOL     1     -47.960  -8.412  19.497  1.00 -0.19    -0.268 OA
HETATM   31  HN  MOL     1     -46.362  -8.885  22.047  1.00 -0.09     0.162 HD
BRANCH  29  32
HETATM   32  C   MOL     1     -45.927  -9.532  19.561  1.00 -0.21     0.061 A 
HETATM   33  C   MOL     1     -44.892  -8.841  18.961  1.00 -0.36     0.038 A 
HETATM   34  C   MOL     1     -43.849  -9.512  18.377  1.00 -0.38     0.117 A 
HETATM   35  N   MOL     1     -43.749 -10.854  18.340  1.00 -0.12    -0.271 NA
HETATM   36  C   MOL     1     -44.756 -11.522  18.924  1.00 -0.27     0.146 A 
HETATM   37  C   MOL     1     -45.846 -10.921  19.531  1.00 -0.14     0.068 A 
BRANCH  37  38
HETATM   38  N   MOL     1     -46.856 -11.710  20.096  1.00  0.07    -0.325 N 
HETATM   39  C   MOL     1     -46.768 -12.403  21.250  1.00 -0.29     0.226 C 
HETATM   40  O   MOL     1     -45.791 -12.414  21.983  1.00 -0.10    -0.273 OA
HETATM   41  HN  MOL     1     -47.615 -11.752  19.656  1.00  0.05     0.169 HD
BRANCH  39  42
HETATM   42  C   MOL     1     -48.034 -13.165  21.585  1.00 -0.34     0.141 C 
BRANCH  42  43
HETATM   43  C   MOL     1     -47.736 -14.645  21.737  1.00 -0.21    -0.048 A 
HETATM   44  C   MOL     1     -47.617 -15.201  22.992  1.00 -0.31     0.007 A 
HETATM   45  C   MOL     1     -47.347 -16.544  23.130  1.00 -0.36     0.002 A 
HETATM   46  C   MOL     1     -47.196 -17.335  22.013  1.00 -0.30     0.024 A 
HETATM   47  C   MOL     1     -47.315 -16.782  20.758  1.00 -0.25     0.034 A 
HETATM   48 CL   MOL     1     -47.125 -17.779  19.346  1.00 -0.85    -0.084 Cl
HETATM   49  C   MOL     1     -47.586 -15.438  20.621  1.00 -0.22     0.031 A 
ENDBRANCH  42  43
ENDBRANCH  39  42
ENDBRANCH  37  38
ENDBRANCH  29  32
ENDBRANCH  27  28
ENDBRANCH  26  27
ENDBRANCH  25  26
ENDBRANCH  24  25
ENDBRANCH  23  24
ENDBRANCH  22  23
ENDBRANCH  20  22
ENDBRANCH  13  20
ENDBRANCH   5  10
TORSDOF 13
ENDMDL
MODEL 4
REMARK VINA RESULT:      -7.2      8.347     15.234
REMARK  13 active torsions:
REMARK  status: ('A' for Active; 'I' for Inactive)
REMARK    1  A    between atoms: C_5  and  N_6 
REMARK    2  A    between atoms: C_9  and  N_10 
REMARK    3  A    between atoms: N_10  and  C_11 
REMARK    4  A    between atoms: C_11  and  C_12 
REMARK    5  A    between atoms: C_12  and  C_13 
REMARK    6  A    between atoms: C_13  and  C_14 
REMARK    7  A    between atoms: C_14  and  C_15 
REMARK    8  A    between atoms: C_15  and  C_16 
REMARK    9  A    between atoms: C_16  and  N_17 
REMARK       I    between atoms: N_17  and  C_18 
REMARK   10  A    between atoms: C_18  and  C_20 
REMARK   11  A    between atoms: C_25  and  N_26 
REMARK       I    between atoms: N_26  and  C_27 
REMARK   12  A    between atoms: C_27  and  C_29 
REMARK   13  A    between atoms: C_29  and  C_30 
ROOT
HETATM    1  O   MOL     1     -44.014 -10.862  18.533  1.00 -0.03    -0.273 OA
HETATM    2  C   MOL     1     -45.031 -10.491  19.094  1.00 -0.41     0.224 C 
HETATM    3  C   MOL     1     -45.087  -9.184  19.851  1.00 -0.27     0.106 C 
HETATM    4  C   MOL     1     -46.484  -8.556  19.812  1.00 -0.23     0.044 C 
HETATM    5  C   MOL     1     -47.426  -9.606  20.409  1.00 -0.30     0.180 C 
HETATM    6  C   MOL     1     -47.376 -10.904  19.632  1.00 -0.49     0.247 C 
HETATM    7  O   MOL     1     -48.357 -11.619  19.521  1.00 -0.12    -0.271 OA
HETATM    8  N   MOL     1     -46.181 -11.204  19.078  1.00 -0.04    -0.296 N 
HETATM    9  HN  MOL     1     -46.148 -11.966  18.636  1.00 -0.27     0.171 HD
ENDROOT
BRANCH   5  10
HETATM   10  N   MOL     1     -48.799  -9.085  20.498  1.00  0.05    -0.337 N 
HETATM   11  C   MOL     1     -49.427  -8.329  19.401  1.00 -0.25     0.138 C 
HETATM   12  C   MOL     1     -50.364  -7.562  20.353  1.00 -0.27     0.070 C 
HETATM   13  C   MOL     1     -51.464  -6.629  19.895  1.00 -0.20     0.011 C 
HETATM   14  C   MOL     1     -50.893  -8.643  21.301  1.00 -0.40     0.112 C 
HETATM   15  C   MOL     1     -52.462  -6.331  20.742  1.00 -0.28     0.025 C 
HETATM   16  C   MOL     1     -52.481  -6.911  22.086  1.00 -0.47    -0.001 C 
HETATM   17  C   MOL     1     -51.750  -7.992  22.355  1.00 -0.52    -0.012 C 
HETATM   18  C   MOL     1     -49.553  -9.255  21.595  1.00 -0.44     0.229 C 
HETATM   19  O   MOL     1     -49.220  -9.799  22.638  1.00 -0.63    -0.273 OA
BRANCH  13  20
HETATM   20  N   MOL     1     -51.290  -6.153  18.627  1.00  0.04    -0.393 N 
HETATM   21  HN  MOL     1     -50.471  -5.973  18.358  1.00 -0.01     0.159 HD
BRANCH  20  22
HETATM   22  C   MOL     1     -52.312  -6.397  17.600  1.00 -0.24     0.119 C 
BRANCH  22  23
HETATM   23  C   MOL     1     -52.107  -5.593  16.306  1.00 -0.09     0.020 C 
BRANCH  23  24
HETATM   24  C   MOL     1     -50.617  -5.237  16.197  1.00 -0.19     0.002 C 
BRANCH  24  25
HETATM   25  C   MOL     1     -50.360  -4.386  14.945  1.00 -0.35     0.002 C 
BRANCH  25  26
HETATM   26  C   MOL     1     -49.314  -3.317  15.292  1.00 -0.42     0.020 C 
BRANCH  26  27
HETATM   27  C   MOL     1     -49.261  -3.104  16.811  1.00 -0.29     0.123 C 
BRANCH  27  28
HETATM   28  N   MOL     1     -49.226  -1.659  17.080  1.00 -0.04    -0.357 N 
HETATM   29  C   MOL     1     -48.848  -1.209  18.297  1.00 -0.29     0.254 C 
HETATM   30  O   MOL     1     -48.524  -1.961  19.213  1.00 -0.19    -0.268 OA
HETATM   31  HN  MOL     1     -49.433  -1.096  16.437  1.00 -0.09     0.162 HD
BRANCH  29  32
HETATM   32  C   MOL     1     -48.823   0.254  18.581  1.00 -0.21     0.061 A 
HETATM   33  C   MOL     1     -49.969   1.016  18.467  1.00 -0.36     0.038 A 
HETATM   34  C   MOL     1     -49.949   2.357  18.754  1.00 -0.38     0.117 A 
HETATM   35  N   MOL     1     -48.849   3.020  19.157  1.00 -0.12    -0.271 NA
HETATM   36  C   MOL     1     -47.737   2.276  19.266  1.00 -0.27     0.146 A 
HETATM   37  C   MOL     1     -47.671   0.920  18.993  1.00 -0.14     0.068 A 
BRANCH  37  38
HETATM   38  N   MOL     1     -46.455   0.238  19.119  1.00  0.07    -0.325 N 
HETATM   39  C   MOL     1     -45.613  -0.073  18.113  1.00 -0.29     0.226 C 
HETATM   40  O   MOL     1     -45.786   0.227  16.941  1.00 -0.10    -0.273 OA
HETATM   41  HN  MOL     1     -46.223  -0.005  19.931  1.00  0.05     0.169 HD
BRANCH  39  42
HETATM   42  C   MOL     1     -44.381  -0.823  18.578  1.00 -0.34     0.141 C 
BRANCH  42  43
HETATM   43  C   MOL     1     -43.488   0.086  19.402  1.00 -0.21    -0.048 A 
HETATM   44  C   MOL     1     -43.231  -0.208  20.723  1.00 -0.31     0.007 A 
HETATM   45  C   MOL     1     -42.421   0.617  21.470  1.00 -0.36     0.002 A 
HETATM   46  C   MOL     1     -41.865   1.738  20.898  1.00 -0.30     0.024 A 
HETATM   47  C   MOL     1     -42.119   2.034  19.577  1.00 -0.25     0.034 A 
HETATM   48 CL   MOL     1     -41.417   3.451  18.853  1.00 -0.85    -0.084 Cl
HETATM   49  C   MOL     1     -42.930   1.208  18.831  1.00 -0.22     0.031 A 
ENDBRANCH  42  43
ENDBRANCH  39  42
ENDBRANCH  37  38
ENDBRANCH  29  32
ENDBRANCH  27  28
ENDBRANCH  26  27
ENDBRANCH  25  26
ENDBRANCH  24  25
ENDBRANCH  23  24
ENDBRANCH  22  23
ENDBRANCH  20  22
ENDBRANCH  13  20
ENDBRANCH   5  10
TORSDOF 13
ENDMDL
MODEL 5
REMARK VINA RESULT:      -7.2      3.124      5.743
REMARK  13 active torsions:
REMARK  status: ('A' for Active; 'I' for Inactive)
REMARK    1  A    between atoms: C_5  and  N_6 
REMARK    2  A    between atoms: C_9  and  N_10 
REMARK    3  A    between atoms: N_10  and  C_11 
REMARK    4  A    between atoms: C_11  and  C_12 
REMARK    5  A    between atoms: C_12  and  C_13 
REMARK    6  A    between atoms: C_13  and  C_14 
REMARK    7  A    between atoms: C_14  and  C_15 
REMARK    8  A    between atoms: C_15  and  C_16 
REMARK    9  A    between atoms: C_16  and  N_17 
REMARK       I    between atoms: N_17  and  C_18 
REMARK   10  A    between atoms: C_18  and  C_20 
REMARK   11  A    between atoms: C_25  and  N_26 
REMARK       I    between atoms: N_26  and  C_27 
REMARK   12  A    between atoms: C_27  and  C_29 
REMARK   13  A    between atoms: C_29  and  C_30 
ROOT
HETATM    1  O   MOL     1     -53.310  -7.965  22.526  1.00 -0.03    -0.273 OA
HETATM    2  C   MOL     1     -52.182  -8.176  22.114  1.00 -0.41     0.224 C 
HETATM    3  C   MOL     1     -51.095  -8.715  23.016  1.00 -0.27     0.106 C 
HETATM    4  C   MOL     1     -50.090  -9.580  22.251  1.00 -0.23     0.044 C 
HETATM    5  C   MOL     1     -49.526  -8.682  21.146  1.00 -0.30     0.180 C 
HETATM    6  C   MOL     1     -50.619  -8.164  20.238  1.00 -0.49     0.247 C 
HETATM    7  O   MOL     1     -50.420  -7.954  19.053  1.00 -0.12    -0.271 OA
HETATM    8  N   MOL     1     -51.816  -7.955  20.830  1.00 -0.04    -0.296 N 
HETATM    9  HN  MOL     1     -52.450  -7.642  20.304  1.00 -0.27     0.171 HD
ENDROOT
BRANCH   5  10
HETATM   10  N   MOL     1     -48.482  -9.384  20.384  1.00  0.05    -0.337 N 
HETATM   11  C   MOL     1     -48.649 -10.769  19.911  1.00 -0.25     0.138 C 
HETATM   12  C   MOL     1     -47.133 -11.043  19.917  1.00 -0.27     0.070 C 
HETATM   13  C   MOL     1     -46.497 -12.313  19.392  1.00 -0.20     0.011 C 
HETATM   14  C   MOL     1     -46.529  -9.794  19.269  1.00 -0.40     0.112 C 
HETATM   15  C   MOL     1     -45.194 -12.303  19.068  1.00 -0.28     0.025 C 
HETATM   16  C   MOL     1     -44.410 -11.077  19.217  1.00 -0.47    -0.001 C 
HETATM   17  C   MOL     1     -45.027  -9.900  19.311  1.00 -0.52    -0.012 C 
HETATM   18  C   MOL     1     -47.306  -8.806  20.091  1.00 -0.44     0.229 C 
HETATM   19  O   MOL     1     -46.931  -7.692  20.428  1.00 -0.63    -0.273 OA
BRANCH  13  20
HETATM   20  N   MOL     1     -47.352 -13.375  19.336  1.00  0.04    -0.393 N 
HETATM   21  HN  MOL     1     -47.700 -13.591  18.556  1.00 -0.01     0.159 HD
BRANCH  20  22
HETATM   22  C   MOL     1     -47.315 -14.408  20.381  1.00 -0.24     0.119 C 
BRANCH  22  23
HETATM   23  C   MOL     1     -46.310 -15.539  20.110  1.00 -0.09     0.020 C 
BRANCH  23  24
HETATM   24  C   MOL     1     -46.027 -16.253  21.440  1.00 -0.19     0.002 C 
BRANCH  24  25
HETATM   25  C   MOL     1     -47.338 -16.531  22.189  1.00 -0.35     0.002 C 
BRANCH  25  26
HETATM   26  C   MOL     1     -47.551 -18.051  22.246  1.00 -0.42     0.020 C 
BRANCH  26  27
HETATM   27  C   MOL     1     -48.469 -18.411  23.423  1.00 -0.29     0.123 C 
BRANCH  27  28
HETATM   28  N   MOL     1     -48.506 -17.273  24.353  1.00 -0.04    -0.357 N 
HETATM   29  C   MOL     1     -48.117 -17.439  25.637  1.00 -0.29     0.254 C 
HETATM   30  O   MOL     1     -47.725 -18.516  26.079  1.00 -0.19    -0.268 OA
HETATM   31  HN  MOL     1     -48.763 -16.485  24.060  1.00 -0.09     0.162 HD
BRANCH  29  32
HETATM   32  C   MOL     1     -48.165 -16.294  26.589  1.00 -0.21     0.061 A 
HETATM   33  C   MOL     1     -49.302 -16.039  27.331  1.00 -0.36     0.038 A 
HETATM   34  C   MOL     1     -49.334 -15.000  28.226  1.00 -0.38     0.117 A 
HETATM   35  N   MOL     1     -48.298 -14.170  28.448  1.00 -0.12    -0.271 NA
HETATM   36  C   MOL     1     -47.195 -14.421  27.724  1.00 -0.27     0.146 A 
HETATM   37  C   MOL     1     -47.082 -15.445  26.799  1.00 -0.14     0.068 A 
BRANCH  37  38
HETATM   38  N   MOL     1     -45.891 -15.611  26.080  1.00  0.07    -0.325 N 
HETATM   39  C   MOL     1     -44.818 -16.323  26.478  1.00 -0.29     0.226 C 
HETATM   40  O   MOL     1     -44.748 -16.953  27.524  1.00 -0.10    -0.273 OA
HETATM   41  HN  MOL     1     -45.846 -15.214  25.298  1.00  0.05     0.169 HD
BRANCH  39  42
HETATM   42  C   MOL     1     -43.682 -16.301  25.475  1.00 -0.34     0.141 C 
BRANCH  42  43
HETATM   43  C   MOL     1     -43.828 -17.442  24.486  1.00 -0.21    -0.048 A 
HETATM   44  C   MOL     1     -43.122 -17.428  23.304  1.00 -0.31     0.007 A 
HETATM   45  C   MOL     1     -43.254 -18.465  22.408  1.00 -0.36     0.002 A 
HETATM   46  C   MOL     1     -44.093 -19.519  22.691  1.00 -0.30     0.024 A 
HETATM   47  C   MOL     1     -44.799 -19.536  23.873  1.00 -0.25     0.034 A 
HETATM   48 CL   MOL     1     -45.859 -20.867  24.234  1.00 -0.85    -0.084 Cl
HETATM   49  C   MOL     1     -44.666 -18.498  24.770  1.00 -0.22     0.031 A 
ENDBRANCH  42  43
ENDBRANCH  39  42
ENDBRANCH  37  38
ENDBRANCH  29  32
ENDBRANCH  27  28
ENDBRANCH  26  27
ENDBRANCH  25  26
ENDBRANCH  24  25
ENDBRANCH  23  24
ENDBRANCH  22  23
ENDBRANCH  20  22
ENDBRANCH  13  20
ENDBRANCH   5  10
TORSDOF 13
ENDMDL
MODEL 6
REMARK VINA RESULT:      -7.2      2.935      5.460
REMARK  13 active torsions:
REMARK  status: ('A' for Active; 'I' for Inactive)
REMARK    1  A    between atoms: C_5  and  N_6 
REMARK    2  A    between atoms: C_9  and  N_10 
REMARK    3  A    between atoms: N_10  and  C_11 
REMARK    4  A    between atoms: C_11  and  C_12 
REMARK    5  A    between atoms: C_12  and  C_13 
REMARK    6  A    between atoms: C_13  and  C_14 
REMARK    7  A    between atoms: C_14  and  C_15 
REMARK    8  A    between atoms: C_15  and  C_16 
REMARK    9  A    between atoms: C_16  and  N_17 
REMARK       I    between atoms: N_17  and  C_18 
REMARK   10  A    between atoms: C_18  and  C_20 
REMARK   11  A    between atoms: C_25  and  N_26 
REMARK       I    between atoms: N_26  and  C_27 
REMARK   12  A    between atoms: C_27  and  C_29 
REMARK   13  A    between atoms: C_29  and  C_30 
ROOT
HETATM    1  O   MOL     1     -50.868  -8.482  22.713  1.00 -0.03    -0.273 OA
HETATM    2  C   MOL     1     -49.839  -8.701  22.098  1.00 -0.41     0.224 C 
HETATM    3  C   MOL     1     -48.490  -8.274  22.631  1.00 -0.27     0.106 C 
HETATM    4  C   MOL     1     -47.371  -9.221  22.189  1.00 -0.23     0.044 C 
HETATM    5  C   MOL     1     -47.408  -9.221  20.658  1.00 -0.30     0.180 C 
HETATM    6  C   MOL     1     -48.756  -9.668  20.135  1.00 -0.49     0.247 C 
HETATM    7  O   MOL     1     -48.863 -10.281  19.086  1.00 -0.12    -0.271 OA
HETATM    8  N   MOL     1     -49.817  -9.342  20.907  1.00 -0.04    -0.296 N 
HETATM    9  HN  MOL     1     -50.602  -9.592  20.596  1.00 -0.27     0.171 HD
ENDROOT
BRANCH   5  10
HETATM   10  N   MOL     1     -46.319 -10.043  20.109  1.00  0.05    -0.337 N 
HETATM   11  C   MOL     1     -46.031 -11.400  20.602  1.00 -0.25     0.138 C 
HETATM   12  C   MOL     1     -44.545 -11.320  20.206  1.00 -0.27     0.070 C 
HETATM   13  C   MOL     1     -43.575 -12.478  20.302  1.00 -0.20     0.011 C 
HETATM   14  C   MOL     1     -44.569 -10.713  18.800  1.00 -0.40     0.112 C 
HETATM   15  C   MOL     1     -42.444 -12.443  19.580  1.00 -0.28     0.025 C 
HETATM   16  C   MOL     1     -42.163 -11.300  18.710  1.00 -0.47    -0.001 C 
HETATM   17  C   MOL     1     -43.151 -10.487  18.341  1.00 -0.52    -0.012 C 
HETATM   18  C   MOL     1     -45.512  -9.593  19.135  1.00 -0.44     0.229 C 
HETATM   19  O   MOL     1     -45.532  -8.485  18.618  1.00 -0.63    -0.273 OA
BRANCH  13  20
HETATM   20  N   MOL     1     -43.967 -13.453  21.173  1.00  0.04    -0.393 N 
HETATM   21  HN  MOL     1     -44.080 -13.236  22.020  1.00 -0.01     0.159 HD
BRANCH  20  22
HETATM   22  C   MOL     1     -44.647 -14.657  20.677  1.00 -0.24     0.119 C 
BRANCH  22  23
HETATM   23  C   MOL     1     -44.203 -15.958  21.363  1.00 -0.09     0.020 C 
BRANCH  23  24
HETATM   24  C   MOL     1     -45.317 -16.999  21.179  1.00 -0.19     0.002 C 
BRANCH  24  25
HETATM   25  C   MOL     1     -46.384 -16.840  22.273  1.00 -0.35     0.002 C 
BRANCH  25  26
HETATM   26  C   MOL     1     -47.587 -17.723  21.908  1.00 -0.42     0.020 C 
BRANCH  26  27
HETATM   27  C   MOL     1     -48.114 -18.441  23.158  1.00 -0.29     0.123 C 
BRANCH  27  28
HETATM   28  N   MOL     1     -48.181 -17.471  24.261  1.00 -0.04    -0.357 N 
HETATM   29  C   MOL     1     -48.006 -17.886  25.535  1.00 -0.29     0.254 C 
HETATM   30  O   MOL     1     -47.788 -19.059  25.829  1.00 -0.19    -0.268 OA
HETATM   31  HN  MOL     1     -48.315 -16.621  24.080  1.00 -0.09     0.162 HD
BRANCH  29  32
HETATM   32  C   MOL     1     -48.087 -16.911  26.659  1.00 -0.21     0.061 A 
HETATM   33  C   MOL     1     -49.292 -16.331  27.007  1.00 -0.36     0.038 A 
HETATM   34  C   MOL     1     -49.368 -15.454  28.059  1.00 -0.38     0.117 A 
HETATM   35  N   MOL     1     -48.312 -15.096  28.814  1.00 -0.12    -0.271 NA
HETATM   36  C   MOL     1     -47.143 -15.661  28.472  1.00 -0.27     0.146 A 
HETATM   37  C   MOL     1     -46.980 -16.552  27.425  1.00 -0.14     0.068 A 
BRANCH  37  38
HETATM   38  N   MOL     1     -45.712 -17.071  27.138  1.00  0.07    -0.325 N 
HETATM   39  C   MOL     1     -44.879 -16.638  26.169  1.00 -0.29     0.226 C 
HETATM   40  O   MOL     1     -45.111 -15.701  25.419  1.00 -0.10    -0.273 OA
HETATM   41  HN  MOL     1     -45.437 -17.738  27.639  1.00  0.05     0.169 HD
BRANCH  39  42
HETATM   42  C   MOL     1     -43.579 -17.415  26.110  1.00 -0.34     0.141 C 
BRANCH  42  43
HETATM   43  C   MOL     1     -43.516 -18.243  24.840  1.00 -0.21    -0.048 A 
HETATM   44  C   MOL     1     -44.522 -19.135  24.545  1.00 -0.31     0.007 A 
HETATM   45  C   MOL     1     -44.464 -19.886  23.392  1.00 -0.36     0.002 A 
HETATM   46  C   MOL     1     -43.400 -19.745  22.530  1.00 -0.30     0.024 A 
HETATM   47  C   MOL     1     -42.393 -18.851  22.822  1.00 -0.25     0.034 A 
HETATM   48 CL   MOL     1     -41.048 -18.671  21.735  1.00 -0.85    -0.084 Cl
HETATM   49  C   MOL     1     -42.452 -18.101  23.976  1.00 -0.22     0.031 A 
ENDBRANCH  42  43
ENDBRANCH  39  42
ENDBRANCH  37  38
ENDBRANCH  29  32
ENDBRANCH  27  28
ENDBRANCH  26  27
ENDBRANCH  25  26
ENDBRANCH  24  25
ENDBRANCH  23  24
ENDBRANCH  22  23
ENDBRANCH  20  22
ENDBRANCH  13  20
ENDBRANCH   5  10
TORSDOF 13
ENDMDL
MODEL 7
REMARK VINA RESULT:      -7.0      7.351     14.241
REMARK  13 active torsions:
REMARK  status: ('A' for Active; 'I' for Inactive)
REMARK    1  A    between atoms: C_5  and  N_6 
REMARK    2  A    between atoms: C_9  and  N_10 
REMARK    3  A    between atoms: N_10  and  C_11 
REMARK    4  A    between atoms: C_11  and  C_12 
REMARK    5  A    between atoms: C_12  and  C_13 
REMARK    6  A    between atoms: C_13  and  C_14 
REMARK    7  A    between atoms: C_14  and  C_15 
REMARK    8  A    between atoms: C_15  and  C_16 
REMARK    9  A    between atoms: C_16  and  N_17 
REMARK       I    between atoms: N_17  and  C_18 
REMARK   10  A    between atoms: C_18  and  C_20 
REMARK   11  A    between atoms: C_25  and  N_26 
REMARK       I    between atoms: N_26  and  C_27 
REMARK   12  A    between atoms: C_27  and  C_29 
REMARK   13  A    between atoms: C_29  and  C_30 
ROOT
HETATM    1  O   MOL     1     -43.719 -10.810  18.455  1.00 -0.03    -0.273 OA
HETATM    2  C   MOL     1     -44.750 -10.425  18.979  1.00 -0.41     0.224 C 
HETATM    3  C   MOL     1     -44.829  -9.094  19.691  1.00 -0.27     0.106 C 
HETATM    4  C   MOL     1     -46.226  -8.474  19.598  1.00 -0.23     0.044 C 
HETATM    5  C   MOL     1     -47.179  -9.507  20.207  1.00 -0.30     0.180 C 
HETATM    6  C   MOL     1     -47.106 -10.829  19.475  1.00 -0.49     0.247 C 
HETATM    7  O   MOL     1     -48.082 -11.552  19.364  1.00 -0.12    -0.271 OA
HETATM    8  N   MOL     1     -45.897 -11.143  18.960  1.00 -0.04    -0.296 N 
HETATM    9  HN  MOL     1     -45.851 -11.918  18.544  1.00 -0.27     0.171 HD
ENDROOT
BRANCH   5  10
HETATM   10  N   MOL     1     -48.555  -8.989  20.245  1.00  0.05    -0.337 N 
HETATM   11  C   MOL     1     -49.140  -8.221  19.133  1.00 -0.25     0.138 C 
HETATM   12  C   MOL     1     -50.116  -7.467  20.055  1.00 -0.27     0.070 C 
HETATM   13  C   MOL     1     -51.198  -6.530  19.562  1.00 -0.20     0.011 C 
HETATM   14  C   MOL     1     -50.681  -8.559  20.967  1.00 -0.40     0.112 C 
HETATM   15  C   MOL     1     -52.231  -6.244  20.372  1.00 -0.28     0.025 C 
HETATM   16  C   MOL     1     -52.303  -6.839  21.707  1.00 -0.47    -0.001 C 
HETATM   17  C   MOL     1     -51.582  -7.921  21.993  1.00 -0.52    -0.012 C 
HETATM   18  C   MOL     1     -49.354  -9.173  21.309  1.00 -0.44     0.229 C 
HETATM   19  O   MOL     1     -49.062  -9.728  22.359  1.00 -0.63    -0.273 OA
BRANCH  13  20
HETATM   20  N   MOL     1     -50.973  -6.039  18.309  1.00  0.04    -0.393 N 
HETATM   21  HN  MOL     1     -50.143  -6.002  18.017  1.00 -0.01     0.159 HD
BRANCH  20  22
HETATM   22  C   MOL     1     -52.051  -6.044  17.310  1.00 -0.24     0.119 C 
BRANCH  22  23
HETATM   23  C   MOL     1     -52.065  -4.810  16.394  1.00 -0.09     0.020 C 
BRANCH  23  24
HETATM   24  C   MOL     1     -50.913  -3.887  16.820  1.00 -0.19     0.002 C 
BRANCH  24  25
HETATM   25  C   MOL     1     -49.760  -3.967  15.809  1.00 -0.35     0.002 C 
BRANCH  25  26
HETATM   26  C   MOL     1     -50.283  -3.507  14.441  1.00 -0.42     0.020 C 
BRANCH  26  27
HETATM   27  C   MOL     1     -49.155  -2.840  13.641  1.00 -0.29     0.123 C 
BRANCH  27  28
HETATM   28  N   MOL     1     -48.062  -2.505  14.566  1.00 -0.04    -0.357 N 
HETATM   29  C   MOL     1     -47.822  -1.213  14.886  1.00 -0.29     0.254 C 
HETATM   30  O   MOL     1     -48.485  -0.282  14.436  1.00 -0.19    -0.268 OA
HETATM   31  HN  MOL     1     -47.584  -3.151  14.921  1.00 -0.09     0.162 HD
BRANCH  29  32
HETATM   32  C   MOL     1     -46.708  -0.865  15.812  1.00 -0.21     0.061 A 
HETATM   33  C   MOL     1     -45.391  -1.011  15.420  1.00 -0.36     0.038 A 
HETATM   34  C   MOL     1     -44.367  -0.665  16.264  1.00 -0.38     0.117 A 
HETATM   35  N   MOL     1     -44.552  -0.171  17.503  1.00 -0.12    -0.271 NA
HETATM   36  C   MOL     1     -45.833  -0.031  17.881  1.00 -0.27     0.146 A 
HETATM   37  C   MOL     1     -46.923  -0.360  17.092  1.00 -0.14     0.068 A 
BRANCH  37  38
HETATM   38  N   MOL     1     -48.222  -0.193  17.587  1.00  0.07    -0.325 N 
HETATM   39  C   MOL     1     -48.919  -1.099  18.303  1.00 -0.29     0.226 C 
HETATM   40  O   MOL     1     -48.494  -2.193  18.644  1.00 -0.10    -0.273 OA
HETATM   41  HN  MOL     1     -48.613   0.574  17.416  1.00  0.05     0.169 HD
BRANCH  39  42
HETATM   42  C   MOL     1     -50.304  -0.619  18.685  1.00 -0.34     0.141 C 
BRANCH  42  43
HETATM   43  C   MOL     1     -50.525  -0.776  20.178  1.00 -0.21    -0.048 A 
HETATM   44  C   MOL     1     -49.978   0.131  21.058  1.00 -0.31     0.007 A 
HETATM   45  C   MOL     1     -50.179  -0.012  22.412  1.00 -0.36     0.002 A 
HETATM   46  C   MOL     1     -50.929  -1.062  22.891  1.00 -0.30     0.024 A 
HETATM   47  C   MOL     1     -51.478  -1.970  22.013  1.00 -0.25     0.034 A 
HETATM   48 CL   MOL     1     -52.426  -3.298  22.615  1.00 -0.85    -0.084 Cl
HETATM   49  C   MOL     1     -51.276  -1.826  20.658  1.00 -0.22     0.031 A 
ENDBRANCH  42  43
ENDBRANCH  39  42
ENDBRANCH  37  38
ENDBRANCH  29  32
ENDBRANCH  27  28
ENDBRANCH  26  27
ENDBRANCH  25  26
ENDBRANCH  24  25
ENDBRANCH  23  24
ENDBRANCH  22  23
ENDBRANCH  20  22
ENDBRANCH  13  20
ENDBRANCH   5  10
TORSDOF 13
ENDMDL
MODEL 8
REMARK VINA RESULT:      -6.9      3.575      8.274
REMARK  13 active torsions:
REMARK  status: ('A' for Active; 'I' for Inactive)
REMARK    1  A    between atoms: C_5  and  N_6 
REMARK    2  A    between atoms: C_9  and  N_10 
REMARK    3  A    between atoms: N_10  and  C_11 
REMARK    4  A    between atoms: C_11  and  C_12 
REMARK    5  A    between atoms: C_12  and  C_13 
REMARK    6  A    between atoms: C_13  and  C_14 
REMARK    7  A    between atoms: C_14  and  C_15 
REMARK    8  A    between atoms: C_15  and  C_16 
REMARK    9  A    between atoms: C_16  and  N_17 
REMARK       I    between atoms: N_17  and  C_18 
REMARK   10  A    between atoms: C_18  and  C_20 
REMARK   11  A    between atoms: C_25  and  N_26 
REMARK       I    between atoms: N_26  and  C_27 
REMARK   12  A    between atoms: C_27  and  C_29 
REMARK   13  A    between atoms: C_29  and  C_30 
ROOT
HETATM    1  O   MOL     1     -44.336 -15.573  29.212  1.00 -0.03    -0.273 OA
HETATM    2  C   MOL     1     -44.887 -15.699  28.132  1.00 -0.41     0.224 C 
HETATM    3  C   MOL     1     -44.503 -14.849  26.942  1.00 -0.27     0.106 C 
HETATM    4  C   MOL     1     -44.698 -15.593  25.618  1.00 -0.23     0.044 C 
HETATM    5  C   MOL     1     -46.175 -15.997  25.583  1.00 -0.30     0.180 C 
HETATM    6  C   MOL     1     -46.543 -16.862  26.767  1.00 -0.49     0.247 C 
HETATM    7  O   MOL     1     -47.393 -17.733  26.683  1.00 -0.12    -0.271 OA
HETATM    8  N   MOL     1     -45.868 -16.603  27.910  1.00 -0.04    -0.296 N 
HETATM    9  HN  MOL     1     -46.091 -17.099  28.603  1.00 -0.27     0.171 HD
ENDROOT
BRANCH   5  10
HETATM   10  N   MOL     1     -46.505 -16.657  24.311  1.00  0.05    -0.337 N 
HETATM   11  C   MOL     1     -45.990 -17.992  23.959  1.00 -0.25     0.138 C 
HETATM   12  C   MOL     1     -46.071 -17.717  22.446  1.00 -0.27     0.070 C 
HETATM   13  C   MOL     1     -45.801 -18.756  21.378  1.00 -0.20     0.011 C 
HETATM   14  C   MOL     1     -47.440 -17.055  22.263  1.00 -0.40     0.112 C 
HETATM   15  C   MOL     1     -46.275 -18.554  20.138  1.00 -0.28     0.025 C 
HETATM   16  C   MOL     1     -47.046 -17.348  19.834  1.00 -0.47    -0.001 C 
HETATM   17  C   MOL     1     -47.594 -16.642  20.822  1.00 -0.52    -0.012 C 
HETATM   18  C   MOL     1     -47.283 -16.072  23.387  1.00 -0.44     0.229 C 
HETATM   19  O   MOL     1     -47.772 -14.952  23.442  1.00 -0.63    -0.273 OA
BRANCH  13  20
HETATM   20  N   MOL     1     -45.048 -19.808  21.811  1.00  0.04    -0.393 N 
HETATM   21  HN  MOL     1     -45.462 -20.504  22.159  1.00 -0.01     0.159 HD
BRANCH  20  22
HETATM   22  C   MOL     1     -43.692 -20.012  21.283  1.00 -0.24     0.119 C 
BRANCH  22  23
HETATM   23  C   MOL     1     -42.630 -19.094  21.909  1.00 -0.09     0.020 C 
BRANCH  23  24
HETATM   24  C   MOL     1     -42.376 -17.929  20.941  1.00 -0.19     0.002 C 
BRANCH  24  25
HETATM   25  C   MOL     1     -42.469 -16.587  21.681  1.00 -0.35     0.002 C 
BRANCH  25  26
HETATM   26  C   MOL     1     -43.587 -15.754  21.037  1.00 -0.42     0.020 C 
BRANCH  26  27
HETATM   27  C   MOL     1     -44.162 -14.763  22.059  1.00 -0.29     0.123 C 
BRANCH  27  28
HETATM   28  N   MOL     1     -45.209 -13.968  21.401  1.00 -0.04    -0.357 N 
HETATM   29  C   MOL     1     -45.298 -12.640  21.639  1.00 -0.29     0.254 C 
HETATM   30  O   MOL     1     -44.531 -12.047  22.394  1.00 -0.19    -0.268 OA
HETATM   31  HN  MOL     1     -45.760 -14.361  20.839  1.00 -0.09     0.162 HD
BRANCH  29  32
HETATM   32  C   MOL     1     -46.365 -11.831  20.986  1.00 -0.21     0.061 A 
HETATM   33  C   MOL     1     -47.610 -11.700  21.571  1.00 -0.36     0.038 A 
HETATM   34  C   MOL     1     -48.582 -10.933  20.981  1.00 -0.38     0.117 A 
HETATM   35  N   MOL     1     -48.411 -10.267  19.824  1.00 -0.12    -0.271 NA
HETATM   36  C   MOL     1     -47.200 -10.398  19.258  1.00 -0.27     0.146 A 
HETATM   37  C   MOL     1     -46.168 -11.154  19.786  1.00 -0.14     0.068 A 
BRANCH  37  38
HETATM   38  N   MOL     1     -44.946 -11.241  19.107  1.00  0.07    -0.325 N 
HETATM   39  C   MOL     1     -43.939 -10.346  19.170  1.00 -0.29     0.226 C 
HETATM   40  O   MOL     1     -43.945  -9.338  19.861  1.00 -0.10    -0.273 OA
HETATM   41  HN  MOL     1     -44.829 -11.946  18.596  1.00  0.05     0.169 HD
BRANCH  39  42
HETATM   42  C   MOL     1     -42.751 -10.725  18.310  1.00 -0.34     0.141 C 
BRANCH  42  43
HETATM   43  C   MOL     1     -41.718 -11.472  19.134  1.00 -0.21    -0.048 A 
HETATM   44  C   MOL     1     -41.773 -12.844  19.234  1.00 -0.31     0.007 A 
HETATM   45  C   MOL     1     -40.836 -13.521  19.980  1.00 -0.36     0.002 A 
HETATM   46  C   MOL     1     -39.839 -12.828  20.629  1.00 -0.30     0.024 A 
HETATM   47  C   MOL     1     -39.781 -11.455  20.529  1.00 -0.25     0.034 A 
HETATM   48 CL   MOL     1     -38.522 -10.577  21.347  1.00 -0.85    -0.084 Cl
HETATM   49  C   MOL     1     -40.720 -10.779  19.782  1.00 -0.22     0.031 A 
ENDBRANCH  42  43
ENDBRANCH  39  42
ENDBRANCH  37  38
ENDBRANCH  29  32
ENDBRANCH  27  28
ENDBRANCH  26  27
ENDBRANCH  25  26
ENDBRANCH  24  25
ENDBRANCH  23  24
ENDBRANCH  22  23
ENDBRANCH  20  22
ENDBRANCH  13  20
ENDBRANCH   5  10
TORSDOF 13
ENDMDL
MODEL 9
REMARK VINA RESULT:      -6.9      6.278      9.465
REMARK  13 active torsions:
REMARK  status: ('A' for Active; 'I' for Inactive)
REMARK    1  A    between atoms: C_5  and  N_6 
REMARK    2  A    between atoms: C_9  and  N_10 
REMARK    3  A    between atoms: N_10  and  C_11 
REMARK    4  A    between atoms: C_11  and  C_12 
REMARK    5  A    between atoms: C_12  and  C_13 
REMARK    6  A    between atoms: C_13  and  C_14 
REMARK    7  A    between atoms: C_14  and  C_15 
REMARK    8  A    between atoms: C_15  and  C_16 
REMARK    9  A    between atoms: C_16  and  N_17 
REMARK       I    between atoms: N_17  and  C_18 
REMARK   10  A    between atoms: C_18  and  C_20 
REMARK   11  A    between atoms: C_25  and  N_26 
REMARK       I    between atoms: N_26  and  C_27 
REMARK   12  A    between atoms: C_27  and  C_29 
REMARK   13  A    between atoms: C_29  and  C_30 
ROOT
HETATM    1  O   MOL     1     -43.231   1.024  19.087  1.00 -0.03    -0.273 OA
HETATM    2  C   MOL     1     -44.121   0.530  18.417  1.00 -0.41     0.224 C 
HETATM    3  C   MOL     1     -43.840  -0.549  17.396  1.00 -0.27     0.106 C 
HETATM    4  C   MOL     1     -45.020  -1.513  17.240  1.00 -0.23     0.044 C 
HETATM    5  C   MOL     1     -46.215  -0.644  16.840  1.00 -0.30     0.180 C 
HETATM    6  C   MOL     1     -46.500   0.421  17.876  1.00 -0.49     0.247 C 
HETATM    7  O   MOL     1     -47.634   0.813  18.095  1.00 -0.12    -0.271 OA
HETATM    8  N   MOL     1     -45.418   0.897  18.534  1.00 -0.04    -0.296 N 
HETATM    9  HN  MOL     1     -45.582   1.525  19.128  1.00 -0.27     0.171 HD
ENDROOT
BRANCH   5  10
HETATM   10  N   MOL     1     -47.402  -1.473  16.583  1.00  0.05    -0.337 N 
HETATM   11  C   MOL     1     -47.750  -2.633  17.421  1.00 -0.25     0.138 C 
HETATM   12  C   MOL     1     -48.496  -3.345  16.277  1.00 -0.27     0.070 C 
HETATM   13  C   MOL     1     -49.282  -4.627  16.443  1.00 -0.20     0.011 C 
HETATM   14  C   MOL     1     -49.340  -2.237  15.641  1.00 -0.40     0.112 C 
HETATM   15  C   MOL     1     -50.206  -4.949  15.524  1.00 -0.28     0.025 C 
HETATM   16  C   MOL     1     -50.447  -4.063  14.384  1.00 -0.47    -0.001 C 
HETATM   17  C   MOL     1     -50.045  -2.794  14.431  1.00 -0.52    -0.012 C 
HETATM   18  C   MOL     1     -48.229  -1.231  15.553  1.00 -0.44     0.229 C 
HETATM   19  O   MOL     1     -48.106  -0.361  14.702  1.00 -0.63    -0.273 OA
BRANCH  13  20
HETATM   20  N   MOL     1     -48.923  -5.355  17.540  1.00  0.04    -0.393 N 
HETATM   21  HN  MOL     1     -48.507  -4.943  18.198  1.00 -0.01     0.159 HD
BRANCH  20  22
HETATM   22  C   MOL     1     -49.617  -6.613  17.850  1.00 -0.24     0.119 C 
BRANCH  22  23
HETATM   23  C   MOL     1     -49.062  -7.350  19.080  1.00 -0.09     0.020 C 
BRANCH  23  24
HETATM   24  C   MOL     1     -47.608  -7.745  18.783  1.00 -0.19     0.002 C 
BRANCH  24  25
HETATM   25  C   MOL     1     -46.782  -7.759  20.077  1.00 -0.35     0.002 C 
BRANCH  25  26
HETATM   26  C   MOL     1     -45.950  -9.049  20.108  1.00 -0.42     0.020 C 
BRANCH  26  27
HETATM   27  C   MOL     1     -44.759  -8.933  19.146  1.00 -0.29     0.123 C 
BRANCH  27  28
HETATM   28  N   MOL     1     -43.743  -9.921  19.539  1.00 -0.04    -0.357 N 
HETATM   29  C   MOL     1     -43.905 -11.222  19.211  1.00 -0.29     0.254 C 
HETATM   30  O   MOL     1     -44.880 -11.634  18.587  1.00 -0.19    -0.268 OA
HETATM   31  HN  MOL     1     -43.025  -9.652  19.969  1.00 -0.09     0.162 HD
BRANCH  29  32
HETATM   32  C   MOL     1     -42.887 -12.230  19.617  1.00 -0.21     0.061 A 
HETATM   33  C   MOL     1     -41.595 -12.166  19.132  1.00 -0.36     0.038 A 
HETATM   34  C   MOL     1     -40.653 -13.081  19.528  1.00 -0.38     0.117 A 
HETATM   35  N   MOL     1     -40.899 -14.083  20.392  1.00 -0.12    -0.271 NA
HETATM   36  C   MOL     1     -42.155 -14.142  20.861  1.00 -0.27     0.146 A 
HETATM   37  C   MOL     1     -43.165 -13.262  20.510  1.00 -0.14     0.068 A 
BRANCH  37  38
HETATM   38  N   MOL     1     -44.450 -13.423  21.042  1.00  0.07    -0.325 N 
HETATM   39  C   MOL     1     -45.353 -14.352  20.667  1.00 -0.29     0.226 C 
HETATM   40  O   MOL     1     -45.157 -15.210  19.819  1.00 -0.10    -0.273 OA
HETATM   41  HN  MOL     1     -44.684 -12.866  21.680  1.00  0.05     0.169 HD
BRANCH  39  42
HETATM   42  C   MOL     1     -46.657 -14.258  21.432  1.00 -0.34     0.141 C 
BRANCH  42  43
HETATM   43  C   MOL     1     -47.455 -13.052  20.970  1.00 -0.21    -0.048 A 
HETATM   44  C   MOL     1     -47.694 -12.852  19.629  1.00 -0.31     0.007 A 
HETATM   45  C   MOL     1     -48.418 -11.759  19.211  1.00 -0.36     0.002 A 
HETATM   46  C   MOL     1     -48.906 -10.862  20.134  1.00 -0.30     0.024 A 
HETATM   47  C   MOL     1     -48.670 -11.060  21.476  1.00 -0.25     0.034 A 
HETATM   48 CL   MOL     1     -49.286  -9.928  22.644  1.00 -0.85    -0.084 Cl
HETATM   49  C   MOL     1     -47.945 -12.155  21.893  1.00 -0.22     0.031 A 
ENDBRANCH  42  43
ENDBRANCH  39  42
ENDBRANCH  37  38
ENDBRANCH  29  32
ENDBRANCH  27  28
ENDBRANCH  26  27
ENDBRANCH  25  26
ENDBRANCH  24  25
ENDBRANCH  23  24
ENDBRANCH  22  23
ENDBRANCH  20  22
ENDBRANCH  13  20
ENDBRANCH   5  10
TORSDOF 13
ENDMDL
MODEL 10
REMARK VINA RESULT:      -6.9     10.596     14.525
REMARK  13 active torsions:
REMARK  status: ('A' for Active; 'I' for Inactive)
REMARK    1  A    between atoms: C_5  and  N_6 
REMARK    2  A    between atoms: C_9  and  N_10 
REMARK    3  A    between atoms: N_10  and  C_11 
REMARK    4  A    between atoms: C_11  and  C_12 
REMARK    5  A    between atoms: C_12  and  C_13 
REMARK    6  A    between atoms: C_13  and  C_14 
REMARK    7  A    between atoms: C_14  and  C_15 
REMARK    8  A    between atoms: C_15  and  C_16 
REMARK    9  A    between atoms: C_16  and  N_17 
REMARK       I    between atoms: N_17  and  C_18 
REMARK   10  A    between atoms: C_18  and  C_20 
REMARK   11  A    between atoms: C_25  and  N_26 
REMARK       I    between atoms: N_26  and  C_27 
REMARK   12  A    between atoms: C_27  and  C_29 
REMARK   13  A    between atoms: C_29  and  C_30 
ROOT
HETATM    1  O   MOL     1     -42.782   0.336  19.506  1.00 -0.03    -0.273 OA
HETATM    2  C   MOL     1     -43.662  -0.050  18.756  1.00 -0.41     0.224 C 
HETATM    3  C   MOL     1     -43.466  -1.245  17.851  1.00 -0.27     0.106 C 
HETATM    4  C   MOL     1     -44.775  -1.998  17.601  1.00 -0.23     0.044 C 
HETATM    5  C   MOL     1     -45.735  -0.971  16.993  1.00 -0.30     0.180 C 
HETATM    6  C   MOL     1     -45.939   0.212  17.915  1.00 -0.49     0.247 C 
HETATM    7  O   MOL     1     -46.999   0.813  17.958  1.00 -0.12    -0.271 OA
HETATM    8  N   MOL     1     -44.874   0.546  18.678  1.00 -0.04    -0.296 N 
HETATM    9  HN  MOL     1     -44.989   1.241  19.206  1.00 -0.27     0.171 HD
ENDROOT
BRANCH   5  10
HETATM   10  N   MOL     1     -47.015  -1.599  16.634  1.00  0.05    -0.337 N 
HETATM   11  C   MOL     1     -47.643  -2.639  17.467  1.00 -0.25     0.138 C 
HETATM   12  C   MOL     1     -48.379  -3.271  16.271  1.00 -0.27     0.070 C 
HETATM   13  C   MOL     1     -49.390  -4.392  16.391  1.00 -0.20     0.011 C 
HETATM   14  C   MOL     1     -48.949  -2.071  15.511  1.00 -0.40     0.112 C 
HETATM   15  C   MOL     1     -50.256  -4.599  15.386  1.00 -0.28     0.025 C 
HETATM   16  C   MOL     1     -50.221  -3.744  14.199  1.00 -0.47    -0.001 C 
HETATM   17  C   MOL     1     -49.612  -2.560  14.249  1.00 -0.52    -0.012 C 
HETATM   18  C   MOL     1     -47.677  -1.273  15.513  1.00 -0.44     0.229 C 
HETATM   19  O   MOL     1     -47.317  -0.481  14.652  1.00 -0.63    -0.273 OA
BRANCH  13  20
HETATM   20  N   MOL     1     -49.278  -5.114  17.544  1.00  0.04    -0.393 N 
HETATM   21  HN  MOL     1     -49.832  -4.934  18.205  1.00 -0.01     0.159 HD
BRANCH  20  22
HETATM   22  C   MOL     1     -48.634  -6.434  17.528  1.00 -0.24     0.119 C 
BRANCH  22  23
HETATM   23  C   MOL     1     -49.408  -7.520  18.293  1.00 -0.09     0.020 C 
BRANCH  23  24
HETATM   24  C   MOL     1     -50.902  -7.349  17.982  1.00 -0.19     0.002 C 
BRANCH  24  25
HETATM   25  C   MOL     1     -51.722  -7.339  19.281  1.00 -0.35     0.002 C 
BRANCH  25  26
HETATM   26  C   MOL     1     -50.991  -8.200  20.321  1.00 -0.42     0.020 C 
BRANCH  26  27
HETATM   27  C   MOL     1     -51.574  -7.947  21.719  1.00 -0.29     0.123 C 
BRANCH  27  28
HETATM   28  N   MOL     1     -52.669  -6.973  21.599  1.00 -0.04    -0.357 N 
HETATM   29  C   MOL     1     -52.727  -5.917  22.441  1.00 -0.29     0.254 C 
HETATM   30  O   MOL     1     -51.893  -5.723  23.323  1.00 -0.19    -0.268 OA
HETATM   31  HN  MOL     1     -53.269  -7.075  20.965  1.00 -0.09     0.162 HD
BRANCH  29  32
HETATM   32  C   MOL     1     -53.841  -4.934  22.336  1.00 -0.21     0.061 A 
HETATM   33  C   MOL     1     -55.110  -5.252  22.781  1.00 -0.36     0.038 A 
HETATM   34  C   MOL     1     -56.127  -4.336  22.706  1.00 -0.38     0.117 A 
HETATM   35  N   MOL     1     -55.981  -3.093  22.210  1.00 -0.12    -0.271 NA
HETATM   36  C   MOL     1     -54.747  -2.788  21.777  1.00 -0.27     0.146 A 
HETATM   37  C   MOL     1     -53.668  -3.654  21.814  1.00 -0.14     0.068 A 
BRANCH  37  38
HETATM   38  N   MOL     1     -52.424  -3.245  21.319  1.00  0.07    -0.325 N 
HETATM   39  C   MOL     1     -51.989  -3.388  20.050  1.00 -0.29     0.226 C 
HETATM   40  O   MOL     1     -52.644  -3.877  19.141  1.00 -0.10    -0.273 OA
HETATM   41  HN  MOL     1     -51.882  -2.856  21.891  1.00  0.05     0.169 HD
BRANCH  39  42
HETATM   42  C   MOL     1     -50.591  -2.847  19.835  1.00 -0.34     0.141 C 
BRANCH  42  43
HETATM   43  C   MOL     1     -50.639  -1.360  19.539  1.00 -0.21    -0.048 A 
HETATM   44  C   MOL     1     -50.910  -0.916  18.264  1.00 -0.31     0.007 A 
HETATM   45  C   MOL     1     -50.955   0.434  17.996  1.00 -0.36     0.002 A 
HETATM   46  C   MOL     1     -50.729   1.344  19.004  1.00 -0.30     0.024 A 
HETATM   47  C   MOL     1     -50.460   0.903  20.280  1.00 -0.25     0.034 A 
HETATM   48 CL   MOL     1     -50.174   2.051  21.555  1.00 -0.85    -0.084 Cl
HETATM   49  C   MOL     1     -50.415  -0.448  20.547  1.00 -0.22     0.031 A 
ENDBRANCH  42  43
ENDBRANCH  39  42
ENDBRANCH  37  38
ENDBRANCH  29  32
ENDBRANCH  27  28
ENDBRANCH  26  27
ENDBRANCH  25  26
ENDBRANCH  24  25
ENDBRANCH  23  24
ENDBRANCH  22  23
ENDBRANCH  20  22
ENDBRANCH  13  20
ENDBRANCH   5  10
TORSDOF 13
ENDMDL
