MODEL 1
REMARK VINA RESULT:      -8.1      0.000      0.000
REMARK  10 active torsions:
REMARK  status: ('A' for Active; 'I' for Inactive)
REMARK    1  A    between atoms: O_2  and  C_15 
REMARK    2  A    between atoms: O_2  and  C_18 
REMARK    3  A    between atoms: O_3  and  C_12 
REMARK    4  A    between atoms: O_4  and  C_13 
REMARK    5  A    between atoms: O_5  and  C_14 
REMARK    6  A    between atoms: O_6  and  C_17 
REMARK    7  A    between atoms: O_9  and  C_19 
REMARK    8  A    between atoms: O_10  and  C_23 
REMARK    9  A    between atoms: C_16  and  C_17 
REMARK   10  A    between atoms: C_25  and  C_27 
ROOT
HETATM    1  O   UNK     0     -47.538 -13.664  22.489  0.00  0.00    -0.340 OA
HETATM    2  C   UNK     0     -46.982 -14.796  19.907  0.00  0.00     0.183 C 
HETATM    3  C   UNK     0     -46.858 -13.298  20.188  0.00  0.00     0.205 C 
HETATM    4  C   UNK     0     -46.886 -15.615  21.195  0.00  0.00     0.189 C 
HETATM    5  C   UNK     0     -47.782 -12.871  21.329  0.00  0.00     0.299 C 
HETATM    6  C   UNK     0     -47.804 -15.043  22.268  0.00  0.00     0.253 C 
ENDROOT
BRANCH   5   7
HETATM    7  O   UNK     0     -47.519 -11.499  21.619  0.00  0.00    -0.315 OA
BRANCH   7   8
HETATM    8  C   UNK     0     -48.573 -10.639  21.515  0.00  0.00     0.111 A 
HETATM    9  C   UNK     0     -48.684  -9.784  20.418  0.00  0.00     0.137 A 
HETATM   10  C   UNK     0     -49.769  -8.910  20.327  0.00  0.00     0.129 A 
HETATM   11  O   UNK     0     -49.824  -8.094  19.226  0.00  0.00    -0.306 OA
HETATM   12  C   UNK     0     -50.736  -8.894  21.330  0.00  0.00     0.084 A 
HETATM   13  C   UNK     0     -50.894  -7.221  19.105  0.00  0.00     0.090 A 
HETATM   14  C   UNK     0     -51.883  -7.106  20.006  0.00  0.00     0.094 A 
HETATM   15  C   UNK     0     -51.867  -7.962  21.209  0.00  0.00     0.190 A 
HETATM   16  O   UNK     0     -52.751  -7.894  22.053  0.00  0.00    -0.287 OA
HETATM   17  C   UNK     0     -50.628  -9.749  22.429  0.00  0.00     0.085 A 
HETATM   18  C   UNK     0     -49.542 -10.621  22.518  0.00  0.00     0.077 A 
BRANCH   9  19
HETATM   19  O   UNK     0     -47.733  -9.806  19.439  0.00  0.00    -0.351 OA
HETATM   20  C   UNK     0     -46.589  -8.976  19.630  0.00  0.00     0.210 C 
ENDBRANCH   9  19
BRANCH  13  21
HETATM   21  C   UNK     0     -50.851  -6.385  17.888  0.00  0.00    -0.002 A 
HETATM   22  C   UNK     0     -49.625  -5.953  17.375  0.00  0.00     0.014 A 
HETATM   23  C   UNK     0     -49.585  -5.164  16.225  0.00  0.00     0.001 A 
HETATM   24  C   UNK     0     -50.770  -4.805  15.584  0.00  0.00     0.000 A 
HETATM   25  C   UNK     0     -51.996  -5.234  16.093  0.00  0.00     0.001 A 
HETATM   26  C   UNK     0     -52.037  -6.023  17.243  0.00  0.00     0.014 A 
ENDBRANCH  13  21
BRANCH  17  27
HETATM   27  O   UNK     0     -51.546  -9.770  23.436  0.00  0.00    -0.360 OA
HETATM   28  H   UNK     0     -51.118  -9.612  24.290  0.00  0.00     0.217 HD
ENDBRANCH  17  27
ENDBRANCH   7   8
ENDBRANCH   5   7
BRANCH   6  29
HETATM   29  C   UNK     0     -47.526 -15.665  23.598  0.00  0.00     0.172 C 
HETATM   30  O   UNK     0     -46.665 -15.290  24.381  0.00  0.00    -0.648 OA
BRANCH  29  31
HETATM   31  O   UNK     0     -48.357 -16.712  23.822  0.00  0.00    -0.774 OA
HETATM   32  H   UNK     0     -48.273 -17.402  23.129  0.00  0.00     0.167 HD
ENDBRANCH  29  31
ENDBRANCH   6  29
BRANCH   3  33
HETATM   33  O   UNK     0     -47.223 -12.566  19.019  0.00  0.00    -0.388 OA
HETATM   34  H   UNK     0     -47.761 -13.151  18.460  0.00  0.00     0.210 HD
ENDBRANCH   3  33
BRANCH   4  35
HETATM   35  O   UNK     0     -47.280 -16.959  20.924  0.00  0.00    -0.390 OA
HETATM   36  H   UNK     0     -48.207 -17.063  21.198  0.00  0.00     0.210 HD
ENDBRANCH   4  35
BRANCH   2  37
HETATM   37  O   UNK     0     -45.922 -15.208  19.042  0.00  0.00    -0.390 OA
HETATM   38  H   UNK     0     -45.089 -14.880  19.419  0.00  0.00     0.210 HD
ENDBRANCH   2  37
TORSDOF 10
ENDMDL
MODEL 2
REMARK VINA RESULT:      -7.6      2.607      9.526
REMARK  10 active torsions:
REMARK  status: ('A' for Active; 'I' for Inactive)
REMARK    1  A    between atoms: O_2  and  C_15 
REMARK    2  A    between atoms: O_2  and  C_18 
REMARK    3  A    between atoms: O_3  and  C_12 
REMARK    4  A    between atoms: O_4  and  C_13 
REMARK    5  A    between atoms: O_5  and  C_14 
REMARK    6  A    between atoms: O_6  and  C_17 
REMARK    7  A    between atoms: O_9  and  C_19 
REMARK    8  A    between atoms: O_10  and  C_23 
REMARK    9  A    between atoms: C_16  and  C_17 
REMARK   10  A    between atoms: C_25  and  C_27 
ROOT
HETATM    1  O   UNK     0     -48.147  -5.534  18.067  0.00  0.00    -0.340 OA
HETATM    2  C   UNK     0     -50.569  -6.281  16.713  0.00  0.00     0.183 C 
HETATM    3  C   UNK     0     -50.074  -7.006  17.966  0.00  0.00     0.205 C 
HETATM    4  C   UNK     0     -49.979  -4.874  16.613  0.00  0.00     0.189 C 
HETATM    5  C   UNK     0     -48.555  -6.900  18.102  0.00  0.00     0.299 C 
HETATM    6  C   UNK     0     -48.472  -4.904  16.834  0.00  0.00     0.253 C 
ENDROOT
BRANCH   5   7
HETATM    7  O   UNK     0     -48.183  -7.482  19.350  0.00  0.00    -0.315 OA
BRANCH   7   8
HETATM    8  C   UNK     0     -47.259  -8.486  19.306  0.00  0.00     0.111 A 
HETATM    9  C   UNK     0     -47.590  -9.772  19.734  0.00  0.00     0.137 A 
HETATM   10  C   UNK     0     -46.633 -10.787  19.682  0.00  0.00     0.129 A 
HETATM   11  O   UNK     0     -47.016 -12.030  20.116  0.00  0.00    -0.306 OA
HETATM   12  C   UNK     0     -45.353 -10.514  19.204  0.00  0.00     0.084 A 
HETATM   13  C   UNK     0     -46.089 -13.060  20.070  0.00  0.00     0.090 A 
HETATM   14  C   UNK     0     -44.825 -12.922  19.638  0.00  0.00     0.094 A 
HETATM   15  C   UNK     0     -44.364 -11.602  19.162  0.00  0.00     0.190 A 
HETATM   16  O   UNK     0     -43.223 -11.433  18.756  0.00  0.00    -0.287 OA
HETATM   17  C   UNK     0     -45.019  -9.228  18.775  0.00  0.00     0.085 A 
HETATM   18  C   UNK     0     -45.977  -8.215  18.828  0.00  0.00     0.077 A 
BRANCH   9  19
HETATM   19  O   UNK     0     -48.845 -10.032  20.201  0.00  0.00    -0.351 OA
HETATM   20  C   UNK     0     -49.070  -9.837  21.595  0.00  0.00     0.210 C 
ENDBRANCH   9  19
BRANCH  13  21
HETATM   21  C   UNK     0     -46.603 -14.353  20.566  0.00  0.00    -0.002 A 
HETATM   22  C   UNK     0     -47.198 -14.434  21.828  0.00  0.00     0.014 A 
HETATM   23  C   UNK     0     -47.684 -15.655  22.297  0.00  0.00     0.001 A 
HETATM   24  C   UNK     0     -47.577 -16.798  21.506  0.00  0.00     0.000 A 
HETATM   25  C   UNK     0     -46.983 -16.722  20.246  0.00  0.00     0.001 A 
HETATM   26  C   UNK     0     -46.497 -15.501  19.776  0.00  0.00     0.014 A 
ENDBRANCH  13  21
BRANCH  17  27
HETATM   27  O   UNK     0     -43.782  -8.910  18.300  0.00  0.00    -0.360 OA
HETATM   28  H   UNK     0     -43.836  -8.172  17.676  0.00  0.00     0.217 HD
ENDBRANCH  17  27
ENDBRANCH   7   8
ENDBRANCH   5   7
BRANCH   6  29
HETATM   29  C   UNK     0     -47.928  -3.522  17.000  0.00  0.00     0.172 C 
HETATM   30  O   UNK     0     -47.952  -2.879  18.040  0.00  0.00    -0.648 OA
BRANCH  29  31
HETATM   31  O   UNK     0     -47.405  -3.069  15.836  0.00  0.00    -0.774 OA
HETATM   32  H   UNK     0     -46.816  -2.296  15.974  0.00  0.00     0.167 HD
ENDBRANCH  29  31
ENDBRANCH   6  29
BRANCH   3  33
HETATM   33  O   UNK     0     -50.420  -8.387  17.881  0.00  0.00    -0.388 OA
HETATM   34  H   UNK     0     -49.604  -8.886  17.706  0.00  0.00     0.210 HD
ENDBRANCH   3  33
BRANCH   4  35
HETATM   35  O   UNK     0     -50.241  -4.350  15.312  0.00  0.00    -0.390 OA
HETATM   36  H   UNK     0     -50.678  -5.044  14.790  0.00  0.00     0.210 HD
ENDBRANCH   4  35
BRANCH   2  37
HETATM   37  O   UNK     0     -51.992  -6.162  16.763  0.00  0.00    -0.390 OA
HETATM   38  H   UNK     0     -52.238  -5.356  16.278  0.00  0.00     0.210 HD
ENDBRANCH   2  37
TORSDOF 10
ENDMDL
MODEL 3
REMARK VINA RESULT:      -7.4      5.981     10.098
REMARK  10 active torsions:
REMARK  status: ('A' for Active; 'I' for Inactive)
REMARK    1  A    between atoms: O_2  and  C_15 
REMARK    2  A    between atoms: O_2  and  C_18 
REMARK    3  A    between atoms: O_3  and  C_12 
REMARK    4  A    between atoms: O_4  and  C_13 
REMARK    5  A    between atoms: O_5  and  C_14 
REMARK    6  A    between atoms: O_6  and  C_17 
REMARK    7  A    between atoms: O_9  and  C_19 
REMARK    8  A    between atoms: O_10  and  C_23 
REMARK    9  A    between atoms: C_16  and  C_17 
REMARK   10  A    between atoms: C_25  and  C_27 
ROOT
HETATM    1  O   UNK     0     -49.497  -4.910  17.914  0.00  0.00    -0.340 OA
HETATM    2  C   UNK     0     -52.054  -6.161  17.521  0.00  0.00     0.183 C 
HETATM    3  C   UNK     0     -51.803  -4.689  17.190  0.00  0.00     0.205 C 
HETATM    4  C   UNK     0     -50.750  -6.959  17.540  0.00  0.00     0.189 C 
HETATM    5  C   UNK     0     -50.673  -4.115  18.046  0.00  0.00     0.299 C 
HETATM    6  C   UNK     0     -49.691  -6.244  18.369  0.00  0.00     0.253 C 
ENDROOT
BRANCH   5   7
HETATM    7  O   UNK     0     -50.410  -2.787  17.594  0.00  0.00    -0.315 OA
BRANCH   7   8
HETATM    8  C   UNK     0     -49.125  -2.509  17.230  0.00  0.00     0.111 A 
HETATM    9  C   UNK     0     -48.215  -2.014  18.165  0.00  0.00     0.137 A 
HETATM   10  C   UNK     0     -46.904  -1.735  17.776  0.00  0.00     0.129 A 
HETATM   11  O   UNK     0     -46.056  -1.251  18.738  0.00  0.00    -0.306 OA
HETATM   12  C   UNK     0     -46.508  -1.950  16.457  0.00  0.00     0.084 A 
HETATM   13  C   UNK     0     -44.745  -0.971  18.382  0.00  0.00     0.090 A 
HETATM   14  C   UNK     0     -44.246  -1.129  17.146  0.00  0.00     0.094 A 
HETATM   15  C   UNK     0     -45.121  -1.645  16.074  0.00  0.00     0.190 A 
HETATM   16  O   UNK     0     -44.706  -1.809  14.934  0.00  0.00    -0.287 OA
HETATM   17  C   UNK     0     -47.417  -2.445  15.519  0.00  0.00     0.085 A 
HETATM   18  C   UNK     0     -48.726  -2.723  15.910  0.00  0.00     0.077 A 
BRANCH   9  19
HETATM   19  O   UNK     0     -48.610  -1.806  19.454  0.00  0.00    -0.351 OA
HETATM   20  C   UNK     0     -49.188  -0.539  19.757  0.00  0.00     0.210 C 
ENDBRANCH   9  19
BRANCH  13  21
HETATM   21  C   UNK     0     -43.921  -0.449  19.491  0.00  0.00    -0.002 A 
HETATM   22  C   UNK     0     -42.958   0.535  19.248  0.00  0.00     0.014 A 
HETATM   23  C   UNK     0     -42.180   1.028  20.295  0.00  0.00     0.001 A 
HETATM   24  C   UNK     0     -42.362   0.540  21.589  0.00  0.00     0.000 A 
HETATM   25  C   UNK     0     -43.321  -0.442  21.836  0.00  0.00     0.001 A 
HETATM   26  C   UNK     0     -44.100  -0.936  20.789  0.00  0.00     0.014 A 
ENDBRANCH  13  21
BRANCH  17  27
HETATM   27  O   UNK     0     -47.079  -2.671  14.218  0.00  0.00    -0.360 OA
HETATM   28  H   UNK     0     -46.773  -1.853  13.799  0.00  0.00     0.217 HD
ENDBRANCH  17  27
ENDBRANCH   7   8
ENDBRANCH   5   7
BRANCH   6  29
HETATM   29  C   UNK     0     -48.348  -6.871  18.180  0.00  0.00     0.172 C 
HETATM   30  O   UNK     0     -47.365  -6.645  18.870  0.00  0.00    -0.648 OA
BRANCH  29  31
HETATM   31  O   UNK     0     -48.363  -7.728  17.130  0.00  0.00    -0.774 OA
HETATM   32  H   UNK     0     -47.560  -7.641  16.574  0.00  0.00     0.167 HD
ENDBRANCH  29  31
ENDBRANCH   6  29
BRANCH   3  33
HETATM   33  O   UNK     0     -52.987  -3.937  17.450  0.00  0.00    -0.388 OA
HETATM   34  H   UNK     0     -53.145  -3.957  18.409  0.00  0.00     0.210 HD
ENDBRANCH   3  33
BRANCH   4  35
HETATM   35  O   UNK     0     -50.996  -8.240  18.117  0.00  0.00    -0.390 OA
HETATM   36  H   UNK     0     -51.877  -8.223  18.527  0.00  0.00     0.210 HD
ENDBRANCH   4  35
BRANCH   2  37
HETATM   37  O   UNK     0     -52.908  -6.733  16.529  0.00  0.00    -0.390 OA
HETATM   38  H   UNK     0     -52.717  -7.684  16.487  0.00  0.00     0.210 HD
ENDBRANCH   2  37
TORSDOF 10
ENDMDL
MODEL 4
REMARK VINA RESULT:      -7.3      5.410     10.223
REMARK  10 active torsions:
REMARK  status: ('A' for Active; 'I' for Inactive)
REMARK    1  A    between atoms: O_2  and  C_15 
REMARK    2  A    between atoms: O_2  and  C_18 
REMARK    3  A    between atoms: O_3  and  C_12 
REMARK    4  A    between atoms: O_4  and  C_13 
REMARK    5  A    between atoms: O_5  and  C_14 
REMARK    6  A    between atoms: O_6  and  C_17 
REMARK    7  A    between atoms: O_9  and  C_19 
REMARK    8  A    between atoms: O_10  and  C_23 
REMARK    9  A    between atoms: C_16  and  C_17 
REMARK   10  A    between atoms: C_25  and  C_27 
ROOT
HETATM    1  O   UNK     0     -48.516  -2.768  16.495  0.00  0.00    -0.340 OA
HETATM    2  C   UNK     0     -48.151  -1.302  14.051  0.00  0.00     0.183 C 
HETATM    3  C   UNK     0     -49.524  -1.784  14.518  0.00  0.00     0.205 C 
HETATM    4  C   UNK     0     -47.168  -1.200  15.218  0.00  0.00     0.189 C 
HETATM    5  C   UNK     0     -49.403  -3.023  15.407  0.00  0.00     0.299 C 
HETATM    6  C   UNK     0     -47.195  -2.470  16.059  0.00  0.00     0.253 C 
ENDROOT
BRANCH   5   7
HETATM    7  O   UNK     0     -50.702  -3.335  15.907  0.00  0.00    -0.315 OA
BRANCH   7   8
HETATM    8  C   UNK     0     -50.780  -4.353  16.812  0.00  0.00     0.111 A 
HETATM    9  C   UNK     0     -51.444  -4.171  18.026  0.00  0.00     0.137 A 
HETATM   10  C   UNK     0     -51.515  -5.223  18.942  0.00  0.00     0.129 A 
HETATM   11  O   UNK     0     -52.180  -4.985  20.117  0.00  0.00    -0.306 OA
HETATM   12  C   UNK     0     -50.924  -6.449  18.641  0.00  0.00     0.084 A 
HETATM   13  C   UNK     0     -52.273  -6.013  21.043  0.00  0.00     0.090 A 
HETATM   14  C   UNK     0     -51.740  -7.234  20.874  0.00  0.00     0.094 A 
HETATM   15  C   UNK     0     -51.013  -7.539  19.625  0.00  0.00     0.190 A 
HETATM   16  O   UNK     0     -50.516  -8.639  19.428  0.00  0.00    -0.287 OA
HETATM   17  C   UNK     0     -50.259  -6.634  17.428  0.00  0.00     0.085 A 
HETATM   18  C   UNK     0     -50.189  -5.581  16.515  0.00  0.00     0.077 A 
BRANCH   9  19
HETATM   19  O   UNK     0     -52.020  -2.969  18.313  0.00  0.00    -0.351 OA
HETATM   20  C   UNK     0     -51.191  -1.983  18.924  0.00  0.00     0.210 C 
ENDBRANCH   9  19
BRANCH  13  21
HETATM   21  C   UNK     0     -53.002  -5.648  22.274  0.00  0.00    -0.002 A 
HETATM   22  C   UNK     0     -53.735  -4.459  22.330  0.00  0.00     0.014 A 
HETATM   23  C   UNK     0     -54.425  -4.115  23.492  0.00  0.00     0.001 A 
HETATM   24  C   UNK     0     -54.385  -4.957  24.603  0.00  0.00     0.000 A 
HETATM   25  C   UNK     0     -53.654  -6.145  24.551  0.00  0.00     0.001 A 
HETATM   26  C   UNK     0     -52.964  -6.489  23.388  0.00  0.00     0.014 A 
ENDBRANCH  13  21
BRANCH  17  27
HETATM   27  O   UNK     0     -49.665  -7.812  17.088  0.00  0.00    -0.360 OA
HETATM   28  H   UNK     0     -49.966  -8.524  17.672  0.00  0.00     0.217 HD
ENDBRANCH  17  27
ENDBRANCH   7   8
ENDBRANCH   5   7
BRANCH   6  29
HETATM   29  C   UNK     0     -46.445  -2.283  17.337  0.00  0.00     0.172 C 
HETATM   30  O   UNK     0     -46.922  -1.838  18.372  0.00  0.00    -0.648 OA
BRANCH  29  31
HETATM   31  O   UNK     0     -45.154  -2.669  17.197  0.00  0.00    -0.774 OA
HETATM   32  H   UNK     0     -44.735  -2.270  16.405  0.00  0.00     0.167 HD
ENDBRANCH  29  31
ENDBRANCH   6  29
BRANCH   3  33
HETATM   33  O   UNK     0     -50.318  -2.125  13.383  0.00  0.00    -0.388 OA
HETATM   34  H   UNK     0     -49.936  -2.926  12.986  0.00  0.00     0.210 HD
ENDBRANCH   3  33
BRANCH   4  35
HETATM   35  O   UNK     0     -45.849  -1.020  14.703  0.00  0.00    -0.390 OA
HETATM   36  H   UNK     0     -45.914  -0.909  13.740  0.00  0.00     0.210 HD
ENDBRANCH   4  35
BRANCH   2  37
HETATM   37  O   UNK     0     -48.276  -0.005  13.464  0.00  0.00    -0.390 OA
HETATM   38  H   UNK     0     -48.261  -0.115  12.499  0.00  0.00     0.210 HD
ENDBRANCH   2  37
TORSDOF 10
ENDMDL
MODEL 5
REMARK VINA RESULT:      -7.3      8.211      9.753
REMARK  10 active torsions:
REMARK  status: ('A' for Active; 'I' for Inactive)
REMARK    1  A    between atoms: O_2  and  C_15 
REMARK    2  A    between atoms: O_2  and  C_18 
REMARK    3  A    between atoms: O_3  and  C_12 
REMARK    4  A    between atoms: O_4  and  C_13 
REMARK    5  A    between atoms: O_5  and  C_14 
REMARK    6  A    between atoms: O_6  and  C_17 
REMARK    7  A    between atoms: O_9  and  C_19 
REMARK    8  A    between atoms: O_10  and  C_23 
REMARK    9  A    between atoms: C_16  and  C_17 
REMARK   10  A    between atoms: C_25  and  C_27 
ROOT
HETATM    1  O   UNK     0     -44.699 -18.717  20.146  0.00  0.00    -0.340 OA
HETATM    2  C   UNK     0     -46.904 -18.713  18.304  0.00  0.00     0.183 C 
HETATM    3  C   UNK     0     -46.736 -17.642  19.381  0.00  0.00     0.205 C 
HETATM    4  C   UNK     0     -45.574 -19.395  17.982  0.00  0.00     0.189 C 
HETATM    5  C   UNK     0     -45.947 -18.178  20.577  0.00  0.00     0.299 C 
HETATM    6  C   UNK     0     -44.862 -19.819  19.261  0.00  0.00     0.253 C 
ENDROOT
BRANCH   5   7
HETATM    7  O   UNK     0     -45.719 -17.095  21.476  0.00  0.00    -0.315 OA
BRANCH   7   8
HETATM    8  C   UNK     0     -46.274 -17.203  22.717  0.00  0.00     0.111 A 
HETATM    9  C   UNK     0     -46.156 -16.163  23.640  0.00  0.00     0.137 A 
HETATM   10  C   UNK     0     -46.730 -16.289  24.906  0.00  0.00     0.129 A 
HETATM   11  O   UNK     0     -46.581 -15.235  25.769  0.00  0.00    -0.306 OA
HETATM   12  C   UNK     0     -47.419 -17.453  25.244  0.00  0.00     0.084 A 
HETATM   13  C   UNK     0     -47.147 -15.329  27.031  0.00  0.00     0.090 A 
HETATM   14  C   UNK     0     -47.827 -16.398  27.477  0.00  0.00     0.094 A 
HETATM   15  C   UNK     0     -48.014 -17.560  26.585  0.00  0.00     0.190 A 
HETATM   16  O   UNK     0     -48.630 -18.552  26.950  0.00  0.00    -0.287 OA
HETATM   17  C   UNK     0     -47.540 -18.496  24.323  0.00  0.00     0.085 A 
HETATM   18  C   UNK     0     -46.965 -18.367  23.059  0.00  0.00     0.077 A 
BRANCH   9  19
HETATM   19  O   UNK     0     -45.480 -15.027  23.301  0.00  0.00    -0.351 OA
HETATM   20  C   UNK     0     -44.082 -14.999  23.580  0.00  0.00     0.210 C 
ENDBRANCH   9  19
BRANCH  13  21
HETATM   21  C   UNK     0     -46.920 -14.143  27.881  0.00  0.00    -0.002 A 
HETATM   22  C   UNK     0     -45.690 -13.480  27.849  0.00  0.00     0.014 A 
HETATM   23  C   UNK     0     -45.477 -12.359  28.650  0.00  0.00     0.001 A 
HETATM   24  C   UNK     0     -46.492 -11.896  29.487  0.00  0.00     0.000 A 
HETATM   25  C   UNK     0     -47.721 -12.555  29.523  0.00  0.00     0.001 A 
HETATM   26  C   UNK     0     -47.935 -13.677  28.721  0.00  0.00     0.014 A 
ENDBRANCH  13  21
BRANCH  17  27
HETATM   27  O   UNK     0     -48.202 -19.652  24.607  0.00  0.00    -0.360 OA
HETATM   28  H   UNK     0     -48.031 -20.318  23.924  0.00  0.00     0.217 HD
ENDBRANCH  17  27
ENDBRANCH   7   8
ENDBRANCH   5   7
BRANCH   6  29
HETATM   29  C   UNK     0     -43.457 -20.242  18.976  0.00  0.00     0.172 C 
HETATM   30  O   UNK     0     -42.773 -20.942  19.710  0.00  0.00    -0.648 OA
BRANCH  29  31
HETATM   31  O   UNK     0     -43.036 -19.741  17.790  0.00  0.00    -0.774 OA
HETATM   32  H   UNK     0     -43.780 -19.594  17.168  0.00  0.00     0.167 HD
ENDBRANCH  29  31
ENDBRANCH   6  29
BRANCH   3  33
HETATM   33  O   UNK     0     -48.020 -17.228  19.843  0.00  0.00    -0.388 OA
HETATM   34  H   UNK     0     -47.897 -16.780  20.697  0.00  0.00     0.210 HD
ENDBRANCH   3  33
BRANCH   4  35
HETATM   35  O   UNK     0     -45.824 -20.556  17.191  0.00  0.00    -0.390 OA
HETATM   36  H   UNK     0     -44.976 -21.009  17.045  0.00  0.00     0.210 HD
ENDBRANCH   4  35
BRANCH   2  37
HETATM   37  O   UNK     0     -47.392 -18.110  17.104  0.00  0.00    -0.390 OA
HETATM   38  H   UNK     0     -48.109 -17.502  17.350  0.00  0.00     0.210 HD
ENDBRANCH   2  37
TORSDOF 10
ENDMDL
MODEL 6
REMARK VINA RESULT:      -7.3      6.489     10.581
REMARK  10 active torsions:
REMARK  status: ('A' for Active; 'I' for Inactive)
REMARK    1  A    between atoms: O_2  and  C_15 
REMARK    2  A    between atoms: O_2  and  C_18 
REMARK    3  A    between atoms: O_3  and  C_12 
REMARK    4  A    between atoms: O_4  and  C_13 
REMARK    5  A    between atoms: O_5  and  C_14 
REMARK    6  A    between atoms: O_6  and  C_17 
REMARK    7  A    between atoms: O_9  and  C_19 
REMARK    8  A    between atoms: O_10  and  C_23 
REMARK    9  A    between atoms: C_16  and  C_17 
REMARK   10  A    between atoms: C_25  and  C_27 
ROOT
HETATM    1  O   UNK     0     -46.728 -16.642  22.786  0.00  0.00    -0.340 OA
HETATM    2  C   UNK     0     -46.009 -18.028  20.374  0.00  0.00     0.183 C 
HETATM    3  C   UNK     0     -46.209 -18.752  21.706  0.00  0.00     0.205 C 
HETATM    4  C   UNK     0     -46.736 -16.683  20.356  0.00  0.00     0.189 C 
HETATM    5  C   UNK     0     -45.934 -17.821  22.889  0.00  0.00     0.299 C 
HETATM    6  C   UNK     0     -46.429 -15.886  21.618  0.00  0.00     0.253 C 
ENDROOT
BRANCH   5   7
HETATM    7  O   UNK     0     -46.263 -18.522  24.086  0.00  0.00    -0.315 OA
BRANCH   7   8
HETATM    8  C   UNK     0     -46.940 -17.819  25.040  0.00  0.00     0.111 A 
HETATM    9  C   UNK     0     -46.270 -17.303  26.150  0.00  0.00     0.137 A 
HETATM   10  C   UNK     0     -46.978 -16.585  27.115  0.00  0.00     0.129 A 
HETATM   11  O   UNK     0     -46.266 -16.103  28.183  0.00  0.00    -0.306 OA
HETATM   12  C   UNK     0     -48.349 -16.386  26.969  0.00  0.00     0.084 A 
HETATM   13  C   UNK     0     -46.941 -15.381  29.155  0.00  0.00     0.090 A 
HETATM   14  C   UNK     0     -48.259 -15.128  29.131  0.00  0.00     0.094 A 
HETATM   15  C   UNK     0     -49.071 -15.628  28.002  0.00  0.00     0.190 A 
HETATM   16  O   UNK     0     -50.274 -15.417  27.939  0.00  0.00    -0.287 OA
HETATM   17  C   UNK     0     -49.023 -16.901  25.859  0.00  0.00     0.085 A 
HETATM   18  C   UNK     0     -48.314 -17.618  24.895  0.00  0.00     0.077 A 
BRANCH   9  19
HETATM   19  O   UNK     0     -44.927 -17.502  26.286  0.00  0.00    -0.351 OA
HETATM   20  C   UNK     0     -44.068 -16.491  25.763  0.00  0.00     0.210 C 
ENDBRANCH   9  19
BRANCH  13  21
HETATM   21  C   UNK     0     -46.081 -14.915  30.262  0.00  0.00    -0.002 A 
HETATM   22  C   UNK     0     -46.593 -14.827  31.560  0.00  0.00     0.014 A 
HETATM   23  C   UNK     0     -45.782 -14.389  32.605  0.00  0.00     0.001 A 
HETATM   24  C   UNK     0     -44.455 -14.036  32.359  0.00  0.00     0.000 A 
HETATM   25  C   UNK     0     -43.940 -14.122  31.065  0.00  0.00     0.001 A 
HETATM   26  C   UNK     0     -44.752 -14.561  30.018  0.00  0.00     0.014 A 
ENDBRANCH  13  21
BRANCH  17  27
HETATM   27  O   UNK     0     -50.363 -16.734  25.671  0.00  0.00    -0.360 OA
HETATM   28  H   UNK     0     -50.591 -15.793  25.675  0.00  0.00     0.217 HD
ENDBRANCH  17  27
ENDBRANCH   7   8
ENDBRANCH   5   7
BRANCH   6  29
HETATM   29  C   UNK     0     -47.330 -14.700  21.735  0.00  0.00     0.172 C 
HETATM   30  O   UNK     0     -47.692 -13.999  20.801  0.00  0.00    -0.648 OA
BRANCH  29  31
HETATM   31  O   UNK     0     -47.692 -14.498  23.025  0.00  0.00    -0.774 OA
HETATM   32  H   UNK     0     -47.266 -13.700  23.405  0.00  0.00     0.167 HD
ENDBRANCH  29  31
ENDBRANCH   6  29
BRANCH   3  33
HETATM   33  O   UNK     0     -45.306 -19.854  21.786  0.00  0.00    -0.388 OA
HETATM   34  H   UNK     0     -45.835 -20.669  21.785  0.00  0.00     0.210 HD
ENDBRANCH   3  33
BRANCH   4  35
HETATM   35  O   UNK     0     -46.300 -15.932  19.224  0.00  0.00    -0.390 OA
HETATM   36  H   UNK     0     -45.802 -15.161  19.547  0.00  0.00     0.210 HD
ENDBRANCH   4  35
BRANCH   2  37
HETATM   37  O   UNK     0     -46.535 -18.828  19.314  0.00  0.00    -0.390 OA
HETATM   38  H   UNK     0     -47.148 -18.275  18.802  0.00  0.00     0.210 HD
ENDBRANCH   2  37
TORSDOF 10
ENDMDL
MODEL 7
REMARK VINA RESULT:      -7.3      4.248      8.877
REMARK  10 active torsions:
REMARK  status: ('A' for Active; 'I' for Inactive)
REMARK    1  A    between atoms: O_2  and  C_15 
REMARK    2  A    between atoms: O_2  and  C_18 
REMARK    3  A    between atoms: O_3  and  C_12 
REMARK    4  A    between atoms: O_4  and  C_13 
REMARK    5  A    between atoms: O_5  and  C_14 
REMARK    6  A    between atoms: O_6  and  C_17 
REMARK    7  A    between atoms: O_9  and  C_19 
REMARK    8  A    between atoms: O_10  and  C_23 
REMARK    9  A    between atoms: C_16  and  C_17 
REMARK   10  A    between atoms: C_25  and  C_27 
ROOT
HETATM    1  O   UNK     0     -49.144  -9.471  20.616  0.00  0.00    -0.340 OA
HETATM    2  C   UNK     0     -50.141  -7.728  18.561  0.00  0.00     0.183 C 
HETATM    3  C   UNK     0     -48.971  -8.684  18.327  0.00  0.00     0.205 C 
HETATM    4  C   UNK     0     -51.008  -8.184  19.736  0.00  0.00     0.189 C 
HETATM    5  C   UNK     0     -48.233  -8.986  19.632  0.00  0.00     0.299 C 
HETATM    6  C   UNK     0     -50.145  -8.515  20.946  0.00  0.00     0.253 C 
ENDROOT
BRANCH   5   7
HETATM    7  O   UNK     0     -47.244  -9.977  19.360  0.00  0.00    -0.315 OA
BRANCH   7   8
HETATM    8  C   UNK     0     -46.024  -9.800  19.944  0.00  0.00     0.111 A 
HETATM    9  C   UNK     0     -44.963 -10.655  19.642  0.00  0.00     0.137 A 
HETATM   10  C   UNK     0     -43.721 -10.459  20.247  0.00  0.00     0.129 A 
HETATM   11  O   UNK     0     -42.717 -11.331  19.912  0.00  0.00    -0.306 OA
HETATM   12  C   UNK     0     -43.543  -9.412  21.150  0.00  0.00     0.084 A 
HETATM   13  C   UNK     0     -41.470 -11.158  20.492  0.00  0.00     0.090 A 
HETATM   14  C   UNK     0     -41.176 -10.194  21.380  0.00  0.00     0.094 A 
HETATM   15  C   UNK     0     -42.224  -9.230  21.774  0.00  0.00     0.190 A 
HETATM   16  O   UNK     0     -41.998  -8.334  22.576  0.00  0.00    -0.287 OA
HETATM   17  C   UNK     0     -44.603  -8.555  21.454  0.00  0.00     0.085 A 
HETATM   18  C   UNK     0     -45.843  -8.752  20.848  0.00  0.00     0.077 A 
BRANCH   9  19
HETATM   19  O   UNK     0     -45.145 -11.678  18.757  0.00  0.00    -0.351 OA
HETATM   20  C   UNK     0     -45.707 -12.884  19.269  0.00  0.00     0.210 C 
ENDBRANCH   9  19
BRANCH  13  21
HETATM   21  C   UNK     0     -40.466 -12.154  20.068  0.00  0.00    -0.002 A 
HETATM   22  C   UNK     0     -39.123 -11.992  20.419  0.00  0.00     0.014 A 
HETATM   23  C   UNK     0     -38.176 -12.934  20.019  0.00  0.00     0.001 A 
HETATM   24  C   UNK     0     -38.566 -14.041  19.266  0.00  0.00     0.000 A 
HETATM   25  C   UNK     0     -39.906 -14.206  18.913  0.00  0.00     0.001 A 
HETATM   26  C   UNK     0     -40.855 -13.264  19.313  0.00  0.00     0.014 A 
ENDBRANCH  13  21
BRANCH  17  27
HETATM   27  O   UNK     0     -44.479  -7.518  22.330  0.00  0.00    -0.360 OA
HETATM   28  H   UNK     0     -45.204  -6.886  22.213  0.00  0.00     0.217 HD
ENDBRANCH  17  27
ENDBRANCH   7   8
ENDBRANCH   5   7
BRANCH   6  29
HETATM   29  C   UNK     0     -50.946  -9.206  22.002  0.00  0.00     0.172 C 
HETATM   30  O   UNK     0     -51.929  -8.736  22.557  0.00  0.00    -0.648 OA
BRANCH  29  31
HETATM   31  O   UNK     0     -50.432 -10.431  22.269  0.00  0.00    -0.774 OA
HETATM   32  H   UNK     0     -49.516 -10.378  22.616  0.00  0.00     0.167 HD
ENDBRANCH  29  31
ENDBRANCH   6  29
BRANCH   3  33
HETATM   33  O   UNK     0     -48.047  -8.088  17.419  0.00  0.00    -0.388 OA
HETATM   34  H   UNK     0     -48.355  -8.278  16.516  0.00  0.00     0.210 HD
ENDBRANCH   3  33
BRANCH   4  35
HETATM   35  O   UNK     0     -51.906  -7.133  20.088  0.00  0.00    -0.390 OA
HETATM   36  H   UNK     0     -52.226  -6.722  19.267  0.00  0.00     0.210 HD
ENDBRANCH   4  35
BRANCH   2  37
HETATM   37  O   UNK     0     -50.964  -7.688  17.394  0.00  0.00    -0.390 OA
HETATM   38  H   UNK     0     -51.782  -7.218  17.625  0.00  0.00     0.210 HD
ENDBRANCH   2  37
TORSDOF 10
ENDMDL
MODEL 8
REMARK VINA RESULT:      -6.9      5.356     10.668
REMARK  10 active torsions:
REMARK  status: ('A' for Active; 'I' for Inactive)
REMARK    1  A    between atoms: O_2  and  C_15 
REMARK    2  A    between atoms: O_2  and  C_18 
REMARK    3  A    between atoms: O_3  and  C_12 
REMARK    4  A    between atoms: O_4  and  C_13 
REMARK    5  A    between atoms: O_5  and  C_14 
REMARK    6  A    between atoms: O_6  and  C_17 
REMARK    7  A    between atoms: O_9  and  C_19 
REMARK    8  A    between atoms: O_10  and  C_23 
REMARK    9  A    between atoms: C_16  and  C_17 
REMARK   10  A    between atoms: C_25  and  C_27 
ROOT
HETATM    1  O   UNK     0     -49.746  -1.452  16.230  0.00  0.00    -0.340 OA
HETATM    2  C   UNK     0     -47.164  -0.317  16.777  0.00  0.00     0.183 C 
HETATM    3  C   UNK     0     -48.112  -0.766  17.889  0.00  0.00     0.205 C 
HETATM    4  C   UNK     0     -47.485  -1.012  15.454  0.00  0.00     0.189 C 
HETATM    5  C   UNK     0     -49.570  -0.704  17.431  0.00  0.00     0.299 C 
HETATM    6  C   UNK     0     -48.976  -0.935  15.152  0.00  0.00     0.253 C 
ENDROOT
BRANCH   5   7
HETATM    7  O   UNK     0     -50.381  -1.256  18.467  0.00  0.00    -0.315 OA
BRANCH   7   8
HETATM    8  C   UNK     0     -50.880  -2.507  18.250  0.00  0.00     0.111 A 
HETATM    9  C   UNK     0     -50.423  -3.592  19.001  0.00  0.00     0.137 A 
HETATM   10  C   UNK     0     -50.944  -4.866  18.767  0.00  0.00     0.129 A 
HETATM   11  O   UNK     0     -50.456  -5.891  19.535  0.00  0.00    -0.306 OA
HETATM   12  C   UNK     0     -51.918  -5.050  17.788  0.00  0.00     0.084 A 
HETATM   13  C   UNK     0     -50.960  -7.167  19.331  0.00  0.00     0.090 A 
HETATM   14  C   UNK     0     -51.893  -7.474  18.415  0.00  0.00     0.094 A 
HETATM   15  C   UNK     0     -52.448  -6.404  17.562  0.00  0.00     0.190 A 
HETATM   16  O   UNK     0     -53.302  -6.639  16.718  0.00  0.00    -0.287 OA
HETATM   17  C   UNK     0     -52.377  -3.968  17.035  0.00  0.00     0.085 A 
HETATM   18  C   UNK     0     -51.855  -2.696  17.270  0.00  0.00     0.077 A 
BRANCH   9  19
HETATM   19  O   UNK     0     -49.470  -3.403  19.958  0.00  0.00    -0.351 OA
HETATM   20  C   UNK     0     -49.923  -3.019  21.255  0.00  0.00     0.210 C 
ENDBRANCH   9  19
BRANCH  13  21
HETATM   21  C   UNK     0     -50.362  -8.196  20.205  0.00  0.00    -0.002 A 
HETATM   22  C   UNK     0     -49.228  -8.899  19.788  0.00  0.00     0.014 A 
HETATM   23  C   UNK     0     -48.663  -9.870  20.614  0.00  0.00     0.001 A 
HETATM   24  C   UNK     0     -49.228 -10.142  21.859  0.00  0.00     0.000 A 
HETATM   25  C   UNK     0     -50.360  -9.443  22.279  0.00  0.00     0.001 A 
HETATM   26  C   UNK     0     -50.926  -8.471  21.453  0.00  0.00     0.014 A 
ENDBRANCH  13  21
BRANCH  17  27
HETATM   27  O   UNK     0     -53.326  -4.097  16.066  0.00  0.00    -0.360 OA
HETATM   28  H   UNK     0     -54.047  -3.466  16.209  0.00  0.00     0.217 HD
ENDBRANCH  17  27
ENDBRANCH   7   8
ENDBRANCH   5   7
BRANCH   6  29
HETATM   29  C   UNK     0     -49.339  -1.828  14.010  0.00  0.00     0.172 C 
HETATM   30  O   UNK     0     -50.469  -1.981  13.570  0.00  0.00    -0.648 OA
BRANCH  29  31
HETATM   31  O   UNK     0     -48.241  -2.457  13.525  0.00  0.00    -0.774 OA
HETATM   32  H   UNK     0     -47.765  -2.956  14.223  0.00  0.00     0.167 HD
ENDBRANCH  29  31
ENDBRANCH   6  29
BRANCH   3  33
HETATM   33  O   UNK     0     -47.961   0.094  19.017  0.00  0.00    -0.388 OA
HETATM   34  H   UNK     0     -47.648  -0.448  19.761  0.00  0.00     0.210 HD
ENDBRANCH   3  33
BRANCH   4  35
HETATM   35  O   UNK     0     -46.771  -0.367  14.401  0.00  0.00    -0.390 OA
HETATM   36  H   UNK     0     -46.696   0.577  14.622  0.00  0.00     0.210 HD
ENDBRANCH   4  35
BRANCH   2  37
HETATM   37  O   UNK     0     -45.821  -0.647  17.135  0.00  0.00    -0.390 OA
HETATM   38  H   UNK     0     -45.847  -1.100  17.994  0.00  0.00     0.210 HD
ENDBRANCH   2  37
TORSDOF 10
ENDMDL
MODEL 9
REMARK VINA RESULT:      -6.9      3.522      7.197
REMARK  10 active torsions:
REMARK  status: ('A' for Active; 'I' for Inactive)
REMARK    1  A    between atoms: O_2  and  C_15 
REMARK    2  A    between atoms: O_2  and  C_18 
REMARK    3  A    between atoms: O_3  and  C_12 
REMARK    4  A    between atoms: O_4  and  C_13 
REMARK    5  A    between atoms: O_5  and  C_14 
REMARK    6  A    between atoms: O_6  and  C_17 
REMARK    7  A    between atoms: O_9  and  C_19 
REMARK    8  A    between atoms: O_10  and  C_23 
REMARK    9  A    between atoms: C_16  and  C_17 
REMARK   10  A    between atoms: C_25  and  C_27 
ROOT
HETATM    1  O   UNK     0     -50.186  -8.056  19.749  0.00  0.00    -0.340 OA
HETATM    2  C   UNK     0     -50.711  -8.871  22.454  0.00  0.00     0.183 C 
HETATM    3  C   UNK     0     -51.549  -7.809  21.742  0.00  0.00     0.205 C 
HETATM    4  C   UNK     0     -49.991  -9.777  21.455  0.00  0.00     0.189 C 
HETATM    5  C   UNK     0     -50.740  -7.103  20.654  0.00  0.00     0.299 C 
HETATM    6  C   UNK     0     -49.283  -8.950  20.390  0.00  0.00     0.253 C 
ENDROOT
BRANCH   5   7
HETATM    7  O   UNK     0     -51.617  -6.225  19.951  0.00  0.00    -0.315 OA
BRANCH   7   8
HETATM    8  C   UNK     0     -51.107  -5.602  18.850  0.00  0.00     0.111 A 
HETATM    9  C   UNK     0     -50.063  -4.685  18.975  0.00  0.00     0.137 A 
HETATM   10  C   UNK     0     -49.551  -4.057  17.838  0.00  0.00     0.129 A 
HETATM   11  O   UNK     0     -48.526  -3.166  18.023  0.00  0.00    -0.306 OA
HETATM   12  C   UNK     0     -50.084  -4.347  16.583  0.00  0.00     0.084 A 
HETATM   13  C   UNK     0     -47.993  -2.532  16.912  0.00  0.00     0.090 A 
HETATM   14  C   UNK     0     -48.424  -2.721  15.654  0.00  0.00     0.094 A 
HETATM   15  C   UNK     0     -49.527  -3.670  15.402  0.00  0.00     0.190 A 
HETATM   16  O   UNK     0     -49.947  -3.875  14.272  0.00  0.00    -0.287 OA
HETATM   17  C   UNK     0     -51.129  -5.265  16.455  0.00  0.00     0.085 A 
HETATM   18  C   UNK     0     -51.639  -5.891  17.592  0.00  0.00     0.077 A 
BRANCH   9  19
HETATM   19  O   UNK     0     -49.546  -4.407  20.207  0.00  0.00    -0.351 OA
HETATM   20  C   UNK     0     -50.160  -3.352  20.942  0.00  0.00     0.210 C 
ENDBRANCH   9  19
BRANCH  13  21
HETATM   21  C   UNK     0     -46.900  -1.589  17.225  0.00  0.00    -0.002 A 
HETATM   22  C   UNK     0     -47.176  -0.388  17.884  0.00  0.00     0.014 A 
HETATM   23  C   UNK     0     -46.144   0.502  18.180  0.00  0.00     0.001 A 
HETATM   24  C   UNK     0     -44.833   0.196  17.819  0.00  0.00     0.000 A 
HETATM   25  C   UNK     0     -44.553  -1.002  17.160  0.00  0.00     0.001 A 
HETATM   26  C   UNK     0     -45.585  -1.893  16.864  0.00  0.00     0.014 A 
ENDBRANCH  13  21
BRANCH  17  27
HETATM   27  O   UNK     0     -51.684  -5.581  15.251  0.00  0.00    -0.360 OA
HETATM   28  H   UNK     0     -51.222  -6.332  14.850  0.00  0.00     0.217 HD
ENDBRANCH  17  27
ENDBRANCH   7   8
ENDBRANCH   5   7
BRANCH   6  29
HETATM   29  C   UNK     0     -48.803  -9.815  19.270  0.00  0.00     0.172 C 
HETATM   30  O   UNK     0     -48.442 -10.978  19.387  0.00  0.00    -0.648 OA
BRANCH  29  31
HETATM   31  O   UNK     0     -48.817  -9.136  18.098  0.00  0.00    -0.774 OA
HETATM   32  H   UNK     0     -48.054  -8.524  18.020  0.00  0.00     0.167 HD
ENDBRANCH  29  31
ENDBRANCH   6  29
BRANCH   3  33
HETATM   33  O   UNK     0     -51.977  -6.830  22.687  0.00  0.00    -0.388 OA
HETATM   34  H   UNK     0     -51.457  -6.023  22.532  0.00  0.00     0.210 HD
ENDBRANCH   3  33
BRANCH   4  35
HETATM   35  O   UNK     0     -49.020 -10.558  22.149  0.00  0.00    -0.390 OA
HETATM   36  H   UNK     0     -49.488 -11.131  22.780  0.00  0.00     0.210 HD
ENDBRANCH   4  35
BRANCH   2  37
HETATM   37  O   UNK     0     -51.563  -9.689  23.259  0.00  0.00    -0.390 OA
HETATM   38  H   UNK     0     -51.238  -9.643  24.174  0.00  0.00     0.210 HD
ENDBRANCH   2  37
TORSDOF 10
ENDMDL
MODEL 10
REMARK VINA RESULT:      -6.9      9.415     11.313
REMARK  10 active torsions:
REMARK  status: ('A' for Active; 'I' for Inactive)
REMARK    1  A    between atoms: O_2  and  C_15 
REMARK    2  A    between atoms: O_2  and  C_18 
REMARK    3  A    between atoms: O_3  and  C_12 
REMARK    4  A    between atoms: O_4  and  C_13 
REMARK    5  A    between atoms: O_5  and  C_14 
REMARK    6  A    between atoms: O_6  and  C_17 
REMARK    7  A    between atoms: O_9  and  C_19 
REMARK    8  A    between atoms: O_10  and  C_23 
REMARK    9  A    between atoms: C_16  and  C_17 
REMARK   10  A    between atoms: C_25  and  C_27 
ROOT
HETATM    1  O   UNK     0     -46.913 -16.387  27.965  0.00  0.00    -0.340 OA
HETATM    2  C   UNK     0     -49.564 -16.231  26.869  0.00  0.00     0.183 C 
HETATM    3  C   UNK     0     -48.588 -17.347  26.495  0.00  0.00     0.205 C 
HETATM    4  C   UNK     0     -49.197 -15.594  28.210  0.00  0.00     0.189 C 
HETATM    5  C   UNK     0     -47.138 -16.888  26.649  0.00  0.00     0.299 C 
HETATM    6  C   UNK     0     -47.714 -15.248  28.255  0.00  0.00     0.253 C 
ENDROOT
BRANCH   5   7
HETATM    7  O   UNK     0     -46.293 -18.012  26.411  0.00  0.00    -0.315 OA
BRANCH   7   8
HETATM    8  C   UNK     0     -45.344 -17.869  25.440  0.00  0.00     0.111 A 
HETATM    9  C   UNK     0     -45.515 -18.465  24.190  0.00  0.00     0.137 A 
HETATM   10  C   UNK     0     -44.535 -18.309  23.207  0.00  0.00     0.129 A 
HETATM   11  O   UNK     0     -44.758 -18.917  21.999  0.00  0.00    -0.306 OA
HETATM   12  C   UNK     0     -43.392 -17.559  23.478  0.00  0.00     0.084 A 
HETATM   13  C   UNK     0     -43.806 -18.774  21.002  0.00  0.00     0.090 A 
HETATM   14  C   UNK     0     -42.662 -18.085  21.142  0.00  0.00     0.094 A 
HETATM   15  C   UNK     0     -42.375 -17.412  22.425  0.00  0.00     0.190 A 
HETATM   16  O   UNK     0     -41.347 -16.771  22.594  0.00  0.00    -0.287 OA
HETATM   17  C   UNK     0     -43.218 -16.962  24.728  0.00  0.00     0.085 A 
HETATM   18  C   UNK     0     -44.198 -17.120  25.708  0.00  0.00     0.077 A 
BRANCH   9  19
HETATM   19  O   UNK     0     -46.637 -19.197  23.932  0.00  0.00    -0.351 OA
HETATM   20  C   UNK     0     -46.590 -20.587  24.247  0.00  0.00     0.210 C 
ENDBRANCH   9  19
BRANCH  13  21
HETATM   21  C   UNK     0     -44.142 -19.474  19.746  0.00  0.00    -0.002 A 
HETATM   22  C   UNK     0     -45.447 -19.436  19.248  0.00  0.00     0.014 A 
HETATM   23  C   UNK     0     -45.764 -20.097  18.061  0.00  0.00     0.001 A 
HETATM   24  C   UNK     0     -44.778 -20.797  17.368  0.00  0.00     0.000 A 
HETATM   25  C   UNK     0     -43.474 -20.838  17.861  0.00  0.00     0.001 A 
HETATM   26  C   UNK     0     -43.156 -20.177  19.049  0.00  0.00     0.014 A 
ENDBRANCH  13  21
BRANCH  17  27
HETATM   27  O   UNK     0     -42.118 -16.221  25.041  0.00  0.00    -0.360 OA
HETATM   28  H   UNK     0     -41.387 -16.427  24.439  0.00  0.00     0.217 HD
ENDBRANCH  17  27
ENDBRANCH   7   8
ENDBRANCH   5   7
BRANCH   6  29
HETATM   29  C   UNK     0     -47.293 -14.875  29.640  0.00  0.00     0.172 C 
HETATM   30  O   UNK     0     -47.717 -13.914  30.267  0.00  0.00    -0.648 OA
BRANCH  29  31
HETATM   31  O   UNK     0     -46.369 -15.746  30.111  0.00  0.00    -0.774 OA
HETATM   32  H   UNK     0     -46.783 -16.543  30.506  0.00  0.00     0.167 HD
ENDBRANCH  29  31
ENDBRANCH   6  29
BRANCH   3  33
HETATM   33  O   UNK     0     -48.797 -17.722  25.135  0.00  0.00    -0.388 OA
HETATM   34  H   UNK     0     -48.542 -16.966  24.578  0.00  0.00     0.210 HD
ENDBRANCH   3  33
BRANCH   4  35
HETATM   35  O   UNK     0     -49.952 -14.396  28.381  0.00  0.00    -0.390 OA
HETATM   36  H   UNK     0     -49.328 -13.657  28.475  0.00  0.00     0.210 HD
ENDBRANCH   4  35
BRANCH   2  37
HETATM   37  O   UNK     0     -50.883 -16.769  26.982  0.00  0.00    -0.390 OA
HETATM   38  H   UNK     0     -50.844 -17.704  26.719  0.00  0.00     0.210 HD
ENDBRANCH   2  37
TORSDOF 10
ENDMDL
