MODEL 1
REMARK VINA RESULT:      -6.0      0.000      0.000
REMARK  7 active torsions:
REMARK  status: ('A' for Active; 'I' for Inactive)
REMARK    1  A    between atoms: O_2  and  C_10 
REMARK    2  A    between atoms: O_3  and  C_11 
REMARK    3  A    between atoms: O_4  and  C_14 
REMARK    4  A    between atoms: O_6  and  N_9 
REMARK    5  A    between atoms: N_7  and  C_12 
REMARK    6  A    between atoms: N_9  and  C_18 
REMARK    7  A    between atoms: C_13  and  C_14 
ROOT
HETATM    1  O   UNK     0     -46.584  -2.273  17.770  0.00  0.00    -0.353 OA
HETATM    2  C   UNK     0     -46.158  -2.186  15.442  0.00  0.00     0.198 C 
HETATM    3  C   UNK     0     -45.152  -1.305  16.151  0.00  0.00     0.182 C 
HETATM    4  C   UNK     0     -46.662  -3.063  16.573  0.00  0.00     0.264 C 
HETATM    5  C   UNK     0     -45.822  -1.077  17.499  0.00  0.00     0.179 C 
ENDROOT
BRANCH   4   6
HETATM    6  N   UNK     0     -48.021  -3.482  16.379  0.00  0.00    -0.278 N 
HETATM    7  C   UNK     0     -48.834  -2.737  15.539  0.00  0.00     0.102 A 
HETATM    8  C   UNK     0     -50.105  -3.052  15.300  0.00  0.00     0.070 A 
HETATM    9  C   UNK     0     -50.626  -4.262  15.988  0.00  0.00     0.153 A 
HETATM   10  N   UNK     0     -49.873  -4.975  16.784  0.00  0.00    -0.174 NA
HETATM   11  C   UNK     0     -48.553  -4.632  17.018  0.00  0.00     0.352 A 
HETATM   12  O   UNK     0     -47.857  -5.317  17.769  0.00  0.00    -0.244 OA
BRANCH   9  13
HETATM   13  N   UNK     0     -51.936  -4.621  15.770  0.00  0.00    -0.251 N 
HETATM   14  H   UNK     0     -52.742  -4.008  15.771  0.00  0.00     0.196 HD
BRANCH  13  15
HETATM   15  O   UNK     0     -52.090  -5.933  15.426  0.00  0.00    -0.288 OA
HETATM   16  H   UNK     0     -52.508  -5.864  14.552  0.00  0.00     0.244 HD
ENDBRANCH  13  15
ENDBRANCH   9  13
ENDBRANCH   4   6
BRANCH   5  17
HETATM   17  C   UNK     0     -46.781   0.107  17.500  0.00  0.00     0.198 C 
BRANCH  17  18
HETATM   18  O   UNK     0     -46.157   1.195  18.157  0.00  0.00    -0.398 OA
HETATM   19  H   UNK     0     -46.450   2.006  17.708  0.00  0.00     0.209 HD
ENDBRANCH  17  18
ENDBRANCH   5  17
BRANCH   2  20
HETATM   20  O   UNK     0     -45.573  -2.933  14.394  0.00  0.00    -0.388 OA
HETATM   21  H   UNK     0     -46.124  -3.722  14.254  0.00  0.00     0.210 HD
ENDBRANCH   2  20
BRANCH   3  22
HETATM   22  O   UNK     0     -43.939  -2.024  16.380  0.00  0.00    -0.390 OA
HETATM   23  H   UNK     0     -44.090  -2.966  16.198  0.00  0.00     0.210 HD
ENDBRANCH   3  22
TORSDOF 7
ENDMDL
MODEL 2
REMARK VINA RESULT:      -6.0      2.192      2.665
REMARK  7 active torsions:
REMARK  status: ('A' for Active; 'I' for Inactive)
REMARK    1  A    between atoms: O_2  and  C_10 
REMARK    2  A    between atoms: O_3  and  C_11 
REMARK    3  A    between atoms: O_4  and  C_14 
REMARK    4  A    between atoms: O_6  and  N_9 
REMARK    5  A    between atoms: N_7  and  C_12 
REMARK    6  A    between atoms: N_9  and  C_18 
REMARK    7  A    between atoms: C_13  and  C_14 
ROOT
HETATM    1  O   UNK     0     -46.215  -1.652  18.310  0.00  0.00    -0.353 OA
HETATM    2  C   UNK     0     -44.684  -1.300  16.537  0.00  0.00     0.198 C 
HETATM    3  C   UNK     0     -43.998  -0.960  17.844  0.00  0.00     0.182 C 
HETATM    4  C   UNK     0     -45.859  -2.139  17.006  0.00  0.00     0.264 C 
HETATM    5  C   UNK     0     -45.181  -0.761  18.781  0.00  0.00     0.179 C 
ENDROOT
BRANCH   4   6
HETATM    6  N   UNK     0     -46.996  -2.025  16.138  0.00  0.00    -0.278 N 
HETATM    7  C   UNK     0     -47.113  -0.897  15.340  0.00  0.00     0.102 A 
HETATM    8  C   UNK     0     -48.132  -0.708  14.505  0.00  0.00     0.070 A 
HETATM    9  C   UNK     0     -49.161  -1.780  14.466  0.00  0.00     0.153 A 
HETATM   10  N   UNK     0     -49.066  -2.848  15.213  0.00  0.00    -0.174 NA
HETATM   11  C   UNK     0     -47.997  -3.027  16.073  0.00  0.00     0.352 A 
HETATM   12  O   UNK     0     -47.922  -4.042  16.768  0.00  0.00    -0.244 OA
BRANCH   9  13
HETATM   13  N   UNK     0     -50.233  -1.623  13.618  0.00  0.00    -0.251 N 
HETATM   14  H   UNK     0     -50.876  -2.343  13.311  0.00  0.00     0.196 HD
BRANCH  13  15
HETATM   15  O   UNK     0     -50.461  -0.325  13.264  0.00  0.00    -0.288 OA
HETATM   16  H   UNK     0     -50.407   0.130  14.121  0.00  0.00     0.244 HD
ENDBRANCH  13  15
ENDBRANCH   9  13
ENDBRANCH   4   6
BRANCH   5  17
HETATM   17  C   UNK     0     -45.733   0.658  18.761  0.00  0.00     0.198 C 
BRANCH  17  18
HETATM   18  O   UNK     0     -44.675   1.551  18.460  0.00  0.00    -0.398 OA
HETATM   19  H   UNK     0     -44.527   1.505  17.500  0.00  0.00     0.209 HD
ENDBRANCH  17  18
ENDBRANCH   5  17
BRANCH   2  20
HETATM   20  O   UNK     0     -43.834  -2.001  15.652  0.00  0.00    -0.388 OA
HETATM   21  H   UNK     0     -44.379  -2.319  14.913  0.00  0.00     0.210 HD
ENDBRANCH   2  20
BRANCH   3  22
HETATM   22  O   UNK     0     -43.248  -2.080  18.314  0.00  0.00    -0.390 OA
HETATM   23  H   UNK     0     -42.497  -1.760  18.841  0.00  0.00     0.210 HD
ENDBRANCH   3  22
TORSDOF 7
ENDMDL
MODEL 3
REMARK VINA RESULT:      -5.9      2.468      5.942
REMARK  7 active torsions:
REMARK  status: ('A' for Active; 'I' for Inactive)
REMARK    1  A    between atoms: O_2  and  C_10 
REMARK    2  A    between atoms: O_3  and  C_11 
REMARK    3  A    between atoms: O_4  and  C_14 
REMARK    4  A    between atoms: O_6  and  N_9 
REMARK    5  A    between atoms: N_7  and  C_12 
REMARK    6  A    between atoms: N_9  and  C_18 
REMARK    7  A    between atoms: C_13  and  C_14 
ROOT
HETATM    1  O   UNK     0     -49.939  -2.840  16.877  0.00  0.00    -0.353 OA
HETATM    2  C   UNK     0     -49.674  -3.171  14.546  0.00  0.00     0.198 C 
HETATM    3  C   UNK     0     -50.989  -3.785  14.976  0.00  0.00     0.182 C 
HETATM    4  C   UNK     0     -49.369  -2.237  15.704  0.00  0.00     0.264 C 
HETATM    5  C   UNK     0     -50.796  -3.932  16.479  0.00  0.00     0.179 C 
ENDROOT
BRANCH   4   6
HETATM    6  N   UNK     0     -47.959  -2.060  15.908  0.00  0.00    -0.278 N 
HETATM    7  C   UNK     0     -47.306  -2.899  16.798  0.00  0.00     0.102 A 
HETATM    8  C   UNK     0     -46.001  -2.807  17.048  0.00  0.00     0.070 A 
HETATM    9  C   UNK     0     -45.262  -1.744  16.318  0.00  0.00     0.153 A 
HETATM   10  N   UNK     0     -45.863  -0.945  15.477  0.00  0.00    -0.174 NA
HETATM   11  C   UNK     0     -47.221  -1.058  15.229  0.00  0.00     0.352 A 
HETATM   12  O   UNK     0     -47.771  -0.298  14.431  0.00  0.00    -0.244 OA
BRANCH   9  13
HETATM   13  N   UNK     0     -43.912  -1.615  16.550  0.00  0.00    -0.251 N 
HETATM   14  H   UNK     0     -43.304  -0.883  16.202  0.00  0.00     0.196 HD
BRANCH  13  15
HETATM   15  O   UNK     0     -43.417  -2.541  17.421  0.00  0.00    -0.288 OA
HETATM   16  H   UNK     0     -44.223  -3.012  17.693  0.00  0.00     0.244 HD
ENDBRANCH  13  15
ENDBRANCH   9  13
ENDBRANCH   4   6
BRANCH   5  17
HETATM   17  C   UNK     0     -50.116  -5.236  16.874  0.00  0.00     0.198 C 
BRANCH  17  18
HETATM   18  O   UNK     0     -50.937  -6.316  16.467  0.00  0.00    -0.398 OA
HETATM   19  H   UNK     0     -51.297  -6.088  15.593  0.00  0.00     0.209 HD
ENDBRANCH  17  18
ENDBRANCH   5  17
BRANCH   2  20
HETATM   20  O   UNK     0     -49.778  -2.490  13.312  0.00  0.00    -0.388 OA
HETATM   21  H   UNK     0     -49.379  -1.612  13.428  0.00  0.00     0.210 HD
ENDBRANCH   2  20
BRANCH   3  22
HETATM   22  O   UNK     0     -52.060  -2.866  14.758  0.00  0.00    -0.390 OA
HETATM   23  H   UNK     0     -52.904  -3.344  14.809  0.00  0.00     0.210 HD
ENDBRANCH   3  22
TORSDOF 7
ENDMDL
MODEL 4
REMARK VINA RESULT:      -5.9      2.660      5.832
REMARK  7 active torsions:
REMARK  status: ('A' for Active; 'I' for Inactive)
REMARK    1  A    between atoms: O_2  and  C_10 
REMARK    2  A    between atoms: O_3  and  C_11 
REMARK    3  A    between atoms: O_4  and  C_14 
REMARK    4  A    between atoms: O_6  and  N_9 
REMARK    5  A    between atoms: N_7  and  C_12 
REMARK    6  A    between atoms: N_9  and  C_18 
REMARK    7  A    between atoms: C_13  and  C_14 
ROOT
HETATM    1  O   UNK     0     -51.116  -5.221  15.608  0.00  0.00    -0.353 OA
HETATM    2  C   UNK     0     -50.416  -4.228  17.642  0.00  0.00     0.198 C 
HETATM    3  C   UNK     0     -51.329  -5.393  17.961  0.00  0.00     0.182 C 
HETATM    4  C   UNK     0     -50.011  -4.528  16.210  0.00  0.00     0.264 C 
HETATM    5  C   UNK     0     -52.054  -5.601  16.638  0.00  0.00     0.179 C 
ENDROOT
BRANCH   4   6
HETATM    6  N   UNK     0     -49.740  -3.338  15.455  0.00  0.00    -0.278 N 
HETATM    7  C   UNK     0     -50.751  -2.802  14.673  0.00  0.00     0.102 A 
HETATM    8  C   UNK     0     -50.590  -1.701  13.942  0.00  0.00     0.070 A 
HETATM    9  C   UNK     0     -49.251  -1.059  14.002  0.00  0.00     0.153 A 
HETATM   10  N   UNK     0     -48.287  -1.552  14.733  0.00  0.00    -0.174 NA
HETATM   11  C   UNK     0     -48.475  -2.697  15.488  0.00  0.00     0.352 A 
HETATM   12  O   UNK     0     -47.556  -3.147  16.174  0.00  0.00    -0.244 OA
BRANCH   9  13
HETATM   13  N   UNK     0     -49.041   0.080  13.259  0.00  0.00    -0.251 N 
HETATM   14  H   UNK     0     -48.149   0.453  12.958  0.00  0.00     0.196 HD
BRANCH  13  15
HETATM   15  O   UNK     0     -50.195   0.671  12.832  0.00  0.00    -0.288 OA
HETATM   16  H   UNK     0     -50.434   1.222  13.595  0.00  0.00     0.244 HD
ENDBRANCH  13  15
ENDBRANCH   9  13
ENDBRANCH   4   6
BRANCH   5  17
HETATM   17  C   UNK     0     -53.297  -4.733  16.491  0.00  0.00     0.198 C 
BRANCH  17  18
HETATM   18  O   UNK     0     -53.700  -4.747  15.133  0.00  0.00    -0.398 OA
HETATM   19  H   UNK     0     -54.421  -4.101  15.042  0.00  0.00     0.209 HD
ENDBRANCH  17  18
ENDBRANCH   5  17
BRANCH   2  20
HETATM   20  O   UNK     0     -49.308  -4.159  18.517  0.00  0.00    -0.388 OA
HETATM   21  H   UNK     0     -48.619  -4.746  18.163  0.00  0.00     0.210 HD
ENDBRANCH   2  20
BRANCH   3  22
HETATM   22  O   UNK     0     -50.560  -6.565  18.230  0.00  0.00    -0.390 OA
HETATM   23  H   UNK     0     -50.002  -6.762  17.459  0.00  0.00     0.210 HD
ENDBRANCH   3  22
TORSDOF 7
ENDMDL
MODEL 5
REMARK VINA RESULT:      -5.8     15.706     17.365
REMARK  7 active torsions:
REMARK  status: ('A' for Active; 'I' for Inactive)
REMARK    1  A    between atoms: O_2  and  C_10 
REMARK    2  A    between atoms: O_3  and  C_11 
REMARK    3  A    between atoms: O_4  and  C_14 
REMARK    4  A    between atoms: O_6  and  N_9 
REMARK    5  A    between atoms: N_7  and  C_12 
REMARK    6  A    between atoms: N_9  and  C_18 
REMARK    7  A    between atoms: C_13  and  C_14 
ROOT
HETATM    1  O   UNK     0     -47.487 -15.115  26.578  0.00  0.00    -0.353 OA
HETATM    2  C   UNK     0     -49.377 -16.394  27.216  0.00  0.00     0.198 C 
HETATM    3  C   UNK     0     -49.159 -15.305  28.245  0.00  0.00     0.182 C 
HETATM    4  C   UNK     0     -48.579 -15.874  26.033  0.00  0.00     0.264 C 
HETATM    5  C   UNK     0     -47.711 -14.910  27.989  0.00  0.00     0.179 C 
ENDROOT
BRANCH   4   6
HETATM    6  N   UNK     0     -48.052 -16.933  25.220  0.00  0.00    -0.278 N 
HETATM    7  C   UNK     0     -47.895 -18.190  25.784  0.00  0.00     0.102 A 
HETATM    8  C   UNK     0     -47.415 -19.229  25.104  0.00  0.00     0.070 A 
HETATM    9  C   UNK     0     -47.047 -18.978  23.686  0.00  0.00     0.153 A 
HETATM   10  N   UNK     0     -47.188 -17.799  23.140  0.00  0.00    -0.174 NA
HETATM   11  C   UNK     0     -47.691 -16.731  23.864  0.00  0.00     0.352 A 
HETATM   12  O   UNK     0     -47.819 -15.627  23.332  0.00  0.00    -0.244 OA
BRANCH   9  13
HETATM   13  N   UNK     0     -46.545 -20.025  22.949  0.00  0.00    -0.251 N 
HETATM   14  H   UNK     0     -45.993 -19.962  22.102  0.00  0.00     0.196 HD
BRANCH  13  15
HETATM   15  O   UNK     0     -46.763 -21.246  23.519  0.00  0.00    -0.288 OA
HETATM   16  H   UNK     0     -46.116 -21.803  23.055  0.00  0.00     0.244 HD
ENDBRANCH  13  15
ENDBRANCH   9  13
ENDBRANCH   4   6
BRANCH   5  17
HETATM   17  C   UNK     0     -46.710 -15.764  28.757  0.00  0.00     0.198 C 
BRANCH  17  18
HETATM   18  O   UNK     0     -45.779 -16.307  27.837  0.00  0.00    -0.398 OA
HETATM   19  H   UNK     0     -45.739 -17.264  28.002  0.00  0.00     0.209 HD
ENDBRANCH  17  18
ENDBRANCH   5  17
BRANCH   2  20
HETATM   20  O   UNK     0     -50.745 -16.577  26.911  0.00  0.00    -0.388 OA
HETATM   21  H   UNK     0     -50.805 -16.810  25.970  0.00  0.00     0.210 HD
ENDBRANCH   2  20
BRANCH   3  22
HETATM   22  O   UNK     0     -49.981 -14.175  27.951  0.00  0.00    -0.390 OA
HETATM   23  H   UNK     0     -50.775 -14.474  27.479  0.00  0.00     0.210 HD
ENDBRANCH   3  22
TORSDOF 7
ENDMDL
MODEL 6
REMARK VINA RESULT:      -5.7      6.445      9.028
REMARK  7 active torsions:
REMARK  status: ('A' for Active; 'I' for Inactive)
REMARK    1  A    between atoms: O_2  and  C_10 
REMARK    2  A    between atoms: O_3  and  C_11 
REMARK    3  A    between atoms: O_4  and  C_14 
REMARK    4  A    between atoms: O_6  and  N_9 
REMARK    5  A    between atoms: N_7  and  C_12 
REMARK    6  A    between atoms: N_9  and  C_18 
REMARK    7  A    between atoms: C_13  and  C_14 
ROOT
HETATM    1  O   UNK     0     -48.823  -9.754  18.688  0.00  0.00    -0.353 OA
HETATM    2  C   UNK     0     -48.256  -8.880  20.815  0.00  0.00     0.198 C 
HETATM    3  C   UNK     0     -49.654  -8.420  20.460  0.00  0.00     0.182 C 
HETATM    4  C   UNK     0     -48.058 -10.049  19.867  0.00  0.00     0.264 C 
HETATM    5  C   UNK     0     -49.683  -8.625  18.951  0.00  0.00     0.179 C 
ENDROOT
BRANCH   4   6
HETATM    6  N   UNK     0     -46.683 -10.230  19.498  0.00  0.00    -0.278 N 
HETATM    7  C   UNK     0     -45.887  -9.108  19.330  0.00  0.00     0.102 A 
HETATM    8  C   UNK     0     -44.601  -9.181  18.990  0.00  0.00     0.070 A 
HETATM    9  C   UNK     0     -44.047 -10.546  18.793  0.00  0.00     0.153 A 
HETATM   10  N   UNK     0     -44.785 -11.614  18.947  0.00  0.00    -0.174 NA
HETATM   11  C   UNK     0     -46.119 -11.516  19.303  0.00  0.00     0.352 A 
HETATM   12  O   UNK     0     -46.799 -12.534  19.446  0.00  0.00    -0.244 OA
BRANCH   9  13
HETATM   13  N   UNK     0     -42.723 -10.666  18.439  0.00  0.00    -0.251 N 
HETATM   14  H   UNK     0     -41.976 -11.054  19.004  0.00  0.00     0.196 HD
BRANCH  13  15
HETATM   15  O   UNK     0     -42.468 -10.297  17.150  0.00  0.00    -0.288 OA
HETATM   16  H   UNK     0     -43.282  -9.823  16.912  0.00  0.00     0.244 HD
ENDBRANCH  13  15
ENDBRANCH   9  13
ENDBRANCH   4   6
BRANCH   5  17
HETATM   17  C   UNK     0     -49.148  -7.430  18.172  0.00  0.00     0.198 C 
BRANCH  17  18
HETATM   18  O   UNK     0     -48.222  -7.897  17.207  0.00  0.00    -0.398 OA
HETATM   19  H   UNK     0     -48.308  -8.865  17.173  0.00  0.00     0.209 HD
ENDBRANCH  17  18
ENDBRANCH   5  17
BRANCH   2  20
HETATM   20  O   UNK     0     -48.143  -9.255  22.173  0.00  0.00    -0.388 OA
HETATM   21  H   UNK     0     -49.022  -9.156  22.577  0.00  0.00     0.210 HD
ENDBRANCH   2  20
BRANCH   3  22
HETATM   22  O   UNK     0     -50.624  -9.293  21.040  0.00  0.00    -0.390 OA
HETATM   23  H   UNK     0     -50.875  -8.951  21.914  0.00  0.00     0.210 HD
ENDBRANCH   3  22
TORSDOF 7
ENDMDL
MODEL 7
REMARK VINA RESULT:      -5.7      2.241      2.596
REMARK  7 active torsions:
REMARK  status: ('A' for Active; 'I' for Inactive)
REMARK    1  A    between atoms: O_2  and  C_10 
REMARK    2  A    between atoms: O_3  and  C_11 
REMARK    3  A    between atoms: O_4  and  C_14 
REMARK    4  A    between atoms: O_6  and  N_9 
REMARK    5  A    between atoms: N_7  and  C_12 
REMARK    6  A    between atoms: N_9  and  C_18 
REMARK    7  A    between atoms: C_13  and  C_14 
ROOT
HETATM    1  O   UNK     0     -48.579  -2.458  16.849  0.00  0.00    -0.353 OA
HETATM    2  C   UNK     0     -48.782  -2.080  14.519  0.00  0.00     0.198 C 
HETATM    3  C   UNK     0     -47.792  -1.085  15.087  0.00  0.00     0.182 C 
HETATM    4  C   UNK     0     -48.825  -3.138  15.607  0.00  0.00     0.264 C 
HETATM    5  C   UNK     0     -48.125  -1.115  16.572  0.00  0.00     0.179 C 
ENDROOT
BRANCH   4   6
HETATM    6  N   UNK     0     -50.097  -3.797  15.681  0.00  0.00    -0.278 N 
HETATM    7  C   UNK     0     -51.217  -3.140  15.195  0.00  0.00     0.102 A 
HETATM    8  C   UNK     0     -52.435  -3.677  15.221  0.00  0.00     0.070 A 
HETATM    9  C   UNK     0     -52.545  -5.037  15.808  0.00  0.00     0.153 A 
HETATM   10  N   UNK     0     -51.500  -5.670  16.272  0.00  0.00    -0.174 NA
HETATM   11  C   UNK     0     -50.240  -5.096  16.233  0.00  0.00     0.352 A 
HETATM   12  O   UNK     0     -49.266  -5.708  16.673  0.00  0.00    -0.244 OA
BRANCH   9  13
HETATM   13  N   UNK     0     -53.787  -5.627  15.857  0.00  0.00    -0.251 N 
HETATM   14  H   UNK     0     -53.998  -6.610  15.735  0.00  0.00     0.196 HD
BRANCH  13  15
HETATM   15  O   UNK     0     -54.786  -4.764  16.204  0.00  0.00    -0.288 OA
HETATM   16  H   UNK     0     -55.454  -4.945  15.522  0.00  0.00     0.244 HD
ENDBRANCH  13  15
ENDBRANCH   9  13
ENDBRANCH   4   6
BRANCH   5  17
HETATM   17  C   UNK     0     -49.238  -0.150  16.959  0.00  0.00     0.198 C 
BRANCH  17  18
HETATM   18  O   UNK     0     -50.086  -0.789  17.896  0.00  0.00    -0.398 OA
HETATM   19  H   UNK     0     -50.945  -0.334  17.862  0.00  0.00     0.209 HD
ENDBRANCH  17  18
ENDBRANCH   5  17
BRANCH   2  20
HETATM   20  O   UNK     0     -48.366  -2.599  13.272  0.00  0.00    -0.388 OA
HETATM   21  H   UNK     0     -47.686  -2.001  12.919  0.00  0.00     0.210 HD
ENDBRANCH   2  20
BRANCH   3  22
HETATM   22  O   UNK     0     -46.458  -1.568  14.926  0.00  0.00    -0.390 OA
HETATM   23  H   UNK     0     -46.456  -2.534  15.025  0.00  0.00     0.210 HD
ENDBRANCH   3  22
TORSDOF 7
ENDMDL
MODEL 8
REMARK VINA RESULT:      -5.6      3.303      5.093
REMARK  7 active torsions:
REMARK  status: ('A' for Active; 'I' for Inactive)
REMARK    1  A    between atoms: O_2  and  C_10 
REMARK    2  A    between atoms: O_3  and  C_11 
REMARK    3  A    between atoms: O_4  and  C_14 
REMARK    4  A    between atoms: O_6  and  N_9 
REMARK    5  A    between atoms: N_7  and  C_12 
REMARK    6  A    between atoms: N_9  and  C_18 
REMARK    7  A    between atoms: C_13  and  C_14 
ROOT
HETATM    1  O   UNK     0     -47.075  -2.102  17.555  0.00  0.00    -0.353 OA
HETATM    2  C   UNK     0     -46.615  -0.706  15.696  0.00  0.00     0.198 C 
HETATM    3  C   UNK     0     -45.753  -1.946  15.596  0.00  0.00     0.182 C 
HETATM    4  C   UNK     0     -47.690  -1.148  16.673  0.00  0.00     0.264 C 
HETATM    5  C   UNK     0     -45.785  -2.473  17.024  0.00  0.00     0.179 C 
ENDROOT
BRANCH   4   6
HETATM    6  N   UNK     0     -48.206  -0.058  17.452  0.00  0.00    -0.278 N 
HETATM    7  C   UNK     0     -47.321   0.699  18.205  0.00  0.00     0.102 A 
HETATM    8  C   UNK     0     -47.710   1.728  18.954  0.00  0.00     0.070 A 
HETATM    9  C   UNK     0     -49.164   2.035  18.950  0.00  0.00     0.153 A 
HETATM   10  N   UNK     0     -50.012   1.331  18.247  0.00  0.00    -0.174 NA
HETATM   11  C   UNK     0     -49.586   0.266  17.471  0.00  0.00     0.352 A 
HETATM   12  O   UNK     0     -50.398  -0.385  16.813  0.00  0.00    -0.244 OA
BRANCH   9  13
HETATM   13  N   UNK     0     -49.609   3.090  19.714  0.00  0.00    -0.251 N 
HETATM   14  H   UNK     0     -49.051   3.852  20.079  0.00  0.00     0.196 HD
BRANCH  13  15
HETATM   15  O   UNK     0     -50.963   3.108  19.881  0.00  0.00    -0.288 OA
HETATM   16  H   UNK     0     -51.046   3.197  20.845  0.00  0.00     0.244 HD
ENDBRANCH  13  15
ENDBRANCH   9  13
ENDBRANCH   4   6
BRANCH   5  17
HETATM   17  C   UNK     0     -44.712  -1.862  17.916  0.00  0.00     0.198 C 
BRANCH  17  18
HETATM   18  O   UNK     0     -43.447  -2.336  17.491  0.00  0.00    -0.398 OA
HETATM   19  H   UNK     0     -43.365  -2.125  16.545  0.00  0.00     0.209 HD
ENDBRANCH  17  18
ENDBRANCH   5  17
BRANCH   2  20
HETATM   20  O   UNK     0     -47.144  -0.318  14.445  0.00  0.00    -0.388 OA
HETATM   21  H   UNK     0     -47.605   0.528  14.572  0.00  0.00     0.210 HD
ENDBRANCH   2  20
BRANCH   3  22
HETATM   22  O   UNK     0     -46.377  -2.916  14.755  0.00  0.00    -0.390 OA
HETATM   23  H   UNK     0     -45.691  -3.466  14.341  0.00  0.00     0.210 HD
ENDBRANCH   3  22
TORSDOF 7
ENDMDL
MODEL 9
REMARK VINA RESULT:      -5.6     13.864     16.352
REMARK  7 active torsions:
REMARK  status: ('A' for Active; 'I' for Inactive)
REMARK    1  A    between atoms: O_2  and  C_10 
REMARK    2  A    between atoms: O_3  and  C_11 
REMARK    3  A    between atoms: O_4  and  C_14 
REMARK    4  A    between atoms: O_6  and  N_9 
REMARK    5  A    between atoms: N_7  and  C_12 
REMARK    6  A    between atoms: N_9  and  C_18 
REMARK    7  A    between atoms: C_13  and  C_14 
ROOT
HETATM    1  O   UNK     0     -46.196 -17.817  24.393  0.00  0.00    -0.353 OA
HETATM    2  C   UNK     0     -48.087 -18.935  23.505  0.00  0.00     0.198 C 
HETATM    3  C   UNK     0     -47.426 -19.837  24.526  0.00  0.00     0.182 C 
HETATM    4  C   UNK     0     -47.510 -17.577  23.864  0.00  0.00     0.264 C 
HETATM    5  C   UNK     0     -46.033 -19.231  24.632  0.00  0.00     0.179 C 
ENDROOT
BRANCH   4   6
HETATM    6  N   UNK     0     -47.404 -16.708  22.727  0.00  0.00    -0.278 N 
HETATM    7  C   UNK     0     -47.204 -17.270  21.476  0.00  0.00     0.102 A 
HETATM    8  C   UNK     0     -47.095 -16.541  20.367  0.00  0.00     0.070 A 
HETATM    9  C   UNK     0     -47.198 -15.068  20.533  0.00  0.00     0.153 A 
HETATM   10  N   UNK     0     -47.386 -14.522  21.705  0.00  0.00    -0.174 NA
HETATM   11  C   UNK     0     -47.499 -15.298  22.847  0.00  0.00     0.352 A 
HETATM   12  O   UNK     0     -47.678 -14.766  23.943  0.00  0.00    -0.244 OA
BRANCH   9  13
HETATM   13  N   UNK     0     -47.089 -14.278  19.412  0.00  0.00    -0.251 N 
HETATM   14  H   UNK     0     -47.574 -13.406  19.234  0.00  0.00     0.196 HD
BRANCH  13  15
HETATM   15  O   UNK     0     -46.145 -14.714  18.528  0.00  0.00    -0.288 OA
HETATM   16  H   UNK     0     -45.331 -14.647  19.055  0.00  0.00     0.244 HD
ENDBRANCH  13  15
ENDBRANCH   9  13
ENDBRANCH   4   6
BRANCH   5  17
HETATM   17  C   UNK     0     -45.059 -19.777  23.595  0.00  0.00     0.198 C 
BRANCH  17  18
HETATM   18  O   UNK     0     -44.308 -18.698  23.067  0.00  0.00    -0.398 OA
HETATM   19  H   UNK     0     -43.961 -18.986  22.205  0.00  0.00     0.209 HD
ENDBRANCH  17  18
ENDBRANCH   5  17
BRANCH   2  20
HETATM   20  O   UNK     0     -49.497 -18.968  23.593  0.00  0.00    -0.388 OA
HETATM   21  H   UNK     0     -49.797 -19.786  23.164  0.00  0.00     0.210 HD
ENDBRANCH   2  20
BRANCH   3  22
HETATM   22  O   UNK     0     -48.063 -19.697  25.796  0.00  0.00    -0.390 OA
HETATM   23  H   UNK     0     -47.881 -18.810  26.147  0.00  0.00     0.210 HD
ENDBRANCH   3  22
TORSDOF 7
ENDMDL
MODEL 10
REMARK VINA RESULT:      -5.5     16.326     17.519
REMARK  7 active torsions:
REMARK  status: ('A' for Active; 'I' for Inactive)
REMARK    1  A    between atoms: O_2  and  C_10 
REMARK    2  A    between atoms: O_3  and  C_11 
REMARK    3  A    between atoms: O_4  and  C_14 
REMARK    4  A    between atoms: O_6  and  N_9 
REMARK    5  A    between atoms: N_7  and  C_12 
REMARK    6  A    between atoms: N_9  and  C_18 
REMARK    7  A    between atoms: C_13  and  C_14 
ROOT
HETATM    1  O   UNK     0     -46.779 -17.928  26.444  0.00  0.00    -0.353 OA
HETATM    2  C   UNK     0     -48.561 -17.131  25.101  0.00  0.00     0.198 C 
HETATM    3  C   UNK     0     -47.858 -18.248  24.360  0.00  0.00     0.182 C 
HETATM    4  C   UNK     0     -48.096 -17.358  26.529  0.00  0.00     0.264 C 
HETATM    5  C   UNK     0     -46.517 -18.312  25.078  0.00  0.00     0.179 C 
ENDROOT
BRANCH   4   6
HETATM    6  N   UNK     0     -48.029 -16.139  27.284  0.00  0.00    -0.278 N 
HETATM    7  C   UNK     0     -46.805 -15.500  27.409  0.00  0.00     0.102 A 
HETATM    8  C   UNK     0     -46.651 -14.366  28.089  0.00  0.00     0.070 A 
HETATM    9  C   UNK     0     -47.872 -13.805  28.723  0.00  0.00     0.153 A 
HETATM   10  N   UNK     0     -49.033 -14.395  28.616  0.00  0.00    -0.174 NA
HETATM   11  C   UNK     0     -49.173 -15.573  27.902  0.00  0.00     0.352 A 
HETATM   12  O   UNK     0     -50.275 -16.115  27.809  0.00  0.00    -0.244 OA
BRANCH   9  13
HETATM   13  N   UNK     0     -47.755 -12.635  29.437  0.00  0.00    -0.251 N 
HETATM   14  H   UNK     0     -48.392 -12.290  30.146  0.00  0.00     0.196 HD
BRANCH  13  15
HETATM   15  O   UNK     0     -46.595 -11.960  29.191  0.00  0.00    -0.288 OA
HETATM   16  H   UNK     0     -46.233 -12.451  28.435  0.00  0.00     0.244 HD
ENDBRANCH  13  15
ENDBRANCH   9  13
ENDBRANCH   4   6
BRANCH   5  17
HETATM   17  C   UNK     0     -45.482 -17.351  24.506  0.00  0.00     0.198 C 
BRANCH  17  18
HETATM   18  O   UNK     0     -44.431 -18.107  23.932  0.00  0.00    -0.398 OA
HETATM   19  H   UNK     0     -43.611 -17.598  24.057  0.00  0.00     0.209 HD
ENDBRANCH  17  18
ENDBRANCH   5  17
BRANCH   2  20
HETATM   20  O   UNK     0     -49.967 -17.201  24.970  0.00  0.00    -0.388 OA
HETATM   21  H   UNK     0     -50.295 -17.800  25.662  0.00  0.00     0.210 HD
ENDBRANCH   2  20
BRANCH   3  22
HETATM   22  O   UNK     0     -48.533 -19.488  24.578  0.00  0.00    -0.390 OA
HETATM   23  H   UNK     0     -49.430 -19.429  24.212  0.00  0.00     0.210 HD
ENDBRANCH   3  22
TORSDOF 7
ENDMDL
