MODEL 1
REMARK VINA RESULT:      -7.0      0.000      0.000
REMARK  4 active torsions:
REMARK  status: ('A' for Active; 'I' for Inactive)
REMARK    1  A    between atoms: O_2  and  C_9 
REMARK    2  A    between atoms: O_3  and  C_11 
REMARK    3  A    between atoms: O_4  and  C_14 
REMARK    4  A    between atoms: C_8  and  C_13 
ROOT
HETATM    1  O   UNK     0     -48.767  -4.069  16.255  0.00  0.00    -0.306 OA
HETATM    2  O   UNK     0     -52.054  -2.646  14.314  0.00  0.00    -0.287 OA
HETATM    3  C   UNK     0     -49.774  -2.354  14.860  0.00  0.00     0.084 A 
HETATM    4  C   UNK     0     -48.689  -2.896  15.546  0.00  0.00     0.129 A 
HETATM    5  C   UNK     0     -49.982  -4.735  16.296  0.00  0.00     0.090 A 
HETATM    6  C   UNK     0     -47.455  -2.246  15.527  0.00  0.00     0.136 A 
HETATM    7  C   UNK     0     -51.061  -3.063  14.894  0.00  0.00     0.190 A 
HETATM    8  C   UNK     0     -49.636  -1.157  14.153  0.00  0.00     0.085 A 
HETATM    9  C   UNK     0     -51.095  -4.317  15.673  0.00  0.00     0.094 A 
HETATM   10  C   UNK     0     -47.313  -1.049  14.822  0.00  0.00     0.104 A 
HETATM   11  C   UNK     0     -48.401  -0.507  14.137  0.00  0.00     0.077 A 
ENDROOT
BRANCH   5  12
HETATM   12  C   UNK     0     -49.954  -5.986  17.082  0.00  0.00    -0.002 A 
HETATM   13  C   UNK     0     -48.735  -6.601  17.379  0.00  0.00     0.014 A 
HETATM   14  C   UNK     0     -48.707  -7.781  18.120  0.00  0.00     0.001 A 
HETATM   15  C   UNK     0     -49.899  -8.351  18.568  0.00  0.00     0.000 A 
HETATM   16  C   UNK     0     -51.118  -7.741  18.274  0.00  0.00     0.001 A 
HETATM   17  C   UNK     0     -51.146  -6.560  17.532  0.00  0.00     0.014 A 
ENDBRANCH   5  12
BRANCH   6  18
HETATM   18  O   UNK     0     -46.388  -2.771  16.194  0.00  0.00    -0.351 OA
HETATM   19  C   UNK     0     -46.087  -2.215  17.473  0.00  0.00     0.210 C 
ENDBRANCH   6  18
BRANCH   8  20
HETATM   20  O   UNK     0     -50.665  -0.587  13.468  0.00  0.00    -0.360 OA
HETATM   21  H   UNK     0     -50.501   0.358  13.332  0.00  0.00     0.217 HD
ENDBRANCH   8  20
BRANCH  10  22
HETATM   22  O   UNK     0     -46.116  -0.401  14.795  0.00  0.00    -0.358 OA
HETATM   23  H   UNK     0     -46.272   0.558  14.864  0.00  0.00     0.217 HD
ENDBRANCH  10  22
TORSDOF 4
ENDMDL
MODEL 2
REMARK VINA RESULT:      -6.8      1.920      5.589
REMARK  4 active torsions:
REMARK  status: ('A' for Active; 'I' for Inactive)
REMARK    1  A    between atoms: O_2  and  C_9 
REMARK    2  A    between atoms: O_3  and  C_11 
REMARK    3  A    between atoms: O_4  and  C_14 
REMARK    4  A    between atoms: C_8  and  C_13 
ROOT
HETATM    1  O   UNK     0     -47.271  -2.858  17.281  0.00  0.00    -0.306 OA
HETATM    2  O   UNK     0     -48.040  -0.327  14.182  0.00  0.00    -0.287 OA
HETATM    3  C   UNK     0     -48.591  -2.328  15.312  0.00  0.00     0.084 A 
HETATM    4  C   UNK     0     -48.276  -3.149  16.393  0.00  0.00     0.129 A 
HETATM    5  C   UNK     0     -46.533  -1.701  17.086  0.00  0.00     0.090 A 
HETATM    6  C   UNK     0     -48.998  -4.323  16.611  0.00  0.00     0.136 A 
HETATM    7  C   UNK     0     -47.816  -1.095  15.108  0.00  0.00     0.190 A 
HETATM    8  C   UNK     0     -49.626  -2.673  14.440  0.00  0.00     0.085 A 
HETATM    9  C   UNK     0     -46.744  -0.829  16.088  0.00  0.00     0.094 A 
HETATM   10  C   UNK     0     -50.033  -4.673  15.742  0.00  0.00     0.104 A 
HETATM   11  C   UNK     0     -50.346  -3.849  14.660  0.00  0.00     0.077 A 
ENDROOT
BRANCH   5  12
HETATM   12  C   UNK     0     -45.481  -1.482  18.100  0.00  0.00    -0.002 A 
HETATM   13  C   UNK     0     -45.786  -0.832  19.299  0.00  0.00     0.014 A 
HETATM   14  C   UNK     0     -44.794  -0.626  20.256  0.00  0.00     0.001 A 
HETATM   15  C   UNK     0     -43.493  -1.071  20.020  0.00  0.00     0.000 A 
HETATM   16  C   UNK     0     -43.184  -1.720  18.825  0.00  0.00     0.001 A 
HETATM   17  C   UNK     0     -44.177  -1.926  17.866  0.00  0.00     0.014 A 
ENDBRANCH   5  12
BRANCH   6  18
HETATM   18  O   UNK     0     -48.696  -5.132  17.667  0.00  0.00    -0.351 OA
HETATM   19  C   UNK     0     -49.524  -5.021  18.823  0.00  0.00     0.210 C 
ENDBRANCH   6  18
BRANCH   8  20
HETATM   20  O   UNK     0     -49.972  -1.905  13.371  0.00  0.00    -0.360 OA
HETATM   21  H   UNK     0     -50.575  -1.197  13.642  0.00  0.00     0.217 HD
ENDBRANCH   8  20
BRANCH  10  22
HETATM   22  O   UNK     0     -50.745  -5.816  15.940  0.00  0.00    -0.358 OA
HETATM   23  H   UNK     0     -51.378  -5.674  16.666  0.00  0.00     0.217 HD
ENDBRANCH  10  22
TORSDOF 4
ENDMDL
MODEL 3
REMARK VINA RESULT:      -6.5     16.943     17.748
REMARK  4 active torsions:
REMARK  status: ('A' for Active; 'I' for Inactive)
REMARK    1  A    between atoms: O_2  and  C_9 
REMARK    2  A    between atoms: O_3  and  C_11 
REMARK    3  A    between atoms: O_4  and  C_14 
REMARK    4  A    between atoms: C_8  and  C_13 
ROOT
HETATM    1  O   UNK     0     -46.622 -16.359  27.744  0.00  0.00    -0.306 OA
HETATM    2  O   UNK     0     -50.350 -16.677  26.131  0.00  0.00    -0.287 OA
HETATM    3  C   UNK     0     -48.051 -17.197  25.966  0.00  0.00     0.084 A 
HETATM    4  C   UNK     0     -46.804 -17.051  26.572  0.00  0.00     0.129 A 
HETATM    5  C   UNK     0     -47.727 -15.775  28.344  0.00  0.00     0.090 A 
HETATM    6  C   UNK     0     -45.673 -17.622  25.989  0.00  0.00     0.136 A 
HETATM    7  C   UNK     0     -49.226 -16.587  26.605  0.00  0.00     0.190 A 
HETATM    8  C   UNK     0     -48.177 -17.913  24.774  0.00  0.00     0.085 A 
HETATM    9  C   UNK     0     -48.977 -15.851  27.862  0.00  0.00     0.094 A 
HETATM   10  C   UNK     0     -45.794 -18.338  24.797  0.00  0.00     0.104 A 
HETATM   11  C   UNK     0     -47.044 -18.483  24.191  0.00  0.00     0.077 A 
ENDROOT
BRANCH   5  12
HETATM   12  C   UNK     0     -47.420 -15.061  29.600  0.00  0.00    -0.002 A 
HETATM   13  C   UNK     0     -48.032 -13.837  29.879  0.00  0.00     0.014 A 
HETATM   14  C   UNK     0     -47.743 -13.163  31.065  0.00  0.00     0.001 A 
HETATM   15  C   UNK     0     -46.841 -13.712  31.977  0.00  0.00     0.000 A 
HETATM   16  C   UNK     0     -46.228 -14.933  31.702  0.00  0.00     0.001 A 
HETATM   17  C   UNK     0     -46.517 -15.608  30.515  0.00  0.00     0.014 A 
ENDBRANCH   5  12
BRANCH   6  18
HETATM   18  O   UNK     0     -44.450 -17.484  26.575  0.00  0.00    -0.351 OA
HETATM   19  C   UNK     0     -43.658 -16.371  26.166  0.00  0.00     0.210 C 
ENDBRANCH   6  18
BRANCH   8  20
HETATM   20  O   UNK     0     -49.372 -18.085  24.144  0.00  0.00    -0.360 OA
HETATM   21  H   UNK     0     -49.244 -18.507  23.282  0.00  0.00     0.217 HD
ENDBRANCH   8  20
BRANCH  10  22
HETATM   22  O   UNK     0     -44.700 -18.901  24.213  0.00  0.00    -0.358 OA
HETATM   23  H   UNK     0     -44.506 -18.432  23.383  0.00  0.00     0.217 HD
ENDBRANCH  10  22
TORSDOF 4
ENDMDL
MODEL 4
REMARK VINA RESULT:      -6.5      4.070      7.332
REMARK  4 active torsions:
REMARK  status: ('A' for Active; 'I' for Inactive)
REMARK    1  A    between atoms: O_2  and  C_9 
REMARK    2  A    between atoms: O_3  and  C_11 
REMARK    3  A    between atoms: O_4  and  C_14 
REMARK    4  A    between atoms: C_8  and  C_13 
ROOT
HETATM    1  O   UNK     0     -45.991   0.298  18.014  0.00  0.00    -0.306 OA
HETATM    2  O   UNK     0     -45.065  -2.123  14.870  0.00  0.00    -0.287 OA
HETATM    3  C   UNK     0     -46.746  -1.057  16.144  0.00  0.00     0.084 A 
HETATM    4  C   UNK     0     -46.992  -0.223  17.233  0.00  0.00     0.129 A 
HETATM    5  C   UNK     0     -44.678  -0.030  17.709  0.00  0.00     0.090 A 
HETATM    6  C   UNK     0     -48.303   0.120  17.567  0.00  0.00     0.136 A 
HETATM    7  C   UNK     0     -45.355  -1.398  15.812  0.00  0.00     0.190 A 
HETATM    8  C   UNK     0     -47.805  -1.557  15.383  0.00  0.00     0.085 A 
HETATM    9  C   UNK     0     -44.314  -0.816  16.684  0.00  0.00     0.094 A 
HETATM   10  C   UNK     0     -49.364  -0.378  16.810  0.00  0.00     0.104 A 
HETATM   11  C   UNK     0     -49.115  -1.214  15.720  0.00  0.00     0.077 A 
ENDROOT
BRANCH   5  12
HETATM   12  C   UNK     0     -43.682   0.587  18.608  0.00  0.00    -0.002 A 
HETATM   13  C   UNK     0     -43.061  -0.178  19.598  0.00  0.00     0.014 A 
HETATM   14  C   UNK     0     -42.120   0.403  20.446  0.00  0.00     0.001 A 
HETATM   15  C   UNK     0     -41.796   1.753  20.308  0.00  0.00     0.000 A 
HETATM   16  C   UNK     0     -42.413   2.521  19.321  0.00  0.00     0.001 A 
HETATM   17  C   UNK     0     -43.355   1.939  18.472  0.00  0.00     0.014 A 
ENDBRANCH   5  12
BRANCH   6  18
HETATM   18  O   UNK     0     -48.552   0.936  18.630  0.00  0.00    -0.351 OA
HETATM   19  C   UNK     0     -48.783   0.307  19.889  0.00  0.00     0.210 C 
ENDBRANCH   6  18
BRANCH   8  20
HETATM   20  O   UNK     0     -47.616  -2.374  14.311  0.00  0.00    -0.360 OA
HETATM   21  H   UNK     0     -48.464  -2.597  13.900  0.00  0.00     0.217 HD
ENDBRANCH   8  20
BRANCH  10  22
HETATM   22  O   UNK     0     -50.649  -0.055  17.124  0.00  0.00    -0.358 OA
HETATM   23  H   UNK     0     -50.733   0.914  17.159  0.00  0.00     0.217 HD
ENDBRANCH  10  22
TORSDOF 4
ENDMDL
MODEL 5
REMARK VINA RESULT:      -6.5      4.492      8.154
REMARK  4 active torsions:
REMARK  status: ('A' for Active; 'I' for Inactive)
REMARK    1  A    between atoms: O_2  and  C_9 
REMARK    2  A    between atoms: O_3  and  C_11 
REMARK    3  A    between atoms: O_4  and  C_14 
REMARK    4  A    between atoms: C_8  and  C_13 
ROOT
HETATM    1  O   UNK     0     -51.779  -6.718  19.298  0.00  0.00    -0.306 OA
HETATM    2  O   UNK     0     -48.898  -9.530  18.672  0.00  0.00    -0.287 OA
HETATM    3  C   UNK     0     -50.432  -8.541  20.173  0.00  0.00     0.084 A 
HETATM    4  C   UNK     0     -51.410  -7.559  20.318  0.00  0.00     0.129 A 
HETATM    5  C   UNK     0     -51.142  -6.849  18.073  0.00  0.00     0.090 A 
HETATM    6  C   UNK     0     -52.063  -7.400  21.541  0.00  0.00     0.136 A 
HETATM    7  C   UNK     0     -49.763  -8.689  18.872  0.00  0.00     0.190 A 
HETATM    8  C   UNK     0     -50.098  -9.370  21.246  0.00  0.00     0.085 A 
HETATM    9  C   UNK     0     -50.192  -7.758  17.808  0.00  0.00     0.094 A 
HETATM   10  C   UNK     0     -51.732  -8.226  22.616  0.00  0.00     0.104 A 
HETATM   11  C   UNK     0     -50.752  -9.209  22.469  0.00  0.00     0.077 A 
ENDROOT
BRANCH   5  12
HETATM   12  C   UNK     0     -51.618  -5.899  17.046  0.00  0.00    -0.002 A 
HETATM   13  C   UNK     0     -52.987  -5.698  16.857  0.00  0.00     0.014 A 
HETATM   14  C   UNK     0     -53.437  -4.802  15.888  0.00  0.00     0.001 A 
HETATM   15  C   UNK     0     -52.518  -4.102  15.106  0.00  0.00     0.000 A 
HETATM   16  C   UNK     0     -51.150  -4.300  15.291  0.00  0.00     0.001 A 
HETATM   17  C   UNK     0     -50.701  -5.197  16.261  0.00  0.00     0.014 A 
ENDBRANCH   5  12
BRANCH   6  18
HETATM   18  O   UNK     0     -53.022  -6.442  21.691  0.00  0.00    -0.351 OA
HETATM   19  C   UNK     0     -52.590  -5.162  22.148  0.00  0.00     0.210 C 
ENDBRANCH   6  18
BRANCH   8  20
HETATM   20  O   UNK     0     -49.151 -10.344  21.154  0.00  0.00    -0.360 OA
HETATM   21  H   UNK     0     -48.317 -10.046  21.547  0.00  0.00     0.217 HD
ENDBRANCH   8  20
BRANCH  10  22
HETATM   22  O   UNK     0     -52.359  -8.084  23.817  0.00  0.00    -0.358 OA
HETATM   23  H   UNK     0     -52.776  -8.929  24.060  0.00  0.00     0.217 HD
ENDBRANCH  10  22
TORSDOF 4
ENDMDL
MODEL 6
REMARK VINA RESULT:      -6.4      2.094      5.843
REMARK  4 active torsions:
REMARK  status: ('A' for Active; 'I' for Inactive)
REMARK    1  A    between atoms: O_2  and  C_9 
REMARK    2  A    between atoms: O_3  and  C_11 
REMARK    3  A    between atoms: O_4  and  C_14 
REMARK    4  A    between atoms: C_8  and  C_13 
ROOT
HETATM    1  O   UNK     0     -48.267  -4.163  16.946  0.00  0.00    -0.306 OA
HETATM    2  O   UNK     0     -51.737  -2.030  17.046  0.00  0.00    -0.287 OA
HETATM    3  C   UNK     0     -50.683  -4.140  17.200  0.00  0.00     0.084 A 
HETATM    4  C   UNK     0     -49.461  -4.808  17.155  0.00  0.00     0.129 A 
HETATM    5  C   UNK     0     -48.282  -2.789  16.764  0.00  0.00     0.090 A 
HETATM    6  C   UNK     0     -49.414  -6.191  17.329  0.00  0.00     0.136 A 
HETATM    7  C   UNK     0     -50.701  -2.681  17.016  0.00  0.00     0.190 A 
HETATM    8  C   UNK     0     -51.867  -4.847  17.417  0.00  0.00     0.085 A 
HETATM    9  C   UNK     0     -49.392  -2.035  16.792  0.00  0.00     0.094 A 
HETATM   10  C   UNK     0     -50.596  -6.903  17.545  0.00  0.00     0.104 A 
HETATM   11  C   UNK     0     -51.819  -6.232  17.589  0.00  0.00     0.077 A 
ENDROOT
BRANCH   5  12
HETATM   12  C   UNK     0     -46.945  -2.197  16.553  0.00  0.00    -0.002 A 
HETATM   13  C   UNK     0     -46.747  -1.254  15.542  0.00  0.00     0.014 A 
HETATM   14  C   UNK     0     -45.486  -0.694  15.342  0.00  0.00     0.001 A 
HETATM   15  C   UNK     0     -44.417  -1.076  16.154  0.00  0.00     0.000 A 
HETATM   16  C   UNK     0     -44.611  -2.017  17.165  0.00  0.00     0.001 A 
HETATM   17  C   UNK     0     -45.873  -2.577  17.364  0.00  0.00     0.014 A 
ENDBRANCH   5  12
BRANCH   6  18
HETATM   18  O   UNK     0     -48.223  -6.852  17.287  0.00  0.00    -0.351 OA
HETATM   19  C   UNK     0     -47.570  -7.088  18.533  0.00  0.00     0.210 C 
ENDBRANCH   6  18
BRANCH   8  20
HETATM   20  O   UNK     0     -53.085  -4.241  17.470  0.00  0.00    -0.360 OA
HETATM   21  H   UNK     0     -53.447  -4.282  18.367  0.00  0.00     0.217 HD
ENDBRANCH   8  20
BRANCH  10  22
HETATM   22  O   UNK     0     -50.568  -8.253  17.716  0.00  0.00    -0.358 OA
HETATM   23  H   UNK     0     -50.112  -8.459  18.551  0.00  0.00     0.217 HD
ENDBRANCH  10  22
TORSDOF 4
ENDMDL
MODEL 7
REMARK VINA RESULT:      -6.4      5.587      8.904
REMARK  4 active torsions:
REMARK  status: ('A' for Active; 'I' for Inactive)
REMARK    1  A    between atoms: O_2  and  C_9 
REMARK    2  A    between atoms: O_3  and  C_11 
REMARK    3  A    between atoms: O_4  and  C_14 
REMARK    4  A    between atoms: C_8  and  C_13 
ROOT
HETATM    1  O   UNK     0     -49.208  -8.433  21.375  0.00  0.00    -0.306 OA
HETATM    2  O   UNK     0     -48.680 -12.382  22.225  0.00  0.00    -0.287 OA
HETATM    3  C   UNK     0     -47.950 -10.481  21.026  0.00  0.00     0.084 A 
HETATM    4  C   UNK     0     -48.186  -9.130  20.781  0.00  0.00     0.129 A 
HETATM    5  C   UNK     0     -50.046  -9.107  22.249  0.00  0.00     0.090 A 
HETATM    6  C   UNK     0     -47.363  -8.426  19.901  0.00  0.00     0.136 A 
HETATM    7  C   UNK     0     -48.830 -11.197  21.961  0.00  0.00     0.190 A 
HETATM    8  C   UNK     0     -46.893 -11.139  20.395  0.00  0.00     0.085 A 
HETATM    9  C   UNK     0     -49.917 -10.404  22.571  0.00  0.00     0.094 A 
HETATM   10  C   UNK     0     -46.306  -9.080  19.267  0.00  0.00     0.104 A 
HETATM   11  C   UNK     0     -46.071 -10.434  19.514  0.00  0.00     0.077 A 
ENDROOT
BRANCH   5  12
HETATM   12  C   UNK     0     -51.108  -8.263  22.835  0.00  0.00    -0.002 A 
HETATM   13  C   UNK     0     -52.405  -8.309  22.319  0.00  0.00     0.014 A 
HETATM   14  C   UNK     0     -53.408  -7.513  22.871  0.00  0.00     0.001 A 
HETATM   15  C   UNK     0     -53.116  -6.668  23.942  0.00  0.00     0.000 A 
HETATM   16  C   UNK     0     -51.822  -6.619  24.460  0.00  0.00     0.001 A 
HETATM   17  C   UNK     0     -50.819  -7.416  23.907  0.00  0.00     0.014 A 
ENDBRANCH   5  12
BRANCH   6  18
HETATM   18  O   UNK     0     -47.587  -7.103  19.656  0.00  0.00    -0.351 OA
HETATM   19  C   UNK     0     -48.367  -6.781  18.506  0.00  0.00     0.210 C 
ENDBRANCH   6  18
BRANCH   8  20
HETATM   20  O   UNK     0     -46.620 -12.457  20.602  0.00  0.00    -0.360 OA
HETATM   21  H   UNK     0     -47.319 -12.870  21.130  0.00  0.00     0.217 HD
ENDBRANCH   8  20
BRANCH  10  22
HETATM   22  O   UNK     0     -45.494  -8.408  18.404  0.00  0.00    -0.358 OA
HETATM   23  H   UNK     0     -44.846  -7.892  18.914  0.00  0.00     0.217 HD
ENDBRANCH  10  22
TORSDOF 4
ENDMDL
MODEL 8
REMARK VINA RESULT:      -6.4      4.310      7.940
REMARK  4 active torsions:
REMARK  status: ('A' for Active; 'I' for Inactive)
REMARK    1  A    between atoms: O_2  and  C_9 
REMARK    2  A    between atoms: O_3  and  C_11 
REMARK    3  A    between atoms: O_4  and  C_14 
REMARK    4  A    between atoms: C_8  and  C_13 
ROOT
HETATM    1  O   UNK     0     -44.511   0.119  17.775  0.00  0.00    -0.306 OA
HETATM    2  O   UNK     0     -48.009   1.727  19.106  0.00  0.00    -0.287 OA
HETATM    3  C   UNK     0     -46.937   0.177  17.681  0.00  0.00     0.084 A 
HETATM    4  C   UNK     0     -45.706  -0.330  17.271  0.00  0.00     0.129 A 
HETATM    5  C   UNK     0     -44.533   1.126  18.728  0.00  0.00     0.090 A 
HETATM    6  C   UNK     0     -45.651  -1.339  16.309  0.00  0.00     0.136 A 
HETATM    7  C   UNK     0     -46.965   1.238  18.698  0.00  0.00     0.190 A 
HETATM    8  C   UNK     0     -48.123  -0.319  17.134  0.00  0.00     0.085 A 
HETATM    9  C   UNK     0     -45.653   1.688  19.206  0.00  0.00     0.094 A 
HETATM   10  C   UNK     0     -46.833  -1.837  15.759  0.00  0.00     0.104 A 
HETATM   11  C   UNK     0     -48.066  -1.328  16.171  0.00  0.00     0.077 A 
ENDROOT
BRANCH   5  12
HETATM   12  C   UNK     0     -43.195   1.529  19.206  0.00  0.00    -0.002 A 
HETATM   13  C   UNK     0     -42.543   0.778  20.186  0.00  0.00     0.014 A 
HETATM   14  C   UNK     0     -41.280   1.157  20.637  0.00  0.00     0.001 A 
HETATM   15  C   UNK     0     -40.663   2.291  20.108  0.00  0.00     0.000 A 
HETATM   16  C   UNK     0     -41.309   3.044  19.129  0.00  0.00     0.001 A 
HETATM   17  C   UNK     0     -42.573   2.664  18.678  0.00  0.00     0.014 A 
ENDBRANCH   5  12
BRANCH   6  18
HETATM   18  O   UNK     0     -44.450  -1.841  15.903  0.00  0.00    -0.351 OA
HETATM   19  C   UNK     0     -43.960  -1.402  14.638  0.00  0.00     0.210 C 
ENDBRANCH   6  18
BRANCH   8  20
HETATM   20  O   UNK     0     -49.350   0.143  17.501  0.00  0.00    -0.360 OA
HETATM   21  H   UNK     0     -50.042  -0.480  17.233  0.00  0.00     0.217 HD
ENDBRANCH   8  20
BRANCH  10  22
HETATM   22  O   UNK     0     -46.798  -2.822  14.819  0.00  0.00    -0.358 OA
HETATM   23  H   UNK     0     -47.090  -3.658  15.223  0.00  0.00     0.217 HD
ENDBRANCH  10  22
TORSDOF 4
ENDMDL
MODEL 9
REMARK VINA RESULT:      -6.3      4.527      8.239
REMARK  4 active torsions:
REMARK  status: ('A' for Active; 'I' for Inactive)
REMARK    1  A    between atoms: O_2  and  C_9 
REMARK    2  A    between atoms: O_3  and  C_11 
REMARK    3  A    between atoms: O_4  and  C_14 
REMARK    4  A    between atoms: C_8  and  C_13 
ROOT
HETATM    1  O   UNK     0     -49.879  -7.961  19.253  0.00  0.00    -0.306 OA
HETATM    2  O   UNK     0     -52.871  -7.472  21.975  0.00  0.00    -0.287 OA
HETATM    3  C   UNK     0     -50.915  -8.637  21.344  0.00  0.00     0.084 A 
HETATM    4  C   UNK     0     -49.920  -8.751  20.374  0.00  0.00     0.129 A 
HETATM    5  C   UNK     0     -50.877  -7.015  19.076  0.00  0.00     0.090 A 
HETATM    6  C   UNK     0     -48.906  -9.698  20.522  0.00  0.00     0.136 A 
HETATM    7  C   UNK     0     -51.969  -7.629  21.164  0.00  0.00     0.190 A 
HETATM    8  C   UNK     0     -50.906  -9.468  22.466  0.00  0.00     0.085 A 
HETATM    9  C   UNK     0     -51.882  -6.806  19.940  0.00  0.00     0.094 A 
HETATM   10  C   UNK     0     -48.893 -10.531  21.642  0.00  0.00     0.104 A 
HETATM   11  C   UNK     0     -49.891 -10.416  22.612  0.00  0.00     0.077 A 
ENDROOT
BRANCH   5  12
HETATM   12  C   UNK     0     -50.735  -6.216  17.841  0.00  0.00    -0.002 A 
HETATM   13  C   UNK     0     -51.849  -5.956  17.041  0.00  0.00     0.014 A 
HETATM   14  C   UNK     0     -51.716  -5.202  15.876  0.00  0.00     0.001 A 
HETATM   15  C   UNK     0     -50.465  -4.706  15.507  0.00  0.00     0.000 A 
HETATM   16  C   UNK     0     -49.350  -4.963  16.302  0.00  0.00     0.001 A 
HETATM   17  C   UNK     0     -49.484  -5.718  17.468  0.00  0.00     0.014 A 
ENDBRANCH   5  12
BRANCH   6  18
HETATM   18  O   UNK     0     -47.929  -9.815  19.579  0.00  0.00    -0.351 OA
HETATM   19  C   UNK     0     -46.748  -9.038  19.770  0.00  0.00     0.210 C 
ENDBRANCH   6  18
BRANCH   8  20
HETATM   20  O   UNK     0     -51.854  -9.396  23.441  0.00  0.00    -0.360 OA
HETATM   21  H   UNK     0     -51.515  -9.757  24.273  0.00  0.00     0.217 HD
ENDBRANCH   8  20
BRANCH  10  22
HETATM   22  O   UNK     0     -47.912 -11.461  21.801  0.00  0.00    -0.358 OA
HETATM   23  H   UNK     0     -47.512 -11.354  22.682  0.00  0.00     0.217 HD
ENDBRANCH  10  22
TORSDOF 4
ENDMDL
MODEL 10
REMARK VINA RESULT:      -6.1      6.554      9.184
REMARK  4 active torsions:
REMARK  status: ('A' for Active; 'I' for Inactive)
REMARK    1  A    between atoms: O_2  and  C_9 
REMARK    2  A    between atoms: O_3  and  C_11 
REMARK    3  A    between atoms: O_4  and  C_14 
REMARK    4  A    between atoms: C_8  and  C_13 
ROOT
HETATM    1  O   UNK     0     -48.261 -10.272  21.016  0.00  0.00    -0.306 OA
HETATM    2  O   UNK     0     -46.628  -7.819  18.203  0.00  0.00    -0.287 OA
HETATM    3  C   UNK     0     -46.440  -9.798  19.479  0.00  0.00     0.084 A 
HETATM    4  C   UNK     0     -47.054 -10.593  20.446  0.00  0.00     0.129 A 
HETATM    5  C   UNK     0     -48.889  -9.102  20.618  0.00  0.00     0.090 A 
HETATM    6  C   UNK     0     -46.443 -11.773  20.871  0.00  0.00     0.136 A 
HETATM    7  C   UNK     0     -47.108  -8.562  19.048  0.00  0.00     0.190 A 
HETATM    8  C   UNK     0     -45.211 -10.175  18.932  0.00  0.00     0.085 A 
HETATM    9  C   UNK     0     -48.401  -8.260  19.693  0.00  0.00     0.094 A 
HETATM   10  C   UNK     0     -45.215 -12.153  20.327  0.00  0.00     0.104 A 
HETATM   11  C   UNK     0     -44.601 -11.355  19.360  0.00  0.00     0.077 A 
ENDROOT
BRANCH   5  12
HETATM   12  C   UNK     0     -50.181  -8.856  21.290  0.00  0.00    -0.002 A 
HETATM   13  C   UNK     0     -50.573  -9.651  22.369  0.00  0.00     0.014 A 
HETATM   14  C   UNK     0     -51.793  -9.419  23.004  0.00  0.00     0.001 A 
HETATM   15  C   UNK     0     -52.624  -8.390  22.562  0.00  0.00     0.000 A 
HETATM   16  C   UNK     0     -52.237  -7.594  21.484  0.00  0.00     0.001 A 
HETATM   17  C   UNK     0     -51.017  -7.827  20.849  0.00  0.00     0.014 A 
ENDBRANCH   5  12
BRANCH   6  18
HETATM   18  O   UNK     0     -47.038 -12.556  21.815  0.00  0.00    -0.351 OA
HETATM   19  C   UNK     0     -47.912 -13.582  21.348  0.00  0.00     0.210 C 
ENDBRANCH   6  18
BRANCH   8  20
HETATM   20  O   UNK     0     -44.572  -9.434  17.986  0.00  0.00    -0.360 OA
HETATM   21  H   UNK     0     -44.029  -8.747  18.401  0.00  0.00     0.217 HD
ENDBRANCH   8  20
BRANCH  10  22
HETATM   22  O   UNK     0     -44.605 -13.301  20.732  0.00  0.00    -0.358 OA
HETATM   23  H   UNK     0     -44.212 -13.159  21.611  0.00  0.00     0.217 HD
ENDBRANCH  10  22
TORSDOF 4
ENDMDL
