MODEL 1
REMARK VINA RESULT:      -7.8      0.000      0.000
REMARK  15 active torsions:
REMARK  status: ('A' for Active; 'I' for Inactive)
REMARK    1  A    between atoms: O_2  and  C_18 
REMARK    2  A    between atoms: O_2  and  C_22 
REMARK    3  A    between atoms: O_4  and  C_14 
REMARK    4  A    between atoms: O_5  and  C_21 
REMARK    5  A    between atoms: O_5  and  C_25 
REMARK    6  A    between atoms: O_6  and  C_15 
REMARK    7  A    between atoms: O_7  and  C_16 
REMARK    8  A    between atoms: O_8  and  C_17 
REMARK    9  A    between atoms: O_9  and  C_19 
REMARK   10  A    between atoms: O_10  and  C_20 
REMARK   11  A    between atoms: O_11  and  C_30 
REMARK   12  A    between atoms: O_12  and  C_32 
REMARK   13  A    between atoms: C_13  and  C_22 
REMARK   14  A    between atoms: C_25  and  C_26 
REMARK   15  A    between atoms: C_26  and  C_27 
ROOT
HETATM    1  O   UNK     0     -48.426  -5.734  18.658  0.00  0.00    -0.348 OA
HETATM    2  C   UNK     0     -49.058  -5.521  17.395  0.00  0.00     0.180 C 
HETATM    3  C   UNK     0     -50.430  -6.199  17.377  0.00  0.00     0.180 C 
HETATM    4  C   UNK     0     -50.306  -7.687  17.707  0.00  0.00     0.183 C 
HETATM    5  C   UNK     0     -49.470  -7.905  18.968  0.00  0.00     0.204 C 
HETATM    6  C   UNK     0     -48.164  -7.113  18.913  0.00  0.00     0.291 C 
ENDROOT
BRANCH   2   7
HETATM    7  C   UNK     0     -49.169  -4.015  17.183  0.00  0.00     0.205 C 
BRANCH   7   8
HETATM    8  O   UNK     0     -48.012  -3.387  17.718  0.00  0.00    -0.356 OA
BRANCH   8   9
HETATM    9  C   UNK     0     -46.922  -3.439  16.805  0.00  0.00     0.291 C 
HETATM   10  O   UNK     0     -45.691  -3.015  17.400  0.00  0.00    -0.351 OA
HETATM   11  C   UNK     0     -45.678  -1.643  17.808  0.00  0.00     0.152 C 
HETATM   12  C   UNK     0     -45.935  -0.711  16.615  0.00  0.00     0.178 C 
HETATM   13  C   UNK     0     -44.319  -1.384  18.454  0.00  0.00     0.042 C 
HETATM   14  C   UNK     0     -47.234  -1.105  15.912  0.00  0.00     0.183 C 
HETATM   15  C   UNK     0     -47.242  -2.596  15.571  0.00  0.00     0.204 C 
BRANCH  12  16
HETATM   16  O   UNK     0     -46.062   0.636  17.061  0.00  0.00    -0.390 OA
HETATM   17  H   UNK     0     -46.996   0.794  17.282  0.00  0.00     0.210 HD
ENDBRANCH  12  16
BRANCH  14  18
HETATM   18  O   UNK     0     -47.374  -0.334  14.720  0.00  0.00    -0.390 OA
HETATM   19  H   UNK     0     -48.324  -0.181  14.580  0.00  0.00     0.210 HD
ENDBRANCH  14  18
BRANCH  15  20
HETATM   20  O   UNK     0     -46.249  -2.876  14.584  0.00  0.00    -0.388 OA
HETATM   21  H   UNK     0     -45.587  -2.165  14.622  0.00  0.00     0.210 HD
ENDBRANCH  15  20
ENDBRANCH   8   9
ENDBRANCH   7   8
ENDBRANCH   2   7
BRANCH   6  22
HETATM   22  O   UNK     0     -47.511  -7.253  20.175  0.00  0.00    -0.358 OA
BRANCH  22  23
HETATM   23  C   UNK     0     -48.240  -6.609  21.208  0.00  0.00     0.175 C 
BRANCH  23  24
HETATM   24  C   UNK     0     -48.391  -7.552  22.397  0.00  0.00     0.065 C 
BRANCH  24  25
HETATM   25  C   UNK     0     -49.817  -8.002  22.595  0.00  0.00    -0.053 A 
HETATM   26  C   UNK     0     -50.131  -9.360  22.561  0.00  0.00     0.046 A 
HETATM   27  C   UNK     0     -51.450  -9.776  22.747  0.00  0.00     0.099 A 
HETATM   28  C   UNK     0     -52.454  -8.834  22.965  0.00  0.00     0.098 A 
HETATM   29  C   UNK     0     -52.140  -7.475  22.999  0.00  0.00     0.040 A 
HETATM   30  C   UNK     0     -50.822  -7.059  22.815  0.00  0.00     0.010 A 
BRANCH  27  31
HETATM   31  O   UNK     0     -51.744 -11.106  22.713  0.00  0.00    -0.358 OA
HETATM   32  H   UNK     0     -51.359 -11.495  21.908  0.00  0.00     0.217 HD
ENDBRANCH  27  31
BRANCH  28  33
HETATM   33  O   UNK     0     -53.746  -9.228  23.148  0.00  0.00    -0.358 OA
HETATM   34  H   UNK     0     -53.792 -10.198  23.090  0.00  0.00     0.217 HD
ENDBRANCH  28  33
ENDBRANCH  24  25
ENDBRANCH  23  24
ENDBRANCH  22  23
ENDBRANCH   6  22
BRANCH   3  35
HETATM   35  O   UNK     0     -51.012  -6.050  16.084  0.00  0.00    -0.390 OA
HETATM   36  H   UNK     0     -50.378  -5.572  15.523  0.00  0.00     0.210 HD
ENDBRANCH   3  35
BRANCH   5  37
HETATM   37  O   UNK     0     -49.147  -9.290  19.089  0.00  0.00    -0.388 OA
HETATM   38  H   UNK     0     -48.224  -9.360  19.390  0.00  0.00     0.210 HD
ENDBRANCH   5  37
BRANCH   4  39
HETATM   39  O   UNK     0     -51.621  -8.205  17.913  0.00  0.00    -0.390 OA
HETATM   40  H   UNK     0     -51.822  -8.820  17.187  0.00  0.00     0.210 HD
ENDBRANCH   4  39
TORSDOF 15
ENDMDL
MODEL 2
REMARK VINA RESULT:      -7.6      2.528      8.340
REMARK  15 active torsions:
REMARK  status: ('A' for Active; 'I' for Inactive)
REMARK    1  A    between atoms: O_2  and  C_18 
REMARK    2  A    between atoms: O_2  and  C_22 
REMARK    3  A    between atoms: O_4  and  C_14 
REMARK    4  A    between atoms: O_5  and  C_21 
REMARK    5  A    between atoms: O_5  and  C_25 
REMARK    6  A    between atoms: O_6  and  C_15 
REMARK    7  A    between atoms: O_7  and  C_16 
REMARK    8  A    between atoms: O_8  and  C_17 
REMARK    9  A    between atoms: O_9  and  C_19 
REMARK   10  A    between atoms: O_10  and  C_20 
REMARK   11  A    between atoms: O_11  and  C_30 
REMARK   12  A    between atoms: O_12  and  C_32 
REMARK   13  A    between atoms: C_13  and  C_22 
REMARK   14  A    between atoms: C_25  and  C_26 
REMARK   15  A    between atoms: C_26  and  C_27 
ROOT
HETATM    1  O   UNK     0     -50.334  -2.222  16.835  0.00  0.00    -0.348 OA
HETATM    2  C   UNK     0     -50.740  -3.415  16.162  0.00  0.00     0.180 C 
HETATM    3  C   UNK     0     -49.718  -3.780  15.083  0.00  0.00     0.180 C 
HETATM    4  C   UNK     0     -49.517  -2.618  14.110  0.00  0.00     0.183 C 
HETATM    5  C   UNK     0     -49.263  -1.309  14.856  0.00  0.00     0.204 C 
HETATM    6  C   UNK     0     -50.291  -1.092  15.966  0.00  0.00     0.291 C 
ENDROOT
BRANCH   2   7
HETATM    7  C   UNK     0     -50.871  -4.514  17.212  0.00  0.00     0.205 C 
BRANCH   7   8
HETATM    8  O   UNK     0     -49.718  -5.342  17.160  0.00  0.00    -0.356 OA
BRANCH   8   9
HETATM    9  C   UNK     0     -50.037  -6.697  17.460  0.00  0.00     0.291 C 
HETATM   10  O   UNK     0     -50.604  -6.848  18.766  0.00  0.00    -0.351 OA
HETATM   11  C   UNK     0     -49.716  -6.503  19.835  0.00  0.00     0.152 C 
HETATM   12  C   UNK     0     -48.449  -7.370  19.801  0.00  0.00     0.178 C 
HETATM   13  C   UNK     0     -50.495  -6.679  21.136  0.00  0.00     0.042 C 
HETATM   14  C   UNK     0     -47.785  -7.274  18.427  0.00  0.00     0.183 C 
HETATM   15  C   UNK     0     -48.789  -7.566  17.311  0.00  0.00     0.204 C 
BRANCH  12  16
HETATM   16  O   UNK     0     -47.516  -6.918  20.778  0.00  0.00    -0.390 OA
HETATM   17  H   UNK     0     -47.415  -5.956  20.676  0.00  0.00     0.210 HD
ENDBRANCH  12  16
BRANCH  14  18
HETATM   18  O   UNK     0     -46.706  -8.204  18.363  0.00  0.00    -0.390 OA
HETATM   19  H   UNK     0     -45.904  -7.707  18.125  0.00  0.00     0.210 HD
ENDBRANCH  14  18
BRANCH  15  20
HETATM   20  O   UNK     0     -49.202  -8.932  17.370  0.00  0.00    -0.388 OA
HETATM   21  H   UNK     0     -48.498  -9.469  16.969  0.00  0.00     0.210 HD
ENDBRANCH  15  20
ENDBRANCH   8   9
ENDBRANCH   7   8
ENDBRANCH   2   7
BRANCH   6  22
HETATM   22  O   UNK     0     -49.904   0.068  16.703  0.00  0.00    -0.358 OA
BRANCH  22  23
HETATM   23  C   UNK     0     -49.065  -0.271  17.796  0.00  0.00     0.175 C 
BRANCH  23  24
HETATM   24  C   UNK     0     -47.806   0.589  17.763  0.00  0.00     0.065 C 
BRANCH  24  25
HETATM   25  C   UNK     0     -46.553  -0.233  17.588  0.00  0.00    -0.053 A 
HETATM   26  C   UNK     0     -46.146  -0.622  16.312  0.00  0.00     0.046 A 
HETATM   27  C   UNK     0     -44.987  -1.381  16.151  0.00  0.00     0.099 A 
HETATM   28  C   UNK     0     -44.235  -1.751  17.266  0.00  0.00     0.098 A 
HETATM   29  C   UNK     0     -44.642  -1.362  18.541  0.00  0.00     0.040 A 
HETATM   30  C   UNK     0     -45.800  -0.603  18.704  0.00  0.00     0.010 A 
BRANCH  27  31
HETATM   31  O   UNK     0     -44.599  -1.753  14.899  0.00  0.00    -0.358 OA
HETATM   32  H   UNK     0     -43.671  -1.493  14.765  0.00  0.00     0.217 HD
ENDBRANCH  27  31
BRANCH  28  33
HETATM   33  O   UNK     0     -43.100  -2.492  17.120  0.00  0.00    -0.358 OA
HETATM   34  H   UNK     0     -42.538  -2.367  17.904  0.00  0.00     0.217 HD
ENDBRANCH  28  33
ENDBRANCH  24  25
ENDBRANCH  23  24
ENDBRANCH  22  23
ENDBRANCH   6  22
BRANCH   3  35
HETATM   35  O   UNK     0     -50.177  -4.923  14.366  0.00  0.00    -0.390 OA
HETATM   36  H   UNK     0     -49.531  -5.638  14.495  0.00  0.00     0.210 HD
ENDBRANCH   3  35
BRANCH   5  37
HETATM   37  O   UNK     0     -49.354  -0.217  13.942  0.00  0.00    -0.388 OA
HETATM   38  H   UNK     0     -49.610   0.576  14.444  0.00  0.00     0.210 HD
ENDBRANCH   5  37
BRANCH   4  39
HETATM   39  O   UNK     0     -48.391  -2.923  13.285  0.00  0.00    -0.390 OA
HETATM   40  H   UNK     0     -48.546  -2.536  12.406  0.00  0.00     0.210 HD
ENDBRANCH   4  39
TORSDOF 15
ENDMDL
MODEL 3
REMARK VINA RESULT:      -7.6      4.430      9.573
REMARK  15 active torsions:
REMARK  status: ('A' for Active; 'I' for Inactive)
REMARK    1  A    between atoms: O_2  and  C_18 
REMARK    2  A    between atoms: O_2  and  C_22 
REMARK    3  A    between atoms: O_4  and  C_14 
REMARK    4  A    between atoms: O_5  and  C_21 
REMARK    5  A    between atoms: O_5  and  C_25 
REMARK    6  A    between atoms: O_6  and  C_15 
REMARK    7  A    between atoms: O_7  and  C_16 
REMARK    8  A    between atoms: O_8  and  C_17 
REMARK    9  A    between atoms: O_9  and  C_19 
REMARK   10  A    between atoms: O_10  and  C_20 
REMARK   11  A    between atoms: O_11  and  C_30 
REMARK   12  A    between atoms: O_12  and  C_32 
REMARK   13  A    between atoms: C_13  and  C_22 
REMARK   14  A    between atoms: C_25  and  C_26 
REMARK   15  A    between atoms: C_26  and  C_27 
ROOT
HETATM    1  O   UNK     0     -47.295  -1.057  17.675  0.00  0.00    -0.348 OA
HETATM    2  C   UNK     0     -47.830  -0.631  16.420  0.00  0.00     0.180 C 
HETATM    3  C   UNK     0     -47.472  -1.644  15.330  0.00  0.00     0.180 C 
HETATM    4  C   UNK     0     -45.960  -1.856  15.261  0.00  0.00     0.183 C 
HETATM    5  C   UNK     0     -45.376  -2.133  16.646  0.00  0.00     0.204 C 
HETATM    6  C   UNK     0     -45.870  -1.113  17.671  0.00  0.00     0.291 C 
ENDROOT
BRANCH   2   7
HETATM    7  C   UNK     0     -49.339  -0.490  16.588  0.00  0.00     0.205 C 
BRANCH   7   8
HETATM    8  O   UNK     0     -49.973  -1.647  16.062  0.00  0.00    -0.356 OA
BRANCH   8   9
HETATM    9  C   UNK     0     -50.622  -2.395  17.085  0.00  0.00     0.291 C 
HETATM   10  O   UNK     0     -49.877  -3.554  17.472  0.00  0.00    -0.351 OA
HETATM   11  C   UNK     0     -49.729  -4.529  16.434  0.00  0.00     0.152 C 
HETATM   12  C   UNK     0     -51.096  -5.027  15.945  0.00  0.00     0.178 C 
HETATM   13  C   UNK     0     -48.878  -5.661  17.005  0.00  0.00     0.042 C 
HETATM   14  C   UNK     0     -51.965  -3.842  15.522  0.00  0.00     0.183 C 
HETATM   15  C   UNK     0     -52.026  -2.785  16.626  0.00  0.00     0.204 C 
BRANCH  12  16
HETATM   16  O   UNK     0     -50.935  -5.884  14.819  0.00  0.00    -0.390 OA
HETATM   17  H   UNK     0     -50.416  -5.408  14.149  0.00  0.00     0.210 HD
ENDBRANCH  12  16
BRANCH  14  18
HETATM   18  O   UNK     0     -53.279  -4.308  15.223  0.00  0.00    -0.390 OA
HETATM   19  H   UNK     0     -53.575  -3.854  14.415  0.00  0.00     0.210 HD
ENDBRANCH  14  18
BRANCH  15  20
HETATM   20  O   UNK     0     -52.725  -3.303  17.759  0.00  0.00    -0.388 OA
HETATM   21  H   UNK     0     -52.083  -3.787  18.305  0.00  0.00     0.210 HD
ENDBRANCH  15  20
ENDBRANCH   8   9
ENDBRANCH   7   8
ENDBRANCH   2   7
BRANCH   6  22
HETATM   22  O   UNK     0     -45.400  -1.519  18.957  0.00  0.00    -0.358 OA
BRANCH  22  23
HETATM   23  C   UNK     0     -45.046  -0.399  19.754  0.00  0.00     0.175 C 
BRANCH  23  24
HETATM   24  C   UNK     0     -44.377   0.660  18.885  0.00  0.00     0.065 C 
BRANCH  24  25
HETATM   25  C   UNK     0     -43.136   1.230  19.527  0.00  0.00    -0.053 A 
HETATM   26  C   UNK     0     -42.511   2.344  18.968  0.00  0.00     0.046 A 
HETATM   27  C   UNK     0     -41.365   2.872  19.563  0.00  0.00     0.099 A 
HETATM   28  C   UNK     0     -40.845   2.286  20.717  0.00  0.00     0.098 A 
HETATM   29  C   UNK     0     -41.471   1.172  21.276  0.00  0.00     0.040 A 
HETATM   30  C   UNK     0     -42.617   0.644  20.682  0.00  0.00     0.010 A 
BRANCH  27  31
HETATM   31  O   UNK     0     -40.763   3.962  19.009  0.00  0.00    -0.358 OA
HETATM   32  H   UNK     0     -40.694   4.661  19.681  0.00  0.00     0.217 HD
ENDBRANCH  27  31
BRANCH  28  33
HETATM   33  O   UNK     0     -39.726   2.793  21.307  0.00  0.00    -0.358 OA
HETATM   34  H   UNK     0     -39.988   3.315  22.085  0.00  0.00     0.217 HD
ENDBRANCH  28  33
ENDBRANCH  24  25
ENDBRANCH  23  24
ENDBRANCH  22  23
ENDBRANCH   6  22
BRANCH   3  35
HETATM   35  O   UNK     0     -47.939  -1.165  14.072  0.00  0.00    -0.390 OA
HETATM   36  H   UNK     0     -48.313  -1.919  13.584  0.00  0.00     0.210 HD
ENDBRANCH   3  35
BRANCH   5  37
HETATM   37  O   UNK     0     -43.952  -2.052  16.586  0.00  0.00    -0.388 OA
HETATM   38  H   UNK     0     -43.627  -2.828  16.097  0.00  0.00     0.210 HD
ENDBRANCH   5  37
BRANCH   4  39
HETATM   39  O   UNK     0     -45.709  -2.974  14.407  0.00  0.00    -0.390 OA
HETATM   40  H   UNK     0     -45.334  -3.691  14.948  0.00  0.00     0.210 HD
ENDBRANCH   4  39
TORSDOF 15
ENDMDL
MODEL 4
REMARK VINA RESULT:      -7.5      3.123      5.124
REMARK  15 active torsions:
REMARK  status: ('A' for Active; 'I' for Inactive)
REMARK    1  A    between atoms: O_2  and  C_18 
REMARK    2  A    between atoms: O_2  and  C_22 
REMARK    3  A    between atoms: O_4  and  C_14 
REMARK    4  A    between atoms: O_5  and  C_21 
REMARK    5  A    between atoms: O_5  and  C_25 
REMARK    6  A    between atoms: O_6  and  C_15 
REMARK    7  A    between atoms: O_7  and  C_16 
REMARK    8  A    between atoms: O_8  and  C_17 
REMARK    9  A    between atoms: O_9  and  C_19 
REMARK   10  A    between atoms: O_10  and  C_20 
REMARK   11  A    between atoms: O_11  and  C_30 
REMARK   12  A    between atoms: O_12  and  C_32 
REMARK   13  A    between atoms: C_13  and  C_22 
REMARK   14  A    between atoms: C_25  and  C_26 
REMARK   15  A    between atoms: C_26  and  C_27 
ROOT
HETATM    1  O   UNK     0     -49.551  -2.535  17.243  0.00  0.00    -0.348 OA
HETATM    2  C   UNK     0     -48.607  -1.636  16.657  0.00  0.00     0.180 C 
HETATM    3  C   UNK     0     -49.059  -1.252  15.246  0.00  0.00     0.180 C 
HETATM    4  C   UNK     0     -49.269  -2.497  14.385  0.00  0.00     0.183 C 
HETATM    5  C   UNK     0     -50.136  -3.528  15.106  0.00  0.00     0.204 C 
HETATM    6  C   UNK     0     -49.645  -3.768  16.533  0.00  0.00     0.291 C 
ENDROOT
BRANCH   2   7
HETATM    7  C   UNK     0     -48.503  -0.418  17.569  0.00  0.00     0.205 C 
BRANCH   7   8
HETATM    8  O   UNK     0     -47.296  -0.499  18.313  0.00  0.00    -0.356 OA
BRANCH   8   9
HETATM    9  C   UNK     0     -46.335   0.444  17.850  0.00  0.00     0.291 C 
HETATM   10  O   UNK     0     -45.802   0.096  16.568  0.00  0.00    -0.351 OA
HETATM   11  C   UNK     0     -45.056  -1.126  16.554  0.00  0.00     0.152 C 
HETATM   12  C   UNK     0     -43.866  -1.055  17.522  0.00  0.00     0.178 C 
HETATM   13  C   UNK     0     -44.608  -1.358  15.113  0.00  0.00     0.042 C 
HETATM   14  C   UNK     0     -44.350  -0.675  18.921  0.00  0.00     0.183 C 
HETATM   15  C   UNK     0     -45.215   0.587  18.878  0.00  0.00     0.204 C 
BRANCH  12  16
HETATM   16  O   UNK     0     -43.223  -2.323  17.605  0.00  0.00    -0.390 OA
HETATM   17  H   UNK     0     -43.765  -2.970  17.120  0.00  0.00     0.210 HD
ENDBRANCH  12  16
BRANCH  14  18
HETATM   18  O   UNK     0     -43.221  -0.460  19.766  0.00  0.00    -0.390 OA
HETATM   19  H   UNK     0     -43.530   0.026  20.550  0.00  0.00     0.210 HD
ENDBRANCH  14  18
BRANCH  15  20
HETATM   20  O   UNK     0     -44.419   1.711  18.501  0.00  0.00    -0.388 OA
HETATM   21  H   UNK     0     -44.942   2.512  18.671  0.00  0.00     0.210 HD
ENDBRANCH  15  20
ENDBRANCH   8   9
ENDBRANCH   7   8
ENDBRANCH   2   7
BRANCH   6  22
HETATM   22  O   UNK     0     -50.582  -4.628  17.183  0.00  0.00    -0.358 OA
BRANCH  22  23
HETATM   23  C   UNK     0     -49.930  -5.536  18.055  0.00  0.00     0.175 C 
BRANCH  23  24
HETATM   24  C   UNK     0     -49.593  -6.819  17.304  0.00  0.00     0.065 C 
BRANCH  24  25
HETATM   25  C   UNK     0     -48.713  -7.743  18.110  0.00  0.00    -0.053 A 
HETATM   26  C   UNK     0     -49.146  -9.034  18.409  0.00  0.00     0.046 A 
HETATM   27  C   UNK     0     -48.331  -9.888  19.153  0.00  0.00     0.099 A 
HETATM   28  C   UNK     0     -47.084  -9.450  19.598  0.00  0.00     0.098 A 
HETATM   29  C   UNK     0     -46.651  -8.159  19.299  0.00  0.00     0.040 A 
HETATM   30  C   UNK     0     -47.465  -7.304  18.555  0.00  0.00     0.010 A 
BRANCH  27  31
HETATM   31  O   UNK     0     -48.765 -11.148  19.437  0.00  0.00    -0.358 OA
HETATM   32  H   UNK     0     -48.406 -11.763  18.774  0.00  0.00     0.217 HD
ENDBRANCH  27  31
BRANCH  28  33
HETATM   33  O   UNK     0     -46.280 -10.275  20.325  0.00  0.00    -0.358 OA
HETATM   34  H   UNK     0     -46.434 -11.194  20.046  0.00  0.00     0.217 HD
ENDBRANCH  28  33
ENDBRANCH  24  25
ENDBRANCH  23  24
ENDBRANCH  22  23
ENDBRANCH   6  22
BRANCH   3  35
HETATM   35  O   UNK     0     -48.068  -0.423  14.644  0.00  0.00    -0.390 OA
HETATM   36  H   UNK     0     -48.211   0.488  14.952  0.00  0.00     0.210 HD
ENDBRANCH   3  35
BRANCH   5  37
HETATM   37  O   UNK     0     -50.083  -4.769  14.401  0.00  0.00    -0.388 OA
HETATM   38  H   UNK     0     -50.899  -4.853  13.877  0.00  0.00     0.210 HD
ENDBRANCH   5  37
BRANCH   4  39
HETATM   39  O   UNK     0     -49.915  -2.094  13.176  0.00  0.00    -0.390 OA
HETATM   40  H   UNK     0     -49.439  -1.324  12.820  0.00  0.00     0.210 HD
ENDBRANCH   4  39
TORSDOF 15
ENDMDL
MODEL 5
REMARK VINA RESULT:      -7.4      1.531      2.489
REMARK  15 active torsions:
REMARK  status: ('A' for Active; 'I' for Inactive)
REMARK    1  A    between atoms: O_2  and  C_18 
REMARK    2  A    between atoms: O_2  and  C_22 
REMARK    3  A    between atoms: O_4  and  C_14 
REMARK    4  A    between atoms: O_5  and  C_21 
REMARK    5  A    between atoms: O_5  and  C_25 
REMARK    6  A    between atoms: O_6  and  C_15 
REMARK    7  A    between atoms: O_7  and  C_16 
REMARK    8  A    between atoms: O_8  and  C_17 
REMARK    9  A    between atoms: O_9  and  C_19 
REMARK   10  A    between atoms: O_10  and  C_20 
REMARK   11  A    between atoms: O_11  and  C_30 
REMARK   12  A    between atoms: O_12  and  C_32 
REMARK   13  A    between atoms: C_13  and  C_22 
REMARK   14  A    between atoms: C_25  and  C_26 
REMARK   15  A    between atoms: C_26  and  C_27 
ROOT
HETATM    1  O   UNK     0     -48.729  -6.086  19.546  0.00  0.00    -0.348 OA
HETATM    2  C   UNK     0     -49.549  -5.386  18.608  0.00  0.00     0.180 C 
HETATM    3  C   UNK     0     -50.840  -6.168  18.357  0.00  0.00     0.180 C 
HETATM    4  C   UNK     0     -50.531  -7.592  17.892  0.00  0.00     0.183 C 
HETATM    5  C   UNK     0     -49.510  -8.264  18.810  0.00  0.00     0.204 C 
HETATM    6  C   UNK     0     -48.306  -7.358  19.060  0.00  0.00     0.291 C 
ENDROOT
BRANCH   2   7
HETATM    7  C   UNK     0     -49.829  -4.002  19.184  0.00  0.00     0.205 C 
BRANCH   7   8
HETATM    8  O   UNK     0     -49.042  -3.044  18.491  0.00  0.00    -0.356 OA
BRANCH   8   9
HETATM    9  C   UNK     0     -49.847  -2.203  17.672  0.00  0.00     0.291 C 
HETATM   10  O   UNK     0     -50.382  -2.894  16.538  0.00  0.00    -0.351 OA
HETATM   11  C   UNK     0     -49.392  -3.357  15.613  0.00  0.00     0.152 C 
HETATM   12  C   UNK     0     -48.560  -2.189  15.065  0.00  0.00     0.178 C 
HETATM   13  C   UNK     0     -50.132  -4.102  14.504  0.00  0.00     0.042 C 
HETATM   14  C   UNK     0     -47.959  -1.386  16.219  0.00  0.00     0.183 C 
HETATM   15  C   UNK     0     -49.037  -0.986  17.228  0.00  0.00     0.204 C 
BRANCH  12  16
HETATM   16  O   UNK     0     -47.490  -2.680  14.262  0.00  0.00    -0.390 OA
HETATM   17  H   UNK     0     -47.863  -3.291  13.604  0.00  0.00     0.210 HD
ENDBRANCH  12  16
BRANCH  14  18
HETATM   18  O   UNK     0     -47.325  -0.220  15.699  0.00  0.00    -0.390 OA
HETATM   19  H   UNK     0     -46.600   0.014  16.304  0.00  0.00     0.210 HD
ENDBRANCH  14  18
BRANCH  15  20
HETATM   20  O   UNK     0     -49.942  -0.056  16.631  0.00  0.00    -0.388 OA
HETATM   21  H   UNK     0     -49.552   0.830  16.717  0.00  0.00     0.210 HD
ENDBRANCH  15  20
ENDBRANCH   8   9
ENDBRANCH   7   8
ENDBRANCH   2   7
BRANCH   6  22
HETATM   22  O   UNK     0     -47.472  -7.992  20.031  0.00  0.00    -0.358 OA
BRANCH  22  23
HETATM   23  C   UNK     0     -47.591  -7.367  21.299  0.00  0.00     0.175 C 
BRANCH  23  24
HETATM   24  C   UNK     0     -47.947  -8.409  22.354  0.00  0.00     0.065 C 
BRANCH  24  25
HETATM   25  C   UNK     0     -49.438  -8.569  22.524  0.00  0.00    -0.053 A 
HETATM   26  C   UNK     0     -49.997  -9.842  22.618  0.00  0.00     0.046 A 
HETATM   27  C   UNK     0     -51.376  -9.989  22.777  0.00  0.00     0.099 A 
HETATM   28  C   UNK     0     -52.194  -8.861  22.840  0.00  0.00     0.098 A 
HETATM   29  C   UNK     0     -51.635  -7.588  22.746  0.00  0.00     0.040 A 
HETATM   30  C   UNK     0     -50.257  -7.440  22.588  0.00  0.00     0.010 A 
BRANCH  27  31
HETATM   31  O   UNK     0     -51.910 -11.238  22.871  0.00  0.00    -0.358 OA
HETATM   32  H   UNK     0     -51.481 -11.816  22.216  0.00  0.00     0.217 HD
ENDBRANCH  27  31
BRANCH  28  33
HETATM   33  O   UNK     0     -53.542  -8.992  22.995  0.00  0.00    -0.358 OA
HETATM   34  H   UNK     0     -53.933  -9.262  22.147  0.00  0.00     0.217 HD
ENDBRANCH  28  33
ENDBRANCH  24  25
ENDBRANCH  23  24
ENDBRANCH  22  23
ENDBRANCH   6  22
BRANCH   3  35
HETATM   35  O   UNK     0     -51.608  -5.502  17.359  0.00  0.00    -0.390 OA
HETATM   36  H   UNK     0     -51.810  -6.144  16.657  0.00  0.00     0.210 HD
ENDBRANCH   3  35
BRANCH   5  37
HETATM   37  O   UNK     0     -49.045  -9.468  18.199  0.00  0.00    -0.388 OA
HETATM   38  H   UNK     0     -49.123  -9.367  17.235  0.00  0.00     0.210 HD
ENDBRANCH   5  37
BRANCH   4  39
HETATM   39  O   UNK     0     -51.751  -8.336  17.911  0.00  0.00    -0.390 OA
HETATM   40  H   UNK     0     -52.454  -7.757  18.251  0.00  0.00     0.210 HD
ENDBRANCH   4  39
TORSDOF 15
ENDMDL
MODEL 6
REMARK VINA RESULT:      -7.4      5.634     10.161
REMARK  15 active torsions:
REMARK  status: ('A' for Active; 'I' for Inactive)
REMARK    1  A    between atoms: O_2  and  C_18 
REMARK    2  A    between atoms: O_2  and  C_22 
REMARK    3  A    between atoms: O_4  and  C_14 
REMARK    4  A    between atoms: O_5  and  C_21 
REMARK    5  A    between atoms: O_5  and  C_25 
REMARK    6  A    between atoms: O_6  and  C_15 
REMARK    7  A    between atoms: O_7  and  C_16 
REMARK    8  A    between atoms: O_8  and  C_17 
REMARK    9  A    between atoms: O_9  and  C_19 
REMARK   10  A    between atoms: O_10  and  C_20 
REMARK   11  A    between atoms: O_11  and  C_30 
REMARK   12  A    between atoms: O_12  and  C_32 
REMARK   13  A    between atoms: C_13  and  C_22 
REMARK   14  A    between atoms: C_25  and  C_26 
REMARK   15  A    between atoms: C_26  and  C_27 
ROOT
HETATM    1  O   UNK     0     -46.178  -0.297  18.697  0.00  0.00    -0.348 OA
HETATM    2  C   UNK     0     -46.474   0.117  17.361  0.00  0.00     0.180 C 
HETATM    3  C   UNK     0     -45.832  -0.849  16.362  0.00  0.00     0.180 C 
HETATM    4  C   UNK     0     -44.327  -0.959  16.603  0.00  0.00     0.183 C 
HETATM    5  C   UNK     0     -44.020  -1.222  18.076  0.00  0.00     0.204 C 
HETATM    6  C   UNK     0     -44.781  -0.257  18.984  0.00  0.00     0.291 C 
ENDROOT
BRANCH   2   7
HETATM    7  C   UNK     0     -47.992   0.154  17.217  0.00  0.00     0.205 C 
BRANCH   7   8
HETATM    8  O   UNK     0     -48.423  -1.029  16.559  0.00  0.00    -0.356 OA
BRANCH   8   9
HETATM    9  C   UNK     0     -49.522  -0.771  15.692  0.00  0.00     0.291 C 
HETATM   10  O   UNK     0     -50.708  -1.467  16.091  0.00  0.00    -0.351 OA
HETATM   11  C   UNK     0     -50.601  -2.893  16.027  0.00  0.00     0.152 C 
HETATM   12  C   UNK     0     -50.276  -3.358  14.600  0.00  0.00     0.178 C 
HETATM   13  C   UNK     0     -51.927  -3.462  16.526  0.00  0.00     0.042 C 
HETATM   14  C   UNK     0     -49.022  -2.648  14.090  0.00  0.00     0.183 C 
HETATM   15  C   UNK     0     -49.143  -1.132  14.257  0.00  0.00     0.204 C 
BRANCH  12  16
HETATM   16  O   UNK     0     -50.031  -4.761  14.582  0.00  0.00    -0.390 OA
HETATM   17  H   UNK     0     -50.663  -5.170  13.966  0.00  0.00     0.210 HD
ENDBRANCH  12  16
BRANCH  14  18
HETATM   18  O   UNK     0     -48.827  -2.970  12.714  0.00  0.00    -0.390 OA
HETATM   19  H   UNK     0     -48.198  -3.711  12.673  0.00  0.00     0.210 HD
ENDBRANCH  14  18
BRANCH  15  20
HETATM   20  O   UNK     0     -50.165  -0.627  13.397  0.00  0.00    -0.388 OA
HETATM   21  H   UNK     0     -50.042   0.334  13.327  0.00  0.00     0.210 HD
ENDBRANCH  15  20
ENDBRANCH   8   9
ENDBRANCH   7   8
ENDBRANCH   2   7
BRANCH   6  22
HETATM   22  O   UNK     0     -44.557  -0.655  20.337  0.00  0.00    -0.358 OA
BRANCH  22  23
HETATM   23  C   UNK     0     -44.133   0.440  21.134  0.00  0.00     0.175 C 
BRANCH  23  24
HETATM   24  C   UNK     0     -42.636   0.335  21.400  0.00  0.00     0.065 C 
BRANCH  24  25
HETATM   25  C   UNK     0     -41.878   1.540  20.901  0.00  0.00    -0.053 A 
HETATM   26  C   UNK     0     -40.849   2.084  21.669  0.00  0.00     0.046 A 
HETATM   27  C   UNK     0     -40.146   3.197  21.207  0.00  0.00     0.099 A 
HETATM   28  C   UNK     0     -40.474   3.767  19.977  0.00  0.00     0.098 A 
HETATM   29  C   UNK     0     -41.503   3.223  19.209  0.00  0.00     0.040 A 
HETATM   30  C   UNK     0     -42.205   2.110  19.670  0.00  0.00     0.010 A 
BRANCH  27  31
HETATM   31  O   UNK     0     -39.142   3.718  21.965  0.00  0.00    -0.358 OA
HETATM   32  H   UNK     0     -38.909   3.081  22.663  0.00  0.00     0.217 HD
ENDBRANCH  27  31
BRANCH  28  33
HETATM   33  O   UNK     0     -39.796   4.854  19.515  0.00  0.00    -0.358 OA
HETATM   34  H   UNK     0     -39.057   5.046  20.118  0.00  0.00     0.217 HD
ENDBRANCH  28  33
ENDBRANCH  24  25
ENDBRANCH  23  24
ENDBRANCH  22  23
ENDBRANCH   6  22
BRANCH   3  35
HETATM   35  O   UNK     0     -46.066  -0.379  15.037  0.00  0.00    -0.390 OA
HETATM   36  H   UNK     0     -45.255   0.060  14.727  0.00  0.00     0.210 HD
ENDBRANCH   3  35
BRANCH   5  37
HETATM   37  O   UNK     0     -42.623  -1.045  18.309  0.00  0.00    -0.388 OA
HETATM   38  H   UNK     0     -42.279  -0.435  17.634  0.00  0.00     0.210 HD
ENDBRANCH   5  37
BRANCH   4  39
HETATM   39  O   UNK     0     -43.831  -2.041  15.813  0.00  0.00    -0.390 OA
HETATM   40  H   UNK     0     -43.423  -2.691  16.411  0.00  0.00     0.210 HD
ENDBRANCH   4  39
TORSDOF 15
ENDMDL
MODEL 7
REMARK VINA RESULT:      -7.4      4.051      5.830
REMARK  15 active torsions:
REMARK  status: ('A' for Active; 'I' for Inactive)
REMARK    1  A    between atoms: O_2  and  C_18 
REMARK    2  A    between atoms: O_2  and  C_22 
REMARK    3  A    between atoms: O_4  and  C_14 
REMARK    4  A    between atoms: O_5  and  C_21 
REMARK    5  A    between atoms: O_5  and  C_25 
REMARK    6  A    between atoms: O_6  and  C_15 
REMARK    7  A    between atoms: O_7  and  C_16 
REMARK    8  A    between atoms: O_8  and  C_17 
REMARK    9  A    between atoms: O_9  and  C_19 
REMARK   10  A    between atoms: O_10  and  C_20 
REMARK   11  A    between atoms: O_11  and  C_30 
REMARK   12  A    between atoms: O_12  and  C_32 
REMARK   13  A    between atoms: C_13  and  C_22 
REMARK   14  A    between atoms: C_25  and  C_26 
REMARK   15  A    between atoms: C_26  and  C_27 
ROOT
HETATM    1  O   UNK     0     -49.382  -2.791  17.087  0.00  0.00    -0.348 OA
HETATM    2  C   UNK     0     -48.546  -1.757  16.564  0.00  0.00     0.180 C 
HETATM    3  C   UNK     0     -49.104  -1.261  15.228  0.00  0.00     0.180 C 
HETATM    4  C   UNK     0     -49.262  -2.418  14.242  0.00  0.00     0.183 C 
HETATM    5  C   UNK     0     -50.004  -3.592  14.881  0.00  0.00     0.204 C 
HETATM    6  C   UNK     0     -49.418  -3.943  16.247  0.00  0.00     0.291 C 
ENDROOT
BRANCH   2   7
HETATM    7  C   UNK     0     -48.489  -0.641  17.602  0.00  0.00     0.205 C 
BRANCH   7   8
HETATM    8  O   UNK     0     -47.243  -0.704  18.280  0.00  0.00    -0.356 OA
BRANCH   8   9
HETATM    9  C   UNK     0     -46.350   0.306  17.824  0.00  0.00     0.291 C 
HETATM   10  O   UNK     0     -45.822   0.022  16.524  0.00  0.00    -0.351 OA
HETATM   11  C   UNK     0     -45.003  -1.151  16.468  0.00  0.00     0.152 C 
HETATM   12  C   UNK     0     -43.802  -1.032  17.416  0.00  0.00     0.178 C 
HETATM   13  C   UNK     0     -44.570  -1.322  15.014  0.00  0.00     0.042 C 
HETATM   14  C   UNK     0     -44.281  -0.714  18.832  0.00  0.00     0.183 C 
HETATM   15  C   UNK     0     -45.221   0.493  18.836  0.00  0.00     0.204 C 
BRANCH  12  16
HETATM   16  O   UNK     0     -43.081  -2.260  17.456  0.00  0.00    -0.390 OA
HETATM   17  H   UNK     0     -43.414  -2.781  18.206  0.00  0.00     0.210 HD
ENDBRANCH  12  16
BRANCH  14  18
HETATM   18  O   UNK     0     -43.151  -0.451  19.662  0.00  0.00    -0.390 OA
HETATM   19  H   UNK     0     -43.207   0.477  19.947  0.00  0.00     0.210 HD
ENDBRANCH  14  18
BRANCH  15  20
HETATM   20  O   UNK     0     -44.501   1.672  18.472  0.00  0.00    -0.388 OA
HETATM   21  H   UNK     0     -45.150   2.333  18.176  0.00  0.00     0.210 HD
ENDBRANCH  15  20
ENDBRANCH   8   9
ENDBRANCH   7   8
ENDBRANCH   2   7
BRANCH   6  22
HETATM   22  O   UNK     0     -50.247  -4.944  16.838  0.00  0.00    -0.358 OA
BRANCH  22  23
HETATM   23  C   UNK     0     -51.143  -4.381  17.783  0.00  0.00     0.175 C 
BRANCH  23  24
HETATM   24  C   UNK     0     -52.123  -5.446  18.261  0.00  0.00     0.065 C 
BRANCH  24  25
HETATM   25  C   UNK     0     -53.054  -5.904  17.166  0.00  0.00    -0.053 A 
HETATM   26  C   UNK     0     -53.297  -7.264  16.980  0.00  0.00     0.046 A 
HETATM   27  C   UNK     0     -54.159  -7.687  15.968  0.00  0.00     0.099 A 
HETATM   28  C   UNK     0     -54.778  -6.748  15.142  0.00  0.00     0.098 A 
HETATM   29  C   UNK     0     -54.535  -5.388  15.328  0.00  0.00     0.040 A 
HETATM   30  C   UNK     0     -53.673  -4.965  16.340  0.00  0.00     0.010 A 
BRANCH  27  31
HETATM   31  O   UNK     0     -54.390  -9.018  15.797  0.00  0.00    -0.358 OA
HETATM   32  H   UNK     0     -53.811  -9.352  15.090  0.00  0.00     0.217 HD
ENDBRANCH  27  31
BRANCH  28  33
HETATM   33  O   UNK     0     -55.623  -7.149  14.150  0.00  0.00    -0.358 OA
HETATM   34  H   UNK     0     -55.349  -8.028  13.837  0.00  0.00     0.217 HD
ENDBRANCH  28  33
ENDBRANCH  24  25
ENDBRANCH  23  24
ENDBRANCH  22  23
ENDBRANCH   6  22
BRANCH   3  35
HETATM   35  O   UNK     0     -48.217  -0.291  14.678  0.00  0.00    -0.390 OA
HETATM   36  H   UNK     0     -48.596   0.023  13.840  0.00  0.00     0.210 HD
ENDBRANCH   3  35
BRANCH   5  37
HETATM   37  O   UNK     0     -49.892  -4.739  14.039  0.00  0.00    -0.388 OA
HETATM   38  H   UNK     0     -49.187  -5.306  14.394  0.00  0.00     0.210 HD
ENDBRANCH   5  37
BRANCH   4  39
HETATM   39  O   UNK     0     -50.004  -1.942  13.117  0.00  0.00    -0.390 OA
HETATM   40  H   UNK     0     -50.816  -2.473  13.043  0.00  0.00     0.210 HD
ENDBRANCH   4  39
TORSDOF 15
ENDMDL
MODEL 8
REMARK VINA RESULT:      -7.4      2.772      4.643
REMARK  15 active torsions:
REMARK  status: ('A' for Active; 'I' for Inactive)
REMARK    1  A    between atoms: O_2  and  C_18 
REMARK    2  A    between atoms: O_2  and  C_22 
REMARK    3  A    between atoms: O_4  and  C_14 
REMARK    4  A    between atoms: O_5  and  C_21 
REMARK    5  A    between atoms: O_5  and  C_25 
REMARK    6  A    between atoms: O_6  and  C_15 
REMARK    7  A    between atoms: O_7  and  C_16 
REMARK    8  A    between atoms: O_8  and  C_17 
REMARK    9  A    between atoms: O_9  and  C_19 
REMARK   10  A    between atoms: O_10  and  C_20 
REMARK   11  A    between atoms: O_11  and  C_30 
REMARK   12  A    between atoms: O_12  and  C_32 
REMARK   13  A    between atoms: C_13  and  C_22 
REMARK   14  A    between atoms: C_25  and  C_26 
REMARK   15  A    between atoms: C_26  and  C_27 
ROOT
HETATM    1  O   UNK     0     -48.672  -5.540  18.764  0.00  0.00    -0.348 OA
HETATM    2  C   UNK     0     -49.049  -5.448  17.390  0.00  0.00     0.180 C 
HETATM    3  C   UNK     0     -50.468  -5.990  17.201  0.00  0.00     0.180 C 
HETATM    4  C   UNK     0     -50.577  -7.422  17.725  0.00  0.00     0.183 C 
HETATM    5  C   UNK     0     -49.999  -7.539  19.135  0.00  0.00     0.204 C 
HETATM    6  C   UNK     0     -48.620  -6.888  19.228  0.00  0.00     0.291 C 
ENDROOT
BRANCH   2   7
HETATM    7  C   UNK     0     -48.945  -3.982  16.981  0.00  0.00     0.205 C 
BRANCH   7   8
HETATM    8  O   UNK     0     -47.818  -3.402  17.624  0.00  0.00    -0.356 OA
BRANCH   8   9
HETATM    9  C   UNK     0     -46.674  -3.415  16.778  0.00  0.00     0.291 C 
HETATM   10  O   UNK     0     -45.493  -2.961  17.449  0.00  0.00    -0.351 OA
HETATM   11  C   UNK     0     -45.545  -1.593  17.867  0.00  0.00     0.152 C 
HETATM   12  C   UNK     0     -45.757  -0.658  16.667  0.00  0.00     0.178 C 
HETATM   13  C   UNK     0     -44.236  -1.300  18.596  0.00  0.00     0.042 C 
HETATM   14  C   UNK     0     -46.998  -1.083  15.883  0.00  0.00     0.183 C 
HETATM   15  C   UNK     0     -46.943  -2.572  15.533  0.00  0.00     0.204 C 
BRANCH  12  16
HETATM   16  O   UNK     0     -45.950   0.681  17.113  0.00  0.00    -0.390 OA
HETATM   17  H   UNK     0     -46.082   1.243  16.331  0.00  0.00     0.210 HD
ENDBRANCH  12  16
BRANCH  14  18
HETATM   18  O   UNK     0     -47.089  -0.307  14.690  0.00  0.00    -0.390 OA
HETATM   19  H   UNK     0     -46.376   0.354  14.716  0.00  0.00     0.210 HD
ENDBRANCH  14  18
BRANCH  15  20
HETATM   20  O   UNK     0     -45.883  -2.815  14.606  0.00  0.00    -0.388 OA
HETATM   21  H   UNK     0     -45.625  -1.959  14.223  0.00  0.00     0.210 HD
ENDBRANCH  15  20
ENDBRANCH   8   9
ENDBRANCH   7   8
ENDBRANCH   2   7
BRANCH   6  22
HETATM   22  O   UNK     0     -48.213  -6.912  20.596  0.00  0.00    -0.358 OA
BRANCH  22  23
HETATM   23  C   UNK     0     -46.955  -7.551  20.749  0.00  0.00     0.175 C 
BRANCH  23  24
HETATM   24  C   UNK     0     -46.578  -8.262  19.454  0.00  0.00     0.065 C 
BRANCH  24  25
HETATM   25  C   UNK     0     -45.206  -8.885  19.520  0.00  0.00    -0.053 A 
HETATM   26  C   UNK     0     -44.453  -8.795  20.690  0.00  0.00     0.046 A 
HETATM   27  C   UNK     0     -43.185  -9.373  20.750  0.00  0.00     0.099 A 
HETATM   28  C   UNK     0     -42.669 -10.040  19.639  0.00  0.00     0.098 A 
HETATM   29  C   UNK     0     -43.422 -10.130  18.469  0.00  0.00     0.040 A 
HETATM   30  C   UNK     0     -44.690  -9.553  18.408  0.00  0.00     0.010 A 
BRANCH  27  31
HETATM   31  O   UNK     0     -42.460  -9.280  21.900  0.00  0.00    -0.358 OA
HETATM   32  H   UNK     0     -41.641  -9.795  21.800  0.00  0.00     0.217 HD
ENDBRANCH  27  31
BRANCH  28  33
HETATM   33  O   UNK     0     -41.431 -10.609  19.686  0.00  0.00    -0.358 OA
HETATM   34  H   UNK     0     -41.450 -11.356  20.308  0.00  0.00     0.217 HD
ENDBRANCH  28  33
ENDBRANCH  24  25
ENDBRANCH  23  24
ENDBRANCH  22  23
ENDBRANCH   6  22
BRANCH   3  35
HETATM   35  O   UNK     0     -50.799  -5.968  15.815  0.00  0.00    -0.390 OA
HETATM   36  H   UNK     0     -50.511  -6.811  15.424  0.00  0.00     0.210 HD
ENDBRANCH   3  35
BRANCH   5  37
HETATM   37  O   UNK     0     -49.866  -8.918  19.480  0.00  0.00    -0.388 OA
HETATM   38  H   UNK     0     -49.504  -8.971  20.381  0.00  0.00     0.210 HD
ENDBRANCH   5  37
BRANCH   4  39
HETATM   39  O   UNK     0     -51.960  -7.780  17.746  0.00  0.00    -0.390 OA
HETATM   40  H   UNK     0     -52.362  -7.484  16.912  0.00  0.00     0.210 HD
ENDBRANCH   4  39
TORSDOF 15
ENDMDL
MODEL 9
REMARK VINA RESULT:      -7.3      3.303      5.000
REMARK  15 active torsions:
REMARK  status: ('A' for Active; 'I' for Inactive)
REMARK    1  A    between atoms: O_2  and  C_18 
REMARK    2  A    between atoms: O_2  and  C_22 
REMARK    3  A    between atoms: O_4  and  C_14 
REMARK    4  A    between atoms: O_5  and  C_21 
REMARK    5  A    between atoms: O_5  and  C_25 
REMARK    6  A    between atoms: O_6  and  C_15 
REMARK    7  A    between atoms: O_7  and  C_16 
REMARK    8  A    between atoms: O_8  and  C_17 
REMARK    9  A    between atoms: O_9  and  C_19 
REMARK   10  A    between atoms: O_10  and  C_20 
REMARK   11  A    between atoms: O_11  and  C_30 
REMARK   12  A    between atoms: O_12  and  C_32 
REMARK   13  A    between atoms: C_13  and  C_22 
REMARK   14  A    between atoms: C_25  and  C_26 
REMARK   15  A    between atoms: C_26  and  C_27 
ROOT
HETATM    1  O   UNK     0     -50.291  -5.617  17.725  0.00  0.00    -0.348 OA
HETATM    2  C   UNK     0     -51.574  -5.561  17.099  0.00  0.00     0.180 C 
HETATM    3  C   UNK     0     -52.350  -4.343  17.608  0.00  0.00     0.180 C 
HETATM    4  C   UNK     0     -52.460  -4.366  19.132  0.00  0.00     0.183 C 
HETATM    5  C   UNK     0     -51.098  -4.610  19.781  0.00  0.00     0.204 C 
HETATM    6  C   UNK     0     -50.378  -5.793  19.137  0.00  0.00     0.291 C 
ENDROOT
BRANCH   2   7
HETATM    7  C   UNK     0     -51.350  -5.500  15.592  0.00  0.00     0.205 C 
BRANCH   7   8
HETATM    8  O   UNK     0     -51.224  -4.141  15.198  0.00  0.00    -0.356 OA
BRANCH   8   9
HETATM    9  C   UNK     0     -49.894  -3.839  14.790  0.00  0.00     0.291 C 
HETATM   10  O   UNK     0     -49.068  -3.423  15.883  0.00  0.00    -0.351 OA
HETATM   11  C   UNK     0     -49.481  -2.198  16.497  0.00  0.00     0.152 C 
HETATM   12  C   UNK     0     -49.482  -1.045  15.483  0.00  0.00     0.178 C 
HETATM   13  C   UNK     0     -48.524  -1.937  17.658  0.00  0.00     0.042 C 
HETATM   14  C   UNK     0     -50.338  -1.415  14.271  0.00  0.00     0.183 C 
HETATM   15  C   UNK     0     -49.920  -2.770  13.698  0.00  0.00     0.204 C 
BRANCH  12  16
HETATM   16  O   UNK     0     -50.032   0.130  16.072  0.00  0.00    -0.390 OA
HETATM   17  H   UNK     0     -49.383   0.848  15.975  0.00  0.00     0.210 HD
ENDBRANCH  12  16
BRANCH  14  18
HETATM   18  O   UNK     0     -50.200  -0.404  13.274  0.00  0.00    -0.390 OA
HETATM   19  H   UNK     0     -49.299  -0.469  12.913  0.00  0.00     0.210 HD
ENDBRANCH  14  18
BRANCH  15  20
HETATM   20  O   UNK     0     -48.606  -2.682  13.145  0.00  0.00    -0.388 OA
HETATM   21  H   UNK     0     -48.521  -3.383  12.476  0.00  0.00     0.210 HD
ENDBRANCH  15  20
ENDBRANCH   8   9
ENDBRANCH   7   8
ENDBRANCH   2   7
BRANCH   6  22
HETATM   22  O   UNK     0     -49.066  -5.867  19.695  0.00  0.00    -0.358 OA
BRANCH  22  23
HETATM   23  C   UNK     0     -48.551  -7.188  19.632  0.00  0.00     0.175 C 
BRANCH  23  24
HETATM   24  C   UNK     0     -47.250  -7.196  18.837  0.00  0.00     0.065 C 
BRANCH  24  25
HETATM   25  C   UNK     0     -46.510  -8.505  18.960  0.00  0.00    -0.053 A 
HETATM   26  C   UNK     0     -45.174  -8.590  18.571  0.00  0.00     0.046 A 
HETATM   27  C   UNK     0     -44.490  -9.801  18.686  0.00  0.00     0.099 A 
HETATM   28  C   UNK     0     -45.143 -10.925  19.191  0.00  0.00     0.098 A 
HETATM   29  C   UNK     0     -46.479 -10.840  19.580  0.00  0.00     0.040 A 
HETATM   30  C   UNK     0     -47.163  -9.630  19.466  0.00  0.00     0.010 A 
BRANCH  27  31
HETATM   31  O   UNK     0     -43.184  -9.871  18.304  0.00  0.00    -0.358 OA
HETATM   32  H   UNK     0     -42.621  -9.597  19.049  0.00  0.00     0.217 HD
ENDBRANCH  27  31
BRANCH  28  33
HETATM   33  O   UNK     0     -44.484 -12.113  19.308  0.00  0.00    -0.358 OA
HETATM   34  H   UNK     0     -43.675 -12.081  18.771  0.00  0.00     0.217 HD
ENDBRANCH  28  33
ENDBRANCH  24  25
ENDBRANCH  23  24
ENDBRANCH  22  23
ENDBRANCH   6  22
BRANCH   3  35
HETATM   35  O   UNK     0     -53.657  -4.346  17.040  0.00  0.00    -0.390 OA
HETATM   36  H   UNK     0     -54.104  -3.527  17.311  0.00  0.00     0.210 HD
ENDBRANCH   3  35
BRANCH   5  37
HETATM   37  O   UNK     0     -51.278  -4.898  21.168  0.00  0.00    -0.388 OA
HETATM   38  H   UNK     0     -52.122  -5.371  21.270  0.00  0.00     0.210 HD
ENDBRANCH   5  37
BRANCH   4  39
HETATM   39  O   UNK     0     -52.971  -3.102  19.558  0.00  0.00    -0.390 OA
HETATM   40  H   UNK     0     -52.221  -2.491  19.660  0.00  0.00     0.210 HD
ENDBRANCH   4  39
TORSDOF 15
ENDMDL
MODEL 10
REMARK VINA RESULT:      -7.3      5.424      8.221
REMARK  15 active torsions:
REMARK  status: ('A' for Active; 'I' for Inactive)
REMARK    1  A    between atoms: O_2  and  C_18 
REMARK    2  A    between atoms: O_2  and  C_22 
REMARK    3  A    between atoms: O_4  and  C_14 
REMARK    4  A    between atoms: O_5  and  C_21 
REMARK    5  A    between atoms: O_5  and  C_25 
REMARK    6  A    between atoms: O_6  and  C_15 
REMARK    7  A    between atoms: O_7  and  C_16 
REMARK    8  A    between atoms: O_8  and  C_17 
REMARK    9  A    between atoms: O_9  and  C_19 
REMARK   10  A    between atoms: O_10  and  C_20 
REMARK   11  A    between atoms: O_11  and  C_30 
REMARK   12  A    between atoms: O_12  and  C_32 
REMARK   13  A    between atoms: C_13  and  C_22 
REMARK   14  A    between atoms: C_25  and  C_26 
REMARK   15  A    between atoms: C_26  and  C_27 
ROOT
HETATM    1  O   UNK     0     -46.484  -0.139  17.574  0.00  0.00    -0.348 OA
HETATM    2  C   UNK     0     -46.027  -0.423  16.250  0.00  0.00     0.180 C 
HETATM    3  C   UNK     0     -45.102  -1.642  16.269  0.00  0.00     0.180 C 
HETATM    4  C   UNK     0     -43.940  -1.428  17.239  0.00  0.00     0.183 C 
HETATM    5  C   UNK     0     -44.439  -0.947  18.601  0.00  0.00     0.204 C 
HETATM    6  C   UNK     0     -45.421   0.214  18.456  0.00  0.00     0.291 C 
ENDROOT
BRANCH   2   7
HETATM    7  C   UNK     0     -47.256  -0.659  15.379  0.00  0.00     0.205 C 
BRANCH   7   8
HETATM    8  O   UNK     0     -48.400  -0.773  16.214  0.00  0.00    -0.356 OA
BRANCH   8   9
HETATM    9  C   UNK     0     -49.605  -0.682  15.461  0.00  0.00     0.291 C 
HETATM   10  O   UNK     0     -50.703  -1.333  16.107  0.00  0.00    -0.351 OA
HETATM   11  C   UNK     0     -50.543  -2.749  16.251  0.00  0.00     0.152 C 
HETATM   12  C   UNK     0     -50.371  -3.426  14.884  0.00  0.00     0.178 C 
HETATM   13  C   UNK     0     -51.774  -3.263  16.993  0.00  0.00     0.042 C 
HETATM   14  C   UNK     0     -49.218  -2.777  14.118  0.00  0.00     0.183 C 
HETATM   15  C   UNK     0     -49.384  -1.257  14.063  0.00  0.00     0.204 C 
BRANCH  12  16
HETATM   16  O   UNK     0     -50.069  -4.808  15.052  0.00  0.00    -0.390 OA
HETATM   17  H   UNK     0     -49.208  -4.982  14.634  0.00  0.00     0.210 HD
ENDBRANCH  12  16
BRANCH  14  18
HETATM   18  O   UNK     0     -49.175  -3.308  12.796  0.00  0.00    -0.390 OA
HETATM   19  H   UNK     0     -49.399  -4.253  12.852  0.00  0.00     0.210 HD
ENDBRANCH  14  18
BRANCH  15  20
HETATM   20  O   UNK     0     -50.522  -0.919  13.269  0.00  0.00    -0.388 OA
HETATM   21  H   UNK     0     -50.633  -1.616  12.601  0.00  0.00     0.210 HD
ENDBRANCH  15  20
ENDBRANCH   8   9
ENDBRANCH   7   8
ENDBRANCH   2   7
BRANCH   6  22
HETATM   22  O   UNK     0     -45.947   0.510  19.750  0.00  0.00    -0.358 OA
BRANCH  22  23
HETATM   23  C   UNK     0     -46.200   1.898  19.899  0.00  0.00     0.175 C 
BRANCH  23  24
HETATM   24  C   UNK     0     -47.437   2.105  20.766  0.00  0.00     0.065 C 
BRANCH  24  25
HETATM   25  C   UNK     0     -48.705   1.682  20.066  0.00  0.00    -0.053 A 
HETATM   26  C   UNK     0     -49.374   2.577  19.231  0.00  0.00     0.046 A 
HETATM   27  C   UNK     0     -50.545   2.184  18.583  0.00  0.00     0.099 A 
HETATM   28  C   UNK     0     -51.048   0.897  18.772  0.00  0.00     0.098 A 
HETATM   29  C   UNK     0     -50.380   0.002  19.606  0.00  0.00     0.040 A 
HETATM   30  C   UNK     0     -49.208   0.394  20.254  0.00  0.00     0.010 A 
BRANCH  27  31
HETATM   31  O   UNK     0     -51.188   3.067  17.769  0.00  0.00    -0.358 OA
HETATM   32  H   UNK     0     -50.584   3.338  17.056  0.00  0.00     0.217 HD
ENDBRANCH  27  31
BRANCH  28  33
HETATM   33  O   UNK     0     -52.192   0.502  18.144  0.00  0.00    -0.358 OA
HETATM   34  H   UNK     0     -52.957   0.779  18.677  0.00  0.00     0.217 HD
ENDBRANCH  28  33
ENDBRANCH  24  25
ENDBRANCH  23  24
ENDBRANCH  22  23
ENDBRANCH   6  22
BRANCH   3  35
HETATM   35  O   UNK     0     -44.588  -1.863  14.958  0.00  0.00    -0.390 OA
HETATM   36  H   UNK     0     -44.387  -0.997  14.564  0.00  0.00     0.210 HD
ENDBRANCH   3  35
BRANCH   5  37
HETATM   37  O   UNK     0     -43.330  -0.499  19.381  0.00  0.00    -0.388 OA
HETATM   38  H   UNK     0     -42.513  -0.772  18.928  0.00  0.00     0.210 HD
ENDBRANCH   5  37
BRANCH   4  39
HETATM   39  O   UNK     0     -43.259  -2.675  17.394  0.00  0.00    -0.390 OA
HETATM   40  H   UNK     0     -42.314  -2.488  17.535  0.00  0.00     0.210 HD
ENDBRANCH   4  39
TORSDOF 15
ENDMDL
