REMARK  6 active torsions:
REMARK  status: ('A' for Active; 'I' for Inactive)
REMARK    1  A    between atoms: O_2  and  C_12 
REMARK    2  A    between atoms: O_3  and  C_14 
REMARK    3  A    between atoms: O_5  and  C_16 
REMARK    4  A    between atoms: O_6  and  C_20 
REMARK    5  A    between atoms: O_7  and  C_22 
REMARK    6  A    between atoms: C_10  and  C_11 
ROOT
HETATM    1  O   MOL     1      12.095   2.970  18.679  1.00 -0.29    -0.306 OA
HETATM    2  O   MOL     1      10.428   3.641  22.291  1.00 -0.07    -0.284 OA
HETATM    3  C   MOL     1      11.885   4.431  20.604  1.00 -0.22     0.084 A 
HETATM    4  C   MOL     1      12.412   4.107  19.350  1.00 -0.28     0.096 A 
HETATM    5  C   MOL     1      11.182   2.107  19.245  1.00 -0.27     0.123 A 
HETATM    6  C   MOL     1      10.610   2.306  20.475  1.00 -0.25     0.152 A 
HETATM    7  C   MOL     1      10.952   3.487  21.189  1.00 -0.26     0.223 A 
HETATM    8  C   MOL     1      12.276   5.631  21.227  1.00 -0.30     0.085 A 
HETATM    9  C   MOL     1      13.305   4.974  18.748  1.00 -0.35     0.075 A 
HETATM   10  C   MOL     1      13.683   6.145  19.363  1.00 -0.32     0.071 A 
HETATM   11  C   MOL     1      13.164   6.469  20.606  1.00 -0.36     0.074 A 
ENDROOT
BRANCH   5  12
HETATM   12  C   MOL     1      10.852   0.913  18.436  1.00 -0.20     0.004 A 
HETATM   13  C   MOL     1       9.835   0.922  17.489  1.00 -0.40     0.053 A 
HETATM   14  C   MOL     1       9.549  -0.204  16.754  1.00 -0.49     0.099 A 
HETATM   15  C   MOL     1      10.281  -1.365  16.955  1.00 -0.44     0.098 A 
HETATM   16  C   MOL     1      11.302  -1.379  17.882  1.00 -0.32     0.040 A 
HETATM   17  C   MOL     1      11.586  -0.250  18.613  1.00 -0.22     0.017 A 
BRANCH  14  18
HETATM   18  O   MOL     1       8.547  -0.180  15.830  1.00 -1.03    -0.358 OA
HETATM   19  H   MOL     1       8.713   0.520  15.127  1.00 -0.41     0.217 HD
ENDBRANCH  14  18
BRANCH  15  20
HETATM   20  O   MOL     1       9.994  -2.485  16.237  1.00 -0.18    -0.358 OA
HETATM   21  H   MOL     1      10.048  -2.311  15.247  1.00 -0.83     0.217 HD
ENDBRANCH  15  20
ENDBRANCH   5  12
BRANCH   6  22
HETATM   22  O   MOL     1       9.735   1.399  21.066  1.00 -0.10    -0.355 OA
HETATM   23  H   MOL     1       8.776   1.661  20.924  1.00 -0.48     0.218 HD
ENDBRANCH   6  22
BRANCH   8  24
HETATM   24  O   MOL     1      11.794   5.989  22.445  1.00 -0.20    -0.360 OA
HETATM   25  H   MOL     1      12.506   6.372  23.037  1.00 -0.28     0.217 HD
ENDBRANCH   8  24
BRANCH  10  26
HETATM   26  O   MOL     1      14.563   6.981  18.755  1.00 -0.17    -0.361 OA
HETATM   27  H   MOL     1      14.118   7.834  18.461  1.00 -0.67     0.217 HD
ENDBRANCH  10  26
TORSDOF 6
