REMARK  17 active torsions:
REMARK  status: ('A' for Active; 'I' for Inactive)
REMARK    1  A    between atoms: P_1  and  O_5 
REMARK    2  A    between atoms: P_1  and  O_6 
REMARK    3  A    between atoms: P_1  and  N_12 
REMARK    4  A    between atoms: O_3  and  C_17 
REMARK    5  A    between atoms: O_4  and  C_18 
REMARK    6  A    between atoms: O_5  and  C_21 
REMARK    7  A    between atoms: O_6  and  C_35 
REMARK    8  A    between atoms: O_8  and  C_30 
REMARK    9  A    between atoms: O_8  and  C_33 
REMARK   10  A    between atoms: N_12  and  C_27 
REMARK   11  A    between atoms: N_15  and  C_26 
REMARK   12  A    between atoms: C_16  and  C_20 
REMARK   13  A    between atoms: C_19  and  C_21 
REMARK   14  A    between atoms: C_27  and  C_33 
REMARK   15  A    between atoms: C_29  and  C_30 
REMARK   16  A    between atoms: C_29  and  C_31 
REMARK   17  A    between atoms: C_29  and  C_32 
ROOT
HETATM    1  P   MOL     1       9.926  -0.277  21.733  1.00  0.12     0.413 P 
HETATM    2  O   MOL     1      11.282  -0.821  21.366  1.00  0.24    -0.239 OA
ENDROOT
BRANCH   1   3
HETATM    3  O   MOL     1       9.009  -1.437  22.370  1.00  0.08    -0.299 OA
BRANCH   3   4
HETATM    4  C   MOL     1       9.611  -2.420  23.229  1.00 -0.28     0.214 C 
BRANCH   4   5
HETATM    5  C   MOL     1       8.561  -3.318  23.905  1.00 -0.08     0.180 C 
HETATM    6  O   MOL     1       8.961  -4.700  23.846  1.00  0.11    -0.347 OA
HETATM    7  C   MOL     1       8.598  -5.374  25.065  1.00 -0.14     0.222 C 
HETATM    8  C   MOL     1       8.703  -4.270  26.137  1.00 -0.17     0.205 C 
HETATM    9  C   MOL     1       7.217  -5.868  24.925  1.00 -0.55     0.107 C 
HETATM   10  C   MOL     1       8.377  -2.965  25.393  1.00 -0.17     0.182 C 
HETATM   11  N   MOL     1       6.152  -6.249  24.819  1.00 -0.14    -0.193 NA
BRANCH   7  12
HETATM   12  C   MOL     1       9.515  -6.562  25.330  1.00 -0.20     0.088 A 
HETATM   13  N   MOL     1       9.982  -7.360  24.337  1.00  0.04    -0.229 N 
HETATM   14  N   MOL     1       9.821  -7.373  22.980  1.00 -0.05    -0.160 NA
HETATM   15  C   MOL     1      10.751  -8.291  24.960  1.00 -0.16     0.104 A 
HETATM   16  C   MOL     1      10.434  -8.314  22.302  1.00 -0.31     0.258 A 
HETATM   17  N   MOL     1      11.231  -9.302  22.821  1.00 -0.00    -0.221 NA
HETATM   18  C   MOL     1      11.380  -9.276  24.153  1.00 -0.13     0.151 A 
HETATM   19  C   MOL     1      10.774  -8.092  26.303  1.00 -0.12     0.038 A 
HETATM   20  C   MOL     1       9.971  -6.971  26.532  1.00 -0.23     0.034 A 
BRANCH  18  21
HETATM   21  N   MOL     1      12.171 -10.250  24.714  1.00  0.00    -0.382 N 
HETATM   22  H   MOL     1      12.552 -10.853  24.199  1.00  0.06     0.157 HD
HETATM   23  H   MOL     1      12.299 -10.275  25.585  1.00  0.06     0.157 HD
ENDBRANCH  18  21
ENDBRANCH   7  12
BRANCH   8  24
HETATM   24  O   MOL     1       7.830  -4.479  27.258  1.00 -0.44    -0.388 OA
HETATM   25  H   MOL     1       7.520  -3.605  27.649  1.00 -0.23     0.210 HD
ENDBRANCH   8  24
BRANCH  10  26
HETATM   26  O   MOL     1       7.019  -2.572  25.642  1.00 -0.00    -0.390 OA
HETATM   27  H   MOL     1       6.861  -2.401  26.620  1.00 -0.20     0.210 HD
ENDBRANCH  10  26
ENDBRANCH   4   5
ENDBRANCH   3   4
ENDBRANCH   1   3
BRANCH   1  28
HETATM   28  O   MOL     1      10.057   0.792  22.935  1.00  0.30    -0.260 OA
BRANCH  28  29
HETATM   29  C   MOL     1       9.061   0.975  23.854  1.00 -0.20     0.080 A 
HETATM   30  C   MOL     1       7.953   1.754  23.573  1.00 -0.31     0.037 A 
HETATM   31  C   MOL     1       6.964   1.919  24.514  1.00 -0.47     0.003 A 
HETATM   32  C   MOL     1       7.074   1.308  25.743  1.00 -0.44     0.000 A 
HETATM   33  C   MOL     1       8.172   0.530  26.029  1.00 -0.39     0.003 A 
HETATM   34  C   MOL     1       9.161   0.363  25.088  1.00 -0.24     0.037 A 
ENDBRANCH  28  29
ENDBRANCH   1  28
BRANCH   1  35
HETATM   35  N   MOL     1       9.273   0.304  20.507  1.00  0.08    -0.213 NA
HETATM   36  H   MOL     1       8.987   1.272  20.694  1.00  0.25     0.134 HD
BRANCH  35  37
HETATM   37  C   MOL     1      10.149   0.265  19.330  1.00 -0.34     0.162 C 
HETATM   38  C   MOL     1       9.336  -0.244  18.129  1.00 -0.62     0.037 C 
BRANCH  37  39
HETATM   39  C   MOL     1      10.660   1.654  19.027  1.00 -0.36     0.276 C 
HETATM   40  O   MOL     1      10.692   2.174  17.927  1.00 -0.26    -0.263 OA
BRANCH  39  41
HETATM   41  O   MOL     1      11.070   2.284  20.141  1.00 -0.05    -0.320 OA
BRANCH  41  42
HETATM   42  C   MOL     1      11.483   3.657  19.999  1.00 -0.34     0.183 C 
BRANCH  42  43
HETATM   43  C   MOL     1      11.161   4.501  21.253  1.00 -0.28     0.009 C 
BRANCH  43  44
HETATM   44  C   MOL     1      12.213   4.214  22.349  1.00 -0.24     0.002 C 
HETATM   45  C   MOL     1      11.560   3.891  23.705  1.00 -0.36     0.005 C 
ENDBRANCH  43  44
BRANCH  43  46
HETATM   46  C   MOL     1      11.169   6.007  20.898  1.00 -0.43     0.002 C 
HETATM   47  C   MOL     1      12.452   6.403  20.143  1.00 -0.47     0.005 C 
ENDBRANCH  43  46
ENDBRANCH  42  43
ENDBRANCH  41  42
ENDBRANCH  39  41
ENDBRANCH  37  39
ENDBRANCH  35  37
ENDBRANCH   1  35
TORSDOF 17
