Site3d_Forsythoside_D
  xed2sdf_05210316543D
 
 62 64  0  0  1  0  0  0  0  0999 V2000
  -47.9676   -2.0562   15.7290 O   0  0  0  0  0  0  0  0  0  0  0  0
  -45.9551   -0.5783   16.4887 O   0  0  0  0  0  0  0  0  0  0  0  0
  -46.0983   -1.7906   18.5754 O   0  0  0  0  0  0  0  0  0  0  0  0
  -47.5204    0.3648   12.9354 O   0  0  0  0  0  0  0  0  0  0  0  0
  -49.9053   -3.2692   16.4800 O   0  0  0  0  0  0  0  0  0  0  0  0
  -50.3696    0.2561   13.1605 O   0  0  0  0  0  0  0  0  0  0  0  0
  -51.4581   -2.0714   14.4561 O   0  0  0  0  0  0  0  0  0  0  0  0
  -43.5298   -3.0263   17.7991 O   0  0  0  0  0  0  0  0  0  0  0  0
  -42.0519   -0.7295   18.4587 O   0  0  0  0  0  0  0  0  0  0  0  0
  -43.7399    0.3367   20.5108 O   0  0  0  0  0  0  0  0  0  0  0  0
  -54.6802   -8.6257   16.2009 O   0  0  0  0  0  0  0  0  0  0  0  0
  -55.9251   -7.0624   14.3090 O   0  0  0  0  0  0  0  0  0  0  0  0
  -47.3066   -1.4165   14.6162 C   0  0  0  0  0  0  0  0  0  0  0  0
  -48.1596   -0.2576   14.0608 C   0  0  0  0  0  0  0  0  0  0  0  0
  -49.5359   -0.8065   13.6462 C   0  0  0  0  0  0  0  0  0  0  0  0
  -50.1986   -1.5047   14.8466 C   0  0  0  0  0  0  0  0  0  0  0  0
  -43.9728   -1.7408   17.3406 C   0  0  0  0  0  0  0  0  0  0  0  0
  -45.5127   -1.7141   17.2565 C   0  0  0  0  0  0  0  0  0  0  0  0
  -43.4742   -0.6342   18.2916 C   0  0  0  0  0  0  0  0  0  0  0  0
  -44.1756   -0.7351   19.6598 C   0  0  0  0  0  0  0  0  0  0  0  0
  -49.2587   -2.6057   15.3774 C   0  0  0  0  0  0  0  0  0  0  0  0
  -45.9530   -0.8530   15.0773 C   0  0  0  0  0  0  0  0  0  0  0  0
  -45.7011   -0.7002   19.4317 C   0  0  0  0  0  0  0  0  0  0  0  0
  -46.4436   -0.8062   20.7739 C   0  0  0  0  0  0  0  0  0  0  0  0
  -50.2670   -4.6246   16.1670 C   0  0  0  0  0  0  0  0  0  0  0  0
  -51.4195   -5.0835   17.0785 C   0  0  0  0  0  0  0  0  0  0  0  0
  -52.6279   -5.6263   16.3337 C   0  0  0  0  0  0  0  0  0  0  0  0
  -53.1075   -6.8911   16.6047 C   0  0  0  0  0  0  0  0  0  0  0  0
  -53.2554   -4.8497   15.3847 C   0  0  0  0  0  0  0  0  0  0  0  0
  -54.2077   -7.3759   15.9310 C   0  0  0  0  0  0  0  0  0  0  0  0
  -54.3555   -5.3277   14.7075 C   0  0  0  0  0  0  0  0  0  0  0  0
  -54.8355   -6.5897   14.9776 C   0  0  0  0  0  0  0  0  0  0  0  0
  -47.1749   -2.0991   13.8973 H   0  0  0  0  0  0  0  0  0  0  0  0
  -48.2661    0.4361   14.7730 H   0  0  0  0  0  0  0  0  0  0  0  0
  -49.4147   -1.4723   12.9101 H   0  0  0  0  0  0  0  0  0  0  0  0
  -50.3652   -0.8352   15.5704 H   0  0  0  0  0  0  0  0  0  0  0  0
  -43.5945   -1.5747   16.4300 H   0  0  0  0  0  0  0  0  0  0  0  0
  -45.8351   -2.5242   16.7666 H   0  0  0  0  0  0  0  0  0  0  0  0
  -43.6962    0.2528   17.8869 H   0  0  0  0  0  0  0  0  0  0  0  0
  -43.9389   -1.5931   20.1154 H   0  0  0  0  0  0  0  0  0  0  0  0
  -49.0808   -3.2846   14.6650 H   0  0  0  0  0  0  0  0  0  0  0  0
  -45.9367    0.1678   18.9946 H   0  0  0  0  0  0  0  0  0  0  0  0
  -46.9373   -0.2875   12.4390 H   0  0  0  0  0  0  0  0  0  0  0  0
  -51.0071   -0.0727   12.4551 H   0  0  0  0  0  0  0  0  0  0  0  0
  -51.3313   -2.9298   13.9469 H   0  0  0  0  0  0  0  0  0  0  0  0
  -43.3761   -3.6561   17.0296 H   0  0  0  0  0  0  0  0  0  0  0  0
  -41.6953   -1.5904   18.0791 H   0  0  0  0  0  0  0  0  0  0  0  0
  -43.9320    1.2338   20.0986 H   0  0  0  0  0  0  0  0  0  0  0  0
  -54.2528   -9.3167   15.6078 H   0  0  0  0  0  0  0  0  0  0  0  0
  -55.7662   -7.9909   13.9556 H   0  0  0  0  0  0  0  0  0  0  0  0
  -45.2340   -1.5178   14.8742 H   0  0  0  0  0  0  0  0  0  0  0  0
  -45.7865    0.0040   14.5893 H   0  0  0  0  0  0  0  0  0  0  0  0
  -45.7729   -0.8757   21.5122 H   0  0  0  0  0  0  0  0  0  0  0  0
  -47.0119    0.0049   20.9104 H   0  0  0  0  0  0  0  0  0  0  0  0
  -47.0286   -1.6170   20.7715 H   0  0  0  0  0  0  0  0  0  0  0  0
  -49.4757   -5.2205   16.3036 H   0  0  0  0  0  0  0  0  0  0  0  0
  -50.5637   -4.6740   15.2134 H   0  0  0  0  0  0  0  0  0  0  0  0
  -51.7133   -4.3033   17.6310 H   0  0  0  0  0  0  0  0  0  0  0  0
  -51.0639   -5.8366   17.6318 H   0  0  0  0  0  0  0  0  0  0  0  0
  -52.6550   -7.4586   17.2926 H   0  0  0  0  0  0  0  0  0  0  0  0
  -52.9102   -3.9324   15.1862 H   0  0  0  0  0  0  0  0  0  0  0  0
  -54.8054   -4.7584   14.0195 H   0  0  0  0  0  0  0  0  0  0  0  0
  1 13  1  0
  1 21  1  0
  2 22  1  0
  3 18  1  0
  3 23  1  0
  5 25  1  0
 11 30  1  0
 12 32  1  0
 13 14  1  0
 13 22  1  0
 14  4  1  0
 14 15  1  0
 15  6  1  0
 15 16  1  0
 16  7  1  0
 16 21  1  0
 17  8  1  0
 17 18  1  0
 17 19  1  0
 18  2  1  0
 19  9  1  0
 19 20  1  0
 20 10  1  0
 20 23  1  0
 21  5  1  0
 23 24  1  0
 25 26  1  0
 26 27  1  0
 27 28  2  0
 27 29  1  0
 28 30  1  0
 29 31  2  0
 30 32  2  0
 31 32  1  0
  4 43  1  0
  6 44  1  0
  7 45  1  0
  8 46  1  0
  9 47  1  0
 10 48  1  0
 11 49  1  0
 12 50  1  0
 13 33  1  0
 14 34  1  0
 15 35  1  0
 16 36  1  0
 17 37  1  0
 18 38  1  0
 19 39  1  0
 20 40  1  0
 21 41  1  0
 22 51  1  0
 22 52  1  0
 23 42  1  0
 24 53  1  0
 24 54  1  0
 24 55  1  0
 25 56  1  0
 25 57  1  0
 26 58  1  0
 26 59  1  0
 28 60  1  0
 29 61  1  0
 31 62  1  0
M  END
>  <LF dG>
-7.49

>  <LF VSscore>
-12.947

>  <LF Rank Score>
-10.552

>  <LF LE>
-0.234

>  <LF Structure Name>
C:\Users\Odara\AppData\Local\Temp\LeadFinder_908_1\Ligand_1.sdf

>  <LF SDF id>
0

>  <LF Pose rank>
0

>  <LF version>
2001 1, 19 January 2019

>  <PUBCHEM_COMPOUND_CID>
69634125

>  <PUBCHEM_COMPOUND_CANONICALIZED>
1

>  <PUBCHEM_CACTVS_COMPLEXITY>
581

>  <PUBCHEM_CACTVS_HBOND_ACCEPTOR>
12

>  <PUBCHEM_CACTVS_HBOND_DONOR>
8

>  <PUBCHEM_CACTVS_ROTATABLE_BOND>
7

>  <PUBCHEM_CACTVS_SUBSKEYS>
AAADceB4PAAAAAAAAAAAAAAAAAAAAAAAAAA0SIAAAAAAAAABAAAAGgAACAAADBSwmAMyDoAABgCAAiBCAAACAAAgIAAIiAAGiIgZNiKCERKicAElwBEPmAfA4LwOIAABAAAAQABAAAIAAACAAAAAAAAAAA==

>  <PUBCHEM_IUPAC_OPENEYE_NAME>
(2R,3R,4R,5R,6S)-2-[[(2R,3S,4S,5R,6R)-6-[2-(3,4-dihydroxyphenyl)ethoxy]-3,4,5-trihydroxy-tetrahydropyran-2-yl]methoxy]-6-methyl-tetrahydropyran-3,4,5-triol

>  <PUBCHEM_IUPAC_CAS_NAME>
(2R,3R,4R,5R,6S)-2-[[(2R,3S,4S,5R,6R)-6-[2-(3,4-dihydroxyphenyl)ethoxy]-3,4,5-trihydroxy-2-oxanyl]methoxy]-6-methyloxane-3,4,5-triol

>  <PUBCHEM_IUPAC_NAME_MARKUP>
(2<I>R</I>,3<I>R</I>,4<I>R</I>,5<I>R</I>,6<I>S</I>)-2-[[(2<I>R</I>,3<I>S</I>,4<I>S</I>,5<I>R</I>,6<I>R</I>)-6-[2-(3,4-dihydroxyphenyl)ethoxy]-3,4,5-trihydroxyoxan-2-yl]methoxy]-6-methyloxane-3,4,5-tri

>  <PUBCHEM_IUPAC_NAME>
(2R,3R,4R,5R,6S)-2-[[(2R,3S,4S,5R,6R)-6-[2-(3,4-dihydroxyphenyl)ethoxy]-3,4,5-trihydroxyoxan-2-yl]methoxy]-6-methyloxane-3,4,5-triol

>  <PUBCHEM_IUPAC_SYSTEMATIC_NAME>
(2R,3R,4R,5R,6S)-2-[[(2R,3S,4S,5R,6R)-6-[2-[3,4-bis(oxidanyl)phenyl]ethoxy]-3,4,5-tris(oxidanyl)oxan-2-yl]methoxy]-6-methyl-oxane-3,4,5-triol

>  <PUBCHEM_IUPAC_TRADITIONAL_NAME>
(2R,3R,4R,5R,6S)-2-[[(2R,3S,4S,5R,6R)-6-[2-(3,4-dihydroxyphenyl)ethoxy]-3,4,5-trihydroxy-tetrahydropyran-2-yl]methoxy]-6-methyl-tetrahydropyran-3,4,5-triol

>  <PUBCHEM_IUPAC_INCHI>
InChI=1S/C20H30O12/c1-8-13(23)15(25)17(27)20(31-8)30-7-12-14(24)16(26)18(28)19(32-12)29-5-4-9-2-3-10(21)11(22)6-9/h2-3,6,8,12-28H,4-5,7H2,1H3/t8-,12+,13-,14+,15+,16-,17+,18+,19+,20+/m0/s1

>  <PUBCHEM_IUPAC_INCHIKEY>
QIMGUQIHCNDUKU-OJJLXHDHSA-N

>  <PUBCHEM_XLOGP3_AA>
-2.5

>  <PUBCHEM_EXACT_MASS>
462.173726

>  <PUBCHEM_MOLECULAR_FORMULA>
C20H30O12

>  <PUBCHEM_MOLECULAR_WEIGHT>
462.4

>  <PUBCHEM_OPENEYE_CAN_SMILES>
CC1C(C(C(C(O1)OCC2C(C(C(C(O2)OCCC3=CC(=C(C=C3)O)O)O)O)O)O)O)O

>  <PUBCHEM_OPENEYE_ISO_SMILES>
C[C@H]1[C@@H]([C@H]([C@H]([C@@H](O1)OC[C@@H]2[C@H]([C@@H]([C@H]([C@@H](O2)OCCC3=CC(=C(C=C3)O)O)O)O)O)O)O)O

>  <PUBCHEM_CACTVS_TPSA>
199

>  <PUBCHEM_MONOISOTOPIC_WEIGHT>
462.173726

>  <PUBCHEM_TOTAL_CHARGE>
0

>  <PUBCHEM_HEAVY_ATOM_COUNT>
32

>  <PUBCHEM_ATOM_DEF_STEREO_COUNT>
10

>  <PUBCHEM_ATOM_UDEF_STEREO_COUNT>
0

>  <PUBCHEM_BOND_DEF_STEREO_COUNT>
0

>  <PUBCHEM_BOND_UDEF_STEREO_COUNT>
0

>  <PUBCHEM_ISOTOPIC_ATOM_COUNT>
0

>  <PUBCHEM_COMPONENT_COUNT>
1

>  <PUBCHEM_CACTVS_TAUTO_COUNT>
-1

>  <PUBCHEM_COORDINATE_TYPE>
1
5
255

>  <PUBCHEM_BONDANNOTATIONS>
20  10  5
13  22  5
18  2  5
23  24  6
27  28  8
27  29  8
28  30  8
29  31  8
30  32  8
31  32  8
14  4  6
21  5  5
15  6  5
16  7  6
17  8  6
19  9  6

>  <Favorite_cresset>
false

>  <MW_cresset>
462.4

>  <#Atoms_cresset>
32

>  <SlogP_cresset>
-0.4

>  <TPSA_cresset>
198.8

>  <Flexibility_cresset>
15.9

>  <#RB_cresset>
15

>  <Rof5_cresset>
2

>  <Filename_cresset>
drag.56_197.sdf

>  <Confs_cresset>
0

>  <Poses_cresset>
0

$$$$
W_Site3d_Forsythoside_D
  xed2sdf_05210316543D
 
 62 64  0  0  1  0  0  0  0  0999 V2000
  -47.9590   -2.3134   15.5435 O   0  0  0  0  0  0  0  0  0  0  0  0
  -45.9683   -0.7784   16.4894 O   0  0  0  0  0  0  0  0  0  0  0  0
  -46.0777   -1.7815   18.6862 O   0  0  0  0  0  0  0  0  0  0  0  0
  -47.2821    0.3944   13.0788 O   0  0  0  0  0  0  0  0  0  0  0  0
  -49.9838   -3.4974   16.0809 O   0  0  0  0  0  0  0  0  0  0  0  0
  -50.1396    0.4186   13.1994 O   0  0  0  0  0  0  0  0  0  0  0  0
  -51.3948   -1.9824   14.1689 O   0  0  0  0  0  0  0  0  0  0  0  0
  -43.4670   -3.0016   18.0362 O   0  0  0  0  0  0  0  0  0  0  0  0
  -42.0686   -0.6024   18.4642 O   0  0  0  0  0  0  0  0  0  0  0  0
  -43.7977    0.6052   20.4004 O   0  0  0  0  0  0  0  0  0  0  0  0
  -54.0099   -8.8806   16.5786 O   0  0  0  0  0  0  0  0  0  0  0  0
  -55.9340   -8.3682   14.6790 O   0  0  0  0  0  0  0  0  0  0  0  0
  -47.2243   -1.5836   14.5376 C   0  0  0  0  0  0  0  0  0  0  0  0
  -47.9947   -0.3210   14.1000 C   0  0  0  0  0  0  0  0  0  0  0  0
  -49.3807   -0.7392   13.5789 C   0  0  0  0  0  0  0  0  0  0  0  0
  -50.1237   -1.5373   14.6646 C   0  0  0  0  0  0  0  0  0  0  0  0
  -43.9511   -1.7835   17.4524 C   0  0  0  0  0  0  0  0  0  0  0  0
  -45.4907   -1.8169   17.3662 C   0  0  0  0  0  0  0  0  0  0  0  0
  -43.4927   -0.5718   18.2887 C   0  0  0  0  0  0  0  0  0  0  0  0
  -44.1949   -0.5598   19.6602 C   0  0  0  0  0  0  0  0  0  0  0  0
  -49.2626   -2.7443   15.0875 C   0  0  0  0  0  0  0  0  0  0  0  0
  -45.8619   -1.1553   15.1059 C   0  0  0  0  0  0  0  0  0  0  0  0
  -45.7199   -0.5988   19.4299 C   0  0  0  0  0  0  0  0  0  0  0  0
  -46.4627   -0.5958   20.7761 C   0  0  0  0  0  0  0  0  0  0  0  0
  -50.8867   -4.4506   15.4960 C   0  0  0  0  0  0  0  0  0  0  0  0
  -52.2760   -4.3247   16.1470 C   0  0  0  0  0  0  0  0  0  0  0  0
  -53.2527   -5.4206   15.7537 C   0  0  0  0  0  0  0  0  0  0  0  0
  -53.1855   -6.6644   16.3466 C   0  0  0  0  0  0  0  0  0  0  0  0
  -54.2178   -5.1715   14.8029 C   0  0  0  0  0  0  0  0  0  0  0  0
  -54.0778   -7.6525   15.9909 C   0  0  0  0  0  0  0  0  0  0  0  0
  -55.1130   -6.1543   14.4425 C   0  0  0  0  0  0  0  0  0  0  0  0
  -55.0473   -7.3959   15.0341 C   0  0  0  0  0  0  0  0  0  0  0  0
  -47.1007   -2.1820   13.7459 H   0  0  0  0  0  0  0  0  0  0  0  0
  -48.0923    0.2877   14.8872 H   0  0  0  0  0  0  0  0  0  0  0  0
  -49.2662   -1.3182   12.7718 H   0  0  0  0  0  0  0  0  0  0  0  0
  -50.2828   -0.9506   15.4585 H   0  0  0  0  0  0  0  0  0  0  0  0
  -43.5756   -1.6961   16.5297 H   0  0  0  0  0  0  0  0  0  0  0  0
  -45.7844   -2.6819   16.9593 H   0  0  0  0  0  0  0  0  0  0  0  0
  -43.7428    0.2627   17.7979 H   0  0  0  0  0  0  0  0  0  0  0  0
  -43.9311   -1.3599   20.1988 H   0  0  0  0  0  0  0  0  0  0  0  0
  -49.0930   -3.3424   14.3042 H   0  0  0  0  0  0  0  0  0  0  0  0
  -45.9830    0.2131   18.9088 H   0  0  0  0  0  0  0  0  0  0  0  0
  -46.9412   -0.2282   12.3660 H   0  0  0  0  0  0  0  0  0  0  0  0
  -50.8752    0.1789   12.5564 H   0  0  0  0  0  0  0  0  0  0  0  0
  -51.5202   -1.7300   13.2031 H   0  0  0  0  0  0  0  0  0  0  0  0
  -43.2806   -3.6958   17.3323 H   0  0  0  0  0  0  0  0  0  0  0  0
  -41.6699   -1.4420   18.0790 H   0  0  0  0  0  0  0  0  0  0  0  0
  -44.1540    1.4463   19.9795 H   0  0  0  0  0  0  0  0  0  0  0  0
  -53.2051   -9.3953   16.2635 H   0  0  0  0  0  0  0  0  0  0  0  0
  -55.5098   -9.2803   14.7029 H   0  0  0  0  0  0  0  0  0  0  0  0
  -45.2174   -1.9155   15.0222 H   0  0  0  0  0  0  0  0  0  0  0  0
  -45.5396   -0.3633   14.5869 H   0  0  0  0  0  0  0  0  0  0  0  0
  -45.7924   -0.5692   21.5176 H   0  0  0  0  0  0  0  0  0  0  0  0
  -47.0582    0.2054   20.8314 H   0  0  0  0  0  0  0  0  0  0  0  0
  -47.0203   -1.4220   20.8544 H   0  0  0  0  0  0  0  0  0  0  0  0
  -50.5335   -5.3751   15.6390 H   0  0  0  0  0  0  0  0  0  0  0  0
  -50.9664   -4.2696   14.5159 H   0  0  0  0  0  0  0  0  0  0  0  0
  -52.6679   -3.4431   15.8839 H   0  0  0  0  0  0  0  0  0  0  0  0
  -52.1379   -4.4067   17.1339 H   0  0  0  0  0  0  0  0  0  0  0  0
  -52.4864   -6.8499   17.0371 H   0  0  0  0  0  0  0  0  0  0  0  0
  -54.2691   -4.2707   14.3714 H   0  0  0  0  0  0  0  0  0  0  0  0
  -55.8104   -5.9663   13.7510 H   0  0  0  0  0  0  0  0  0  0  0  0
  1 13  1  0
  1 21  1  0
  2 22  1  0
  3 18  1  0
  3 23  1  0
  5 25  1  0
 11 30  1  0
 12 32  1  0
 13 14  1  0
 13 22  1  0
 14  4  1  0
 14 15  1  0
 15  6  1  0
 15 16  1  0
 16  7  1  0
 16 21  1  0
 17  8  1  0
 17 18  1  0
 17 19  1  0
 18  2  1  0
 19  9  1  0
 19 20  1  0
 20 10  1  0
 20 23  1  0
 21  5  1  0
 23 24  1  0
 25 26  1  0
 26 27  1  0
 27 28  2  0
 27 29  1  0
 28 30  1  0
 29 31  2  0
 30 32  2  0
 31 32  1  0
  4 43  1  0
  6 44  1  0
  7 45  1  0
  8 46  1  0
  9 47  1  0
 10 48  1  0
 11 49  1  0
 12 50  1  0
 13 33  1  0
 14 34  1  0
 15 35  1  0
 16 36  1  0
 17 37  1  0
 18 38  1  0
 19 39  1  0
 20 40  1  0
 21 41  1  0
 22 51  1  0
 22 52  1  0
 23 42  1  0
 24 53  1  0
 24 54  1  0
 24 55  1  0
 25 56  1  0
 25 57  1  0
 26 58  1  0
 26 59  1  0
 28 60  1  0
 29 61  1  0
 31 62  1  0
M  END
>  <LF dG>
-7.363

>  <LF VSscore>
-13.572

>  <LF Rank Score>
-10.774

>  <LF LE>
-0.23

>  <LF Structure Name>
C:\Users\Odara\AppData\Local\Temp\LeadFinder_1860_1\Ligand_1.sdf

>  <LF SDF id>
0

>  <LF Pose rank>
0

>  <LF version>
2001 1, 19 January 2019

>  <PUBCHEM_COMPOUND_CID>
69634125

>  <PUBCHEM_COMPOUND_CANONICALIZED>
1

>  <PUBCHEM_CACTVS_COMPLEXITY>
581

>  <PUBCHEM_CACTVS_HBOND_ACCEPTOR>
12

>  <PUBCHEM_CACTVS_HBOND_DONOR>
8

>  <PUBCHEM_CACTVS_ROTATABLE_BOND>
7

>  <PUBCHEM_CACTVS_SUBSKEYS>
AAADceB4PAAAAAAAAAAAAAAAAAAAAAAAAAA0SIAAAAAAAAABAAAAGgAACAAADBSwmAMyDoAABgCAAiBCAAACAAAgIAAIiAAGiIgZNiKCERKicAElwBEPmAfA4LwOIAABAAAAQABAAAIAAACAAAAAAAAAAA==

>  <PUBCHEM_IUPAC_OPENEYE_NAME>
(2R,3R,4R,5R,6S)-2-[[(2R,3S,4S,5R,6R)-6-[2-(3,4-dihydroxyphenyl)ethoxy]-3,4,5-trihydroxy-tetrahydropyran-2-yl]methoxy]-6-methyl-tetrahydropyran-3,4,5-triol

>  <PUBCHEM_IUPAC_CAS_NAME>
(2R,3R,4R,5R,6S)-2-[[(2R,3S,4S,5R,6R)-6-[2-(3,4-dihydroxyphenyl)ethoxy]-3,4,5-trihydroxy-2-oxanyl]methoxy]-6-methyloxane-3,4,5-triol

>  <PUBCHEM_IUPAC_NAME_MARKUP>
(2<I>R</I>,3<I>R</I>,4<I>R</I>,5<I>R</I>,6<I>S</I>)-2-[[(2<I>R</I>,3<I>S</I>,4<I>S</I>,5<I>R</I>,6<I>R</I>)-6-[2-(3,4-dihydroxyphenyl)ethoxy]-3,4,5-trihydroxyoxan-2-yl]methoxy]-6-methyloxane-3,4,5-tri

>  <PUBCHEM_IUPAC_NAME>
(2R,3R,4R,5R,6S)-2-[[(2R,3S,4S,5R,6R)-6-[2-(3,4-dihydroxyphenyl)ethoxy]-3,4,5-trihydroxyoxan-2-yl]methoxy]-6-methyloxane-3,4,5-triol

>  <PUBCHEM_IUPAC_SYSTEMATIC_NAME>
(2R,3R,4R,5R,6S)-2-[[(2R,3S,4S,5R,6R)-6-[2-[3,4-bis(oxidanyl)phenyl]ethoxy]-3,4,5-tris(oxidanyl)oxan-2-yl]methoxy]-6-methyl-oxane-3,4,5-triol

>  <PUBCHEM_IUPAC_TRADITIONAL_NAME>
(2R,3R,4R,5R,6S)-2-[[(2R,3S,4S,5R,6R)-6-[2-(3,4-dihydroxyphenyl)ethoxy]-3,4,5-trihydroxy-tetrahydropyran-2-yl]methoxy]-6-methyl-tetrahydropyran-3,4,5-triol

>  <PUBCHEM_IUPAC_INCHI>
InChI=1S/C20H30O12/c1-8-13(23)15(25)17(27)20(31-8)30-7-12-14(24)16(26)18(28)19(32-12)29-5-4-9-2-3-10(21)11(22)6-9/h2-3,6,8,12-28H,4-5,7H2,1H3/t8-,12+,13-,14+,15+,16-,17+,18+,19+,20+/m0/s1

>  <PUBCHEM_IUPAC_INCHIKEY>
QIMGUQIHCNDUKU-OJJLXHDHSA-N

>  <PUBCHEM_XLOGP3_AA>
-2.5

>  <PUBCHEM_EXACT_MASS>
462.173726

>  <PUBCHEM_MOLECULAR_FORMULA>
C20H30O12

>  <PUBCHEM_MOLECULAR_WEIGHT>
462.4

>  <PUBCHEM_OPENEYE_CAN_SMILES>
CC1C(C(C(C(O1)OCC2C(C(C(C(O2)OCCC3=CC(=C(C=C3)O)O)O)O)O)O)O)O

>  <PUBCHEM_OPENEYE_ISO_SMILES>
C[C@H]1[C@@H]([C@H]([C@H]([C@@H](O1)OC[C@@H]2[C@H]([C@@H]([C@H]([C@@H](O2)OCCC3=CC(=C(C=C3)O)O)O)O)O)O)O)O

>  <PUBCHEM_CACTVS_TPSA>
199

>  <PUBCHEM_MONOISOTOPIC_WEIGHT>
462.173726

>  <PUBCHEM_TOTAL_CHARGE>
0

>  <PUBCHEM_HEAVY_ATOM_COUNT>
32

>  <PUBCHEM_ATOM_DEF_STEREO_COUNT>
10

>  <PUBCHEM_ATOM_UDEF_STEREO_COUNT>
0

>  <PUBCHEM_BOND_DEF_STEREO_COUNT>
0

>  <PUBCHEM_BOND_UDEF_STEREO_COUNT>
0

>  <PUBCHEM_ISOTOPIC_ATOM_COUNT>
0

>  <PUBCHEM_COMPONENT_COUNT>
1

>  <PUBCHEM_CACTVS_TAUTO_COUNT>
-1

>  <PUBCHEM_COORDINATE_TYPE>
1
5
255

>  <PUBCHEM_BONDANNOTATIONS>
20  10  5
13  22  5
18  2  5
23  24  6
27  28  8
27  29  8
28  30  8
29  31  8
30  32  8
31  32  8
14  4  6
21  5  5
15  6  5
16  7  6
17  8  6
19  9  6

>  <Favorite_cresset>
false

>  <MW_cresset>
462.4

>  <#Atoms_cresset>
32

>  <SlogP_cresset>
-0.4

>  <TPSA_cresset>
198.8

>  <Flexibility_cresset>
15.9

>  <#RB_cresset>
15

>  <Rof5_cresset>
2

>  <Filename_cresset>
drag.57_633.sdf

>  <Confs_cresset>
0

>  <Poses_cresset>
0

$$$$
W_Site3d_Lopinavir_D
  xed2sdf_05210316543D
 
 94 97  0  0  1  0  0  0  0  0999 V2000
  -50.3595   -5.2069   14.6482 O   0  0  0  0  0  0  0  0  0  0  0  0
  -49.7802   -9.4837   17.1950 O   0  0  0  0  0  0  0  0  0  0  0  0
  -47.6567  -11.8128   19.3547 O   0  0  0  0  0  0  0  0  0  0  0  0
  -51.0576   -1.5946   15.1654 O   0  0  0  0  0  0  0  0  0  0  0  0
  -50.3124    0.6577   17.0983 O   0  0  0  0  0  0  0  0  0  0  0  0
  -47.5622   -9.5559   19.3546 N   0  0  0  0  0  0  0  0  0  0  0  0
  -49.9600   -7.5668   18.4053 N   0  0  0  0  0  0  0  0  0  0  0  0
  -49.5885   -2.3875   16.7188 N   0  0  0  0  0  0  0  0  0  0  0  0
  -45.6501  -10.8779   19.0435 N   0  0  0  0  0  0  0  0  0  0  0  0
  -50.5503   -6.8068   17.2960 C   0  0  0  0  0  0  0  0  0  0  0  0
  -49.0265   -9.4425   19.4963 C   0  0  0  0  0  0  0  0  0  0  0  0
  -49.5207   -5.7308   16.8890 C   0  0  0  0  0  0  0  0  0  0  0  0
  -50.1088   -4.6569   15.9516 C   0  0  0  0  0  0  0  0  0  0  0  0
  -49.4658   -8.6818   20.7700 C   0  0  0  0  0  0  0  0  0  0  0  0
  -49.1145   -3.4808   15.8589 C   0  0  0  0  0  0  0  0  0  0  0  0
  -51.8826   -6.2240   17.8124 C   0  0  0  0  0  0  0  0  0  0  0  0
  -49.6233   -8.8546   18.2329 C   0  0  0  0  0  0  0  0  0  0  0  0
  -46.7690   -8.3148   19.3347 C   0  0  0  0  0  0  0  0  0  0  0  0
  -45.5764   -8.4866   18.3899 C   0  0  0  0  0  0  0  0  0  0  0  0
  -47.6886   -3.8877   16.2826 C   0  0  0  0  0  0  0  0  0  0  0  0
  -46.9836  -10.7810   19.2585 C   0  0  0  0  0  0  0  0  0  0  0  0
  -48.6810   -9.1707   21.9992 C   0  0  0  0  0  0  0  0  0  0  0  0
  -50.9602   -8.9137   21.0520 C   0  0  0  0  0  0  0  0  0  0  0  0
  -44.7868   -9.6937   18.9056 C   0  0  0  0  0  0  0  0  0  0  0  0
  -53.0505   -6.2576   16.8398 C   0  0  0  0  0  0  0  0  0  0  0  0
  -46.6419   -2.7965   16.1143 C   0  0  0  0  0  0  0  0  0  0  0  0
  -50.5558   -1.5673   16.2803 C   0  0  0  0  0  0  0  0  0  0  0  0
  -53.4690   -5.1054   16.2108 C   0  0  0  0  0  0  0  0  0  0  0  0
  -53.6937   -7.4471   16.5776 C   0  0  0  0  0  0  0  0  0  0  0  0
  -45.5460   -2.7498   16.9477 C   0  0  0  0  0  0  0  0  0  0  0  0
  -46.7831   -1.8489   15.1240 C   0  0  0  0  0  0  0  0  0  0  0  0
  -50.9963   -0.5883   17.3405 C   0  0  0  0  0  0  0  0  0  0  0  0
  -54.5237   -5.1416   15.3273 C   0  0  0  0  0  0  0  0  0  0  0  0
  -54.7484   -7.4852   15.6940 C   0  0  0  0  0  0  0  0  0  0  0  0
  -55.1637   -6.3319   15.0687 C   0  0  0  0  0  0  0  0  0  0  0  0
  -44.5983   -1.7642   16.7918 C   0  0  0  0  0  0  0  0  0  0  0  0
  -45.8363   -0.8628   14.9665 C   0  0  0  0  0  0  0  0  0  0  0  0
  -44.7430   -0.8205   15.8010 C   0  0  0  0  0  0  0  0  0  0  0  0
  -49.9233    1.3724   18.1630 C   0  0  0  0  0  0  0  0  0  0  0  0
  -48.6211    1.2447   18.6315 C   0  0  0  0  0  0  0  0  0  0  0  0
  -50.8006    2.2209   18.8317 C   0  0  0  0  0  0  0  0  0  0  0  0
  -48.2055    1.9632   19.7273 C   0  0  0  0  0  0  0  0  0  0  0  0
  -50.3668    2.9318   19.9264 C   0  0  0  0  0  0  0  0  0  0  0  0
  -47.5883    0.3365   17.9806 C   0  0  0  0  0  0  0  0  0  0  0  0
  -52.2573    2.4377   18.4511 C   0  0  0  0  0  0  0  0  0  0  0  0
  -49.0737    2.8081   20.3758 C   0  0  0  0  0  0  0  0  0  0  0  0
  -50.7522   -7.3543   16.4838 H   0  0  0  0  0  0  0  0  0  0  0  0
  -49.3891  -10.3664   19.6189 H   0  0  0  0  0  0  0  0  0  0  0  0
  -50.9802   -4.3328   16.3193 H   0  0  0  0  0  0  0  0  0  0  0  0
  -49.0707   -3.1877   14.9038 H   0  0  0  0  0  0  0  0  0  0  0  0
  -50.7822   -6.1175   14.7062 H   0  0  0  0  0  0  0  0  0  0  0  0
  -49.8422   -7.1793   19.1881 H   0  0  0  0  0  0  0  0  0  0  0  0
  -49.2529   -2.2903   17.5270 H   0  0  0  0  0  0  0  0  0  0  0  0
  -45.2860  -11.6784   18.9967 H   0  0  0  0  0  0  0  0  0  0  0  0
  -48.7564   -6.1785   16.4246 H   0  0  0  0  0  0  0  0  0  0  0  0
  -49.2270   -5.2672   17.7250 H   0  0  0  0  0  0  0  0  0  0  0  0
  -49.2865   -7.7112   20.6090 H   0  0  0  0  0  0  0  0  0  0  0  0
  -51.7218   -5.2705   18.0675 H   0  0  0  0  0  0  0  0  0  0  0  0
  -52.1539   -6.8111   18.5749 H   0  0  0  0  0  0  0  0  0  0  0  0
  -46.4404   -8.1126   20.2572 H   0  0  0  0  0  0  0  0  0  0  0  0
  -47.3405   -7.5592   19.0143 H   0  0  0  0  0  0  0  0  0  0  0  0
  -45.0046   -7.6663   18.3994 H   0  0  0  0  0  0  0  0  0  0  0  0
  -45.8784   -8.6280   17.4472 H   0  0  0  0  0  0  0  0  0  0  0  0
  -47.4115   -4.6762   15.7333 H   0  0  0  0  0  0  0  0  0  0  0  0
  -47.7305   -4.0896   17.2612 H   0  0  0  0  0  0  0  0  0  0  0  0
  -49.3256   -9.5183   22.6799 H   0  0  0  0  0  0  0  0  0  0  0  0
  -48.0502   -9.8984   21.7296 H   0  0  0  0  0  0  0  0  0  0  0  0
  -48.1562   -8.4126   22.3869 H   0  0  0  0  0  0  0  0  0  0  0  0
  -51.0606   -9.3228   21.9591 H   0  0  0  0  0  0  0  0  0  0  0  0
  -51.4493   -8.0420   21.0198 H   0  0  0  0  0  0  0  0  0  0  0  0
  -51.3419   -9.5267   20.3607 H   0  0  0  0  0  0  0  0  0  0  0  0
  -44.0475   -9.9005   18.2645 H   0  0  0  0  0  0  0  0  0  0  0  0
  -44.4165   -9.4661   19.8062 H   0  0  0  0  0  0  0  0  0  0  0  0
  -53.0047   -4.2394   16.3971 H   0  0  0  0  0  0  0  0  0  0  0  0
  -53.3933   -8.2862   17.0310 H   0  0  0  0  0  0  0  0  0  0  0  0
  -45.4389   -3.4343   17.6687 H   0  0  0  0  0  0  0  0  0  0  0  0
  -47.5770   -1.8780   14.5168 H   0  0  0  0  0  0  0  0  0  0  0  0
  -51.9854   -0.4510   17.2909 H   0  0  0  0  0  0  0  0  0  0  0  0
  -50.7753   -0.9375   18.2512 H   0  0  0  0  0  0  0  0  0  0  0  0
  -54.8246   -4.3031   14.8733 H   0  0  0  0  0  0  0  0  0  0  0  0
  -55.2127   -8.3507   15.5067 H   0  0  0  0  0  0  0  0  0  0  0  0
  -55.9301   -6.3590   14.4269 H   0  0  0  0  0  0  0  0  0  0  0  0
  -43.8041   -1.7337   17.3987 H   0  0  0  0  0  0  0  0  0  0  0  0
  -45.9426   -0.1775   14.2460 H   0  0  0  0  0  0  0  0  0  0  0  0
  -44.0543   -0.1045   15.6873 H   0  0  0  0  0  0  0  0  0  0  0  0
  -47.2650    1.8705   20.0547 H   0  0  0  0  0  0  0  0  0  0  0  0
  -50.9988    3.5454   20.3999 H   0  0  0  0  0  0  0  0  0  0  0  0
  -46.7262    0.4122   18.4817 H   0  0  0  0  0  0  0  0  0  0  0  0
  -47.9089   -0.6106   18.0032 H   0  0  0  0  0  0  0  0  0  0  0  0
  -47.4509    0.6109   17.0290 H   0  0  0  0  0  0  0  0  0  0  0  0
  -52.6676    3.0884   19.0899 H   0  0  0  0  0  0  0  0  0  0  0  0
  -52.3133    2.7989   17.5202 H   0  0  0  0  0  0  0  0  0  0  0  0
  -52.7491    1.5679   18.4927 H   0  0  0  0  0  0  0  0  0  0  0  0
  -48.7664    3.3306   21.1713 H   0  0  0  0  0  0  0  0  0  0  0  0
  2 17  2  0
  3 21  2  0
  4 27  2  0
  5 32  1  0
  5 39  1  0
  6 11  1  0
  6 18  1  0
  6 21  1  0
  7 17  1  0
  8 27  1  0
  9 21  1  0
  9 24  1  0
 10  7  1  0
 10 12  1  0
 10 16  1  0
 11 14  1  0
 11 17  1  0
 12 13  1  0
 13  1  1  0
 13 15  1  0
 14 22  1  0
 14 23  1  0
 15  8  1  0
 15 20  1  0
 16 25  1  0
 18 19  1  0
 19 24  1  0
 20 26  1  0
 25 28  2  0
 25 29  1  0
 26 30  2  0
 26 31  1  0
 27 32  1  0
 28 33  1  0
 29 34  2  0
 30 36  1  0
 31 37  2  0
 33 35  2  0
 34 35  1  0
 36 38  2  0
 37 38  1  0
 39 40  2  0
 39 41  1  0
 40 42  1  0
 40 44  1  0
 41 43  2  0
 41 45  1  0
 42 46  2  0
 43 46  1  0
  1 51  1  0
  7 52  1  0
  8 53  1  0
  9 54  1  0
 10 47  1  0
 11 48  1  0
 12 55  1  0
 12 56  1  0
 13 49  1  0
 14 57  1  0
 15 50  1  0
 16 58  1  0
 16 59  1  0
 18 60  1  0
 18 61  1  0
 19 62  1  0
 19 63  1  0
 20 64  1  0
 20 65  1  0
 22 66  1  0
 22 67  1  0
 22 68  1  0
 23 69  1  0
 23 70  1  0
 23 71  1  0
 24 72  1  0
 24 73  1  0
 28 74  1  0
 29 75  1  0
 30 76  1  0
 31 77  1  0
 32 78  1  0
 32 79  1  0
 33 80  1  0
 34 81  1  0
 35 82  1  0
 36 83  1  0
 37 84  1  0
 38 85  1  0
 42 86  1  0
 43 87  1  0
 44 88  1  0
 44 89  1  0
 44 90  1  0
 45 91  1  0
 45 92  1  0
 45 93  1  0
 46 94  1  0
M  END
>  <LF dG>
-9.137

>  <LF VSscore>
-11.504

>  <LF Rank Score>
-12.69

>  <LF LE>
-0.199

>  <LF Structure Name>
C:\Users\Odara\AppData\Local\Temp\LeadFinder_8288_1\Ligand_1.sdf

>  <LF SDF id>
0

>  <LF Pose rank>
0

>  <LF version>
2001 1, 19 January 2019

>  <PUBCHEM_COMPOUND_CID>
92727

>  <PUBCHEM_COMPOUND_CANONICALIZED>
1

>  <PUBCHEM_CACTVS_COMPLEXITY>
940

>  <PUBCHEM_CACTVS_HBOND_ACCEPTOR>
5

>  <PUBCHEM_CACTVS_HBOND_DONOR>
4

>  <PUBCHEM_CACTVS_ROTATABLE_BOND>
15

>  <PUBCHEM_CACTVS_SUBSKEYS>
AAADcfB/uAAAAAAAAAAAAAAAAAAAAAAAAAA8YMEAAAAAAAABUAAAHgAQCAAADTzhmAYzBoPABgCIAiFSEAICCAAgIAAIiIHMCIiOdjKE8T+XeCCu1hOYqAeQwPAOAAACAAAIAAAAAAQAABAAAAAAAAAAAA==

>  <PUBCHEM_IUPAC_OPENEYE_NAME>
(2S)-N-[(1S,3S,4S)-1-benzyl-4-[[2-(2,6-dimethylphenoxy)acetyl]amino]-3-hydroxy-5-phenyl-pentyl]-3-methyl-2-(2-oxohexahydropyrimidin-1-yl)butanamide

>  <PUBCHEM_IUPAC_CAS_NAME>
(2S)-N-[(2S,4S,5S)-5-[[2-(2,6-dimethylphenoxy)-1-oxoethyl]amino]-4-hydroxy-1,6-diphenylhexan-2-yl]-3-methyl-2-(2-oxo-1,3-diazinan-1-yl)butanamide

>  <PUBCHEM_IUPAC_NAME_MARKUP>
(2<I>S</I>)-<I>N</I>-[(2<I>S</I>,4<I>S</I>,5<I>S</I>)-5-[[2-(2,6-dimethylphenoxy)acetyl]amino]-4-hydroxy-1,6-diphenylhexan-2-yl]-3-methyl-2-(2-oxo-1,3-diazinan-1-yl)butanamide

>  <PUBCHEM_IUPAC_NAME>
(2S)-N-[(2S,4S,5S)-5-[[2-(2,6-dimethylphenoxy)acetyl]amino]-4-hydroxy-1,6-diphenylhexan-2-yl]-3-methyl-2-(2-oxo-1,3-diazinan-1-yl)butanamide

>  <PUBCHEM_IUPAC_SYSTEMATIC_NAME>
(2S)-N-[(2S,4S,5S)-5-[2-(2,6-dimethylphenoxy)ethanoylamino]-4-oxidanyl-1,6-diphenyl-hexan-2-yl]-3-methyl-2-(2-oxidanylidene-1,3-diazinan-1-yl)butanamide

>  <PUBCHEM_IUPAC_TRADITIONAL_NAME>
(2S)-N-[(1S,3S,4S)-1-benzyl-4-[[2-(2,6-dimethylphenoxy)acetyl]amino]-3-hydroxy-5-phenyl-pentyl]-2-(2-ketohexahydropyrimidin-1-yl)-3-methyl-butyramide

>  <PUBCHEM_IUPAC_INCHI>
InChI=1S/C37H48N4O5/c1-25(2)34(41-20-12-19-38-37(41)45)36(44)39-30(21-28-15-7-5-8-16-28)23-32(42)31(22-29-17-9-6-10-18-29)40-33(43)24-46-35-26(3)13-11-14-27(35)4/h5-11,13-18,25,30-32,34,42H,12,19-24H2

>  <PUBCHEM_IUPAC_INCHIKEY>
KJHKTHWMRKYKJE-SUGCFTRWSA-N

>  <PUBCHEM_XLOGP3_AA>
5.9

>  <PUBCHEM_EXACT_MASS>
628.362471

>  <PUBCHEM_MOLECULAR_FORMULA>
C37H48N4O5

>  <PUBCHEM_MOLECULAR_WEIGHT>
628.8

>  <PUBCHEM_OPENEYE_CAN_SMILES>
CC1=C(C(=CC=C1)C)OCC(=O)NC(CC2=CC=CC=C2)C(CC(CC3=CC=CC=C3)NC(=O)C(C(C)C)N4CCCNC4=O)O

>  <PUBCHEM_OPENEYE_ISO_SMILES>
CC1=C(C(=CC=C1)C)OCC(=O)N[C@@H](CC2=CC=CC=C2)[C@H](C[C@H](CC3=CC=CC=C3)NC(=O)[C@H](C(C)C)N4CCCNC4=O)O

>  <PUBCHEM_CACTVS_TPSA>
120

>  <PUBCHEM_MONOISOTOPIC_WEIGHT>
628.362471

>  <PUBCHEM_TOTAL_CHARGE>
0

>  <PUBCHEM_HEAVY_ATOM_COUNT>
46

>  <PUBCHEM_ATOM_DEF_STEREO_COUNT>
4

>  <PUBCHEM_ATOM_UDEF_STEREO_COUNT>
0

>  <PUBCHEM_BOND_DEF_STEREO_COUNT>
0

>  <PUBCHEM_BOND_UDEF_STEREO_COUNT>
0

>  <PUBCHEM_ISOTOPIC_ATOM_COUNT>
0

>  <PUBCHEM_COMPONENT_COUNT>
1

>  <PUBCHEM_CACTVS_TAUTO_COUNT>
-1

>  <PUBCHEM_COORDINATE_TYPE>
1
5
255

>  <PUBCHEM_BONDANNOTATIONS>
13  1  6
11  17  5
25  28  8
25  29  8
26  30  8
26  31  8
28  33  8
29  34  8
30  36  8
31  37  8
33  35  8
34  35  8
36  38  8
37  38  8
39  40  8
39  41  8
40  42  8
41  43  8
42  46  8
43  46  8
10  7  6
15  8  5

>  <Favorite_cresset>
false

>  <MW_cresset>
628.8

>  <#Atoms_cresset>
46

>  <SlogP_cresset>
4.7

>  <TPSA_cresset>
120

>  <Flexibility_cresset>
16.1

>  <#RB_cresset>
16

>  <Rof5_cresset>
1

>  <Filename_cresset>
drag.25_153.sdf

>  <Confs_cresset>
0

>  <Poses_cresset>
0

$$$$
Site3d_Lopinavir_D
  xed2sdf_05210316543D
 
 94 97  0  0  1  0  0  0  0  0999 V2000
  -48.0105   -4.1502   16.2010 O   0  0  0  0  0  0  0  0  0  0  0  0
  -49.7713   -9.3701   17.1708 O   0  0  0  0  0  0  0  0  0  0  0  0
  -48.0626  -12.2215   19.2272 O   0  0  0  0  0  0  0  0  0  0  0  0
  -52.6263   -2.4588   16.7249 O   0  0  0  0  0  0  0  0  0  0  0  0
  -50.5974    0.0318   17.3227 O   0  0  0  0  0  0  0  0  0  0  0  0
  -47.7276   -9.9918   19.3645 N   0  0  0  0  0  0  0  0  0  0  0  0
  -49.9464   -7.6583   18.6575 N   0  0  0  0  0  0  0  0  0  0  0  0
  -50.3711   -2.7944   16.7561 N   0  0  0  0  0  0  0  0  0  0  0  0
  -45.9613  -11.4921   19.0038 N   0  0  0  0  0  0  0  0  0  0  0  0
  -50.4254   -6.7034   17.6498 C   0  0  0  0  0  0  0  0  0  0  0  0
  -49.1741   -9.7295   19.4903 C   0  0  0  0  0  0  0  0  0  0  0  0
  -49.4377   -5.5169   17.6481 C   0  0  0  0  0  0  0  0  0  0  0  0
  -49.2322   -4.9049   16.2479 C   0  0  0  0  0  0  0  0  0  0  0  0
  -49.5700   -9.0923   20.8436 C   0  0  0  0  0  0  0  0  0  0  0  0
  -50.4381   -4.0006   15.9193 C   0  0  0  0  0  0  0  0  0  0  0  0
  -51.8625   -6.3112   18.0530 C   0  0  0  0  0  0  0  0  0  0  0  0
  -49.6570   -8.9200   18.3030 C   0  0  0  0  0  0  0  0  0  0  0  0
  -46.8061   -8.8445   19.4317 C   0  0  0  0  0  0  0  0  0  0  0  0
  -45.6184   -9.0886   18.4968 C   0  0  0  0  0  0  0  0  0  0  0  0
  -50.4743   -3.5941   14.4320 C   0  0  0  0  0  0  0  0  0  0  0  0
  -47.2812  -11.2645   19.2038 C   0  0  0  0  0  0  0  0  0  0  0  0
  -48.8611   -9.7995   22.0112 C   0  0  0  0  0  0  0  0  0  0  0  0
  -51.0854   -9.2157   21.0784 C   0  0  0  0  0  0  0  0  0  0  0  0
  -44.9735  -10.4020   18.9509 C   0  0  0  0  0  0  0  0  0  0  0  0
  -52.9254   -6.4626   16.9768 C   0  0  0  0  0  0  0  0  0  0  0  0
  -49.8832   -2.2240   14.1351 C   0  0  0  0  0  0  0  0  0  0  0  0
  -51.5021   -2.1620   17.1042 C   0  0  0  0  0  0  0  0  0  0  0  0
  -53.3360   -5.3716   16.2423 C   0  0  0  0  0  0  0  0  0  0  0  0
  -53.4801   -7.6983   16.7264 C   0  0  0  0  0  0  0  0  0  0  0  0
  -50.7088   -1.1417   13.9235 C   0  0  0  0  0  0  0  0  0  0  0  0
  -48.5165   -2.0572   14.0789 C   0  0  0  0  0  0  0  0  0  0  0  0
  -51.2468   -1.0233   18.0604 C   0  0  0  0  0  0  0  0  0  0  0  0
  -54.2952   -5.5144   15.2657 C   0  0  0  0  0  0  0  0  0  0  0  0
  -54.4391   -7.8430   15.7498 C   0  0  0  0  0  0  0  0  0  0  0  0
  -54.8470   -6.7507   15.0192 C   0  0  0  0  0  0  0  0  0  0  0  0
  -50.1727    0.0978   13.6590 C   0  0  0  0  0  0  0  0  0  0  0  0
  -47.9788   -0.8185   13.8144 C   0  0  0  0  0  0  0  0  0  0  0  0
  -48.8073    0.2599   13.6046 C   0  0  0  0  0  0  0  0  0  0  0  0
  -49.8333    0.8929   18.0086 C   0  0  0  0  0  0  0  0  0  0  0  0
  -48.4670    0.6606   18.1110 C   0  0  0  0  0  0  0  0  0  0  0  0
  -50.3787    2.0024   18.6477 C   0  0  0  0  0  0  0  0  0  0  0  0
  -47.6677    1.5280   18.8171 C   0  0  0  0  0  0  0  0  0  0  0  0
  -49.5634    2.8593   19.3497 C   0  0  0  0  0  0  0  0  0  0  0  0
  -47.7743   -0.5279   17.4608 C   0  0  0  0  0  0  0  0  0  0  0  0
  -51.8559    2.3653   18.6462 C   0  0  0  0  0  0  0  0  0  0  0  0
  -48.2111    2.6282   19.4359 C   0  0  0  0  0  0  0  0  0  0  0  0
  -50.4597   -7.0694   16.7197 H   0  0  0  0  0  0  0  0  0  0  0  0
  -49.6417  -10.6135   19.4834 H   0  0  0  0  0  0  0  0  0  0  0  0
  -49.1657   -5.6368   15.5693 H   0  0  0  0  0  0  0  0  0  0  0  0
  -51.2728   -4.5178   16.1083 H   0  0  0  0  0  0  0  0  0  0  0  0
  -47.5018   -4.3229   15.3506 H   0  0  0  0  0  0  0  0  0  0  0  0
  -49.8647   -7.4045   19.4976 H   0  0  0  0  0  0  0  0  0  0  0  0
  -49.5908   -2.5061   17.0451 H   0  0  0  0  0  0  0  0  0  0  0  0
  -45.6839  -12.3232   18.9145 H   0  0  0  0  0  0  0  0  0  0  0  0
  -48.5543   -5.8353   17.9920 H   0  0  0  0  0  0  0  0  0  0  0  0
  -49.8273   -4.8032   18.2303 H   0  0  0  0  0  0  0  0  0  0  0  0
  -49.2988   -8.1305   20.8059 H   0  0  0  0  0  0  0  0  0  0  0  0
  -51.8497   -5.3534   18.3405 H   0  0  0  0  0  0  0  0  0  0  0  0
  -52.1219   -6.9516   18.7758 H   0  0  0  0  0  0  0  0  0  0  0  0
  -46.4780   -8.7331   20.3697 H   0  0  0  0  0  0  0  0  0  0  0  0
  -47.2865   -8.0143   19.1486 H   0  0  0  0  0  0  0  0  0  0  0  0
  -44.9625   -8.3368   18.5645 H   0  0  0  0  0  0  0  0  0  0  0  0
  -45.9132   -9.1416   17.5428 H   0  0  0  0  0  0  0  0  0  0  0  0
  -51.4271   -3.5976   14.1292 H   0  0  0  0  0  0  0  0  0  0  0  0
  -49.9072   -4.2574   13.9435 H   0  0  0  0  0  0  0  0  0  0  0  0
  -49.5501  -10.1657   22.6365 H   0  0  0  0  0  0  0  0  0  0  0  0
  -48.2941  -10.5448   21.6604 H   0  0  0  0  0  0  0  0  0  0  0  0
  -48.2779   -9.1471   22.4955 H   0  0  0  0  0  0  0  0  0  0  0  0
  -51.2432   -9.7214   21.9267 H   0  0  0  0  0  0  0  0  0  0  0  0
  -51.4915   -8.3046   21.1491 H   0  0  0  0  0  0  0  0  0  0  0  0
  -51.5064   -9.7009   20.3124 H   0  0  0  0  0  0  0  0  0  0  0  0
  -44.2469  -10.6497   18.3099 H   0  0  0  0  0  0  0  0  0  0  0  0
  -44.6009  -10.2684   19.8692 H   0  0  0  0  0  0  0  0  0  0  0  0
  -52.9357   -4.4724   16.4196 H   0  0  0  0  0  0  0  0  0  0  0  0
  -53.1850   -8.4933   17.2563 H   0  0  0  0  0  0  0  0  0  0  0  0
  -51.7015   -1.2571   13.9626 H   0  0  0  0  0  0  0  0  0  0  0  0
  -47.9127   -2.8399   14.2307 H   0  0  0  0  0  0  0  0  0  0  0  0
  -52.1109   -0.6937   18.4399 H   0  0  0  0  0  0  0  0  0  0  0  0
  -50.6692   -1.3271   18.8183 H   0  0  0  0  0  0  0  0  0  0  0  0
  -54.5907   -4.7201   14.7351 H   0  0  0  0  0  0  0  0  0  0  0  0
  -54.8394   -8.7418   15.5714 H   0  0  0  0  0  0  0  0  0  0  0  0
  -55.5439   -6.8552   14.3097 H   0  0  0  0  0  0  0  0  0  0  0  0
  -50.7755    0.8811   13.5063 H   0  0  0  0  0  0  0  0  0  0  0  0
  -46.9864   -0.7019   13.7747 H   0  0  0  0  0  0  0  0  0  0  0  0
  -48.4175    1.1604   13.4125 H   0  0  0  0  0  0  0  0  0  0  0  0
  -46.6843    1.3575   18.8811 H   0  0  0  0  0  0  0  0  0  0  0  0
  -49.9586    3.6589   19.8018 H   0  0  0  0  0  0  0  0  0  0  0  0
  -46.7957   -0.4848   17.6625 H   0  0  0  0  0  0  0  0  0  0  0  0
  -48.1551   -1.3795   17.8208 H   0  0  0  0  0  0  0  0  0  0  0  0
  -47.9165   -0.5005   16.4714 H   0  0  0  0  0  0  0  0  0  0  0  0
  -51.9865    3.2013   19.1792 H   0  0  0  0  0  0  0  0  0  0  0  0
  -52.1669    2.5127   17.7072 H   0  0  0  0  0  0  0  0  0  0  0  0
  -52.3858    1.6203   19.0513 H   0  0  0  0  0  0  0  0  0  0  0  0
  -47.6256    3.2578   19.9467 H   0  0  0  0  0  0  0  0  0  0  0  0
  2 17  2  0
  3 21  2  0
  4 27  2  0
  5 32  1  0
  5 39  1  0
  6 11  1  0
  6 18  1  0
  6 21  1  0
  7 17  1  0
  8 27  1  0
  9 21  1  0
  9 24  1  0
 10  7  1  0
 10 12  1  0
 10 16  1  0
 11 14  1  0
 11 17  1  0
 12 13  1  0
 13  1  1  0
 13 15  1  0
 14 22  1  0
 14 23  1  0
 15  8  1  0
 15 20  1  0
 16 25  1  0
 18 19  1  0
 19 24  1  0
 20 26  1  0
 25 28  2  0
 25 29  1  0
 26 30  2  0
 26 31  1  0
 27 32  1  0
 28 33  1  0
 29 34  2  0
 30 36  1  0
 31 37  2  0
 33 35  2  0
 34 35  1  0
 36 38  2  0
 37 38  1  0
 39 40  2  0
 39 41  1  0
 40 42  1  0
 40 44  1  0
 41 43  2  0
 41 45  1  0
 42 46  2  0
 43 46  1  0
  1 51  1  0
  7 52  1  0
  8 53  1  0
  9 54  1  0
 10 47  1  0
 11 48  1  0
 12 55  1  0
 12 56  1  0
 13 49  1  0
 14 57  1  0
 15 50  1  0
 16 58  1  0
 16 59  1  0
 18 60  1  0
 18 61  1  0
 19 62  1  0
 19 63  1  0
 20 64  1  0
 20 65  1  0
 22 66  1  0
 22 67  1  0
 22 68  1  0
 23 69  1  0
 23 70  1  0
 23 71  1  0
 24 72  1  0
 24 73  1  0
 28 74  1  0
 29 75  1  0
 30 76  1  0
 31 77  1  0
 32 78  1  0
 32 79  1  0
 33 80  1  0
 34 81  1  0
 35 82  1  0
 36 83  1  0
 37 84  1  0
 38 85  1  0
 42 86  1  0
 43 87  1  0
 44 88  1  0
 44 89  1  0
 44 90  1  0
 45 91  1  0
 45 92  1  0
 45 93  1  0
 46 94  1  0
M  END
>  <LF dG>
-7.514

>  <LF VSscore>
-10.518

>  <LF Rank Score>
-11.814

>  <LF LE>
-0.163

>  <LF Structure Name>
C:\Users\Odara\AppData\Local\Temp\LeadFinder_6276_1\Ligand_1.sdf

>  <LF SDF id>
0

>  <LF Pose rank>
0

>  <LF version>
2001 1, 19 January 2019

>  <PUBCHEM_COMPOUND_CID>
92727

>  <PUBCHEM_COMPOUND_CANONICALIZED>
1

>  <PUBCHEM_CACTVS_COMPLEXITY>
940

>  <PUBCHEM_CACTVS_HBOND_ACCEPTOR>
5

>  <PUBCHEM_CACTVS_HBOND_DONOR>
4

>  <PUBCHEM_CACTVS_ROTATABLE_BOND>
15

>  <PUBCHEM_CACTVS_SUBSKEYS>
AAADcfB/uAAAAAAAAAAAAAAAAAAAAAAAAAA8YMEAAAAAAAABUAAAHgAQCAAADTzhmAYzBoPABgCIAiFSEAICCAAgIAAIiIHMCIiOdjKE8T+XeCCu1hOYqAeQwPAOAAACAAAIAAAAAAQAABAAAAAAAAAAAA==

>  <PUBCHEM_IUPAC_OPENEYE_NAME>
(2S)-N-[(1S,3S,4S)-1-benzyl-4-[[2-(2,6-dimethylphenoxy)acetyl]amino]-3-hydroxy-5-phenyl-pentyl]-3-methyl-2-(2-oxohexahydropyrimidin-1-yl)butanamide

>  <PUBCHEM_IUPAC_CAS_NAME>
(2S)-N-[(2S,4S,5S)-5-[[2-(2,6-dimethylphenoxy)-1-oxoethyl]amino]-4-hydroxy-1,6-diphenylhexan-2-yl]-3-methyl-2-(2-oxo-1,3-diazinan-1-yl)butanamide

>  <PUBCHEM_IUPAC_NAME_MARKUP>
(2<I>S</I>)-<I>N</I>-[(2<I>S</I>,4<I>S</I>,5<I>S</I>)-5-[[2-(2,6-dimethylphenoxy)acetyl]amino]-4-hydroxy-1,6-diphenylhexan-2-yl]-3-methyl-2-(2-oxo-1,3-diazinan-1-yl)butanamide

>  <PUBCHEM_IUPAC_NAME>
(2S)-N-[(2S,4S,5S)-5-[[2-(2,6-dimethylphenoxy)acetyl]amino]-4-hydroxy-1,6-diphenylhexan-2-yl]-3-methyl-2-(2-oxo-1,3-diazinan-1-yl)butanamide

>  <PUBCHEM_IUPAC_SYSTEMATIC_NAME>
(2S)-N-[(2S,4S,5S)-5-[2-(2,6-dimethylphenoxy)ethanoylamino]-4-oxidanyl-1,6-diphenyl-hexan-2-yl]-3-methyl-2-(2-oxidanylidene-1,3-diazinan-1-yl)butanamide

>  <PUBCHEM_IUPAC_TRADITIONAL_NAME>
(2S)-N-[(1S,3S,4S)-1-benzyl-4-[[2-(2,6-dimethylphenoxy)acetyl]amino]-3-hydroxy-5-phenyl-pentyl]-2-(2-ketohexahydropyrimidin-1-yl)-3-methyl-butyramide

>  <PUBCHEM_IUPAC_INCHI>
InChI=1S/C37H48N4O5/c1-25(2)34(41-20-12-19-38-37(41)45)36(44)39-30(21-28-15-7-5-8-16-28)23-32(42)31(22-29-17-9-6-10-18-29)40-33(43)24-46-35-26(3)13-11-14-27(35)4/h5-11,13-18,25,30-32,34,42H,12,19-24H2

>  <PUBCHEM_IUPAC_INCHIKEY>
KJHKTHWMRKYKJE-SUGCFTRWSA-N

>  <PUBCHEM_XLOGP3_AA>
5.9

>  <PUBCHEM_EXACT_MASS>
628.362471

>  <PUBCHEM_MOLECULAR_FORMULA>
C37H48N4O5

>  <PUBCHEM_MOLECULAR_WEIGHT>
628.8

>  <PUBCHEM_OPENEYE_CAN_SMILES>
CC1=C(C(=CC=C1)C)OCC(=O)NC(CC2=CC=CC=C2)C(CC(CC3=CC=CC=C3)NC(=O)C(C(C)C)N4CCCNC4=O)O

>  <PUBCHEM_OPENEYE_ISO_SMILES>
CC1=C(C(=CC=C1)C)OCC(=O)N[C@@H](CC2=CC=CC=C2)[C@H](C[C@H](CC3=CC=CC=C3)NC(=O)[C@H](C(C)C)N4CCCNC4=O)O

>  <PUBCHEM_CACTVS_TPSA>
120

>  <PUBCHEM_MONOISOTOPIC_WEIGHT>
628.362471

>  <PUBCHEM_TOTAL_CHARGE>
0

>  <PUBCHEM_HEAVY_ATOM_COUNT>
46

>  <PUBCHEM_ATOM_DEF_STEREO_COUNT>
4

>  <PUBCHEM_ATOM_UDEF_STEREO_COUNT>
0

>  <PUBCHEM_BOND_DEF_STEREO_COUNT>
0

>  <PUBCHEM_BOND_UDEF_STEREO_COUNT>
0

>  <PUBCHEM_ISOTOPIC_ATOM_COUNT>
0

>  <PUBCHEM_COMPONENT_COUNT>
1

>  <PUBCHEM_CACTVS_TAUTO_COUNT>
-1

>  <PUBCHEM_COORDINATE_TYPE>
1
5
255

>  <PUBCHEM_BONDANNOTATIONS>
13  1  6
11  17  5
25  28  8
25  29  8
26  30  8
26  31  8
28  33  8
29  34  8
30  36  8
31  37  8
33  35  8
34  35  8
36  38  8
37  38  8
39  40  8
39  41  8
40  42  8
41  43  8
42  46  8
43  46  8
10  7  6
15  8  5

>  <Favorite_cresset>
false

>  <MW_cresset>
628.8

>  <#Atoms_cresset>
46

>  <SlogP_cresset>
4.7

>  <TPSA_cresset>
120

>  <Flexibility_cresset>
16.1

>  <#RB_cresset>
16

>  <Rof5_cresset>
1

>  <Filename_cresset>
drag.31_400.sdf

>  <Confs_cresset>
0

>  <Poses_cresset>
0

$$$$
W_Site3d_DAR_D
  xed2sdf_05210316543D
 
 82 86  0  0  1  0  0  0  0  0999 V2000
  -45.8130  -14.4072   18.2564 O   0  0  0  0  0  0  0  0  0  0  0  0
  -46.3922  -13.5001   18.8283 C   0  0  0  0  0  0  0  0  0  0  0  0
  -47.7208  -13.7139   19.5159 C   0  0  0  0  0  0  0  0  0  0  0  0
  -48.6144  -12.4784   19.3943 C   0  0  0  0  0  0  0  0  0  0  0  0
  -47.8359  -11.3371   20.0548 C   0  0  0  0  0  0  0  0  0  0  0  0
  -48.6642  -10.1246   19.9764 N   0  0  0  0  0  0  0  0  0  0  0  0
  -48.7695   -9.3103   18.7537 C   0  0  0  0  0  0  0  0  0  0  0  0
  -50.1264   -8.6969   19.1457 C   0  0  0  0  0  0  0  0  0  0  0  0
  -50.7500   -7.5236   18.4214 C   0  0  0  0  0  0  0  0  0  0  0  0
  -50.2592   -7.3199   17.1647 N   0  0  0  0  0  0  0  0  0  0  0  0
  -49.6580   -6.0230   16.8258 C   0  0  0  0  0  0  0  0  0  0  0  0
  -50.7167   -5.0936   16.2054 C   0  0  0  0  0  0  0  0  0  0  0  0
  -50.2161   -3.6390   16.2186 C   0  0  0  0  0  0  0  0  0  0  0  0
  -49.2257   -3.3984   15.0652 C   0  0  0  0  0  0  0  0  0  0  0  0
  -49.8603   -2.4279   14.0546 C   0  0  0  0  0  0  0  0  0  0  0  0
  -49.7140   -0.9603   14.4953 C   0  0  0  0  0  0  0  0  0  0  0  0
  -48.4770   -0.9445   15.2897 N   0  0  0  0  0  0  0  0  0  0  0  0
  -47.3305   -0.4999   14.7342 C   0  0  0  0  0  0  0  0  0  0  0  0
  -47.2742    0.0773   13.6501 O   0  0  0  0  0  0  0  0  0  0  0  0
  -46.0424   -0.7810   15.4104 C   0  0  0  0  0  0  0  0  0  0  0  0
  -45.0587   -1.4402   14.7032 C   0  0  0  0  0  0  0  0  0  0  0  0
  -43.8681   -1.7547   15.3045 C   0  0  0  0  0  0  0  0  0  0  0  0
  -43.5758   -1.4539   16.5848 N   0  0  0  0  0  0  0  0  0  0  0  0
  -44.5360   -0.7976   17.2582 C   0  0  0  0  0  0  0  0  0  0  0  0
  -45.7627   -0.4379   16.7267 C   0  0  0  0  0  0  0  0  0  0  0  0
  -46.6783    0.2945   17.4928 N   0  0  0  0  0  0  0  0  0  0  0  0
  -47.2385   -0.1110   18.6500 C   0  0  0  0  0  0  0  0  0  0  0  0
  -47.2083   -1.2534   19.0820 O   0  0  0  0  0  0  0  0  0  0  0  0
  -47.8849    1.0171   19.4256 C   0  0  0  0  0  0  0  0  0  0  0  0
  -49.3541    1.2408   19.1142 C   0  0  0  0  0  0  0  0  0  0  0  0
  -49.8568    2.5148   18.9662 C   0  0  0  0  0  0  0  0  0  0  0  0
  -51.1860    2.7029   18.6608 C   0  0  0  0  0  0  0  0  0  0  0  0
  -52.0163    1.6176   18.5000 C   0  0  0  0  0  0  0  0  0  0  0  0
  -51.5166    0.3426   18.6464 C   0  0  0  0  0  0  0  0  0  0  0  0
  -52.5595   -1.0330   18.4366 Cl  0  0  0  0  0  0  0  0  0  0  0  0
  -50.1877    0.1567   18.9548 C   0  0  0  0  0  0  0  0  0  0  0  0
  -51.6999   -6.8029   19.0403 C   0  0  0  0  0  0  0  0  0  0  0  0
  -52.1020   -7.1472   20.4049 C   0  0  0  0  0  0  0  0  0  0  0  0
  -51.2909   -7.8813   21.1642 C   0  0  0  0  0  0  0  0  0  0  0  0
  -49.9676   -8.3668   20.6325 C   0  0  0  0  0  0  0  0  0  0  0  0
  -49.3477   -9.6716   21.0383 C   0  0  0  0  0  0  0  0  0  0  0  0
  -49.4449  -10.2116   22.1312 O   0  0  0  0  0  0  0  0  0  0  0  0
  -46.4699  -11.1358   19.4323 C   0  0  0  0  0  0  0  0  0  0  0  0
  -45.9314  -10.0423   19.4149 O   0  0  0  0  0  0  0  0  0  0  0  0
  -45.9042  -12.2409   18.8956 N   0  0  0  0  0  0  0  0  0  0  0  0
  -47.6546  -11.5635   21.0118 H   0  0  0  0  0  0  0  0  0  0  0  0
  -50.7943   -9.3874   18.8682 H   0  0  0  0  0  0  0  0  0  0  0  0
  -49.4059   -7.6140   20.9755 H   0  0  0  0  0  0  0  0  0  0  0  0
  -47.5609  -13.9094   20.4834 H   0  0  0  0  0  0  0  0  0  0  0  0
  -48.1846  -14.4821   19.0746 H   0  0  0  0  0  0  0  0  0  0  0  0
  -49.4846  -12.6280   19.8635 H   0  0  0  0  0  0  0  0  0  0  0  0
  -48.8308  -12.2721   18.4398 H   0  0  0  0  0  0  0  0  0  0  0  0
  -48.8087   -9.8567   17.9169 H   0  0  0  0  0  0  0  0  0  0  0  0
  -48.0171   -8.6892   18.5337 H   0  0  0  0  0  0  0  0  0  0  0  0
  -50.5710   -7.8185   16.5087 H   0  0  0  0  0  0  0  0  0  0  0  0
  -48.9136   -6.1626   16.1731 H   0  0  0  0  0  0  0  0  0  0  0  0
  -49.3021   -5.6003   17.6595 H   0  0  0  0  0  0  0  0  0  0  0  0
  -51.5650   -5.1587   16.7310 H   0  0  0  0  0  0  0  0  0  0  0  0
  -50.8830   -5.3726   15.2596 H   0  0  0  0  0  0  0  0  0  0  0  0
  -49.7615   -3.4541   17.0898 H   0  0  0  0  0  0  0  0  0  0  0  0
  -50.9987   -3.0272   16.1037 H   0  0  0  0  0  0  0  0  0  0  0  0
  -49.0163   -4.2663   14.6143 H   0  0  0  0  0  0  0  0  0  0  0  0
  -48.3792   -3.0052   15.4235 H   0  0  0  0  0  0  0  0  0  0  0  0
  -50.8321   -2.6447   13.9629 H   0  0  0  0  0  0  0  0  0  0  0  0
  -49.3843   -2.5359   13.1819 H   0  0  0  0  0  0  0  0  0  0  0  0
  -50.4972   -0.6742   15.0476 H   0  0  0  0  0  0  0  0  0  0  0  0
  -49.6787   -0.3293   13.7203 H   0  0  0  0  0  0  0  0  0  0  0  0
  -48.4742   -1.2933   16.0985 H   0  0  0  0  0  0  0  0  0  0  0  0
  -45.2151   -1.6898   13.7477 H   0  0  0  0  0  0  0  0  0  0  0  0
  -43.1776   -2.2339   14.7624 H   0  0  0  0  0  0  0  0  0  0  0  0
  -44.3512   -0.5518   18.2097 H   0  0  0  0  0  0  0  0  0  0  0  0
  -46.8787    1.1035   17.2067 H   0  0  0  0  0  0  0  0  0  0  0  0
  -47.3888    1.8613   19.2220 H   0  0  0  0  0  0  0  0  0  0  0  0
  -47.8383    0.7593   20.3907 H   0  0  0  0  0  0  0  0  0  0  0  0
  -49.2548    3.3049   19.0806 H   0  0  0  0  0  0  0  0  0  0  0  0
  -51.5482    3.6291   18.5557 H   0  0  0  0  0  0  0  0  0  0  0  0
  -52.9813    1.7542   18.2771 H   0  0  0  0  0  0  0  0  0  0  0  0
  -49.8262   -0.7694   19.0632 H   0  0  0  0  0  0  0  0  0  0  0  0
  -52.1312   -6.0330   18.5698 H   0  0  0  0  0  0  0  0  0  0  0  0
  -52.9806   -6.8333   20.7647 H   0  0  0  0  0  0  0  0  0  0  0  0
  -51.5630   -8.1124   22.0981 H   0  0  0  0  0  0  0  0  0  0  0  0
  -45.1121  -12.1220   18.5311 H   0  0  0  0  0  0  0  0  0  0  0  0
  1  2  2  0
  2  3  1  0
  2 45  1  0
  3  4  1  0
  4  5  1  0
  5  6  1  0
  5 43  1  0
  6  7  1  0
  6 41  1  0
  7  8  1  0
  8  9  1  0
  8 40  1  0
  9 10  1  0
  9 37  2  0
 10 11  1  0
 11 12  1  0
 12 13  1  0
 13 14  1  0
 14 15  1  0
 15 16  1  0
 16 17  1  0
 17 18  1  0
 18 19  2  0
 18 20  1  0
 20 21  2  0
 20 25  1  0
 21 22  1  0
 22 23  2  0
 23 24  1  0
 24 25  2  0
 25 26  1  0
 26 27  1  0
 27 28  2  0
 27 29  1  0
 29 30  1  0
 30 31  2  0
 30 36  1  0
 31 32  1  0
 32 33  2  0
 33 34  1  0
 34 35  1  0
 34 36  2  0
 37 38  1  0
 38 39  2  0
 39 40  1  0
 40 41  1  0
 41 42  2  0
 43 44  2  0
 43 45  1  0
  3 49  1  0
  3 50  1  0
  4 51  1  0
  4 52  1  0
  5 46  1  0
  7 53  1  0
  7 54  1  0
  8 47  1  0
 10 55  1  0
 11 56  1  0
 11 57  1  0
 12 58  1  0
 12 59  1  0
 13 60  1  0
 13 61  1  0
 14 62  1  0
 14 63  1  0
 15 64  1  0
 15 65  1  0
 16 66  1  0
 16 67  1  0
 17 68  1  0
 21 69  1  0
 22 70  1  0
 24 71  1  0
 26 72  1  0
 29 73  1  0
 29 74  1  0
 31 75  1  0
 32 76  1  0
 33 77  1  0
 36 78  1  0
 37 79  1  0
 38 80  1  0
 39 81  1  0
 40 48  1  0
 45 82  1  0
M  END
>  <LF dG>
-9.636

>  <LF VSscore>
-11.425

>  <LF Rank Score>
-4.236

>  <LF LE>
-0.214

>  <LF Structure Name>
C:\Users\Odara\AppData\Local\Temp\LeadFinder_12060_1\Ligand_1.sdf

>  <LF SDF id>
0

>  <LF Pose rank>
0

>  <LF version>
2001 1, 19 January 2019

>  <Favorite_cresset>
false

>  <MW_cresset>
633.1

>  <#Atoms_cresset>
45

>  <SlogP_cresset>
2.9

>  <TPSA_cresset>
149.6

>  <Flexibility_cresset>
10.4

>  <#RB_cresset>
13

>  <Rof5_cresset>
2

>  <Filename_cresset>
drag.25_28.sdf

>  <Confs_cresset>
0

>  <Poses_cresset>
0

$$$$
Site3d_DAR_D
  xed2sdf_05210316543D
 
 82 86  0  0  1  0  0  0  0  0999 V2000
  -41.2266    1.9097   21.4860 O   0  0  0  0  0  0  0  0  0  0  0  0
  -41.7738    1.3264   20.5661 C   0  0  0  0  0  0  0  0  0  0  0  0
  -41.9246    1.9583   19.2016 C   0  0  0  0  0  0  0  0  0  0  0  0
  -43.2410    1.5457   18.5410 C   0  0  0  0  0  0  0  0  0  0  0  0
  -43.1895    0.0189   18.4319 C   0  0  0  0  0  0  0  0  0  0  0  0
  -44.4329   -0.4267   17.7861 N   0  0  0  0  0  0  0  0  0  0  0  0
  -45.7631    0.0401   18.2121 C   0  0  0  0  0  0  0  0  0  0  0  0
  -46.4269   -0.2647   16.8564 C   0  0  0  0  0  0  0  0  0  0  0  0
  -47.9248   -0.2525   16.6413 C   0  0  0  0  0  0  0  0  0  0  0  0
  -48.6174    0.4475   17.5856 N   0  0  0  0  0  0  0  0  0  0  0  0
  -49.1276   -0.2517   18.7724 C   0  0  0  0  0  0  0  0  0  0  0  0
  -50.1076   -1.3623   18.3536 C   0  0  0  0  0  0  0  0  0  0  0  0
  -51.3712   -1.3107   19.2298 C   0  0  0  0  0  0  0  0  0  0  0  0
  -51.4163   -2.5178   20.1838 C   0  0  0  0  0  0  0  0  0  0  0  0
  -52.0035   -3.7263   19.4349 C   0  0  0  0  0  0  0  0  0  0  0  0
  -52.6155   -4.7589   20.3980 C   0  0  0  0  0  0  0  0  0  0  0  0
  -51.7535   -5.9412   20.2536 N   0  0  0  0  0  0  0  0  0  0  0  0
  -52.0764   -7.0867   20.8896 C   0  0  0  0  0  0  0  0  0  0  0  0
  -53.1557   -7.2799   21.4455 O   0  0  0  0  0  0  0  0  0  0  0  0
  -51.0611   -8.1593   21.0083 C   0  0  0  0  0  0  0  0  0  0  0  0
  -51.0434   -8.9238   22.1559 C   0  0  0  0  0  0  0  0  0  0  0  0
  -50.0954   -9.8994   22.3223 C   0  0  0  0  0  0  0  0  0  0  0  0
  -49.1432  -10.1783   21.4105 N   0  0  0  0  0  0  0  0  0  0  0  0
  -49.1810   -9.4373   20.2903 C   0  0  0  0  0  0  0  0  0  0  0  0
  -50.1051   -8.4374   20.0397 C   0  0  0  0  0  0  0  0  0  0  0  0
  -50.0970   -7.7565   18.8159 N   0  0  0  0  0  0  0  0  0  0  0  0
  -49.2012   -6.8211   18.4415 C   0  0  0  0  0  0  0  0  0  0  0  0
  -48.4082   -6.2698   19.1895 O   0  0  0  0  0  0  0  0  0  0  0  0
  -49.2219   -6.5390   16.9542 C   0  0  0  0  0  0  0  0  0  0  0  0
  -50.3151   -5.5859   16.5043 C   0  0  0  0  0  0  0  0  0  0  0  0
  -50.0052   -4.3234   16.0487 C   0  0  0  0  0  0  0  0  0  0  0  0
  -51.0041   -3.4775   15.6218 C   0  0  0  0  0  0  0  0  0  0  0  0
  -52.3158   -3.8924   15.6467 C   0  0  0  0  0  0  0  0  0  0  0  0
  -52.6287   -5.1544   16.1007 C   0  0  0  0  0  0  0  0  0  0  0  0
  -54.2839   -5.6868   16.1271 Cl  0  0  0  0  0  0  0  0  0  0  0  0
  -51.6286   -5.9978   16.5301 C   0  0  0  0  0  0  0  0  0  0  0  0
  -48.4386   -0.9006   15.5826 C   0  0  0  0  0  0  0  0  0  0  0  0
  -47.5513   -1.6214   14.6690 C   0  0  0  0  0  0  0  0  0  0  0  0
  -46.3328   -1.9724   15.0757 C   0  0  0  0  0  0  0  0  0  0  0  0
  -45.8549   -1.6292   16.4627 C   0  0  0  0  0  0  0  0  0  0  0  0
  -44.4224   -1.3208   16.7855 C   0  0  0  0  0  0  0  0  0  0  0  0
  -43.4371   -1.8001   16.2418 O   0  0  0  0  0  0  0  0  0  0  0  0
  -42.9742   -0.6471   19.7753 C   0  0  0  0  0  0  0  0  0  0  0  0
  -43.4048   -1.7630   20.0104 O   0  0  0  0  0  0  0  0  0  0  0  0
  -42.2872    0.0814   20.6847 N   0  0  0  0  0  0  0  0  0  0  0  0
  -42.4024   -0.2523   17.8780 H   0  0  0  0  0  0  0  0  0  0  0  0
  -46.2111    0.5346   16.2952 H   0  0  0  0  0  0  0  0  0  0  0  0
  -46.1154   -2.4874   16.9053 H   0  0  0  0  0  0  0  0  0  0  0  0
  -41.1621    1.6711   18.6218 H   0  0  0  0  0  0  0  0  0  0  0  0
  -41.9265    2.9521   19.3126 H   0  0  0  0  0  0  0  0  0  0  0  0
  -43.3227    1.9599   17.6343 H   0  0  0  0  0  0  0  0  0  0  0  0
  -44.0317    1.8502   19.0718 H   0  0  0  0  0  0  0  0  0  0  0  0
  -45.7829    1.0103   18.4536 H   0  0  0  0  0  0  0  0  0  0  0  0
  -46.1640   -0.3635   19.0343 H   0  0  0  0  0  0  0  0  0  0  0  0
  -49.0085    1.1993   17.3445 H   0  0  0  0  0  0  0  0  0  0  0  0
  -49.5984    0.4014   19.3659 H   0  0  0  0  0  0  0  0  0  0  0  0
  -48.3602   -0.6632   19.2643 H   0  0  0  0  0  0  0  0  0  0  0  0
  -49.6651   -2.2528   18.4590 H   0  0  0  0  0  0  0  0  0  0  0  0
  -50.3679   -1.2255   17.3977 H   0  0  0  0  0  0  0  0  0  0  0  0
  -52.1808   -1.3217   18.6430 H   0  0  0  0  0  0  0  0  0  0  0  0
  -51.3532   -0.4716   19.7732 H   0  0  0  0  0  0  0  0  0  0  0  0
  -51.9877   -2.3005   20.9750 H   0  0  0  0  0  0  0  0  0  0  0  0
  -50.4925   -2.7337   20.4993 H   0  0  0  0  0  0  0  0  0  0  0  0
  -51.2765   -4.1648   18.9065 H   0  0  0  0  0  0  0  0  0  0  0  0
  -52.7322   -3.3941   18.8362 H   0  0  0  0  0  0  0  0  0  0  0  0
  -53.5586   -4.9707   20.1413 H   0  0  0  0  0  0  0  0  0  0  0  0
  -52.6549   -4.4276   21.3406 H   0  0  0  0  0  0  0  0  0  0  0  0
  -50.9930   -5.8747   19.8137 H   0  0  0  0  0  0  0  0  0  0  0  0
  -51.7254   -8.7656   22.8700 H   0  0  0  0  0  0  0  0  0  0  0  0
  -50.1111  -10.4340   23.1671 H   0  0  0  0  0  0  0  0  0  0  0  0
  -48.4930   -9.6210   19.5879 H   0  0  0  0  0  0  0  0  0  0  0  0
  -50.7137   -7.9851   18.2296 H   0  0  0  0  0  0  0  0  0  0  0  0
  -49.3445   -7.4067   16.4728 H   0  0  0  0  0  0  0  0  0  0  0  0
  -48.3537   -6.0918   16.7397 H   0  0  0  0  0  0  0  0  0  0  0  0
  -49.0525   -4.0206   16.0279 H   0  0  0  0  0  0  0  0  0  0  0  0
  -50.7761   -2.5609   15.2933 H   0  0  0  0  0  0  0  0  0  0  0  0
  -53.0407   -3.2784   15.3355 H   0  0  0  0  0  0  0  0  0  0  0  0
  -51.8569   -6.9129   16.8618 H   0  0  0  0  0  0  0  0  0  0  0  0
  -49.4251   -0.8901   15.4193 H   0  0  0  0  0  0  0  0  0  0  0  0
  -47.8581   -1.8492   13.7448 H   0  0  0  0  0  0  0  0  0  0  0  0
  -45.7279   -2.4690   14.4532 H   0  0  0  0  0  0  0  0  0  0  0  0
  -42.1659   -0.3054   21.4658 H   0  0  0  0  0  0  0  0  0  0  0  0
  1  2  2  0
  2  3  1  0
  2 45  1  0
  3  4  1  0
  4  5  1  0
  5  6  1  0
  5 43  1  0
  6  7  1  0
  6 41  1  0
  7  8  1  0
  8  9  1  0
  8 40  1  0
  9 10  1  0
  9 37  2  0
 10 11  1  0
 11 12  1  0
 12 13  1  0
 13 14  1  0
 14 15  1  0
 15 16  1  0
 16 17  1  0
 17 18  1  0
 18 19  2  0
 18 20  1  0
 20 21  2  0
 20 25  1  0
 21 22  1  0
 22 23  2  0
 23 24  1  0
 24 25  2  0
 25 26  1  0
 26 27  1  0
 27 28  2  0
 27 29  1  0
 29 30  1  0
 30 31  2  0
 30 36  1  0
 31 32  1  0
 32 33  2  0
 33 34  1  0
 34 35  1  0
 34 36  2  0
 37 38  1  0
 38 39  2  0
 39 40  1  0
 40 41  1  0
 41 42  2  0
 43 44  2  0
 43 45  1  0
  3 49  1  0
  3 50  1  0
  4 51  1  0
  4 52  1  0
  5 46  1  0
  7 53  1  0
  7 54  1  0
  8 47  1  0
 10 55  1  0
 11 56  1  0
 11 57  1  0
 12 58  1  0
 12 59  1  0
 13 60  1  0
 13 61  1  0
 14 62  1  0
 14 63  1  0
 15 64  1  0
 15 65  1  0
 16 66  1  0
 16 67  1  0
 17 68  1  0
 21 69  1  0
 22 70  1  0
 24 71  1  0
 26 72  1  0
 29 73  1  0
 29 74  1  0
 31 75  1  0
 32 76  1  0
 33 77  1  0
 36 78  1  0
 37 79  1  0
 38 80  1  0
 39 81  1  0
 40 48  1  0
 45 82  1  0
M  END
>  <LF dG>
-9.587

>  <LF VSscore>
-11.077

>  <LF Rank Score>
-4.261

>  <LF LE>
-0.213

>  <LF Structure Name>
C:\Users\Odara\AppData\Local\Temp\LeadFinder_13288_1\Ligand_1.sdf

>  <LF SDF id>
0

>  <LF Pose rank>
0

>  <LF version>
2001 1, 19 January 2019

>  <Favorite_cresset>
false

>  <MW_cresset>
633.1

>  <#Atoms_cresset>
45

>  <SlogP_cresset>
2.9

>  <TPSA_cresset>
149.6

>  <Flexibility_cresset>
10.4

>  <#RB_cresset>
13

>  <Rof5_cresset>
2

>  <Filename_cresset>
drag.27_733.sdf

>  <Confs_cresset>
0

>  <Poses_cresset>
0

$$$$
W_Site3d_Baicalein_D
  xed2sdf_05210316543D
 
 30 32  0  0  0  0  0  0  0  0999 V2000
  -48.2930   -3.0266   15.8810 O   0  0  0  0  0  0  0  0  0  0  0  0
  -52.6101   -2.3707   13.7903 O   0  0  0  0  0  0  0  0  0  0  0  0
  -53.4269   -4.7244   14.8315 O   0  0  0  0  0  0  0  0  0  0  0  0
  -51.7204   -6.2270   16.3726 O   0  0  0  0  0  0  0  0  0  0  0  0
  -50.5618   -0.5978   13.5836 O   0  0  0  0  0  0  0  0  0  0  0  0
  -50.4339   -2.6212   14.8022 C   0  0  0  0  0  0  0  0  0  0  0  0
  -49.5710   -3.3944   15.5871 C   0  0  0  0  0  0  0  0  0  0  0  0
  -47.8405   -1.8141   15.4253 C   0  0  0  0  0  0  0  0  0  0  0  0
  -51.7364   -3.0844   14.5497 C   0  0  0  0  0  0  0  0  0  0  0  0
  -49.9140   -1.3632   14.2964 C   0  0  0  0  0  0  0  0  0  0  0  0
  -48.5931   -0.9861   14.6457 C   0  0  0  0  0  0  0  0  0  0  0  0
  -46.4601   -1.4322   15.8196 C   0  0  0  0  0  0  0  0  0  0  0  0
  -50.0201   -4.5975   16.1008 C   0  0  0  0  0  0  0  0  0  0  0  0
  -52.1564   -4.2813   15.0754 C   0  0  0  0  0  0  0  0  0  0  0  0
  -51.2974   -5.0443   15.8548 C   0  0  0  0  0  0  0  0  0  0  0  0
  -45.3414   -1.7897   15.0793 C   0  0  0  0  0  0  0  0  0  0  0  0
  -46.2757   -0.6802   16.9699 C   0  0  0  0  0  0  0  0  0  0  0  0
  -44.0838   -1.4088   15.4800 C   0  0  0  0  0  0  0  0  0  0  0  0
  -45.0178   -0.3004   17.3701 C   0  0  0  0  0  0  0  0  0  0  0  0
  -43.9188   -0.6638   16.6256 C   0  0  0  0  0  0  0  0  0  0  0  0
  -53.3124   -2.9516   13.3731 H   0  0  0  0  0  0  0  0  0  0  0  0
  -53.9598   -4.0475   14.3115 H   0  0  0  0  0  0  0  0  0  0  0  0
  -51.9893   -6.8714   15.6479 H   0  0  0  0  0  0  0  0  0  0  0  0
  -48.2157   -0.1183   14.3229 H   0  0  0  0  0  0  0  0  0  0  0  0
  -49.4047   -5.1526   16.6607 H   0  0  0  0  0  0  0  0  0  0  0  0
  -45.4523   -2.3306   14.2455 H   0  0  0  0  0  0  0  0  0  0  0  0
  -47.0691   -0.4107   17.5155 H   0  0  0  0  0  0  0  0  0  0  0  0
  -43.2862   -1.6734   14.9379 H   0  0  0  0  0  0  0  0  0  0  0  0
  -44.9004    0.2404   18.2030 H   0  0  0  0  0  0  0  0  0  0  0  0
  -43.0026   -0.3874   16.9159 H   0  0  0  0  0  0  0  0  0  0  0  0
  1  7  1  0
  1  8  1  0
  2  9  1  0
  3 14  1  0
  4 15  1  0
  5 10  2  0
  6  7  2  0
  6  9  1  0
  6 10  1  0
  7 13  1  0
  8 11  2  0
  8 12  1  0
  9 14  2  0
 10 11  1  0
 12 16  2  0
 12 17  1  0
 13 15  2  0
 14 15  1  0
 16 18  1  0
 17 19  2  0
 18 20  2  0
 19 20  1  0
  2 21  1  0
  3 22  1  0
  4 23  1  0
 11 24  1  0
 13 25  1  0
 16 26  1  0
 17 27  1  0
 18 28  1  0
 19 29  1  0
 20 30  1  0
M  END
>  <LF dG>
-7.181

>  <LF VSscore>
-8.506

>  <LF Rank Score>
-10.677

>  <LF LE>
-0.359

>  <LF Structure Name>
C:\Users\Odara\AppData\Local\Temp\LeadFinder_7132_1\Ligand_1.sdf

>  <LF SDF id>
0

>  <LF Pose rank>
0

>  <LF version>
2001 1, 19 January 2019

>  <PUBCHEM_COMPOUND_CID>
5281605

>  <PUBCHEM_COMPOUND_CANONICALIZED>
1

>  <PUBCHEM_CACTVS_COMPLEXITY>
413

>  <PUBCHEM_CACTVS_HBOND_ACCEPTOR>
5

>  <PUBCHEM_CACTVS_HBOND_DONOR>
3

>  <PUBCHEM_CACTVS_ROTATABLE_BOND>
1

>  <PUBCHEM_CACTVS_SUBSKEYS>
AAADccBwOAAAAAAAAAAAAAAAAAAAAAAAAAAwYIAAAAAAAACBQAAAGgAACAAADASAmAAwBoAABgCIAqBSAAACCAAkIAAIiAEGiMgNJzaGNRqCeWGl4BUJuQfK7LzOIQABCAAIQABCAAIQABCAAAAAAAAAAA==

>  <PUBCHEM_IUPAC_OPENEYE_NAME>
5,6,7-trihydroxy-2-phenyl-chromen-4-one

>  <PUBCHEM_IUPAC_CAS_NAME>
5,6,7-trihydroxy-2-phenyl-1-benzopyran-4-one

>  <PUBCHEM_IUPAC_NAME_MARKUP>
5,6,7-trihydroxy-2-phenylchromen-4-one

>  <PUBCHEM_IUPAC_NAME>
5,6,7-trihydroxy-2-phenylchromen-4-one

>  <PUBCHEM_IUPAC_SYSTEMATIC_NAME>
5,6,7-tris(oxidanyl)-2-phenyl-chromen-4-one

>  <PUBCHEM_IUPAC_TRADITIONAL_NAME>
5,6,7-trihydroxy-2-phenyl-chromone

>  <PUBCHEM_IUPAC_INCHI>
InChI=1S/C15H10O5/c16-9-6-11(8-4-2-1-3-5-8)20-12-7-10(17)14(18)15(19)13(9)12/h1-7,17-19H

>  <PUBCHEM_IUPAC_INCHIKEY>
FXNFHKRTJBSTCS-UHFFFAOYSA-N

>  <PUBCHEM_XLOGP3>
1.7

>  <PUBCHEM_EXACT_MASS>
270.052823

>  <PUBCHEM_MOLECULAR_FORMULA>
C15H10O5

>  <PUBCHEM_MOLECULAR_WEIGHT>
270.24

>  <PUBCHEM_OPENEYE_CAN_SMILES>
C1=CC=C(C=C1)C2=CC(=O)C3=C(O2)C=C(C(=C3O)O)O

>  <PUBCHEM_OPENEYE_ISO_SMILES>
C1=CC=C(C=C1)C2=CC(=O)C3=C(O2)C=C(C(=C3O)O)O

>  <PUBCHEM_CACTVS_TPSA>
87

>  <PUBCHEM_MONOISOTOPIC_WEIGHT>
270.052823

>  <PUBCHEM_TOTAL_CHARGE>
0

>  <PUBCHEM_HEAVY_ATOM_COUNT>
20

>  <PUBCHEM_ATOM_DEF_STEREO_COUNT>
0

>  <PUBCHEM_ATOM_UDEF_STEREO_COUNT>
0

>  <PUBCHEM_BOND_DEF_STEREO_COUNT>
0

>  <PUBCHEM_BOND_UDEF_STEREO_COUNT>
0

>  <PUBCHEM_ISOTOPIC_ATOM_COUNT>
0

>  <PUBCHEM_COMPONENT_COUNT>
1

>  <PUBCHEM_CACTVS_TAUTO_COUNT>
-1

>  <PUBCHEM_COORDINATE_TYPE>
1
5
255

>  <PUBCHEM_BONDANNOTATIONS>
1  7  8
1  8  8
10  11  8
12  16  8
12  17  8
13  15  8
14  15  8
16  18  8
17  19  8
18  20  8
19  20  8
6  10  8
6  7  8
6  9  8
7  13  8
8  11  8
9  14  8

>  <Favorite_cresset>
false

>  <MW_cresset>
270.2

>  <#Atoms_cresset>
20

>  <SlogP_cresset>
2.3

>  <TPSA_cresset>
87

>  <Flexibility_cresset>
1.7

>  <#RB_cresset>
4

>  <Rof5_cresset>
0

>  <Filename_cresset>
drag.1_626.sdf

>  <Confs_cresset>
0

>  <Poses_cresset>
0

$$$$
Site3d_Baicalein_D
  xed2sdf_05210316543D
 
 30 32  0  0  0  0  0  0  0  0999 V2000
  -48.2339   -3.0726   15.7373 O   0  0  0  0  0  0  0  0  0  0  0  0
  -52.4716   -2.1679   13.5782 O   0  0  0  0  0  0  0  0  0  0  0  0
  -53.4844   -4.3935   14.7236 O   0  0  0  0  0  0  0  0  0  0  0  0
  -51.9152   -5.9541   16.3505 O   0  0  0  0  0  0  0  0  0  0  0  0
  -50.2834   -0.5807   13.3054 O   0  0  0  0  0  0  0  0  0  0  0  0
  -50.3286   -2.5462   14.6208 C   0  0  0  0  0  0  0  0  0  0  0  0
  -49.5363   -3.3484   15.4498 C   0  0  0  0  0  0  0  0  0  0  0  0
  -47.6809   -1.9248   15.2281 C   0  0  0  0  0  0  0  0  0  0  0  0
  -51.6634   -2.9130   14.3790 C   0  0  0  0  0  0  0  0  0  0  0  0
  -49.7045   -1.3610   14.0601 C   0  0  0  0  0  0  0  0  0  0  0  0
  -48.3588   -1.0767   14.4029 C   0  0  0  0  0  0  0  0  0  0  0  0
  -46.2758   -1.6384   15.6163 C   0  0  0  0  0  0  0  0  0  0  0  0
  -50.0853   -4.4843   16.0164 C   0  0  0  0  0  0  0  0  0  0  0  0
  -52.1831   -4.0445   14.9575 C   0  0  0  0  0  0  0  0  0  0  0  0
  -51.3938   -4.8365   15.7805 C   0  0  0  0  0  0  0  0  0  0  0  0
  -45.1873   -2.0794   14.8761 C   0  0  0  0  0  0  0  0  0  0  0  0
  -46.0355   -0.8929   16.7605 C   0  0  0  0  0  0  0  0  0  0  0  0
  -43.9048   -1.7853   15.2709 C   0  0  0  0  0  0  0  0  0  0  0  0
  -44.7527   -0.6000   17.1549 C   0  0  0  0  0  0  0  0  0  0  0  0
  -43.6843   -1.0455   16.4104 C   0  0  0  0  0  0  0  0  0  0  0  0
  -53.3126   -2.6538   13.3306 H   0  0  0  0  0  0  0  0  0  0  0  0
  -53.8032   -4.0518   13.8325 H   0  0  0  0  0  0  0  0  0  0  0  0
  -51.8000   -6.7585   15.7570 H   0  0  0  0  0  0  0  0  0  0  0  0
  -47.9099   -0.2594   14.0424 H   0  0  0  0  0  0  0  0  0  0  0  0
  -49.5205   -5.0601   16.6079 H   0  0  0  0  0  0  0  0  0  0  0  0
  -45.3385   -2.6172   14.0466 H   0  0  0  0  0  0  0  0  0  0  0  0
  -46.8063   -0.5641   17.3060 H   0  0  0  0  0  0  0  0  0  0  0  0
  -43.1295   -2.1095   14.7289 H   0  0  0  0  0  0  0  0  0  0  0  0
  -44.5950   -0.0628   17.9834 H   0  0  0  0  0  0  0  0  0  0  0  0
  -42.7500   -0.8323   16.6965 H   0  0  0  0  0  0  0  0  0  0  0  0
  1  7  1  0
  1  8  1  0
  2  9  1  0
  3 14  1  0
  4 15  1  0
  5 10  2  0
  6  7  2  0
  6  9  1  0
  6 10  1  0
  7 13  1  0
  8 11  2  0
  8 12  1  0
  9 14  2  0
 10 11  1  0
 12 16  2  0
 12 17  1  0
 13 15  2  0
 14 15  1  0
 16 18  1  0
 17 19  2  0
 18 20  2  0
 19 20  1  0
  2 21  1  0
  3 22  1  0
  4 23  1  0
 11 24  1  0
 13 25  1  0
 16 26  1  0
 17 27  1  0
 18 28  1  0
 19 29  1  0
 20 30  1  0
M  END
>  <LF dG>
-7.535

>  <LF VSscore>
-8.777

>  <LF Rank Score>
-10.985

>  <LF LE>
-0.377

>  <LF Structure Name>
C:\Users\Odara\AppData\Local\Temp\LeadFinder_5732_1\Ligand_1.sdf

>  <LF SDF id>
0

>  <LF Pose rank>
0

>  <LF version>
2001 1, 19 January 2019

>  <PUBCHEM_COMPOUND_CID>
5281605

>  <PUBCHEM_COMPOUND_CANONICALIZED>
1

>  <PUBCHEM_CACTVS_COMPLEXITY>
413

>  <PUBCHEM_CACTVS_HBOND_ACCEPTOR>
5

>  <PUBCHEM_CACTVS_HBOND_DONOR>
3

>  <PUBCHEM_CACTVS_ROTATABLE_BOND>
1

>  <PUBCHEM_CACTVS_SUBSKEYS>
AAADccBwOAAAAAAAAAAAAAAAAAAAAAAAAAAwYIAAAAAAAACBQAAAGgAACAAADASAmAAwBoAABgCIAqBSAAACCAAkIAAIiAEGiMgNJzaGNRqCeWGl4BUJuQfK7LzOIQABCAAIQABCAAIQABCAAAAAAAAAAA==

>  <PUBCHEM_IUPAC_OPENEYE_NAME>
5,6,7-trihydroxy-2-phenyl-chromen-4-one

>  <PUBCHEM_IUPAC_CAS_NAME>
5,6,7-trihydroxy-2-phenyl-1-benzopyran-4-one

>  <PUBCHEM_IUPAC_NAME_MARKUP>
5,6,7-trihydroxy-2-phenylchromen-4-one

>  <PUBCHEM_IUPAC_NAME>
5,6,7-trihydroxy-2-phenylchromen-4-one

>  <PUBCHEM_IUPAC_SYSTEMATIC_NAME>
5,6,7-tris(oxidanyl)-2-phenyl-chromen-4-one

>  <PUBCHEM_IUPAC_TRADITIONAL_NAME>
5,6,7-trihydroxy-2-phenyl-chromone

>  <PUBCHEM_IUPAC_INCHI>
InChI=1S/C15H10O5/c16-9-6-11(8-4-2-1-3-5-8)20-12-7-10(17)14(18)15(19)13(9)12/h1-7,17-19H

>  <PUBCHEM_IUPAC_INCHIKEY>
FXNFHKRTJBSTCS-UHFFFAOYSA-N

>  <PUBCHEM_XLOGP3>
1.7

>  <PUBCHEM_EXACT_MASS>
270.052823

>  <PUBCHEM_MOLECULAR_FORMULA>
C15H10O5

>  <PUBCHEM_MOLECULAR_WEIGHT>
270.24

>  <PUBCHEM_OPENEYE_CAN_SMILES>
C1=CC=C(C=C1)C2=CC(=O)C3=C(O2)C=C(C(=C3O)O)O

>  <PUBCHEM_OPENEYE_ISO_SMILES>
C1=CC=C(C=C1)C2=CC(=O)C3=C(O2)C=C(C(=C3O)O)O

>  <PUBCHEM_CACTVS_TPSA>
87

>  <PUBCHEM_MONOISOTOPIC_WEIGHT>
270.052823

>  <PUBCHEM_TOTAL_CHARGE>
0

>  <PUBCHEM_HEAVY_ATOM_COUNT>
20

>  <PUBCHEM_ATOM_DEF_STEREO_COUNT>
0

>  <PUBCHEM_ATOM_UDEF_STEREO_COUNT>
0

>  <PUBCHEM_BOND_DEF_STEREO_COUNT>
0

>  <PUBCHEM_BOND_UDEF_STEREO_COUNT>
0

>  <PUBCHEM_ISOTOPIC_ATOM_COUNT>
0

>  <PUBCHEM_COMPONENT_COUNT>
1

>  <PUBCHEM_CACTVS_TAUTO_COUNT>
-1

>  <PUBCHEM_COORDINATE_TYPE>
1
5
255

>  <PUBCHEM_BONDANNOTATIONS>
1  7  8
1  8  8
10  11  8
12  16  8
12  17  8
13  15  8
14  15  8
16  18  8
17  19  8
18  20  8
19  20  8
6  10  8
6  7  8
6  9  8
7  13  8
8  11  8
9  14  8

>  <Favorite_cresset>
false

>  <MW_cresset>
270.2

>  <#Atoms_cresset>
20

>  <SlogP_cresset>
2.3

>  <TPSA_cresset>
87

>  <Flexibility_cresset>
1.7

>  <#RB_cresset>
4

>  <Rof5_cresset>
0

>  <Filename_cresset>
drag.4_412.sdf

>  <Confs_cresset>
0

>  <Poses_cresset>
0

$$$$
W_Site3d_Baicalin_D
  xed2sdf_05210316543D
 
 49 52  0  0  1  0  0  0  0  0999 V2000
  -45.9841   -0.4946   17.6975 O   0  0  0  0  0  0  0  0  0  0  0  0
  -45.4800   -2.4921   16.3111 O   0  0  0  0  0  0  0  0  0  0  0  0
  -42.0538   -0.6148   19.2828 O   0  0  0  0  0  0  0  0  0  0  0  0
  -43.0729   -2.8195   17.7158 O   0  0  0  0  0  0  0  0  0  0  0  0
  -44.0778    1.0608   20.5019 O   0  0  0  0  0  0  0  0  0  0  0  0
  -45.9618    2.5644   18.8353 O   0  5  0  0  0  0  0  0  0  0  0  0
  -47.7487    1.3315   19.5395 O   0  0  0  0  0  0  0  0  0  0  0  0
  -49.8926   -3.9393   15.7001 O   0  0  0  0  0  0  0  0  0  0  0  0
  -45.8457   -0.3965   14.4970 O   0  0  0  0  0  0  0  0  0  0  0  0
  -48.2743   -0.0977   13.3053 O   0  0  0  0  0  0  0  0  0  0  0  0
  -50.6807   -0.9923   13.0390 O   0  0  0  0  0  0  0  0  0  0  0  0
  -43.4593   -0.8613   19.1203 C   0  0  0  0  0  0  0  0  0  0  0  0
  -43.7247   -1.5418   17.7632 C   0  0  0  0  0  0  0  0  0  0  0  0
  -44.2510    0.4573   19.2109 C   0  0  0  0  0  0  0  0  0  0  0  0
  -45.2397   -1.7253   17.5162 C   0  0  0  0  0  0  0  0  0  0  0  0
  -45.7471    0.1904   18.9531 C   0  0  0  0  0  0  0  0  0  0  0  0
  -46.5452    1.4611   19.1211 C   0  0  0  0  0  0  0  0  0  0  0  0
  -46.6486   -2.3148   15.6926 C   0  0  0  0  0  0  0  0  0  0  0  0
  -47.6783   -3.1926   15.9557 C   0  0  0  0  0  0  0  0  0  0  0  0
  -46.8549   -1.2699   14.7915 C   0  0  0  0  0  0  0  0  0  0  0  0
  -48.9202   -3.0481   15.3674 C   0  0  0  0  0  0  0  0  0  0  0  0
  -49.1226   -2.0003   14.4697 C   0  0  0  0  0  0  0  0  0  0  0  0
  -48.0774   -1.1151   14.1849 C   0  0  0  0  0  0  0  0  0  0  0  0
  -50.4320   -1.8712   13.8646 C   0  0  0  0  0  0  0  0  0  0  0  0
  -51.1426   -3.7700   15.1580 C   0  0  0  0  0  0  0  0  0  0  0  0
  -51.4401   -2.7884   14.2563 C   0  0  0  0  0  0  0  0  0  0  0  0
  -52.1803   -4.7298   15.6148 C   0  0  0  0  0  0  0  0  0  0  0  0
  -53.4543   -4.6245   15.0770 C   0  0  0  0  0  0  0  0  0  0  0  0
  -51.9405   -5.7283   16.5491 C   0  0  0  0  0  0  0  0  0  0  0  0
  -54.4556   -5.4848   15.4544 C   0  0  0  0  0  0  0  0  0  0  0  0
  -52.9431   -6.5888   16.9271 C   0  0  0  0  0  0  0  0  0  0  0  0
  -54.2016   -6.4700   16.3812 C   0  0  0  0  0  0  0  0  0  0  0  0
  -43.7626   -1.4684   19.8546 H   0  0  0  0  0  0  0  0  0  0  0  0
  -43.3557   -0.9504   17.0459 H   0  0  0  0  0  0  0  0  0  0  0  0
  -43.9037    1.0862   18.5151 H   0  0  0  0  0  0  0  0  0  0  0  0
  -45.6339   -2.2997   18.2336 H   0  0  0  0  0  0  0  0  0  0  0  0
  -46.0763   -0.4502   19.6470 H   0  0  0  0  0  0  0  0  0  0  0  0
  -41.5037   -1.2676   18.7507 H   0  0  0  0  0  0  0  0  0  0  0  0
  -43.2533   -3.2898   16.8448 H   0  0  0  0  0  0  0  0  0  0  0  0
  -43.7968    2.0235   20.4225 H   0  0  0  0  0  0  0  0  0  0  0  0
  -45.4757   -0.5598   13.5779 H   0  0  0  0  0  0  0  0  0  0  0  0
  -48.3767   -0.4392   12.3643 H   0  0  0  0  0  0  0  0  0  0  0  0
  -47.5228   -3.9520   16.5876 H   0  0  0  0  0  0  0  0  0  0  0  0
  -52.3619   -2.7169   13.8753 H   0  0  0  0  0  0  0  0  0  0  0  0
  -53.6467   -3.9106   14.4036 H   0  0  0  0  0  0  0  0  0  0  0  0
  -51.0297   -5.8221   16.9509 H   0  0  0  0  0  0  0  0  0  0  0  0
  -55.3687   -5.3958   15.0563 H   0  0  0  0  0  0  0  0  0  0  0  0
  -52.7580   -7.3040   17.6009 H   0  0  0  0  0  0  0  0  0  0  0  0
  -54.9290   -7.0982   16.6574 H   0  0  0  0  0  0  0  0  0  0  0  0
  1 15  1  0
  1 16  1  0
  2 18  1  0
  6 17  1  0
  7 17  2  0
  8 21  1  0
  8 25  1  0
  9 20  1  0
 10 23  1  0
 11 24  2  0
 12  3  1  0
 12 13  1  0
 12 14  1  0
 13  4  1  0
 13 15  1  0
 14  5  1  0
 14 16  1  0
 15  2  1  0
 16 17  1  0
 18 19  2  0
 18 20  1  0
 19 21  1  0
 20 23  2  0
 21 22  2  0
 22 23  1  0
 22 24  1  0
 24 26  1  0
 25 26  2  0
 25 27  1  0
 27 28  2  0
 27 29  1  0
 28 30  1  0
 29 31  2  0
 30 32  2  0
 31 32  1  0
  3 38  1  0
  4 39  1  0
  5 40  1  0
  9 41  1  0
 10 42  1  0
 12 33  1  0
 13 34  1  0
 14 35  1  0
 15 36  1  0
 16 37  1  0
 19 43  1  0
 26 44  1  0
 28 45  1  0
 29 46  1  0
 30 47  1  0
 31 48  1  0
 32 49  1  0
M  CHG  1   6  -1
M  END
>  <LF dG>
-7.303

>  <LF VSscore>
-11.532

>  <LF Rank Score>
-11.766

>  <LF LE>
-0.228

>  <LF Structure Name>
C:\Users\Odara\AppData\Local\Temp\LeadFinder_5860_1\Ligand_1.sdf

>  <LF SDF id>
0

>  <LF Pose rank>
0

>  <LF version>
2001 1, 19 January 2019

>  <PUBCHEM_COMPOUND_CID>
64982

>  <PUBCHEM_COMPOUND_CANONICALIZED>
1

>  <PUBCHEM_CACTVS_COMPLEXITY>
748

>  <PUBCHEM_CACTVS_HBOND_ACCEPTOR>
11

>  <PUBCHEM_CACTVS_HBOND_DONOR>
6

>  <PUBCHEM_CACTVS_ROTATABLE_BOND>
4

>  <PUBCHEM_CACTVS_SUBSKEYS>
AAADceB4PAAAAAAAAAAAAAAAAAAAAAAAAAA0YIEAAAAAAACBQAAAGgAACAAADBSwmAMwDoAABgCIAqDSCAICCAAkIAAIiAFGiMgdNzaGNR6ieWOl4BUPuQfK7LzOIQABCAAIQABCAAIQABCAAAAAAAAAAA==

>  <PUBCHEM_IUPAC_OPENEYE_NAME>
(2S,3S,4S,5R,6S)-6-(5,6-dihydroxy-4-oxo-2-phenyl-chromen-7-yl)oxy-3,4,5-trihydroxy-tetrahydropyran-2-carboxylic acid

>  <PUBCHEM_IUPAC_CAS_NAME>
(2S,3S,4S,5R,6S)-6-[(5,6-dihydroxy-4-oxo-2-phenyl-1-benzopyran-7-yl)oxy]-3,4,5-trihydroxy-2-oxanecarboxylic acid

>  <PUBCHEM_IUPAC_NAME_MARKUP>
(2<I>S</I>,3<I>S</I>,4<I>S</I>,5<I>R</I>,6<I>S</I>)-6-(5,6-dihydroxy-4-oxo-2-phenylchromen-7-yl)oxy-3,4,5-trihydroxyoxane-2-carboxylic acid

>  <PUBCHEM_IUPAC_NAME>
(2S,3S,4S,5R,6S)-6-(5,6-dihydroxy-4-oxo-2-phenylchromen-7-yl)oxy-3,4,5-trihydroxyoxane-2-carboxylic acid

>  <PUBCHEM_IUPAC_SYSTEMATIC_NAME>
(2S,3S,4S,5R,6S)-6-[5,6-bis(oxidanyl)-4-oxidanylidene-2-phenyl-chromen-7-yl]oxy-3,4,5-tris(oxidanyl)oxane-2-carboxylic acid

>  <PUBCHEM_IUPAC_TRADITIONAL_NAME>
(2S,3S,4S,5R,6S)-6-(5,6-dihydroxy-4-keto-2-phenyl-chromen-7-yl)oxy-3,4,5-trihydroxy-tetrahydropyran-2-carboxylic acid

>  <PUBCHEM_IUPAC_INCHI>
InChI=1S/C21H18O11/c22-9-6-10(8-4-2-1-3-5-8)30-11-7-12(14(23)15(24)13(9)11)31-21-18(27)16(25)17(26)19(32-21)20(28)29/h1-7,16-19,21,23-27H,(H,28,29)/t16-,17-,18+,19-,21+/m0/s1

>  <PUBCHEM_IUPAC_INCHIKEY>
IKIIZLYTISPENI-ZFORQUDYSA-N

>  <PUBCHEM_XLOGP3_AA>
1.1

>  <PUBCHEM_EXACT_MASS>
446.084911

>  <PUBCHEM_MOLECULAR_FORMULA>
C21H18O11

>  <PUBCHEM_MOLECULAR_WEIGHT>
446.4

>  <PUBCHEM_OPENEYE_CAN_SMILES>
C1=CC=C(C=C1)C2=CC(=O)C3=C(C(=C(C=C3O2)OC4C(C(C(C(O4)C(=O)O)O)O)O)O)O

>  <PUBCHEM_OPENEYE_ISO_SMILES>
C1=CC=C(C=C1)C2=CC(=O)C3=C(C(=C(C=C3O2)O[C@H]4[C@@H]([C@H]([C@@H]([C@H](O4)C(=O)O)O)O)O)O)O

>  <PUBCHEM_CACTVS_TPSA>
183

>  <PUBCHEM_MONOISOTOPIC_WEIGHT>
446.084911

>  <PUBCHEM_TOTAL_CHARGE>
0

>  <PUBCHEM_HEAVY_ATOM_COUNT>
32

>  <PUBCHEM_ATOM_DEF_STEREO_COUNT>
5

>  <PUBCHEM_ATOM_UDEF_STEREO_COUNT>
0

>  <PUBCHEM_BOND_DEF_STEREO_COUNT>
0

>  <PUBCHEM_BOND_UDEF_STEREO_COUNT>
0

>  <PUBCHEM_ISOTOPIC_ATOM_COUNT>
0

>  <PUBCHEM_COMPONENT_COUNT>
1

>  <PUBCHEM_CACTVS_TAUTO_COUNT>
-1

>  <PUBCHEM_COORDINATE_TYPE>
1
5
255

>  <PUBCHEM_BONDANNOTATIONS>
16  17  5
18  19  8
18  20  8
19  21  8
15  2  5
20  23  8
21  22  8
22  23  8
22  24  8
24  26  8
25  26  8
27  28  8
27  29  8
28  30  8
29  31  8
12  3  5
30  32  8
31  32  8
13  4  6
14  5  6
8  21  8
8  25  8

>  <Favorite_cresset>
false

>  <MW_cresset>
445.4

>  <#Atoms_cresset>
32

>  <SlogP_cresset>
1.1

>  <TPSA_cresset>
186

>  <Flexibility_cresset>
7.6

>  <#RB_cresset>
9

>  <Rof5_cresset>
1

>  <Filename_cresset>
drag.14_726.sdf

>  <Confs_cresset>
0

>  <Poses_cresset>
0

$$$$
Site3d_Baicalin_D
  xed2sdf_05210316543D
 
 49 52  0  0  1  0  0  0  0  0999 V2000
  -45.8963   -0.6124   17.7055 O   0  0  0  0  0  0  0  0  0  0  0  0
  -45.4241   -2.5463   16.2213 O   0  0  0  0  0  0  0  0  0  0  0  0
  -41.8214   -0.5256   18.8729 O   0  0  0  0  0  0  0  0  0  0  0  0
  -42.8682   -2.7554   17.3607 O   0  0  0  0  0  0  0  0  0  0  0  0
  -43.8012    0.9980   20.3391 O   0  0  0  0  0  0  0  0  0  0  0  0
  -46.4910    1.6723   20.4470 O   0  5  0  0  0  0  0  0  0  0  0  0
  -47.0021    1.8150   18.2271 O   0  0  0  0  0  0  0  0  0  0  0  0
  -49.8689   -3.9043   15.6400 O   0  0  0  0  0  0  0  0  0  0  0  0
  -45.8120   -0.3346   14.5557 O   0  0  0  0  0  0  0  0  0  0  0  0
  -48.2676    0.0659   13.4524 O   0  0  0  0  0  0  0  0  0  0  0  0
  -50.6911   -0.7841   13.1953 O   0  0  0  0  0  0  0  0  0  0  0  0
  -43.2193   -0.8538   18.8497 C   0  0  0  0  0  0  0  0  0  0  0  0
  -43.5850   -1.5210   17.5095 C   0  0  0  0  0  0  0  0  0  0  0  0
  -44.0730    0.4119   19.0571 C   0  0  0  0  0  0  0  0  0  0  0  0
  -45.1042   -1.7914   17.4153 C   0  0  0  0  0  0  0  0  0  0  0  0
  -45.5697    0.0597   18.9480 C   0  0  0  0  0  0  0  0  0  0  0  0
  -46.4187    1.2757   19.2317 C   0  0  0  0  0  0  0  0  0  0  0  0
  -46.6065   -2.3172   15.6476 C   0  0  0  0  0  0  0  0  0  0  0  0
  -47.6395   -3.1991   15.8821 C   0  0  0  0  0  0  0  0  0  0  0  0
  -46.8237   -1.2144   14.8212 C   0  0  0  0  0  0  0  0  0  0  0  0
  -48.8947   -3.0039   15.3384 C   0  0  0  0  0  0  0  0  0  0  0  0
  -49.1081   -1.8985   14.5155 C   0  0  0  0  0  0  0  0  0  0  0  0
  -48.0599   -1.0079   14.2594 C   0  0  0  0  0  0  0  0  0  0  0  0
  -50.4314   -1.7168   13.9559 C   0  0  0  0  0  0  0  0  0  0  0  0
  -51.1307   -3.6871   15.1442 C   0  0  0  0  0  0  0  0  0  0  0  0
  -51.4400   -2.6465   14.3156 C   0  0  0  0  0  0  0  0  0  0  0  0
  -52.1677   -4.6632   15.5669 C   0  0  0  0  0  0  0  0  0  0  0  0
  -53.4557   -4.5063   15.0770 C   0  0  0  0  0  0  0  0  0  0  0  0
  -51.9142   -5.7258   16.4238 C   0  0  0  0  0  0  0  0  0  0  0  0
  -54.4572   -5.3783   15.4261 C   0  0  0  0  0  0  0  0  0  0  0  0
  -52.9169   -6.5978   16.7736 C   0  0  0  0  0  0  0  0  0  0  0  0
  -54.1895   -6.4271   16.2759 C   0  0  0  0  0  0  0  0  0  0  0  0
  -43.4081   -1.4933   19.5949 H   0  0  0  0  0  0  0  0  0  0  0  0
  -43.3283   -0.8935   16.7742 H   0  0  0  0  0  0  0  0  0  0  0  0
  -43.8378    1.0750   18.3464 H   0  0  0  0  0  0  0  0  0  0  0  0
  -45.3870   -2.4035   18.1539 H   0  0  0  0  0  0  0  0  0  0  0  0
  -45.7864   -0.6140   19.6547 H   0  0  0  0  0  0  0  0  0  0  0  0
  -41.2668   -1.2569   18.4613 H   0  0  0  0  0  0  0  0  0  0  0  0
  -43.2161   -3.2885   16.5815 H   0  0  0  0  0  0  0  0  0  0  0  0
  -43.7506    0.2981   21.0596 H   0  0  0  0  0  0  0  0  0  0  0  0
  -45.4328   -0.4780   13.6369 H   0  0  0  0  0  0  0  0  0  0  0  0
  -48.3928   -0.2129   12.4937 H   0  0  0  0  0  0  0  0  0  0  0  0
  -47.4767   -3.9991   16.4596 H   0  0  0  0  0  0  0  0  0  0  0  0
  -52.3707   -2.5409   13.9653 H   0  0  0  0  0  0  0  0  0  0  0  0
  -53.6580   -3.7460   14.4596 H   0  0  0  0  0  0  0  0  0  0  0  0
  -50.9931   -5.8575   16.7900 H   0  0  0  0  0  0  0  0  0  0  0  0
  -55.3805   -5.2514   15.0633 H   0  0  0  0  0  0  0  0  0  0  0  0
  -52.7218   -7.3594   17.3914 H   0  0  0  0  0  0  0  0  0  0  0  0
  -54.9171   -7.0638   16.5314 H   0  0  0  0  0  0  0  0  0  0  0  0
  1 15  1  0
  1 16  1  0
  2 18  1  0
  6 17  1  0
  7 17  2  0
  8 21  1  0
  8 25  1  0
  9 20  1  0
 10 23  1  0
 11 24  2  0
 12  3  1  0
 12 13  1  0
 12 14  1  0
 13  4  1  0
 13 15  1  0
 14  5  1  0
 14 16  1  0
 15  2  1  0
 16 17  1  0
 18 19  2  0
 18 20  1  0
 19 21  1  0
 20 23  2  0
 21 22  2  0
 22 23  1  0
 22 24  1  0
 24 26  1  0
 25 26  2  0
 25 27  1  0
 27 28  2  0
 27 29  1  0
 28 30  1  0
 29 31  2  0
 30 32  2  0
 31 32  1  0
  3 38  1  0
  4 39  1  0
  5 40  1  0
  9 41  1  0
 10 42  1  0
 12 33  1  0
 13 34  1  0
 14 35  1  0
 15 36  1  0
 16 37  1  0
 19 43  1  0
 26 44  1  0
 28 45  1  0
 29 46  1  0
 30 47  1  0
 31 48  1  0
 32 49  1  0
M  CHG  1   6  -1
M  END
>  <LF dG>
-7.115

>  <LF VSscore>
-11.362

>  <LF Rank Score>
-11.912

>  <LF LE>
-0.222

>  <LF Structure Name>
C:\Users\Odara\AppData\Local\Temp\LeadFinder_1632_1\Ligand_1.sdf

>  <LF SDF id>
0

>  <LF Pose rank>
0

>  <LF version>
2001 1, 19 January 2019

>  <PUBCHEM_COMPOUND_CID>
64982

>  <PUBCHEM_COMPOUND_CANONICALIZED>
1

>  <PUBCHEM_CACTVS_COMPLEXITY>
748

>  <PUBCHEM_CACTVS_HBOND_ACCEPTOR>
11

>  <PUBCHEM_CACTVS_HBOND_DONOR>
6

>  <PUBCHEM_CACTVS_ROTATABLE_BOND>
4

>  <PUBCHEM_CACTVS_SUBSKEYS>
AAADceB4PAAAAAAAAAAAAAAAAAAAAAAAAAA0YIEAAAAAAACBQAAAGgAACAAADBSwmAMwDoAABgCIAqDSCAICCAAkIAAIiAFGiMgdNzaGNR6ieWOl4BUPuQfK7LzOIQABCAAIQABCAAIQABCAAAAAAAAAAA==

>  <PUBCHEM_IUPAC_OPENEYE_NAME>
(2S,3S,4S,5R,6S)-6-(5,6-dihydroxy-4-oxo-2-phenyl-chromen-7-yl)oxy-3,4,5-trihydroxy-tetrahydropyran-2-carboxylic acid

>  <PUBCHEM_IUPAC_CAS_NAME>
(2S,3S,4S,5R,6S)-6-[(5,6-dihydroxy-4-oxo-2-phenyl-1-benzopyran-7-yl)oxy]-3,4,5-trihydroxy-2-oxanecarboxylic acid

>  <PUBCHEM_IUPAC_NAME_MARKUP>
(2<I>S</I>,3<I>S</I>,4<I>S</I>,5<I>R</I>,6<I>S</I>)-6-(5,6-dihydroxy-4-oxo-2-phenylchromen-7-yl)oxy-3,4,5-trihydroxyoxane-2-carboxylic acid

>  <PUBCHEM_IUPAC_NAME>
(2S,3S,4S,5R,6S)-6-(5,6-dihydroxy-4-oxo-2-phenylchromen-7-yl)oxy-3,4,5-trihydroxyoxane-2-carboxylic acid

>  <PUBCHEM_IUPAC_SYSTEMATIC_NAME>
(2S,3S,4S,5R,6S)-6-[5,6-bis(oxidanyl)-4-oxidanylidene-2-phenyl-chromen-7-yl]oxy-3,4,5-tris(oxidanyl)oxane-2-carboxylic acid

>  <PUBCHEM_IUPAC_TRADITIONAL_NAME>
(2S,3S,4S,5R,6S)-6-(5,6-dihydroxy-4-keto-2-phenyl-chromen-7-yl)oxy-3,4,5-trihydroxy-tetrahydropyran-2-carboxylic acid

>  <PUBCHEM_IUPAC_INCHI>
InChI=1S/C21H18O11/c22-9-6-10(8-4-2-1-3-5-8)30-11-7-12(14(23)15(24)13(9)11)31-21-18(27)16(25)17(26)19(32-21)20(28)29/h1-7,16-19,21,23-27H,(H,28,29)/t16-,17-,18+,19-,21+/m0/s1

>  <PUBCHEM_IUPAC_INCHIKEY>
IKIIZLYTISPENI-ZFORQUDYSA-N

>  <PUBCHEM_XLOGP3_AA>
1.1

>  <PUBCHEM_EXACT_MASS>
446.084911

>  <PUBCHEM_MOLECULAR_FORMULA>
C21H18O11

>  <PUBCHEM_MOLECULAR_WEIGHT>
446.4

>  <PUBCHEM_OPENEYE_CAN_SMILES>
C1=CC=C(C=C1)C2=CC(=O)C3=C(C(=C(C=C3O2)OC4C(C(C(C(O4)C(=O)O)O)O)O)O)O

>  <PUBCHEM_OPENEYE_ISO_SMILES>
C1=CC=C(C=C1)C2=CC(=O)C3=C(C(=C(C=C3O2)O[C@H]4[C@@H]([C@H]([C@@H]([C@H](O4)C(=O)O)O)O)O)O)O

>  <PUBCHEM_CACTVS_TPSA>
183

>  <PUBCHEM_MONOISOTOPIC_WEIGHT>
446.084911

>  <PUBCHEM_TOTAL_CHARGE>
0

>  <PUBCHEM_HEAVY_ATOM_COUNT>
32

>  <PUBCHEM_ATOM_DEF_STEREO_COUNT>
5

>  <PUBCHEM_ATOM_UDEF_STEREO_COUNT>
0

>  <PUBCHEM_BOND_DEF_STEREO_COUNT>
0

>  <PUBCHEM_BOND_UDEF_STEREO_COUNT>
0

>  <PUBCHEM_ISOTOPIC_ATOM_COUNT>
0

>  <PUBCHEM_COMPONENT_COUNT>
1

>  <PUBCHEM_CACTVS_TAUTO_COUNT>
-1

>  <PUBCHEM_COORDINATE_TYPE>
1
5
255

>  <PUBCHEM_BONDANNOTATIONS>
16  17  5
18  19  8
18  20  8
19  21  8
15  2  5
20  23  8
21  22  8
22  23  8
22  24  8
24  26  8
25  26  8
27  28  8
27  29  8
28  30  8
29  31  8
12  3  5
30  32  8
31  32  8
13  4  6
14  5  6
8  21  8
8  25  8

>  <Favorite_cresset>
false

>  <MW_cresset>
445.4

>  <#Atoms_cresset>
32

>  <SlogP_cresset>
1.1

>  <TPSA_cresset>
186

>  <Flexibility_cresset>
7.6

>  <#RB_cresset>
9

>  <Rof5_cresset>
1

>  <Filename_cresset>
drag.50_816.sdf

>  <Confs_cresset>
0

>  <Poses_cresset>
0

$$$$
W_Site3d_Wogonin_D
  xed2sdf_05210316543D
 
 33 35  0  0  0  0  0  0  0  0999 V2000
  -50.2266   -4.2219   16.1471 O   0  0  0  0  0  0  0  0  0  0  0  0
  -48.1132   -4.6782   17.7587 O   0  0  0  0  0  0  0  0  0  0  0  0
  -47.6595   -0.7427   13.9706 O   0  0  0  0  0  0  0  0  0  0  0  0
  -45.8105   -3.2248   17.5226 O   0  0  0  0  0  0  0  0  0  0  0  0
  -50.2028   -1.3868   13.2716 O   0  0  0  0  0  0  0  0  0  0  0  0
  -49.0016   -2.4639   15.0021 C   0  0  0  0  0  0  0  0  0  0  0  0
  -49.1044   -3.4688   15.9706 C   0  0  0  0  0  0  0  0  0  0  0  0
  -51.2946   -4.0170   15.3114 C   0  0  0  0  0  0  0  0  0  0  0  0
  -48.0277   -3.7245   16.8102 C   0  0  0  0  0  0  0  0  0  0  0  0
  -50.1587   -2.2451   14.1518 C   0  0  0  0  0  0  0  0  0  0  0  0
  -47.8096   -1.7273   14.8960 C   0  0  0  0  0  0  0  0  0  0  0  0
  -51.3010   -3.0642   14.3361 C   0  0  0  0  0  0  0  0  0  0  0  0
  -52.4710   -4.9005   15.5217 C   0  0  0  0  0  0  0  0  0  0  0  0
  -46.8654   -2.9860   16.6980 C   0  0  0  0  0  0  0  0  0  0  0  0
  -46.7632   -1.9933   15.7383 C   0  0  0  0  0  0  0  0  0  0  0  0
  -52.3922   -5.8856   16.4947 C   0  0  0  0  0  0  0  0  0  0  0  0
  -53.6458   -4.7896   14.7901 C   0  0  0  0  0  0  0  0  0  0  0  0
  -53.4475   -6.7323   16.7302 C   0  0  0  0  0  0  0  0  0  0  0  0
  -54.7012   -5.6366   15.0263 C   0  0  0  0  0  0  0  0  0  0  0  0
  -54.6050   -6.6092   15.9957 C   0  0  0  0  0  0  0  0  0  0  0  0
  -48.0675   -6.0525   17.3244 C   0  0  0  0  0  0  0  0  0  0  0  0
  -47.0668   -1.0216   13.2120 H   0  0  0  0  0  0  0  0  0  0  0  0
  -45.0324   -3.6275   17.0293 H   0  0  0  0  0  0  0  0  0  0  0  0
  -52.1059   -2.9441   13.7550 H   0  0  0  0  0  0  0  0  0  0  0  0
  -45.9174   -1.4654   15.6595 H   0  0  0  0  0  0  0  0  0  0  0  0
  -51.5547   -5.9809   17.0328 H   0  0  0  0  0  0  0  0  0  0  0  0
  -53.7244   -4.0857   14.0841 H   0  0  0  0  0  0  0  0  0  0  0  0
  -53.3751   -7.4380   17.4351 H   0  0  0  0  0  0  0  0  0  0  0  0
  -55.5419   -5.5464   14.4924 H   0  0  0  0  0  0  0  0  0  0  0  0
  -55.3742   -7.2250   16.1656 H   0  0  0  0  0  0  0  0  0  0  0  0
  -47.9740   -6.0765   16.3293 H   0  0  0  0  0  0  0  0  0  0  0  0
  -47.2880   -6.5146   17.7472 H   0  0  0  0  0  0  0  0  0  0  0  0
  -48.9091   -6.5195   17.5960 H   0  0  0  0  0  0  0  0  0  0  0  0
  1  7  1  0
  1  8  1  0
  2  9  1  0
  2 21  1  0
  3 11  1  0
  4 14  1  0
  5 10  2  0
  6  7  2  0
  6 10  1  0
  6 11  1  0
  7  9  1  0
  8 12  2  0
  8 13  1  0
  9 14  2  0
 10 12  1  0
 11 15  2  0
 13 16  2  0
 13 17  1  0
 14 15  1  0
 16 18  1  0
 17 19  2  0
 18 20  2  0
 19 20  1  0
  3 22  1  0
  4 23  1  0
 12 24  1  0
 15 25  1  0
 16 26  1  0
 17 27  1  0
 18 28  1  0
 19 29  1  0
 20 30  1  0
 21 31  1  0
 21 32  1  0
 21 33  1  0
M  END
>  <LF dG>
-7.041

>  <LF VSscore>
-8.377

>  <LF Rank Score>
-10.864

>  <LF LE>
-0.335

>  <LF Structure Name>
C:\Users\Odara\AppData\Local\Temp\LeadFinder_7400_1\Ligand_1.sdf

>  <LF SDF id>
0

>  <LF Pose rank>
0

>  <LF version>
2001 1, 19 January 2019

>  <PUBCHEM_COMPOUND_CID>
5281703

>  <PUBCHEM_COMPOUND_CANONICALIZED>
1

>  <PUBCHEM_CACTVS_COMPLEXITY>
426

>  <PUBCHEM_CACTVS_HBOND_ACCEPTOR>
5

>  <PUBCHEM_CACTVS_HBOND_DONOR>
2

>  <PUBCHEM_CACTVS_ROTATABLE_BOND>
2

>  <PUBCHEM_CACTVS_SUBSKEYS>
AAADccB4OAAAAAAAAAAAAAAAAAAAAAAAAAAwYIAAAAAAAACBQAAAGgAACAAADASAmAIyBoAABgCIAqBSAAACCAAkIAAIiAEGiMgNJzaGNRqCeWOl4BULuQfK7LzOIQABCAAIQABCAAIQABCAAAAAAAAAAA==

>  <PUBCHEM_IUPAC_OPENEYE_NAME>
5,7-dihydroxy-8-methoxy-2-phenyl-chromen-4-one

>  <PUBCHEM_IUPAC_CAS_NAME>
5,7-dihydroxy-8-methoxy-2-phenyl-1-benzopyran-4-one

>  <PUBCHEM_IUPAC_NAME_MARKUP>
5,7-dihydroxy-8-methoxy-2-phenylchromen-4-one

>  <PUBCHEM_IUPAC_NAME>
5,7-dihydroxy-8-methoxy-2-phenylchromen-4-one

>  <PUBCHEM_IUPAC_SYSTEMATIC_NAME>
8-methoxy-5,7-bis(oxidanyl)-2-phenyl-chromen-4-one

>  <PUBCHEM_IUPAC_TRADITIONAL_NAME>
5,7-dihydroxy-8-methoxy-2-phenyl-chromone

>  <PUBCHEM_IUPAC_INCHI>
InChI=1S/C16H12O5/c1-20-15-12(19)7-10(17)14-11(18)8-13(21-16(14)15)9-5-3-2-4-6-9/h2-8,17,19H,1H3

>  <PUBCHEM_IUPAC_INCHIKEY>
XLTFNNCXVBYBSX-UHFFFAOYSA-N

>  <PUBCHEM_XLOGP3_AA>
3

>  <PUBCHEM_EXACT_MASS>
284.068473

>  <PUBCHEM_MOLECULAR_FORMULA>
C16H12O5

>  <PUBCHEM_MOLECULAR_WEIGHT>
284.26

>  <PUBCHEM_OPENEYE_CAN_SMILES>
COC1=C(C=C(C2=C1OC(=CC2=O)C3=CC=CC=C3)O)O

>  <PUBCHEM_OPENEYE_ISO_SMILES>
COC1=C(C=C(C2=C1OC(=CC2=O)C3=CC=CC=C3)O)O

>  <PUBCHEM_CACTVS_TPSA>
76

>  <PUBCHEM_MONOISOTOPIC_WEIGHT>
284.068473

>  <PUBCHEM_TOTAL_CHARGE>
0

>  <PUBCHEM_HEAVY_ATOM_COUNT>
21

>  <PUBCHEM_ATOM_DEF_STEREO_COUNT>
0

>  <PUBCHEM_ATOM_UDEF_STEREO_COUNT>
0

>  <PUBCHEM_BOND_DEF_STEREO_COUNT>
0

>  <PUBCHEM_BOND_UDEF_STEREO_COUNT>
0

>  <PUBCHEM_ISOTOPIC_ATOM_COUNT>
0

>  <PUBCHEM_COMPONENT_COUNT>
1

>  <PUBCHEM_CACTVS_TAUTO_COUNT>
-1

>  <PUBCHEM_COORDINATE_TYPE>
1
5
255

>  <PUBCHEM_BONDANNOTATIONS>
1  7  8
1  8  8
10  12  8
11  15  8
13  16  8
13  17  8
14  15  8
16  18  8
17  19  8
18  20  8
19  20  8
6  10  8
6  11  8
6  7  8
7  9  8
8  12  8
9  14  8

>  <Favorite_cresset>
false

>  <MW_cresset>
284.3

>  <#Atoms_cresset>
21

>  <SlogP_cresset>
2.6

>  <TPSA_cresset>
76

>  <Flexibility_cresset>
1.7

>  <#RB_cresset>
4

>  <Rof5_cresset>
0

>  <Filename_cresset>
drag.42_1.sdf

>  <Confs_cresset>
0

>  <Poses_cresset>
0

$$$$
W_Site3d_Wogonin_D
  xed2sdf_05210316543D
 
 33 35  0  0  0  0  0  0  0  0999 V2000
  -50.1686   -4.1280   16.1405 O   0  0  0  0  0  0  0  0  0  0  0  0
  -48.0376   -4.5414   17.7404 O   0  0  0  0  0  0  0  0  0  0  0  0
  -47.6899   -0.5877   13.9602 O   0  0  0  0  0  0  0  0  0  0  0  0
  -45.7688   -3.0369   17.4965 O   0  0  0  0  0  0  0  0  0  0  0  0
  -50.2219   -1.2860   13.2722 O   0  0  0  0  0  0  0  0  0  0  0  0
  -48.9885   -2.3405   14.9939 C   0  0  0  0  0  0  0  0  0  0  0  0
  -49.0643   -3.3498   15.9603 C   0  0  0  0  0  0  0  0  0  0  0  0
  -51.2451   -3.9447   15.3106 C   0  0  0  0  0  0  0  0  0  0  0  0
  -47.9780   -3.5838   16.7939 C   0  0  0  0  0  0  0  0  0  0  0  0
  -50.1545   -2.1453   14.1499 C   0  0  0  0  0  0  0  0  0  0  0  0
  -47.8136   -1.5775   14.8838 C   0  0  0  0  0  0  0  0  0  0  0  0
  -51.2774   -2.9899   14.3379 C   0  0  0  0  0  0  0  0  0  0  0  0
  -52.4006   -4.8545   15.5245 C   0  0  0  0  0  0  0  0  0  0  0  0
  -46.8328   -2.8194   16.6778 C   0  0  0  0  0  0  0  0  0  0  0  0
  -46.7574   -1.8224   15.7201 C   0  0  0  0  0  0  0  0  0  0  0  0
  -52.3097   -5.8155   16.5202 C   0  0  0  0  0  0  0  0  0  0  0  0
  -53.5674   -4.7911   14.7746 C   0  0  0  0  0  0  0  0  0  0  0  0
  -53.3456   -6.6848   16.7602 C   0  0  0  0  0  0  0  0  0  0  0  0
  -54.6033   -5.6606   15.0152 C   0  0  0  0  0  0  0  0  0  0  0  0
  -54.4953   -6.6088   16.0073 C   0  0  0  0  0  0  0  0  0  0  0  0
  -48.0641   -5.9131   17.2963 C   0  0  0  0  0  0  0  0  0  0  0  0
  -47.0836   -0.8462   13.2051 H   0  0  0  0  0  0  0  0  0  0  0  0
  -45.0061   -3.4775   17.0116 H   0  0  0  0  0  0  0  0  0  0  0  0
  -52.0877   -2.8861   13.7610 H   0  0  0  0  0  0  0  0  0  0  0  0
  -45.9238   -1.2758   15.6385 H   0  0  0  0  0  0  0  0  0  0  0  0
  -51.4778   -5.8766   17.0717 H   0  0  0  0  0  0  0  0  0  0  0  0
  -53.6545   -4.1053   14.0521 H   0  0  0  0  0  0  0  0  0  0  0  0
  -53.2646   -7.3726   17.4815 H   0  0  0  0  0  0  0  0  0  0  0  0
  -55.4384   -5.6047   14.4680 H   0  0  0  0  0  0  0  0  0  0  0  0
  -55.2503   -7.2410   16.1804 H   0  0  0  0  0  0  0  0  0  0  0  0
  -48.0319   -5.9325   16.2971 H   0  0  0  0  0  0  0  0  0  0  0  0
  -47.2763   -6.4038   17.6682 H   0  0  0  0  0  0  0  0  0  0  0  0
  -48.9029   -6.3542   17.6158 H   0  0  0  0  0  0  0  0  0  0  0  0
  1  7  1  0
  1  8  1  0
  2  9  1  0
  2 21  1  0
  3 11  1  0
  4 14  1  0
  5 10  2  0
  6  7  2  0
  6 10  1  0
  6 11  1  0
  7  9  1  0
  8 12  2  0
  8 13  1  0
  9 14  2  0
 10 12  1  0
 11 15  2  0
 13 16  2  0
 13 17  1  0
 14 15  1  0
 16 18  1  0
 17 19  2  0
 18 20  2  0
 19 20  1  0
  3 22  1  0
  4 23  1  0
 12 24  1  0
 15 25  1  0
 16 26  1  0
 17 27  1  0
 18 28  1  0
 19 29  1  0
 20 30  1  0
 21 31  1  0
 21 32  1  0
 21 33  1  0
M  END
>  <LF dG>
-7.311

>  <LF VSscore>
-8.329

>  <LF Rank Score>
-10.811

>  <LF LE>
-0.348

>  <LF Structure Name>
C:\Users\Odara\AppData\Local\Temp\LeadFinder_3632_1\Ligand_1.sdf

>  <LF SDF id>
0

>  <LF Pose rank>
0

>  <LF version>
2001 1, 19 January 2019

>  <PUBCHEM_COMPOUND_CID>
5281703

>  <PUBCHEM_COMPOUND_CANONICALIZED>
1

>  <PUBCHEM_CACTVS_COMPLEXITY>
426

>  <PUBCHEM_CACTVS_HBOND_ACCEPTOR>
5

>  <PUBCHEM_CACTVS_HBOND_DONOR>
2

>  <PUBCHEM_CACTVS_ROTATABLE_BOND>
2

>  <PUBCHEM_CACTVS_SUBSKEYS>
AAADccB4OAAAAAAAAAAAAAAAAAAAAAAAAAAwYIAAAAAAAACBQAAAGgAACAAADASAmAIyBoAABgCIAqBSAAACCAAkIAAIiAEGiMgNJzaGNRqCeWOl4BULuQfK7LzOIQABCAAIQABCAAIQABCAAAAAAAAAAA==

>  <PUBCHEM_IUPAC_OPENEYE_NAME>
5,7-dihydroxy-8-methoxy-2-phenyl-chromen-4-one

>  <PUBCHEM_IUPAC_CAS_NAME>
5,7-dihydroxy-8-methoxy-2-phenyl-1-benzopyran-4-one

>  <PUBCHEM_IUPAC_NAME_MARKUP>
5,7-dihydroxy-8-methoxy-2-phenylchromen-4-one

>  <PUBCHEM_IUPAC_NAME>
5,7-dihydroxy-8-methoxy-2-phenylchromen-4-one

>  <PUBCHEM_IUPAC_SYSTEMATIC_NAME>
8-methoxy-5,7-bis(oxidanyl)-2-phenyl-chromen-4-one

>  <PUBCHEM_IUPAC_TRADITIONAL_NAME>
5,7-dihydroxy-8-methoxy-2-phenyl-chromone

>  <PUBCHEM_IUPAC_INCHI>
InChI=1S/C16H12O5/c1-20-15-12(19)7-10(17)14-11(18)8-13(21-16(14)15)9-5-3-2-4-6-9/h2-8,17,19H,1H3

>  <PUBCHEM_IUPAC_INCHIKEY>
XLTFNNCXVBYBSX-UHFFFAOYSA-N

>  <PUBCHEM_XLOGP3_AA>
3

>  <PUBCHEM_EXACT_MASS>
284.068473

>  <PUBCHEM_MOLECULAR_FORMULA>
C16H12O5

>  <PUBCHEM_MOLECULAR_WEIGHT>
284.26

>  <PUBCHEM_OPENEYE_CAN_SMILES>
COC1=C(C=C(C2=C1OC(=CC2=O)C3=CC=CC=C3)O)O

>  <PUBCHEM_OPENEYE_ISO_SMILES>
COC1=C(C=C(C2=C1OC(=CC2=O)C3=CC=CC=C3)O)O

>  <PUBCHEM_CACTVS_TPSA>
76

>  <PUBCHEM_MONOISOTOPIC_WEIGHT>
284.068473

>  <PUBCHEM_TOTAL_CHARGE>
0

>  <PUBCHEM_HEAVY_ATOM_COUNT>
21

>  <PUBCHEM_ATOM_DEF_STEREO_COUNT>
0

>  <PUBCHEM_ATOM_UDEF_STEREO_COUNT>
0

>  <PUBCHEM_BOND_DEF_STEREO_COUNT>
0

>  <PUBCHEM_BOND_UDEF_STEREO_COUNT>
0

>  <PUBCHEM_ISOTOPIC_ATOM_COUNT>
0

>  <PUBCHEM_COMPONENT_COUNT>
1

>  <PUBCHEM_CACTVS_TAUTO_COUNT>
-1

>  <PUBCHEM_COORDINATE_TYPE>
1
5
255

>  <PUBCHEM_BONDANNOTATIONS>
1  7  8
1  8  8
10  12  8
11  15  8
13  16  8
13  17  8
14  15  8
16  18  8
17  19  8
18  20  8
19  20  8
6  10  8
6  11  8
6  7  8
7  9  8
8  12  8
9  14  8

>  <Favorite_cresset>
false

>  <MW_cresset>
284.3

>  <#Atoms_cresset>
21

>  <SlogP_cresset>
2.6

>  <TPSA_cresset>
76

>  <Flexibility_cresset>
1.7

>  <#RB_cresset>
4

>  <Rof5_cresset>
0

>  <Filename_cresset>
drag.46_288.sdf

>  <Confs_cresset>
0

>  <Poses_cresset>
0

$$$$
W_Site3d_VTRRT_D
  xed2sdf_05210316543D
 
 92 97  0  0  1  0  0  0  0  0999 V2000
  -45.3418  -12.2866   19.2035 C   0  0  0  0  0  0  0  0  0  0  0  0
  -46.3821  -11.4394   19.5097 C   0  0  0  0  0  0  0  0  0  0  0  0
  -46.2028  -10.0739   19.4661 C   0  0  0  0  0  0  0  0  0  0  0  0
  -44.9728   -9.5634   19.1115 C   0  0  0  0  0  0  0  0  0  0  0  0
  -43.9315  -10.4092   18.8039 C   0  0  0  0  0  0  0  0  0  0  0  0
  -44.1159  -11.7716   18.8498 C   0  0  0  0  0  0  0  0  0  0  0  0
  -47.3527   -9.1347   19.8029 C   0  0  0  0  0  0  0  0  0  0  0  0
  -48.3383   -8.8596   18.6439 C   0  0  0  0  0  0  0  0  0  0  0  0
  -47.5994   -8.1627   17.5331 N   0  3  0  0  0  0  0  0  0  0  0  0
  -49.5451   -8.0153   19.1243 C   0  0  0  0  0  0  0  0  0  0  0  0
  -50.2160   -8.6631   20.2174 O   0  0  0  0  0  0  0  0  0  0  0  0
  -50.5377   -7.7694   17.9611 C   0  0  0  0  0  0  0  0  0  0  0  0
  -50.7542   -6.2865   17.5679 C   0  0  0  0  0  0  0  0  0  0  0  0
  -52.1820   -5.7914   17.8992 C   0  0  0  0  0  0  0  0  0  0  0  0
  -53.2145   -6.0166   16.8032 C   0  0  0  0  0  0  0  0  0  0  0  0
  -53.7240   -7.2768   16.5777 C   0  0  0  0  0  0  0  0  0  0  0  0
  -54.6611   -7.4820   15.5907 C   0  0  0  0  0  0  0  0  0  0  0  0
  -55.0939   -6.4259   14.8224 C   0  0  0  0  0  0  0  0  0  0  0  0
  -54.5882   -5.1655   15.0429 C   0  0  0  0  0  0  0  0  0  0  0  0
  -53.6513   -4.9623   16.0305 C   0  0  0  0  0  0  0  0  0  0  0  0
  -49.7528   -5.3755   18.1457 N   0  0  0  0  0  0  0  0  0  0  0  0
  -49.9080   -3.9369   17.7253 P   0  0  0  0  0  0  0  0  0  0  0  0
  -48.4596   -3.2799   17.4815 O   0  0  0  0  0  0  0  0  0  0  0  0
  -50.6018   -3.8221   16.2772 O   0  0  0  0  0  0  0  0  0  0  0  0
  -50.6657   -3.1443   18.7591 O   0  0  0  0  0  0  0  0  0  0  0  0
  -47.4345   -4.0804   16.8703 C   0  0  0  0  0  0  0  0  0  0  0  0
  -50.2054   -2.8672   15.3891 C   0  0  0  0  0  0  0  0  0  0  0  0
  -49.6059   -3.2420   14.2028 C   0  0  0  0  0  0  0  0  0  0  0  0
  -49.2050   -2.2853   13.3005 C   0  0  0  0  0  0  0  0  0  0  0  0
  -49.4051   -0.9511   13.5765 C   0  0  0  0  0  0  0  0  0  0  0  0
  -50.0061   -0.5733   14.7565 C   0  0  0  0  0  0  0  0  0  0  0  0
  -50.4049   -1.5275   15.6623 C   0  0  0  0  0  0  0  0  0  0  0  0
  -46.0690   -3.3725   16.9336 C   0  0  0  0  0  0  0  0  0  0  0  0
  -45.9618   -2.5039   18.0711 O   0  0  0  0  0  0  0  0  0  0  0  0
  -45.0147   -1.4510   17.7985 C   0  0  0  0  0  0  0  0  0  0  0  0
  -44.7372   -1.5080   16.2749 C   0  0  0  0  0  0  0  0  0  0  0  0
  -45.7948   -2.4719   15.7212 C   0  0  0  0  0  0  0  0  0  0  0  0
  -46.9670   -1.7356   15.3391 O   0  0  0  0  0  0  0  0  0  0  0  0
  -44.8212   -0.2258   15.6323 O   0  0  0  0  0  0  0  0  0  0  0  0
  -45.5765   -0.1306   18.3184 C   0  0  0  0  0  0  0  0  0  0  0  0
  -43.7726   -1.7546   18.5232 C   0  0  0  0  0  0  0  0  0  0  0  0
  -42.8126   -1.9904   19.0835 N   0  0  0  0  0  0  0  0  0  0  0  0
  -46.9086    0.1053   18.4226 N   0  0  0  0  0  0  0  0  0  0  0  0
  -47.0091    1.3709   18.9068 C   0  0  0  0  0  0  0  0  0  0  0  0
  -45.7842    1.9207   19.1090 C   0  0  0  0  0  0  0  0  0  0  0  0
  -44.8641    0.9416   18.7242 C   0  0  0  0  0  0  0  0  0  0  0  0
  -48.0242   -0.6354   18.1520 N   0  0  0  0  0  0  0  0  0  0  0  0
  -49.1934   -0.0810   18.3726 C   0  0  0  0  0  0  0  0  0  0  0  0
  -49.4148    1.1845   18.8528 N   0  0  0  0  0  0  0  0  0  0  0  0
  -48.3106    1.8982   19.1147 C   0  0  0  0  0  0  0  0  0  0  0  0
  -48.4861    3.1739   19.5950 N   0  0  0  0  0  0  0  0  0  0  0  0
  -48.7038   -9.7274   18.3071 H   0  0  0  0  0  0  0  0  0  0  0  0
  -49.1982   -7.1326   19.4410 H   0  0  0  0  0  0  0  0  0  0  0  0
  -50.6352   -6.2658   16.5750 H   0  0  0  0  0  0  0  0  0  0  0  0
  -45.4146   -4.1279   16.9729 H   0  0  0  0  0  0  0  0  0  0  0  0
  -43.8009   -1.8117   16.0983 H   0  0  0  0  0  0  0  0  0  0  0  0
  -45.5138   -2.9814   14.9080 H   0  0  0  0  0  0  0  0  0  0  0  0
  -45.4768  -13.2769   19.2380 H   0  0  0  0  0  0  0  0  0  0  0  0
  -47.2723  -11.8164   19.7651 H   0  0  0  0  0  0  0  0  0  0  0  0
  -44.8362   -8.5735   19.0773 H   0  0  0  0  0  0  0  0  0  0  0  0
  -43.0411  -10.0333   18.5475 H   0  0  0  0  0  0  0  0  0  0  0  0
  -43.3598  -12.3871   18.6261 H   0  0  0  0  0  0  0  0  0  0  0  0
  -46.9650   -8.2611   20.0964 H   0  0  0  0  0  0  0  0  0  0  0  0
  -47.8848   -9.5921   20.5152 H   0  0  0  0  0  0  0  0  0  0  0  0
  -46.9271   -7.6392   17.8525 H   0  0  0  0  0  0  0  0  0  0  0  0
  -48.1476   -7.6220   17.0479 H   0  0  0  0  0  0  0  0  0  0  0  0
  -50.5002   -9.5969   19.9754 H   0  0  0  0  0  0  0  0  0  0  0  0
  -51.4230   -8.1527   18.2243 H   0  0  0  0  0  0  0  0  0  0  0  0
  -50.1324   -8.2074   17.1586 H   0  0  0  0  0  0  0  0  0  0  0  0
  -52.1351   -4.8102   18.0872 H   0  0  0  0  0  0  0  0  0  0  0  0
  -52.4884   -6.3308   18.6834 H   0  0  0  0  0  0  0  0  0  0  0  0
  -53.4110   -8.0465   17.1341 H   0  0  0  0  0  0  0  0  0  0  0  0
  -55.0275   -8.3987   15.4322 H   0  0  0  0  0  0  0  0  0  0  0  0
  -55.7748   -6.5742   14.1050 H   0  0  0  0  0  0  0  0  0  0  0  0
  -54.9016   -4.3966   14.4855 H   0  0  0  0  0  0  0  0  0  0  0  0
  -53.2852   -4.0451   16.1878 H   0  0  0  0  0  0  0  0  0  0  0  0
  -49.7495   -5.4476   19.1698 H   0  0  0  0  0  0  0  0  0  0  0  0
  -47.6750   -4.2473   15.9141 H   0  0  0  0  0  0  0  0  0  0  0  0
  -47.3668   -4.9449   17.3685 H   0  0  0  0  0  0  0  0  0  0  0  0
  -49.4632   -4.2106   13.9996 H   0  0  0  0  0  0  0  0  0  0  0  0
  -48.7681   -2.5582   12.4435 H   0  0  0  0  0  0  0  0  0  0  0  0
  -49.1138   -0.2559   12.9195 H   0  0  0  0  0  0  0  0  0  0  0  0
  -50.1527    0.3959   14.9544 H   0  0  0  0  0  0  0  0  0  0  0  0
  -50.8393   -1.2520   16.5198 H   0  0  0  0  0  0  0  0  0  0  0  0
  -46.9093   -1.4252   14.3837 H   0  0  0  0  0  0  0  0  0  0  0  0
  -45.0375   -0.3206   14.6543 H   0  0  0  0  0  0  0  0  0  0  0  0
  -45.5826    2.8350   19.4598 H   0  0  0  0  0  0  0  0  0  0  0  0
  -43.8674    1.0203   18.7457 H   0  0  0  0  0  0  0  0  0  0  0  0
  -50.0009   -0.6350   18.1709 H   0  0  0  0  0  0  0  0  0  0  0  0
  -49.2994    3.4873   19.7173 H   0  0  0  0  0  0  0  0  0  0  0  0
  -47.7900    3.6809   19.7804 H   0  0  0  0  0  0  0  0  0  0  0  0
  -47.1767   -8.9083   16.8759 H   0  0  0  0  0  0  0  0  0  0  0  0
  1  2  2  0
  2  3  1  0
  3  4  2  0
  3  7  1  0
  4  5  1  0
  5  6  2  0
  6  1  1  0
  7  8  1  0
  8  9  1  0
  8 10  1  0
 10 11  1  0
 10 12  1  0
 12 13  1  0
 13 14  1  0
 13 21  1  0
 14 15  1  0
 15 16  2  0
 16 17  1  0
 17 18  2  0
 18 19  1  0
 19 20  2  0
 20 15  1  0
 21 22  1  0
 22 23  1  0
 22 24  1  0
 22 25  2  0
 23 26  1  0
 24 27  1  0
 27 28  2  0
 28 29  1  0
 29 30  2  0
 30 31  1  0
 31 32  2  0
 32 27  1  0
 33 26  1  0
 33 34  1  0
 34 35  1  0
 35 36  1  0
 35 40  1  0
 35 41  1  0
 36 37  1  0
 36 39  1  0
 37 33  1  0
 37 38  1  0
 40 43  1  0
 41 42  3  0
 43 44  1  0
 43 47  1  0
 44 45  2  0
 45 46  1  0
 46 40  2  0
 47 48  2  0
 48 49  1  0
 49 50  2  0
 50 44  1  0
 50 51  1  0
  1 58  1  0
  2 59  1  0
  4 60  1  0
  5 61  1  0
  6 62  1  0
  7 63  1  0
  7 64  1  0
  8 52  1  0
  9 65  1  0
  9 66  1  0
  9 92  1  0
 10 53  1  0
 11 67  1  0
 12 68  1  0
 12 69  1  0
 13 54  1  0
 14 70  1  0
 14 71  1  0
 16 72  1  0
 17 73  1  0
 18 74  1  0
 19 75  1  0
 20 76  1  0
 21 77  1  0
 26 78  1  0
 26 79  1  0
 28 80  1  0
 29 81  1  0
 30 82  1  0
 31 83  1  0
 32 84  1  0
 33 55  1  0
 36 56  1  0
 37 57  1  0
 38 85  1  0
 39 86  1  0
 45 87  1  0
 46 88  1  0
 48 89  1  0
 51 90  1  0
 51 91  1  0
M  CHG  1   9   1
M  END
>  <LF dG>
-7.759

>  <LF VSscore>
-13.186

>  <LF Rank Score>
-13.096

>  <LF LE>
-0.152

>  <LF Structure Name>
C:\Users\Odara\AppData\Local\Temp\LeadFinder_9248_1\Ligand_1.sdf

>  <LF SDF id>
0

>  <LF Pose rank>
0

>  <LF version>
2001 1, 19 January 2019

>  <Favorite_cresset>
false

>  <MW_cresset>
714.7

>  <#Atoms_cresset>
51

>  <SlogP_cresset>
4

>  <TPSA_cresset>
225.1

>  <Flexibility_cresset>
17.1

>  <#RB_cresset>
18

>  <Rof5_cresset>
3

>  <Filename_cresset>
drag.12_181.sdf

>  <Confs_cresset>
0

>  <Poses_cresset>
0

$$$$
Site3d_VTRRT_D
  xed2sdf_05210316543D
 
 92 97  0  0  1  0  0  0  0  0999 V2000
  -45.0143   -2.2780   16.9168 C   0  0  0  0  0  0  0  0  0  0  0  0
  -46.2940   -2.0127   16.4854 C   0  0  0  0  0  0  0  0  0  0  0  0
  -46.5044   -1.2165   15.3806 C   0  0  0  0  0  0  0  0  0  0  0  0
  -45.4222   -0.6893   14.7099 C   0  0  0  0  0  0  0  0  0  0  0  0
  -44.1418   -0.9543   15.1390 C   0  0  0  0  0  0  0  0  0  0  0  0
  -43.9374   -1.7492   16.2432 C   0  0  0  0  0  0  0  0  0  0  0  0
  -47.9192   -0.9230   14.9009 C   0  0  0  0  0  0  0  0  0  0  0  0
  -48.7396   -2.1624   14.4746 C   0  0  0  0  0  0  0  0  0  0  0  0
  -48.0172   -2.8610   13.3541 N   0  3  0  0  0  0  0  0  0  0  0  0
  -50.1744   -1.7635   14.0478 C   0  0  0  0  0  0  0  0  0  0  0  0
  -50.1671   -0.5065   13.3512 O   0  0  0  0  0  0  0  0  0  0  0  0
  -51.1088   -1.6837   15.2804 C   0  0  0  0  0  0  0  0  0  0  0  0
  -51.5906   -3.0436   15.8447 C   0  0  0  0  0  0  0  0  0  0  0  0
  -52.0021   -4.0325   14.7280 C   0  0  0  0  0  0  0  0  0  0  0  0
  -52.9932   -5.1083   15.1503 C   0  0  0  0  0  0  0  0  0  0  0  0
  -52.6459   -6.0335   16.1104 C   0  0  0  0  0  0  0  0  0  0  0  0
  -53.5418   -7.0041   16.4974 C   0  0  0  0  0  0  0  0  0  0  0  0
  -54.7919   -7.0546   15.9248 C   0  0  0  0  0  0  0  0  0  0  0  0
  -55.1437   -6.1333   14.9652 C   0  0  0  0  0  0  0  0  0  0  0  0
  -54.2464   -5.1636   14.5797 C   0  0  0  0  0  0  0  0  0  0  0  0
  -50.6209   -3.6772   16.7529 N   0  0  0  0  0  0  0  0  0  0  0  0
  -51.1188   -3.8564   18.1640 P   0  0  0  0  0  0  0  0  0  0  0  0
  -50.9294   -5.3879   18.6195 O   0  0  0  0  0  0  0  0  0  0  0  0
  -50.2006   -3.0536   19.2147 O   0  0  0  0  0  0  0  0  0  0  0  0
  -52.5667   -3.4575   18.2870 O   0  0  0  0  0  0  0  0  0  0  0  0
  -49.6908   -6.0490   18.3131 C   0  0  0  0  0  0  0  0  0  0  0  0
  -49.9683   -1.7195   19.0593 C   0  0  0  0  0  0  0  0  0  0  0  0
  -51.0050   -0.8211   19.2202 C   0  0  0  0  0  0  0  0  0  0  0  0
  -50.7790    0.5263   19.0672 C   0  0  0  0  0  0  0  0  0  0  0  0
  -49.5173    0.9829   18.7578 C   0  0  0  0  0  0  0  0  0  0  0  0
  -48.4803    0.0907   18.6008 C   0  0  0  0  0  0  0  0  0  0  0  0
  -48.7038   -1.2576   18.7493 C   0  0  0  0  0  0  0  0  0  0  0  0
  -49.5016   -7.3014   19.1880 C   0  0  0  0  0  0  0  0  0  0  0  0
  -48.1352   -7.4783   19.5912 O   0  0  0  0  0  0  0  0  0  0  0  0
  -47.8753   -8.8733   19.8483 C   0  0  0  0  0  0  0  0  0  0  0  0
  -49.0907   -9.6484   19.2793 C   0  0  0  0  0  0  0  0  0  0  0  0
  -49.8737   -8.6062   18.4698 C   0  0  0  0  0  0  0  0  0  0  0  0
  -49.4139   -8.6056   17.1094 O   0  0  0  0  0  0  0  0  0  0  0  0
  -48.7194  -10.7669   18.4575 O   0  0  0  0  0  0  0  0  0  0  0  0
  -46.5193   -9.2435   19.2539 C   0  0  0  0  0  0  0  0  0  0  0  0
  -47.8224   -9.0679   21.3042 C   0  0  0  0  0  0  0  0  0  0  0  0
  -47.7822   -9.2189   22.4295 N   0  0  0  0  0  0  0  0  0  0  0  0
  -45.9343  -10.4498   19.4650 N   0  0  0  0  0  0  0  0  0  0  0  0
  -44.7551  -10.3962   18.7919 C   0  0  0  0  0  0  0  0  0  0  0  0
  -44.5959   -9.1999   18.1698 C   0  0  0  0  0  0  0  0  0  0  0  0
  -45.7421   -8.4611   18.4755 C   0  0  0  0  0  0  0  0  0  0  0  0
  -46.2983  -11.5687   20.1590 N   0  0  0  0  0  0  0  0  0  0  0  0
  -45.4688  -12.5859   20.1558 C   0  0  0  0  0  0  0  0  0  0  0  0
  -44.2553  -12.6429   19.5186 N   0  0  0  0  0  0  0  0  0  0  0  0
  -43.9130  -11.5380   18.8410 C   0  0  0  0  0  0  0  0  0  0  0  0
  -42.7026  -11.5502   18.1895 N   0  0  0  0  0  0  0  0  0  0  0  0
  -48.8278   -2.7843   15.2525 H   0  0  0  0  0  0  0  0  0  0  0  0
  -50.5203   -2.4688   13.4290 H   0  0  0  0  0  0  0  0  0  0  0  0
  -52.4021   -2.8228   16.3853 H   0  0  0  0  0  0  0  0  0  0  0  0
  -50.1063   -7.1370   19.9671 H   0  0  0  0  0  0  0  0  0  0  0  0
  -49.6284  -10.0532   20.0189 H   0  0  0  0  0  0  0  0  0  0  0  0
  -50.8601   -8.7633   18.4257 H   0  0  0  0  0  0  0  0  0  0  0  0
  -44.8670   -2.8554   17.7199 H   0  0  0  0  0  0  0  0  0  0  0  0
  -47.0747   -2.3993   16.9760 H   0  0  0  0  0  0  0  0  0  0  0  0
  -45.5681   -0.1113   13.9071 H   0  0  0  0  0  0  0  0  0  0  0  0
  -43.3602   -0.5688   14.6487 H   0  0  0  0  0  0  0  0  0  0  0  0
  -43.0071   -1.9428   16.5555 H   0  0  0  0  0  0  0  0  0  0  0  0
  -47.8598   -0.3039   14.1178 H   0  0  0  0  0  0  0  0  0  0  0  0
  -48.4011   -0.5284   15.6831 H   0  0  0  0  0  0  0  0  0  0  0  0
  -47.3140   -2.3704   13.0493 H   0  0  0  0  0  0  0  0  0  0  0  0
  -48.5624   -3.0125   12.6413 H   0  0  0  0  0  0  0  0  0  0  0  0
  -49.9390   -0.6242   12.3790 H   0  0  0  0  0  0  0  0  0  0  0  0
  -51.9154   -1.1516   15.0228 H   0  0  0  0  0  0  0  0  0  0  0  0
  -50.5661   -1.2643   16.0079 H   0  0  0  0  0  0  0  0  0  0  0  0
  -51.1754   -4.4840   14.3921 H   0  0  0  0  0  0  0  0  0  0  0  0
  -52.4664   -3.4865   14.0304 H   0  0  0  0  0  0  0  0  0  0  0  0
  -51.7379   -5.9998   16.5282 H   0  0  0  0  0  0  0  0  0  0  0  0
  -53.2843   -7.6725   17.1951 H   0  0  0  0  0  0  0  0  0  0  0  0
  -55.4435   -7.7595   16.2054 H   0  0  0  0  0  0  0  0  0  0  0  0
  -56.0518   -6.1682   14.5479 H   0  0  0  0  0  0  0  0  0  0  0  0
  -54.5049   -4.4958   13.8816 H   0  0  0  0  0  0  0  0  0  0  0  0
  -50.3046   -4.5765   16.3713 H   0  0  0  0  0  0  0  0  0  0  0  0
  -48.9326   -5.4170   18.4742 H   0  0  0  0  0  0  0  0  0  0  0  0
  -49.7104   -6.3322   17.3542 H   0  0  0  0  0  0  0  0  0  0  0  0
  -51.9210   -1.1511   19.4479 H   0  0  0  0  0  0  0  0  0  0  0  0
  -51.5314    1.1754   19.1807 H   0  0  0  0  0  0  0  0  0  0  0  0
  -49.3541    1.9632   18.6474 H   0  0  0  0  0  0  0  0  0  0  0  0
  -47.5640    0.4239   18.3781 H   0  0  0  0  0  0  0  0  0  0  0  0
  -47.9502   -1.9049   18.6329 H   0  0  0  0  0  0  0  0  0  0  0  0
  -50.1816   -8.5335   16.4633 H   0  0  0  0  0  0  0  0  0  0  0  0
  -48.1151  -10.4824   17.7050 H   0  0  0  0  0  0  0  0  0  0  0  0
  -43.8205   -8.9085   17.6096 H   0  0  0  0  0  0  0  0  0  0  0  0
  -45.9473   -7.5298   18.1749 H   0  0  0  0  0  0  0  0  0  0  0  0
  -45.7484  -13.3982   20.6674 H   0  0  0  0  0  0  0  0  0  0  0  0
  -42.1912  -12.2649   18.2305 H   0  0  0  0  0  0  0  0  0  0  0  0
  -42.4353  -10.8464   17.7322 H   0  0  0  0  0  0  0  0  0  0  0  0
  -47.6481   -3.8090   13.7166 H   0  0  0  0  0  0  0  0  0  0  0  0
  1  2  2  0
  2  3  1  0
  3  4  2  0
  3  7  1  0
  4  5  1  0
  5  6  2  0
  6  1  1  0
  7  8  1  0
  8  9  1  0
  8 10  1  0
 10 11  1  0
 10 12  1  0
 12 13  1  0
 13 14  1  0
 13 21  1  0
 14 15  1  0
 15 16  2  0
 16 17  1  0
 17 18  2  0
 18 19  1  0
 19 20  2  0
 20 15  1  0
 21 22  1  0
 22 23  1  0
 22 24  1  0
 22 25  2  0
 23 26  1  0
 24 27  1  0
 27 28  2  0
 28 29  1  0
 29 30  2  0
 30 31  1  0
 31 32  2  0
 32 27  1  0
 33 26  1  0
 33 34  1  0
 34 35  1  0
 35 36  1  0
 35 40  1  0
 35 41  1  0
 36 37  1  0
 36 39  1  0
 37 33  1  0
 37 38  1  0
 40 43  1  0
 41 42  3  0
 43 44  1  0
 43 47  1  0
 44 45  2  0
 45 46  1  0
 46 40  2  0
 47 48  2  0
 48 49  1  0
 49 50  2  0
 50 44  1  0
 50 51  1  0
  1 58  1  0
  2 59  1  0
  4 60  1  0
  5 61  1  0
  6 62  1  0
  7 63  1  0
  7 64  1  0
  8 52  1  0
  9 65  1  0
  9 66  1  0
  9 92  1  0
 10 53  1  0
 11 67  1  0
 12 68  1  0
 12 69  1  0
 13 54  1  0
 14 70  1  0
 14 71  1  0
 16 72  1  0
 17 73  1  0
 18 74  1  0
 19 75  1  0
 20 76  1  0
 21 77  1  0
 26 78  1  0
 26 79  1  0
 28 80  1  0
 29 81  1  0
 30 82  1  0
 31 83  1  0
 32 84  1  0
 33 55  1  0
 36 56  1  0
 37 57  1  0
 38 85  1  0
 39 86  1  0
 45 87  1  0
 46 88  1  0
 48 89  1  0
 51 90  1  0
 51 91  1  0
M  CHG  1   9   1
M  END
>  <LF dG>
-8.904

>  <LF VSscore>
-15.219

>  <LF Rank Score>
-13.749

>  <LF LE>
-0.175

>  <LF Structure Name>
C:\Users\Odara\AppData\Local\Temp\LeadFinder_5732_1\Ligand_1.sdf

>  <LF SDF id>
0

>  <LF Pose rank>
0

>  <LF version>
2001 1, 19 January 2019

>  <Favorite_cresset>
false

>  <MW_cresset>
714.7

>  <#Atoms_cresset>
51

>  <SlogP_cresset>
4

>  <TPSA_cresset>
225.1

>  <Flexibility_cresset>
17.1

>  <#RB_cresset>
18

>  <Rof5_cresset>
3

>  <Filename_cresset>
drag.15_84.sdf

>  <Confs_cresset>
0

>  <Poses_cresset>
0

$$$$
Site3d_Wogonoside_D
  xed2sdf_05210316543D
 
 52 55  0  0  1  0  0  0  0  0999 V2000
  -45.8404   -0.3987   17.5646 O   0  0  0  0  0  0  0  0  0  0  0  0
  -45.5117   -2.4384   16.2568 O   0  0  0  0  0  0  0  0  0  0  0  0
  -41.8592   -0.5802   18.8671 O   0  0  0  0  0  0  0  0  0  0  0  0
  -43.0046   -2.7794   17.4188 O   0  0  0  0  0  0  0  0  0  0  0  0
  -43.7182    1.1590   20.1936 O   0  0  0  0  0  0  0  0  0  0  0  0
  -47.3583    1.6023   18.0394 O   0  5  0  0  0  0  0  0  0  0  0  0
  -46.0469    2.4290   19.7131 O   0  0  0  0  0  0  0  0  0  0  0  0
  -49.9676   -3.7596   15.5479 O   0  0  0  0  0  0  0  0  0  0  0  0
  -47.5485   -4.0995   16.7294 O   0  0  0  0  0  0  0  0  0  0  0  0
  -48.1954    0.0473   13.2137 O   0  0  0  0  0  0  0  0  0  0  0  0
  -50.5984   -0.7912   12.8701 O   0  0  0  0  0  0  0  0  0  0  0  0
  -43.2769   -0.7976   18.8174 C   0  0  0  0  0  0  0  0  0  0  0  0
  -43.6609   -1.5058   17.5059 C   0  0  0  0  0  0  0  0  0  0  0  0
  -44.0280    0.5413   18.9354 C   0  0  0  0  0  0  0  0  0  0  0  0
  -45.1910   -1.6859   17.4500 C   0  0  0  0  0  0  0  0  0  0  0  0
  -45.5439    0.2725   18.8082 C   0  0  0  0  0  0  0  0  0  0  0  0
  -46.3786    1.5316   18.8606 C   0  0  0  0  0  0  0  0  0  0  0  0
  -46.6704   -2.2195   15.6199 C   0  0  0  0  0  0  0  0  0  0  0  0
  -47.7247   -3.0847   15.8588 C   0  0  0  0  0  0  0  0  0  0  0  0
  -46.8449   -1.1662   14.7276 C   0  0  0  0  0  0  0  0  0  0  0  0
  -48.9554   -2.9007   15.2398 C   0  0  0  0  0  0  0  0  0  0  0  0
  -49.1099   -1.8458   14.3411 C   0  0  0  0  0  0  0  0  0  0  0  0
  -48.0417   -0.9801   14.0885 C   0  0  0  0  0  0  0  0  0  0  0  0
  -50.3961   -1.6802   13.6974 C   0  0  0  0  0  0  0  0  0  0  0  0
  -51.1938   -3.5637   14.9605 C   0  0  0  0  0  0  0  0  0  0  0  0
  -51.4371   -2.5748   14.0514 C   0  0  0  0  0  0  0  0  0  0  0  0
  -52.2726   -4.4987   15.3739 C   0  0  0  0  0  0  0  0  0  0  0  0
  -48.3251   -4.0762   17.9447 C   0  0  0  0  0  0  0  0  0  0  0  0
  -51.9760   -5.4804   16.3075 C   0  0  0  0  0  0  0  0  0  0  0  0
  -53.5667   -4.4353   14.8751 C   0  0  0  0  0  0  0  0  0  0  0  0
  -52.9359   -6.3666   16.7316 C   0  0  0  0  0  0  0  0  0  0  0  0
  -54.5267   -5.3222   15.2995 C   0  0  0  0  0  0  0  0  0  0  0  0
  -54.2146   -6.2890   16.2282 C   0  0  0  0  0  0  0  0  0  0  0  0
  -43.5372   -1.3804   19.5870 H   0  0  0  0  0  0  0  0  0  0  0  0
  -43.3671   -0.9472   16.7301 H   0  0  0  0  0  0  0  0  0  0  0  0
  -43.7460    1.1645   18.2059 H   0  0  0  0  0  0  0  0  0  0  0  0
  -45.5413   -2.2155   18.2225 H   0  0  0  0  0  0  0  0  0  0  0  0
  -45.7801   -0.2998   19.5938 H   0  0  0  0  0  0  0  0  0  0  0  0
  -41.3571   -1.3469   18.4522 H   0  0  0  0  0  0  0  0  0  0  0  0
  -43.2991   -3.2887   16.6028 H   0  0  0  0  0  0  0  0  0  0  0  0
  -43.4804    2.1295   20.0807 H   0  0  0  0  0  0  0  0  0  0  0  0
  -48.2812   -0.2844   12.2676 H   0  0  0  0  0  0  0  0  0  0  0  0
  -46.0873   -0.5379   14.5507 H   0  0  0  0  0  0  0  0  0  0  0  0
  -52.3431   -2.4822   13.6383 H   0  0  0  0  0  0  0  0  0  0  0  0
  -48.9043   -3.2610   17.9451 H   0  0  0  0  0  0  0  0  0  0  0  0
  -48.8963   -4.8954   17.9962 H   0  0  0  0  0  0  0  0  0  0  0  0
  -47.7129   -4.0559   18.7350 H   0  0  0  0  0  0  0  0  0  0  0  0
  -51.0494   -5.5437   16.6778 H   0  0  0  0  0  0  0  0  0  0  0  0
  -53.8030   -3.7368   14.1998 H   0  0  0  0  0  0  0  0  0  0  0  0
  -52.7056   -7.0682   17.4057 H   0  0  0  0  0  0  0  0  0  0  0  0
  -55.4549   -5.2654   14.9322 H   0  0  0  0  0  0  0  0  0  0  0  0
  -54.9147   -6.9332   16.5362 H   0  0  0  0  0  0  0  0  0  0  0  0
  1 15  1  0
  1 16  1  0
  2 18  1  0
  6 17  1  0
  7 17  2  0
  8 21  1  0
  8 25  1  0
  9 19  1  0
  9 28  1  0
 10 23  1  0
 11 24  2  0
 12  3  1  0
 12 13  1  0
 12 14  1  0
 13  4  1  0
 13 15  1  0
 14  5  1  0
 14 16  1  0
 15  2  1  0
 16 17  1  0
 18 19  2  0
 18 20  1  0
 19 21  1  0
 20 23  2  0
 21 22  2  0
 22 23  1  0
 22 24  1  0
 24 26  1  0
 25 26  2  0
 25 27  1  0
 27 29  2  0
 27 30  1  0
 29 31  1  0
 30 32  2  0
 31 33  2  0
 32 33  1  0
  3 39  1  0
  4 40  1  0
  5 41  1  0
 10 42  1  0
 12 34  1  0
 13 35  1  0
 14 36  1  0
 15 37  1  0
 16 38  1  0
 20 43  1  0
 26 44  1  0
 28 45  1  0
 28 46  1  0
 28 47  1  0
 29 48  1  0
 30 49  1  0
 31 50  1  0
 32 51  1  0
 33 52  1  0
M  CHG  1   6  -1
M  END
>  <LF dG>
-7.045

>  <LF VSscore>
-11.044

>  <LF Rank Score>
-11.148

>  <LF LE>
-0.213

>  <LF Structure Name>
C:\Users\Odara\AppData\Local\Temp\LeadFinder_10344_1\Ligand_1.sdf

>  <LF SDF id>
0

>  <LF Pose rank>
0

>  <LF version>
2001 1, 19 January 2019

>  <PUBCHEM_COMPOUND_CID>
3084961

>  <PUBCHEM_COMPOUND_CANONICALIZED>
1

>  <PUBCHEM_CACTVS_COMPLEXITY>
763

>  <PUBCHEM_CACTVS_HBOND_ACCEPTOR>
11

>  <PUBCHEM_CACTVS_HBOND_DONOR>
5

>  <PUBCHEM_CACTVS_ROTATABLE_BOND>
5

>  <PUBCHEM_CACTVS_SUBSKEYS>
AAADceB4PAAAAAAAAAAAAAAAAAAAAAAAAAA0YIEAAAAAAACBQAAAGgAACAAADBSwmAMyDoAABgCIAqDSCAICCAAkIAAIiAFGiMgdNzaGNR6ieWKl4BUPuQfK7LzOIQABCAAIQABCAAIQABCAAAAAAAAAAA==

>  <PUBCHEM_IUPAC_OPENEYE_NAME>
(2S,3S,4S,5R,6S)-3,4,5-trihydroxy-6-(5-hydroxy-8-methoxy-4-oxo-2-phenyl-chromen-7-yl)oxy-tetrahydropyran-2-carboxylic acid

>  <PUBCHEM_IUPAC_CAS_NAME>
(2S,3S,4S,5R,6S)-3,4,5-trihydroxy-6-[(5-hydroxy-8-methoxy-4-oxo-2-phenyl-1-benzopyran-7-yl)oxy]-2-oxanecarboxylic acid

>  <PUBCHEM_IUPAC_NAME_MARKUP>
(2<I>S</I>,3<I>S</I>,4<I>S</I>,5<I>R</I>,6<I>S</I>)-3,4,5-trihydroxy-6-(5-hydroxy-8-methoxy-4-oxo-2-phenylchromen-7-yl)oxyoxane-2-carboxylic acid

>  <PUBCHEM_IUPAC_NAME>
(2S,3S,4S,5R,6S)-3,4,5-trihydroxy-6-(5-hydroxy-8-methoxy-4-oxo-2-phenylchromen-7-yl)oxyoxane-2-carboxylic acid

>  <PUBCHEM_IUPAC_SYSTEMATIC_NAME>
(2S,3S,4S,5R,6S)-6-(8-methoxy-5-oxidanyl-4-oxidanylidene-2-phenyl-chromen-7-yl)oxy-3,4,5-tris(oxidanyl)oxane-2-carboxylic acid

>  <PUBCHEM_IUPAC_TRADITIONAL_NAME>
(2S,3S,4S,5R,6S)-3,4,5-trihydroxy-6-(5-hydroxy-4-keto-8-methoxy-2-phenyl-chromen-7-yl)oxy-tetrahydropyran-2-carboxylic acid

>  <PUBCHEM_IUPAC_INCHI>
InChI=1S/C22H20O11/c1-30-18-13(32-22-17(27)15(25)16(26)20(33-22)21(28)29)8-11(24)14-10(23)7-12(31-19(14)18)9-5-3-2-4-6-9/h2-8,15-17,20,22,24-27H,1H3,(H,28,29)/t15-,16-,17+,20-,22+/m0/s1

>  <PUBCHEM_IUPAC_INCHIKEY>
LNOHXHDWGCMVCO-NTKSAMNMSA-N

>  <PUBCHEM_XLOGP3_AA>
1.4

>  <PUBCHEM_EXACT_MASS>
460.100561

>  <PUBCHEM_MOLECULAR_FORMULA>
C22H20O11

>  <PUBCHEM_MOLECULAR_WEIGHT>
460.4

>  <PUBCHEM_OPENEYE_CAN_SMILES>
COC1=C(C=C(C2=C1OC(=CC2=O)C3=CC=CC=C3)O)OC4C(C(C(C(O4)C(=O)O)O)O)O

>  <PUBCHEM_OPENEYE_ISO_SMILES>
COC1=C(C=C(C2=C1OC(=CC2=O)C3=CC=CC=C3)O)O[C@H]4[C@@H]([C@H]([C@@H]([C@H](O4)C(=O)O)O)O)O

>  <PUBCHEM_CACTVS_TPSA>
172

>  <PUBCHEM_MONOISOTOPIC_WEIGHT>
460.100561

>  <PUBCHEM_TOTAL_CHARGE>
0

>  <PUBCHEM_HEAVY_ATOM_COUNT>
33

>  <PUBCHEM_ATOM_DEF_STEREO_COUNT>
5

>  <PUBCHEM_ATOM_UDEF_STEREO_COUNT>
0

>  <PUBCHEM_BOND_DEF_STEREO_COUNT>
0

>  <PUBCHEM_BOND_UDEF_STEREO_COUNT>
0

>  <PUBCHEM_ISOTOPIC_ATOM_COUNT>
0

>  <PUBCHEM_COMPONENT_COUNT>
1

>  <PUBCHEM_CACTVS_TAUTO_COUNT>
-1

>  <PUBCHEM_COORDINATE_TYPE>
1
5
255

>  <PUBCHEM_BONDANNOTATIONS>
16  17  5
18  19  8
18  20  8
19  21  8
15  2  5
20  23  8
21  22  8
22  23  8
22  24  8
24  26  8
25  26  8
27  29  8
27  30  8
29  31  8
12  3  5
30  32  8
31  33  8
32  33  8
13  4  6
14  5  6
8  21  8
8  25  8

>  <Favorite_cresset>
false

>  <MW_cresset>
459.4

>  <#Atoms_cresset>
33

>  <SlogP_cresset>
1.4

>  <TPSA_cresset>
175

>  <Flexibility_cresset>
7.6

>  <#RB_cresset>
9

>  <Rof5_cresset>
1

>  <Filename_cresset>
drag.15_312.sdf

>  <Confs_cresset>
0

>  <Poses_cresset>
0

$$$$
