Lopinavir_D
  xed2sdf_05210316543D
 
 94 97  0  0  1  0  0  0  0  0999 V2000
  -60.2205  -24.1065   -3.2116 O   0  0  0  0  0  0  0  0  0  0  0  0
  -56.0915  -20.9665   -3.1406 O   0  0  0  0  0  0  0  0  0  0  0  0
  -54.1865  -18.9565   -6.1386 O   0  0  0  0  0  0  0  0  0  0  0  0
  -60.7915  -22.5125    0.6474 O   0  0  0  0  0  0  0  0  0  0  0  0
  -62.6215  -24.2045    1.9184 O   0  0  0  0  0  0  0  0  0  0  0  0
  -55.7445  -20.5745   -5.9466 N   0  0  0  0  0  0  0  0  0  0  0  0
  -58.2035  -20.1825   -3.4396 N   0  0  0  0  0  0  0  0  0  0  0  0
  -60.2145  -24.3095   -0.6296 N   0  0  0  0  0  0  0  0  0  0  0  0
  -53.8045  -20.8715   -7.2326 N   0  0  0  0  0  0  0  0  0  0  0  0
  -58.6885  -20.7575   -2.1776 C   0  0  0  0  0  0  0  0  0  0  0  0
  -56.6235  -19.7075   -5.1376 C   0  0  0  0  0  0  0  0  0  0  0  0
  -59.7675  -21.7715   -2.6006 C   0  0  0  0  0  0  0  0  0  0  0  0
  -59.2615  -23.2285   -2.6006 C   0  0  0  0  0  0  0  0  0  0  0  0
  -57.9145  -19.3425   -5.9066 C   0  0  0  0  0  0  0  0  0  0  0  0
  -58.9945  -23.6735   -1.1486 C   0  0  0  0  0  0  0  0  0  0  0  0
  -59.2585  -19.6845   -1.2256 C   0  0  0  0  0  0  0  0  0  0  0  0
  -56.9235  -20.3595   -3.8026 C   0  0  0  0  0  0  0  0  0  0  0  0
  -56.1975  -21.9525   -6.2056 C   0  0  0  0  0  0  0  0  0  0  0  0
  -55.0155  -22.8785   -6.5096 C   0  0  0  0  0  0  0  0  0  0  0  0
  -57.7905  -24.6385   -1.0966 C   0  0  0  0  0  0  0  0  0  0  0  0
  -54.5675  -20.0955   -6.4276 C   0  0  0  0  0  0  0  0  0  0  0  0
  -57.6865  -19.3875   -7.4276 C   0  0  0  0  0  0  0  0  0  0  0  0
  -58.3745  -17.9185   -5.5516 C   0  0  0  0  0  0  0  0  0  0  0  0
  -54.2225  -22.2215   -7.6416 C   0  0  0  0  0  0  0  0  0  0  0  0
  -60.5335  -19.0185   -1.7226 C   0  0  0  0  0  0  0  0  0  0  0  0
  -57.9755  -25.8315   -0.1726 C   0  0  0  0  0  0  0  0  0  0  0  0
  -61.0165  -23.6295    0.2054 C   0  0  0  0  0  0  0  0  0  0  0  0
  -61.7625  -19.5465   -1.3916 C   0  0  0  0  0  0  0  0  0  0  0  0
  -60.4705  -17.8865   -2.5056 C   0  0  0  0  0  0  0  0  0  0  0  0
  -57.7615  -25.6995    1.1824 C   0  0  0  0  0  0  0  0  0  0  0  0
  -58.3565  -27.0535   -0.6826 C   0  0  0  0  0  0  0  0  0  0  0  0
  -62.2755  -24.3955    0.5324 C   0  0  0  0  0  0  0  0  0  0  0  0
  -62.9185  -18.9515   -1.8426 C   0  0  0  0  0  0  0  0  0  0  0  0
  -61.6255  -17.2885   -2.9566 C   0  0  0  0  0  0  0  0  0  0  0  0
  -62.8505  -17.8215   -2.6246 C   0  0  0  0  0  0  0  0  0  0  0  0
  -57.9255  -26.7785    2.0194 C   0  0  0  0  0  0  0  0  0  0  0  0
  -58.5215  -28.1345    0.1534 C   0  0  0  0  0  0  0  0  0  0  0  0
  -58.3055  -27.9965    1.5054 C   0  0  0  0  0  0  0  0  0  0  0  0
  -63.2675  -25.2065    2.5304 C   0  0  0  0  0  0  0  0  0  0  0  0
  -64.6535  -25.3195    2.4664 C   0  0  0  0  0  0  0  0  0  0  0  0
  -62.5465  -26.1425    3.2594 C   0  0  0  0  0  0  0  0  0  0  0  0
  -65.2855  -26.3625    3.1024 C   0  0  0  0  0  0  0  0  0  0  0  0
  -63.1945  -27.1775    3.8914 C   0  0  0  0  0  0  0  0  0  0  0  0
  -65.5635  -24.3505    1.7254 C   0  0  0  0  0  0  0  0  0  0  0  0
  -61.0325  -26.0775    3.3904 C   0  0  0  0  0  0  0  0  0  0  0  0
  -64.5625  -27.2915    3.8124 C   0  0  0  0  0  0  0  0  0  0  0  0
  -57.9465  -21.1855   -1.6606 H   0  0  0  0  0  0  0  0  0  0  0  0
  -56.1435  -18.8485   -4.9566 H   0  0  0  0  0  0  0  0  0  0  0  0
  -58.4155  -23.2755   -3.1316 H   0  0  0  0  0  0  0  0  0  0  0  0
  -58.7665  -22.8835   -0.5796 H   0  0  0  0  0  0  0  0  0  0  0  0
  -59.7705  -24.7955   -3.7906 H   0  0  0  0  0  0  0  0  0  0  0  0
  -58.7585  -19.7375   -3.9596 H   0  0  0  0  0  0  0  0  0  0  0  0
  -60.4265  -25.1235   -0.8896 H   0  0  0  0  0  0  0  0  0  0  0  0
  -53.0425  -20.5495   -7.5356 H   0  0  0  0  0  0  0  0  0  0  0  0
  -60.0805  -21.5395   -3.5216 H   0  0  0  0  0  0  0  0  0  0  0  0
  -60.5085  -21.7145   -1.9306 H   0  0  0  0  0  0  0  0  0  0  0  0
  -58.6075  -20.0125   -5.6436 H   0  0  0  0  0  0  0  0  0  0  0  0
  -58.5635  -18.9775   -1.0956 H   0  0  0  0  0  0  0  0  0  0  0  0
  -59.4965  -20.1545   -0.3756 H   0  0  0  0  0  0  0  0  0  0  0  0
  -56.8225  -21.9505   -6.9856 H   0  0  0  0  0  0  0  0  0  0  0  0
  -56.6605  -22.2925   -5.3866 H   0  0  0  0  0  0  0  0  0  0  0  0
  -55.3455  -23.7785   -6.7946 H   0  0  0  0  0  0  0  0  0  0  0  0
  -54.4435  -23.0095   -5.6996 H   0  0  0  0  0  0  0  0  0  0  0  0
  -56.9895  -24.1235   -0.7896 H   0  0  0  0  0  0  0  0  0  0  0  0
  -57.6845  -25.0095   -2.0196 H   0  0  0  0  0  0  0  0  0  0  0  0
  -57.8905  -18.4875   -7.8146 H   0  0  0  0  0  0  0  0  0  0  0  0
  -56.7345  -19.6275   -7.6196 H   0  0  0  0  0  0  0  0  0  0  0  0
  -58.2855  -20.0755   -7.8376 H   0  0  0  0  0  0  0  0  0  0  0  0
  -58.4145  -17.3705   -6.3866 H   0  0  0  0  0  0  0  0  0  0  0  0
  -59.2795  -17.9525   -5.1276 H   0  0  0  0  0  0  0  0  0  0  0  0
  -57.7295  -17.5065   -4.9076 H   0  0  0  0  0  0  0  0  0  0  0  0
  -53.4145  -22.7725   -7.8496 H   0  0  0  0  0  0  0  0  0  0  0  0
  -54.7985  -22.1575   -8.4566 H   0  0  0  0  0  0  0  0  0  0  0  0
  -61.8145  -20.3665   -0.8216 H   0  0  0  0  0  0  0  0  0  0  0  0
  -59.5815  -17.4975   -2.7486 H   0  0  0  0  0  0  0  0  0  0  0  0
  -57.4855  -24.8145    1.5584 H   0  0  0  0  0  0  0  0  0  0  0  0
  -58.5145  -27.1555   -1.6646 H   0  0  0  0  0  0  0  0  0  0  0  0
  -63.0245  -24.0705   -0.0456 H   0  0  0  0  0  0  0  0  0  0  0  0
  -62.1205  -25.3695    0.3634 H   0  0  0  0  0  0  0  0  0  0  0  0
  -63.8075  -19.3395   -1.6006 H   0  0  0  0  0  0  0  0  0  0  0  0
  -61.5755  -16.4675   -3.5246 H   0  0  0  0  0  0  0  0  0  0  0  0
  -63.6905  -17.3885   -2.9516 H   0  0  0  0  0  0  0  0  0  0  0  0
  -57.7685  -26.6775    3.0024 H   0  0  0  0  0  0  0  0  0  0  0  0
  -58.7985  -29.0195   -0.2216 H   0  0  0  0  0  0  0  0  0  0  0  0
  -58.4245  -28.7815    2.1134 H   0  0  0  0  0  0  0  0  0  0  0  0
  -66.2805  -26.4455    3.0484 H   0  0  0  0  0  0  0  0  0  0  0  0
  -62.6685  -27.8515    4.4094 H   0  0  0  0  0  0  0  0  0  0  0  0
  -66.5115  -24.6485    1.8314 H   0  0  0  0  0  0  0  0  0  0  0  0
  -65.4555  -23.4305    2.1034 H   0  0  0  0  0  0  0  0  0  0  0  0
  -65.3205  -24.3345    0.7564 H   0  0  0  0  0  0  0  0  0  0  0  0
  -60.7205  -26.8465    3.9494 H   0  0  0  0  0  0  0  0  0  0  0  0
  -60.6125  -26.1295    2.4834 H   0  0  0  0  0  0  0  0  0  0  0  0
  -60.7675  -25.2155    3.8224 H   0  0  0  0  0  0  0  0  0  0  0  0
  -65.0295  -28.0485    4.2694 H   0  0  0  0  0  0  0  0  0  0  0  0
  2 17  2  0
  3 21  2  0
  4 27  2  0
  5 32  1  0
  5 39  1  0
  6 11  1  0
  6 18  1  0
  6 21  1  0
  7 17  1  0
  8 27  1  0
  9 21  1  0
  9 24  1  0
 10  7  1  0
 10 12  1  0
 10 16  1  0
 11 14  1  0
 11 17  1  0
 12 13  1  0
 13  1  1  0
 13 15  1  0
 14 22  1  0
 14 23  1  0
 15  8  1  0
 15 20  1  0
 16 25  1  0
 18 19  1  0
 19 24  1  0
 20 26  1  0
 25 28  2  0
 25 29  1  0
 26 30  2  0
 26 31  1  0
 27 32  1  0
 28 33  1  0
 29 34  2  0
 30 36  1  0
 31 37  2  0
 33 35  2  0
 34 35  1  0
 36 38  2  0
 37 38  1  0
 39 40  2  0
 39 41  1  0
 40 42  1  0
 40 44  1  0
 41 43  2  0
 41 45  1  0
 42 46  2  0
 43 46  1  0
  1 51  1  0
  7 52  1  0
  8 53  1  0
  9 54  1  0
 10 47  1  0
 11 48  1  0
 12 55  1  0
 12 56  1  0
 13 49  1  0
 14 57  1  0
 15 50  1  0
 16 58  1  0
 16 59  1  0
 18 60  1  0
 18 61  1  0
 19 62  1  0
 19 63  1  0
 20 64  1  0
 20 65  1  0
 22 66  1  0
 22 67  1  0
 22 68  1  0
 23 69  1  0
 23 70  1  0
 23 71  1  0
 24 72  1  0
 24 73  1  0
 28 74  1  0
 29 75  1  0
 30 76  1  0
 31 77  1  0
 32 78  1  0
 32 79  1  0
 33 80  1  0
 34 81  1  0
 35 82  1  0
 36 83  1  0
 37 84  1  0
 38 85  1  0
 42 86  1  0
 43 87  1  0
 44 88  1  0
 44 89  1  0
 44 90  1  0
 45 91  1  0
 45 92  1  0
 45 93  1  0
 46 94  1  0
M  END
>  <BioMolTech Lead Finder dG>
-10.714

>  <BioMolTech Lead Finder VSscore>
-13.017

>  <BioMolTech Lead Finder Rank score>
-15.234

>  <BioMolTech Lead Finder LE>
-0.233

>  <BioMolTech Lead Finder Structure Name>
/var/folders/xd/y7jw_xv579q2qqq7kks92xd80000gn/T/LeadFinder_71825_1/Ligand_1.sdf

>  <BioMolTech Lead Finder SDF id>
0

>  <BioMolTech Lead Finder Pose rank>
0

>  <BioMolTech Lead Finder version>
2001 1, 19 January 2019

>  <PUBCHEM_COMPOUND_CID>
92727

>  <PUBCHEM_COMPOUND_CANONICALIZED>
1

>  <PUBCHEM_CACTVS_COMPLEXITY>
940

>  <PUBCHEM_CACTVS_HBOND_ACCEPTOR>
5

>  <PUBCHEM_CACTVS_HBOND_DONOR>
4

>  <PUBCHEM_CACTVS_ROTATABLE_BOND>
15

>  <PUBCHEM_CACTVS_SUBSKEYS>
AAADcfB/uAAAAAAAAAAAAAAAAAAAAAAAAAA8YMEAAAAAAAABUAAAHgAQCAAADTzhmAYzBoPABgCIAiFSEAICCAAgIAAIiIHMCIiOdjKE8T+XeCCu1hOYqAeQwPAOAAACAAAIAAAAAAQAABAAAAAAAAAAAA==

>  <PUBCHEM_IUPAC_OPENEYE_NAME>
(2S)-N-[(1S,3S,4S)-1-benzyl-4-[[2-(2,6-dimethylphenoxy)acetyl]amino]-3-hydroxy-5-phenyl-pentyl]-3-methyl-2-(2-oxohexahydropyrimidin-1-yl)butanamide

>  <PUBCHEM_IUPAC_CAS_NAME>
(2S)-N-[(2S,4S,5S)-5-[[2-(2,6-dimethylphenoxy)-1-oxoethyl]amino]-4-hydroxy-1,6-diphenylhexan-2-yl]-3-methyl-2-(2-oxo-1,3-diazinan-1-yl)butanamide

>  <PUBCHEM_IUPAC_NAME_MARKUP>
(2<I>S</I>)-<I>N</I>-[(2<I>S</I>,4<I>S</I>,5<I>S</I>)-5-[[2-(2,6-dimethylphenoxy)acetyl]amino]-4-hydroxy-1,6-diphenylhexan-2-yl]-3-methyl-2-(2-oxo-1,3-diazinan-1-yl)butanamide

>  <PUBCHEM_IUPAC_NAME>
(2S)-N-[(2S,4S,5S)-5-[[2-(2,6-dimethylphenoxy)acetyl]amino]-4-hydroxy-1,6-diphenylhexan-2-yl]-3-methyl-2-(2-oxo-1,3-diazinan-1-yl)butanamide

>  <PUBCHEM_IUPAC_SYSTEMATIC_NAME>
(2S)-N-[(2S,4S,5S)-5-[2-(2,6-dimethylphenoxy)ethanoylamino]-4-oxidanyl-1,6-diphenyl-hexan-2-yl]-3-methyl-2-(2-oxidanylidene-1,3-diazinan-1-yl)butanamide

>  <PUBCHEM_IUPAC_TRADITIONAL_NAME>
(2S)-N-[(1S,3S,4S)-1-benzyl-4-[[2-(2,6-dimethylphenoxy)acetyl]amino]-3-hydroxy-5-phenyl-pentyl]-2-(2-ketohexahydropyrimidin-1-yl)-3-methyl-butyramide

>  <PUBCHEM_IUPAC_INCHI>
InChI=1S/C37H48N4O5/c1-25(2)34(41-20-12-19-38-37(41)45)36(44)39-30(21-28-15-7-5-8-16-28)23-32(42)31(22-29-17-9-6-10-18-29)40-33(43)24-46-35-26(3)13-11-14-27(35)4/h5-11,13-18,25,30-32,34,42H,12,19-24H2

>  <PUBCHEM_IUPAC_INCHIKEY>
KJHKTHWMRKYKJE-SUGCFTRWSA-N

>  <PUBCHEM_XLOGP3_AA>
5.9

>  <PUBCHEM_EXACT_MASS>
628.362471

>  <PUBCHEM_MOLECULAR_FORMULA>
C37H48N4O5

>  <PUBCHEM_MOLECULAR_WEIGHT>
628.8

>  <PUBCHEM_OPENEYE_CAN_SMILES>
CC1=C(C(=CC=C1)C)OCC(=O)NC(CC2=CC=CC=C2)C(CC(CC3=CC=CC=C3)NC(=O)C(C(C)C)N4CCCNC4=O)O

>  <PUBCHEM_OPENEYE_ISO_SMILES>
CC1=C(C(=CC=C1)C)OCC(=O)N[C@@H](CC2=CC=CC=C2)[C@H](C[C@H](CC3=CC=CC=C3)NC(=O)[C@H](C(C)C)N4CCCNC4=O)O

>  <PUBCHEM_CACTVS_TPSA>
120

>  <PUBCHEM_MONOISOTOPIC_WEIGHT>
628.362471

>  <PUBCHEM_TOTAL_CHARGE>
0

>  <PUBCHEM_HEAVY_ATOM_COUNT>
46

>  <PUBCHEM_ATOM_DEF_STEREO_COUNT>
4

>  <PUBCHEM_ATOM_UDEF_STEREO_COUNT>
0

>  <PUBCHEM_BOND_DEF_STEREO_COUNT>
0

>  <PUBCHEM_BOND_UDEF_STEREO_COUNT>
0

>  <PUBCHEM_ISOTOPIC_ATOM_COUNT>
0

>  <PUBCHEM_COMPONENT_COUNT>
1

>  <PUBCHEM_CACTVS_TAUTO_COUNT>
-1

>  <PUBCHEM_COORDINATE_TYPE>
1
5
255

>  <PUBCHEM_BONDANNOTATIONS>
13  1  6
11  17  5
25  28  8
25  29  8
26  30  8
26  31  8
28  33  8
29  34  8
30  36  8
31  37  8
33  35  8
34  35  8
36  38  8
37  38  8
39  40  8
39  41  8
40  42  8
41  43  8
42  46  8
43  46  8
10  7  6
15  8  5

>  <LF dG>
-10.714

>  <LF VSscore>
-13.017

>  <LF Rank Score>
-15.234

>  <LF LE>
-0.233

>  <Preferred Pose_cresset>
true

>  <Favorite_cresset>
false

>  <Protein_cresset>
6M2N_Dimer_P

>  <MW_cresset>
628.8

>  <#Atoms_cresset>
46

>  <SlogP_cresset>
4.7

>  <TPSA_cresset>
120

>  <Flexibility_cresset>
16.1

>  <#RB_cresset>
16

>  <Rof5_cresset>
1

>  <Filename_cresset>
Lopinavir.sdf

>  <Confs_cresset>
0

>  <Poses_cresset>
10

>  <_cresset_fieldpoints>
    -5     -62.007690     -23.749472      -2.741954    -12.1744
    -5     -52.956470     -17.710094      -6.170456    -18.0152
    -5     -54.422573     -20.998280      -3.852355    -20.2179
    -5     -61.778618     -21.955540       2.053233    -19.4548
    -5     -62.351604     -20.421860      -4.321222     -2.7342
    -5     -61.725456     -17.006748       0.292123     -4.5512
    -5     -55.395298     -27.580807       0.380698     -3.6346
    -5     -63.799866     -28.230553       1.058873     -2.6113
    -6     -58.129677     -25.557907      -4.198822     12.8213
    -6     -56.887291     -22.613716       0.935401      2.9182
    -6     -56.905937     -23.523838      -8.698523      5.3674
    -6     -51.579659     -21.078587      -8.678842      4.8045
    -6     -60.621284     -19.971828      -5.049797      5.3780
    -6     -57.551186     -17.143646      -2.674859      3.7123
    -6     -61.469559     -26.666386      -1.334425      7.5734
    -6     -59.469971     -15.510178      -4.141807      3.5368
    -6     -59.342331     -28.797955       4.257057      3.3702
    -6     -68.279541     -26.195267       2.453583      2.8426
    -7     -55.820641     -23.247467      -3.156983     -3.5717
    -7     -59.301552     -22.419281      -5.793357     -3.3287
    -7     -61.747688     -27.818098       0.564747     -3.4736
    -7     -60.814140     -26.489346      -2.813312     -2.5723
    -7     -55.692783     -22.016853      -1.111933     -2.5096
    -7     -57.144264     -21.738533       0.813768     -2.5718
    -7     -56.986828     -17.662155      -2.520175     -3.2933
    -7     -55.462425     -17.102070      -6.925246     -2.5312
    -7     -63.295692     -21.493645       0.962375     -2.9281
    -7     -61.141029     -20.523802       1.671540     -2.3572
    -7     -58.182281     -26.310402      -4.063673     -2.1140
    -7     -56.069538     -21.827171      -0.281518     -2.3247
    -7     -54.882568     -19.505009      -9.340963     -2.1658
    -7     -57.075890     -21.788601      -9.545571     -1.9694
    -7     -53.861092     -21.213295      -3.835869     -2.6623
    -7     -66.197937     -18.409309      -2.521319     -0.9719
    -7     -59.083412     -15.211318      -3.965716     -1.7295
    -7     -61.151527     -19.909840      -5.090584     -3.8890
    -7     -61.534340     -16.704159       0.580005     -1.8346
    -7     -54.998478     -27.485893       0.079149     -1.8329
    -7     -67.793228     -28.358900       4.131516     -1.0053
    -7     -60.179607     -30.320721       3.240482     -1.2360
    -7     -62.803902     -22.679249      -2.235694     -3.0477
    -7     -59.454437     -23.307301       2.531196     -3.3677
    -7     -63.567993     -30.179699       5.354653     -1.0062
    -7     -64.071152     -24.219257       5.677557     -1.9966
    -8     -58.271721     -23.722618      -1.738524      5.1057
    -8     -59.036190     -22.209183      -1.951737      5.6563
    -8     -59.948086     -20.305166      -1.812329      5.8843
    -8     -57.716949     -18.900320      -6.105807      5.9381
    -8     -58.148342     -26.910156       0.666540      7.2158
    -8     -63.931129     -26.272015       3.187353      7.0768
    -8     -55.307507     -22.542589      -6.959427      4.9456
    -8     -61.685295     -18.426113      -2.175132      7.2173
    -8     -62.072838     -24.415771      -0.200019      2.8515
    -8     -62.492538     -26.287663       3.348371      5.4790

$$$$
W_Forsythoside_E_D
  xed2sdf_05210316543D
 
 62 64  0  0  1  0  0  0  0  0999 V2000
  -59.6855  -21.3812   -3.6887 O   0  0  0  0  0  0  0  0  0  0  0  0
  -57.1435  -20.3362   -4.9617 O   0  0  0  0  0  0  0  0  0  0  0  0
  -56.5325  -18.6162   -6.5567 O   0  0  0  0  0  0  0  0  0  0  0  0
  -58.1705  -18.1142   -2.7277 O   0  0  0  0  0  0  0  0  0  0  0  0
  -60.9595  -22.9762   -2.4147 O   0  0  0  0  0  0  0  0  0  0  0  0
  -58.7645  -19.2552   -0.1827 O   0  0  0  0  0  0  0  0  0  0  0  0
  -60.8165  -21.2832   -0.1517 O   0  0  0  0  0  0  0  0  0  0  0  0
  -53.7315  -19.2222   -5.7857 O   0  0  0  0  0  0  0  0  0  0  0  0
  -53.6815  -21.5852   -7.3477 O   0  0  0  0  0  0  0  0  0  0  0  0
  -55.5825  -20.8602   -9.3597 O   0  0  0  0  0  0  0  0  0  0  0  0
  -58.3525  -29.0792    0.2803 O   0  0  0  0  0  0  0  0  0  0  0  0
  -57.4755  -27.3902    2.2683 O   0  0  0  0  0  0  0  0  0  0  0  0
  -59.3135  -19.9962   -3.8457 C   0  0  0  0  0  0  0  0  0  0  0  0
  -58.5485  -19.4942   -2.6017 C   0  0  0  0  0  0  0  0  0  0  0  0
  -59.4545  -19.6702   -1.3697 C   0  0  0  0  0  0  0  0  0  0  0  0
  -59.8975  -21.1402   -1.2437 C   0  0  0  0  0  0  0  0  0  0  0  0
  -54.8145  -20.1602   -5.7047 C   0  0  0  0  0  0  0  0  0  0  0  0
  -56.1345  -19.4142   -5.4197 C   0  0  0  0  0  0  0  0  0  0  0  0
  -54.9345  -20.9722   -7.0107 C   0  0  0  0  0  0  0  0  0  0  0  0
  -55.4135  -20.0762   -8.1687 C   0  0  0  0  0  0  0  0  0  0  0  0
  -60.5605  -21.6002   -2.5567 C   0  0  0  0  0  0  0  0  0  0  0  0
  -58.4745  -19.8102   -5.1227 C   0  0  0  0  0  0  0  0  0  0  0  0
  -56.7335  -19.3992   -7.7507 C   0  0  0  0  0  0  0  0  0  0  0  0
  -57.2355  -18.4922   -8.8847 C   0  0  0  0  0  0  0  0  0  0  0  0
  -59.8495  -23.8792   -2.5457 C   0  0  0  0  0  0  0  0  0  0  0  0
  -60.2815  -25.3062   -2.1647 C   0  0  0  0  0  0  0  0  0  0  0  0
  -59.5255  -25.8742   -0.9757 C   0  0  0  0  0  0  0  0  0  0  0  0
  -59.2785  -27.2282   -0.8867 C   0  0  0  0  0  0  0  0  0  0  0  0
  -59.0825  -25.0342    0.0223 C   0  0  0  0  0  0  0  0  0  0  0  0
  -58.5945  -27.7402    0.1943 C   0  0  0  0  0  0  0  0  0  0  0  0
  -58.3975  -25.5392    1.1063 C   0  0  0  0  0  0  0  0  0  0  0  0
  -58.1515  -26.8912    1.1963 C   0  0  0  0  0  0  0  0  0  0  0  0
  -60.1465  -19.4502   -3.9357 H   0  0  0  0  0  0  0  0  0  0  0  0
  -57.7075  -20.0272   -2.5057 H   0  0  0  0  0  0  0  0  0  0  0  0
  -60.2675  -19.0992   -1.4847 H   0  0  0  0  0  0  0  0  0  0  0  0
  -59.0945  -21.7092   -1.0667 H   0  0  0  0  0  0  0  0  0  0  0  0
  -54.6275  -20.7962   -4.9557 H   0  0  0  0  0  0  0  0  0  0  0  0
  -55.9975  -18.7632   -4.6737 H   0  0  0  0  0  0  0  0  0  0  0  0
  -55.6125  -21.6932   -6.8627 H   0  0  0  0  0  0  0  0  0  0  0  0
  -54.7325  -19.3702   -8.3667 H   0  0  0  0  0  0  0  0  0  0  0  0
  -61.3785  -21.0542   -2.7387 H   0  0  0  0  0  0  0  0  0  0  0  0
  -57.4155  -20.1072   -7.5657 H   0  0  0  0  0  0  0  0  0  0  0  0
  -58.9465  -17.5452   -3.0197 H   0  0  0  0  0  0  0  0  0  0  0  0
  -58.7055  -20.0042    0.4873 H   0  0  0  0  0  0  0  0  0  0  0  0
  -61.7655  -21.3512   -0.4787 H   0  0  0  0  0  0  0  0  0  0  0  0
  -52.8395  -19.6872   -5.7677 H   0  0  0  0  0  0  0  0  0  0  0  0
  -52.9455  -21.2772   -6.7347 H   0  0  0  0  0  0  0  0  0  0  0  0
  -55.7115  -21.8342   -9.1417 H   0  0  0  0  0  0  0  0  0  0  0  0
  -59.2035  -29.5992    0.4163 H   0  0  0  0  0  0  0  0  0  0  0  0
  -58.0955  -27.5812    3.0373 H   0  0  0  0  0  0  0  0  0  0  0  0
  -58.9225  -20.2832   -5.8807 H   0  0  0  0  0  0  0  0  0  0  0  0
  -58.4035  -18.8302   -5.3097 H   0  0  0  0  0  0  0  0  0  0  0  0
  -56.5925  -18.5402   -9.6487 H   0  0  0  0  0  0  0  0  0  0  0  0
  -58.1395  -18.7962   -9.1857 H   0  0  0  0  0  0  0  0  0  0  0  0
  -57.3015  -17.5492   -8.5577 H   0  0  0  0  0  0  0  0  0  0  0  0
  -59.1075  -23.5832   -1.9437 H   0  0  0  0  0  0  0  0  0  0  0  0
  -59.5365  -23.8762   -3.4947 H   0  0  0  0  0  0  0  0  0  0  0  0
  -60.1315  -25.9042   -2.9517 H   0  0  0  0  0  0  0  0  0  0  0  0
  -61.2445  -25.2602   -1.9017 H   0  0  0  0  0  0  0  0  0  0  0  0
  -59.5965  -27.8412   -1.6097 H   0  0  0  0  0  0  0  0  0  0  0  0
  -59.2605  -24.0522   -0.0397 H   0  0  0  0  0  0  0  0  0  0  0  0
  -58.0795  -24.9242    1.8273 H   0  0  0  0  0  0  0  0  0  0  0  0
  1 13  1  0
  1 21  1  0
  2 22  1  0
  3 18  1  0
  3 23  1  0
  5 25  1  0
 11 30  1  0
 12 32  1  0
 13 14  1  0
 13 22  1  0
 14  4  1  0
 14 15  1  0
 15  6  1  0
 15 16  1  0
 16  7  1  0
 16 21  1  0
 17  8  1  0
 17 18  1  0
 17 19  1  0
 18  2  1  0
 19  9  1  0
 19 20  1  0
 20 10  1  0
 20 23  1  0
 21  5  1  0
 23 24  1  0
 25 26  1  0
 26 27  1  0
 27 28  2  0
 27 29  1  0
 28 30  1  0
 29 31  2  0
 30 32  2  0
 31 32  1  0
  4 43  1  0
  6 44  1  0
  7 45  1  0
  8 46  1  0
  9 47  1  0
 10 48  1  0
 11 49  1  0
 12 50  1  0
 13 33  1  0
 14 34  1  0
 15 35  1  0
 16 36  1  0
 17 37  1  0
 18 38  1  0
 19 39  1  0
 20 40  1  0
 21 41  1  0
 22 51  1  0
 22 52  1  0
 23 42  1  0
 24 53  1  0
 24 54  1  0
 24 55  1  0
 25 56  1  0
 25 57  1  0
 26 58  1  0
 26 59  1  0
 28 60  1  0
 29 61  1  0
 31 62  1  0
M  END
>  <BioMolTech Lead Finder dG>
-7.396

>  <BioMolTech Lead Finder VSscore>
-12.364

>  <BioMolTech Lead Finder Rank score>
-9.94

>  <BioMolTech Lead Finder LE>
-0.231

>  <BioMolTech Lead Finder Structure Name>
/var/folders/xd/y7jw_xv579q2qqq7kks92xd80000gn/T/LeadFinder_78401_1/Ligand_1.sdf

>  <BioMolTech Lead Finder SDF id>
0

>  <BioMolTech Lead Finder Pose rank>
0

>  <BioMolTech Lead Finder version>
2001 1, 19 January 2019

>  <PUBCHEM_COMPOUND_CID>
69634125

>  <PUBCHEM_COMPOUND_CANONICALIZED>
1

>  <PUBCHEM_CACTVS_COMPLEXITY>
581

>  <PUBCHEM_CACTVS_HBOND_ACCEPTOR>
12

>  <PUBCHEM_CACTVS_HBOND_DONOR>
8

>  <PUBCHEM_CACTVS_ROTATABLE_BOND>
7

>  <PUBCHEM_CACTVS_SUBSKEYS>
AAADceB4PAAAAAAAAAAAAAAAAAAAAAAAAAA0SIAAAAAAAAABAAAAGgAACAAADBSwmAMyDoAABgCAAiBCAAACAAAgIAAIiAAGiIgZNiKCERKicAElwBEPmAfA4LwOIAABAAAAQABAAAIAAACAAAAAAAAAAA==

>  <PUBCHEM_IUPAC_OPENEYE_NAME>
(2R,3R,4R,5R,6S)-2-[[(2R,3S,4S,5R,6R)-6-[2-(3,4-dihydroxyphenyl)ethoxy]-3,4,5-trihydroxy-tetrahydropyran-2-yl]methoxy]-6-methyl-tetrahydropyran-3,4,5-triol

>  <PUBCHEM_IUPAC_CAS_NAME>
(2R,3R,4R,5R,6S)-2-[[(2R,3S,4S,5R,6R)-6-[2-(3,4-dihydroxyphenyl)ethoxy]-3,4,5-trihydroxy-2-oxanyl]methoxy]-6-methyloxane-3,4,5-triol

>  <PUBCHEM_IUPAC_NAME_MARKUP>
(2<I>R</I>,3<I>R</I>,4<I>R</I>,5<I>R</I>,6<I>S</I>)-2-[[(2<I>R</I>,3<I>S</I>,4<I>S</I>,5<I>R</I>,6<I>R</I>)-6-[2-(3,4-dihydroxyphenyl)ethoxy]-3,4,5-trihydroxyoxan-2-yl]methoxy]-6-methyloxane-3,4,5-tri

>  <PUBCHEM_IUPAC_NAME>
(2R,3R,4R,5R,6S)-2-[[(2R,3S,4S,5R,6R)-6-[2-(3,4-dihydroxyphenyl)ethoxy]-3,4,5-trihydroxyoxan-2-yl]methoxy]-6-methyloxane-3,4,5-triol

>  <PUBCHEM_IUPAC_SYSTEMATIC_NAME>
(2R,3R,4R,5R,6S)-2-[[(2R,3S,4S,5R,6R)-6-[2-[3,4-bis(oxidanyl)phenyl]ethoxy]-3,4,5-tris(oxidanyl)oxan-2-yl]methoxy]-6-methyl-oxane-3,4,5-triol

>  <PUBCHEM_IUPAC_TRADITIONAL_NAME>
(2R,3R,4R,5R,6S)-2-[[(2R,3S,4S,5R,6R)-6-[2-(3,4-dihydroxyphenyl)ethoxy]-3,4,5-trihydroxy-tetrahydropyran-2-yl]methoxy]-6-methyl-tetrahydropyran-3,4,5-triol

>  <PUBCHEM_IUPAC_INCHI>
InChI=1S/C20H30O12/c1-8-13(23)15(25)17(27)20(31-8)30-7-12-14(24)16(26)18(28)19(32-12)29-5-4-9-2-3-10(21)11(22)6-9/h2-3,6,8,12-28H,4-5,7H2,1H3/t8-,12+,13-,14+,15+,16-,17+,18+,19+,20+/m0/s1

>  <PUBCHEM_IUPAC_INCHIKEY>
QIMGUQIHCNDUKU-OJJLXHDHSA-N

>  <PUBCHEM_XLOGP3_AA>
-2.5

>  <PUBCHEM_EXACT_MASS>
462.173726

>  <PUBCHEM_MOLECULAR_FORMULA>
C20H30O12

>  <PUBCHEM_MOLECULAR_WEIGHT>
462.4

>  <PUBCHEM_OPENEYE_CAN_SMILES>
CC1C(C(C(C(O1)OCC2C(C(C(C(O2)OCCC3=CC(=C(C=C3)O)O)O)O)O)O)O)O

>  <PUBCHEM_OPENEYE_ISO_SMILES>
C[C@H]1[C@@H]([C@H]([C@H]([C@@H](O1)OC[C@@H]2[C@H]([C@@H]([C@H]([C@@H](O2)OCCC3=CC(=C(C=C3)O)O)O)O)O)O)O)O

>  <PUBCHEM_CACTVS_TPSA>
199

>  <PUBCHEM_MONOISOTOPIC_WEIGHT>
462.173726

>  <PUBCHEM_TOTAL_CHARGE>
0

>  <PUBCHEM_HEAVY_ATOM_COUNT>
32

>  <PUBCHEM_ATOM_DEF_STEREO_COUNT>
10

>  <PUBCHEM_ATOM_UDEF_STEREO_COUNT>
0

>  <PUBCHEM_BOND_DEF_STEREO_COUNT>
0

>  <PUBCHEM_BOND_UDEF_STEREO_COUNT>
0

>  <PUBCHEM_ISOTOPIC_ATOM_COUNT>
0

>  <PUBCHEM_COMPONENT_COUNT>
1

>  <PUBCHEM_CACTVS_TAUTO_COUNT>
-1

>  <PUBCHEM_COORDINATE_TYPE>
1
5
255

>  <PUBCHEM_BONDANNOTATIONS>
20  10  5
13  22  5
18  2  5
23  24  6
27  28  8
27  29  8
28  30  8
29  31  8
30  32  8
31  32  8
14  4  6
21  5  5
15  6  5
16  7  6
17  8  6
19  9  6

>  <LF dG>
-7.396

>  <LF VSscore>
-12.364

>  <LF Rank Score>
-9.94

>  <LF LE>
-0.231

>  <Preferred Pose_cresset>
true

>  <Favorite_cresset>
false

>  <Protein_cresset>
6M2N_Dimer_P

>  <MW_cresset>
462.4

>  <#Atoms_cresset>
32

>  <SlogP_cresset>
-0.4

>  <TPSA_cresset>
198.8

>  <Flexibility_cresset>
15.9

>  <#RB_cresset>
15

>  <Rof5_cresset>
2

>  <Filename_cresset>
Forsythoside E.sdf

>  <Confs_cresset>
0

>  <Poses_cresset>
10

>  <_cresset_fieldpoints>
    -5     -57.309650     -22.179363      -4.156121     -5.6125
    -5     -57.525402     -17.771025      -0.739056    -12.3993
    -5     -54.316734     -17.472839      -6.469735    -10.0887
    -5     -62.727158     -23.621462      -3.097436     -2.8490
    -5     -60.631229     -22.165398       1.467824     -4.6665
    -5     -61.710228     -25.911366       1.163735     -2.5765
    -5     -54.975235     -20.283102     -10.969605     -9.7276
    -5     -56.119423     -28.888561       1.213276     -7.3082
    -6     -57.040977     -22.812717      -8.363840      5.0145
    -6     -60.719093     -17.392002      -3.360463      9.2987
    -6     -57.931244     -21.638124       0.976016      4.6292
    -6     -51.981506     -21.113613      -5.294070     11.4221
    -6     -62.821091     -20.114407      -1.336699      8.5771
    -6     -60.811081     -30.259466       0.176517      5.9284
    -6     -62.072449     -18.845108      -2.912786      8.2961
    -6     -59.369125     -27.950035       4.198886      5.2310
    -6     -61.153683     -28.344017      -3.105449      3.1921
    -7     -60.154797     -22.657768      -5.699865     -2.2821
    -7     -57.565369     -16.536865      -6.010726     -2.2804
    -7     -57.519241     -16.593182      -4.554700     -2.2653
    -7     -62.842201     -19.451508      -1.230481     -1.7198
    -7     -61.225708     -17.288330      -3.107342     -1.7708
    -7     -60.106194     -16.898720      -4.818584     -1.6931
    -7     -59.113789     -22.094109       1.641854     -2.2449
    -7     -60.769424     -19.596951       1.567840     -1.5703
    -7     -55.595493     -18.410347      -2.184221     -1.7473
    -7     -57.642555     -22.116920       0.937609     -2.2072
    -7     -52.154861     -19.408054      -7.883381     -1.9308
    -7     -52.110199     -21.669613      -4.689495     -1.2949
    -7     -53.539238     -17.883995      -3.787301     -1.3282
    -7     -58.373756     -16.723169      -0.755543     -1.5143
    -7     -54.546989     -17.068531      -6.989573     -2.4841
    -7     -57.128551     -22.379776      -3.607702     -3.7649
    -7     -53.216652     -23.136145      -5.353241     -1.3729
    -7     -53.412590     -22.090822      -9.727028     -1.5496
    -7     -56.670441     -24.820335      -2.298324     -2.2051
    -7     -54.991806     -19.684200     -11.361631     -1.4275
    -7     -57.954945     -21.773445      -9.580138     -1.9142
    -7     -58.022743     -29.945148       2.620489     -1.4993
    -7     -58.896973     -30.487823      -1.750096     -1.2811
    -7     -56.904282     -25.859936       4.163622     -1.2572
    -7     -62.364273     -18.640842      -2.899647     -1.8254
    -7     -59.927666     -20.531256      -8.212132     -1.6938
    -7     -59.997429     -18.009045      -7.265944     -1.8438
    -7     -61.801758     -26.644394       1.423004     -1.8634
    -7     -61.993332     -23.490984      -0.007208     -2.9818
    -8     -59.605350     -24.920036      -1.367559      5.7812
    -8     -59.615303     -20.248575      -2.277388      5.2011
    -8     -56.537735     -19.179331      -8.564400      4.4702
    -8     -55.669865     -20.207340      -6.938218      4.8708
    -8     -58.865643     -26.334057       0.076311      6.9340
    -8     -58.921768     -19.432758      -4.018317      3.9480

$$$$
Forsythoside_E_D
  xed2sdf_05210316543D
 
 62 64  0  0  1  0  0  0  0  0999 V2000
  -61.7569  -23.6025   -2.4866 O   0  0  0  0  0  0  0  0  0  0  0  0
  -62.7119  -25.2875   -0.2976 O   0  0  0  0  0  0  0  0  0  0  0  0
  -60.3369  -24.8905   -0.0226 O   0  0  0  0  0  0  0  0  0  0  0  0
  -64.4259  -26.0955   -3.2356 O   0  0  0  0  0  0  0  0  0  0  0  0
  -59.9899  -22.7095   -3.8536 O   0  0  0  0  0  0  0  0  0  0  0  0
  -62.6439  -26.4655   -5.4326 O   0  0  0  0  0  0  0  0  0  0  0  0
  -60.9119  -24.2415   -6.0466 O   0  0  0  0  0  0  0  0  0  0  0  0
  -61.0419  -23.9755    2.7114 O   0  0  0  0  0  0  0  0  0  0  0  0
  -61.3569  -26.6295    3.6524 O   0  0  0  0  0  0  0  0  0  0  0  0
  -59.5419  -27.9715    1.8924 O   0  0  0  0  0  0  0  0  0  0  0  0
  -63.2269  -18.8565   -4.6566 O   0  0  0  0  0  0  0  0  0  0  0  0
  -63.3049  -16.9165   -2.7056 O   0  0  0  0  0  0  0  0  0  0  0  0
  -63.0829  -24.1725   -2.4636 C   0  0  0  0  0  0  0  0  0  0  0  0
  -63.1149  -25.5085   -3.2376 C   0  0  0  0  0  0  0  0  0  0  0  0
  -62.6709  -25.2405   -4.6866 C   0  0  0  0  0  0  0  0  0  0  0  0
  -61.2809  -24.5765   -4.7016 C   0  0  0  0  0  0  0  0  0  0  0  0
  -61.8079  -24.9215    1.9514 C   0  0  0  0  0  0  0  0  0  0  0  0
  -61.6759  -24.6155    0.4454 C   0  0  0  0  0  0  0  0  0  0  0  0
  -61.3429  -26.3635    2.2414 C   0  0  0  0  0  0  0  0  0  0  0  0
  -59.9329  -26.6075    1.6714 C   0  0  0  0  0  0  0  0  0  0  0  0
  -61.2999  -23.3065   -3.8266 C   0  0  0  0  0  0  0  0  0  0  0  0
  -63.5559  -24.3645   -1.0106 C   0  0  0  0  0  0  0  0  0  0  0  0
  -59.9469  -26.2655    0.1684 C   0  0  0  0  0  0  0  0  0  0  0  0
  -58.5499  -26.4935   -0.4306 C   0  0  0  0  0  0  0  0  0  0  0  0
  -59.6129  -22.1715   -2.5746 C   0  0  0  0  0  0  0  0  0  0  0  0
  -59.1329  -20.7185   -2.7336 C   0  0  0  0  0  0  0  0  0  0  0  0
  -60.2589  -19.7005   -2.7316 C   0  0  0  0  0  0  0  0  0  0  0  0
  -61.2399  -19.7415   -3.7006 C   0  0  0  0  0  0  0  0  0  0  0  0
  -60.3049  -18.7275   -1.7576 C   0  0  0  0  0  0  0  0  0  0  0  0
  -62.2599  -18.8145   -3.6966 C   0  0  0  0  0  0  0  0  0  0  0  0
  -61.3219  -17.7985   -1.7466 C   0  0  0  0  0  0  0  0  0  0  0  0
  -62.3009  -17.8375   -2.7146 C   0  0  0  0  0  0  0  0  0  0  0  0
  -63.7109  -23.5395   -2.9166 H   0  0  0  0  0  0  0  0  0  0  0  0
  -62.4969  -26.1535   -2.7886 H   0  0  0  0  0  0  0  0  0  0  0  0
  -63.3279  -24.6195   -5.1146 H   0  0  0  0  0  0  0  0  0  0  0  0
  -60.6089  -25.2175   -4.3316 H   0  0  0  0  0  0  0  0  0  0  0  0
  -62.7679  -24.8415    2.2204 H   0  0  0  0  0  0  0  0  0  0  0  0
  -61.8149  -23.6375    0.2884 H   0  0  0  0  0  0  0  0  0  0  0  0
  -61.9819  -26.9885    1.7934 H   0  0  0  0  0  0  0  0  0  0  0  0
  -59.2649  -26.0245    2.1334 H   0  0  0  0  0  0  0  0  0  0  0  0
  -61.9529  -22.6455   -4.1956 H   0  0  0  0  0  0  0  0  0  0  0  0
  -60.6059  -26.8595   -0.2926 H   0  0  0  0  0  0  0  0  0  0  0  0
  -64.4879  -26.8545   -2.5786 H   0  0  0  0  0  0  0  0  0  0  0  0
  -61.8349  -27.0175   -5.2006 H   0  0  0  0  0  0  0  0  0  0  0  0
  -60.6879  -23.2645   -6.1326 H   0  0  0  0  0  0  0  0  0  0  0  0
  -60.0749  -23.9815    2.4354 H   0  0  0  0  0  0  0  0  0  0  0  0
  -60.5749  -27.2005    3.9254 H   0  0  0  0  0  0  0  0  0  0  0  0
  -60.1259  -28.6075    1.3764 H   0  0  0  0  0  0  0  0  0  0  0  0
  -62.8359  -18.7535   -5.5776 H   0  0  0  0  0  0  0  0  0  0  0  0
  -63.1379  -16.1975   -2.0216 H   0  0  0  0  0  0  0  0  0  0  0  0
  -63.5429  -23.4805   -0.5436 H   0  0  0  0  0  0  0  0  0  0  0  0
  -64.4829  -24.7395   -1.0326 H   0  0  0  0  0  0  0  0  0  0  0  0
  -57.9359  -26.8155    0.2894 H   0  0  0  0  0  0  0  0  0  0  0  0
  -58.6019  -27.1765   -1.1586 H   0  0  0  0  0  0  0  0  0  0  0  0
  -58.2029  -25.6365   -0.8116 H   0  0  0  0  0  0  0  0  0  0  0  0
  -58.8779  -22.7255   -2.1856 H   0  0  0  0  0  0  0  0  0  0  0  0
  -60.4069  -22.1885   -1.9666 H   0  0  0  0  0  0  0  0  0  0  0  0
  -58.6349  -20.6415   -3.5976 H   0  0  0  0  0  0  0  0  0  0  0  0
  -58.5539  -20.5145   -1.9436 H   0  0  0  0  0  0  0  0  0  0  0  0
  -61.2119  -20.4475   -4.4086 H   0  0  0  0  0  0  0  0  0  0  0  0
  -59.5959  -18.6965   -1.0526 H   0  0  0  0  0  0  0  0  0  0  0  0
  -61.3489  -17.0945   -1.0366 H   0  0  0  0  0  0  0  0  0  0  0  0
  1 13  1  0
  1 21  1  0
  2 22  1  0
  3 18  1  0
  3 23  1  0
  5 25  1  0
 11 30  1  0
 12 32  1  0
 13 14  1  0
 13 22  1  0
 14  4  1  0
 14 15  1  0
 15  6  1  0
 15 16  1  0
 16  7  1  0
 16 21  1  0
 17  8  1  0
 17 18  1  0
 17 19  1  0
 18  2  1  0
 19  9  1  0
 19 20  1  0
 20 10  1  0
 20 23  1  0
 21  5  1  0
 23 24  1  0
 25 26  1  0
 26 27  1  0
 27 28  2  0
 27 29  1  0
 28 30  1  0
 29 31  2  0
 30 32  2  0
 31 32  1  0
  4 43  1  0
  6 44  1  0
  7 45  1  0
  8 46  1  0
  9 47  1  0
 10 48  1  0
 11 49  1  0
 12 50  1  0
 13 33  1  0
 14 34  1  0
 15 35  1  0
 16 36  1  0
 17 37  1  0
 18 38  1  0
 19 39  1  0
 20 40  1  0
 21 41  1  0
 22 51  1  0
 22 52  1  0
 23 42  1  0
 24 53  1  0
 24 54  1  0
 24 55  1  0
 25 56  1  0
 25 57  1  0
 26 58  1  0
 26 59  1  0
 28 60  1  0
 29 61  1  0
 31 62  1  0
M  END
>  <BioMolTech Lead Finder dG>
-7.426

>  <BioMolTech Lead Finder VSscore>
-13.821

>  <BioMolTech Lead Finder Rank score>
-10.915

>  <BioMolTech Lead Finder LE>
-0.232

>  <BioMolTech Lead Finder Structure Name>
/var/folders/xd/y7jw_xv579q2qqq7kks92xd80000gn/T/LeadFinder_73805_1/Ligand_1.sdf

>  <BioMolTech Lead Finder SDF id>
0

>  <BioMolTech Lead Finder Pose rank>
0

>  <BioMolTech Lead Finder version>
2001 1, 19 January 2019

>  <PUBCHEM_COMPOUND_CID>
69634125

>  <PUBCHEM_COMPOUND_CANONICALIZED>
1

>  <PUBCHEM_CACTVS_COMPLEXITY>
581

>  <PUBCHEM_CACTVS_HBOND_ACCEPTOR>
12

>  <PUBCHEM_CACTVS_HBOND_DONOR>
8

>  <PUBCHEM_CACTVS_ROTATABLE_BOND>
7

>  <PUBCHEM_CACTVS_SUBSKEYS>
AAADceB4PAAAAAAAAAAAAAAAAAAAAAAAAAA0SIAAAAAAAAABAAAAGgAACAAADBSwmAMyDoAABgCAAiBCAAACAAAgIAAIiAAGiIgZNiKCERKicAElwBEPmAfA4LwOIAABAAAAQABAAAIAAACAAAAAAAAAAA==

>  <PUBCHEM_IUPAC_OPENEYE_NAME>
(2R,3R,4R,5R,6S)-2-[[(2R,3S,4S,5R,6R)-6-[2-(3,4-dihydroxyphenyl)ethoxy]-3,4,5-trihydroxy-tetrahydropyran-2-yl]methoxy]-6-methyl-tetrahydropyran-3,4,5-triol

>  <PUBCHEM_IUPAC_CAS_NAME>
(2R,3R,4R,5R,6S)-2-[[(2R,3S,4S,5R,6R)-6-[2-(3,4-dihydroxyphenyl)ethoxy]-3,4,5-trihydroxy-2-oxanyl]methoxy]-6-methyloxane-3,4,5-triol

>  <PUBCHEM_IUPAC_NAME_MARKUP>
(2<I>R</I>,3<I>R</I>,4<I>R</I>,5<I>R</I>,6<I>S</I>)-2-[[(2<I>R</I>,3<I>S</I>,4<I>S</I>,5<I>R</I>,6<I>R</I>)-6-[2-(3,4-dihydroxyphenyl)ethoxy]-3,4,5-trihydroxyoxan-2-yl]methoxy]-6-methyloxane-3,4,5-tri

>  <PUBCHEM_IUPAC_NAME>
(2R,3R,4R,5R,6S)-2-[[(2R,3S,4S,5R,6R)-6-[2-(3,4-dihydroxyphenyl)ethoxy]-3,4,5-trihydroxyoxan-2-yl]methoxy]-6-methyloxane-3,4,5-triol

>  <PUBCHEM_IUPAC_SYSTEMATIC_NAME>
(2R,3R,4R,5R,6S)-2-[[(2R,3S,4S,5R,6R)-6-[2-[3,4-bis(oxidanyl)phenyl]ethoxy]-3,4,5-tris(oxidanyl)oxan-2-yl]methoxy]-6-methyl-oxane-3,4,5-triol

>  <PUBCHEM_IUPAC_TRADITIONAL_NAME>
(2R,3R,4R,5R,6S)-2-[[(2R,3S,4S,5R,6R)-6-[2-(3,4-dihydroxyphenyl)ethoxy]-3,4,5-trihydroxy-tetrahydropyran-2-yl]methoxy]-6-methyl-tetrahydropyran-3,4,5-triol

>  <PUBCHEM_IUPAC_INCHI>
InChI=1S/C20H30O12/c1-8-13(23)15(25)17(27)20(31-8)30-7-12-14(24)16(26)18(28)19(32-12)29-5-4-9-2-3-10(21)11(22)6-9/h2-3,6,8,12-28H,4-5,7H2,1H3/t8-,12+,13-,14+,15+,16-,17+,18+,19+,20+/m0/s1

>  <PUBCHEM_IUPAC_INCHIKEY>
QIMGUQIHCNDUKU-OJJLXHDHSA-N

>  <PUBCHEM_XLOGP3_AA>
-2.5

>  <PUBCHEM_EXACT_MASS>
462.173726

>  <PUBCHEM_MOLECULAR_FORMULA>
C20H30O12

>  <PUBCHEM_MOLECULAR_WEIGHT>
462.4

>  <PUBCHEM_OPENEYE_CAN_SMILES>
CC1C(C(C(C(O1)OCC2C(C(C(C(O2)OCCC3=CC(=C(C=C3)O)O)O)O)O)O)O)O

>  <PUBCHEM_OPENEYE_ISO_SMILES>
C[C@H]1[C@@H]([C@H]([C@H]([C@@H](O1)OC[C@@H]2[C@H]([C@@H]([C@H]([C@@H](O2)OCCC3=CC(=C(C=C3)O)O)O)O)O)O)O)O

>  <PUBCHEM_CACTVS_TPSA>
199

>  <PUBCHEM_MONOISOTOPIC_WEIGHT>
462.173726

>  <PUBCHEM_TOTAL_CHARGE>
0

>  <PUBCHEM_HEAVY_ATOM_COUNT>
32

>  <PUBCHEM_ATOM_DEF_STEREO_COUNT>
10

>  <PUBCHEM_ATOM_UDEF_STEREO_COUNT>
0

>  <PUBCHEM_BOND_DEF_STEREO_COUNT>
0

>  <PUBCHEM_BOND_UDEF_STEREO_COUNT>
0

>  <PUBCHEM_ISOTOPIC_ATOM_COUNT>
0

>  <PUBCHEM_COMPONENT_COUNT>
1

>  <PUBCHEM_CACTVS_TAUTO_COUNT>
-1

>  <PUBCHEM_COORDINATE_TYPE>
1
5
255

>  <PUBCHEM_BONDANNOTATIONS>
20  10  5
13  22  5
18  2  5
23  24  6
27  28  8
27  29  8
28  30  8
29  31  8
30  32  8
31  32  8
14  4  6
21  5  5
15  6  5
16  7  6
17  8  6
19  9  6

>  <LF dG>
-7.426

>  <LF VSscore>
-13.821

>  <LF Rank Score>
-10.915

>  <LF LE>
-0.232

>  <Preferred Pose_cresset>
true

>  <Favorite_cresset>
false

>  <Protein_cresset>
6M2N_Dimer_P

>  <MW_cresset>
462.4

>  <#Atoms_cresset>
32

>  <SlogP_cresset>
-0.4

>  <TPSA_cresset>
198.8

>  <Flexibility_cresset>
15.9

>  <#RB_cresset>
15

>  <Rof5_cresset>
2

>  <Filename_cresset>
Forsythoside E.sdf

>  <Confs_cresset>
0

>  <Poses_cresset>
10

>  <_cresset_fieldpoints>
    -5     -64.471298     -26.878994      -5.037785    -17.4878
    -5     -61.857040     -25.532640      -7.098145    -16.5240
    -5     -58.492859     -23.458176      -4.781940     -6.5108
    -5     -61.368813     -24.862371       4.388251    -17.8165
    -5     -57.803879     -28.430967       2.550674     -9.5162
    -5     -64.615341     -17.610016      -3.966632    -13.4889
    -5     -59.439404     -17.057304      -4.217816     -2.5213
    -6     -57.939133     -19.433731       0.052483      3.4280
    -6     -63.356438     -28.113815      -1.685944      9.6075
    -6     -64.831062     -23.294659       1.331396      2.4023
    -6     -58.168655     -24.034782       2.284560      8.2781
    -6     -61.504383     -28.937231       0.187641     11.7682
    -6     -61.439850     -21.506805      -6.224131     10.8123
    -6     -60.786186     -27.536503      -3.685719     10.6904
    -6     -62.395004     -15.246889      -0.571628      9.9757
    -6     -59.438957     -28.021713       5.229527      5.3722
    -6     -61.854137     -19.992115      -6.658325      9.4382
    -6     -62.789314     -21.572508       0.215083      2.2600
    -6     -65.520332     -22.391232      -1.433906      2.4645
    -7     -62.555496     -21.226791      -0.954868     -3.8884
    -7     -63.714645     -28.403017      -4.331540     -1.6403
    -7     -66.223724     -24.500904      -3.351057     -1.8171
    -7     -58.272869     -25.019716      -3.355565     -2.3990
    -7     -61.143082     -26.344124      -7.404644     -1.5054
    -7     -64.139435     -21.501331      -4.474798     -2.5769
    -7     -62.314270     -21.507668      -6.401781     -2.3115
    -7     -60.383850     -27.454969      -3.059654     -2.6709
    -7     -63.067215     -27.582565      -0.590546     -3.2307
    -7     -59.717926     -24.917149       4.602326     -1.9940
    -7     -58.460144     -28.104301       4.060062     -1.3231
    -7     -61.043098     -29.374516       3.333737     -1.6211
    -7     -60.249702     -29.416348      -0.715908     -1.6379
    -7     -58.209835     -29.530972       0.603736     -1.6166
    -7     -64.477737     -16.725479      -5.032770     -1.3461
    -7     -59.303093     -17.021860      -4.615563     -1.8366
    -7     -64.412880     -17.117744      -0.284808     -1.2069
    -7     -61.818604     -14.631806      -3.186510     -1.1911
    -7     -57.233719     -28.376965       2.244007     -1.4445
    -7     -59.447937     -21.476223      -5.945161     -2.6987
    -7     -58.879349     -23.106148       0.522455     -3.2270
    -8     -62.410454     -24.556480      -3.878221      5.1858
    -8     -59.174046     -26.575447       0.400630      4.4948
    -8     -61.227333     -18.798763      -2.700321      6.9332
    -8     -60.962456     -25.985504       1.329209      4.8850
    -8     -63.579720     -24.610012      -2.211550      3.9513
    -8     -62.775482     -23.771782      -0.223246      2.3313
    -8     -60.246964     -19.734154      -2.705923      5.6780

$$$$
W_Lopinavir_D
  xed2sdf_05210316543D
 
 94 97  0  0  1  0  0  0  0  0999 V2000
  -62.2112  -24.2884   -4.5389 O   0  0  0  0  0  0  0  0  0  0  0  0
  -57.5692  -22.7714   -3.8829 O   0  0  0  0  0  0  0  0  0  0  0  0
  -54.5022  -20.0304   -4.9149 O   0  0  0  0  0  0  0  0  0  0  0  0
  -62.2672  -25.2264    0.1531 O   0  0  0  0  0  0  0  0  0  0  0  0
  -65.0002  -24.3934    0.3551 O   0  0  0  0  0  0  0  0  0  0  0  0
  -56.1902  -21.2804   -5.7359 N   0  0  0  0  0  0  0  0  0  0  0  0
  -59.0272  -21.0764   -3.4739 N   0  0  0  0  0  0  0  0  0  0  0  0
  -62.6132  -24.8314   -2.0649 N   0  0  0  0  0  0  0  0  0  0  0  0
  -53.9982  -21.4754   -6.5489 N   0  0  0  0  0  0  0  0  0  0  0  0
  -59.8922  -21.9104   -2.6289 C   0  0  0  0  0  0  0  0  0  0  0  0
  -57.1812  -20.6004   -4.8789 C   0  0  0  0  0  0  0  0  0  0  0  0
  -61.0252  -22.3704   -3.5659 C   0  0  0  0  0  0  0  0  0  0  0  0
  -61.0872  -23.9034   -3.7299 C   0  0  0  0  0  0  0  0  0  0  0  0
  -58.1402  -19.7224   -5.7179 C   0  0  0  0  0  0  0  0  0  0  0  0
  -61.1942  -24.5594   -2.3389 C   0  0  0  0  0  0  0  0  0  0  0  0
  -60.4432  -21.1374   -1.4109 C   0  0  0  0  0  0  0  0  0  0  0  0
  -57.9312  -21.6124   -4.0349 C   0  0  0  0  0  0  0  0  0  0  0  0
  -56.6742  -22.3644   -6.6089 C   0  0  0  0  0  0  0  0  0  0  0  0
  -55.5432  -23.3334   -6.9689 C   0  0  0  0  0  0  0  0  0  0  0  0
  -60.3532  -25.8524   -2.2909 C   0  0  0  0  0  0  0  0  0  0  0  0
  -54.8872  -20.8994   -5.7049 C   0  0  0  0  0  0  0  0  0  0  0  0
  -57.5002  -19.3264   -7.0599 C   0  0  0  0  0  0  0  0  0  0  0  0
  -58.4832  -18.4234   -4.9689 C   0  0  0  0  0  0  0  0  0  0  0  0
  -54.4022  -22.4864   -7.5379 C   0  0  0  0  0  0  0  0  0  0  0  0
  -61.1412  -19.8314   -1.7589 C   0  0  0  0  0  0  0  0  0  0  0  0
  -59.5472  -26.0364   -1.0129 C   0  0  0  0  0  0  0  0  0  0  0  0
  -63.0092  -25.1084   -0.8129 C   0  0  0  0  0  0  0  0  0  0  0  0
  -62.4772  -19.8324   -2.0969 C   0  0  0  0  0  0  0  0  0  0  0  0
  -60.4462  -18.6414   -1.7419 C   0  0  0  0  0  0  0  0  0  0  0  0
  -58.7752  -25.0044   -0.5259 C   0  0  0  0  0  0  0  0  0  0  0  0
  -59.5842  -27.2354   -0.3349 C   0  0  0  0  0  0  0  0  0  0  0  0
  -64.5092  -25.2364   -0.7059 C   0  0  0  0  0  0  0  0  0  0  0  0
  -63.1132  -18.6544   -2.4169 C   0  0  0  0  0  0  0  0  0  0  0  0
  -61.0812  -17.4624   -2.0609 C   0  0  0  0  0  0  0  0  0  0  0  0
  -62.4152  -17.4694   -2.3989 C   0  0  0  0  0  0  0  0  0  0  0  0
  -58.0442  -25.1684    0.6281 C   0  0  0  0  0  0  0  0  0  0  0  0
  -58.8532  -27.4014    0.8201 C   0  0  0  0  0  0  0  0  0  0  0  0
  -58.0822  -26.3684    1.3011 C   0  0  0  0  0  0  0  0  0  0  0  0
  -65.8792  -24.9354    1.2091 C   0  0  0  0  0  0  0  0  0  0  0  0
  -67.2322  -25.0244    0.8961 C   0  0  0  0  0  0  0  0  0  0  0  0
  -65.4372  -25.4034    2.4401 C   0  0  0  0  0  0  0  0  0  0  0  0
  -68.1062  -25.5914    1.7941 C   0  0  0  0  0  0  0  0  0  0  0  0
  -66.3262  -25.9644    3.3261 C   0  0  0  0  0  0  0  0  0  0  0  0
  -67.8492  -24.5284   -0.4029 C   0  0  0  0  0  0  0  0  0  0  0  0
  -63.9782  -25.3264    2.8621 C   0  0  0  0  0  0  0  0  0  0  0  0
  -67.6602  -26.0624    3.0051 C   0  0  0  0  0  0  0  0  0  0  0  0
  -59.3892  -22.6794   -2.2349 H   0  0  0  0  0  0  0  0  0  0  0  0
  -56.6962  -19.9844   -4.2589 H   0  0  0  0  0  0  0  0  0  0  0  0
  -60.2542  -24.2124   -4.1889 H   0  0  0  0  0  0  0  0  0  0  0  0
  -60.8342  -23.9454   -1.6369 H   0  0  0  0  0  0  0  0  0  0  0  0
  -62.8982  -23.5554   -4.5839 H   0  0  0  0  0  0  0  0  0  0  0  0
  -59.2392  -20.2344   -3.6209 H   0  0  0  0  0  0  0  0  0  0  0  0
  -63.2012  -24.7854   -2.7199 H   0  0  0  0  0  0  0  0  0  0  0  0
  -53.1562  -21.2194   -6.5179 H   0  0  0  0  0  0  0  0  0  0  0  0
  -60.8842  -21.9574   -4.4659 H   0  0  0  0  0  0  0  0  0  0  0  0
  -61.8892  -22.0804   -3.1549 H   0  0  0  0  0  0  0  0  0  0  0  0
  -58.9652  -20.2654   -5.8769 H   0  0  0  0  0  0  0  0  0  0  0  0
  -59.6802  -20.9334   -0.7969 H   0  0  0  0  0  0  0  0  0  0  0  0
  -61.1332  -21.7254   -0.9879 H   0  0  0  0  0  0  0  0  0  0  0  0
  -57.0452  -21.9674   -7.4479 H   0  0  0  0  0  0  0  0  0  0  0  0
  -57.3812  -22.8734   -6.1189 H   0  0  0  0  0  0  0  0  0  0  0  0
  -55.8582  -23.9944   -7.6499 H   0  0  0  0  0  0  0  0  0  0  0  0
  -55.2422  -23.8484   -6.1659 H   0  0  0  0  0  0  0  0  0  0  0  0
  -59.7182  -25.8434   -3.0639 H   0  0  0  0  0  0  0  0  0  0  0  0
  -61.0002  -26.6144   -2.3279 H   0  0  0  0  0  0  0  0  0  0  0  0
  -57.4622  -18.3294   -7.1199 H   0  0  0  0  0  0  0  0  0  0  0  0
  -56.5762  -19.7024   -7.1169 H   0  0  0  0  0  0  0  0  0  0  0  0
  -58.0472  -19.6904   -7.8139 H   0  0  0  0  0  0  0  0  0  0  0  0
  -58.2102  -17.6424   -5.5299 H   0  0  0  0  0  0  0  0  0  0  0  0
  -59.4672  -18.3844   -4.7939 H   0  0  0  0  0  0  0  0  0  0  0  0
  -57.9952  -18.3994   -4.0959 H   0  0  0  0  0  0  0  0  0  0  0  0
  -53.6222  -23.0754   -7.7509 H   0  0  0  0  0  0  0  0  0  0  0  0
  -54.7112  -22.0304   -8.3719 H   0  0  0  0  0  0  0  0  0  0  0  0
  -62.9872  -20.6924   -2.1089 H   0  0  0  0  0  0  0  0  0  0  0  0
  -59.4772  -18.6344   -1.4969 H   0  0  0  0  0  0  0  0  0  0  0  0
  -58.7462  -24.1314   -1.0139 H   0  0  0  0  0  0  0  0  0  0  0  0
  -60.1432  -27.9874   -0.6829 H   0  0  0  0  0  0  0  0  0  0  0  0
  -64.9302  -24.9624   -1.5709 H   0  0  0  0  0  0  0  0  0  0  0  0
  -64.7432  -26.1874   -0.5049 H   0  0  0  0  0  0  0  0  0  0  0  0
  -64.0822  -18.6604   -2.6629 H   0  0  0  0  0  0  0  0  0  0  0  0
  -60.5732  -16.6014   -2.0469 H   0  0  0  0  0  0  0  0  0  0  0  0
  -62.8762  -16.6134   -2.6319 H   0  0  0  0  0  0  0  0  0  0  0  0
  -57.4842  -24.4174    0.9771 H   0  0  0  0  0  0  0  0  0  0  0  0
  -58.8822  -28.2734    1.3081 H   0  0  0  0  0  0  0  0  0  0  0  0
  -57.5512  -26.4884    2.1401 H   0  0  0  0  0  0  0  0  0  0  0  0
  -69.0772  -25.6604    1.5631 H   0  0  0  0  0  0  0  0  0  0  0  0
  -66.0012  -26.3044    4.2091 H   0  0  0  0  0  0  0  0  0  0  0  0
  -68.8332  -24.7064   -0.3849 H   0  0  0  0  0  0  0  0  0  0  0  0
  -67.6862  -23.5474   -0.5019 H   0  0  0  0  0  0  0  0  0  0  0  0
  -67.4352  -25.0064   -1.1779 H   0  0  0  0  0  0  0  0  0  0  0  0
  -63.8832  -25.7214    3.7751 H   0  0  0  0  0  0  0  0  0  0  0  0
  -63.4122  -25.8364    2.2141 H   0  0  0  0  0  0  0  0  0  0  0  0
  -63.6812  -24.3724    2.8731 H   0  0  0  0  0  0  0  0  0  0  0  0
  -68.3022  -26.4754    3.6511 H   0  0  0  0  0  0  0  0  0  0  0  0
  2 17  2  0
  3 21  2  0
  4 27  2  0
  5 32  1  0
  5 39  1  0
  6 11  1  0
  6 18  1  0
  6 21  1  0
  7 17  1  0
  8 27  1  0
  9 21  1  0
  9 24  1  0
 10  7  1  0
 10 12  1  0
 10 16  1  0
 11 14  1  0
 11 17  1  0
 12 13  1  0
 13  1  1  0
 13 15  1  0
 14 22  1  0
 14 23  1  0
 15  8  1  0
 15 20  1  0
 16 25  1  0
 18 19  1  0
 19 24  1  0
 20 26  1  0
 25 28  2  0
 25 29  1  0
 26 30  2  0
 26 31  1  0
 27 32  1  0
 28 33  1  0
 29 34  2  0
 30 36  1  0
 31 37  2  0
 33 35  2  0
 34 35  1  0
 36 38  2  0
 37 38  1  0
 39 40  2  0
 39 41  1  0
 40 42  1  0
 40 44  1  0
 41 43  2  0
 41 45  1  0
 42 46  2  0
 43 46  1  0
  1 51  1  0
  7 52  1  0
  8 53  1  0
  9 54  1  0
 10 47  1  0
 11 48  1  0
 12 55  1  0
 12 56  1  0
 13 49  1  0
 14 57  1  0
 15 50  1  0
 16 58  1  0
 16 59  1  0
 18 60  1  0
 18 61  1  0
 19 62  1  0
 19 63  1  0
 20 64  1  0
 20 65  1  0
 22 66  1  0
 22 67  1  0
 22 68  1  0
 23 69  1  0
 23 70  1  0
 23 71  1  0
 24 72  1  0
 24 73  1  0
 28 74  1  0
 29 75  1  0
 30 76  1  0
 31 77  1  0
 32 78  1  0
 32 79  1  0
 33 80  1  0
 34 81  1  0
 35 82  1  0
 36 83  1  0
 37 84  1  0
 38 85  1  0
 42 86  1  0
 43 87  1  0
 44 88  1  0
 44 89  1  0
 44 90  1  0
 45 91  1  0
 45 92  1  0
 45 93  1  0
 46 94  1  0
M  END
>  <BioMolTech Lead Finder dG>
-11.196

>  <BioMolTech Lead Finder VSscore>
-13.084

>  <BioMolTech Lead Finder Rank score>
-15.082

>  <BioMolTech Lead Finder LE>
-0.243

>  <BioMolTech Lead Finder Structure Name>
/var/folders/xd/y7jw_xv579q2qqq7kks92xd80000gn/T/LeadFinder_78739_1/Ligand_1.sdf

>  <BioMolTech Lead Finder SDF id>
0

>  <BioMolTech Lead Finder Pose rank>
0

>  <BioMolTech Lead Finder version>
2001 1, 19 January 2019

>  <PUBCHEM_COMPOUND_CID>
92727

>  <PUBCHEM_COMPOUND_CANONICALIZED>
1

>  <PUBCHEM_CACTVS_COMPLEXITY>
940

>  <PUBCHEM_CACTVS_HBOND_ACCEPTOR>
5

>  <PUBCHEM_CACTVS_HBOND_DONOR>
4

>  <PUBCHEM_CACTVS_ROTATABLE_BOND>
15

>  <PUBCHEM_CACTVS_SUBSKEYS>
AAADcfB/uAAAAAAAAAAAAAAAAAAAAAAAAAA8YMEAAAAAAAABUAAAHgAQCAAADTzhmAYzBoPABgCIAiFSEAICCAAgIAAIiIHMCIiOdjKE8T+XeCCu1hOYqAeQwPAOAAACAAAIAAAAAAQAABAAAAAAAAAAAA==

>  <PUBCHEM_IUPAC_OPENEYE_NAME>
(2S)-N-[(1S,3S,4S)-1-benzyl-4-[[2-(2,6-dimethylphenoxy)acetyl]amino]-3-hydroxy-5-phenyl-pentyl]-3-methyl-2-(2-oxohexahydropyrimidin-1-yl)butanamide

>  <PUBCHEM_IUPAC_CAS_NAME>
(2S)-N-[(2S,4S,5S)-5-[[2-(2,6-dimethylphenoxy)-1-oxoethyl]amino]-4-hydroxy-1,6-diphenylhexan-2-yl]-3-methyl-2-(2-oxo-1,3-diazinan-1-yl)butanamide

>  <PUBCHEM_IUPAC_NAME_MARKUP>
(2<I>S</I>)-<I>N</I>-[(2<I>S</I>,4<I>S</I>,5<I>S</I>)-5-[[2-(2,6-dimethylphenoxy)acetyl]amino]-4-hydroxy-1,6-diphenylhexan-2-yl]-3-methyl-2-(2-oxo-1,3-diazinan-1-yl)butanamide

>  <PUBCHEM_IUPAC_NAME>
(2S)-N-[(2S,4S,5S)-5-[[2-(2,6-dimethylphenoxy)acetyl]amino]-4-hydroxy-1,6-diphenylhexan-2-yl]-3-methyl-2-(2-oxo-1,3-diazinan-1-yl)butanamide

>  <PUBCHEM_IUPAC_SYSTEMATIC_NAME>
(2S)-N-[(2S,4S,5S)-5-[2-(2,6-dimethylphenoxy)ethanoylamino]-4-oxidanyl-1,6-diphenyl-hexan-2-yl]-3-methyl-2-(2-oxidanylidene-1,3-diazinan-1-yl)butanamide

>  <PUBCHEM_IUPAC_TRADITIONAL_NAME>
(2S)-N-[(1S,3S,4S)-1-benzyl-4-[[2-(2,6-dimethylphenoxy)acetyl]amino]-3-hydroxy-5-phenyl-pentyl]-2-(2-ketohexahydropyrimidin-1-yl)-3-methyl-butyramide

>  <PUBCHEM_IUPAC_INCHI>
InChI=1S/C37H48N4O5/c1-25(2)34(41-20-12-19-38-37(41)45)36(44)39-30(21-28-15-7-5-8-16-28)23-32(42)31(22-29-17-9-6-10-18-29)40-33(43)24-46-35-26(3)13-11-14-27(35)4/h5-11,13-18,25,30-32,34,42H,12,19-24H2

>  <PUBCHEM_IUPAC_INCHIKEY>
KJHKTHWMRKYKJE-SUGCFTRWSA-N

>  <PUBCHEM_XLOGP3_AA>
5.9

>  <PUBCHEM_EXACT_MASS>
628.362471

>  <PUBCHEM_MOLECULAR_FORMULA>
C37H48N4O5

>  <PUBCHEM_MOLECULAR_WEIGHT>
628.8

>  <PUBCHEM_OPENEYE_CAN_SMILES>
CC1=C(C(=CC=C1)C)OCC(=O)NC(CC2=CC=CC=C2)C(CC(CC3=CC=CC=C3)NC(=O)C(C(C)C)N4CCCNC4=O)O

>  <PUBCHEM_OPENEYE_ISO_SMILES>
CC1=C(C(=CC=C1)C)OCC(=O)N[C@@H](CC2=CC=CC=C2)[C@H](C[C@H](CC3=CC=CC=C3)NC(=O)[C@H](C(C)C)N4CCCNC4=O)O

>  <PUBCHEM_CACTVS_TPSA>
120

>  <PUBCHEM_MONOISOTOPIC_WEIGHT>
628.362471

>  <PUBCHEM_TOTAL_CHARGE>
0

>  <PUBCHEM_HEAVY_ATOM_COUNT>
46

>  <PUBCHEM_ATOM_DEF_STEREO_COUNT>
4

>  <PUBCHEM_ATOM_UDEF_STEREO_COUNT>
0

>  <PUBCHEM_BOND_DEF_STEREO_COUNT>
0

>  <PUBCHEM_BOND_UDEF_STEREO_COUNT>
0

>  <PUBCHEM_ISOTOPIC_ATOM_COUNT>
0

>  <PUBCHEM_COMPONENT_COUNT>
1

>  <PUBCHEM_CACTVS_TAUTO_COUNT>
-1

>  <PUBCHEM_COORDINATE_TYPE>
1
5
255

>  <PUBCHEM_BONDANNOTATIONS>
13  1  6
11  17  5
25  28  8
25  29  8
26  30  8
26  31  8
28  33  8
29  34  8
30  36  8
31  37  8
33  35  8
34  35  8
36  38  8
37  38  8
39  40  8
39  41  8
40  42  8
41  43  8
42  46  8
43  46  8
10  7  6
15  8  5

>  <LF dG>
-11.196

>  <LF VSscore>
-13.084

>  <LF Rank Score>
-15.082

>  <LF LE>
-0.243

>  <Preferred Pose_cresset>
true

>  <Favorite_cresset>
false

>  <Protein_cresset>
6M2N_Dimer_P

>  <MW_cresset>
628.8

>  <#Atoms_cresset>
46

>  <SlogP_cresset>
4.7

>  <TPSA_cresset>
120

>  <Flexibility_cresset>
16.1

>  <#RB_cresset>
16

>  <Rof5_cresset>
1

>  <Filename_cresset>
Lopinavir.sdf

>  <Confs_cresset>
0

>  <Poses_cresset>
10

>  <_cresset_fieldpoints>
    -5     -62.078751     -25.905508      -5.450238     -5.6920
    -5     -55.784882     -23.064352      -3.946819    -14.7754
    -5     -62.445236     -18.516232       0.792485     -4.5234
    -5     -56.566048     -26.731609      -1.627364     -7.5236
    -5     -53.067741     -19.286127      -4.328563    -13.0006
    -5     -66.517052     -22.695862       3.112709     -6.1828
    -5     -61.111744     -25.245897       1.536132    -15.8492
    -6     -59.809769     -22.137363      -6.964349      4.4260
    -6     -64.246567     -23.033096      -3.576474     11.8803
    -6     -58.187775     -16.600304      -2.320883      3.2313
    -6     -56.720924     -22.766273      -9.771948      4.1944
    -6     -51.484406     -21.730213      -7.812027      3.2830
    -6     -61.390060     -20.003731      -5.631049      4.8910
    -6     -57.488449     -18.954531      -1.958805      2.7713
    -6     -61.662819     -14.528120      -3.063122      3.0857
    -6     -57.891659     -22.013033       0.148097      1.0987
    -6     -70.904510     -25.767902       0.228386      3.0129
    -7     -59.854607     -22.533665      -6.656888     -3.1117
    -7     -64.303085     -22.589321      -2.477842     -3.5723
    -7     -61.535751     -19.661579      -5.290026     -3.7770
    -7     -62.903145     -26.727390      -4.215947     -2.2705
    -7     -63.344402     -27.359257      -2.895309     -2.3960
    -7     -57.345711     -19.802982      -1.712152     -3.4583
    -7     -57.040154     -22.168049      -1.262857     -3.0087
    -7     -55.274124     -17.819439      -5.255522     -2.5522
    -7     -54.293610     -19.263374      -8.130926     -2.1773
    -7     -51.094963     -22.181345      -7.775742     -0.8977
    -7     -61.268768     -23.369198       0.970553     -4.0079
    -7     -56.557426     -20.914852      -9.743336     -1.9656
    -7     -55.217361     -22.994144      -3.622494     -2.7884
    -7     -62.438217     -18.507614       1.099873     -1.8420
    -7     -56.508553     -27.135323      -1.967928     -1.8731
    -7     -56.826965     -26.774027      -2.656996     -1.8552
    -7     -65.475342     -16.460327      -3.484587     -0.9708
    -7     -65.973412     -28.235424       0.580093     -2.4554
    -7     -57.726181     -28.699219       3.748579     -0.9700
    -7     -62.672268     -27.657383       0.615412     -3.1734
    -7     -56.115623     -24.481836       3.336699     -0.9718
    -7     -57.761055     -24.933437      -4.375573     -3.3990
    -7     -67.098717     -22.480759       3.211369     -1.9969
    -7     -71.027176     -26.632446       3.101579     -1.0053
    -7     -63.271637     -22.333443       0.052160     -3.7207
    -7     -67.472885     -27.420883       6.139241     -1.0012
    -8     -60.674034     -23.112499      -2.814643      5.9055
    -8     -59.896271     -25.164925      -1.590486      5.7816
    -8     -61.050308     -21.144081      -2.273350      5.8094
    -8     -57.841225     -19.295513      -5.691365      5.9271
    -8     -55.664696     -22.810078      -7.307131      4.9422
    -8     -61.773506     -18.657421      -2.084087      7.2208
    -8     -58.815483     -26.201607       0.140347      7.1875
    -8     -66.791321     -25.509895       2.128378      7.0736
    -8     -60.367455     -24.681288      -2.735027      5.2202
    -8     -64.157898     -25.762766      -1.184909      2.8721

$$$$
W_Baicalein_D
  xed2sdf_05210316543D
 
 30 32  0  0  0  0  0  0  0  0999 V2000
  -58.9701  -24.2623   -1.6057 O   0  0  0  0  0  0  0  0  0  0  0  0
  -58.8331  -26.1373    2.8583 O   0  0  0  0  0  0  0  0  0  0  0  0
  -58.8311  -28.6143    1.7743 O   0  0  0  0  0  0  0  0  0  0  0  0
  -58.8851  -28.9313   -0.9527 O   0  0  0  0  0  0  0  0  0  0  0  0
  -58.8341  -23.4673    2.3533 O   0  0  0  0  0  0  0  0  0  0  0  0
  -58.8921  -25.1273    0.6673 C   0  0  0  0  0  0  0  0  0  0  0  0
  -58.9291  -25.2983   -0.7217 C   0  0  0  0  0  0  0  0  0  0  0  0
  -59.0031  -22.9813   -1.1127 C   0  0  0  0  0  0  0  0  0  0  0  0
  -58.8611  -26.2563    1.5033 C   0  0  0  0  0  0  0  0  0  0  0  0
  -58.8891  -23.7613    1.1593 C   0  0  0  0  0  0  0  0  0  0  0  0
  -58.9571  -22.7013    0.2213 C   0  0  0  0  0  0  0  0  0  0  0  0
  -59.0951  -21.8863   -2.1137 C   0  0  0  0  0  0  0  0  0  0  0  0
  -58.9251  -26.5793   -1.2417 C   0  0  0  0  0  0  0  0  0  0  0  0
  -58.8601  -27.5163    0.9583 C   0  0  0  0  0  0  0  0  0  0  0  0
  -58.8901  -27.6823   -0.4197 C   0  0  0  0  0  0  0  0  0  0  0  0
  -60.3031  -21.4363   -2.6317 C   0  0  0  0  0  0  0  0  0  0  0  0
  -57.9281  -21.2833   -2.5597 C   0  0  0  0  0  0  0  0  0  0  0  0
  -60.3381  -20.4243   -3.5587 C   0  0  0  0  0  0  0  0  0  0  0  0
  -57.9641  -20.2713   -3.4877 C   0  0  0  0  0  0  0  0  0  0  0  0
  -59.1701  -19.8393   -3.9907 C   0  0  0  0  0  0  0  0  0  0  0  0
  -59.0211  -27.0073    3.3203 H   0  0  0  0  0  0  0  0  0  0  0  0
  -59.5671  -29.2603    1.5453 H   0  0  0  0  0  0  0  0  0  0  0  0
  -59.5831  -29.5163   -0.5247 H   0  0  0  0  0  0  0  0  0  0  0  0
  -58.9701  -21.7523    0.5363 H   0  0  0  0  0  0  0  0  0  0  0  0
  -58.9481  -26.7063   -2.2337 H   0  0  0  0  0  0  0  0  0  0  0  0
  -61.1581  -21.8553   -2.3247 H   0  0  0  0  0  0  0  0  0  0  0  0
  -57.0471  -21.5913   -2.2007 H   0  0  0  0  0  0  0  0  0  0  0  0
  -61.2161  -20.1113   -3.9227 H   0  0  0  0  0  0  0  0  0  0  0  0
  -57.1131  -19.8483   -3.7987 H   0  0  0  0  0  0  0  0  0  0  0  0
  -59.1971  -19.1023   -4.6667 H   0  0  0  0  0  0  0  0  0  0  0  0
  1  7  1  0
  1  8  1  0
  2  9  1  0
  3 14  1  0
  4 15  1  0
  5 10  2  0
  6  7  2  0
  6  9  1  0
  6 10  1  0
  7 13  1  0
  8 11  2  0
  8 12  1  0
  9 14  2  0
 10 11  1  0
 12 16  2  0
 12 17  1  0
 13 15  2  0
 14 15  1  0
 16 18  1  0
 17 19  2  0
 18 20  2  0
 19 20  1  0
  2 21  1  0
  3 22  1  0
  4 23  1  0
 11 24  1  0
 13 25  1  0
 16 26  1  0
 17 27  1  0
 18 28  1  0
 19 29  1  0
 20 30  1  0
M  END
>  <BioMolTech Lead Finder dG>
-7.48

>  <BioMolTech Lead Finder VSscore>
-9.171

>  <BioMolTech Lead Finder Rank score>
-10.835

>  <BioMolTech Lead Finder LE>
-0.374

>  <BioMolTech Lead Finder Structure Name>
/var/folders/xd/y7jw_xv579q2qqq7kks92xd80000gn/T/LeadFinder_78740_1/Ligand_1.sdf

>  <BioMolTech Lead Finder SDF id>
0

>  <BioMolTech Lead Finder Pose rank>
0

>  <BioMolTech Lead Finder version>
2001 1, 19 January 2019

>  <PUBCHEM_COMPOUND_CID>
5281605

>  <PUBCHEM_COMPOUND_CANONICALIZED>
1

>  <PUBCHEM_CACTVS_COMPLEXITY>
413

>  <PUBCHEM_CACTVS_HBOND_ACCEPTOR>
5

>  <PUBCHEM_CACTVS_HBOND_DONOR>
3

>  <PUBCHEM_CACTVS_ROTATABLE_BOND>
1

>  <PUBCHEM_CACTVS_SUBSKEYS>
AAADccBwOAAAAAAAAAAAAAAAAAAAAAAAAAAwYIAAAAAAAACBQAAAGgAACAAADASAmAAwBoAABgCIAqBSAAACCAAkIAAIiAEGiMgNJzaGNRqCeWGl4BUJuQfK7LzOIQABCAAIQABCAAIQABCAAAAAAAAAAA==

>  <PUBCHEM_IUPAC_OPENEYE_NAME>
5,6,7-trihydroxy-2-phenyl-chromen-4-one

>  <PUBCHEM_IUPAC_CAS_NAME>
5,6,7-trihydroxy-2-phenyl-1-benzopyran-4-one

>  <PUBCHEM_IUPAC_NAME_MARKUP>
5,6,7-trihydroxy-2-phenylchromen-4-one

>  <PUBCHEM_IUPAC_NAME>
5,6,7-trihydroxy-2-phenylchromen-4-one

>  <PUBCHEM_IUPAC_SYSTEMATIC_NAME>
5,6,7-tris(oxidanyl)-2-phenyl-chromen-4-one

>  <PUBCHEM_IUPAC_TRADITIONAL_NAME>
5,6,7-trihydroxy-2-phenyl-chromone

>  <PUBCHEM_IUPAC_INCHI>
InChI=1S/C15H10O5/c16-9-6-11(8-4-2-1-3-5-8)20-12-7-10(17)14(18)15(19)13(9)12/h1-7,17-19H

>  <PUBCHEM_IUPAC_INCHIKEY>
FXNFHKRTJBSTCS-UHFFFAOYSA-N

>  <PUBCHEM_XLOGP3>
1.7

>  <PUBCHEM_EXACT_MASS>
270.052823

>  <PUBCHEM_MOLECULAR_FORMULA>
C15H10O5

>  <PUBCHEM_MOLECULAR_WEIGHT>
270.24

>  <PUBCHEM_OPENEYE_CAN_SMILES>
C1=CC=C(C=C1)C2=CC(=O)C3=C(O2)C=C(C(=C3O)O)O

>  <PUBCHEM_OPENEYE_ISO_SMILES>
C1=CC=C(C=C1)C2=CC(=O)C3=C(O2)C=C(C(=C3O)O)O

>  <PUBCHEM_CACTVS_TPSA>
87

>  <PUBCHEM_MONOISOTOPIC_WEIGHT>
270.052823

>  <PUBCHEM_TOTAL_CHARGE>
0

>  <PUBCHEM_HEAVY_ATOM_COUNT>
20

>  <PUBCHEM_ATOM_DEF_STEREO_COUNT>
0

>  <PUBCHEM_ATOM_UDEF_STEREO_COUNT>
0

>  <PUBCHEM_BOND_DEF_STEREO_COUNT>
0

>  <PUBCHEM_BOND_UDEF_STEREO_COUNT>
0

>  <PUBCHEM_ISOTOPIC_ATOM_COUNT>
0

>  <PUBCHEM_COMPONENT_COUNT>
1

>  <PUBCHEM_CACTVS_TAUTO_COUNT>
-1

>  <PUBCHEM_COORDINATE_TYPE>
1
5
255

>  <PUBCHEM_BONDANNOTATIONS>
1  7  8
1  8  8
10  11  8
12  16  8
12  17  8
13  15  8
14  15  8
16  18  8
17  19  8
18  20  8
19  20  8
6  10  8
6  7  8
6  9  8
7  13  8
8  11  8
9  14  8

>  <LF dG>
-7.48

>  <LF VSscore>
-9.171

>  <LF Rank Score>
-10.835

>  <LF LE>
-0.374

>  <Preferred Pose_cresset>
true

>  <Favorite_cresset>
false

>  <Protein_cresset>
6M2N_Dimer_P

>  <MW_cresset>
270.2

>  <#Atoms_cresset>
20

>  <SlogP_cresset>
2.3

>  <TPSA_cresset>
87

>  <Flexibility_cresset>
1.7

>  <#RB_cresset>
4

>  <Rof5_cresset>
0

>  <Filename_cresset>
Baicalein.sdf

>  <Confs_cresset>
0

>  <Poses_cresset>
10

>  <_cresset_fieldpoints>
    -5     -58.864059     -22.980755      -5.094005     -3.2573
    -5     -58.513641     -24.452364       3.914075    -15.0680
    -5     -58.695114     -24.143978      -3.970923     -3.1108
    -5     -58.705311     -22.068237       3.597163    -11.8908
    -5     -59.297462     -18.749767      -0.930350     -3.0832
    -6     -60.719582     -30.192860       0.629895     12.6181
    -6     -55.951359     -23.252197      -1.362291      1.3556
    -6     -63.337978     -21.145519      -3.319947      2.9457
    -6     -61.966080     -23.712555      -1.392077      2.5204
    -6     -54.922211     -20.356476      -3.225250      2.4510
    -6     -61.386063     -18.335026      -5.621416      2.9179
    -6     -57.221817     -18.000706      -5.549562      2.7947
    -7     -56.099899     -23.494892      -0.625567     -2.6055
    -7     -60.668716     -24.623604       3.695426     -1.6775
    -7     -56.886490     -24.598103       3.529683     -1.6348
    -7     -57.987404     -30.763691       0.655212     -1.5280
    -7     -60.798470     -28.485445       3.431425     -1.4161
    -7     -61.731796     -29.173157       0.511990     -1.3858
    -7     -57.217918     -28.377907       3.708163     -1.3284
    -7     -60.524239     -29.323238      -2.775414     -1.2179
    -7     -62.125519     -26.111330       0.202215     -1.8243
    -7     -59.310486     -19.175812      -0.207200     -2.0520
    -7     -55.665176     -26.042934       0.041687     -1.8074
    -7     -61.835342     -23.645634      -0.441474     -2.6080
    -7     -63.632408     -21.225792      -3.164217     -0.9876
    -7     -58.886757     -24.490765      -4.046569     -2.4544
    -7     -56.967735     -17.848999      -5.647980     -0.9670
    -7     -54.654457     -20.469591      -2.673330     -0.9924
    -7     -57.626244     -16.872475      -3.349864     -0.9586
    -7     -61.498268     -18.136120      -5.790151     -0.9673
    -8     -59.132454     -20.858034      -3.053712      7.1507
    -8     -58.894775     -26.375355       0.105404      6.5997
    -8     -58.941689     -23.985947       0.105091      5.0050

$$$$
Baicalein_D
  xed2sdf_05210316543D
 
 30 32  0  0  0  0  0  0  0  0999 V2000
  -58.3938  -20.6589   -1.0534 O   0  0  0  0  0  0  0  0  0  0  0  0
  -57.7178  -20.3489    3.7336 O   0  0  0  0  0  0  0  0  0  0  0  0
  -55.7268  -18.5729    3.2956 O   0  0  0  0  0  0  0  0  0  0  0  0
  -55.0718  -17.8299    0.7346 O   0  0  0  0  0  0  0  0  0  0  0  0
  -59.6298  -21.9029    2.5866 O   0  0  0  0  0  0  0  0  0  0  0  0
  -58.1218  -20.5509    1.3616 C   0  0  0  0  0  0  0  0  0  0  0  0
  -57.7748  -20.1739    0.0596 C   0  0  0  0  0  0  0  0  0  0  0  0
  -59.3918  -21.5879   -0.8954 C   0  0  0  0  0  0  0  0  0  0  0  0
  -57.4208  -20.0039    2.4506 C   0  0  0  0  0  0  0  0  0  0  0  0
  -59.2068  -21.5049    1.5016 C   0  0  0  0  0  0  0  0  0  0  0  0
  -59.8178  -22.0139    0.3286 C   0  0  0  0  0  0  0  0  0  0  0  0
  -60.0048  -22.1239   -2.1394 C   0  0  0  0  0  0  0  0  0  0  0  0
  -56.7528  -19.2609   -0.1274 C   0  0  0  0  0  0  0  0  0  0  0  0
  -56.4078  -19.1029    2.2346 C   0  0  0  0  0  0  0  0  0  0  0  0
  -56.0718  -18.7259    0.9416 C   0  0  0  0  0  0  0  0  0  0  0  0
  -59.7508  -23.4029   -2.6154 C   0  0  0  0  0  0  0  0  0  0  0  0
  -60.8668  -21.3149   -2.8654 C   0  0  0  0  0  0  0  0  0  0  0  0
  -60.3358  -23.8529   -3.7734 C   0  0  0  0  0  0  0  0  0  0  0  0
  -61.4528  -21.7659   -4.0244 C   0  0  0  0  0  0  0  0  0  0  0  0
  -61.1878  -23.0369   -4.4814 C   0  0  0  0  0  0  0  0  0  0  0  0
  -56.9588  -20.8259    4.1836 H   0  0  0  0  0  0  0  0  0  0  0  0
  -56.2438  -17.8279    3.7296 H   0  0  0  0  0  0  0  0  0  0  0  0
  -54.1768  -18.2129    0.9876 H   0  0  0  0  0  0  0  0  0  0  0  0
  -60.5588  -22.6819    0.3976 H   0  0  0  0  0  0  0  0  0  0  0  0
  -56.5038  -18.9859   -1.0564 H   0  0  0  0  0  0  0  0  0  0  0  0
  -59.1328  -24.0039   -2.1084 H   0  0  0  0  0  0  0  0  0  0  0  0
  -61.0648  -20.3899   -2.5414 H   0  0  0  0  0  0  0  0  0  0  0  0
  -60.1428  -24.7769   -4.1034 H   0  0  0  0  0  0  0  0  0  0  0  0
  -62.0718  -21.1699   -4.5354 H   0  0  0  0  0  0  0  0  0  0  0  0
  -61.6138  -23.3649   -5.3244 H   0  0  0  0  0  0  0  0  0  0  0  0
  1  7  1  0
  1  8  1  0
  2  9  1  0
  3 14  1  0
  4 15  1  0
  5 10  2  0
  6  7  2  0
  6  9  1  0
  6 10  1  0
  7 13  1  0
  8 11  2  0
  8 12  1  0
  9 14  2  0
 10 11  1  0
 12 16  2  0
 12 17  1  0
 13 15  2  0
 14 15  1  0
 16 18  1  0
 17 19  2  0
 18 20  2  0
 19 20  1  0
  2 21  1  0
  3 22  1  0
  4 23  1  0
 11 24  1  0
 13 25  1  0
 16 26  1  0
 17 27  1  0
 18 28  1  0
 19 29  1  0
 20 30  1  0
M  END
>  <BioMolTech Lead Finder dG>
-7.154

>  <BioMolTech Lead Finder VSscore>
-9.462

>  <BioMolTech Lead Finder Rank score>
-11.742

>  <BioMolTech Lead Finder LE>
-0.358

>  <BioMolTech Lead Finder Structure Name>
/var/folders/xd/y7jw_xv579q2qqq7kks92xd80000gn/T/LeadFinder_74389_1/Ligand_1.sdf

>  <BioMolTech Lead Finder SDF id>
0

>  <BioMolTech Lead Finder Pose rank>
0

>  <BioMolTech Lead Finder version>
2001 1, 19 January 2019

>  <PUBCHEM_COMPOUND_CID>
5281605

>  <PUBCHEM_COMPOUND_CANONICALIZED>
1

>  <PUBCHEM_CACTVS_COMPLEXITY>
413

>  <PUBCHEM_CACTVS_HBOND_ACCEPTOR>
5

>  <PUBCHEM_CACTVS_HBOND_DONOR>
3

>  <PUBCHEM_CACTVS_ROTATABLE_BOND>
1

>  <PUBCHEM_CACTVS_SUBSKEYS>
AAADccBwOAAAAAAAAAAAAAAAAAAAAAAAAAAwYIAAAAAAAACBQAAAGgAACAAADASAmAAwBoAABgCIAqBSAAACCAAkIAAIiAEGiMgNJzaGNRqCeWGl4BUJuQfK7LzOIQABCAAIQABCAAIQABCAAAAAAAAAAA==

>  <PUBCHEM_IUPAC_OPENEYE_NAME>
5,6,7-trihydroxy-2-phenyl-chromen-4-one

>  <PUBCHEM_IUPAC_CAS_NAME>
5,6,7-trihydroxy-2-phenyl-1-benzopyran-4-one

>  <PUBCHEM_IUPAC_NAME_MARKUP>
5,6,7-trihydroxy-2-phenylchromen-4-one

>  <PUBCHEM_IUPAC_NAME>
5,6,7-trihydroxy-2-phenylchromen-4-one

>  <PUBCHEM_IUPAC_SYSTEMATIC_NAME>
5,6,7-tris(oxidanyl)-2-phenyl-chromen-4-one

>  <PUBCHEM_IUPAC_TRADITIONAL_NAME>
5,6,7-trihydroxy-2-phenyl-chromone

>  <PUBCHEM_IUPAC_INCHI>
InChI=1S/C15H10O5/c16-9-6-11(8-4-2-1-3-5-8)20-12-7-10(17)14(18)15(19)13(9)12/h1-7,17-19H

>  <PUBCHEM_IUPAC_INCHIKEY>
FXNFHKRTJBSTCS-UHFFFAOYSA-N

>  <PUBCHEM_XLOGP3>
1.7

>  <PUBCHEM_EXACT_MASS>
270.052823

>  <PUBCHEM_MOLECULAR_FORMULA>
C15H10O5

>  <PUBCHEM_MOLECULAR_WEIGHT>
270.24

>  <PUBCHEM_OPENEYE_CAN_SMILES>
C1=CC=C(C=C1)C2=CC(=O)C3=C(O2)C=C(C(=C3O)O)O

>  <PUBCHEM_OPENEYE_ISO_SMILES>
C1=CC=C(C=C1)C2=CC(=O)C3=C(O2)C=C(C(=C3O)O)O

>  <PUBCHEM_CACTVS_TPSA>
87

>  <PUBCHEM_MONOISOTOPIC_WEIGHT>
270.052823

>  <PUBCHEM_TOTAL_CHARGE>
0

>  <PUBCHEM_HEAVY_ATOM_COUNT>
20

>  <PUBCHEM_ATOM_DEF_STEREO_COUNT>
0

>  <PUBCHEM_ATOM_UDEF_STEREO_COUNT>
0

>  <PUBCHEM_BOND_DEF_STEREO_COUNT>
0

>  <PUBCHEM_BOND_UDEF_STEREO_COUNT>
0

>  <PUBCHEM_ISOTOPIC_ATOM_COUNT>
0

>  <PUBCHEM_COMPONENT_COUNT>
1

>  <PUBCHEM_CACTVS_TAUTO_COUNT>
-1

>  <PUBCHEM_COORDINATE_TYPE>
1
5
255

>  <PUBCHEM_BONDANNOTATIONS>
1  7  8
1  8  8
10  11  8
12  16  8
12  17  8
13  15  8
14  15  8
16  18  8
17  19  8
18  20  8
19  20  8
6  10  8
6  7  8
6  9  8
7  13  8
8  11  8
9  14  8

>  <LF dG>
-7.154

>  <LF VSscore>
-9.462

>  <LF Rank Score>
-11.742

>  <LF LE>
-0.358

>  <Preferred Pose_cresset>
true

>  <Favorite_cresset>
false

>  <Protein_cresset>
6M2N_Dimer_P

>  <MW_cresset>
270.2

>  <#Atoms_cresset>
20

>  <SlogP_cresset>
2.3

>  <TPSA_cresset>
87

>  <Flexibility_cresset>
1.7

>  <#RB_cresset>
4

>  <Rof5_cresset>
0

>  <Filename_cresset>
Baicalein.sdf

>  <Confs_cresset>
0

>  <Poses_cresset>
10

>  <_cresset_fieldpoints>
    -5     -57.746742     -20.518280      -3.012590     -3.5165
    -5     -55.511971     -16.021664       0.283707     -7.2427
    -5     -59.439957     -21.002861       4.255186    -22.0802
    -5     -58.314026     -21.472820      -4.747430     -2.8278
    -5     -63.034538     -23.655891      -2.024332     -2.3036
    -6     -55.459740     -19.118553      -2.879513      1.9082
    -6     -60.944084     -18.984983      -1.002625      2.8525
    -6     -57.604324     -23.993919      -0.659273      3.1550
    -6     -58.522316     -26.099895      -2.590722      3.0339
    -6     -55.503792     -21.757441       4.944347      6.7935
    -6     -56.907333     -16.342518       4.601700      7.5790
    -6     -52.552143     -19.105156       0.972177      7.9573
    -6     -62.487072     -18.908665      -3.605545      2.9040
    -6     -63.112083     -21.940975      -6.572360      2.7540
    -6     -61.109409     -25.638893      -6.098893      2.7751
    -7     -60.951450     -19.163933      -0.153388     -2.5977
    -7     -57.174416     -23.475266      -0.274827     -2.6006
    -7     -60.255005     -19.972918       4.108638     -1.6247
    -7     -57.642448     -23.053965       3.719944     -1.7808
    -7     -54.204376     -16.651646       2.839741     -1.5206
    -7     -59.450020     -17.403904       1.221964     -1.8132
    -7     -56.657288     -19.059875       5.643236     -1.5442
    -7     -55.212776     -22.277981       0.934332     -1.8247
    -7     -53.783825     -18.027897      -1.388804     -1.2421
    -7     -58.864098     -26.655958      -2.501813     -0.9898
    -7     -62.257431     -18.439945      -3.944698     -0.9940
    -7     -61.217857     -25.857380      -6.373421     -0.9673
    -7     -62.766876     -23.489414      -0.950435     -2.0417
    -7     -57.443161     -20.493973      -3.318535     -2.4493
    -7     -63.299500     -21.872803      -6.874496     -0.9670
    -8     -57.114323     -19.653803       1.126312      6.5999
    -8     -58.860817     -21.176704       0.533732      5.0056
    -8     -60.598770     -22.582623      -3.312392      7.1504

$$$$
Template Ligand
  xed2sdf_05210316543D
 
 49 52  0  0  1  0  0  0  0  0999 V2000
  -57.7949  -19.6517   -0.8025 O   0  0  0  0  0  0  0  0  0  0  0  0
  -59.5359  -20.4917   -2.3615 O   0  0  0  0  0  0  0  0  0  0  0  0
  -59.3299  -22.1617    2.2495 O   0  0  0  0  0  0  0  0  0  0  0  0
  -60.8009  -21.7707   -0.2075 O   0  0  0  0  0  0  0  0  0  0  0  0
  -57.4299  -20.0717    2.8865 O   0  0  0  0  0  0  0  0  0  0  0  0
  -55.0909  -19.5077    0.5005 O   0  5  0  0  0  0  0  0  0  0  0  0
  -56.0149  -17.5207    1.1385 O   0  0  0  0  0  0  0  0  0  0  0  0
  -56.6999  -21.7687   -5.8635 O   0  0  0  0  0  0  0  0  0  0  0  0
  -59.0859  -17.7847   -2.8955 O   0  0  0  0  0  0  0  0  0  0  0  0
  -57.4309  -17.1057   -4.9475 O   0  0  0  0  0  0  0  0  0  0  0  0
  -55.8819  -17.9257   -6.8415 O   0  0  0  0  0  0  0  0  0  0  0  0
  -59.1329  -21.0167    1.4065 C   0  0  0  0  0  0  0  0  0  0  0  0
  -59.4279  -21.3817   -0.0615 C   0  0  0  0  0  0  0  0  0  0  0  0
  -57.6909  -20.4927    1.5395 C   0  0  0  0  0  0  0  0  0  0  0  0
  -59.1229  -20.1947   -1.0045 C   0  0  0  0  0  0  0  0  0  0  0  0
  -57.4679  -19.3147    0.5695 C   0  0  0  0  0  0  0  0  0  0  0  0
  -56.0839  -18.7397    0.7485 C   0  0  0  0  0  0  0  0  0  0  0  0
  -58.7219  -20.1117   -3.3485 C   0  0  0  0  0  0  0  0  0  0  0  0
  -58.0939  -21.0807   -4.1005 C   0  0  0  0  0  0  0  0  0  0  0  0
  -58.4919  -18.7667   -3.6375 C   0  0  0  0  0  0  0  0  0  0  0  0
  -57.2599  -20.7537   -5.1515 C   0  0  0  0  0  0  0  0  0  0  0  0
  -57.0349  -19.4077   -5.4385 C   0  0  0  0  0  0  0  0  0  0  0  0
  -57.6559  -18.4177   -4.6695 C   0  0  0  0  0  0  0  0  0  0  0  0
  -56.1549  -19.0887   -6.5445 C   0  0  0  0  0  0  0  0  0  0  0  0
  -55.9109  -21.4487   -6.9415 C   0  0  0  0  0  0  0  0  0  0  0  0
  -55.6139  -20.1637   -7.2955 C   0  0  0  0  0  0  0  0  0  0  0  0
  -55.3869  -22.5987   -7.7225 C   0  0  0  0  0  0  0  0  0  0  0  0
  -54.5669  -22.3347   -8.8085 C   0  0  0  0  0  0  0  0  0  0  0  0
  -55.6729  -23.9227   -7.4185 C   0  0  0  0  0  0  0  0  0  0  0  0
  -54.0469  -23.3547   -9.5675 C   0  0  0  0  0  0  0  0  0  0  0  0
  -55.1529  -24.9427   -8.1785 C   0  0  0  0  0  0  0  0  0  0  0  0
  -54.3389  -24.6627   -9.2535 C   0  0  0  0  0  0  0  0  0  0  0  0
  -59.7639  -20.2957    1.6965 H   0  0  0  0  0  0  0  0  0  0  0  0
  -58.8339  -22.1457   -0.3125 H   0  0  0  0  0  0  0  0  0  0  0  0
  -57.0599  -21.2327    1.3085 H   0  0  0  0  0  0  0  0  0  0  0  0
  -59.6939  -19.4117   -0.7595 H   0  0  0  0  0  0  0  0  0  0  0  0
  -58.1149  -18.5887    0.8025 H   0  0  0  0  0  0  0  0  0  0  0  0
  -58.5739  -22.2687    2.9045 H   0  0  0  0  0  0  0  0  0  0  0  0
  -60.9919  -22.0957   -1.1415 H   0  0  0  0  0  0  0  0  0  0  0  0
  -57.6569  -19.0997    3.0185 H   0  0  0  0  0  0  0  0  0  0  0  0
  -59.2149  -16.9457   -3.4325 H   0  0  0  0  0  0  0  0  0  0  0  0
  -58.0989  -16.5117   -4.4845 H   0  0  0  0  0  0  0  0  0  0  0  0
  -58.2459  -22.0447   -3.8795 H   0  0  0  0  0  0  0  0  0  0  0  0
  -55.0199  -19.9817   -8.0785 H   0  0  0  0  0  0  0  0  0  0  0  0
  -54.3509  -21.3877   -9.0435 H   0  0  0  0  0  0  0  0  0  0  0  0
  -56.2629  -24.1367   -6.6405 H   0  0  0  0  0  0  0  0  0  0  0  0
  -53.4569  -23.1477  -10.3475 H   0  0  0  0  0  0  0  0  0  0  0  0
  -55.3659  -25.8927   -7.9505 H   0  0  0  0  0  0  0  0  0  0  0  0
  -53.9609  -25.4067   -9.8035 H   0  0  0  0  0  0  0  0  0  0  0  0
  1 15  1  0
  1 16  1  0
  2 18  1  0
  6 17  1  0
  7 17  2  0
  8 21  1  0
  8 25  1  0
  9 20  1  0
 10 23  1  0
 11 24  2  0
 12  3  1  0
 12 13  1  0
 12 14  1  0
 13  4  1  0
 13 15  1  0
 14  5  1  0
 14 16  1  0
 15  2  1  0
 16 17  1  0
 18 19  2  0
 18 20  1  0
 19 21  1  0
 20 23  2  0
 21 22  2  0
 22 23  1  0
 22 24  1  0
 24 26  1  0
 25 26  2  0
 25 27  1  0
 27 28  2  0
 27 29  1  0
 28 30  1  0
 29 31  2  0
 30 32  2  0
 31 32  1  0
  3 38  1  0
  4 39  1  0
  5 40  1  0
  9 41  1  0
 10 42  1  0
 12 33  1  0
 13 34  1  0
 14 35  1  0
 15 36  1  0
 16 37  1  0
 19 43  1  0
 26 44  1  0
 28 45  1  0
 29 46  1  0
 30 47  1  0
 31 48  1  0
 32 49  1  0
M  CHG  1   6  -1
M  END
>  <BioMolTech Lead Finder dG>
-8.227

>  <BioMolTech Lead Finder VSscore>
-11.736

>  <BioMolTech Lead Finder Rank score>
-11.958

>  <BioMolTech Lead Finder LE>
-0.257

>  <BioMolTech Lead Finder Structure Name>
C:\Users\Odara\AppData\Local\Temp\LeadFinder_1164_1\Ligand_1.sdf

>  <BioMolTech Lead Finder SDF id>
0

>  <BioMolTech Lead Finder Pose rank>
0

>  <BioMolTech Lead Finder version>
2001 1, 19 January 2019

>  <PUBCHEM_COMPOUND_CID>
64982

>  <PUBCHEM_COMPOUND_CANONICALIZED>
1

>  <PUBCHEM_CACTVS_COMPLEXITY>
748

>  <PUBCHEM_CACTVS_HBOND_ACCEPTOR>
11

>  <PUBCHEM_CACTVS_HBOND_DONOR>
6

>  <PUBCHEM_CACTVS_ROTATABLE_BOND>
4

>  <PUBCHEM_CACTVS_SUBSKEYS>
AAADceB4PAAAAAAAAAAAAAAAAAAAAAAAAAA0YIEAAAAAAACBQAAAGgAACAAADBSwmAMwDoAABgCIAqDSCAICCAAkIAAIiAFGiMgdNzaGNR6ieWOl4BUPuQfK7LzOIQABCAAIQABCAAIQABCAAAAAAAAAAA==

>  <PUBCHEM_IUPAC_OPENEYE_NAME>
(2S,3S,4S,5R,6S)-6-(5,6-dihydroxy-4-oxo-2-phenyl-chromen-7-yl)oxy-3,4,5-trihydroxy-tetrahydropyran-2-carboxylic acid

>  <PUBCHEM_IUPAC_CAS_NAME>
(2S,3S,4S,5R,6S)-6-[(5,6-dihydroxy-4-oxo-2-phenyl-1-benzopyran-7-yl)oxy]-3,4,5-trihydroxy-2-oxanecarboxylic acid

>  <PUBCHEM_IUPAC_NAME_MARKUP>
(2<I>S</I>,3<I>S</I>,4<I>S</I>,5<I>R</I>,6<I>S</I>)-6-(5,6-dihydroxy-4-oxo-2-phenylchromen-7-yl)oxy-3,4,5-trihydroxyoxane-2-carboxylic acid

>  <PUBCHEM_IUPAC_NAME>
(2S,3S,4S,5R,6S)-6-(5,6-dihydroxy-4-oxo-2-phenylchromen-7-yl)oxy-3,4,5-trihydroxyoxane-2-carboxylic acid

>  <PUBCHEM_IUPAC_SYSTEMATIC_NAME>
(2S,3S,4S,5R,6S)-6-[5,6-bis(oxidanyl)-4-oxidanylidene-2-phenyl-chromen-7-yl]oxy-3,4,5-tris(oxidanyl)oxane-2-carboxylic acid

>  <PUBCHEM_IUPAC_TRADITIONAL_NAME>
(2S,3S,4S,5R,6S)-6-(5,6-dihydroxy-4-keto-2-phenyl-chromen-7-yl)oxy-3,4,5-trihydroxy-tetrahydropyran-2-carboxylic acid

>  <PUBCHEM_IUPAC_INCHI>
InChI=1S/C21H18O11/c22-9-6-10(8-4-2-1-3-5-8)30-11-7-12(14(23)15(24)13(9)11)31-21-18(27)16(25)17(26)19(32-21)20(28)29/h1-7,16-19,21,23-27H,(H,28,29)/t16-,17-,18+,19-,21+/m0/s1

>  <PUBCHEM_IUPAC_INCHIKEY>
IKIIZLYTISPENI-ZFORQUDYSA-N

>  <PUBCHEM_XLOGP3_AA>
1.1

>  <PUBCHEM_EXACT_MASS>
446.084911

>  <PUBCHEM_MOLECULAR_FORMULA>
C21H18O11

>  <PUBCHEM_MOLECULAR_WEIGHT>
446.4

>  <PUBCHEM_OPENEYE_CAN_SMILES>
C1=CC=C(C=C1)C2=CC(=O)C3=C(C(=C(C=C3O2)OC4C(C(C(C(O4)C(=O)O)O)O)O)O)O

>  <PUBCHEM_OPENEYE_ISO_SMILES>
C1=CC=C(C=C1)C2=CC(=O)C3=C(C(=C(C=C3O2)O[C@H]4[C@@H]([C@H]([C@@H]([C@H](O4)C(=O)O)O)O)O)O)O

>  <PUBCHEM_CACTVS_TPSA>
183

>  <PUBCHEM_MONOISOTOPIC_WEIGHT>
446.084911

>  <PUBCHEM_TOTAL_CHARGE>
0

>  <PUBCHEM_HEAVY_ATOM_COUNT>
32

>  <PUBCHEM_ATOM_DEF_STEREO_COUNT>
5

>  <PUBCHEM_ATOM_UDEF_STEREO_COUNT>
0

>  <PUBCHEM_BOND_DEF_STEREO_COUNT>
0

>  <PUBCHEM_BOND_UDEF_STEREO_COUNT>
0

>  <PUBCHEM_ISOTOPIC_ATOM_COUNT>
0

>  <PUBCHEM_COMPONENT_COUNT>
1

>  <PUBCHEM_CACTVS_TAUTO_COUNT>
-1

>  <PUBCHEM_COORDINATE_TYPE>
1
5
255

>  <PUBCHEM_BONDANNOTATIONS>
16  17  5
18  19  8
18  20  8
19  21  8
15  2  5
20  23  8
21  22  8
22  23  8
22  24  8
24  26  8
25  26  8
27  28  8
27  29  8
28  30  8
29  31  8
12  3  5
30  32  8
31  32  8
13  4  6
14  5  6
8  21  8
8  25  8

>  <LF dG>
-8.227

>  <LF VSscore>
-11.736

>  <LF Rank Score>
-11.958

>  <LF LE>
-0.257

>  <Preferred Pose_cresset>
true

>  <Favorite_cresset>
false

>  <Protein_cresset>
6M2N_Dimer_P

>  <MW_cresset>
445.4

>  <#Atoms_cresset>
32

>  <SlogP_cresset>
1.1

>  <TPSA_cresset>
186

>  <Flexibility_cresset>
7.6

>  <#RB_cresset>
9

>  <Rof5_cresset>
1

>  <Filename_cresset>
Baicalin.sdf

>  <Confs_cresset>
0

>  <Poses_cresset>
10

>  <_cresset_fieldpoints>
    -5     -61.098686     -22.858433       1.621799    -13.5639
    -5     -61.757767     -19.587059      -2.892387     -2.8432
    -5     -55.909592     -20.660583       3.827845     -6.6411
    -5     -53.583961     -18.501972       0.768849    -10.2134
    -5     -55.923134     -19.888454      -1.880624     -8.2433
    -5     -54.151001     -17.240042       1.161036     -9.5442
    -5     -52.557636     -23.611839      -6.584634     -4.2230
    -5     -55.918617     -16.253529      -5.996237    -14.2202
    -5     -57.268799     -23.489140     -10.219217     -3.7463
    -6     -60.161396     -23.148933      -2.424008      4.5937
    -6     -57.054779     -23.241213       3.026033      1.3918
    -6     -59.449242     -15.411777      -4.133169      9.2089
    -6     -59.043526     -18.027733       2.783238      7.0584
    -6     -57.767387     -24.168587      -4.859892      2.7845
    -6     -54.491993     -27.775040      -9.339752      2.2930
    -6     -53.012390     -20.812313     -10.948835      2.1119
    -6     -52.545319     -25.021530     -11.767839      2.2562
    -6     -56.928169     -26.420681      -6.064146      2.2815
    -7     -62.218628     -20.244503      -1.787523     -1.9295
    -7     -59.832127     -23.441982      -2.532973     -2.1378
    -7     -57.648232     -23.902061       1.415534     -1.7317
    -7     -61.184952     -23.615662       1.430295     -1.4139
    -7     -55.947365     -21.079773      -1.541785     -3.3195
    -7     -59.051514     -20.602167       4.580558     -1.5831
    -7     -60.037498     -24.240997       1.255371     -1.3700
    -7     -62.180710     -19.749241       0.229281     -1.7364
    -7     -59.631542     -17.933025       2.799125     -1.7276
    -7     -55.339577     -19.120071       3.557970     -1.5674
    -7     -56.749737     -21.952236       4.239885     -1.2707
    -7     -57.599922     -16.766712      -1.271115     -2.4814
    -7     -57.711216     -16.861687       2.768793     -1.5623
    -7     -54.458946     -22.281612      -4.483148     -2.3428
    -7     -60.213348     -16.513166      -5.529717     -1.4151
    -7     -61.455948     -18.192398      -2.281531     -1.9645
    -7     -60.235512     -19.825191      -6.605082     -1.8567
    -7     -54.874771     -16.698112      -4.849866     -1.6570
    -7     -55.669815     -20.211826      -1.932462     -3.3335
    -7     -53.940723     -21.060938      -4.832516     -2.3881
    -7     -57.973843     -16.554771      -7.336678     -1.7016
    -7     -58.456108     -20.943163      -8.287069     -2.4352
    -7     -60.585899     -17.900579       1.120410     -1.8650
    -7     -58.101601     -23.722836      -2.117431     -1.7738
    -7     -57.003189     -26.458599      -5.683167     -1.0126
    -7     -57.547558     -23.314108     -10.290003     -1.7872
    -7     -54.427872     -28.058521      -9.327017     -0.9677
    -7     -52.389664     -25.037594     -12.009962     -0.9670
    -7     -52.348808     -23.556026      -6.433850     -1.7847
    -8     -58.638931     -20.465397       0.610470      5.1235
    -8     -57.861343     -19.779779      -4.415964      6.5973
    -8     -54.860176     -23.632164      -8.493088      7.1516
    -8     -55.200104     -21.492863      -7.920277      5.5752
    -8     -56.404045     -20.109390      -6.284516      5.0247

$$$$
W_DAR_D
  xed2sdf_05210316543D
 
 82 86  0  0  1  0  0  0  0  0999 V2000
  -61.4659  -29.8253    5.3092 O   0  0  0  0  0  0  0  0  0  0  0  0
  -62.2609  -29.0223    4.8532 C   0  0  0  0  0  0  0  0  0  0  0  0
  -63.7119  -29.3863    4.6272 C   0  0  0  0  0  0  0  0  0  0  0  0
  -64.3529  -28.5833    3.4922 C   0  0  0  0  0  0  0  0  0  0  0  0
  -64.1549  -27.1123    3.8662 C   0  0  0  0  0  0  0  0  0  0  0  0
  -64.8359  -26.2493    2.8892 N   0  0  0  0  0  0  0  0  0  0  0  0
  -64.3569  -26.0933    1.5062 C   0  0  0  0  0  0  0  0  0  0  0  0
  -65.7429  -25.7033    0.9592 C   0  0  0  0  0  0  0  0  0  0  0  0
  -65.9669  -25.1573   -0.4338 C   0  0  0  0  0  0  0  0  0  0  0  0
  -64.9669  -25.4473   -1.3148 N   0  0  0  0  0  0  0  0  0  0  0  0
  -63.8259  -24.5313   -1.4368 C   0  0  0  0  0  0  0  0  0  0  0  0
  -62.5059  -25.3053   -1.2948 C   0  0  0  0  0  0  0  0  0  0  0  0
  -61.3789  -24.3303   -0.9278 C   0  0  0  0  0  0  0  0  0  0  0  0
  -60.2549  -24.4213   -1.9708 C   0  0  0  0  0  0  0  0  0  0  0  0
  -58.9279  -24.0633   -1.2888 C   0  0  0  0  0  0  0  0  0  0  0  0
  -58.1049  -23.1223   -2.1808 C   0  0  0  0  0  0  0  0  0  0  0  0
  -58.6769  -21.7843   -1.9798 N   0  0  0  0  0  0  0  0  0  0  0  0
  -59.4669  -21.2273   -2.9238 C   0  0  0  0  0  0  0  0  0  0  0  0
  -59.6319  -21.7123   -4.0418 O   0  0  0  0  0  0  0  0  0  0  0  0
  -60.2089  -19.9793   -2.6048 C   0  0  0  0  0  0  0  0  0  0  0  0
  -60.9259  -19.8913   -1.4288 C   0  0  0  0  0  0  0  0  0  0  0  0
  -61.6389  -18.7593   -1.1308 C   0  0  0  0  0  0  0  0  0  0  0  0
  -61.6949  -17.6793   -1.9338 N   0  0  0  0  0  0  0  0  0  0  0  0
  -60.9899  -17.7703   -3.0738 C   0  0  0  0  0  0  0  0  0  0  0  0
  -60.2439  -18.8743   -3.4498 C   0  0  0  0  0  0  0  0  0  0  0  0
  -59.5189  -18.8683   -4.6498 N   0  0  0  0  0  0  0  0  0  0  0  0
  -58.1899  -18.6803   -4.7848 C   0  0  0  0  0  0  0  0  0  0  0  0
  -57.4149  -18.4413   -3.8718 O   0  0  0  0  0  0  0  0  0  0  0  0
  -57.7179  -18.7733   -6.2198 C   0  0  0  0  0  0  0  0  0  0  0  0
  -56.6379  -19.8343   -6.3308 C   0  0  0  0  0  0  0  0  0  0  0  0
  -55.3129  -19.4663   -6.4088 C   0  0  0  0  0  0  0  0  0  0  0  0
  -54.3339  -20.4283   -6.5198 C   0  0  0  0  0  0  0  0  0  0  0  0
  -54.6789  -21.7603   -6.5538 C   0  0  0  0  0  0  0  0  0  0  0  0
  -56.0029  -22.1303   -6.4768 C   0  0  0  0  0  0  0  0  0  0  0  0
  -56.4409  -23.8123   -6.5208 Cl  0  0  0  0  0  0  0  0  0  0  0  0
  -56.9809  -21.1673   -6.3648 C   0  0  0  0  0  0  0  0  0  0  0  0
  -67.0869  -24.4643   -0.6978 C   0  0  0  0  0  0  0  0  0  0  0  0
  -68.0699  -24.2393    0.3632 C   0  0  0  0  0  0  0  0  0  0  0  0
  -67.7029  -24.3583    1.6382 C   0  0  0  0  0  0  0  0  0  0  0  0
  -66.2879  -24.7253    2.0042 C   0  0  0  0  0  0  0  0  0  0  0  0
  -65.9329  -25.5453    3.2102 C   0  0  0  0  0  0  0  0  0  0  0  0
  -66.5279  -25.5623    4.2782 O   0  0  0  0  0  0  0  0  0  0  0  0
  -62.6849  -26.7803    3.9872 C   0  0  0  0  0  0  0  0  0  0  0  0
  -62.2409  -25.6993    3.6392 O   0  0  0  0  0  0  0  0  0  0  0  0
  -61.9139  -27.7613    4.5072 N   0  0  0  0  0  0  0  0  0  0  0  0
  -64.5659  -26.9453    4.7622 H   0  0  0  0  0  0  0  0  0  0  0  0
  -66.2079  -26.5783    0.8222 H   0  0  0  0  0  0  0  0  0  0  0  0
  -65.9449  -23.7933    2.1252 H   0  0  0  0  0  0  0  0  0  0  0  0
  -64.2209  -29.2163    5.4702 H   0  0  0  0  0  0  0  0  0  0  0  0
  -63.7439  -30.3523    4.3672 H   0  0  0  0  0  0  0  0  0  0  0  0
  -65.3259  -28.7993    3.4162 H   0  0  0  0  0  0  0  0  0  0  0  0
  -63.9389  -28.7983    2.6072 H   0  0  0  0  0  0  0  0  0  0  0  0
  -63.9999  -26.9403    1.1132 H   0  0  0  0  0  0  0  0  0  0  0  0
  -63.5909  -25.4743    1.3362 H   0  0  0  0  0  0  0  0  0  0  0  0
  -65.1519  -25.9703   -1.9988 H   0  0  0  0  0  0  0  0  0  0  0  0
  -63.8829  -23.8343   -0.7218 H   0  0  0  0  0  0  0  0  0  0  0  0
  -63.8529  -24.0953   -2.3368 H   0  0  0  0  0  0  0  0  0  0  0  0
  -62.2889  -25.7593   -2.1598 H   0  0  0  0  0  0  0  0  0  0  0  0
  -62.5989  -25.9923   -0.5748 H   0  0  0  0  0  0  0  0  0  0  0  0
  -61.0169  -24.5633   -0.0248 H   0  0  0  0  0  0  0  0  0  0  0  0
  -61.7389  -23.3983   -0.9118 H   0  0  0  0  0  0  0  0  0  0  0  0
  -60.4349  -23.7843   -2.7198 H   0  0  0  0  0  0  0  0  0  0  0  0
  -60.2079  -25.3483   -2.3438 H   0  0  0  0  0  0  0  0  0  0  0  0
  -58.4069  -24.8993   -1.1178 H   0  0  0  0  0  0  0  0  0  0  0  0
  -59.1219  -23.6003   -0.4238 H   0  0  0  0  0  0  0  0  0  0  0  0
  -58.1789  -23.3953   -3.1398 H   0  0  0  0  0  0  0  0  0  0  0  0
  -57.1339  -23.1463   -1.9458 H   0  0  0  0  0  0  0  0  0  0  0  0
  -58.5269  -21.3623   -1.2218 H   0  0  0  0  0  0  0  0  0  0  0  0
  -60.9249  -20.6593   -0.7878 H   0  0  0  0  0  0  0  0  0  0  0  0
  -62.1449  -18.7333   -0.2688 H   0  0  0  0  0  0  0  0  0  0  0  0
  -61.0049  -16.9863   -3.6948 H   0  0  0  0  0  0  0  0  0  0  0  0
  -59.9779  -19.0123   -5.3848 H   0  0  0  0  0  0  0  0  0  0  0  0
  -57.3509  -17.8893   -6.5088 H   0  0  0  0  0  0  0  0  0  0  0  0
  -58.4879  -19.0203   -6.8078 H   0  0  0  0  0  0  0  0  0  0  0  0
  -55.0619  -18.4993   -6.3858 H   0  0  0  0  0  0  0  0  0  0  0  0
  -53.3729  -20.1593   -6.5758 H   0  0  0  0  0  0  0  0  0  0  0  0
  -53.9679  -22.4583   -6.6338 H   0  0  0  0  0  0  0  0  0  0  0  0
  -57.9419  -21.4363   -6.3088 H   0  0  0  0  0  0  0  0  0  0  0  0
  -67.2489  -24.1023   -1.6158 H   0  0  0  0  0  0  0  0  0  0  0  0
  -69.0119  -23.9963    0.1322 H   0  0  0  0  0  0  0  0  0  0  0  0
  -68.3749  -24.2023    2.3612 H   0  0  0  0  0  0  0  0  0  0  0  0
  -61.0679  -27.5533    4.6292 H   0  0  0  0  0  0  0  0  0  0  0  0
  1  2  2  0
  2  3  1  0
  2 45  1  0
  3  4  1  0
  4  5  1  0
  5  6  1  0
  5 43  1  0
  6  7  1  0
  6 41  1  0
  7  8  1  0
  8  9  1  0
  8 40  1  0
  9 10  1  0
  9 37  2  0
 10 11  1  0
 11 12  1  0
 12 13  1  0
 13 14  1  0
 14 15  1  0
 15 16  1  0
 16 17  1  0
 17 18  1  0
 18 19  2  0
 18 20  1  0
 20 21  2  0
 20 25  1  0
 21 22  1  0
 22 23  2  0
 23 24  1  0
 24 25  2  0
 25 26  1  0
 26 27  1  0
 27 28  2  0
 27 29  1  0
 29 30  1  0
 30 31  2  0
 30 36  1  0
 31 32  1  0
 32 33  2  0
 33 34  1  0
 34 35  1  0
 34 36  2  0
 37 38  1  0
 38 39  2  0
 39 40  1  0
 40 41  1  0
 41 42  2  0
 43 44  2  0
 43 45  1  0
  3 49  1  0
  3 50  1  0
  4 51  1  0
  4 52  1  0
  5 46  1  0
  7 53  1  0
  7 54  1  0
  8 47  1  0
 10 55  1  0
 11 56  1  0
 11 57  1  0
 12 58  1  0
 12 59  1  0
 13 60  1  0
 13 61  1  0
 14 62  1  0
 14 63  1  0
 15 64  1  0
 15 65  1  0
 16 66  1  0
 16 67  1  0
 17 68  1  0
 21 69  1  0
 22 70  1  0
 24 71  1  0
 26 72  1  0
 29 73  1  0
 29 74  1  0
 31 75  1  0
 32 76  1  0
 33 77  1  0
 36 78  1  0
 37 79  1  0
 38 80  1  0
 39 81  1  0
 40 48  1  0
 45 82  1  0
M  END
>  <BioMolTech Lead Finder dG>
-11.65

>  <BioMolTech Lead Finder VSscore>
-15.531

>  <BioMolTech Lead Finder Rank score>
-5.486

>  <BioMolTech Lead Finder LE>
-0.259

>  <BioMolTech Lead Finder Structure Name>
/var/folders/xd/y7jw_xv579q2qqq7kks92xd80000gn/T/LeadFinder_77561_1/Ligand_1.sdf

>  <BioMolTech Lead Finder SDF id>
0

>  <BioMolTech Lead Finder Pose rank>
0

>  <BioMolTech Lead Finder version>
2001 1, 19 January 2019

>  <LF dG>
-11.65

>  <LF VSscore>
-15.531

>  <LF Rank Score>
-5.486

>  <LF LE>
-0.259

>  <Preferred Pose_cresset>
true

>  <Favorite_cresset>
false

>  <Protein_cresset>
6M2N_Dimer_P

>  <MW_cresset>
633.1

>  <#Atoms_cresset>
45

>  <SlogP_cresset>
2.9

>  <TPSA_cresset>
149.6

>  <Flexibility_cresset>
10.4

>  <#RB_cresset>
13

>  <Rof5_cresset>
2

>  <Filename_cresset>
DAR-DIA-9e4459de-1.mol

>  <Confs_cresset>
0

>  <Poses_cresset>
10

>  <_cresset_fieldpoints>
    -5     -61.315857     -31.531101       5.942830    -13.1905
    -5     -67.932396     -24.704109       4.875245    -16.9242
    -5     -62.651310     -16.101467      -1.423275    -10.5161
    -5     -63.361996     -24.226608       3.510932    -14.3606
    -5     -59.457367     -23.184069      -5.253025    -12.6369
    -5     -66.832748     -22.087162       0.326282     -4.9480
    -5     -55.655128     -18.611122      -3.449233    -15.7329
    -5     -57.347115     -18.133610      -2.094693    -14.9123
    -5     -55.731430     -20.908995      -9.386948     -2.4939
    -5     -54.410049     -25.377855      -7.049036     -1.5452
    -6     -59.215794     -27.077671       4.723108      6.0159
    -6     -62.157471     -28.132818       1.423934      6.5555
    -6     -63.582977     -27.374680       6.685597      5.2110
    -6     -64.553207     -28.849495       0.273017      5.9577
    -6     -64.955963     -27.292128      -3.369968      9.5181
    -6     -63.952484     -30.923225       1.837063      4.1625
    -6     -59.109467     -21.143154       0.588639      7.5647
    -6     -60.581268     -18.442101      -7.109583     10.7078
    -6     -55.802643     -16.600304      -7.456979      3.5072
    -6     -51.659470     -21.818434      -6.835863      2.6752
    -6     -69.517700     -23.519257      -2.269125      1.2500
    -7     -63.013420     -27.071693       7.004087     -1.9995
    -7     -62.540184     -31.044872       7.164421     -1.1385
    -7     -61.194050     -26.812510       1.502031     -3.1694
    -7     -66.055191     -24.437153      -3.837517     -1.6456
    -7     -59.253517     -23.682133      -5.389281     -3.0087
    -7     -63.788773     -26.018852      -4.329113     -1.4645
    -7     -62.346664     -22.286907      -3.499545     -3.3209
    -7     -63.027718     -21.788597       0.573560     -2.4640
    -7     -60.266861     -21.983809       1.072592     -2.5326
    -7     -55.207493     -23.607418      -3.661099     -2.1304
    -7     -63.277710     -22.983200       1.573155     -2.9593
    -7     -59.931656     -16.432018      -6.022127     -2.0595
    -7     -60.344627     -21.230602      -6.304749     -2.8017
    -7     -57.592094     -18.072912      -1.581054     -2.1796
    -7     -55.723869     -16.822605      -4.410841     -1.9434
    -7     -63.099731     -15.711256      -1.387218     -1.0224
    -7     -51.300255     -21.946194      -6.747116     -0.9775
    -7     -56.516579     -20.510603      -3.068547     -4.0156
    -7     -56.083996     -20.575420      -9.642691     -1.8665
    -7     -64.328842     -28.142792      -1.066677     -2.5262
    -7     -67.478546     -27.449026      -1.369355     -1.8368
    -7     -67.627487     -27.813709       2.678448     -2.5629
    -7     -63.466675     -23.685181       3.391389     -2.6978
    -7     -65.526649     -22.090870       0.170264     -2.6746
    -7     -67.393616     -23.287846       4.695101     -1.5559
    -8     -63.888103     -28.359518       4.181123      5.5860
    -8     -66.782692     -24.797625       0.703094      7.0589
    -8     -61.389519     -24.733692      -1.511043      5.8106
    -8     -60.203789     -24.248791      -1.267664      5.7895
    -8     -62.465309     -24.561169      -1.238608      5.6714
    -8     -60.740288     -19.212593      -2.312302      5.3711
    -8     -59.244179     -24.019287      -1.878344      5.3968
    -8     -55.660751     -20.794769      -6.443475      7.1881
    -8     -56.064621     -22.350075      -6.480421      5.6119

$$$$
DAR_D
  xed2sdf_05210316543D
 
 82 86  0  0  1  0  0  0  0  0999 V2000
  -61.6085  -29.5565    5.8357 O   0  0  0  0  0  0  0  0  0  0  0  0
  -62.3095  -28.7455    5.2557 C   0  0  0  0  0  0  0  0  0  0  0  0
  -63.7795  -29.0035    5.0097 C   0  0  0  0  0  0  0  0  0  0  0  0
  -64.3045  -28.2875    3.7617 C   0  0  0  0  0  0  0  0  0  0  0  0
  -63.9825  -26.8065    3.9697 C   0  0  0  0  0  0  0  0  0  0  0  0
  -64.5465  -26.0085    2.8707 N   0  0  0  0  0  0  0  0  0  0  0  0
  -63.8795  -25.8845    1.5637 C   0  0  0  0  0  0  0  0  0  0  0  0
  -65.1855  -25.5735    0.8097 C   0  0  0  0  0  0  0  0  0  0  0  0
  -65.2265  -25.0895   -0.6233 C   0  0  0  0  0  0  0  0  0  0  0  0
  -64.0995  -25.3705   -1.3403 N   0  0  0  0  0  0  0  0  0  0  0  0
  -63.2245  -24.2705   -1.7663 C   0  0  0  0  0  0  0  0  0  0  0  0
  -61.8005  -24.7925   -2.0153 C   0  0  0  0  0  0  0  0  0  0  0  0
  -61.0725  -23.8495   -2.9823 C   0  0  0  0  0  0  0  0  0  0  0  0
  -61.3795  -22.3905   -2.6143 C   0  0  0  0  0  0  0  0  0  0  0  0
  -61.7425  -21.6305   -3.8973 C   0  0  0  0  0  0  0  0  0  0  0  0
  -61.0695  -20.2505   -3.9103 C   0  0  0  0  0  0  0  0  0  0  0  0
  -59.7345  -20.4655   -4.4843 N   0  0  0  0  0  0  0  0  0  0  0  0
  -58.8465  -19.4495   -4.5533 C   0  0  0  0  0  0  0  0  0  0  0  0
  -59.1315  -18.2815   -4.2963 O   0  0  0  0  0  0  0  0  0  0  0  0
  -57.4385  -19.7425   -4.9283 C   0  0  0  0  0  0  0  0  0  0  0  0
  -56.7925  -20.8275   -4.3713 C   0  0  0  0  0  0  0  0  0  0  0  0
  -55.4855  -21.0965   -4.6833 C   0  0  0  0  0  0  0  0  0  0  0  0
  -54.7515  -20.3495   -5.5303 N   0  0  0  0  0  0  0  0  0  0  0  0
  -55.3885  -19.2985   -6.0733 C   0  0  0  0  0  0  0  0  0  0  0  0
  -56.7045  -18.9575   -5.8133 C   0  0  0  0  0  0  0  0  0  0  0  0
  -57.2925  -17.8555   -6.4483 N   0  0  0  0  0  0  0  0  0  0  0  0
  -57.0075  -16.5545   -6.2303 C   0  0  0  0  0  0  0  0  0  0  0  0
  -56.2115  -16.1355   -5.4043 O   0  0  0  0  0  0  0  0  0  0  0  0
  -57.7985  -15.6145   -7.1143 C   0  0  0  0  0  0  0  0  0  0  0  0
  -56.8445  -14.7215   -7.8863 C   0  0  0  0  0  0  0  0  0  0  0  0
  -56.3185  -13.5955   -7.2933 C   0  0  0  0  0  0  0  0  0  0  0  0
  -55.4615  -12.7805   -7.9963 C   0  0  0  0  0  0  0  0  0  0  0  0
  -55.1285  -13.0875   -9.2953 C   0  0  0  0  0  0  0  0  0  0  0  0
  -55.6535  -14.2125   -9.8913 C   0  0  0  0  0  0  0  0  0  0  0  0
  -55.2365  -14.6035  -11.5343 Cl  0  0  0  0  0  0  0  0  0  0  0  0
  -56.5105  -15.0275   -9.1863 C   0  0  0  0  0  0  0  0  0  0  0  0
  -66.3205  -24.4535   -1.0723 C   0  0  0  0  0  0  0  0  0  0  0  0
  -67.4535  -24.2305   -0.1733 C   0  0  0  0  0  0  0  0  0  0  0  0
  -67.2695  -24.2875    1.1447 C   0  0  0  0  0  0  0  0  0  0  0  0
  -65.9095  -24.5805    1.7237 C   0  0  0  0  0  0  0  0  0  0  0  0
  -65.7015  -25.3395    3.0017 C   0  0  0  0  0  0  0  0  0  0  0  0
  -66.4435  -25.3415    3.9737 O   0  0  0  0  0  0  0  0  0  0  0  0
  -62.4915  -26.5945    4.1167 C   0  0  0  0  0  0  0  0  0  0  0  0
  -61.9365  -25.6075    3.6647 O   0  0  0  0  0  0  0  0  0  0  0  0
  -61.8345  -27.5705    4.7807 N   0  0  0  0  0  0  0  0  0  0  0  0
  -64.4055  -26.4965    4.8217 H   0  0  0  0  0  0  0  0  0  0  0  0
  -65.5935  -26.4715    0.6457 H   0  0  0  0  0  0  0  0  0  0  0  0
  -65.6215  -23.6325    1.8517 H   0  0  0  0  0  0  0  0  0  0  0  0
  -64.2985  -28.6885    5.8037 H   0  0  0  0  0  0  0  0  0  0  0  0
  -63.8935  -29.9855    4.8627 H   0  0  0  0  0  0  0  0  0  0  0  0
  -65.2905  -28.4235    3.6677 H   0  0  0  0  0  0  0  0  0  0  0  0
  -63.8835  -28.6435    2.9267 H   0  0  0  0  0  0  0  0  0  0  0  0
  -63.4385  -26.7295    1.2617 H   0  0  0  0  0  0  0  0  0  0  0  0
  -63.1185  -25.2405    1.4787 H   0  0  0  0  0  0  0  0  0  0  0  0
  -64.0745  -26.1215   -1.7993 H   0  0  0  0  0  0  0  0  0  0  0  0
  -63.2025  -23.5685   -1.0543 H   0  0  0  0  0  0  0  0  0  0  0  0
  -63.5815  -23.8805   -2.6153 H   0  0  0  0  0  0  0  0  0  0  0  0
  -61.8445  -25.7105   -2.4103 H   0  0  0  0  0  0  0  0  0  0  0  0
  -61.3025  -24.8285   -1.1493 H   0  0  0  0  0  0  0  0  0  0  0  0
  -61.3765  -24.0305   -3.9183 H   0  0  0  0  0  0  0  0  0  0  0  0
  -60.0865  -24.0045   -2.9173 H   0  0  0  0  0  0  0  0  0  0  0  0
  -60.5785  -21.9725   -2.1873 H   0  0  0  0  0  0  0  0  0  0  0  0
  -62.1425  -22.3545   -1.9693 H   0  0  0  0  0  0  0  0  0  0  0  0
  -62.7345  -21.5175   -3.9463 H   0  0  0  0  0  0  0  0  0  0  0  0
  -61.4205  -22.1545   -4.6863 H   0  0  0  0  0  0  0  0  0  0  0  0
  -60.9985  -19.8875   -2.9813 H   0  0  0  0  0  0  0  0  0  0  0  0
  -61.5965  -19.5875   -4.4413 H   0  0  0  0  0  0  0  0  0  0  0  0
  -59.5065  -21.2725   -4.7513 H   0  0  0  0  0  0  0  0  0  0  0  0
  -57.2825  -21.4225   -3.7343 H   0  0  0  0  0  0  0  0  0  0  0  0
  -55.0525  -21.8915   -4.2603 H   0  0  0  0  0  0  0  0  0  0  0  0
  -54.8755  -18.7215   -6.7103 H   0  0  0  0  0  0  0  0  0  0  0  0
  -57.9015  -18.0335   -7.0563 H   0  0  0  0  0  0  0  0  0  0  0  0
  -58.4025  -15.0525   -6.5503 H   0  0  0  0  0  0  0  0  0  0  0  0
  -58.3485  -16.1475   -7.7583 H   0  0  0  0  0  0  0  0  0  0  0  0
  -56.5605  -13.3705   -6.3493 H   0  0  0  0  0  0  0  0  0  0  0  0
  -55.0795  -11.9635   -7.5623 H   0  0  0  0  0  0  0  0  0  0  0  0
  -54.5055  -12.4955   -9.8063 H   0  0  0  0  0  0  0  0  0  0  0  0
  -56.8925  -15.8445   -9.6203 H   0  0  0  0  0  0  0  0  0  0  0  0
  -66.3615  -24.1335   -2.0193 H   0  0  0  0  0  0  0  0  0  0  0  0
  -68.3605  -24.0365   -0.5463 H   0  0  0  0  0  0  0  0  0  0  0  0
  -68.0435  -24.1325    1.7577 H   0  0  0  0  0  0  0  0  0  0  0  0
  -60.9765  -27.4265    4.9147 H   0  0  0  0  0  0  0  0  0  0  0  0
  1  2  2  0
  2  3  1  0
  2 45  1  0
  3  4  1  0
  4  5  1  0
  5  6  1  0
  5 43  1  0
  6  7  1  0
  6 41  1  0
  7  8  1  0
  8  9  1  0
  8 40  1  0
  9 10  1  0
  9 37  2  0
 10 11  1  0
 11 12  1  0
 12 13  1  0
 13 14  1  0
 14 15  1  0
 15 16  1  0
 16 17  1  0
 17 18  1  0
 18 19  2  0
 18 20  1  0
 20 21  2  0
 20 25  1  0
 21 22  1  0
 22 23  2  0
 23 24  1  0
 24 25  2  0
 25 26  1  0
 26 27  1  0
 27 28  2  0
 27 29  1  0
 29 30  1  0
 30 31  2  0
 30 36  1  0
 31 32  1  0
 32 33  2  0
 33 34  1  0
 34 35  1  0
 34 36  2  0
 37 38  1  0
 38 39  2  0
 39 40  1  0
 40 41  1  0
 41 42  2  0
 43 44  2  0
 43 45  1  0
  3 49  1  0
  3 50  1  0
  4 51  1  0
  4 52  1  0
  5 46  1  0
  7 53  1  0
  7 54  1  0
  8 47  1  0
 10 55  1  0
 11 56  1  0
 11 57  1  0
 12 58  1  0
 12 59  1  0
 13 60  1  0
 13 61  1  0
 14 62  1  0
 14 63  1  0
 15 64  1  0
 15 65  1  0
 16 66  1  0
 16 67  1  0
 17 68  1  0
 21 69  1  0
 22 70  1  0
 24 71  1  0
 26 72  1  0
 29 73  1  0
 29 74  1  0
 31 75  1  0
 32 76  1  0
 33 77  1  0
 36 78  1  0
 37 79  1  0
 38 80  1  0
 39 81  1  0
 40 48  1  0
 45 82  1  0
M  END
>  <BioMolTech Lead Finder dG>
-12.441

>  <BioMolTech Lead Finder VSscore>
-16.31

>  <BioMolTech Lead Finder Rank score>
-6.721

>  <BioMolTech Lead Finder LE>
-0.276

>  <BioMolTech Lead Finder Structure Name>
/var/folders/xd/y7jw_xv579q2qqq7kks92xd80000gn/T/LeadFinder_75061_1/Ligand_1.sdf

>  <BioMolTech Lead Finder SDF id>
0

>  <BioMolTech Lead Finder Pose rank>
0

>  <BioMolTech Lead Finder version>
2001 1, 19 January 2019

>  <LF dG>
-12.441

>  <LF VSscore>
-16.31

>  <LF Rank Score>
-6.721

>  <LF LE>
-0.276

>  <Preferred Pose_cresset>
true

>  <Favorite_cresset>
false

>  <Protein_cresset>
6M2N_Dimer_P

>  <MW_cresset>
633.1

>  <#Atoms_cresset>
45

>  <SlogP_cresset>
2.9

>  <TPSA_cresset>
149.6

>  <Flexibility_cresset>
10.4

>  <#RB_cresset>
13

>  <Rof5_cresset>
2

>  <Filename_cresset>
DAR-DIA-9e4459de-1.mol

>  <Confs_cresset>
0

>  <Poses_cresset>
10

>  <_cresset_fieldpoints>
    -5     -61.646740     -31.180283       6.670754    -13.2066
    -5     -67.952797     -24.522060       4.324781    -16.7976
    -5     -66.353165     -22.017681      -0.078865     -4.7204
    -5     -62.876419     -23.961750       3.507262    -13.1641
    -5     -57.880524     -16.907604      -3.835035    -18.0198
    -5     -52.868248     -20.611847      -5.754392    -10.8746
    -5     -58.131805     -12.152986      -9.590322     -2.4834
    -5     -55.329029     -16.825821      -3.972558    -16.7778
    -5     -53.425999     -12.993149     -12.546200     -1.5611
    -5     -56.100548     -16.830688     -12.677319     -1.0169
    -6     -59.101730     -27.090694       5.105345      5.9473
    -6     -63.533325     -26.757757       6.813491      5.3691
    -6     -63.407913     -27.864515      -2.225543     10.5262
    -6     -63.740135     -27.946083      -1.327704     10.5186
    -6     -62.001259     -28.352978       1.824925      6.1518
    -6     -62.607124     -28.704041       1.099087      6.0020
    -6     -63.540649     -23.942686      -5.009714      4.1411
    -6     -63.523785     -20.156845      -1.993987      3.0829
    -6     -58.787239     -23.040913      -4.895533      9.7024
    -6     -61.894814     -22.495304       0.466743      2.4845
    -6     -58.387245     -17.956516      -8.906824     11.6916
    -6     -53.619652     -10.516224      -8.943808      2.5533
    -6     -68.449570     -23.505083      -3.029302      1.3784
    -6     -63.398590     -22.740166       1.004097      2.5972
    -7     -62.456772     -27.763454      -0.793025     -2.1919
    -7     -62.947235     -26.491852       7.130478     -1.9976
    -7     -62.858040     -30.468899       7.760395     -1.1384
    -7     -66.939911     -27.189785       5.393283     -2.0496
    -7     -64.155212     -28.367132      -0.606852     -2.0357
    -7     -64.811981     -28.901970       0.497964     -2.0535
    -7     -63.252464     -22.621525       1.210531     -2.5589
    -7     -65.253777     -25.461182      -3.963135     -1.9475
    -7     -64.977936     -21.986235      -0.145148     -2.7988
    -7     -61.710625     -23.124031       0.930836     -2.4268
    -7     -58.147644     -22.535210      -1.818339     -2.2378
    -7     -58.650108     -23.514502      -5.100065     -2.4299
    -7     -63.683605     -23.950417      -5.149517     -2.1188
    -7     -60.311234     -17.706741      -6.417960     -2.7621
    -7     -64.881744     -21.644764      -1.997912     -2.4649
    -7     -58.663651     -20.411125      -1.678328     -2.6507
    -7     -57.364304     -16.752655      -3.311958     -2.3972
    -7     -57.209946     -14.380278      -4.089473     -1.9431
    -7     -53.349205     -10.244507      -8.826488     -0.9773
    -7     -55.551586     -11.373267      -4.883285     -1.0038
    -7     -56.359482     -18.244350      -9.107716     -2.6336
    -7     -58.627464     -12.332785      -9.602282     -1.8645
    -7     -54.101524     -16.257664      -6.946219     -2.9423
    -7     -67.350540     -27.602905       2.259883     -2.5591
    -7     -67.442612     -23.095871       4.166675     -1.5563
    -7     -63.344231     -23.565872       3.721097     -2.5894
    -7     -61.396629     -28.351143       2.106007     -2.4805
    -8     -63.844521     -28.030563       4.443056      5.5817
    -8     -66.208061     -24.720642       0.373631      7.0557
    -8     -61.972954     -23.680767      -2.340583      6.3897
    -8     -61.495781     -22.734507      -3.231457      5.8880
    -8     -61.437248     -21.545170      -3.292005      5.4594
    -8     -56.512310     -20.014683      -5.103446      5.3654
    -8     -55.989021     -13.906557      -8.592298      7.1865
    -8     -55.601639     -14.264165     -10.102585      5.6080

$$$$
W_Baicalin_D
  xed2sdf_05210316543D
 
 49 52  0  0  1  0  0  0  0  0999 V2000
  -61.0165  -23.6261    0.1663 O   0  0  0  0  0  0  0  0  0  0  0  0
  -61.7715  -23.2951   -2.1177 O   0  0  0  0  0  0  0  0  0  0  0  0
  -60.0895  -27.6291   -0.6837 O   0  0  0  0  0  0  0  0  0  0  0  0
  -61.6295  -26.0751   -2.5537 O   0  0  0  0  0  0  0  0  0  0  0  0
  -60.1165  -26.6951    2.0443 O   0  0  0  0  0  0  0  0  0  0  0  0
  -61.0855  -23.0911    3.1743 O   0  5  0  0  0  0  0  0  0  0  0  0
  -59.0785  -24.0471    2.6543 O   0  0  0  0  0  0  0  0  0  0  0  0
  -57.9735  -21.5631   -4.2337 O   0  0  0  0  0  0  0  0  0  0  0  0
  -62.0035  -20.9971   -0.5147 O   0  0  0  0  0  0  0  0  0  0  0  0
  -60.1495  -19.0231   -0.7807 O   0  0  0  0  0  0  0  0  0  0  0  0
  -58.0345  -18.1861   -1.9997 O   0  0  0  0  0  0  0  0  0  0  0  0
  -60.8355  -26.4711   -0.2817 C   0  0  0  0  0  0  0  0  0  0  0  0
  -60.9405  -25.4711   -1.4497 C   0  0  0  0  0  0  0  0  0  0  0  0
  -60.1635  -25.7961    0.9273 C   0  0  0  0  0  0  0  0  0  0  0  0
  -61.6765  -24.1961   -0.9877 C   0  0  0  0  0  0  0  0  0  0  0  0
  -60.9665  -24.5321    1.2863 C   0  0  0  0  0  0  0  0  0  0  0  0
  -60.3285  -23.8401    2.4633 C   0  0  0  0  0  0  0  0  0  0  0  0
  -60.9025  -22.2861   -2.2167 C   0  0  0  0  0  0  0  0  0  0  0  0
  -59.8905  -22.3821   -3.1477 C   0  0  0  0  0  0  0  0  0  0  0  0
  -60.9925  -21.1401   -1.4237 C   0  0  0  0  0  0  0  0  0  0  0  0
  -58.9475  -21.3851   -3.2997 C   0  0  0  0  0  0  0  0  0  0  0  0
  -59.0315  -20.2491   -2.4947 C   0  0  0  0  0  0  0  0  0  0  0  0
  -60.0645  -20.1351   -1.5577 C   0  0  0  0  0  0  0  0  0  0  0  0
  -58.0255  -19.2211   -2.6667 C   0  0  0  0  0  0  0  0  0  0  0  0
  -57.0155  -20.5901   -4.3677 C   0  0  0  0  0  0  0  0  0  0  0  0
  -57.0085  -19.4401   -3.6307 C   0  0  0  0  0  0  0  0  0  0  0  0
  -55.9585  -20.8561   -5.3777 C   0  0  0  0  0  0  0  0  0  0  0  0
  -55.4755  -19.8881   -6.2477 C   0  0  0  0  0  0  0  0  0  0  0  0
  -55.4275  -22.1351   -5.4547 C   0  0  0  0  0  0  0  0  0  0  0  0
  -54.4935  -20.1941   -7.1587 C   0  0  0  0  0  0  0  0  0  0  0  0
  -54.4465  -22.4391   -6.3657 C   0  0  0  0  0  0  0  0  0  0  0  0
  -53.9765  -21.4681   -7.2197 C   0  0  0  0  0  0  0  0  0  0  0  0
  -61.7565  -26.7611   -0.0207 H   0  0  0  0  0  0  0  0  0  0  0  0
  -60.0195  -25.2201   -1.7477 H   0  0  0  0  0  0  0  0  0  0  0  0
  -59.2225  -25.5471    0.6973 H   0  0  0  0  0  0  0  0  0  0  0  0
  -62.6085  -24.3991   -0.6857 H   0  0  0  0  0  0  0  0  0  0  0  0
  -61.8995  -24.8051    1.5223 H   0  0  0  0  0  0  0  0  0  0  0  0
  -60.3455  -28.4361   -0.1407 H   0  0  0  0  0  0  0  0  0  0  0  0
  -60.9835  -26.4491   -3.2287 H   0  0  0  0  0  0  0  0  0  0  0  0
  -60.3055  -27.6411    1.7603 H   0  0  0  0  0  0  0  0  0  0  0  0
  -62.8845  -21.2921   -0.8967 H   0  0  0  0  0  0  0  0  0  0  0  0
  -60.7965  -18.3551   -1.1637 H   0  0  0  0  0  0  0  0  0  0  0  0
  -59.8385  -23.1951   -3.7277 H   0  0  0  0  0  0  0  0  0  0  0  0
  -56.2905  -18.7581   -3.7687 H   0  0  0  0  0  0  0  0  0  0  0  0
  -55.8445  -18.9601   -6.2107 H   0  0  0  0  0  0  0  0  0  0  0  0
  -55.7645  -22.8461   -4.8377 H   0  0  0  0  0  0  0  0  0  0  0  0
  -54.1525  -19.4881   -7.7797 H   0  0  0  0  0  0  0  0  0  0  0  0
  -54.0735  -23.3661   -6.4077 H   0  0  0  0  0  0  0  0  0  0  0  0
  -53.2615  -21.6881   -7.8837 H   0  0  0  0  0  0  0  0  0  0  0  0
  1 15  1  0
  1 16  1  0
  2 18  1  0
  6 17  1  0
  7 17  2  0
  8 21  1  0
  8 25  1  0
  9 20  1  0
 10 23  1  0
 11 24  2  0
 12  3  1  0
 12 13  1  0
 12 14  1  0
 13  4  1  0
 13 15  1  0
 14  5  1  0
 14 16  1  0
 15  2  1  0
 16 17  1  0
 18 19  2  0
 18 20  1  0
 19 21  1  0
 20 23  2  0
 21 22  2  0
 22 23  1  0
 22 24  1  0
 24 26  1  0
 25 26  2  0
 25 27  1  0
 27 28  2  0
 27 29  1  0
 28 30  1  0
 29 31  2  0
 30 32  2  0
 31 32  1  0
  3 38  1  0
  4 39  1  0
  5 40  1  0
  9 41  1  0
 10 42  1  0
 12 33  1  0
 13 34  1  0
 14 35  1  0
 15 36  1  0
 16 37  1  0
 19 43  1  0
 26 44  1  0
 28 45  1  0
 29 46  1  0
 30 47  1  0
 31 48  1  0
 32 49  1  0
M  CHG  1   6  -1
M  END
>  <BioMolTech Lead Finder dG>
-8.432

>  <BioMolTech Lead Finder VSscore>
-12.434

>  <BioMolTech Lead Finder Rank score>
-12.611

>  <BioMolTech Lead Finder LE>
-0.263

>  <BioMolTech Lead Finder Structure Name>
/var/folders/xd/y7jw_xv579q2qqq7kks92xd80000gn/T/LeadFinder_79615_1/Ligand_1.sdf

>  <BioMolTech Lead Finder SDF id>
0

>  <BioMolTech Lead Finder Pose rank>
0

>  <BioMolTech Lead Finder version>
2001 1, 19 January 2019

>  <PUBCHEM_COMPOUND_CID>
64982

>  <PUBCHEM_COMPOUND_CANONICALIZED>
1

>  <PUBCHEM_CACTVS_COMPLEXITY>
748

>  <PUBCHEM_CACTVS_HBOND_ACCEPTOR>
11

>  <PUBCHEM_CACTVS_HBOND_DONOR>
6

>  <PUBCHEM_CACTVS_ROTATABLE_BOND>
4

>  <PUBCHEM_CACTVS_SUBSKEYS>
AAADceB4PAAAAAAAAAAAAAAAAAAAAAAAAAA0YIEAAAAAAACBQAAAGgAACAAADBSwmAMwDoAABgCIAqDSCAICCAAkIAAIiAFGiMgdNzaGNR6ieWOl4BUPuQfK7LzOIQABCAAIQABCAAIQABCAAAAAAAAAAA==

>  <PUBCHEM_IUPAC_OPENEYE_NAME>
(2S,3S,4S,5R,6S)-6-(5,6-dihydroxy-4-oxo-2-phenyl-chromen-7-yl)oxy-3,4,5-trihydroxy-tetrahydropyran-2-carboxylic acid

>  <PUBCHEM_IUPAC_CAS_NAME>
(2S,3S,4S,5R,6S)-6-[(5,6-dihydroxy-4-oxo-2-phenyl-1-benzopyran-7-yl)oxy]-3,4,5-trihydroxy-2-oxanecarboxylic acid

>  <PUBCHEM_IUPAC_NAME_MARKUP>
(2<I>S</I>,3<I>S</I>,4<I>S</I>,5<I>R</I>,6<I>S</I>)-6-(5,6-dihydroxy-4-oxo-2-phenylchromen-7-yl)oxy-3,4,5-trihydroxyoxane-2-carboxylic acid

>  <PUBCHEM_IUPAC_NAME>
(2S,3S,4S,5R,6S)-6-(5,6-dihydroxy-4-oxo-2-phenylchromen-7-yl)oxy-3,4,5-trihydroxyoxane-2-carboxylic acid

>  <PUBCHEM_IUPAC_SYSTEMATIC_NAME>
(2S,3S,4S,5R,6S)-6-[5,6-bis(oxidanyl)-4-oxidanylidene-2-phenyl-chromen-7-yl]oxy-3,4,5-tris(oxidanyl)oxane-2-carboxylic acid

>  <PUBCHEM_IUPAC_TRADITIONAL_NAME>
(2S,3S,4S,5R,6S)-6-(5,6-dihydroxy-4-keto-2-phenyl-chromen-7-yl)oxy-3,4,5-trihydroxy-tetrahydropyran-2-carboxylic acid

>  <PUBCHEM_IUPAC_INCHI>
InChI=1S/C21H18O11/c22-9-6-10(8-4-2-1-3-5-8)30-11-7-12(14(23)15(24)13(9)11)31-21-18(27)16(25)17(26)19(32-21)20(28)29/h1-7,16-19,21,23-27H,(H,28,29)/t16-,17-,18+,19-,21+/m0/s1

>  <PUBCHEM_IUPAC_INCHIKEY>
IKIIZLYTISPENI-ZFORQUDYSA-N

>  <PUBCHEM_XLOGP3_AA>
1.1

>  <PUBCHEM_EXACT_MASS>
446.084911

>  <PUBCHEM_MOLECULAR_FORMULA>
C21H18O11

>  <PUBCHEM_MOLECULAR_WEIGHT>
446.4

>  <PUBCHEM_OPENEYE_CAN_SMILES>
C1=CC=C(C=C1)C2=CC(=O)C3=C(C(=C(C=C3O2)OC4C(C(C(C(O4)C(=O)O)O)O)O)O)O

>  <PUBCHEM_OPENEYE_ISO_SMILES>
C1=CC=C(C=C1)C2=CC(=O)C3=C(C(=C(C=C3O2)O[C@H]4[C@@H]([C@H]([C@@H]([C@H](O4)C(=O)O)O)O)O)O)O

>  <PUBCHEM_CACTVS_TPSA>
183

>  <PUBCHEM_MONOISOTOPIC_WEIGHT>
446.084911

>  <PUBCHEM_TOTAL_CHARGE>
0

>  <PUBCHEM_HEAVY_ATOM_COUNT>
32

>  <PUBCHEM_ATOM_DEF_STEREO_COUNT>
5

>  <PUBCHEM_ATOM_UDEF_STEREO_COUNT>
0

>  <PUBCHEM_BOND_DEF_STEREO_COUNT>
0

>  <PUBCHEM_BOND_UDEF_STEREO_COUNT>
0

>  <PUBCHEM_ISOTOPIC_ATOM_COUNT>
0

>  <PUBCHEM_COMPONENT_COUNT>
1

>  <PUBCHEM_CACTVS_TAUTO_COUNT>
-1

>  <PUBCHEM_COORDINATE_TYPE>
1
5
255

>  <PUBCHEM_BONDANNOTATIONS>
16  17  5
18  19  8
18  20  8
19  21  8
15  2  5
20  23  8
21  22  8
22  23  8
22  24  8
24  26  8
25  26  8
27  28  8
27  29  8
28  30  8
29  31  8
12  3  5
30  32  8
31  32  8
13  4  6
14  5  6
8  21  8
8  25  8

>  <LF dG>
-8.432

>  <LF VSscore>
-12.434

>  <LF Rank Score>
-12.611

>  <LF LE>
-0.263

>  <Preferred Pose_cresset>
true

>  <Favorite_cresset>
false

>  <Protein_cresset>
6M2N_Dimer_P

>  <MW_cresset>
445.4

>  <#Atoms_cresset>
32

>  <SlogP_cresset>
1.1

>  <TPSA_cresset>
186

>  <Flexibility_cresset>
7.6

>  <#RB_cresset>
9

>  <Rof5_cresset>
1

>  <Filename_cresset>
Baicalin.sdf

>  <Confs_cresset>
0

>  <Poses_cresset>
10

>  <_cresset_fieldpoints>
    -5     -58.715355     -23.010197       4.152226    -12.9436
    -5     -63.131001     -25.151955      -3.301656    -11.6529
    -5     -58.357830     -27.565197      -1.498311     -8.6811
    -5     -58.870800     -26.003532       3.323220    -14.8543
    -5     -59.827827     -22.434591       4.426957    -12.7905
    -5     -61.327995     -21.646093       1.155119    -15.2818
    -5     -60.519337     -19.644592       0.992088    -13.6058
    -5     -58.581551     -18.111395      -0.167055    -22.6868
    -5     -58.518814     -22.151024      -6.250395     -2.7251
    -5     -52.787277     -20.548687      -4.417671     -2.5688
    -5     -56.989044     -21.934834      -8.251388     -2.7052
    -6     -64.573074     -21.956882      -1.259574      7.7550
    -6     -62.348461     -17.808075      -2.141484      6.5840
    -6     -61.334297     -29.102535       1.206021     17.5604
    -6     -59.537849     -25.528690      -4.080413      9.4966
    -6     -63.620438     -25.931444       0.805032      6.0064
    -6     -55.443832     -17.095634      -7.155576      3.0519
    -6     -52.460499     -19.923870      -9.390077      2.7225
    -6     -56.018387     -17.135220      -5.424540      3.3629
    -6     -52.374271     -23.961967      -7.981075      2.7135
    -7     -58.444412     -23.124546      -0.131822     -3.7725
    -7     -64.400391     -22.579479      -1.962151     -1.7576
    -7     -64.090439     -25.979805       0.746160     -1.7849
    -7     -61.889973     -24.708698      -4.530336     -2.2775
    -7     -62.525452     -27.250370       2.580544     -1.8049
    -7     -61.419823     -28.637909      -2.524806     -1.5976
    -7     -58.238594     -28.334103       0.848663     -1.6149
    -7     -58.861465     -27.516376      -2.782170     -1.5479
    -7     -57.761841     -26.559111      -1.376847     -1.7015
    -7     -58.988968     -25.459412      -4.112679     -1.8941
    -7     -63.960655     -26.564114      -1.696609     -1.6676
    -7     -62.838921     -22.070282       1.371122     -2.6102
    -7     -58.770638     -26.092953       3.899235     -1.5714
    -7     -62.299171     -18.833813       0.626384     -1.4919
    -7     -61.684761     -19.746048      -4.637797     -1.8467
    -7     -60.165848     -17.096394      -3.056717     -1.7840
    -7     -57.843002     -18.802893       0.465069     -1.6557
    -7     -59.076096     -19.131401      -5.856609     -2.4755
    -7     -57.485680     -21.944649      -8.218524     -1.8066
    -7     -52.197617     -19.887875      -9.644749     -0.9676
    -7     -55.991356     -22.002243      -1.989821     -2.5790
    -7     -58.687935     -22.398487      -6.466339     -2.3903
    -7     -52.163902     -24.174129      -8.191914     -0.9671
    -8     -59.942856     -21.264320      -2.381998      6.5997
    -8     -60.993061     -25.423864      -0.060854      5.1451
    -8     -54.962852     -21.162022      -6.301750      7.1505
    -8     -58.017281     -20.135612      -3.245154      5.0254
    -8     -56.188896     -19.953583      -4.995740      5.2618

$$$$
Baicalin_D
  xed2sdf_05210316543D
 
 49 52  0  0  1  0  0  0  0  0999 V2000
  -61.0721  -23.6561    0.2696 O   0  0  0  0  0  0  0  0  0  0  0  0
  -61.8891  -23.3181   -1.9934 O   0  0  0  0  0  0  0  0  0  0  0  0
  -59.9441  -27.5821   -0.6864 O   0  0  0  0  0  0  0  0  0  0  0  0
  -61.5951  -26.0731   -2.4974 O   0  0  0  0  0  0  0  0  0  0  0  0
  -59.9861  -26.7151    2.0646 O   0  0  0  0  0  0  0  0  0  0  0  0
  -61.0861  -23.1071    3.2306 O   0  5  0  0  0  0  0  0  0  0  0  0
  -59.0831  -24.0981    2.7606 O   0  0  0  0  0  0  0  0  0  0  0  0
  -58.0671  -21.6711   -4.1374 O   0  0  0  0  0  0  0  0  0  0  0  0
  -62.1591  -20.9431   -0.5144 O   0  0  0  0  0  0  0  0  0  0  0  0
  -60.3071  -18.9761   -0.8484 O   0  0  0  0  0  0  0  0  0  0  0  0
  -58.1701  -18.1981   -2.0604 O   0  0  0  0  0  0  0  0  0  0  0  0
  -60.7461  -26.4771   -0.2464 C   0  0  0  0  0  0  0  0  0  0  0  0
  -60.9241  -25.4581   -1.3884 C   0  0  0  0  0  0  0  0  0  0  0  0
  -60.0931  -25.7951    0.9696 C   0  0  0  0  0  0  0  0  0  0  0  0
  -61.7211  -24.2361   -0.8854 C   0  0  0  0  0  0  0  0  0  0  0  0
  -60.9531  -24.5811    1.3696 C   0  0  0  0  0  0  0  0  0  0  0  0
  -60.3261  -23.8771    2.5456 C   0  0  0  0  0  0  0  0  0  0  0  0
  -61.0251  -22.3091   -2.1334 C   0  0  0  0  0  0  0  0  0  0  0  0
  -59.9991  -22.4471   -3.0434 C   0  0  0  0  0  0  0  0  0  0  0  0
  -61.1331  -21.1251   -1.4004 C   0  0  0  0  0  0  0  0  0  0  0  0
  -59.0561  -21.4541   -3.2294 C   0  0  0  0  0  0  0  0  0  0  0  0
  -59.1571  -20.2821   -2.4794 C   0  0  0  0  0  0  0  0  0  0  0  0
  -60.2071  -20.1251   -1.5684 C   0  0  0  0  0  0  0  0  0  0  0  0
  -58.1501  -19.2621   -2.6794 C   0  0  0  0  0  0  0  0  0  0  0  0
  -57.1061  -20.7031   -4.2974 C   0  0  0  0  0  0  0  0  0  0  0  0
  -57.1151  -19.5221   -3.6124 C   0  0  0  0  0  0  0  0  0  0  0  0
  -56.0281  -21.0111   -5.2734 C   0  0  0  0  0  0  0  0  0  0  0  0
  -56.0171  -22.2601   -5.8754 C   0  0  0  0  0  0  0  0  0  0  0  0
  -55.0281  -20.1091   -5.6104 C   0  0  0  0  0  0  0  0  0  0  0  0
  -55.0421  -22.6001   -6.7804 C   0  0  0  0  0  0  0  0  0  0  0  0
  -54.0531  -20.4491   -6.5164 C   0  0  0  0  0  0  0  0  0  0  0  0
  -54.0571  -21.6951   -7.1024 C   0  0  0  0  0  0  0  0  0  0  0  0
  -61.6461  -26.8221    0.0216 H   0  0  0  0  0  0  0  0  0  0  0  0
  -60.0221  -25.1501   -1.6934 H   0  0  0  0  0  0  0  0  0  0  0  0
  -59.1691  -25.4931    0.7326 H   0  0  0  0  0  0  0  0  0  0  0  0
  -62.6341  -24.4961   -0.5724 H   0  0  0  0  0  0  0  0  0  0  0  0
  -61.8641  -24.9091    1.6166 H   0  0  0  0  0  0  0  0  0  0  0  0
  -60.2531  -28.4461   -0.2744 H   0  0  0  0  0  0  0  0  0  0  0  0
  -60.9381  -26.4541   -3.1574 H   0  0  0  0  0  0  0  0  0  0  0  0
  -60.2121  -27.6531    1.7786 H   0  0  0  0  0  0  0  0  0  0  0  0
  -63.0421  -21.1991   -0.9184 H   0  0  0  0  0  0  0  0  0  0  0  0
  -60.8161  -18.2691   -1.3514 H   0  0  0  0  0  0  0  0  0  0  0  0
  -59.9351  -23.2861   -3.5824 H   0  0  0  0  0  0  0  0  0  0  0  0
  -56.3961  -18.8451   -3.7684 H   0  0  0  0  0  0  0  0  0  0  0  0
  -56.7301  -22.9231   -5.6464 H   0  0  0  0  0  0  0  0  0  0  0  0
  -55.0181  -19.2021   -5.1904 H   0  0  0  0  0  0  0  0  0  0  0  0
  -55.0481  -23.5051   -7.2054 H   0  0  0  0  0  0  0  0  0  0  0  0
  -53.3381  -19.7901   -6.7504 H   0  0  0  0  0  0  0  0  0  0  0  0
  -53.3461  -21.9411   -7.7614 H   0  0  0  0  0  0  0  0  0  0  0  0
  1 15  1  0
  1 16  1  0
  2 18  1  0
  6 17  1  0
  7 17  2  0
  8 21  1  0
  8 25  1  0
  9 20  1  0
 10 23  1  0
 11 24  2  0
 12  3  1  0
 12 13  1  0
 12 14  1  0
 13  4  1  0
 13 15  1  0
 14  5  1  0
 14 16  1  0
 15  2  1  0
 16 17  1  0
 18 19  2  0
 18 20  1  0
 19 21  1  0
 20 23  2  0
 21 22  2  0
 22 23  1  0
 22 24  1  0
 24 26  1  0
 25 26  2  0
 25 27  1  0
 27 28  2  0
 27 29  1  0
 28 30  1  0
 29 31  2  0
 30 32  2  0
 31 32  1  0
  3 38  1  0
  4 39  1  0
  5 40  1  0
  9 41  1  0
 10 42  1  0
 12 33  1  0
 13 34  1  0
 14 35  1  0
 15 36  1  0
 16 37  1  0
 19 43  1  0
 26 44  1  0
 28 45  1  0
 29 46  1  0
 30 47  1  0
 31 48  1  0
 32 49  1  0
M  CHG  1   6  -1
M  END
>  <BioMolTech Lead Finder dG>
-7.994

>  <BioMolTech Lead Finder VSscore>
-12.29

>  <BioMolTech Lead Finder Rank score>
-12.714

>  <BioMolTech Lead Finder LE>
-0.25

>  <BioMolTech Lead Finder Structure Name>
/var/folders/xd/y7jw_xv579q2qqq7kks92xd80000gn/T/LeadFinder_96088_1/Ligand_1.sdf

>  <BioMolTech Lead Finder SDF id>
0

>  <BioMolTech Lead Finder Pose rank>
0

>  <BioMolTech Lead Finder version>
2001 1, 19 January 2019

>  <PUBCHEM_COMPOUND_CID>
64982

>  <PUBCHEM_COMPOUND_CANONICALIZED>
1

>  <PUBCHEM_CACTVS_COMPLEXITY>
748

>  <PUBCHEM_CACTVS_HBOND_ACCEPTOR>
11

>  <PUBCHEM_CACTVS_HBOND_DONOR>
6

>  <PUBCHEM_CACTVS_ROTATABLE_BOND>
4

>  <PUBCHEM_CACTVS_SUBSKEYS>
AAADceB4PAAAAAAAAAAAAAAAAAAAAAAAAAA0YIEAAAAAAACBQAAAGgAACAAADBSwmAMwDoAABgCIAqDSCAICCAAkIAAIiAFGiMgdNzaGNR6ieWOl4BUPuQfK7LzOIQABCAAIQABCAAIQABCAAAAAAAAAAA==

>  <PUBCHEM_IUPAC_OPENEYE_NAME>
(2S,3S,4S,5R,6S)-6-(5,6-dihydroxy-4-oxo-2-phenyl-chromen-7-yl)oxy-3,4,5-trihydroxy-tetrahydropyran-2-carboxylic acid

>  <PUBCHEM_IUPAC_CAS_NAME>
(2S,3S,4S,5R,6S)-6-[(5,6-dihydroxy-4-oxo-2-phenyl-1-benzopyran-7-yl)oxy]-3,4,5-trihydroxy-2-oxanecarboxylic acid

>  <PUBCHEM_IUPAC_NAME_MARKUP>
(2<I>S</I>,3<I>S</I>,4<I>S</I>,5<I>R</I>,6<I>S</I>)-6-(5,6-dihydroxy-4-oxo-2-phenylchromen-7-yl)oxy-3,4,5-trihydroxyoxane-2-carboxylic acid

>  <PUBCHEM_IUPAC_NAME>
(2S,3S,4S,5R,6S)-6-(5,6-dihydroxy-4-oxo-2-phenylchromen-7-yl)oxy-3,4,5-trihydroxyoxane-2-carboxylic acid

>  <PUBCHEM_IUPAC_SYSTEMATIC_NAME>
(2S,3S,4S,5R,6S)-6-[5,6-bis(oxidanyl)-4-oxidanylidene-2-phenyl-chromen-7-yl]oxy-3,4,5-tris(oxidanyl)oxane-2-carboxylic acid

>  <PUBCHEM_IUPAC_TRADITIONAL_NAME>
(2S,3S,4S,5R,6S)-6-(5,6-dihydroxy-4-keto-2-phenyl-chromen-7-yl)oxy-3,4,5-trihydroxy-tetrahydropyran-2-carboxylic acid

>  <PUBCHEM_IUPAC_INCHI>
InChI=1S/C21H18O11/c22-9-6-10(8-4-2-1-3-5-8)30-11-7-12(14(23)15(24)13(9)11)31-21-18(27)16(25)17(26)19(32-21)20(28)29/h1-7,16-19,21,23-27H,(H,28,29)/t16-,17-,18+,19-,21+/m0/s1

>  <PUBCHEM_IUPAC_INCHIKEY>
IKIIZLYTISPENI-ZFORQUDYSA-N

>  <PUBCHEM_XLOGP3_AA>
1.1

>  <PUBCHEM_EXACT_MASS>
446.084911

>  <PUBCHEM_MOLECULAR_FORMULA>
C21H18O11

>  <PUBCHEM_MOLECULAR_WEIGHT>
446.4

>  <PUBCHEM_OPENEYE_CAN_SMILES>
C1=CC=C(C=C1)C2=CC(=O)C3=C(C(=C(C=C3O2)OC4C(C(C(C(O4)C(=O)O)O)O)O)O)O

>  <PUBCHEM_OPENEYE_ISO_SMILES>
C1=CC=C(C=C1)C2=CC(=O)C3=C(C(=C(C=C3O2)O[C@H]4[C@@H]([C@H]([C@@H]([C@H](O4)C(=O)O)O)O)O)O)O

>  <PUBCHEM_CACTVS_TPSA>
183

>  <PUBCHEM_MONOISOTOPIC_WEIGHT>
446.084911

>  <PUBCHEM_TOTAL_CHARGE>
0

>  <PUBCHEM_HEAVY_ATOM_COUNT>
32

>  <PUBCHEM_ATOM_DEF_STEREO_COUNT>
5

>  <PUBCHEM_ATOM_UDEF_STEREO_COUNT>
0

>  <PUBCHEM_BOND_DEF_STEREO_COUNT>
0

>  <PUBCHEM_BOND_UDEF_STEREO_COUNT>
0

>  <PUBCHEM_ISOTOPIC_ATOM_COUNT>
0

>  <PUBCHEM_COMPONENT_COUNT>
1

>  <PUBCHEM_CACTVS_TAUTO_COUNT>
-1

>  <PUBCHEM_COORDINATE_TYPE>
1
5
255

>  <PUBCHEM_BONDANNOTATIONS>
16  17  5
18  19  8
18  20  8
19  21  8
15  2  5
20  23  8
21  22  8
22  23  8
22  24  8
24  26  8
25  26  8
27  28  8
27  29  8
28  30  8
29  31  8
12  3  5
30  32  8
31  32  8
13  4  6
14  5  6
8  21  8
8  25  8

>  <LF dG>
-7.994

>  <LF VSscore>
-12.29

>  <LF Rank Score>
-12.714

>  <LF LE>
-0.25

>  <Preferred Pose_cresset>
true

>  <Favorite_cresset>
false

>  <Protein_cresset>
6M2N_Dimer_P

>  <MW_cresset>
445.4

>  <#Atoms_cresset>
32

>  <SlogP_cresset>
1.1

>  <TPSA_cresset>
186

>  <Flexibility_cresset>
7.6

>  <#RB_cresset>
9

>  <Rof5_cresset>
1

>  <Filename_cresset>
Baicalin.sdf

>  <Confs_cresset>
0

>  <Poses_cresset>
10

>  <_cresset_fieldpoints>
    -5     -58.727600     -23.044363       4.248826    -12.9495
    -5     -63.101669     -25.152786      -3.238571    -11.8274
    -5     -58.133110     -27.379051      -1.273020     -9.0384
    -5     -58.695335     -26.003906       3.286370    -15.6849
    -5     -61.414108     -19.939833       0.935944    -14.0557
    -5     -61.533813     -21.760073       1.099692    -15.7749
    -5     -58.720810     -18.102245      -0.229313    -22.0514
    -5     -59.856441     -22.438026       4.495409    -12.7953
    -5     -56.633141     -20.386827      -8.445574     -2.5763
    -5     -59.090290     -21.238230      -6.383952     -1.3554
    -5     -53.335297     -22.440826      -4.068399     -2.7117
    -6     -64.715912     -21.329266      -1.701981      7.5184
    -6     -61.260727     -29.082628       1.104024     17.6928
    -6     -63.501602     -26.185228       0.942247      6.2297
    -6     -62.285522     -17.722908      -2.450737      6.4316
    -6     -54.838802     -17.361378      -4.536791      3.6517
    -6     -59.530022     -25.498634      -4.035039      9.7788
    -6     -51.620827     -20.308117      -8.322298      2.7202
    -6     -53.432770     -24.202291      -8.776805      2.7364
    -7     -64.532799     -22.708271      -1.660344     -1.7469
    -7     -62.021729     -24.731434      -4.428902     -2.2771
    -7     -56.080658     -22.000137      -1.893978     -2.4592
    -7     -56.278191     -22.881186      -2.415587     -2.4477
    -7     -61.964180     -29.000347       1.431885     -1.3285
    -7     -58.178696     -28.358673       0.857916     -1.6254
    -7     -61.369568     -28.634056      -2.487364     -1.6210
    -7     -62.806854     -22.084648       1.416345     -2.6690
    -7     -63.878044     -26.709736      -1.623875     -1.6705
    -7     -63.997704     -26.187920       0.856748     -1.7847
    -7     -58.954369     -26.124062       4.099551     -1.5651
    -7     -62.402679     -27.373024       2.611293     -1.8040
    -7     -58.524109     -23.008013      -0.026632     -3.7722
    -7     -60.788055     -26.299973       4.263114     -1.5438
    -7     -62.705879     -18.596928       0.096963     -1.4861
    -7     -58.049606     -18.665005       0.433340     -1.6597
    -7     -60.243622     -17.216459      -3.384505     -1.7799
    -7     -61.771828     -19.887684      -4.689397     -1.8462
    -7     -59.179520     -19.489887      -5.943605     -2.3907
    -7     -57.046608     -20.159292      -8.449848     -1.7814
    -7     -53.387482     -22.422916      -3.603285     -1.7896
    -7     -51.323120     -20.266788      -8.531176     -0.9677
    -7     -53.186241     -24.367062      -9.009258     -0.9671
    -8     -60.066963     -21.290478      -2.334966      6.6019
    -8     -60.955608     -25.444168       0.000927      5.1441
    -8     -58.128952     -20.201008      -3.215754      5.0269
    -8     -55.039925     -21.350735      -6.191917      7.1504
    -8     -56.131615     -20.078709      -4.703333      5.4298

$$$$
W_Diammonium Glycyrrhizinate_D
  xed2sdf_05210316543D
 
117123  0  0  1  0  0  0  0  0999 V2000
  -58.3598  -21.5846   -3.4958 O   0  0  0  0  0  0  0  0  0  0  0  0
  -58.3778  -23.3226   -9.9158 O   0  0  0  0  0  0  0  0  0  0  0  0
  -59.7648  -19.6926   -3.1018 O   0  0  0  0  0  0  0  0  0  0  0  0
  -56.3078  -25.9816  -16.4428 O   0  5  0  0  0  0  0  0  0  0  0  0
  -57.2328  -25.7746  -14.3688 O   0  0  0  0  0  0  0  0  0  0  0  0
  -60.3088  -23.2866   -2.3758 O   0  0  0  0  0  0  0  0  0  0  0  0
  -62.1878  -21.9616   -0.5258 O   0  0  0  0  0  0  0  0  0  0  0  0
  -63.0058  -19.3336   -1.3408 O   0  0  0  0  0  0  0  0  0  0  0  0
  -60.1948  -23.5796    0.0072 O   0  0  0  0  0  0  0  0  0  0  0  0
  -61.4738  -17.0446   -3.7668 O   0  5  0  0  0  0  0  0  0  0  0  0
  -60.7088  -17.2286   -1.6238 O   0  0  0  0  0  0  0  0  0  0  0  0
  -60.5288  -26.0776   -2.7208 O   0  0  0  0  0  0  0  0  0  0  0  0
  -59.8378  -27.7446   -0.4828 O   0  0  0  0  0  0  0  0  0  0  0  0
  -60.3178  -26.6276    2.1272 O   0  0  0  0  0  0  0  0  0  0  0  0
  -60.9648  -23.1576    3.1142 O   0  5  0  0  0  0  0  0  0  0  0  0
  -58.8348  -23.8526    2.6792 O   0  0  0  0  0  0  0  0  0  0  0  0
  -54.9208  -22.5596   -9.2378 C   0  0  0  0  0  0  0  0  0  0  0  0
  -56.9798  -22.3546   -7.5118 C   0  0  0  0  0  0  0  0  0  0  0  0
  -56.2898  -23.0936   -8.7098 C   0  0  0  0  0  0  0  0  0  0  0  0
  -54.3058  -23.6316  -10.2218 C   0  0  0  0  0  0  0  0  0  0  0  0
  -55.9128  -22.1006   -6.3998 C   0  0  0  0  0  0  0  0  0  0  0  0
  -53.9728  -22.2346   -8.0498 C   0  0  0  0  0  0  0  0  0  0  0  0
  -56.4378  -21.5576   -5.0258 C   0  0  0  0  0  0  0  0  0  0  0  0
  -54.6308  -21.4076   -6.9238 C   0  0  0  0  0  0  0  0  0  0  0  0
  -55.2788  -23.8236  -11.3798 C   0  0  0  0  0  0  0  0  0  0  0  0
  -54.8168  -24.1676  -12.7858 C   0  0  0  0  0  0  0  0  0  0  0  0
  -53.4118  -23.6396  -13.1788 C   0  0  0  0  0  0  0  0  0  0  0  0
  -52.8718  -23.2176  -10.6768 C   0  0  0  0  0  0  0  0  0  0  0  0
  -58.0338  -23.3196   -6.9008 C   0  0  0  0  0  0  0  0  0  0  0  0
  -52.4038  -23.8246  -12.0178 C   0  0  0  0  0  0  0  0  0  0  0  0
  -57.9838  -21.6286   -4.8888 C   0  0  0  0  0  0  0  0  0  0  0  0
  -57.1638  -23.3806   -9.9138 C   0  0  0  0  0  0  0  0  0  0  0  0
  -55.1648  -21.2356  -10.0178 C   0  0  0  0  0  0  0  0  0  0  0  0
  -58.6178  -22.8876   -5.5298 C   0  0  0  0  0  0  0  0  0  0  0  0
  -57.7398  -21.0916   -8.0028 C   0  0  0  0  0  0  0  0  0  0  0  0
  -54.2068  -25.0646   -9.6278 C   0  0  0  0  0  0  0  0  0  0  0  0
  -56.5988  -23.6686  -11.2158 C   0  0  0  0  0  0  0  0  0  0  0  0
  -54.9188  -25.6896  -13.0278 C   0  0  0  0  0  0  0  0  0  0  0  0
  -52.8508  -24.3956  -14.4178 C   0  0  0  0  0  0  0  0  0  0  0  0
  -54.8588  -25.9996  -14.5458 C   0  0  0  0  0  0  0  0  0  0  0  0
  -55.7958  -22.3916   -3.8948 C   0  0  0  0  0  0  0  0  0  0  0  0
  -56.0398  -20.0896   -4.7508 C   0  0  0  0  0  0  0  0  0  0  0  0
  -53.9628  -24.9906  -15.3088 C   0  0  0  0  0  0  0  0  0  0  0  0
  -53.5398  -22.1446  -13.5378 C   0  0  0  0  0  0  0  0  0  0  0  0
  -54.3188  -27.4326  -14.7248 C   0  0  0  0  0  0  0  0  0  0  0  0
  -56.2388  -25.9136  -15.1648 C   0  0  0  0  0  0  0  0  0  0  0  0
  -59.7088  -21.1266   -3.2768 C   0  0  0  0  0  0  0  0  0  0  0  0
  -60.2738  -21.8806   -2.0548 C   0  0  0  0  0  0  0  0  0  0  0  0
  -61.6898  -21.3566   -1.7278 C   0  0  0  0  0  0  0  0  0  0  0  0
  -61.1048  -19.2156   -2.8708 C   0  0  0  0  0  0  0  0  0  0  0  0
  -61.6778  -19.8246   -1.5788 C   0  0  0  0  0  0  0  0  0  0  0  0
  -60.6468  -24.1256   -1.2538 C   0  0  0  0  0  0  0  0  0  0  0  0
  -61.0978  -17.7146   -2.7428 C   0  0  0  0  0  0  0  0  0  0  0  0
  -60.0448  -25.5266   -1.4868 C   0  0  0  0  0  0  0  0  0  0  0  0
  -60.4198  -26.4446   -0.3088 C   0  0  0  0  0  0  0  0  0  0  0  0
  -60.5578  -24.4066    1.1322 C   0  0  0  0  0  0  0  0  0  0  0  0
  -59.9388  -25.8126    1.0092 C   0  0  0  0  0  0  0  0  0  0  0  0
  -60.0818  -23.7566    2.4072 C   0  0  0  0  0  0  0  0  0  0  0  0
  -56.0998  -23.9396   -8.2108 H   0  0  0  0  0  0  0  0  0  0  0  0
  -55.6338  -23.0266   -6.1438 H   0  0  0  0  0  0  0  0  0  0  0  0
  -55.4448  -23.6766  -13.3898 H   0  0  0  0  0  0  0  0  0  0  0  0
  -58.3328  -20.8356   -5.3868 H   0  0  0  0  0  0  0  0  0  0  0  0
  -60.2708  -21.3226   -4.0808 H   0  0  0  0  0  0  0  0  0  0  0  0
  -59.6978  -21.7346   -1.2508 H   0  0  0  0  0  0  0  0  0  0  0  0
  -62.2938  -21.6026   -2.4848 H   0  0  0  0  0  0  0  0  0  0  0  0
  -61.6758  -19.4896   -3.6448 H   0  0  0  0  0  0  0  0  0  0  0  0
  -61.1108  -19.5636   -0.7988 H   0  0  0  0  0  0  0  0  0  0  0  0
  -61.6428  -24.1806   -1.1918 H   0  0  0  0  0  0  0  0  0  0  0  0
  -59.0498  -25.4526   -1.5448 H   0  0  0  0  0  0  0  0  0  0  0  0
  -61.4138  -26.5496   -0.2788 H   0  0  0  0  0  0  0  0  0  0  0  0
  -61.5528  -24.4996    1.1482 H   0  0  0  0  0  0  0  0  0  0  0  0
  -58.9418  -25.7436    1.0052 H   0  0  0  0  0  0  0  0  0  0  0  0
  -63.1248  -22.3056   -0.6498 H   0  0  0  0  0  0  0  0  0  0  0  0
  -63.6658  -20.0886   -1.2618 H   0  0  0  0  0  0  0  0  0  0  0  0
  -59.7718  -26.3886   -3.3048 H   0  0  0  0  0  0  0  0  0  0  0  0
  -60.4468  -28.4676   -0.1378 H   0  0  0  0  0  0  0  0  0  0  0  0
  -59.5118  -26.9696    2.6212 H   0  0  0  0  0  0  0  0  0  0  0  0
  -53.1898  -21.7226   -8.4028 H   0  0  0  0  0  0  0  0  0  0  0  0
  -53.7078  -23.1106   -7.6458 H   0  0  0  0  0  0  0  0  0  0  0  0
  -53.9818  -21.3036   -6.1698 H   0  0  0  0  0  0  0  0  0  0  0  0
  -54.8818  -20.5126   -7.2938 H   0  0  0  0  0  0  0  0  0  0  0  0
  -52.2278  -23.4996   -9.9658 H   0  0  0  0  0  0  0  0  0  0  0  0
  -52.9018  -22.2286  -10.8178 H   0  0  0  0  0  0  0  0  0  0  0  0
  -57.6038  -24.2156   -6.7868 H   0  0  0  0  0  0  0  0  0  0  0  0
  -58.8038  -23.3246   -7.5378 H   0  0  0  0  0  0  0  0  0  0  0  0
  -51.5408  -23.3916  -12.2768 H   0  0  0  0  0  0  0  0  0  0  0  0
  -52.3098  -24.8086  -11.8708 H   0  0  0  0  0  0  0  0  0  0  0  0
  -54.6578  -20.4976   -9.5728 H   0  0  0  0  0  0  0  0  0  0  0  0
  -54.8528  -21.3376  -10.9628 H   0  0  0  0  0  0  0  0  0  0  0  0
  -56.1418  -21.0206  -10.0198 H   0  0  0  0  0  0  0  0  0  0  0  0
  -58.5028  -23.6496   -4.8928 H   0  0  0  0  0  0  0  0  0  0  0  0
  -59.5718  -22.6456   -5.7078 H   0  0  0  0  0  0  0  0  0  0  0  0
  -58.7148  -21.2026   -7.8098 H   0  0  0  0  0  0  0  0  0  0  0  0
  -57.3928  -20.2826   -7.5288 H   0  0  0  0  0  0  0  0  0  0  0  0
  -57.6008  -20.9766   -8.9858 H   0  0  0  0  0  0  0  0  0  0  0  0
  -53.2578  -25.3736   -9.6788 H   0  0  0  0  0  0  0  0  0  0  0  0
  -54.5078  -25.0566   -8.6738 H   0  0  0  0  0  0  0  0  0  0  0  0
  -54.7938  -25.6866  -10.1478 H   0  0  0  0  0  0  0  0  0  0  0  0
  -57.2058  -23.7536  -12.0068 H   0  0  0  0  0  0  0  0  0  0  0  0
  -55.7828  -26.0266  -12.6538 H   0  0  0  0  0  0  0  0  0  0  0  0
  -54.1518  -26.1416  -12.5738 H   0  0  0  0  0  0  0  0  0  0  0  0
  -52.2598  -25.1376  -14.1008 H   0  0  0  0  0  0  0  0  0  0  0  0
  -52.3458  -23.7326  -14.9708 H   0  0  0  0  0  0  0  0  0  0  0  0
  -55.2938  -21.7796   -3.2838 H   0  0  0  0  0  0  0  0  0  0  0  0
  -56.5078  -22.8706   -3.3818 H   0  0  0  0  0  0  0  0  0  0  0  0
  -55.1688  -23.0646   -4.2878 H   0  0  0  0  0  0  0  0  0  0  0  0
  -55.4768  -20.0536   -3.9248 H   0  0  0  0  0  0  0  0  0  0  0  0
  -55.5218  -19.7286   -5.5268 H   0  0  0  0  0  0  0  0  0  0  0  0
  -56.8618  -19.5356   -4.6228 H   0  0  0  0  0  0  0  0  0  0  0  0
  -53.5378  -25.4586  -16.0848 H   0  0  0  0  0  0  0  0  0  0  0  0
  -54.5458  -24.2376  -15.6128 H   0  0  0  0  0  0  0  0  0  0  0  0
  -53.2328  -22.0086  -14.4798 H   0  0  0  0  0  0  0  0  0  0  0  0
  -54.4928  -21.8566  -13.4478 H   0  0  0  0  0  0  0  0  0  0  0  0
  -52.9748  -21.6006  -12.9168 H   0  0  0  0  0  0  0  0  0  0  0  0
  -55.0018  -27.9796  -15.2098 H   0  0  0  0  0  0  0  0  0  0  0  0
  -53.4698  -27.4096  -15.2528 H   0  0  0  0  0  0  0  0  0  0  0  0
  -54.1348  -27.8376  -13.8298 H   0  0  0  0  0  0  0  0  0  0  0  0
  2 32  2  0
  3 47  1  0
  3 50  1  0
  4 46  1  0
  5 46  2  0
  9 52  1  0
  9 56  1  0
 10 53  1  0
 11 53  2  0
 15 58  1  0
 16 58  2  0
 17 19  1  0
 17 20  1  0
 17 22  1  0
 17 33  1  0
 18 19  1  0
 18 21  1  0
 18 29  1  0
 18 35  1  0
 19 32  1  0
 20 25  1  0
 20 28  1  0
 20 36  1  0
 21 23  1  0
 21 24  1  0
 22 24  1  0
 23 31  1  0
 23 41  1  0
 23 42  1  0
 25 26  1  0
 25 37  2  0
 26 27  1  0
 26 38  1  0
 27 30  1  0
 27 39  1  0
 27 44  1  0
 28 30  1  0
 29 34  1  0
 31  1  1  0
 31 34  1  0
 32 37  1  0
 38 40  1  0
 39 43  1  0
 40 43  1  0
 40 45  1  0
 40 46  1  0
 47  1  1  0
 47 48  1  0
 48  6  1  0
 48 49  1  0
 49  7  1  0
 49 51  1  0
 50 51  1  0
 50 53  1  0
 51  8  1  0
 52  6  1  0
 52 54  1  0
 54 12  1  0
 54 55  1  0
 55 13  1  0
 55 57  1  0
 56 57  1  0
 56 58  1  0
 57 14  1  0
  7 73  1  0
  8 74  1  0
 12 75  1  0
 13 76  1  0
 14 77  1  0
 19 59  1  0
 21 60  1  0
 22 78  1  0
 22 79  1  0
 24 80  1  0
 24 81  1  0
 26 61  1  0
 28 82  1  0
 28 83  1  0
 29 84  1  0
 29 85  1  0
 30 86  1  0
 30 87  1  0
 31 62  1  0
 33 88  1  0
 33 89  1  0
 33 90  1  0
 34 91  1  0
 34 92  1  0
 35 93  1  0
 35 94  1  0
 35 95  1  0
 36 96  1  0
 36 97  1  0
 36 98  1  0
 37 99  1  0
 38100  1  0
 38101  1  0
 39102  1  0
 39103  1  0
 41104  1  0
 41105  1  0
 41106  1  0
 42107  1  0
 42108  1  0
 42109  1  0
 43110  1  0
 43111  1  0
 44112  1  0
 44113  1  0
 44114  1  0
 45115  1  0
 45116  1  0
 45117  1  0
 47 63  1  0
 48 64  1  0
 49 65  1  0
 50 66  1  0
 51 67  1  0
 52 68  1  0
 54 69  1  0
 55 70  1  0
 56 71  1  0
 57 72  1  0
M  CHG  3   4  -1  10  -1  15  -1
M  END
>  <BioMolTech Lead Finder dG>
-10.288

>  <BioMolTech Lead Finder VSscore>
-17.223

>  <BioMolTech Lead Finder Rank score>
-10.538

>  <BioMolTech Lead Finder LE>
-0.177

>  <BioMolTech Lead Finder Structure Name>
/var/folders/xd/y7jw_xv579q2qqq7kks92xd80000gn/T/LeadFinder_98369_1/Ligand_1.sdf

>  <BioMolTech Lead Finder SDF id>
0

>  <BioMolTech Lead Finder Pose rank>
0

>  <BioMolTech Lead Finder version>
2001 1, 19 January 2019

>  <PUBCHEM_COMPOUND_CID>
656656

>  <PUBCHEM_COMPOUND_CANONICALIZED>
1

>  <PUBCHEM_CACTVS_COMPLEXITY>
1730

>  <PUBCHEM_CACTVS_HBOND_ACCEPTOR>
18

>  <PUBCHEM_CACTVS_HBOND_DONOR>
10

>  <PUBCHEM_CACTVS_ROTATABLE_BOND>
7

>  <PUBCHEM_CACTVS_SUBSKEYS>
AAADcfB/PgAAAAAAAAAAAAAAAAAAAAAAAAA0aMGCAAAAAADAAAAAGgAQCAAADxSwgAMCCAAABgCIAqDSCAIAAAAgAAAACAFAAEgREBYAAQQiQAAFoAAPAQPK7PzPgAAAAAAAAADAAAYAADAAAAAAAAAAAA==

>  <PUBCHEM_IUPAC_OPENEYE_NAME>
(2S,3S,4S,5R,6R)-6-[(2S,3R,4S,5S,6S)-2-[[(3S,4aR,6aR,6bS,8aS,11S,12aR,14aR,14bS)-11-carboxy-4,4,6a,6b,8a,11,14b-heptamethyl-14-oxo-2,3,4a,5,6,7,8,9,10,12,12a,14a-dodecahydro-1H-picen-3-yl]oxy]-6-carbo

>  <PUBCHEM_IUPAC_CAS_NAME>
(2S,3S,4S,5R,6R)-6-[[(2S,3R,4S,5S,6S)-2-[[(3S,4aR,6aR,6bS,8aS,11S,12aR,14aR,14bS)-11-carboxy-4,4,6a,6b,8a,11,14b-heptamethyl-14-oxo-2,3,4a,5,6,7,8,9,10,12,12a,14a-dodecahydro-1H-picen-3-yl]oxy]-6-carb

>  <PUBCHEM_IUPAC_NAME_MARKUP>
(2<I>S</I>,3<I>S</I>,4<I>S</I>,5<I>R</I>,6<I>R</I>)-6-[(2<I>S</I>,3<I>R</I>,4<I>S</I>,5<I>S</I>,6<I>S</I>)-2-[[(3<I>S</I>,4<I>a</I><I>R</I>,6<I>a</I><I>R</I>,6<I>b</I><I>S</I>,8<I>a</I><I>S</I>,11<I>S

>  <PUBCHEM_IUPAC_NAME>
(2S,3S,4S,5R,6R)-6-[(2S,3R,4S,5S,6S)-2-[[(3S,4aR,6aR,6bS,8aS,11S,12aR,14aR,14bS)-11-carboxy-4,4,6a,6b,8a,11,14b-heptamethyl-14-oxo-2,3,4a,5,6,7,8,9,10,12,12a,14a-dodecahydro-1H-picen-3-yl]oxy]-6-carbo

>  <PUBCHEM_IUPAC_SYSTEMATIC_NAME>
(2S,3S,4S,5R,6R)-6-[(2S,3R,4S,5S,6S)-2-[[(3S,4aR,6aR,6bS,8aS,11S,12aR,14aR,14bS)-11-carboxy-4,4,6a,6b,8a,11,14b-heptamethyl-14-oxidanylidene-2,3,4a,5,6,7,8,9,10,12,12a,14a-dodecahydro-1H-picen-3-yl]ox

>  <PUBCHEM_IUPAC_TRADITIONAL_NAME>
(2S,3S,4S,5R,6R)-6-[(2S,3R,4S,5S,6S)-2-[[(3S,4aR,6aR,6bS,8aS,11S,12aR,14aR,14bS)-11-carboxy-14-keto-4,4,6a,6b,8a,11,14b-heptamethyl-2,3,4a,5,6,7,8,9,10,12,12a,14a-dodecahydro-1H-picen-3-yl]oxy]-6-carb

>  <PUBCHEM_IUPAC_INCHI>
InChI=1S/C42H62O16.2H3N/c1-37(2)21-8-11-42(7)31(20(43)16-18-19-17-39(4,36(53)54)13-12-38(19,3)14-15-41(18,42)6)40(21,5)10-9-22(37)55-35-30(26(47)25(46)29(57-35)33(51)52)58-34-27(48)23(44)24(45)28(56-3

>  <PUBCHEM_IUPAC_INCHIKEY>
SPPIIOPGDLITJE-VLQRKCJKSA-N

>  <PUBCHEM_EXACT_MASS>
856.456884

>  <PUBCHEM_MOLECULAR_FORMULA>
C42H68N2O16

>  <PUBCHEM_MOLECULAR_WEIGHT>
857

>  <PUBCHEM_OPENEYE_CAN_SMILES>
CC1(C2CCC3(C(C2(CCC1OC4C(C(C(C(O4)C(=O)O)O)O)OC5C(C(C(C(O5)C(=O)O)O)O)O)C)C(=O)C=C6C3(CCC7(C6CC(CC7)(C)C(=O)O)C)C)C)C.N.N

>  <PUBCHEM_OPENEYE_ISO_SMILES>
C[C@]12CC[C@](C[C@H]1C3=CC(=O)[C@@H]4[C@]5(CC[C@@H](C([C@@H]5CC[C@]4([C@@]3(CC2)C)C)(C)C)O[C@@H]6[C@@H]([C@H]([C@@H]([C@H](O6)C(=O)O)O)O)O[C@H]7[C@@H]([C@H]([C@@H]([C@H](O7)C(=O)O)O)O)O)C)(C)C(=O)O.N.

>  <PUBCHEM_CACTVS_TPSA>
269

>  <PUBCHEM_MONOISOTOPIC_WEIGHT>
856.456884

>  <PUBCHEM_TOTAL_CHARGE>
0

>  <PUBCHEM_HEAVY_ATOM_COUNT>
60

>  <PUBCHEM_ATOM_DEF_STEREO_COUNT>
19

>  <PUBCHEM_ATOM_UDEF_STEREO_COUNT>
0

>  <PUBCHEM_BOND_DEF_STEREO_COUNT>
0

>  <PUBCHEM_BOND_UDEF_STEREO_COUNT>
0

>  <PUBCHEM_ISOTOPIC_ATOM_COUNT>
0

>  <PUBCHEM_COMPONENT_COUNT>
3

>  <PUBCHEM_CACTVS_TAUTO_COUNT>
-1

>  <PUBCHEM_COORDINATE_TYPE>
1
5
255

>  <PUBCHEM_BONDANNOTATIONS>
33  1  5
49  1  6
56  12  6
57  13  5
59  14  6
19  35  5
20  37  5
21  61  6
22  38  6
23  62  6
28  67  5
29  46  5
42  47  6
52  55  5
58  60  5
50  6  6
54  6  5
51  7  5
53  8  6

>  <LF dG>
-10.288

>  <LF VSscore>
-17.223

>  <LF Rank Score>
-10.538

>  <LF LE>
-0.177

>  <Preferred Pose_cresset>
true

>  <Favorite_cresset>
false

>  <Protein_cresset>
6M2N_Dimer_P

>  <MW_cresset>
819.9

>  <#Atoms_cresset>
58

>  <SlogP_cresset>
4.1

>  <TPSA_cresset>
275.5

>  <Flexibility_cresset>
17.3

>  <#RB_cresset>
12

>  <Rof5_cresset>
2

>  <Filename_cresset>
Diammonium Glycyrrhizinate.sdf

>  <Confs_cresset>
0

>  <Poses_cresset>
10

>  <_cresset_fieldpoints>
    -5     -58.049011     -19.175770      -2.427641    -11.4858
    -5     -60.867462     -15.400452      -1.862162    -12.7962
    -5     -58.169559     -25.831478     -16.689037    -12.0261
    -5     -58.671524     -25.724335     -15.571434    -12.0663
    -5     -61.093361     -21.676315       1.018906    -15.6680
    -5     -62.963448     -17.547813      -0.653400    -14.4063
    -5     -61.268456     -15.287045      -3.036825    -12.4673
    -5     -58.783066     -22.828022       4.291169    -11.7770
    -5     -58.469040     -22.826181       0.353655     -9.3468
    -5     -62.257248     -25.852272      -3.456531    -11.6573
    -5     -61.112869     -24.589832      -3.774567    -12.4231
    -5     -58.034111     -28.122143      -0.998688    -10.4918
    -5     -59.974052     -22.464226       4.536098    -12.0153
    -5     -62.019814     -26.657148       3.003683    -10.4063
    -5     -61.712955     -21.366726       1.231215    -14.4046
    -5     -60.220627     -17.344822       0.223917    -10.0262
    -5     -57.404270     -20.610844      -2.153165    -11.2513
    -5     -59.702377     -23.608955     -11.105688    -14.7327
    -6     -62.521584     -21.280937      -4.609234      6.4903
    -6     -56.097885     -22.380762     -15.222532      1.6395
    -6     -64.552002     -21.729969      -1.692270     17.4351
    -6     -57.866692     -27.621494       3.051775      7.6323
    -6     -58.117176     -26.167648      -4.214778      7.8398
    -6     -61.951839     -29.487875       0.215565      7.4761
    -6     -55.222450     -25.243824      -6.469837      4.2040
    -6     -51.727394     -24.485933      -7.815335      2.8441
    -6     -52.155067     -20.168175     -10.020342      2.6678
    -6     -55.653236     -18.549715      -8.183649      1.9978
    -6     -52.439350     -20.003059     -10.967712      2.6233
    -6     -52.028465     -27.081060     -12.486088      3.6264
    -6     -50.360847     -22.336172     -14.177317      1.9784
    -6     -56.811378     -21.798355     -13.525673      1.7033
    -6     -52.801506     -22.266726     -16.844160      1.6220
    -7     -57.176689     -20.356083      -1.683818     -3.0676
    -7     -60.433632     -22.457060      -9.288716     -2.1284
    -7     -60.513252     -19.943367      -6.258202     -2.9989
    -7     -57.240280     -26.147814      -9.036303     -2.9115
    -7     -58.194626     -21.174934     -11.530379     -2.6804
    -7     -56.837509     -21.254925     -12.767178     -3.0626
    -7     -54.725674     -26.969837     -17.915352     -1.9352
    -7     -57.269855     -28.067478     -13.292136     -2.0052
    -7     -58.185310     -26.083214     -12.124138     -2.3065
    -7     -56.701561     -22.886314     -15.276934     -2.6537
    -7     -64.877365     -21.821033      -2.107980     -1.3975
    -7     -60.619057     -21.144753       1.277250     -2.8048
    -7     -63.768501     -23.770206      -2.466586     -1.7712
    -7     -63.810059     -24.421482      -0.021708     -1.9690
    -7     -64.302048     -20.040798      -3.504350     -1.8203
    -7     -61.384872     -24.044304      -4.347343     -3.2042
    -7     -59.231033     -18.560469      -5.411055     -3.0250
    -7     -62.798645     -17.115200      -0.285447     -1.5621
    -7     -60.509586     -28.585426      -2.704142     -1.6204
    -7     -63.076485     -26.073929      -2.474373     -1.6797
    -7     -55.209721     -25.362129      -6.246635     -3.4237
    -7     -57.372498     -25.336483      -3.540706     -2.7152
    -7     -57.326080     -27.356369      -0.549501     -1.6096
    -7     -62.836060     -26.704933       2.108895     -1.6721
    -7     -57.813793     -25.789997       3.526256     -1.5420
    -7     -61.720589     -28.523548       1.834030     -1.5353
    -7     -58.696449     -28.769176       1.413699     -1.6148
    -7     -61.904926     -25.813995       3.753819     -1.6379
    -7     -58.743195     -25.686127       4.244979     -1.5245
    -7     -51.611191     -24.537487      -7.704992     -2.2179
    -7     -52.140373     -19.990479     -10.119061     -2.3645
    -7     -55.795456     -18.440132      -8.184380     -2.6280
    -7     -52.878792     -20.886116      -3.972212     -2.0573
    -7     -50.366570     -22.117687     -14.207391     -1.9786
    -7     -50.974766     -20.724827     -11.573858     -1.9230
    -7     -57.205101     -26.356457     -10.368021     -2.8991
    -7     -50.745674     -25.749187      -9.939497     -1.8173
    -7     -52.425949     -19.842924     -10.986542     -2.3693
    -7     -51.068954     -26.718100     -15.852829     -1.7557
    -7     -57.566425     -23.270828      -1.064354     -3.2985
    -7     -52.840355     -19.110683      -8.448185     -1.9303
    -7     -53.521049     -22.248795     -17.014595     -1.7644
    -7     -51.857101     -27.172287     -12.545364     -2.8939
    -8     -55.454147     -22.297573      -7.815428      7.3631
    -8     -57.318977     -22.278549      -6.137952      7.2435
    -8     -55.619057     -23.261005     -10.062342      7.4705
    -8     -61.039169     -20.742954      -2.340161      5.1551
    -8     -53.813744     -23.714716     -11.727815      7.2559
    -8     -54.116142     -24.791786     -13.855354      7.4413
    -8     -60.426674     -25.373035      -0.162456      5.1511
    -8     -56.860397     -22.529488      -7.378993      6.6741
    -8     -56.149193     -21.574371      -5.120976      6.4287
    -8     -53.490158     -23.730255     -13.152859      6.7169

$$$$
Diammonium Glycyrrhizinate_D
  xed2sdf_05210316543D
 
117123  0  0  1  0  0  0  0  0999 V2000
  -56.1581  -20.4103   -7.1630 O   0  0  0  0  0  0  0  0  0  0  0  0
  -59.0321  -23.9283  -12.0210 O   0  0  0  0  0  0  0  0  0  0  0  0
  -56.2491  -18.0473   -7.5100 O   0  0  0  0  0  0  0  0  0  0  0  0
  -60.9391  -29.4333  -16.4390 O   0  5  0  0  0  0  0  0  0  0  0  0
  -61.0521  -27.9933  -14.6740 O   0  0  0  0  0  0  0  0  0  0  0  0
  -58.5051  -20.2883   -5.6060 O   0  0  0  0  0  0  0  0  0  0  0  0
  -59.0591  -17.6473   -4.4110 O   0  0  0  0  0  0  0  0  0  0  0  0
  -58.4641  -15.4203   -6.1210 O   0  0  0  0  0  0  0  0  0  0  0  0
  -57.9061  -19.8773   -3.3140 O   0  0  0  0  0  0  0  0  0  0  0  0
  -56.0011  -15.5243   -9.1650 O   0  5  0  0  0  0  0  0  0  0  0  0
  -55.8341  -14.9013   -6.9750 O   0  0  0  0  0  0  0  0  0  0  0  0
  -59.5761  -22.7973   -4.8880 O   0  0  0  0  0  0  0  0  0  0  0  0
  -58.8621  -23.8523   -2.3100 O   0  0  0  0  0  0  0  0  0  0  0  0
  -58.3651  -21.9133   -0.2410 O   0  0  0  0  0  0  0  0  0  0  0  0
  -56.0181  -19.4953   -1.2630 O   0  5  0  0  0  0  0  0  0  0  0  0
  -57.8091  -18.6153   -0.1530 O   0  0  0  0  0  0  0  0  0  0  0  0
  -55.8641  -25.5753  -11.5190 C   0  0  0  0  0  0  0  0  0  0  0  0
  -56.7491  -23.3713  -10.2450 C   0  0  0  0  0  0  0  0  0  0  0  0
  -57.0481  -24.7613  -10.9070 C   0  0  0  0  0  0  0  0  0  0  0  0
  -56.3711  -27.0373  -11.8430 C   0  0  0  0  0  0  0  0  0  0  0  0
  -55.5131  -23.5223   -9.3030 C   0  0  0  0  0  0  0  0  0  0  0  0
  -54.6481  -25.5723  -10.5510 C   0  0  0  0  0  0  0  0  0  0  0  0
  -55.1721  -22.3013   -8.3820 C   0  0  0  0  0  0  0  0  0  0  0  0
  -54.2901  -24.1783   -9.9910 C   0  0  0  0  0  0  0  0  0  0  0  0
  -57.5121  -26.9303  -12.8480 C   0  0  0  0  0  0  0  0  0  0  0  0
  -57.7821  -27.9983  -13.8940 C   0  0  0  0  0  0  0  0  0  0  0  0
  -56.5391  -28.7893  -14.3810 C   0  0  0  0  0  0  0  0  0  0  0  0
  -55.1971  -27.9413  -12.3290 C   0  0  0  0  0  0  0  0  0  0  0  0
  -57.9561  -23.0083   -9.3370 C   0  0  0  0  0  0  0  0  0  0  0  0
  -55.6111  -29.1513  -13.1960 C   0  0  0  0  0  0  0  0  0  0  0  0
  -56.2951  -21.2293   -8.3440 C   0  0  0  0  0  0  0  0  0  0  0  0
  -58.1911  -24.7983  -11.9020 C   0  0  0  0  0  0  0  0  0  0  0  0
  -55.4131  -24.8903  -12.8410 C   0  0  0  0  0  0  0  0  0  0  0  0
  -57.7281  -21.8143   -8.3720 C   0  0  0  0  0  0  0  0  0  0  0  0
  -56.6301  -22.2583  -11.3220 C   0  0  0  0  0  0  0  0  0  0  0  0
  -57.0471  -27.7603  -10.6450 C   0  0  0  0  0  0  0  0  0  0  0  0
  -58.3221  -25.8633  -12.8740 C   0  0  0  0  0  0  0  0  0  0  0  0
  -58.8881  -28.9583  -13.4080 C   0  0  0  0  0  0  0  0  0  0  0  0
  -56.9531  -30.1163  -15.0810 C   0  0  0  0  0  0  0  0  0  0  0  0
  -59.4571  -29.7733  -14.5980 C   0  0  0  0  0  0  0  0  0  0  0  0
  -54.9281  -22.8233   -6.9490 C   0  0  0  0  0  0  0  0  0  0  0  0
  -53.8751  -21.5633   -8.7920 C   0  0  0  0  0  0  0  0  0  0  0  0
  -58.3781  -30.0603  -15.6740 C   0  0  0  0  0  0  0  0  0  0  0  0
  -55.7791  -27.9173  -15.4020 C   0  0  0  0  0  0  0  0  0  0  0  0
  -60.0261  -31.0973  -14.0510 C   0  0  0  0  0  0  0  0  0  0  0  0
  -60.5681  -29.0083  -15.2880 C   0  0  0  0  0  0  0  0  0  0  0  0
  -56.9981  -19.2383   -7.1740 C   0  0  0  0  0  0  0  0  0  0  0  0
  -57.6731  -19.1253   -5.7910 C   0  0  0  0  0  0  0  0  0  0  0  0
  -58.5151  -17.8323   -5.7260 C   0  0  0  0  0  0  0  0  0  0  0  0
  -57.0691  -16.8613   -7.5150 C   0  0  0  0  0  0  0  0  0  0  0  0
  -57.6631  -16.6113   -6.1180 C   0  0  0  0  0  0  0  0  0  0  0  0
  -58.7841  -20.5833   -4.2220 C   0  0  0  0  0  0  0  0  0  0  0  0
  -56.2401  -15.6693   -7.9160 C   0  0  0  0  0  0  0  0  0  0  0  0
  -58.6741  -22.1073   -4.0110 C   0  0  0  0  0  0  0  0  0  0  0  0
  -58.9961  -22.4423   -2.5430 C   0  0  0  0  0  0  0  0  0  0  0  0
  -58.2041  -20.1513   -1.9290 C   0  0  0  0  0  0  0  0  0  0  0  0
  -58.0541  -21.6533   -1.6170 C   0  0  0  0  0  0  0  0  0  0  0  0
  -57.2731  -19.3583   -1.0480 C   0  0  0  0  0  0  0  0  0  0  0  0
  -57.3121  -25.2223  -10.0600 H   0  0  0  0  0  0  0  0  0  0  0  0
  -55.8301  -24.1873   -8.6260 H   0  0  0  0  0  0  0  0  0  0  0  0
  -58.0891  -27.4953  -14.7020 H   0  0  0  0  0  0  0  0  0  0  0  0
  -56.1801  -20.6903   -9.1780 H   0  0  0  0  0  0  0  0  0  0  0  0
  -57.6981  -19.3263   -7.8830 H   0  0  0  0  0  0  0  0  0  0  0  0
  -56.9881  -19.0833   -5.0640 H   0  0  0  0  0  0  0  0  0  0  0  0
  -59.2701  -17.9203   -6.3750 H   0  0  0  0  0  0  0  0  0  0  0  0
  -57.8131  -16.9953   -8.1690 H   0  0  0  0  0  0  0  0  0  0  0  0
  -56.9271  -16.4833   -5.4530 H   0  0  0  0  0  0  0  0  0  0  0  0
  -59.7101  -20.2693   -4.0150 H   0  0  0  0  0  0  0  0  0  0  0  0
  -57.7421  -22.4033   -4.2210 H   0  0  0  0  0  0  0  0  0  0  0  0
  -59.9421  -22.1823   -2.3470 H   0  0  0  0  0  0  0  0  0  0  0  0
  -59.1511  -19.8853   -1.7510 H   0  0  0  0  0  0  0  0  0  0  0  0
  -57.1081  -21.9383   -1.7750 H   0  0  0  0  0  0  0  0  0  0  0  0
  -59.3761  -16.7023   -4.2750 H   0  0  0  0  0  0  0  0  0  0  0  0
  -58.6701  -15.1153   -5.1840 H   0  0  0  0  0  0  0  0  0  0  0  0
  -59.7721  -22.2553   -5.7120 H   0  0  0  0  0  0  0  0  0  0  0  0
  -58.8321  -24.3653   -3.1750 H   0  0  0  0  0  0  0  0  0  0  0  0
  -58.2871  -22.8933   -0.0270 H   0  0  0  0  0  0  0  0  0  0  0  0
  -53.8541  -25.9303  -11.0420 H   0  0  0  0  0  0  0  0  0  0  0  0
  -54.9031  -26.1393   -9.7680 H   0  0  0  0  0  0  0  0  0  0  0  0
  -53.5491  -24.2713   -9.3260 H   0  0  0  0  0  0  0  0  0  0  0  0
  -54.0041  -23.5953  -10.7520 H   0  0  0  0  0  0  0  0  0  0  0  0
  -54.7161  -28.2863  -11.5230 H   0  0  0  0  0  0  0  0  0  0  0  0
  -54.6281  -27.3653  -12.9160 H   0  0  0  0  0  0  0  0  0  0  0  0
  -58.1831  -23.8133   -8.7880 H   0  0  0  0  0  0  0  0  0  0  0  0
  -58.6901  -22.7253   -9.9540 H   0  0  0  0  0  0  0  0  0  0  0  0
  -54.7831  -29.5773  -13.5610 H   0  0  0  0  0  0  0  0  0  0  0  0
  -56.1281  -29.7673  -12.6010 H   0  0  0  0  0  0  0  0  0  0  0  0
  -54.4561  -24.6133  -12.7540 H   0  0  0  0  0  0  0  0  0  0  0  0
  -55.5101  -25.5293  -13.6040 H   0  0  0  0  0  0  0  0  0  0  0  0
  -55.9821  -24.0863  -13.0150 H   0  0  0  0  0  0  0  0  0  0  0  0
  -57.9551  -22.1193   -7.4470 H   0  0  0  0  0  0  0  0  0  0  0  0
  -58.3131  -21.0773   -8.7120 H   0  0  0  0  0  0  0  0  0  0  0  0
  -57.3511  -21.5823  -11.1730 H   0  0  0  0  0  0  0  0  0  0  0  0
  -55.7351  -21.8163  -11.2540 H   0  0  0  0  0  0  0  0  0  0  0  0
  -56.7261  -22.6603  -12.2330 H   0  0  0  0  0  0  0  0  0  0  0  0
  -56.5721  -28.6233  -10.4760 H   0  0  0  0  0  0  0  0  0  0  0  0
  -56.9981  -27.1833   -9.8300 H   0  0  0  0  0  0  0  0  0  0  0  0
  -58.0081  -27.9403  -10.8590 H   0  0  0  0  0  0  0  0  0  0  0  0
  -59.0301  -25.8013  -13.5780 H   0  0  0  0  0  0  0  0  0  0  0  0
  -59.6241  -28.4293  -12.9860 H   0  0  0  0  0  0  0  0  0  0  0  0
  -58.4971  -29.5923  -12.7400 H   0  0  0  0  0  0  0  0  0  0  0  0
  -56.9111  -30.8583  -14.4130 H   0  0  0  0  0  0  0  0  0  0  0  0
  -56.3181  -30.2663  -15.8390 H   0  0  0  0  0  0  0  0  0  0  0  0
  -54.0101  -22.5563   -6.6560 H   0  0  0  0  0  0  0  0  0  0  0  0
  -55.6071  -22.4323   -6.3270 H   0  0  0  0  0  0  0  0  0  0  0  0
  -55.0111  -23.8203   -6.9360 H   0  0  0  0  0  0  0  0  0  0  0  0
  -53.2211  -21.6123   -8.0380 H   0  0  0  0  0  0  0  0  0  0  0  0
  -53.4851  -21.9943   -9.6060 H   0  0  0  0  0  0  0  0  0  0  0  0
  -54.0831  -20.6073   -8.9980 H   0  0  0  0  0  0  0  0  0  0  0  0
  -58.5801  -30.9373  -16.1090 H   0  0  0  0  0  0  0  0  0  0  0  0
  -58.4031  -29.3103  -16.3350 H   0  0  0  0  0  0  0  0  0  0  0  0
  -55.7291  -28.4043  -16.2740 H   0  0  0  0  0  0  0  0  0  0  0  0
  -56.2601  -27.0493  -15.5290 H   0  0  0  0  0  0  0  0  0  0  0  0
  -54.8561  -27.7313  -15.0650 H   0  0  0  0  0  0  0  0  0  0  0  0
  -61.0001  -31.1503  -14.2750 H   0  0  0  0  0  0  0  0  0  0  0  0
  -59.5431  -31.8693  -14.4630 H   0  0  0  0  0  0  0  0  0  0  0  0
  -59.9061  -31.1303  -13.0590 H   0  0  0  0  0  0  0  0  0  0  0  0
  2 32  2  0
  3 47  1  0
  3 50  1  0
  4 46  1  0
  5 46  2  0
  9 52  1  0
  9 56  1  0
 10 53  1  0
 11 53  2  0
 15 58  1  0
 16 58  2  0
 17 19  1  0
 17 20  1  0
 17 22  1  0
 17 33  1  0
 18 19  1  0
 18 21  1  0
 18 29  1  0
 18 35  1  0
 19 32  1  0
 20 25  1  0
 20 28  1  0
 20 36  1  0
 21 23  1  0
 21 24  1  0
 22 24  1  0
 23 31  1  0
 23 41  1  0
 23 42  1  0
 25 26  1  0
 25 37  2  0
 26 27  1  0
 26 38  1  0
 27 30  1  0
 27 39  1  0
 27 44  1  0
 28 30  1  0
 29 34  1  0
 31  1  1  0
 31 34  1  0
 32 37  1  0
 38 40  1  0
 39 43  1  0
 40 43  1  0
 40 45  1  0
 40 46  1  0
 47  1  1  0
 47 48  1  0
 48  6  1  0
 48 49  1  0
 49  7  1  0
 49 51  1  0
 50 51  1  0
 50 53  1  0
 51  8  1  0
 52  6  1  0
 52 54  1  0
 54 12  1  0
 54 55  1  0
 55 13  1  0
 55 57  1  0
 56 57  1  0
 56 58  1  0
 57 14  1  0
  7 73  1  0
  8 74  1  0
 12 75  1  0
 13 76  1  0
 14 77  1  0
 19 59  1  0
 21 60  1  0
 22 78  1  0
 22 79  1  0
 24 80  1  0
 24 81  1  0
 26 61  1  0
 28 82  1  0
 28 83  1  0
 29 84  1  0
 29 85  1  0
 30 86  1  0
 30 87  1  0
 31 62  1  0
 33 88  1  0
 33 89  1  0
 33 90  1  0
 34 91  1  0
 34 92  1  0
 35 93  1  0
 35 94  1  0
 35 95  1  0
 36 96  1  0
 36 97  1  0
 36 98  1  0
 37 99  1  0
 38100  1  0
 38101  1  0
 39102  1  0
 39103  1  0
 41104  1  0
 41105  1  0
 41106  1  0
 42107  1  0
 42108  1  0
 42109  1  0
 43110  1  0
 43111  1  0
 44112  1  0
 44113  1  0
 44114  1  0
 45115  1  0
 45116  1  0
 45117  1  0
 47 63  1  0
 48 64  1  0
 49 65  1  0
 50 66  1  0
 51 67  1  0
 52 68  1  0
 54 69  1  0
 55 70  1  0
 56 71  1  0
 57 72  1  0
M  CHG  3   4  -1  10  -1  15  -1
M  END
>  <BioMolTech Lead Finder dG>
-7.184

>  <BioMolTech Lead Finder VSscore>
-15.427

>  <BioMolTech Lead Finder Rank score>
-9.716

>  <BioMolTech Lead Finder LE>
-0.124

>  <BioMolTech Lead Finder Structure Name>
/var/folders/xd/y7jw_xv579q2qqq7kks92xd80000gn/T/LeadFinder_96898_1/Ligand_1.sdf

>  <BioMolTech Lead Finder SDF id>
0

>  <BioMolTech Lead Finder Pose rank>
0

>  <BioMolTech Lead Finder version>
2001 1, 19 January 2019

>  <PUBCHEM_COMPOUND_CID>
656656

>  <PUBCHEM_COMPOUND_CANONICALIZED>
1

>  <PUBCHEM_CACTVS_COMPLEXITY>
1730

>  <PUBCHEM_CACTVS_HBOND_ACCEPTOR>
18

>  <PUBCHEM_CACTVS_HBOND_DONOR>
10

>  <PUBCHEM_CACTVS_ROTATABLE_BOND>
7

>  <PUBCHEM_CACTVS_SUBSKEYS>
AAADcfB/PgAAAAAAAAAAAAAAAAAAAAAAAAA0aMGCAAAAAADAAAAAGgAQCAAADxSwgAMCCAAABgCIAqDSCAIAAAAgAAAACAFAAEgREBYAAQQiQAAFoAAPAQPK7PzPgAAAAAAAAADAAAYAADAAAAAAAAAAAA==

>  <PUBCHEM_IUPAC_OPENEYE_NAME>
(2S,3S,4S,5R,6R)-6-[(2S,3R,4S,5S,6S)-2-[[(3S,4aR,6aR,6bS,8aS,11S,12aR,14aR,14bS)-11-carboxy-4,4,6a,6b,8a,11,14b-heptamethyl-14-oxo-2,3,4a,5,6,7,8,9,10,12,12a,14a-dodecahydro-1H-picen-3-yl]oxy]-6-carbo

>  <PUBCHEM_IUPAC_CAS_NAME>
(2S,3S,4S,5R,6R)-6-[[(2S,3R,4S,5S,6S)-2-[[(3S,4aR,6aR,6bS,8aS,11S,12aR,14aR,14bS)-11-carboxy-4,4,6a,6b,8a,11,14b-heptamethyl-14-oxo-2,3,4a,5,6,7,8,9,10,12,12a,14a-dodecahydro-1H-picen-3-yl]oxy]-6-carb

>  <PUBCHEM_IUPAC_NAME_MARKUP>
(2<I>S</I>,3<I>S</I>,4<I>S</I>,5<I>R</I>,6<I>R</I>)-6-[(2<I>S</I>,3<I>R</I>,4<I>S</I>,5<I>S</I>,6<I>S</I>)-2-[[(3<I>S</I>,4<I>a</I><I>R</I>,6<I>a</I><I>R</I>,6<I>b</I><I>S</I>,8<I>a</I><I>S</I>,11<I>S

>  <PUBCHEM_IUPAC_NAME>
(2S,3S,4S,5R,6R)-6-[(2S,3R,4S,5S,6S)-2-[[(3S,4aR,6aR,6bS,8aS,11S,12aR,14aR,14bS)-11-carboxy-4,4,6a,6b,8a,11,14b-heptamethyl-14-oxo-2,3,4a,5,6,7,8,9,10,12,12a,14a-dodecahydro-1H-picen-3-yl]oxy]-6-carbo

>  <PUBCHEM_IUPAC_SYSTEMATIC_NAME>
(2S,3S,4S,5R,6R)-6-[(2S,3R,4S,5S,6S)-2-[[(3S,4aR,6aR,6bS,8aS,11S,12aR,14aR,14bS)-11-carboxy-4,4,6a,6b,8a,11,14b-heptamethyl-14-oxidanylidene-2,3,4a,5,6,7,8,9,10,12,12a,14a-dodecahydro-1H-picen-3-yl]ox

>  <PUBCHEM_IUPAC_TRADITIONAL_NAME>
(2S,3S,4S,5R,6R)-6-[(2S,3R,4S,5S,6S)-2-[[(3S,4aR,6aR,6bS,8aS,11S,12aR,14aR,14bS)-11-carboxy-14-keto-4,4,6a,6b,8a,11,14b-heptamethyl-2,3,4a,5,6,7,8,9,10,12,12a,14a-dodecahydro-1H-picen-3-yl]oxy]-6-carb

>  <PUBCHEM_IUPAC_INCHI>
InChI=1S/C42H62O16.2H3N/c1-37(2)21-8-11-42(7)31(20(43)16-18-19-17-39(4,36(53)54)13-12-38(19,3)14-15-41(18,42)6)40(21,5)10-9-22(37)55-35-30(26(47)25(46)29(57-35)33(51)52)58-34-27(48)23(44)24(45)28(56-3

>  <PUBCHEM_IUPAC_INCHIKEY>
SPPIIOPGDLITJE-VLQRKCJKSA-N

>  <PUBCHEM_EXACT_MASS>
856.456884

>  <PUBCHEM_MOLECULAR_FORMULA>
C42H68N2O16

>  <PUBCHEM_MOLECULAR_WEIGHT>
857

>  <PUBCHEM_OPENEYE_CAN_SMILES>
CC1(C2CCC3(C(C2(CCC1OC4C(C(C(C(O4)C(=O)O)O)O)OC5C(C(C(C(O5)C(=O)O)O)O)O)C)C(=O)C=C6C3(CCC7(C6CC(CC7)(C)C(=O)O)C)C)C)C.N.N

>  <PUBCHEM_OPENEYE_ISO_SMILES>
C[C@]12CC[C@](C[C@H]1C3=CC(=O)[C@@H]4[C@]5(CC[C@@H](C([C@@H]5CC[C@]4([C@@]3(CC2)C)C)(C)C)O[C@@H]6[C@@H]([C@H]([C@@H]([C@H](O6)C(=O)O)O)O)O[C@H]7[C@@H]([C@H]([C@@H]([C@H](O7)C(=O)O)O)O)O)C)(C)C(=O)O.N.

>  <PUBCHEM_CACTVS_TPSA>
269

>  <PUBCHEM_MONOISOTOPIC_WEIGHT>
856.456884

>  <PUBCHEM_TOTAL_CHARGE>
0

>  <PUBCHEM_HEAVY_ATOM_COUNT>
60

>  <PUBCHEM_ATOM_DEF_STEREO_COUNT>
19

>  <PUBCHEM_ATOM_UDEF_STEREO_COUNT>
0

>  <PUBCHEM_BOND_DEF_STEREO_COUNT>
0

>  <PUBCHEM_BOND_UDEF_STEREO_COUNT>
0

>  <PUBCHEM_ISOTOPIC_ATOM_COUNT>
0

>  <PUBCHEM_COMPONENT_COUNT>
3

>  <PUBCHEM_CACTVS_TAUTO_COUNT>
-1

>  <PUBCHEM_COORDINATE_TYPE>
1
5
255

>  <PUBCHEM_BONDANNOTATIONS>
33  1  5
49  1  6
56  12  6
57  13  5
59  14  6
19  35  5
20  37  5
21  61  6
22  38  6
23  62  6
28  67  5
29  46  5
42  47  6
52  55  5
58  60  5
50  6  6
54  6  5
51  7  5
53  8  6

>  <LF dG>
-7.184

>  <LF VSscore>
-15.427

>  <LF Rank Score>
-9.716

>  <LF LE>
-0.124

>  <Preferred Pose_cresset>
true

>  <Favorite_cresset>
false

>  <Protein_cresset>
6M2N_Dimer_P

>  <MW_cresset>
819.9

>  <#Atoms_cresset>
58

>  <SlogP_cresset>
4.1

>  <TPSA_cresset>
275.5

>  <Flexibility_cresset>
17.3

>  <#RB_cresset>
12

>  <Rof5_cresset>
2

>  <Filename_cresset>
Diammonium Glycyrrhizinate.sdf

>  <Confs_cresset>
0

>  <Poses_cresset>
10

>  <_cresset_fieldpoints>
    -5     -60.455719     -23.763836     -13.081761    -13.3090
    -5     -59.945900     -22.354008     -12.090054    -12.2806
    -5     -62.337906     -27.335089     -15.787855    -12.0483
    -5     -54.959366     -14.016487      -9.238111    -12.8360
    -5     -62.266861     -28.247223     -16.906860    -11.7818
    -5     -61.014694     -23.932901      -4.478028     -7.3802
    -5     -58.716484     -20.658142       1.085339    -12.5967
    -5     -56.361160     -17.885105       0.703987    -13.1888
    -5     -57.578606     -17.760170      -3.101584     -9.2505
    -5     -58.385124     -13.983151      -7.348316     -9.2435
    -5     -54.867378     -13.617054      -7.855387    -12.8212
    -5     -55.620491     -20.093763      -3.132470    -12.1664
    -5     -56.239639     -16.999737     -10.366173     -9.4215
    -5     -60.014729     -24.695541      -1.115723     -8.3679
    -5     -55.230888     -18.423042      -0.017398    -13.3587
    -5     -54.415600     -19.724277      -6.378436    -12.3074
    -5     -53.589752     -30.174900     -15.955761     -1.6010
    -5     -61.628860     -26.379589     -13.705240     -9.2215
    -5     -60.685829     -30.871799     -17.676704     -7.4647
    -5     -57.513401     -31.889481     -12.019337     -1.4007
    -6     -60.609394     -21.335236      -6.969296      2.0152
    -6     -59.642567     -15.062063      -3.767083      7.5415
    -6     -56.528458     -26.230850      -7.738852      1.0945
    -6     -57.471741     -31.722307     -12.088972      1.5367
    -6     -59.680817     -18.549166      -8.601931      1.5633
    -7     -54.198601     -19.828266      -5.911469     -3.0315
    -7     -57.979561     -23.349953     -14.430374     -2.6803
    -7     -59.762470     -26.116247      -9.844543     -2.9133
    -7     -59.792645     -21.734215     -12.019354     -2.1303
    -7     -60.238686     -26.783867     -10.931719     -2.8999
    -7     -53.589069     -22.025291     -12.564720     -2.6271
    -7     -55.333786     -18.377670      -9.818232     -2.8816
    -7     -54.503319     -17.900585      -5.726192     -2.3949
    -7     -58.973793     -26.876110     -16.849350     -2.6480
    -7     -62.157578     -28.962105     -12.665066     -2.0205
    -7     -60.920731     -31.719355     -17.113060     -1.9427
    -7     -56.774689     -29.340332     -18.416857     -1.7651
    -7     -61.244640     -26.608604     -12.647113     -2.3078
    -7     -57.385017     -24.807426     -15.383253     -3.0621
    -7     -61.856178     -21.907349      -4.444729     -1.7750
    -7     -60.724121     -18.148384      -2.892804     -2.1836
    -7     -57.162514     -17.182438      -2.924533     -2.7916
    -7     -60.878098     -15.660327      -5.814098     -1.6409
    -7     -57.416351     -13.302746      -6.189347     -1.6571
    -7     -60.264786     -15.779291      -7.819167     -1.6955
    -7     -57.626007     -19.003296     -10.425110     -2.9272
    -7     -54.996643     -13.127766      -8.642136     -0.8460
    -7     -57.670998     -24.334023      -6.235519     -3.5261
    -7     -57.056061     -25.941833      -7.591599     -3.4541
    -7     -61.658657     -20.236362      -2.322712     -1.7999
    -7     -61.039513     -24.479221      -3.981890     -1.5173
    -7     -55.546696     -20.970110      -4.072674     -3.6830
    -7     -60.693977     -21.134518       0.141164     -1.7014
    -7     -56.311195     -24.263084      -3.168682     -1.8969
    -7     -59.403542     -20.177444       1.092891     -1.7213
    -7     -56.357109     -21.298767       1.054491     -1.5341
    -7     -54.308861     -28.479286      -8.995175     -2.2179
    -7     -52.466011     -26.240967     -13.279305     -2.3646
    -7     -51.887543     -23.929989      -7.497522     -2.0576
    -7     -52.818100     -26.286804     -14.142693     -2.3694
    -7     -51.953712     -24.580570     -12.271305     -1.9303
    -7     -52.488861     -28.056105     -14.139238     -1.9230
    -7     -55.062263     -30.678417     -10.342047     -1.8173
    -7     -57.485252     -31.794193     -12.063557     -2.8938
    -7     -53.652534     -30.337244     -15.767330     -1.9786
    -7     -60.346977     -20.446693      -7.105184     -3.2252
    -7     -57.535831     -33.323845     -15.136410     -1.7556
    -8     -55.694126     -24.502880     -10.427887      7.3634
    -8     -56.569107     -22.566700      -9.095041      7.2458
    -8     -57.740612     -17.913622      -6.479484      5.1485
    -8     -54.994133     -22.547333      -8.437993      6.4298
    -8     -56.480774     -28.001318     -13.095297      7.2563
    -8     -57.966888     -29.271152     -14.494883      7.4418
    -8     -58.664158     -21.445068      -2.798039      5.1676
    -8     -56.739235     -23.512947     -10.029939      6.6745
    -8     -56.648613     -28.782019     -14.320593      6.7168
    -8     -57.041012     -25.845592     -11.974228      7.4708

$$$$
W_Wogonin_D
  xed2sdf_05210316543D
 
 33 35  0  0  0  0  0  0  0  0999 V2000
  -62.7550  -25.7615    1.3969 O   0  0  0  0  0  0  0  0  0  0  0  0
  -64.6570  -24.2545   -0.0441 O   0  0  0  0  0  0  0  0  0  0  0  0
  -65.9800  -26.0745    4.9729 O   0  0  0  0  0  0  0  0  0  0  0  0
  -67.0450  -23.7365    1.0299 O   0  0  0  0  0  0  0  0  0  0  0  0
  -63.6040  -27.2315    5.0569 O   0  0  0  0  0  0  0  0  0  0  0  0
  -64.3430  -25.9565    3.2119 C   0  0  0  0  0  0  0  0  0  0  0  0
  -63.9790  -25.4975    1.9389 C   0  0  0  0  0  0  0  0  0  0  0  0
  -61.8500  -26.5015    2.1159 C   0  0  0  0  0  0  0  0  0  0  0  0
  -64.8960  -24.7455    1.1969 C   0  0  0  0  0  0  0  0  0  0  0  0
  -63.3780  -26.7525    3.9469 C   0  0  0  0  0  0  0  0  0  0  0  0
  -65.6070  -25.6535    3.7359 C   0  0  0  0  0  0  0  0  0  0  0  0
  -62.1160  -27.0015    3.3549 C   0  0  0  0  0  0  0  0  0  0  0  0
  -60.5340  -26.7435    1.4679 C   0  0  0  0  0  0  0  0  0  0  0  0
  -66.1390  -24.4675    1.7359 C   0  0  0  0  0  0  0  0  0  0  0  0
  -66.4910  -24.9195    2.9959 C   0  0  0  0  0  0  0  0  0  0  0  0
  -59.3220  -26.5295    2.1119 C   0  0  0  0  0  0  0  0  0  0  0  0
  -60.5080  -27.2045    0.1609 C   0  0  0  0  0  0  0  0  0  0  0  0
  -58.1320  -26.7685    1.4689 C   0  0  0  0  0  0  0  0  0  0  0  0
  -59.3180  -27.4445   -0.4821 C   0  0  0  0  0  0  0  0  0  0  0  0
  -58.1270  -27.2275    0.1709 C   0  0  0  0  0  0  0  0  0  0  0  0
  -64.8700  -25.0655   -1.2161 C   0  0  0  0  0  0  0  0  0  0  0  0
  -66.4260  -25.3455    5.4989 H   0  0  0  0  0  0  0  0  0  0  0  0
  -66.8960  -22.7475    1.1329 H   0  0  0  0  0  0  0  0  0  0  0  0
  -61.4280  -27.5385    3.8419 H   0  0  0  0  0  0  0  0  0  0  0  0
  -67.3950  -24.7075    3.3659 H   0  0  0  0  0  0  0  0  0  0  0  0
  -59.3160  -26.1965    3.0549 H   0  0  0  0  0  0  0  0  0  0  0  0
  -61.3690  -27.3645   -0.3221 H   0  0  0  0  0  0  0  0  0  0  0  0
  -57.2670  -26.6105    1.9449 H   0  0  0  0  0  0  0  0  0  0  0  0
  -59.3180  -27.7765   -1.4251 H   0  0  0  0  0  0  0  0  0  0  0  0
  -57.2590  -27.4015   -0.2961 H   0  0  0  0  0  0  0  0  0  0  0  0
  -65.1960  -25.9675   -0.9321 H   0  0  0  0  0  0  0  0  0  0  0  0
  -65.5500  -24.6325   -1.8071 H   0  0  0  0  0  0  0  0  0  0  0  0
  -64.0120  -25.1595   -1.7201 H   0  0  0  0  0  0  0  0  0  0  0  0
  1  7  1  0
  1  8  1  0
  2  9  1  0
  2 21  1  0
  3 11  1  0
  4 14  1  0
  5 10  2  0
  6  7  2  0
  6 10  1  0
  6 11  1  0
  7  9  1  0
  8 12  2  0
  8 13  1  0
  9 14  2  0
 10 12  1  0
 11 15  2  0
 13 16  2  0
 13 17  1  0
 14 15  1  0
 16 18  1  0
 17 19  2  0
 18 20  2  0
 19 20  1  0
  3 22  1  0
  4 23  1  0
 12 24  1  0
 15 25  1  0
 16 26  1  0
 17 27  1  0
 18 28  1  0
 19 29  1  0
 20 30  1  0
 21 31  1  0
 21 32  1  0
 21 33  1  0
M  END
>  <BioMolTech Lead Finder dG>
-7.157

>  <BioMolTech Lead Finder VSscore>
-8.496

>  <BioMolTech Lead Finder Rank score>
-11.173

>  <BioMolTech Lead Finder LE>
-0.341

>  <BioMolTech Lead Finder Structure Name>
/var/folders/xd/y7jw_xv579q2qqq7kks92xd80000gn/T/LeadFinder_33146_1/Ligand_1.sdf

>  <BioMolTech Lead Finder SDF id>
0

>  <BioMolTech Lead Finder Pose rank>
0

>  <BioMolTech Lead Finder version>
2001 1, 19 January 2019

>  <PUBCHEM_COMPOUND_CID>
5281703

>  <PUBCHEM_COMPOUND_CANONICALIZED>
1

>  <PUBCHEM_CACTVS_COMPLEXITY>
426

>  <PUBCHEM_CACTVS_HBOND_ACCEPTOR>
5

>  <PUBCHEM_CACTVS_HBOND_DONOR>
2

>  <PUBCHEM_CACTVS_ROTATABLE_BOND>
2

>  <PUBCHEM_CACTVS_SUBSKEYS>
AAADccB4OAAAAAAAAAAAAAAAAAAAAAAAAAAwYIAAAAAAAACBQAAAGgAACAAADASAmAIyBoAABgCIAqBSAAACCAAkIAAIiAEGiMgNJzaGNRqCeWOl4BULuQfK7LzOIQABCAAIQABCAAIQABCAAAAAAAAAAA==

>  <PUBCHEM_IUPAC_OPENEYE_NAME>
5,7-dihydroxy-8-methoxy-2-phenyl-chromen-4-one

>  <PUBCHEM_IUPAC_CAS_NAME>
5,7-dihydroxy-8-methoxy-2-phenyl-1-benzopyran-4-one

>  <PUBCHEM_IUPAC_NAME_MARKUP>
5,7-dihydroxy-8-methoxy-2-phenylchromen-4-one

>  <PUBCHEM_IUPAC_NAME>
5,7-dihydroxy-8-methoxy-2-phenylchromen-4-one

>  <PUBCHEM_IUPAC_SYSTEMATIC_NAME>
8-methoxy-5,7-bis(oxidanyl)-2-phenyl-chromen-4-one

>  <PUBCHEM_IUPAC_TRADITIONAL_NAME>
5,7-dihydroxy-8-methoxy-2-phenyl-chromone

>  <PUBCHEM_IUPAC_INCHI>
InChI=1S/C16H12O5/c1-20-15-12(19)7-10(17)14-11(18)8-13(21-16(14)15)9-5-3-2-4-6-9/h2-8,17,19H,1H3

>  <PUBCHEM_IUPAC_INCHIKEY>
XLTFNNCXVBYBSX-UHFFFAOYSA-N

>  <PUBCHEM_XLOGP3_AA>
3

>  <PUBCHEM_EXACT_MASS>
284.068473

>  <PUBCHEM_MOLECULAR_FORMULA>
C16H12O5

>  <PUBCHEM_MOLECULAR_WEIGHT>
284.26

>  <PUBCHEM_OPENEYE_CAN_SMILES>
COC1=C(C=C(C2=C1OC(=CC2=O)C3=CC=CC=C3)O)O

>  <PUBCHEM_OPENEYE_ISO_SMILES>
COC1=C(C=C(C2=C1OC(=CC2=O)C3=CC=CC=C3)O)O

>  <PUBCHEM_CACTVS_TPSA>
76

>  <PUBCHEM_MONOISOTOPIC_WEIGHT>
284.068473

>  <PUBCHEM_TOTAL_CHARGE>
0

>  <PUBCHEM_HEAVY_ATOM_COUNT>
21

>  <PUBCHEM_ATOM_DEF_STEREO_COUNT>
0

>  <PUBCHEM_ATOM_UDEF_STEREO_COUNT>
0

>  <PUBCHEM_BOND_DEF_STEREO_COUNT>
0

>  <PUBCHEM_BOND_UDEF_STEREO_COUNT>
0

>  <PUBCHEM_ISOTOPIC_ATOM_COUNT>
0

>  <PUBCHEM_COMPONENT_COUNT>
1

>  <PUBCHEM_CACTVS_TAUTO_COUNT>
-1

>  <PUBCHEM_COORDINATE_TYPE>
1
5
255

>  <PUBCHEM_BONDANNOTATIONS>
1  7  8
1  8  8
10  12  8
11  15  8
13  16  8
13  17  8
14  15  8
16  18  8
17  19  8
18  20  8
19  20  8
6  10  8
6  11  8
6  7  8
7  9  8
8  12  8
9  14  8

>  <LF dG>
-7.157

>  <LF VSscore>
-8.496

>  <LF Rank Score>
-11.173

>  <LF LE>
-0.341

>  <Preferred Pose_cresset>
true

>  <Favorite_cresset>
false

>  <Protein_cresset>
6M2N_Dimer_P

>  <MW_cresset>
284.3

>  <#Atoms_cresset>
21

>  <SlogP_cresset>
2.6

>  <TPSA_cresset>
76

>  <Flexibility_cresset>
1.7

>  <#RB_cresset>
4

>  <Rof5_cresset>
0

>  <Filename_cresset>
Wogonin.sdf

>  <Confs_cresset>
0

>  <Poses_cresset>
10

>  <_cresset_fieldpoints>
    -5     -62.115986     -24.232536       0.075799     -5.6889
    -5     -68.239532     -24.672932      -0.136658     -7.4136
    -5     -65.255356     -27.584530       5.899422    -23.1007
    -5     -59.204140     -29.815948       1.636092     -2.3995
    -6     -57.628643     -25.817984       4.418585      3.0452
    -6     -66.757309     -21.123997       1.995782      8.5928
    -6     -67.710052     -23.926914       5.570868      9.3963
    -6     -63.189453     -27.576332      -1.297080      4.2693
    -6     -59.563820     -26.578907       5.012782      3.1751
    -6     -55.163265     -27.004749       0.899773      2.7704
    -6     -57.326477     -28.223598      -2.622128      2.7759
    -7     -63.826065     -22.600931       3.767405     -1.8501
    -7     -64.245544     -25.379910       6.698276     -1.7661
    -7     -68.445488     -26.527649       5.306765     -1.2590
    -7     -65.673111     -28.703857       4.946455     -1.6297
    -7     -69.056610     -22.819527       2.146120     -1.2772
    -7     -68.107437     -25.095558      -0.777998     -1.6651
    -7     -66.040924     -27.900215       0.807891     -2.2255
    -7     -61.426113     -24.025848       3.639208     -2.5318
    -7     -60.582420     -29.775364       2.596890     -1.9996
    -7     -54.801598     -27.032810       0.843674     -0.9674
    -7     -59.266659     -27.764706       5.140341     -1.3836
    -7     -57.059113     -28.314655      -2.864200     -0.9672
    -7     -63.743683     -28.084372       0.145981     -2.8800
    -7     -66.355164     -22.167892      -0.940788     -1.7926
    -7     -61.782387     -24.131166      -0.217462     -3.0004
    -8     -59.325607     -26.986486       0.820670      7.1503
    -8     -65.239609     -25.221546       2.496007      6.6002
    -8     -63.161415     -26.353374       2.971724      4.9834
    -8     -65.003746     -25.594128      -1.905766      2.5188
    -8     -60.697216     -26.784641       2.407269      5.2256

$$$$
Untitled
  xed2sdf_05210316543D
 
 33 35  0  0  0  0  0  0  0  0999 V2000
  -58.7140  -19.9997   -3.6889 O   0  0  0  0  0  0  0  0  0  0  0  0
  -57.3480  -22.3397   -2.8979 O   0  0  0  0  0  0  0  0  0  0  0  0
  -54.9350  -18.9667   -6.5079 O   0  0  0  0  0  0  0  0  0  0  0  0
  -54.9330  -22.8827   -3.8979 O   0  0  0  0  0  0  0  0  0  0  0  0
  -57.1090  -17.4647   -6.3869 O   0  0  0  0  0  0  0  0  0  0  0  0
  -56.8490  -19.4457   -5.1269 C   0  0  0  0  0  0  0  0  0  0  0  0
  -57.4810  -20.2837   -4.2009 C   0  0  0  0  0  0  0  0  0  0  0  0
  -59.3590  -18.8577   -4.0939 C   0  0  0  0  0  0  0  0  0  0  0  0
  -56.8320  -21.4517   -3.7839 C   0  0  0  0  0  0  0  0  0  0  0  0
  -57.5560  -18.2537   -5.5559 C   0  0  0  0  0  0  0  0  0  0  0  0
  -55.5770  -19.7697   -5.6199 C   0  0  0  0  0  0  0  0  0  0  0  0
  -58.8300  -17.9877   -4.9989 C   0  0  0  0  0  0  0  0  0  0  0  0
  -60.6940  -18.6057   -3.4899 C   0  0  0  0  0  0  0  0  0  0  0  0
  -55.5810  -21.7517   -4.2919 C   0  0  0  0  0  0  0  0  0  0  0  0
  -54.9600  -20.9157   -5.2029 C   0  0  0  0  0  0  0  0  0  0  0  0
  -60.9230  -17.6127   -2.5469 C   0  0  0  0  0  0  0  0  0  0  0  0
  -61.7640  -19.3957   -3.8829 C   0  0  0  0  0  0  0  0  0  0  0  0
  -62.1770  -17.4207   -2.0199 C   0  0  0  0  0  0  0  0  0  0  0  0
  -63.0170  -19.2027   -3.3559 C   0  0  0  0  0  0  0  0  0  0  0  0
  -63.2270  -18.2137   -2.4219 C   0  0  0  0  0  0  0  0  0  0  0  0
  -58.5520  -23.0727   -3.1979 C   0  0  0  0  0  0  0  0  0  0  0  0
  -54.0060  -19.2887   -6.7029 H   0  0  0  0  0  0  0  0  0  0  0  0
  -55.5280  -23.6917   -3.9379 H   0  0  0  0  0  0  0  0  0  0  0  0
  -59.3380  -17.1687   -5.2679 H   0  0  0  0  0  0  0  0  0  0  0  0
  -54.0550  -21.1507   -5.5579 H   0  0  0  0  0  0  0  0  0  0  0  0
  -60.1670  -17.0317   -2.2479 H   0  0  0  0  0  0  0  0  0  0  0  0
  -61.6200  -20.1177   -4.5609 H   0  0  0  0  0  0  0  0  0  0  0  0
  -62.3270  -16.7007   -1.3409 H   0  0  0  0  0  0  0  0  0  0  0  0
  -63.7780  -19.7817   -3.6509 H   0  0  0  0  0  0  0  0  0  0  0  0
  -64.1390  -18.0717   -2.0379 H   0  0  0  0  0  0  0  0  0  0  0  0
  -58.8780  -22.8037   -4.1049 H   0  0  0  0  0  0  0  0  0  0  0  0
  -58.3620  -24.0537   -3.1859 H   0  0  0  0  0  0  0  0  0  0  0  0
  -59.2500  -22.8667   -2.5129 H   0  0  0  0  0  0  0  0  0  0  0  0
  1  7  1  0
  1  8  1  0
  2  9  1  0
  2 21  1  0
  3 11  1  0
  4 14  1  0
  5 10  2  0
  6  7  2  0
  6 10  1  0
  6 11  1  0
  7  9  1  0
  8 12  2  0
  8 13  1  0
  9 14  2  0
 10 12  1  0
 11 15  2  0
 13 16  2  0
 13 17  1  0
 14 15  1  0
 16 18  1  0
 17 19  2  0
 18 20  2  0
 19 20  1  0
  3 22  1  0
  4 23  1  0
 12 24  1  0
 15 25  1  0
 16 26  1  0
 17 27  1  0
 18 28  1  0
 19 29  1  0
 20 30  1  0
 21 31  1  0
 21 32  1  0
 21 33  1  0
M  END
>  <BioMolTech Lead Finder dG>
-7.036

>  <BioMolTech Lead Finder VSscore>
-7.72

>  <BioMolTech Lead Finder Rank score>
-10.078

>  <BioMolTech Lead Finder LE>
-0.335

>  <BioMolTech Lead Finder Structure Name>
/var/folders/xd/y7jw_xv579q2qqq7kks92xd80000gn/T/LeadFinder_32214_1/Ligand_1.sdf

>  <BioMolTech Lead Finder SDF id>
0

>  <BioMolTech Lead Finder Pose rank>
0

>  <BioMolTech Lead Finder version>
2001 1, 19 January 2019

>  <PUBCHEM_COMPOUND_CID>
5281703

>  <PUBCHEM_COMPOUND_CANONICALIZED>
1

>  <PUBCHEM_CACTVS_COMPLEXITY>
426

>  <PUBCHEM_CACTVS_HBOND_ACCEPTOR>
5

>  <PUBCHEM_CACTVS_HBOND_DONOR>
2

>  <PUBCHEM_CACTVS_ROTATABLE_BOND>
2

>  <PUBCHEM_CACTVS_SUBSKEYS>
AAADccB4OAAAAAAAAAAAAAAAAAAAAAAAAAAwYIAAAAAAAACBQAAAGgAACAAADASAmAIyBoAABgCIAqBSAAACCAAkIAAIiAEGiMgNJzaGNRqCeWOl4BULuQfK7LzOIQABCAAIQABCAAIQABCAAAAAAAAAAA==

>  <PUBCHEM_IUPAC_OPENEYE_NAME>
5,7-dihydroxy-8-methoxy-2-phenyl-chromen-4-one

>  <PUBCHEM_IUPAC_CAS_NAME>
5,7-dihydroxy-8-methoxy-2-phenyl-1-benzopyran-4-one

>  <PUBCHEM_IUPAC_NAME_MARKUP>
5,7-dihydroxy-8-methoxy-2-phenylchromen-4-one

>  <PUBCHEM_IUPAC_NAME>
5,7-dihydroxy-8-methoxy-2-phenylchromen-4-one

>  <PUBCHEM_IUPAC_SYSTEMATIC_NAME>
8-methoxy-5,7-bis(oxidanyl)-2-phenyl-chromen-4-one

>  <PUBCHEM_IUPAC_TRADITIONAL_NAME>
5,7-dihydroxy-8-methoxy-2-phenyl-chromone

>  <PUBCHEM_IUPAC_INCHI>
InChI=1S/C16H12O5/c1-20-15-12(19)7-10(17)14-11(18)8-13(21-16(14)15)9-5-3-2-4-6-9/h2-8,17,19H,1H3

>  <PUBCHEM_IUPAC_INCHIKEY>
XLTFNNCXVBYBSX-UHFFFAOYSA-N

>  <PUBCHEM_XLOGP3_AA>
3

>  <PUBCHEM_EXACT_MASS>
284.068473

>  <PUBCHEM_MOLECULAR_FORMULA>
C16H12O5

>  <PUBCHEM_MOLECULAR_WEIGHT>
284.26

>  <PUBCHEM_OPENEYE_CAN_SMILES>
COC1=C(C=C(C2=C1OC(=CC2=O)C3=CC=CC=C3)O)O

>  <PUBCHEM_OPENEYE_ISO_SMILES>
COC1=C(C=C(C2=C1OC(=CC2=O)C3=CC=CC=C3)O)O

>  <PUBCHEM_CACTVS_TPSA>
76

>  <PUBCHEM_MONOISOTOPIC_WEIGHT>
284.068473

>  <PUBCHEM_TOTAL_CHARGE>
0

>  <PUBCHEM_HEAVY_ATOM_COUNT>
21

>  <PUBCHEM_ATOM_DEF_STEREO_COUNT>
0

>  <PUBCHEM_ATOM_UDEF_STEREO_COUNT>
0

>  <PUBCHEM_BOND_DEF_STEREO_COUNT>
0

>  <PUBCHEM_BOND_UDEF_STEREO_COUNT>
0

>  <PUBCHEM_ISOTOPIC_ATOM_COUNT>
0

>  <PUBCHEM_COMPONENT_COUNT>
1

>  <PUBCHEM_CACTVS_TAUTO_COUNT>
-1

>  <PUBCHEM_COORDINATE_TYPE>
1
5
255

>  <PUBCHEM_BONDANNOTATIONS>
1  7  8
1  8  8
10  12  8
11  15  8
13  16  8
13  17  8
14  15  8
16  18  8
17  19  8
18  20  8
19  20  8
6  10  8
6  11  8
6  7  8
7  9  8
8  12  8
9  14  8

>  <LF dG>
-7.036

>  <LF VSscore>
-7.72

>  <LF Rank Score>
-10.078

>  <LF LE>
-0.335

>  <Preferred Pose_cresset>
true

>  <Favorite_cresset>
false

>  <Protein_cresset>
6M2N_Dimer_P

>  <MW_cresset>
284.3

>  <#Atoms_cresset>
21

>  <SlogP_cresset>
2.6

>  <TPSA_cresset>
76

>  <Flexibility_cresset>
1.7

>  <#RB_cresset>
4

>  <Rof5_cresset>
0

>  <Filename_cresset>
Wogonin.sdf

>  <Confs_cresset>
0

>  <Poses_cresset>
10

>  <_cresset_fieldpoints>
    -5     -58.809929     -20.355696      -1.379758     -3.8367
    -5     -55.564346     -17.298244      -7.421638    -14.4935
    -5     -62.715790     -16.448805      -5.096335     -2.6963
    -5     -54.610683     -22.386547      -1.698492     -4.7994
    -6     -64.670395     -16.402027      -0.372732      3.0314
    -6     -60.736725     -15.208324      -0.489650      2.7099
    -6     -52.546467     -20.290348      -6.936885      5.8844
    -6     -60.371944     -21.667065      -5.479494      4.8378
    -6     -66.022079     -19.650482      -2.795402      3.2768
    -6     -56.587639     -24.914965      -4.677232      6.8591
    -7     -55.587807     -24.035599      -1.691560     -1.7889
    -7     -56.449364     -18.614536      -8.551934     -1.6486
    -7     -54.834942     -16.579809      -5.660582     -1.6722
    -7     -58.167236     -22.314754      -6.738871     -2.2102
    -7     -55.101013     -18.802580      -2.247180     -1.8470
    -7     -57.441010     -17.526136      -2.272435     -2.6016
    -7     -59.149582     -20.443571      -1.282948     -3.0243
    -7     -60.481228     -14.615531      -1.071075     -0.9898
    -7     -66.335030     -19.553650      -2.710104     -0.9671
    -7     -61.911102     -16.402275      -5.620165     -2.0446
    -7     -64.745445     -16.147285      -0.194649     -0.9674
    -7     -59.884155     -21.163326      -6.065409     -2.9121
    -7     -61.660225     -22.635689      -3.952032     -1.7070
    -8     -56.209911     -20.580780      -4.725260      6.5989
    -8     -61.964325     -18.407715      -2.952806      7.1513
    -8     -57.972851     -18.936531      -4.835778      4.9855
    -8     -59.288445     -23.503300      -3.420267      2.5225

$$$$
W_Wogonoside_D
  xed2sdf_05210316543D
 
 52 55  0  0  1  0  0  0  0  0999 V2000
  -60.0396  -22.3179    0.3408 O   0  0  0  0  0  0  0  0  0  0  0  0
  -59.8556  -20.7989   -1.4932 O   0  0  0  0  0  0  0  0  0  0  0  0
  -57.7776  -19.7839    2.8008 O   0  0  0  0  0  0  0  0  0  0  0  0
  -57.8696  -19.3359   -0.0532 O   0  0  0  0  0  0  0  0  0  0  0  0
  -58.4116  -22.4599    3.6668 O   0  0  0  0  0  0  0  0  0  0  0  0
  -61.4586  -23.4719    2.5308 O   0  5  0  0  0  0  0  0  0  0  0  0
  -59.9596  -25.1449    2.1178 O   0  0  0  0  0  0  0  0  0  0  0  0
  -57.3966  -22.1009   -5.2822 O   0  0  0  0  0  0  0  0  0  0  0  0
  -58.9686  -22.6999   -3.1552 O   0  0  0  0  0  0  0  0  0  0  0  0
  -57.7686  -17.4489   -4.1402 O   0  0  0  0  0  0  0  0  0  0  0  0
  -56.4436  -18.2719   -6.1802 O   0  0  0  0  0  0  0  0  0  0  0  0
  -58.1006  -20.8269    1.8688 C   0  0  0  0  0  0  0  0  0  0  0  0
  -58.7686  -20.2349    0.6118 C   0  0  0  0  0  0  0  0  0  0  0  0
  -59.0386  -21.8549    2.5268 C   0  0  0  0  0  0  0  0  0  0  0  0
  -59.1896  -21.3709   -0.3442 C   0  0  0  0  0  0  0  0  0  0  0  0
  -59.3976  -22.9239    1.4798 C   0  0  0  0  0  0  0  0  0  0  0  0
  -60.3426  -23.9229    2.0928 C   0  0  0  0  0  0  0  0  0  0  0  0
  -59.1246  -20.4299   -2.5522 C   0  0  0  0  0  0  0  0  0  0  0  0
  -58.6616  -21.4119   -3.4112 C   0  0  0  0  0  0  0  0  0  0  0  0
  -58.8236  -19.0959   -2.8132 C   0  0  0  0  0  0  0  0  0  0  0  0
  -57.8636  -21.0869   -4.5022 C   0  0  0  0  0  0  0  0  0  0  0  0
  -57.5646  -19.7479   -4.7462 C   0  0  0  0  0  0  0  0  0  0  0  0
  -58.0586  -18.7529   -3.8962 C   0  0  0  0  0  0  0  0  0  0  0  0
  -56.7256  -19.4329   -5.8832 C   0  0  0  0  0  0  0  0  0  0  0  0
  -56.5466  -21.7919   -6.3172 C   0  0  0  0  0  0  0  0  0  0  0  0
  -56.2116  -20.5109   -6.6492 C   0  0  0  0  0  0  0  0  0  0  0  0
  -55.9956  -22.9439   -7.0762 C   0  0  0  0  0  0  0  0  0  0  0  0
  -60.1786  -23.2199   -3.7422 C   0  0  0  0  0  0  0  0  0  0  0  0
  -56.3236  -24.2269   -6.6642 C   0  0  0  0  0  0  0  0  0  0  0  0
  -55.1586  -22.8009   -8.1752 C   0  0  0  0  0  0  0  0  0  0  0  0
  -55.8366  -25.3289   -7.3232 C   0  0  0  0  0  0  0  0  0  0  0  0
  -54.6716  -23.9029   -8.8342 C   0  0  0  0  0  0  0  0  0  0  0  0
  -55.0076  -25.1689   -8.4102 C   0  0  0  0  0  0  0  0  0  0  0  0
  -57.2536  -21.2849    1.5988 H   0  0  0  0  0  0  0  0  0  0  0  0
  -59.5826  -19.7249    0.8898 H   0  0  0  0  0  0  0  0  0  0  0  0
  -59.8686  -21.3969    2.8458 H   0  0  0  0  0  0  0  0  0  0  0  0
  -58.3796  -21.8679   -0.6572 H   0  0  0  0  0  0  0  0  0  0  0  0
  -58.5576  -23.3759    1.1818 H   0  0  0  0  0  0  0  0  0  0  0  0
  -58.0716  -18.8839    2.4588 H   0  0  0  0  0  0  0  0  0  0  0  0
  -57.1816  -19.8369   -0.5892 H   0  0  0  0  0  0  0  0  0  0  0  0
  -57.6366  -21.9079    3.9938 H   0  0  0  0  0  0  0  0  0  0  0  0
  -58.4446  -16.8359   -3.7152 H   0  0  0  0  0  0  0  0  0  0  0  0
  -59.1696  -18.3819   -2.2042 H   0  0  0  0  0  0  0  0  0  0  0  0
  -55.6086  -20.3329   -7.4272 H   0  0  0  0  0  0  0  0  0  0  0  0
  -60.6196  -22.4979   -4.2742 H   0  0  0  0  0  0  0  0  0  0  0  0
  -59.9596  -23.9929   -4.3382 H   0  0  0  0  0  0  0  0  0  0  0  0
  -60.7956  -23.5319   -3.0192 H   0  0  0  0  0  0  0  0  0  0  0  0
  -56.9246  -24.3509   -5.8742 H   0  0  0  0  0  0  0  0  0  0  0  0
  -54.9096  -21.8849   -8.4902 H   0  0  0  0  0  0  0  0  0  0  0  0
  -56.0826  -26.2469   -7.0132 H   0  0  0  0  0  0  0  0  0  0  0  0
  -54.0696  -23.7859   -9.6242 H   0  0  0  0  0  0  0  0  0  0  0  0
  -54.6516  -25.9699   -8.8912 H   0  0  0  0  0  0  0  0  0  0  0  0
  1 15  1  0
  1 16  1  0
  2 18  1  0
  6 17  1  0
  7 17  2  0
  8 21  1  0
  8 25  1  0
  9 19  1  0
  9 28  1  0
 10 23  1  0
 11 24  2  0
 12  3  1  0
 12 13  1  0
 12 14  1  0
 13  4  1  0
 13 15  1  0
 14  5  1  0
 14 16  1  0
 15  2  1  0
 16 17  1  0
 18 19  2  0
 18 20  1  0
 19 21  1  0
 20 23  2  0
 21 22  2  0
 22 23  1  0
 22 24  1  0
 24 26  1  0
 25 26  2  0
 25 27  1  0
 27 29  2  0
 27 30  1  0
 29 31  1  0
 30 32  2  0
 31 33  2  0
 32 33  1  0
  3 39  1  0
  4 40  1  0
  5 41  1  0
 10 42  1  0
 12 34  1  0
 13 35  1  0
 14 36  1  0
 15 37  1  0
 16 38  1  0
 20 43  1  0
 26 44  1  0
 28 45  1  0
 28 46  1  0
 28 47  1  0
 29 48  1  0
 30 49  1  0
 31 50  1  0
 32 51  1  0
 33 52  1  0
M  CHG  1   6  -1
M  END
>  <BioMolTech Lead Finder dG>
-7.815

>  <BioMolTech Lead Finder VSscore>
-12.092

>  <BioMolTech Lead Finder Rank score>
-12.119

>  <BioMolTech Lead Finder LE>
-0.237

>  <BioMolTech Lead Finder Structure Name>
/var/folders/xd/y7jw_xv579q2qqq7kks92xd80000gn/T/LeadFinder_33149_1/Ligand_1.sdf

>  <BioMolTech Lead Finder SDF id>
0

>  <BioMolTech Lead Finder Pose rank>
0

>  <BioMolTech Lead Finder version>
2001 1, 19 January 2019

>  <PUBCHEM_COMPOUND_CID>
3084961

>  <PUBCHEM_COMPOUND_CANONICALIZED>
1

>  <PUBCHEM_CACTVS_COMPLEXITY>
763

>  <PUBCHEM_CACTVS_HBOND_ACCEPTOR>
11

>  <PUBCHEM_CACTVS_HBOND_DONOR>
5

>  <PUBCHEM_CACTVS_ROTATABLE_BOND>
5

>  <PUBCHEM_CACTVS_SUBSKEYS>
AAADceB4PAAAAAAAAAAAAAAAAAAAAAAAAAA0YIEAAAAAAACBQAAAGgAACAAADBSwmAMyDoAABgCIAqDSCAICCAAkIAAIiAFGiMgdNzaGNR6ieWKl4BUPuQfK7LzOIQABCAAIQABCAAIQABCAAAAAAAAAAA==

>  <PUBCHEM_IUPAC_OPENEYE_NAME>
(2S,3S,4S,5R,6S)-3,4,5-trihydroxy-6-(5-hydroxy-8-methoxy-4-oxo-2-phenyl-chromen-7-yl)oxy-tetrahydropyran-2-carboxylic acid

>  <PUBCHEM_IUPAC_CAS_NAME>
(2S,3S,4S,5R,6S)-3,4,5-trihydroxy-6-[(5-hydroxy-8-methoxy-4-oxo-2-phenyl-1-benzopyran-7-yl)oxy]-2-oxanecarboxylic acid

>  <PUBCHEM_IUPAC_NAME_MARKUP>
(2<I>S</I>,3<I>S</I>,4<I>S</I>,5<I>R</I>,6<I>S</I>)-3,4,5-trihydroxy-6-(5-hydroxy-8-methoxy-4-oxo-2-phenylchromen-7-yl)oxyoxane-2-carboxylic acid

>  <PUBCHEM_IUPAC_NAME>
(2S,3S,4S,5R,6S)-3,4,5-trihydroxy-6-(5-hydroxy-8-methoxy-4-oxo-2-phenylchromen-7-yl)oxyoxane-2-carboxylic acid

>  <PUBCHEM_IUPAC_SYSTEMATIC_NAME>
(2S,3S,4S,5R,6S)-6-(8-methoxy-5-oxidanyl-4-oxidanylidene-2-phenyl-chromen-7-yl)oxy-3,4,5-tris(oxidanyl)oxane-2-carboxylic acid

>  <PUBCHEM_IUPAC_TRADITIONAL_NAME>
(2S,3S,4S,5R,6S)-3,4,5-trihydroxy-6-(5-hydroxy-4-keto-8-methoxy-2-phenyl-chromen-7-yl)oxy-tetrahydropyran-2-carboxylic acid

>  <PUBCHEM_IUPAC_INCHI>
InChI=1S/C22H20O11/c1-30-18-13(32-22-17(27)15(25)16(26)20(33-22)21(28)29)8-11(24)14-10(23)7-12(31-19(14)18)9-5-3-2-4-6-9/h2-8,15-17,20,22,24-27H,1H3,(H,28,29)/t15-,16-,17+,20-,22+/m0/s1

>  <PUBCHEM_IUPAC_INCHIKEY>
LNOHXHDWGCMVCO-NTKSAMNMSA-N

>  <PUBCHEM_XLOGP3_AA>
1.4

>  <PUBCHEM_EXACT_MASS>
460.100561

>  <PUBCHEM_MOLECULAR_FORMULA>
C22H20O11

>  <PUBCHEM_MOLECULAR_WEIGHT>
460.4

>  <PUBCHEM_OPENEYE_CAN_SMILES>
COC1=C(C=C(C2=C1OC(=CC2=O)C3=CC=CC=C3)O)OC4C(C(C(C(O4)C(=O)O)O)O)O

>  <PUBCHEM_OPENEYE_ISO_SMILES>
COC1=C(C=C(C2=C1OC(=CC2=O)C3=CC=CC=C3)O)O[C@H]4[C@@H]([C@H]([C@@H]([C@H](O4)C(=O)O)O)O)O

>  <PUBCHEM_CACTVS_TPSA>
172

>  <PUBCHEM_MONOISOTOPIC_WEIGHT>
460.100561

>  <PUBCHEM_TOTAL_CHARGE>
0

>  <PUBCHEM_HEAVY_ATOM_COUNT>
33

>  <PUBCHEM_ATOM_DEF_STEREO_COUNT>
5

>  <PUBCHEM_ATOM_UDEF_STEREO_COUNT>
0

>  <PUBCHEM_BOND_DEF_STEREO_COUNT>
0

>  <PUBCHEM_BOND_UDEF_STEREO_COUNT>
0

>  <PUBCHEM_ISOTOPIC_ATOM_COUNT>
0

>  <PUBCHEM_COMPONENT_COUNT>
1

>  <PUBCHEM_CACTVS_TAUTO_COUNT>
-1

>  <PUBCHEM_COORDINATE_TYPE>
1
5
255

>  <PUBCHEM_BONDANNOTATIONS>
16  17  5
18  19  8
18  20  8
19  21  8
15  2  5
20  23  8
21  22  8
22  23  8
22  24  8
24  26  8
25  26  8
27  29  8
27  30  8
29  31  8
12  3  5
30  32  8
31  33  8
32  33  8
13  4  6
14  5  6
8  21  8
8  25  8

>  <LF dG>
-7.815

>  <LF VSscore>
-12.092

>  <LF Rank Score>
-12.119

>  <LF LE>
-0.237

>  <Preferred Pose_cresset>
true

>  <Favorite_cresset>
false

>  <Protein_cresset>
6M2N_Dimer_P

>  <MW_cresset>
459.4

>  <#Atoms_cresset>
33

>  <SlogP_cresset>
1.4

>  <TPSA_cresset>
175

>  <Flexibility_cresset>
7.6

>  <#RB_cresset>
9

>  <Rof5_cresset>
1

>  <Filename_cresset>
Wogonoside.sdf

>  <Confs_cresset>
0

>  <Poses_cresset>
10

>  <_cresset_fieldpoints>
    -5     -62.061836     -21.966145       1.142927     -8.7610
    -5     -62.298958     -24.946384       3.208221    -11.7277
    -5     -59.181438     -23.794304       4.701194    -10.4589
    -5     -56.742599     -19.507118       4.314500     -4.8784
    -5     -56.594681     -16.542048      -5.481508    -14.0016
    -5     -57.588226     -17.503696      -0.100846     -4.0980
    -5     -57.863037     -24.071484      -9.542467     -3.2749
    -5     -53.157242     -24.148077      -5.923135     -3.3344
    -5     -58.309135     -26.047087       1.810923     -6.7039
    -5     -61.358635     -25.994759       2.960719    -11.5306
    -6     -59.411724     -17.735718       2.318209      4.4212
    -6     -56.214252     -21.294468      -0.644873      9.4579
    -6     -59.629639     -16.179871      -2.562991      5.4717
    -6     -59.568573     -22.828373      -6.647077      1.8170
    -6     -58.476784     -25.906174      -5.258888      2.3440
    -6     -53.495377     -21.469814     -10.340648      2.6910
    -6     -55.167641     -28.256552      -8.284361      2.4791
    -6     -53.157970     -25.711243     -10.866554      2.6073
    -7     -62.064323     -21.165524       1.170766     -2.4879
    -7     -60.197731     -18.777390       3.362120     -1.7215
    -7     -58.524666     -19.971977       5.076479     -1.5251
    -7     -56.027863     -18.471275       1.157247     -1.7331
    -7     -58.670631     -17.104385      -0.116932     -1.8736
    -7     -55.850769     -20.483870       4.114799     -1.2632
    -7     -56.363945     -23.626562       2.801974     -1.7944
    -7     -55.964653     -21.409834      -1.507617     -2.8631
    -7     -56.352680     -17.796150      -1.054532     -1.9162
    -7     -58.588142     -24.517677      -1.199309     -2.5516
    -7     -60.463535     -23.254498       5.004100     -1.5004
    -7     -57.696449     -24.770905       3.517627     -1.7116
    -7     -55.148338     -17.269833      -4.222961     -1.6645
    -7     -60.987404     -20.144514      -5.523947     -2.2726
    -7     -58.465466     -16.743923      -6.434561     -1.7048
    -7     -58.170853     -23.834721      -9.577337     -1.7867
    -7     -62.025215     -22.614014      -0.900761     -2.4379
    -7     -54.651398     -21.698034      -4.102340     -2.4933
    -7     -55.217255     -28.553955      -8.195353     -0.9672
    -7     -59.387894     -22.692326      -6.878833     -2.9481
    -7     -54.870590     -18.018646      -8.123974     -1.2617
    -7     -56.391220     -23.828609      -3.422770     -2.6741
    -7     -53.013611     -23.868887      -5.659486     -1.7922
    -7     -52.963715     -25.843723     -11.041875     -0.9677
    -8     -58.741665     -21.456810       1.269452      5.1528
    -8     -58.340462     -20.063965      -3.663240      6.6182
    -8     -55.499977     -24.057404      -7.746544      7.1503
    -8     -56.961983     -20.452759      -5.613941      5.0128
    -8     -60.918705     -23.500942      -4.119416      2.5255
    -8     -55.794075     -21.885014      -7.282284      5.4313

$$$$
Untitled
  xed2sdf_05210316543D
 
 52 55  0  0  1  0  0  0  0  0999 V2000
  -57.7687  -19.6673   -0.5187 O   0  0  0  0  0  0  0  0  0  0  0  0
  -59.4707  -20.7193   -1.8237 O   0  0  0  0  0  0  0  0  0  0  0  0
  -58.8457  -21.8953    2.8683 O   0  0  0  0  0  0  0  0  0  0  0  0
  -60.5867  -21.8233    0.5623 O   0  0  0  0  0  0  0  0  0  0  0  0
  -56.9947  -19.6973    3.1053 O   0  0  0  0  0  0  0  0  0  0  0  0
  -55.0807  -19.3333    0.2103 O   0  5  0  0  0  0  0  0  0  0  0  0
  -55.8487  -17.3263    0.9853 O   0  0  0  0  0  0  0  0  0  0  0  0
  -57.0587  -21.9383   -5.6707 O   0  0  0  0  0  0  0  0  0  0  0  0
  -58.5747  -22.5873   -3.5177 O   0  0  0  0  0  0  0  0  0  0  0  0
  -57.5117  -17.3043   -4.4847 O   0  0  0  0  0  0  0  0  0  0  0  0
  -56.2087  -18.0823   -6.5567 O   0  0  0  0  0  0  0  0  0  0  0  0
  -58.8077  -20.8273    1.9093 C   0  0  0  0  0  0  0  0  0  0  0  0
  -59.2367  -21.3393    0.5203 C   0  0  0  0  0  0  0  0  0  0  0  0
  -57.3907  -20.2313    1.8343 C   0  0  0  0  0  0  0  0  0  0  0  0
  -59.1107  -20.2063   -0.5207 C   0  0  0  0  0  0  0  0  0  0  0  0
  -57.3847  -19.1283    0.7603 C   0  0  0  0  0  0  0  0  0  0  0  0
  -55.9977  -18.5523    0.6463 C   0  0  0  0  0  0  0  0  0  0  0  0
  -58.7687  -20.3263   -2.8937 C   0  0  0  0  0  0  0  0  0  0  0  0
  -58.3017  -21.2913   -3.7697 C   0  0  0  0  0  0  0  0  0  0  0  0
  -58.5027  -18.9843   -3.1497 C   0  0  0  0  0  0  0  0  0  0  0  0
  -57.5337  -20.9403   -4.8727 C   0  0  0  0  0  0  0  0  0  0  0  0
  -57.2687  -19.5933   -5.1117 C   0  0  0  0  0  0  0  0  0  0  0  0
  -57.7677  -18.6163   -4.2447 C   0  0  0  0  0  0  0  0  0  0  0  0
  -56.4587  -19.2523   -6.2637 C   0  0  0  0  0  0  0  0  0  0  0  0
  -56.2377  -21.6023   -6.7197 C   0  0  0  0  0  0  0  0  0  0  0  0
  -55.9377  -20.3113   -7.0477 C   0  0  0  0  0  0  0  0  0  0  0  0
  -55.6767  -22.7363   -7.4987 C   0  0  0  0  0  0  0  0  0  0  0  0
  -59.8587  -23.0873   -3.9447 C   0  0  0  0  0  0  0  0  0  0  0  0
  -56.0057  -24.0283   -7.1177 C   0  0  0  0  0  0  0  0  0  0  0  0
  -54.8297  -22.5673   -8.5857 C   0  0  0  0  0  0  0  0  0  0  0  0
  -55.5087  -25.1153   -7.7957 C   0  0  0  0  0  0  0  0  0  0  0  0
  -54.3327  -23.6533   -9.2637 C   0  0  0  0  0  0  0  0  0  0  0  0
  -54.6707  -24.9293   -8.8717 C   0  0  0  0  0  0  0  0  0  0  0  0
  -59.4457  -20.1153    2.2023 H   0  0  0  0  0  0  0  0  0  0  0  0
  -58.6357  -22.0933    0.2543 H   0  0  0  0  0  0  0  0  0  0  0  0
  -56.7367  -20.9473    1.5903 H   0  0  0  0  0  0  0  0  0  0  0  0
  -59.7327  -19.4603   -0.2847 H   0  0  0  0  0  0  0  0  0  0  0  0
  -58.0357  -18.4183    1.0273 H   0  0  0  0  0  0  0  0  0  0  0  0
  -58.0767  -21.8343    3.5133 H   0  0  0  0  0  0  0  0  0  0  0  0
  -60.8747  -22.1843   -0.3307 H   0  0  0  0  0  0  0  0  0  0  0  0
  -57.3507  -18.7653    3.2373 H   0  0  0  0  0  0  0  0  0  0  0  0
  -58.2167  -16.7113   -4.0797 H   0  0  0  0  0  0  0  0  0  0  0  0
  -58.8517  -18.2823   -2.5287 H   0  0  0  0  0  0  0  0  0  0  0  0
  -55.3537  -20.1153   -7.8357 H   0  0  0  0  0  0  0  0  0  0  0  0
  -60.3667  -22.3473   -4.3847 H   0  0  0  0  0  0  0  0  0  0  0  0
  -59.7297  -23.8383   -4.5927 H   0  0  0  0  0  0  0  0  0  0  0  0
  -60.3687  -23.4243   -3.1537 H   0  0  0  0  0  0  0  0  0  0  0  0
  -56.6137  -24.1723   -6.3367 H   0  0  0  0  0  0  0  0  0  0  0  0
  -54.5787  -21.6443   -8.8777 H   0  0  0  0  0  0  0  0  0  0  0  0
  -55.7567  -26.0403   -7.5087 H   0  0  0  0  0  0  0  0  0  0  0  0
  -53.7237  -23.5173  -10.0457 H   0  0  0  0  0  0  0  0  0  0  0  0
  -54.3077  -25.7183   -9.3667 H   0  0  0  0  0  0  0  0  0  0  0  0
  1 15  1  0
  1 16  1  0
  2 18  1  0
  6 17  1  0
  7 17  2  0
  8 21  1  0
  8 25  1  0
  9 19  1  0
  9 28  1  0
 10 23  1  0
 11 24  2  0
 12  3  1  0
 12 13  1  0
 12 14  1  0
 13  4  1  0
 13 15  1  0
 14  5  1  0
 14 16  1  0
 15  2  1  0
 16 17  1  0
 18 19  2  0
 18 20  1  0
 19 21  1  0
 20 23  2  0
 21 22  2  0
 22 23  1  0
 22 24  1  0
 24 26  1  0
 25 26  2  0
 25 27  1  0
 27 29  2  0
 27 30  1  0
 29 31  1  0
 30 32  2  0
 31 33  2  0
 32 33  1  0
  3 39  1  0
  4 40  1  0
  5 41  1  0
 10 42  1  0
 12 34  1  0
 13 35  1  0
 14 36  1  0
 15 37  1  0
 16 38  1  0
 20 43  1  0
 26 44  1  0
 28 45  1  0
 28 46  1  0
 28 47  1  0
 29 48  1  0
 30 49  1  0
 31 50  1  0
 32 51  1  0
 33 52  1  0
M  CHG  1   6  -1
M  END
>  <BioMolTech Lead Finder dG>
-8.327

>  <BioMolTech Lead Finder VSscore>
-12.252

>  <BioMolTech Lead Finder Rank score>
-11.738

>  <BioMolTech Lead Finder LE>
-0.252

>  <BioMolTech Lead Finder Structure Name>
/var/folders/xd/y7jw_xv579q2qqq7kks92xd80000gn/T/LeadFinder_32217_1/Ligand_1.sdf

>  <BioMolTech Lead Finder SDF id>
0

>  <BioMolTech Lead Finder Pose rank>
0

>  <BioMolTech Lead Finder version>
2001 1, 19 January 2019

>  <PUBCHEM_COMPOUND_CID>
3084961

>  <PUBCHEM_COMPOUND_CANONICALIZED>
1

>  <PUBCHEM_CACTVS_COMPLEXITY>
763

>  <PUBCHEM_CACTVS_HBOND_ACCEPTOR>
11

>  <PUBCHEM_CACTVS_HBOND_DONOR>
5

>  <PUBCHEM_CACTVS_ROTATABLE_BOND>
5

>  <PUBCHEM_CACTVS_SUBSKEYS>
AAADceB4PAAAAAAAAAAAAAAAAAAAAAAAAAA0YIEAAAAAAACBQAAAGgAACAAADBSwmAMyDoAABgCIAqDSCAICCAAkIAAIiAFGiMgdNzaGNR6ieWKl4BUPuQfK7LzOIQABCAAIQABCAAIQABCAAAAAAAAAAA==

>  <PUBCHEM_IUPAC_OPENEYE_NAME>
(2S,3S,4S,5R,6S)-3,4,5-trihydroxy-6-(5-hydroxy-8-methoxy-4-oxo-2-phenyl-chromen-7-yl)oxy-tetrahydropyran-2-carboxylic acid

>  <PUBCHEM_IUPAC_CAS_NAME>
(2S,3S,4S,5R,6S)-3,4,5-trihydroxy-6-[(5-hydroxy-8-methoxy-4-oxo-2-phenyl-1-benzopyran-7-yl)oxy]-2-oxanecarboxylic acid

>  <PUBCHEM_IUPAC_NAME_MARKUP>
(2<I>S</I>,3<I>S</I>,4<I>S</I>,5<I>R</I>,6<I>S</I>)-3,4,5-trihydroxy-6-(5-hydroxy-8-methoxy-4-oxo-2-phenylchromen-7-yl)oxyoxane-2-carboxylic acid

>  <PUBCHEM_IUPAC_NAME>
(2S,3S,4S,5R,6S)-3,4,5-trihydroxy-6-(5-hydroxy-8-methoxy-4-oxo-2-phenylchromen-7-yl)oxyoxane-2-carboxylic acid

>  <PUBCHEM_IUPAC_SYSTEMATIC_NAME>
(2S,3S,4S,5R,6S)-6-(8-methoxy-5-oxidanyl-4-oxidanylidene-2-phenyl-chromen-7-yl)oxy-3,4,5-tris(oxidanyl)oxane-2-carboxylic acid

>  <PUBCHEM_IUPAC_TRADITIONAL_NAME>
(2S,3S,4S,5R,6S)-3,4,5-trihydroxy-6-(5-hydroxy-4-keto-8-methoxy-2-phenyl-chromen-7-yl)oxy-tetrahydropyran-2-carboxylic acid

>  <PUBCHEM_IUPAC_INCHI>
InChI=1S/C22H20O11/c1-30-18-13(32-22-17(27)15(25)16(26)20(33-22)21(28)29)8-11(24)14-10(23)7-12(31-19(14)18)9-5-3-2-4-6-9/h2-8,15-17,20,22,24-27H,1H3,(H,28,29)/t15-,16-,17+,20-,22+/m0/s1

>  <PUBCHEM_IUPAC_INCHIKEY>
LNOHXHDWGCMVCO-NTKSAMNMSA-N

>  <PUBCHEM_XLOGP3_AA>
1.4

>  <PUBCHEM_EXACT_MASS>
460.100561

>  <PUBCHEM_MOLECULAR_FORMULA>
C22H20O11

>  <PUBCHEM_MOLECULAR_WEIGHT>
460.4

>  <PUBCHEM_OPENEYE_CAN_SMILES>
COC1=C(C=C(C2=C1OC(=CC2=O)C3=CC=CC=C3)O)OC4C(C(C(C(O4)C(=O)O)O)O)O

>  <PUBCHEM_OPENEYE_ISO_SMILES>
COC1=C(C=C(C2=C1OC(=CC2=O)C3=CC=CC=C3)O)O[C@H]4[C@@H]([C@H]([C@@H]([C@H](O4)C(=O)O)O)O)O

>  <PUBCHEM_CACTVS_TPSA>
172

>  <PUBCHEM_MONOISOTOPIC_WEIGHT>
460.100561

>  <PUBCHEM_TOTAL_CHARGE>
0

>  <PUBCHEM_HEAVY_ATOM_COUNT>
33

>  <PUBCHEM_ATOM_DEF_STEREO_COUNT>
5

>  <PUBCHEM_ATOM_UDEF_STEREO_COUNT>
0

>  <PUBCHEM_BOND_DEF_STEREO_COUNT>
0

>  <PUBCHEM_BOND_UDEF_STEREO_COUNT>
0

>  <PUBCHEM_ISOTOPIC_ATOM_COUNT>
0

>  <PUBCHEM_COMPONENT_COUNT>
1

>  <PUBCHEM_CACTVS_TAUTO_COUNT>
-1

>  <PUBCHEM_COORDINATE_TYPE>
1
5
255

>  <PUBCHEM_BONDANNOTATIONS>
16  17  5
18  19  8
18  20  8
19  21  8
15  2  5
20  23  8
21  22  8
22  23  8
22  24  8
24  26  8
25  26  8
27  29  8
27  30  8
29  31  8
12  3  5
30  32  8
31  33  8
32  33  8
13  4  6
14  5  6
8  21  8
8  25  8

>  <LF dG>
-8.327

>  <LF VSscore>
-12.252

>  <LF Rank Score>
-11.738

>  <LF LE>
-0.252

>  <Preferred Pose_cresset>
true

>  <Favorite_cresset>
false

>  <Protein_cresset>
6M2N_Dimer_P

>  <MW_cresset>
459.4

>  <#Atoms_cresset>
33

>  <SlogP_cresset>
1.4

>  <TPSA_cresset>
175

>  <Flexibility_cresset>
7.6

>  <#RB_cresset>
9

>  <Rof5_cresset>
1

>  <Filename_cresset>
Wogonoside.sdf

>  <Confs_cresset>
0

>  <Poses_cresset>
10

>  <_cresset_fieldpoints>
    -5     -60.511154     -22.641876       2.291539    -20.4097
    -5     -55.241722     -20.126841       3.744290     -9.9035
    -5     -56.181885     -16.481071      -5.589211    -23.3822
    -5     -53.542191     -18.290789       0.162679    -11.6166
    -5     -53.982040     -17.129147       0.609172    -11.1156
    -5     -55.895493     -20.534056      -1.038271    -11.5914
    -5     -58.881454     -22.588139      -7.231529     -1.2329
    -5     -57.026775     -23.615574      -2.476919     -6.0684
    -5     -57.451794     -23.893429     -10.016678     -2.6352
    -5     -52.911636     -23.962524      -6.326697     -2.9915
    -6     -59.478603     -17.309269      -0.724132      7.4529
    -6     -58.969673     -17.816833       2.859002     12.1590
    -6     -56.919212     -22.622360       4.819139      4.9467
    -6     -59.477867     -16.257923      -2.713147     10.3268
    -6     -58.385056     -25.451500      -5.849794      2.8228
    -6     -61.055115     -20.507099      -5.496436      2.5682
    -6     -62.001106     -22.824316      -1.739882      8.1549
    -6     -54.076744     -19.952391      -9.736471      3.5014
    -6     -54.866516     -27.952702      -8.774357      2.6221
    -6     -52.829460     -25.338348     -11.285200      2.6655
    -7     -62.046036     -19.871700       1.057460     -1.7158
    -7     -58.482086     -20.013058       4.993862     -1.6100
    -7     -57.183521     -23.612782       2.066314     -1.7267
    -7     -56.002903     -21.488007       4.422065     -1.2713
    -7     -60.654949     -23.538618       2.381660     -1.4138
    -7     -56.052071     -21.260765      -1.218388     -3.6612
    -7     -59.382172     -17.676279       3.104559     -1.7000
    -7     -60.500900     -17.836597       1.571548     -1.8390
    -7     -57.364616     -16.603771      -1.254204     -2.2053
    -7     -55.177254     -18.093433       3.425542     -1.6129
    -7     -57.251434     -16.560930       2.810029     -1.5696
    -7     -54.263252     -21.396141      -4.581501     -2.4825
    -7     -59.174477     -16.802061      -0.666370     -2.0999
    -7     -60.715160     -20.070574      -5.796054     -2.2734
    -7     -58.269234     -16.597904      -6.759320     -1.7130
    -7     -54.867371     -17.114910      -4.600543     -1.6745
    -7     -59.100586     -22.659559      -7.118052     -2.9401
    -7     -62.007370     -21.345173      -2.123744     -2.3695
    -7     -55.920712     -23.625355      -3.895219     -2.5863
    -7     -52.711437     -23.693880      -6.069693     -1.7912
    -7     -54.893860     -28.318542      -8.745732     -0.9672
    -7     -52.645905     -25.541553     -11.528200     -0.9677
    -7     -57.826530     -23.572327     -10.042486     -1.7850
    -8     -58.463158     -20.295532       1.029988      5.1485
    -8     -58.019951     -19.928780      -4.021526      6.6003
    -8     -55.169147     -23.835079      -8.188082      7.1499
    -8     -56.665970     -20.277855      -5.993871      5.0108
    -8     -55.488754     -21.672977      -7.690557      5.4311
    -8     -60.638153     -23.364393      -4.232372      2.5245

$$$$
W_VTRRT_D
  xed2sdf_05210316543D
 
 92 97  0  0  1  0  0  0  0  0999 V2000
  -54.5743  -23.3796   -9.7136 C   0  0  0  0  0  0  0  0  0  0  0  0
  -55.2063  -22.7456   -8.6696 C   0  0  0  0  0  0  0  0  0  0  0  0
  -55.8393  -23.4796   -7.6906 C   0  0  0  0  0  0  0  0  0  0  0  0
  -55.8343  -24.8556   -7.7646 C   0  0  0  0  0  0  0  0  0  0  0  0
  -55.2023  -25.4926   -8.8086 C   0  0  0  0  0  0  0  0  0  0  0  0
  -54.5713  -24.7546   -9.7836 C   0  0  0  0  0  0  0  0  0  0  0  0
  -56.5373  -22.7756   -6.5356 C   0  0  0  0  0  0  0  0  0  0  0  0
  -55.6053  -22.3306   -5.3826 C   0  0  0  0  0  0  0  0  0  0  0  0
  -54.7093  -23.4786   -5.0006 N   0  3  0  0  0  0  0  0  0  0  0  0
  -56.3953  -21.8806   -4.1306 C   0  0  0  0  0  0  0  0  0  0  0  0
  -56.4113  -22.9236   -3.1416 O   0  0  0  0  0  0  0  0  0  0  0  0
  -57.8233  -21.4066   -4.4896 C   0  0  0  0  0  0  0  0  0  0  0  0
  -58.7913  -21.4046   -3.2836 C   0  0  0  0  0  0  0  0  0  0  0  0
  -60.2503  -21.5326   -3.7756 C   0  0  0  0  0  0  0  0  0  0  0  0
  -61.0203  -22.7586   -3.3076 C   0  0  0  0  0  0  0  0  0  0  0  0
  -62.1883  -22.6006   -2.5946 C   0  0  0  0  0  0  0  0  0  0  0  0
  -62.8923  -23.7006   -2.1626 C   0  0  0  0  0  0  0  0  0  0  0  0
  -62.4293  -24.9666   -2.4416 C   0  0  0  0  0  0  0  0  0  0  0  0
  -61.2633  -25.1296   -3.1536 C   0  0  0  0  0  0  0  0  0  0  0  0
  -60.5603  -24.0276   -3.5846 C   0  0  0  0  0  0  0  0  0  0  0  0
  -58.6303  -20.1426   -2.5436 N   0  0  0  0  0  0  0  0  0  0  0  0
  -59.1213  -20.1906   -1.1186 P   0  0  0  0  0  0  0  0  0  0  0  0
  -58.8203  -21.6066   -0.4166 O   0  0  0  0  0  0  0  0  0  0  0  0
  -60.7333  -20.1276   -1.0976 O   0  0  0  0  0  0  0  0  0  0  0  0
  -58.5443  -19.0646   -0.2996 O   0  0  0  0  0  0  0  0  0  0  0  0
  -59.9183  -22.3266    0.1634 C   0  0  0  0  0  0  0  0  0  0  0  0
  -61.4303  -19.0836   -1.6406 C   0  0  0  0  0  0  0  0  0  0  0  0
  -62.6703  -19.3246   -2.1996 C   0  0  0  0  0  0  0  0  0  0  0  0
  -63.3933  -18.2976   -2.7596 C   0  0  0  0  0  0  0  0  0  0  0  0
  -62.8833  -17.0186   -2.7646 C   0  0  0  0  0  0  0  0  0  0  0  0
  -61.6493  -16.7686   -2.2076 C   0  0  0  0  0  0  0  0  0  0  0  0
  -60.9263  -17.7956   -1.6476 C   0  0  0  0  0  0  0  0  0  0  0  0
  -59.5773  -23.8196    0.2984 C   0  0  0  0  0  0  0  0  0  0  0  0
  -60.7463  -24.6426    0.4034 O   0  0  0  0  0  0  0  0  0  0  0  0
  -60.3933  -25.8976    1.0174 C   0  0  0  0  0  0  0  0  0  0  0  0
  -59.0993  -25.6176    1.8234 C   0  0  0  0  0  0  0  0  0  0  0  0
  -58.7723  -24.1366    1.5674 C   0  0  0  0  0  0  0  0  0  0  0  0
  -59.2153  -23.3556    2.6874 O   0  0  0  0  0  0  0  0  0  0  0  0
  -59.2533  -25.8466    3.2324 O   0  0  0  0  0  0  0  0  0  0  0  0
  -61.5733  -26.4436    1.8154 C   0  0  0  0  0  0  0  0  0  0  0  0
  -60.0893  -26.8496   -0.0616 C   0  0  0  0  0  0  0  0  0  0  0  0
  -59.8513  -27.5866   -0.8926 N   0  0  0  0  0  0  0  0  0  0  0  0
  -62.8093  -25.8836    1.7754 N   0  0  0  0  0  0  0  0  0  0  0  0
  -63.5693  -26.6356    2.6134 C   0  0  0  0  0  0  0  0  0  0  0  0
  -62.8443  -27.6426    3.1664 C   0  0  0  0  0  0  0  0  0  0  0  0
  -61.5543  -27.5096    2.6434 C   0  0  0  0  0  0  0  0  0  0  0  0
  -63.3423  -24.8156    1.1094 N   0  0  0  0  0  0  0  0  0  0  0  0
  -64.6113  -24.5426    1.3094 C   0  0  0  0  0  0  0  0  0  0  0  0
  -65.4693  -25.2276    2.1304 N   0  0  0  0  0  0  0  0  0  0  0  0
  -64.9323  -26.2726    2.7764 C   0  0  0  0  0  0  0  0  0  0  0  0
  -65.7583  -26.9846    3.6124 N   0  0  0  0  0  0  0  0  0  0  0  0
  -55.0733  -21.5496   -5.7096 H   0  0  0  0  0  0  0  0  0  0  0  0
  -55.9233  -21.0916   -3.7376 H   0  0  0  0  0  0  0  0  0  0  0  0
  -58.5823  -22.1796   -2.6866 H   0  0  0  0  0  0  0  0  0  0  0  0
  -59.0523  -24.0146   -0.5296 H   0  0  0  0  0  0  0  0  0  0  0  0
  -58.3723  -26.2376    1.5294 H   0  0  0  0  0  0  0  0  0  0  0  0
  -57.7983  -23.9396    1.4554 H   0  0  0  0  0  0  0  0  0  0  0  0
  -54.1163  -22.8426  -10.4216 H   0  0  0  0  0  0  0  0  0  0  0  0
  -55.2073  -21.7466   -8.6206 H   0  0  0  0  0  0  0  0  0  0  0  0
  -56.2923  -25.3946   -7.0566 H   0  0  0  0  0  0  0  0  0  0  0  0
  -55.2023  -26.4906   -8.8586 H   0  0  0  0  0  0  0  0  0  0  0  0
  -54.1113  -25.2166  -10.5416 H   0  0  0  0  0  0  0  0  0  0  0  0
  -57.2243  -23.3976   -6.1606 H   0  0  0  0  0  0  0  0  0  0  0  0
  -56.9283  -21.9376   -6.9156 H   0  0  0  0  0  0  0  0  0  0  0  0
  -55.1883  -24.2216   -4.7856 H   0  0  0  0  0  0  0  0  0  0  0  0
  -54.1463  -23.7186   -5.6736 H   0  0  0  0  0  0  0  0  0  0  0  0
  -54.1933  -23.2786   -4.2786 H   0  0  0  0  0  0  0  0  0  0  0  0
  -56.5793  -23.8236   -3.5566 H   0  0  0  0  0  0  0  0  0  0  0  0
  -58.1923  -22.0126   -5.1946 H   0  0  0  0  0  0  0  0  0  0  0  0
  -57.7493  -20.4616   -4.8086 H   0  0  0  0  0  0  0  0  0  0  0  0
  -60.2343  -21.5446   -4.7756 H   0  0  0  0  0  0  0  0  0  0  0  0
  -60.7333  -20.7516   -3.3796 H   0  0  0  0  0  0  0  0  0  0  0  0
  -62.5263  -21.6816   -2.3906 H   0  0  0  0  0  0  0  0  0  0  0  0
  -63.7403  -23.5806   -1.6446 H   0  0  0  0  0  0  0  0  0  0  0  0
  -62.9403  -25.7666   -2.1266 H   0  0  0  0  0  0  0  0  0  0  0  0
  -60.9273  -26.0486   -3.3586 H   0  0  0  0  0  0  0  0  0  0  0  0
  -59.7123  -24.1486   -4.1016 H   0  0  0  0  0  0  0  0  0  0  0  0
  -59.1703  -19.4126   -3.0196 H   0  0  0  0  0  0  0  0  0  0  0  0
  -60.7253  -22.2236   -0.4196 H   0  0  0  0  0  0  0  0  0  0  0  0
  -60.1023  -21.9556    1.0734 H   0  0  0  0  0  0  0  0  0  0  0  0
  -63.0453  -20.2516   -2.1976 H   0  0  0  0  0  0  0  0  0  0  0  0
  -64.2893  -18.4796   -3.1646 H   0  0  0  0  0  0  0  0  0  0  0  0
  -63.4093  -16.2726   -3.1716 H   0  0  0  0  0  0  0  0  0  0  0  0
  -61.2793  -15.8396   -2.2096 H   0  0  0  0  0  0  0  0  0  0  0  0
  -60.0303  -17.6106   -1.2446 H   0  0  0  0  0  0  0  0  0  0  0  0
  -60.1713  -23.5636    2.9234 H   0  0  0  0  0  0  0  0  0  0  0  0
  -59.1953  -26.8276    3.4524 H   0  0  0  0  0  0  0  0  0  0  0  0
  -63.1653  -28.3356    3.8114 H   0  0  0  0  0  0  0  0  0  0  0  0
  -60.7673  -28.0926    2.8454 H   0  0  0  0  0  0  0  0  0  0  0  0
  -64.9873  -23.7596    0.8154 H   0  0  0  0  0  0  0  0  0  0  0  0
  -66.6003  -26.7426    3.7044 H   0  0  0  0  0  0  0  0  0  0  0  0
  -65.4523  -27.6796    4.0574 H   0  0  0  0  0  0  0  0  0  0  0  0
  1  2  2  0
  2  3  1  0
  3  4  2  0
  3  7  1  0
  4  5  1  0
  5  6  2  0
  6  1  1  0
  7  8  1  0
  8  9  1  0
  8 10  1  0
 10 11  1  0
 10 12  1  0
 12 13  1  0
 13 14  1  0
 13 21  1  0
 14 15  1  0
 15 16  2  0
 16 17  1  0
 17 18  2  0
 18 19  1  0
 19 20  2  0
 20 15  1  0
 21 22  1  0
 22 23  1  0
 22 24  1  0
 22 25  2  0
 23 26  1  0
 24 27  1  0
 27 28  2  0
 28 29  1  0
 29 30  2  0
 30 31  1  0
 31 32  2  0
 32 27  1  0
 33 26  1  0
 33 34  1  0
 34 35  1  0
 35 36  1  0
 35 40  1  0
 35 41  1  0
 36 37  1  0
 36 39  1  0
 37 33  1  0
 37 38  1  0
 40 43  1  0
 41 42  3  0
 43 44  1  0
 43 47  1  0
 44 45  2  0
 45 46  1  0
 46 40  2  0
 47 48  2  0
 48 49  1  0
 49 50  2  0
 50 44  1  0
 50 51  1  0
  1 58  1  0
  2 59  1  0
  4 60  1  0
  5 61  1  0
  6 62  1  0
  7 63  1  0
  7 64  1  0
  8 52  1  0
  9 65  1  0
  9 66  1  0
  9 67  1  0
 10 53  1  0
 11 68  1  0
 12 69  1  0
 12 70  1  0
 13 54  1  0
 14 71  1  0
 14 72  1  0
 16 73  1  0
 17 74  1  0
 18 75  1  0
 19 76  1  0
 20 77  1  0
 21 78  1  0
 26 79  1  0
 26 80  1  0
 28 81  1  0
 29 82  1  0
 30 83  1  0
 31 84  1  0
 32 85  1  0
 33 55  1  0
 36 56  1  0
 37 57  1  0
 38 86  1  0
 39 87  1  0
 45 88  1  0
 46 89  1  0
 48 90  1  0
 51 91  1  0
 51 92  1  0
M  CHG  1   9   1
M  END
>  <BioMolTech Lead Finder dG>
-8.447

>  <BioMolTech Lead Finder VSscore>
-15.249

>  <BioMolTech Lead Finder Rank score>
-15.491

>  <BioMolTech Lead Finder LE>
-0.166

>  <BioMolTech Lead Finder Structure Name>
/var/folders/xd/y7jw_xv579q2qqq7kks92xd80000gn/T/LeadFinder_33434_1/Ligand_1.sdf

>  <BioMolTech Lead Finder SDF id>
0

>  <BioMolTech Lead Finder Pose rank>
0

>  <BioMolTech Lead Finder version>
2001 1, 19 January 2019

>  <LF dG>
-8.447

>  <LF VSscore>
-15.249

>  <LF Rank Score>
-15.491

>  <LF LE>
-0.166

>  <Preferred Pose_cresset>
true

>  <Favorite_cresset>
false

>  <Protein_cresset>
6M2N_Dimer_P

>  <MW_cresset>
714.7

>  <#Atoms_cresset>
51

>  <SlogP_cresset>
4

>  <TPSA_cresset>
225.1

>  <Flexibility_cresset>
17.1

>  <#RB_cresset>
18

>  <Rof5_cresset>
3

>  <Filename_cresset>
VTRRT-13V2.1.sdf

>  <Confs_cresset>
0

>  <Poses_cresset>
10

>  <_cresset_fieldpoints>
    -5     -57.613297     -24.092422     -10.371484     -2.6634
    -5     -52.364891     -24.429707      -7.728541     -1.3184
    -5     -58.204033     -22.089504       3.477418    -10.8256
    -5     -63.366791     -24.017197      -5.237280     -4.0211
    -5     -63.736267     -27.061590      -0.321653     -3.8051
    -5     -60.698578     -28.945999      -2.178295     -5.5195
    -5     -62.320721     -23.392540       0.662695     -6.9083
    -5     -62.132732     -20.202347       0.918366     -4.4777
    -5     -63.228867     -17.844666       0.564788     -4.2803
    -5     -56.805618     -22.391737      -1.241125    -11.7619
    -5     -58.514618     -24.123413       4.292889    -10.8255
    -5     -66.796066     -23.934319       2.976255     -3.6571
    -6     -52.893730     -23.796486     -12.303518      3.4196
    -6     -55.937710     -19.835346      -7.346510      5.8477
    -6     -59.110352     -20.812698      -7.056137      5.4376
    -6     -59.494820     -18.588730      -4.452177      6.9619
    -6     -57.303223     -25.039429      -4.612797     11.9510
    -6     -54.088352     -27.806395     -10.550303      3.4432
    -6     -58.672722     -28.325724       2.685872     11.8393
    -6     -57.132160     -25.953629      -0.358005      4.5380
    -6     -65.546631     -16.712093      -4.406018      3.0382
    -6     -65.093338     -21.164791      -2.426746      3.4244
    -6     -62.283417     -13.983777      -3.460159      3.1230
    -6     -59.177216     -14.991611      -2.376607      2.9215
    -6     -64.794327     -29.232157       5.039716     10.2737
    -7     -52.787430     -23.919052     -12.553322     -0.9685
    -7     -59.742874     -23.350952      -6.716525     -3.0608
    -7     -52.604942     -22.111712      -6.793777     -2.2103
    -7     -52.286469     -24.048603      -7.252727     -2.1810
    -7     -58.104118     -23.880932     -10.197273     -1.8400
    -7     -56.231415     -19.489967      -6.936239     -2.2903
    -7     -53.125443     -20.923584      -3.892858     -1.4439
    -7     -53.668808     -26.173586      -5.678520     -1.8283
    -7     -57.655182     -25.328842      -4.699236     -3.4563
    -7     -57.791290     -25.050854      -2.297542     -3.4985
    -7     -53.997559     -27.931004     -10.844477     -0.9685
    -7     -56.731476     -22.688965      -0.871674     -3.7626
    -7     -62.951267     -20.618046      -5.255989     -2.5502
    -7     -63.518860     -27.496616      -0.565770     -3.0606
    -7     -63.215500     -23.488787      -5.750292     -1.9011
    -7     -59.966446     -18.555367      -4.774308     -3.5517
    -7     -63.507420     -17.577368       0.715233     -1.7394
    -7     -65.800049     -16.617634      -4.466326     -0.9711
    -7     -62.535484     -13.685663      -3.328911     -0.9685
    -7     -62.113701     -23.103413       2.351896     -3.4064
    -7     -63.038574     -21.485294       0.410365     -3.4148
    -7     -58.489838     -28.808777       2.175496     -2.0546
    -7     -60.995903     -24.769156       4.558007     -2.7383
    -7     -65.499863     -29.567661       2.224306     -1.5190
    -7     -67.918617     -24.842432       2.333665     -1.1884
    -7     -64.221405     -26.529613       6.078858     -1.5195
    -8     -55.205589     -24.114059      -8.731127      7.1940
    -8     -56.805885     -22.011990      -5.367255      5.9037
    -8     -61.716778     -23.854233      -2.869142      7.2259
    -8     -59.090775     -21.747295      -4.120511      5.3873
    -8     -57.814285     -21.605335      -4.171651      4.8686
    -8     -62.173275     -18.028297      -2.219314      7.0590
    -8     -60.014133     -22.466690      -3.524430      5.7087
    -8     -59.087990     -25.045567       0.900642      4.7218
    -8     -59.080105     -23.447380       0.609832      3.8944
    -8     -60.558228     -26.841732       1.584519      4.6647
    -8     -62.280281     -27.326973       2.731837      4.9254
    -8     -65.065964     -23.731163       0.395099      1.3125

$$$$
VTRRT_D
  xed2sdf_05210316543D
 
 92 97  0  0  1  0  0  0  0  0999 V2000
  -62.9675  -25.6842    3.2350 C   0  0  0  0  0  0  0  0  0  0  0  0
  -61.7525  -25.7242    2.5900 C   0  0  0  0  0  0  0  0  0  0  0  0
  -61.1055  -26.9252    2.3990 C   0  0  0  0  0  0  0  0  0  0  0  0
  -61.6845  -28.0882    2.8590 C   0  0  0  0  0  0  0  0  0  0  0  0
  -62.8995  -28.0502    3.5050 C   0  0  0  0  0  0  0  0  0  0  0  0
  -63.5415  -26.8482    3.6930 C   0  0  0  0  0  0  0  0  0  0  0  0
  -59.7635  -26.9662    1.6840 C   0  0  0  0  0  0  0  0  0  0  0  0
  -59.8285  -26.7202    0.1570 C   0  0  0  0  0  0  0  0  0  0  0  0
  -59.4395  -27.9832   -0.5630 N   0  3  0  0  0  0  0  0  0  0  0  0
  -58.8845  -25.5802   -0.2950 C   0  0  0  0  0  0  0  0  0  0  0  0
  -57.5315  -26.0562   -0.4000 O   0  0  0  0  0  0  0  0  0  0  0  0
  -58.9885  -24.3452    0.6310 C   0  0  0  0  0  0  0  0  0  0  0  0
  -59.5475  -23.0902   -0.0800 C   0  0  0  0  0  0  0  0  0  0  0  0
  -59.5305  -21.8842    0.8850 C   0  0  0  0  0  0  0  0  0  0  0  0
  -58.4515  -20.8382    0.6460 C   0  0  0  0  0  0  0  0  0  0  0  0
  -57.7255  -20.3502    1.7090 C   0  0  0  0  0  0  0  0  0  0  0  0
  -56.7485  -19.4012    1.5070 C   0  0  0  0  0  0  0  0  0  0  0  0
  -56.4955  -18.9372    0.2370 C   0  0  0  0  0  0  0  0  0  0  0  0
  -57.2175  -19.4222   -0.8290 C   0  0  0  0  0  0  0  0  0  0  0  0
  -58.1935  -20.3702   -0.6250 C   0  0  0  0  0  0  0  0  0  0  0  0
  -60.9295  -23.3592   -0.5080 N   0  0  0  0  0  0  0  0  0  0  0  0
  -61.4415  -22.4272   -1.5760 P   0  0  0  0  0  0  0  0  0  0  0  0
  -60.2515  -21.7692   -2.4360 O   0  0  0  0  0  0  0  0  0  0  0  0
  -62.1275  -21.1382   -0.8880 O   0  0  0  0  0  0  0  0  0  0  0  0
  -62.4245  -23.1182   -2.4850 O   0  0  0  0  0  0  0  0  0  0  0  0
  -59.7225  -22.5092   -3.5460 C   0  0  0  0  0  0  0  0  0  0  0  0
  -62.1205  -19.9042   -1.4790 C   0  0  0  0  0  0  0  0  0  0  0  0
  -62.9455  -19.6752   -2.5630 C   0  0  0  0  0  0  0  0  0  0  0  0
  -62.9565  -18.4482   -3.1820 C   0  0  0  0  0  0  0  0  0  0  0  0
  -62.1435  -17.4362   -2.7210 C   0  0  0  0  0  0  0  0  0  0  0  0
  -61.3205  -17.6552   -1.6390 C   0  0  0  0  0  0  0  0  0  0  0  0
  -61.3085  -18.8832   -1.0210 C   0  0  0  0  0  0  0  0  0  0  0  0
  -58.5985  -21.7212   -4.2380 C   0  0  0  0  0  0  0  0  0  0  0  0
  -58.2845  -22.2392   -5.5380 O   0  0  0  0  0  0  0  0  0  0  0  0
  -56.9555  -21.8252   -5.9090 C   0  0  0  0  0  0  0  0  0  0  0  0
  -56.2255  -21.5262   -4.5740 C   0  0  0  0  0  0  0  0  0  0  0  0
  -57.2685  -21.7782   -3.4730 C   0  0  0  0  0  0  0  0  0  0  0  0
  -57.0425  -23.0742   -2.8960 O   0  0  0  0  0  0  0  0  0  0  0  0
  -55.0775  -22.3642   -4.3600 O   0  0  0  0  0  0  0  0  0  0  0  0
  -56.3065  -22.8762   -6.8050 C   0  0  0  0  0  0  0  0  0  0  0  0
  -57.0775  -20.5782   -6.6770 C   0  0  0  0  0  0  0  0  0  0  0  0
  -57.1755  -19.6142   -7.2710 N   0  0  0  0  0  0  0  0  0  0  0  0
  -55.2925  -22.5872   -7.6590 N   0  0  0  0  0  0  0  0  0  0  0  0
  -55.0005  -23.7632   -8.2760 C   0  0  0  0  0  0  0  0  0  0  0  0
  -55.7975  -24.7662   -7.8260 C   0  0  0  0  0  0  0  0  0  0  0  0
  -56.6395  -24.1822   -6.8760 C   0  0  0  0  0  0  0  0  0  0  0  0
  -54.6065  -21.4442   -7.9620 N   0  0  0  0  0  0  0  0  0  0  0  0
  -53.6595  -21.5222   -8.8670 C   0  0  0  0  0  0  0  0  0  0  0  0
  -53.2815  -22.6492   -9.5530 N   0  0  0  0  0  0  0  0  0  0  0  0
  -53.9635  -23.7612   -9.2450 C   0  0  0  0  0  0  0  0  0  0  0  0
  -53.6175  -24.9122   -9.9120 N   0  0  0  0  0  0  0  0  0  0  0  0
  -60.7655  -26.4512   -0.0650 H   0  0  0  0  0  0  0  0  0  0  0  0
  -59.1765  -25.2812   -1.2030 H   0  0  0  0  0  0  0  0  0  0  0  0
  -58.9795  -22.8762   -0.8750 H   0  0  0  0  0  0  0  0  0  0  0  0
  -58.9605  -20.7892   -4.2810 H   0  0  0  0  0  0  0  0  0  0  0  0
  -55.8755  -20.5892   -4.5780 H   0  0  0  0  0  0  0  0  0  0  0  0
  -57.2405  -21.1252   -2.7160 H   0  0  0  0  0  0  0  0  0  0  0  0
  -63.4335  -24.8102    3.3720 H   0  0  0  0  0  0  0  0  0  0  0  0
  -61.3375  -24.8772    2.2580 H   0  0  0  0  0  0  0  0  0  0  0  0
  -61.2195  -28.9632    2.7240 H   0  0  0  0  0  0  0  0  0  0  0  0
  -63.3145  -28.8972    3.8380 H   0  0  0  0  0  0  0  0  0  0  0  0
  -64.4245  -26.8212    4.1610 H   0  0  0  0  0  0  0  0  0  0  0  0
  -59.3545  -27.8652    1.8390 H   0  0  0  0  0  0  0  0  0  0  0  0
  -59.2215  -26.2162    2.0630 H   0  0  0  0  0  0  0  0  0  0  0  0
  -59.9265  -28.6972   -0.2790 H   0  0  0  0  0  0  0  0  0  0  0  0
  -59.5675  -27.9242   -1.4630 H   0  0  0  0  0  0  0  0  0  0  0  0
  -58.5635  -28.1922   -0.4310 H   0  0  0  0  0  0  0  0  0  0  0  0
  -57.1525  -25.8932   -1.3160 H   0  0  0  0  0  0  0  0  0  0  0  0
  -58.0765  -24.1332    0.9830 H   0  0  0  0  0  0  0  0  0  0  0  0
  -59.6295  -24.5782    1.3620 H   0  0  0  0  0  0  0  0  0  0  0  0
  -59.4135  -22.2372    1.8130 H   0  0  0  0  0  0  0  0  0  0  0  0
  -60.3965  -21.4092    0.7300 H   0  0  0  0  0  0  0  0  0  0  0  0
  -57.9085  -20.6862    2.6330 H   0  0  0  0  0  0  0  0  0  0  0  0
  -56.2245  -19.0502    2.2820 H   0  0  0  0  0  0  0  0  0  0  0  0
  -55.7865  -18.2472    0.0880 H   0  0  0  0  0  0  0  0  0  0  0  0
  -57.0325  -19.0862   -1.7530 H   0  0  0  0  0  0  0  0  0  0  0  0
  -58.7185  -20.7212   -1.4010 H   0  0  0  0  0  0  0  0  0  0  0  0
  -60.9735  -24.3072   -0.8940 H   0  0  0  0  0  0  0  0  0  0  0  0
  -60.4555  -22.6872   -4.2030 H   0  0  0  0  0  0  0  0  0  0  0  0
  -59.3475  -23.3722   -3.2080 H   0  0  0  0  0  0  0  0  0  0  0  0
  -63.5385  -20.4072   -2.9000 H   0  0  0  0  0  0  0  0  0  0  0  0
  -63.5545  -18.2892   -3.9670 H   0  0  0  0  0  0  0  0  0  0  0  0
  -62.1515  -16.5442   -3.1710 H   0  0  0  0  0  0  0  0  0  0  0  0
  -60.7305  -16.9202   -1.3040 H   0  0  0  0  0  0  0  0  0  0  0  0
  -60.7085  -19.0382   -0.2360 H   0  0  0  0  0  0  0  0  0  0  0  0
  -56.9585  -23.7812   -3.6060 H   0  0  0  0  0  0  0  0  0  0  0  0
  -55.3355  -23.3362   -4.3250 H   0  0  0  0  0  0  0  0  0  0  0  0
  -55.7855  -25.7232   -8.1160 H   0  0  0  0  0  0  0  0  0  0  0  0
  -57.3525  -24.6452   -6.3480 H   0  0  0  0  0  0  0  0  0  0  0  0
  -53.1655  -20.6792   -9.0770 H   0  0  0  0  0  0  0  0  0  0  0  0
  -52.9735  -24.8922  -10.5120 H   0  0  0  0  0  0  0  0  0  0  0  0
  -54.0355  -25.6682   -9.7440 H   0  0  0  0  0  0  0  0  0  0  0  0
  1  2  2  0
  2  3  1  0
  3  4  2  0
  3  7  1  0
  4  5  1  0
  5  6  2  0
  6  1  1  0
  7  8  1  0
  8  9  1  0
  8 10  1  0
 10 11  1  0
 10 12  1  0
 12 13  1  0
 13 14  1  0
 13 21  1  0
 14 15  1  0
 15 16  2  0
 16 17  1  0
 17 18  2  0
 18 19  1  0
 19 20  2  0
 20 15  1  0
 21 22  1  0
 22 23  1  0
 22 24  1  0
 22 25  2  0
 23 26  1  0
 24 27  1  0
 27 28  2  0
 28 29  1  0
 29 30  2  0
 30 31  1  0
 31 32  2  0
 32 27  1  0
 33 26  1  0
 33 34  1  0
 34 35  1  0
 35 36  1  0
 35 40  1  0
 35 41  1  0
 36 37  1  0
 36 39  1  0
 37 33  1  0
 37 38  1  0
 40 43  1  0
 41 42  3  0
 43 44  1  0
 43 47  1  0
 44 45  2  0
 45 46  1  0
 46 40  2  0
 47 48  2  0
 48 49  1  0
 49 50  2  0
 50 44  1  0
 50 51  1  0
  1 58  1  0
  2 59  1  0
  4 60  1  0
  5 61  1  0
  6 62  1  0
  7 63  1  0
  7 64  1  0
  8 52  1  0
  9 65  1  0
  9 66  1  0
  9 67  1  0
 10 53  1  0
 11 68  1  0
 12 69  1  0
 12 70  1  0
 13 54  1  0
 14 71  1  0
 14 72  1  0
 16 73  1  0
 17 74  1  0
 18 75  1  0
 19 76  1  0
 20 77  1  0
 21 78  1  0
 26 79  1  0
 26 80  1  0
 28 81  1  0
 29 82  1  0
 30 83  1  0
 31 84  1  0
 32 85  1  0
 33 55  1  0
 36 56  1  0
 37 57  1  0
 38 86  1  0
 39 87  1  0
 45 88  1  0
 46 89  1  0
 48 90  1  0
 51 91  1  0
 51 92  1  0
M  CHG  1   9   1
M  END
>  <BioMolTech Lead Finder dG>
-8.977

>  <BioMolTech Lead Finder VSscore>
-15.089

>  <BioMolTech Lead Finder Rank score>
-16.557

>  <BioMolTech Lead Finder LE>
-0.176

>  <BioMolTech Lead Finder Structure Name>
/var/folders/xd/y7jw_xv579q2qqq7kks92xd80000gn/T/LeadFinder_32550_1/Ligand_1.sdf

>  <BioMolTech Lead Finder SDF id>
0

>  <BioMolTech Lead Finder Pose rank>
0

>  <BioMolTech Lead Finder version>
2001 1, 19 January 2019

>  <LF dG>
-8.977

>  <LF VSscore>
-15.089

>  <LF Rank Score>
-16.557

>  <LF LE>
-0.176

>  <Preferred Pose_cresset>
true

>  <Favorite_cresset>
false

>  <Protein_cresset>
6M2N_Dimer_P

>  <MW_cresset>
714.7

>  <#Atoms_cresset>
51

>  <SlogP_cresset>
4

>  <TPSA_cresset>
225.1

>  <Flexibility_cresset>
17.1

>  <#RB_cresset>
18

>  <Rof5_cresset>
3

>  <Filename_cresset>
VTRRT-13V2.1.sdf

>  <Confs_cresset>
0

>  <Poses_cresset>
10

>  <_cresset_fieldpoints>
    -5     -64.026688     -27.069366       0.694790     -2.0059
    -5     -64.135704     -18.088528      -0.050591     -5.2343
    -5     -60.975510     -26.526745       5.577168     -3.4922
    -5     -59.233063     -17.661053       1.302082     -3.4834
    -5     -56.449608     -26.296804       1.072129     -5.2430
    -5     -53.510929     -21.960251      -5.465702     -7.3304
    -5     -56.197544     -22.682404      -1.003704     -6.0970
    -5     -60.100471     -18.486320      -4.553439     -2.5659
    -5     -63.132019     -21.117691       0.824316     -6.3413
    -5     -56.030907     -19.074177      -8.913054     -8.9437
    -5     -52.374760     -22.150774     -11.275270     -3.7963
    -6     -65.949249     -25.192524       4.696318      2.6579
    -6     -57.575035     -25.434845      -3.279992     17.3282
    -6     -60.318611     -30.294136       1.130958      6.1878
    -6     -65.359772     -29.392242       4.818495      3.1860
    -6     -60.847679     -25.282333      -2.500114     13.0635
    -6     -54.908249     -27.362141      -9.271874     11.6015
    -6     -54.488960     -17.340851       2.156114      2.3769
    -6     -56.947815     -20.257069       4.697036      2.6586
    -6     -59.283760     -23.677780       3.595045      3.8170
    -6     -60.737206     -14.625399      -2.525956      1.7310
    -6     -57.456429     -18.905853      -3.896376      5.6007
    -6     -62.648609     -22.096216      -4.706936      4.3991
    -7     -59.218407     -23.947483       3.792546     -2.8512
    -7     -65.735809     -29.021391       5.105505     -0.9684
    -7     -59.501663     -30.385540       1.532308     -1.8661
    -7     -65.902405     -24.539555       4.500529     -0.9710
    -7     -62.892014     -25.177143      -0.380480     -3.3184
    -7     -61.202431     -25.511810      -2.690863     -3.1587
    -7     -56.557892     -26.430969       1.786913     -2.1527
    -7     -60.495949     -26.485119       5.706698     -1.8544
    -7     -58.143337     -25.557653      -3.585984     -3.0362
    -7     -63.274414     -27.046234      -0.139438     -2.4673
    -7     -58.670757     -30.397551      -1.809781     -0.9528
    -7     -56.615417     -27.292259       1.382935     -2.1265
    -7     -56.256653     -23.098076      -0.683043     -4.0004
    -7     -60.897694     -19.171640       2.240376     -2.4900
    -7     -62.582619     -22.664991       1.535984     -3.3811
    -7     -58.764603     -18.476902      -3.570664     -3.5660
    -7     -59.439442     -17.367447       1.223134     -2.6805
    -7     -54.285278     -17.130257       2.073485     -0.9704
    -7     -62.895912     -22.125309      -4.711897     -2.2685
    -7     -61.162487     -20.137247      -5.401545     -2.5819
    -7     -64.485458     -17.728321      -0.064860     -1.7070
    -7     -63.522667     -16.017508      -5.482445     -0.9697
    -7     -59.883163     -23.267826      -6.894644     -2.4996
    -7     -56.955299     -21.530302      -9.794731     -2.3790
    -7     -56.244049     -25.396887     -11.146902     -1.5182
    -7     -55.784523     -25.525736      -3.971807     -2.0645
    -7     -53.205074     -22.602468      -5.710260     -2.8348
    -7     -52.864952     -26.476185      -7.532594     -1.5170
    -7     -51.493134     -22.785793     -11.276425     -1.1835
    -8     -62.318275     -26.887508       3.042399      7.1999
    -8     -59.596420     -25.762531       0.819933      5.7989
    -8     -61.070656     -26.892525       2.336488      5.7671
    -8     -60.566055     -26.350002       1.612878      5.7586
    -8     -58.906647     -21.562878       0.100187      5.7368
    -8     -59.182732     -24.385674       0.069025      5.1266
    -8     -62.130859     -18.635109      -2.113498      7.0380
    -8     -59.042671     -23.010426       0.719085      5.3777
    -8     -57.481255     -19.891459       0.438436      7.2267
    -8     -57.268250     -21.221401      -4.474601      4.7532
    -8     -58.442841     -21.632069      -3.491071      4.0113
    -8     -56.082962     -24.193081      -7.393471      4.9161
    -8     -52.997620     -20.472801      -9.164061      1.2373

$$$$
