REMARK  5 active torsions:
REMARK  status: ('A' for Active; 'I' for Inactive)
REMARK    1  A    between atoms: S_1  and  N_4 
REMARK    2  A    between atoms: S_1  and  C_15 
REMARK    3  A    between atoms: N_5  and  C_11 
REMARK    4  A    between atoms: C_11  and  C_14 
REMARK    5  A    between atoms: C_17  and  C_21 
ROOT
HETATM    1  S   MOL     1      10.487  -1.153  18.653  1.00 -0.73     0.228 S 
HETATM    2  O   MOL     1       9.338  -1.117  19.497  1.00 -0.22    -0.206 OA
HETATM    3  O   MOL     1      11.568  -2.026  18.978  1.00 -0.10    -0.206 OA
ENDROOT
BRANCH   1   4
HETATM    4  N   MOL     1      11.086   0.345  18.637  1.00 -0.02    -0.306 N 
HETATM    5  C   MOL     1      12.178   0.778  19.499  1.00 -0.30     0.171 C 
HETATM    6  C   MOL     1      11.222   1.965  19.783  1.00 -0.23     0.100 C 
HETATM    7  C   MOL     1      10.215   1.511  18.693  1.00 -0.37     0.171 C 
BRANCH   6   8
HETATM    8  N   MOL     1      10.723   1.822  21.162  1.00  0.00    -0.266 N 
HETATM    9  N   MOL     1      11.323   2.340  22.255  1.00  0.03    -0.183 NA
HETATM   10  C   MOL     1      10.597   2.093  23.311  1.00 -0.28     0.154 A 
HETATM   11  C   MOL     1       9.439   1.369  22.967  1.00 -0.22     0.030 A 
HETATM   12  C   MOL     1       9.592   1.243  21.631  1.00 -0.14     0.128 A 
BRANCH  11  13
HETATM   13  C   MOL     1       8.388   0.921  23.860  1.00 -0.33     0.085 A 
HETATM   14  N   MOL     1       7.277   1.689  23.908  1.00 -0.20    -0.240 NA
HETATM   15  C   MOL     1       6.294   1.253  24.727  1.00 -0.62     0.236 A 
HETATM   16  N   MOL     1       6.275   0.161  25.507  1.00 -0.26    -0.224 NA
HETATM   17  C   MOL     1       7.407  -0.564  25.436  1.00 -0.44     0.141 A 
HETATM   18  N   MOL     1       7.627  -1.700  26.141  1.00 -0.12    -0.350 N 
HETATM   19  C   MOL     1       8.478  -0.227  24.636  1.00 -0.30     0.041 A 
HETATM   20  C   MOL     1       8.896  -2.093  25.773  1.00 -0.46     0.091 A 
HETATM   21  HN  MOL     1       7.083  -2.096  26.708  1.00 -0.29     0.166 HD
HETATM   22  C   MOL     1       9.439  -1.259  24.890  1.00 -0.33     0.034 A 
ENDBRANCH  11  13
ENDBRANCH   6   8
BRANCH   6  23
HETATM   23  C   MOL     1      11.920   3.288  19.379  1.00 -0.26     0.160 C 
HETATM   24  C   MOL     1      11.172   4.478  19.803  1.00 -0.45     0.061 C 
HETATM   25  N   MOL     1      10.594   5.398  20.131  1.00 -0.46    -0.197 NA
ENDBRANCH   6  23
ENDBRANCH   1   4
BRANCH   1  26
HETATM   26  C   MOL     1       9.941  -1.505  16.962  1.00 -0.50     0.159 C 
HETATM   27  C   MOL     1      11.104  -2.096  16.151  1.00 -0.56     0.023 C 
ENDBRANCH   1  26
TORSDOF 5
