REMARK  10 active torsions:
REMARK  status: ('A' for Active; 'I' for Inactive)
REMARK    1  A    between atoms: O_16  and  C_2 
REMARK    2  A    between atoms: O_19  and  C_18 
REMARK    3  A    between atoms: O_12  and  C_8 
REMARK    4  A    between atoms: O_28  and  C_24 
REMARK    5  A    between atoms: O_14  and  C_9 
REMARK    6  A    between atoms: O_30  and  C_25 
REMARK    7  A    between atoms: C_2  and  C_18 
REMARK    8  A    between atoms: C_3  and  C_21 
REMARK    9  A    between atoms: C_4  and  C_6 
REMARK   10  A    between atoms: C_21  and  C_22 
ROOT
HETATM    1  O   MOL     1      12.011  -2.249  20.204  1.00  0.15    -0.378 OA
HETATM    2  C   MOL     1      10.387  -1.497  21.725  1.00 -0.06     0.115 C 
HETATM    3  C   MOL     1      10.897  -2.886  22.202  1.00  0.04     0.053 C 
HETATM    4  C   MOL     1      11.476  -1.030  20.733  1.00 -0.13     0.191 C 
HETATM    5  C   MOL     1      12.087  -3.201  21.273  1.00 -0.09     0.176 C 
ENDROOT
BRANCH   4   6
HETATM    6  C   MOL     1      11.079  -0.039  19.644  1.00 -0.21    -0.024 A 
HETATM    7  C   MOL     1      10.302  -0.414  18.567  1.00 -0.26     0.049 A 
HETATM    8  C   MOL     1       9.941   0.500  17.593  1.00 -0.41     0.101 A 
HETATM    9  C   MOL     1      10.384   1.811  17.712  1.00 -0.43     0.099 A 
HETATM   10  C   MOL     1      11.159   2.187  18.785  1.00  0.07     0.040 A 
HETATM   11  C   MOL     1      11.504   1.266  19.748  1.00 -0.25     0.013 A 
BRANCH   8  12
HETATM   12  O   MOL     1       9.177   0.168  16.538  1.00 -0.35    -0.353 OA
HETATM   13  C   MOL     1       9.254  -1.176  16.017  1.00 -0.79     0.210 C 
ENDBRANCH   8  12
BRANCH   9  14
HETATM   14  O   MOL     1      10.052   2.741  16.770  1.00 -0.61    -0.358 OA
HETATM   15  H   MOL     1       9.523   2.339  16.016  1.00 -0.21     0.217 HD
ENDBRANCH   9  14
ENDBRANCH   4   6
BRANCH   2  16
HETATM   16  O   MOL     1       9.154  -1.725  21.023  1.00 -0.42    -0.384 OA
HETATM   17  H   MOL     1       8.726  -0.859  20.745  1.00 -0.14     0.210 HD
ENDBRANCH   2  16
BRANCH   2  18
HETATM   18  C   MOL     1      10.112  -0.433  22.813  1.00 -0.27     0.205 C 
BRANCH  18  19
HETATM   19  O   MOL     1       8.719  -0.131  22.986  1.00 -0.05    -0.398 OA
HETATM   20  H   MOL     1       8.358   0.406  22.216  1.00 -0.29     0.209 HD
ENDBRANCH  18  19
ENDBRANCH   2  18
BRANCH   3  21
HETATM   21  C   MOL     1      11.324  -3.061  23.680  1.00 -0.22     0.048 C 
BRANCH  21  22
HETATM   22  C   MOL     1      10.269  -3.627  24.619  1.00 -0.23    -0.055 A 
HETATM   23  C   MOL     1       9.070  -2.971  24.798  1.00 -0.26     0.046 A 
HETATM   24  C   MOL     1       8.115  -3.471  25.659  1.00 -0.40     0.101 A 
HETATM   25  C   MOL     1       8.362  -4.663  26.330  1.00 -0.42     0.099 A 
HETATM   26  C   MOL     1       9.558  -5.320  26.146  1.00 -0.24     0.040 A 
HETATM   27  C   MOL     1      10.508  -4.803  25.293  1.00 -0.30     0.010 A 
BRANCH  24  28
HETATM   28  O   MOL     1       6.965  -2.805  25.821  1.00 -0.14    -0.353 OA
HETATM   29  C   MOL     1       7.023  -1.365  25.767  1.00 -0.70     0.210 C 
ENDBRANCH  24  28
BRANCH  25  30
HETATM   30  O   MOL     1       7.426  -5.197  27.165  1.00 -0.68    -0.358 OA
HETATM   31  H   MOL     1       7.776  -6.009  27.644  1.00 -0.25     0.217 HD
ENDBRANCH  25  30
ENDBRANCH  21  22
ENDBRANCH   3  21
TORSDOF 10
