REMARK  10 active torsions:
REMARK  status: ('A' for Active; 'I' for Inactive)
REMARK    1  A    between atoms: O_2  and  C_14 
REMARK    2  A    between atoms: N_3  and  C_9 
REMARK    3  A    between atoms: N_3  and  C_10 
REMARK    4  A    between atoms: N_3  and  C_12 
REMARK    5  A    between atoms: N_4  and  C_8 
REMARK    6  A    between atoms: N_4  and  C_13 
REMARK    7  A    between atoms: C_6  and  C_7 
REMARK    8  A    between atoms: C_6  and  C_8 
REMARK    9  A    between atoms: C_7  and  C_9 
REMARK   10  A    between atoms: C_10  and  C_14 
ROOT
HETATM    1 CL   MOL     1       9.660   2.010  21.221  1.00 -0.72    -0.084 Cl
HETATM    2  N   MOL     1       8.458  -0.788  17.200  1.00 -0.73    -0.260 NA
HETATM    3  C   MOL     1      11.113  -1.730  16.856  1.00 -0.25     0.042 A 
HETATM    4  C   MOL     1      10.796  -0.858  17.914  1.00 -0.19     0.019 A 
HETATM    5  C   MOL     1      10.091  -2.100  16.019  1.00 -0.37     0.049 A 
HETATM    6  C   MOL     1       9.469  -0.414  18.038  1.00 -0.39     0.070 A 
HETATM    7  C   MOL     1      11.757  -0.400  18.842  1.00 -0.22     0.018 A 
HETATM    8  C   MOL     1       8.809  -1.625  16.216  1.00 -0.59     0.119 A 
HETATM    9  C   MOL     1       9.142   0.479  19.080  1.00 -0.41     0.056 A 
HETATM   10  C   MOL     1      11.412   0.455  19.830  1.00 -0.22     0.025 A 
HETATM   11  C   MOL     1      10.086   0.903  19.950  1.00 -0.27     0.036 A 
ENDROOT
BRANCH   3  12
HETATM   12  N   MOL     1      12.423  -2.190  16.675  1.00 -0.00    -0.385 N 
HETATM   13  H   MOL     1      13.080  -1.631  16.849  1.00 -0.33     0.160 HD
BRANCH  12  14
HETATM   14  C   MOL     1      12.776  -3.618  16.530  1.00 -0.27     0.077 C 
HETATM   15  C   MOL     1      14.040  -3.645  15.655  1.00 -0.33     0.032 C 
BRANCH  14  16
HETATM   16  C   MOL     1      13.121  -4.287  17.873  1.00 -0.20     0.026 C 
BRANCH  16  17
HETATM   17  C   MOL     1      11.847  -4.661  18.648  1.00 -0.28     0.030 C 
BRANCH  17  18
HETATM   18  C   MOL     1      12.109  -5.955  19.447  1.00 -0.22     0.235 C 
BRANCH  18  19
HETATM   19  N   MOL     1      11.244  -7.118  19.023  1.00  0.08    -0.069 N 
HETATM   20  H   MOL     1      10.913  -6.903  18.202  1.00 -0.38     0.279 HD
BRANCH  19  21
HETATM   21  C   MOL     1      12.035  -8.394  18.848  1.00 -0.25     0.260 C 
BRANCH  21  22
HETATM   22  C   MOL     1      11.171  -9.600  18.428  1.00 -0.39     0.192 C 
BRANCH  22  23
HETATM   23  O   MOL     1      10.749  -9.448  17.065  1.00  0.15    -0.399 OA
HETATM   24  H   MOL     1      10.564  -8.484  16.845  1.00 -0.50     0.209 HD
ENDBRANCH  22  23
ENDBRANCH  21  22
ENDBRANCH  19  21
BRANCH  19  25
HETATM   25  C   MOL     1      10.048  -7.303  19.929  1.00 -0.45     0.230 C 
HETATM   26  C   MOL     1      10.433  -7.521  21.406  1.00 -0.44     0.034 C 
ENDBRANCH  19  25
ENDBRANCH  18  19
ENDBRANCH  17  18
ENDBRANCH  16  17
ENDBRANCH  14  16
ENDBRANCH  12  14
ENDBRANCH   3  12
TORSDOF 10
