REMARK  7 active torsions:
REMARK  status: ('A' for Active; 'I' for Inactive)
REMARK    1  A    between atoms: O_2  and  C_13 
REMARK    2  A    between atoms: O_3  and  C_15 
REMARK    3  A    between atoms: O_5  and  C_19 
REMARK    4  A    between atoms: O_6  and  C_21 
REMARK    5  A    between atoms: O_7  and  C_22 
REMARK    6  A    between atoms: O_8  and  C_23 
REMARK    7  A    between atoms: C_10  and  C_12 
ROOT
HETATM    1  O   MOL     1       9.147  -1.556  21.734  1.00 -0.27    -0.306 OA
HETATM    2  O   MOL     1       9.373   2.305  22.887  1.00 -0.06    -0.284 OA
HETATM    3  C   MOL     1       8.927   0.073  23.515  1.00 -0.22     0.084 A 
HETATM    4  C   MOL     1       9.591  -0.560  20.895  1.00 -0.25     0.123 A 
HETATM    5  C   MOL     1       8.879  -1.235  23.025  1.00 -0.27     0.096 A 
HETATM    6  C   MOL     1       9.666   0.762  21.251  1.00 -0.27     0.152 A 
HETATM    7  C   MOL     1       9.315   1.114  22.583  1.00 -0.32     0.223 A 
HETATM    8  C   MOL     1       8.618   0.315  24.866  1.00 -0.35     0.085 A 
HETATM    9  C   MOL     1       8.540  -2.267  23.881  1.00 -0.35     0.075 A 
HETATM   10  C   MOL     1       8.250  -2.024  25.204  1.00 -0.38     0.071 A 
HETATM   11  C   MOL     1       8.289  -0.727  25.692  1.00 -0.42     0.074 A 
ENDROOT
BRANCH   4  12
HETATM   12  C   MOL     1       9.984  -1.006  19.542  1.00 -0.21     0.006 A 
HETATM   13  C   MOL     1      11.249  -1.517  19.291  1.00 -0.25     0.054 A 
HETATM   14  C   MOL     1      11.590  -1.950  18.029  1.00 -0.30     0.102 A 
HETATM   15  C   MOL     1      10.671  -1.868  16.997  1.00 -0.39     0.132 A 
HETATM   16  C   MOL     1       9.407  -1.359  17.239  1.00 -0.46     0.102 A 
HETATM   17  C   MOL     1       9.065  -0.938  18.505  1.00 -0.31     0.054 A 
BRANCH  14  18
HETATM   18  O   MOL     1      12.832  -2.461  17.793  1.00 -0.06    -0.358 OA
HETATM   19  H   MOL     1      13.517  -1.732  17.693  1.00 -0.32     0.217 HD
ENDBRANCH  14  18
BRANCH  15  20
HETATM   20  O   MOL     1      11.012  -2.289  15.745  1.00 -0.14    -0.356 OA
HETATM   21  H   MOL     1      10.453  -3.073  15.456  1.00 -0.46     0.218 HD
ENDBRANCH  15  20
BRANCH  16  22
HETATM   22  O   MOL     1       8.502  -1.277  16.224  1.00 -0.85    -0.358 OA
HETATM   23  H   MOL     1       8.802  -1.802  15.420  1.00 -0.17     0.217 HD
ENDBRANCH  16  22
ENDBRANCH   4  12
BRANCH   6  24
HETATM   24  O   MOL     1      10.052   1.765  20.366  1.00 -0.10    -0.355 OA
HETATM   25  H   MOL     1       9.296   2.397  20.167  1.00 -0.43     0.218 HD
ENDBRANCH   6  24
BRANCH   8  26
HETATM   26  O   MOL     1       8.640   1.571  25.380  1.00 -0.17    -0.360 OA
HETATM   27  H   MOL     1       7.931   2.156  24.978  1.00 -0.33     0.217 HD
ENDBRANCH   8  26
BRANCH  10  28
HETATM   28  O   MOL     1       7.924  -3.050  26.029  1.00 -0.27    -0.361 OA
HETATM   29  H   MOL     1       7.527  -2.717  26.891  1.00 -0.29     0.217 HD
ENDBRANCH  10  28
TORSDOF 7
