5281600
  RxDock  02242101053D
librxdock.so/0.1.0
 46 51  0  0  0  0  0  0  0  0999 V2000
  -46.8485   -0.4779   18.8863 O   0  0  0  0  0  0
  -49.5723   -3.8071   15.7946 O   0  0  0  0  0  0
  -42.7154   -2.3638   17.4450 O   0  0  0  0  0  0
  -43.9938   -0.8556   15.5008 O   0  0  0  0  0  0
  -42.7824    0.1710   21.4437 O   0  0  0  0  0  0
  -45.0929    1.1825   22.1665 O   0  0  0  0  0  0
  -51.9442   -7.7467   17.3274 O   0  0  0  0  0  0
  -49.3794   -7.3803   17.7424 O   0  0  0  0  0  0
  -54.2167   -4.3186   14.9527 O   0  0  0  0  0  0
  -53.0342    0.7765   18.5133 O   0  0  0  0  0  0
  -44.8019   -1.4135   18.1716 C   0  0  0  0  0  0
  -45.5065   -0.6563   19.1078 C   0  0  0  0  0  0
  -45.4804   -1.9799   17.0185 C   0  0  0  0  0  0
  -44.8436   -0.1179   20.2093 C   0  0  0  0  0  0
  -47.2330   -3.3784   16.1272 C   0  0  0  0  0  0
  -46.5678   -2.8266   17.2221 C   0  0  0  0  0  0
  -43.4342   -1.6296   18.3423 C   0  0  0  0  0  0
  -45.0545   -1.6823   15.7259 C   0  0  0  0  0  0
  -43.4743   -0.3316   20.3837 C   0  0  0  0  0  0
  -48.3861   -4.2764   16.3380 C   0  0  0  0  0  0
  -42.7722   -1.0898   19.4461 C   0  0  0  0  0  0
  -47.5763    0.2648   19.8037 C   0  0  0  0  0  0
  -45.6105    0.6780   21.1797 C   0  0  0  0  0  0
  -46.8090   -3.0821   14.8318 C   0  0  0  0  0  0
  -45.7197   -2.2342   14.6310 C   0  0  0  0  0  0
  -47.0513    0.8389   20.8978 C   0  0  0  0  0  0
  -50.7070   -5.8028   16.5878 C   0  0  0  0  0  0
  -50.7024   -4.5726   15.9326 C   0  0  0  0  0  0
  -49.0076    0.3992   19.4661 C   0  0  0  0  0  0
  -48.2619   -5.4463   16.9846 C   0  0  0  0  0  0
  -49.4487   -6.3082   17.1575 C   0  0  0  0  0  0
  -51.8880   -6.5402   16.6977 C   0  0  0  0  0  0
  -51.8821   -4.0716   15.3817 C   0  0  0  0  0  0
  -49.4902    1.5898   18.9171 C   0  0  0  0  0  0
  -49.8851   -0.6637   19.6933 C   0  0  0  0  0  0
  -53.0639   -4.8049   15.4896 C   0  0  0  0  0  0
  -53.0667   -6.0365   16.1462 C   0  0  0  0  0  0
  -50.8421    1.7167   18.5974 C   0  0  0  0  0  0
  -51.2369   -0.5370   19.3735 C   0  0  0  0  0  0
  -51.7154    0.6532   18.8256 C   0  0  0  0  0  0
  -42.1209   -2.9643   17.9263 H   0  0  0  0  0  0
  -43.7694   -0.8750   14.5548 H   0  0  0  0  0  0
  -43.3755    0.3253   22.1948 H   0  0  0  0  0  0
  -52.8184   -8.1499   17.2130 H   0  0  0  0  0  0
  -54.9371   -4.9479   15.1293 H   0  0  0  0  0  0
  -53.4073   -0.1096   18.3651 H   0  0  0  0  0  0
  1 12  1  0  0  0
  1 22  1  0  0  0
  2 20  1  0  0  0
  2 28  1  0  0  0
  3 17  1  0  0  0
  3 41  1  0  0  0
  4 18  1  0  0  0
  4 42  1  0  0  0
  5 19  1  0  0  0
  5 43  1  0  0  0
  6 23  2  0  0  0
  7 32  1  0  0  0
  7 44  1  0  0  0
  8 31  2  0  0  0
  9 36  1  0  0  0
  9 45  1  0  0  0
 10 40  1  0  0  0
 10 46  1  0  0  0
 11 12  1  0  0  0
 11 13  1  0  0  0
 11 17  2  0  0  0
 12 14  2  0  0  0
 13 16  1  0  0  0
 13 18  2  0  0  0
 14 19  1  0  0  0
 14 23  1  0  0  0
 15 16  2  0  0  0
 15 20  1  0  0  0
 15 24  1  0  0  0
 17 21  1  0  0  0
 18 25  1  0  0  0
 19 21  2  0  0  0
 20 30  2  0  0  0
 22 26  2  0  0  0
 22 29  1  0  0  0
 23 26  1  0  0  0
 24 25  2  0  0  0
 27 28  1  0  0  0
 27 31  1  0  0  0
 27 32  2  0  0  0
 28 33  2  0  0  0
 29 34  2  0  0  0
 29 35  1  0  0  0
 30 31  1  0  0  0
 32 37  1  0  0  0
 33 36  1  0  0  0
 34 38  1  0  0  0
 35 39  2  0  0  0
 36 37  2  0  0  0
 38 40  2  0  0  0
 39 40  1  0  0  0
M  END
>  <CHROM.0>
-68.62271988,-65.34510583,55.82240925

>  <CHROM.1>
-136.42196951,171.70768238,24.74613891,-173.45806506,-179.27617956,155.85961696
-57.08234260,118.56318789,-102.69986767,-48.04015014,-2.22255837,17.86258715
0.67828086,-0.00728226,0.56833192

>  <Name>
5281600

>  <PUBCHEM_ATOM_DEF_STEREO_COUNT>
0

>  <PUBCHEM_ATOM_UDEF_STEREO_COUNT>
0

>  <PUBCHEM_BOND_DEF_STEREO_COUNT>
0

>  <PUBCHEM_BOND_UDEF_STEREO_COUNT>
0

>  <PUBCHEM_CACTVS_TAUTO_COUNT>
994

>  <PUBCHEM_COMPONENT_COUNT>
1

>  <PUBCHEM_COMPOUND_CID>
5281600

>  <PUBCHEM_CONFORMER_DIVERSEORDER>
1
12
7
6
5
11
9
4
8
3
2
10

>  <PUBCHEM_CONFORMER_ID>
0050974000000001

>  <PUBCHEM_CONFORMER_RMSD>
0.8

>  <PUBCHEM_COORDINATE_TYPE>
2
5
10

>  <PUBCHEM_EFFECTIVE_ROTOR_COUNT>
3

>  <PUBCHEM_FEATURE_SELFOVERLAP>
81.26

>  <PUBCHEM_HEAVY_ATOM_COUNT>
40

>  <PUBCHEM_ISOTOPIC_ATOM_COUNT>
0

>  <PUBCHEM_MMFF94_ENERGY>
134.7783

>  <PUBCHEM_MMFF94_PARTIAL_CHARGES>
56
1 -0.16
10 -0.53
12 0.08
14 0.09
15 0.03
16 -0.15
17 0.08
18 0.08
19 0.08
2 -0.16
20 0.05
21 -0.15
22 0.05
23 0.47
24 -0.15
25 -0.15
26 -0.14
27 0.09
28 0.08
29 0.03
3 -0.53
30 -0.14
31 0.47
32 0.08
33 -0.15
34 -0.15
35 -0.15
36 0.08
37 -0.15
38 -0.15
39 -0.15
4 -0.53
40 0.08
41 0.15
42 0.15
43 0.15
44 0.15
45 0.15
46 0.15
47 0.15
48 0.15
49 0.15
5 -0.53
50 0.45
51 0.15
52 0.45
53 0.45
54 0.15
55 0.15
56 0.45
57 0.45
58 0.45
6 -0.57
7 -0.53
8 -0.57
9 -0.53

>  <PUBCHEM_PHARMACOPHORE_FEATURES>
16
1 1 acceptor
1 10 donor
1 2 acceptor
1 3 donor
1 4 donor
1 5 donor
1 6 acceptor
1 7 donor
1 8 acceptor
1 9 donor
6 1 12 14 22 23 26 rings
6 11 12 14 17 19 21 rings
6 13 15 16 18 24 25 rings
6 2 20 27 28 30 31 rings
6 27 28 32 33 36 37 rings
6 29 34 35 38 39 40 rings

>  <PUBCHEM_SHAPE_FINGERPRINT>
10074138 170 18272931639651384535
10462674 125 17618475011381580750
10622 236 18044087084485364727
10928967 22 18186794777961395306
11135926 11 16589159410442702964
11434127 23 16988854868850209122
11552529 35 18337099142617264300
12128747 34 17416426289408154158
12422481 6 17970917660810484883
12559416 138 17458053868550942330
131258 38 17040625661602271054
14040221 299 18130520668696863620
14068700 675 18126558149519363943
14395042 24 18339370777318689755
14674994 50 18189596350705326935
14705955 166 17345771702192931481
14856354 85 18343864420652166036
14950920 106 18341324578619618192
15320294 125 18260278451476051767
15361156 5 15359116841693389420
15484559 13 15440400299685403118
16728300 4 17967823739013222547
19319366 153 16671943977149260761
20554085 129 18057606456813237473
20775530 9 17974003148226375983
21033648 29 17986692393200921257
21133410 221 17108453988390366882
23516275 137 17830492447455348050
3882209 13 17628068207685272503
4394409 98 18410292537089562351
44880168 125 18338798914801616118
484985 159 18337095835418697607
50080093 196 18113889468875184482
5085150 59 18337387146281907241
5171179 24 16967460284478114997
581034 39 18412830166090923426

>  <PUBCHEM_SHAPE_MULTIPOLES>
764.49
14.59
6.24
3.18
25.21
8.64
-0.18
2.69
-10.24
-12.46
1.99
1.74
-0.93
-5.25

>  <PUBCHEM_SHAPE_SELFOVERLAP>
1749.357

>  <PUBCHEM_SHAPE_VOLUME>
392.9

>  <RI>
-4.21727e+08

>  <Rbt.Current_Directory>
/root/miniconda3/envs/rdock/share/rxdock-2013.1.1_148c5bd1-0/data/ligands/prepped_ligands/Amentoflavone

>  <Rbt.Executable>
rbdock/0.1.0

>  <Rbt.Library>
librxdock.so/0.1.0

>  <Rbt.Parameter_File>
/root/miniconda3/envs/rdock/share/rxdock-2013.1.1_148c5bd1-0/data/scripts/dock.prm

>  <Rbt.Receptor>
def.prm

>  <SCORE>
-13.8729

>  <SCORE.INTER>
-16.3309

>  <SCORE.INTER.CONST>
1

>  <SCORE.INTER.POLAR>
-0.51834

>  <SCORE.INTER.REPUL>
0.296916

>  <SCORE.INTER.ROT>
3

>  <SCORE.INTER.VDW>
-24.4531

>  <SCORE.INTER.norm>
-0.408272

>  <SCORE.INTRA>
2.81444

>  <SCORE.INTRA.DIHEDRAL>
8.49772

>  <SCORE.INTRA.DIHEDRAL.0>
7.26727

>  <SCORE.INTRA.POLAR>
0

>  <SCORE.INTRA.POLAR.0>
0

>  <SCORE.INTRA.REPUL>
0

>  <SCORE.INTRA.REPUL.0>
0

>  <SCORE.INTRA.VDW>
-1.43442

>  <SCORE.INTRA.VDW.0>
0.367007

>  <SCORE.INTRA.norm>
0.070361

>  <SCORE.RESTR>
0.55041

>  <SCORE.RESTR.CAVITY>
0.55041

>  <SCORE.RESTR.norm>
0.0137603

>  <SCORE.SYSTEM>
-0.90693

>  <SCORE.SYSTEM.CONST>
0

>  <SCORE.SYSTEM.DIHEDRAL>
0.373049

>  <SCORE.SYSTEM.VDW>
-1.09345

>  <SCORE.SYSTEM.norm>
-0.0226732

>  <SCORE.heavy>
40

>  <SCORE.norm>
-0.346824

$$$$
5281600
  RxDock  02242101063D
librxdock.so/0.1.0
 46 51  0  0  0  0  0  0  0  0999 V2000
  -46.8418   -0.6001   18.9317 O   0  0  0  0  0  0
  -48.1847   -5.3256   16.9440 O   0  0  0  0  0  0
  -42.6789   -2.3853   17.4487 O   0  0  0  0  0  0
  -43.8676   -0.9141   15.5625 O   0  0  0  0  0  0
  -42.8059   -0.0316   21.5551 O   0  0  0  0  0  0
  -45.1318    0.9274   22.2995 O   0  0  0  0  0  0
  -52.8124   -6.6770   16.4402 O   0  0  0  0  0  0
  -51.8597   -4.4579   15.4141 O   0  0  0  0  0  0
  -49.7502   -9.3717   18.8726 O   0  0  0  0  0  0
  -53.0357    0.6196   18.5598 O   0  0  0  0  0  0
  -44.7804   -1.4858   18.1963 C   0  0  0  0  0  0
  -45.5004   -0.7769   19.1582 C   0  0  0  0  0  0
  -45.4430   -2.0060   17.0126 C   0  0  0  0  0  0
  -44.8527   -0.2825   20.2890 C   0  0  0  0  0  0
  -47.2182   -3.3208   16.0421 C   0  0  0  0  0  0
  -46.5676   -2.8136   17.1670 C   0  0  0  0  0  0
  -43.4125   -1.6978   18.3706 C   0  0  0  0  0  0
  -44.9654   -1.7031   15.7395 C   0  0  0  0  0  0
  -43.4833   -0.4923   20.4672 C   0  0  0  0  0  0
  -48.4107   -4.1771   16.2007 C   0  0  0  0  0  0
  -42.7657   -1.2021   19.5037 C   0  0  0  0  0  0
  -47.5847    0.0949   19.8741 C   0  0  0  0  0  0
  -45.6357    0.4630   21.2862 C   0  0  0  0  0  0
  -46.7425   -3.0189   14.7661 C   0  0  0  0  0  0
  -45.6160   -2.2103   14.6146 C   0  0  0  0  0  0
  -47.0751    0.6241   20.9977 C   0  0  0  0  0  0
  -50.5143   -5.9506   16.6575 C   0  0  0  0  0  0
  -49.2329   -6.1856   17.1531 C   0  0  0  0  0  0
  -49.0139    0.2322   19.5287 C   0  0  0  0  0  0
  -49.5993   -3.8374   15.6773 C   0  0  0  0  0  0
  -50.7600   -4.7289   15.8762 C   0  0  0  0  0  0
  -51.5444   -6.8615   16.9021 C   0  0  0  0  0  0
  -48.9738   -7.3360   17.8987 C   0  0  0  0  0  0
  -49.9138   -0.7880   19.8470 C   0  0  0  0  0  0
  -49.4725    1.3830   18.8832 C   0  0  0  0  0  0
  -50.0000   -8.2483   18.1451 C   0  0  0  0  0  0
  -51.2824   -8.0115   17.6477 C   0  0  0  0  0  0
  -51.2640   -0.6581   19.5215 C   0  0  0  0  0  0
  -50.8227    1.5131   18.5578 C   0  0  0  0  0  0
  -51.7184    0.4924   18.8769 C   0  0  0  0  0  0
  -42.1722   -3.0828   17.8987 H   0  0  0  0  0  0
  -43.1749   -1.1861   16.1886 H   0  0  0  0  0  0
  -43.4228    0.3075   22.2216 H   0  0  0  0  0  0
  -53.4587   -7.0346   17.0682 H   0  0  0  0  0  0
  -49.1208   -9.9302   18.3846 H   0  0  0  0  0  0
  -53.1761    1.4846   18.1372 H   0  0  0  0  0  0
  1 12  1  0  0  0
  1 22  1  0  0  0
  2 20  1  0  0  0
  2 28  1  0  0  0
  3 17  1  0  0  0
  3 41  1  0  0  0
  4 18  1  0  0  0
  4 42  1  0  0  0
  5 19  1  0  0  0
  5 43  1  0  0  0
  6 23  2  0  0  0
  7 32  1  0  0  0
  7 44  1  0  0  0
  8 31  2  0  0  0
  9 36  1  0  0  0
  9 45  1  0  0  0
 10 40  1  0  0  0
 10 46  1  0  0  0
 11 12  1  0  0  0
 11 13  1  0  0  0
 11 17  2  0  0  0
 12 14  2  0  0  0
 13 16  1  0  0  0
 13 18  2  0  0  0
 14 19  1  0  0  0
 14 23  1  0  0  0
 15 16  2  0  0  0
 15 20  1  0  0  0
 15 24  1  0  0  0
 17 21  1  0  0  0
 18 25  1  0  0  0
 19 21  2  0  0  0
 20 30  2  0  0  0
 22 26  2  0  0  0
 22 29  1  0  0  0
 23 26  1  0  0  0
 24 25  2  0  0  0
 27 28  1  0  0  0
 27 31  1  0  0  0
 27 32  2  0  0  0
 28 33  2  0  0  0
 29 34  2  0  0  0
 29 35  1  0  0  0
 30 31  1  0  0  0
 32 37  1  0  0  0
 33 36  1  0  0  0
 34 38  1  0  0  0
 35 39  2  0  0  0
 36 37  2  0  0  0
 38 40  2  0  0  0
 39 40  1  0  0  0
M  END
>  <CHROM.0>
171.22666908,177.48303915,56.65268360

>  <CHROM.1>
-128.89985278,44.45554235,9.59366502,-146.33865262,-64.65688789,178.73720317
-53.75051583,-58.71352704,84.91135481,-47.78097103,-2.55223233,18.08125436
0.83067269,0.02260460,0.42829597

>  <Name>
5281600

>  <PUBCHEM_ATOM_DEF_STEREO_COUNT>
0

>  <PUBCHEM_ATOM_UDEF_STEREO_COUNT>
0

>  <PUBCHEM_BOND_DEF_STEREO_COUNT>
0

>  <PUBCHEM_BOND_UDEF_STEREO_COUNT>
0

>  <PUBCHEM_CACTVS_TAUTO_COUNT>
994

>  <PUBCHEM_COMPONENT_COUNT>
1

>  <PUBCHEM_COMPOUND_CID>
5281600

>  <PUBCHEM_CONFORMER_DIVERSEORDER>
1
12
7
6
5
11
9
4
8
3
2
10

>  <PUBCHEM_CONFORMER_ID>
0050974000000001

>  <PUBCHEM_CONFORMER_RMSD>
0.8

>  <PUBCHEM_COORDINATE_TYPE>
2
5
10

>  <PUBCHEM_EFFECTIVE_ROTOR_COUNT>
3

>  <PUBCHEM_FEATURE_SELFOVERLAP>
81.26

>  <PUBCHEM_HEAVY_ATOM_COUNT>
40

>  <PUBCHEM_ISOTOPIC_ATOM_COUNT>
0

>  <PUBCHEM_MMFF94_ENERGY>
134.7783

>  <PUBCHEM_MMFF94_PARTIAL_CHARGES>
56
1 -0.16
10 -0.53
12 0.08
14 0.09
15 0.03
16 -0.15
17 0.08
18 0.08
19 0.08
2 -0.16
20 0.05
21 -0.15
22 0.05
23 0.47
24 -0.15
25 -0.15
26 -0.14
27 0.09
28 0.08
29 0.03
3 -0.53
30 -0.14
31 0.47
32 0.08
33 -0.15
34 -0.15
35 -0.15
36 0.08
37 -0.15
38 -0.15
39 -0.15
4 -0.53
40 0.08
41 0.15
42 0.15
43 0.15
44 0.15
45 0.15
46 0.15
47 0.15
48 0.15
49 0.15
5 -0.53
50 0.45
51 0.15
52 0.45
53 0.45
54 0.15
55 0.15
56 0.45
57 0.45
58 0.45
6 -0.57
7 -0.53
8 -0.57
9 -0.53

>  <PUBCHEM_PHARMACOPHORE_FEATURES>
16
1 1 acceptor
1 10 donor
1 2 acceptor
1 3 donor
1 4 donor
1 5 donor
1 6 acceptor
1 7 donor
1 8 acceptor
1 9 donor
6 1 12 14 22 23 26 rings
6 11 12 14 17 19 21 rings
6 13 15 16 18 24 25 rings
6 2 20 27 28 30 31 rings
6 27 28 32 33 36 37 rings
6 29 34 35 38 39 40 rings

>  <PUBCHEM_SHAPE_FINGERPRINT>
10074138 170 18272931639651384535
10462674 125 17618475011381580750
10622 236 18044087084485364727
10928967 22 18186794777961395306
11135926 11 16589159410442702964
11434127 23 16988854868850209122
11552529 35 18337099142617264300
12128747 34 17416426289408154158
12422481 6 17970917660810484883
12559416 138 17458053868550942330
131258 38 17040625661602271054
14040221 299 18130520668696863620
14068700 675 18126558149519363943
14395042 24 18339370777318689755
14674994 50 18189596350705326935
14705955 166 17345771702192931481
14856354 85 18343864420652166036
14950920 106 18341324578619618192
15320294 125 18260278451476051767
15361156 5 15359116841693389420
15484559 13 15440400299685403118
16728300 4 17967823739013222547
19319366 153 16671943977149260761
20554085 129 18057606456813237473
20775530 9 17974003148226375983
21033648 29 17986692393200921257
21133410 221 17108453988390366882
23516275 137 17830492447455348050
3882209 13 17628068207685272503
4394409 98 18410292537089562351
44880168 125 18338798914801616118
484985 159 18337095835418697607
50080093 196 18113889468875184482
5085150 59 18337387146281907241
5171179 24 16967460284478114997
581034 39 18412830166090923426

>  <PUBCHEM_SHAPE_MULTIPOLES>
764.49
14.59
6.24
3.18
25.21
8.64
-0.18
2.69
-10.24
-12.46
1.99
1.74
-0.93
-5.25

>  <PUBCHEM_SHAPE_SELFOVERLAP>
1749.357

>  <PUBCHEM_SHAPE_VOLUME>
392.9

>  <RI>
-4.21727e+08

>  <Rbt.Current_Directory>
/root/miniconda3/envs/rdock/share/rxdock-2013.1.1_148c5bd1-0/data/ligands/prepped_ligands/Amentoflavone

>  <Rbt.Executable>
rbdock/0.1.0

>  <Rbt.Library>
librxdock.so/0.1.0

>  <Rbt.Parameter_File>
/root/miniconda3/envs/rdock/share/rxdock-2013.1.1_148c5bd1-0/data/scripts/dock.prm

>  <Rbt.Receptor>
def.prm

>  <SCORE>
-13.7822

>  <SCORE.INTER>
-16.1907

>  <SCORE.INTER.CONST>
1

>  <SCORE.INTER.POLAR>
-0.379903

>  <SCORE.INTER.REPUL>
0.0947771

>  <SCORE.INTER.ROT>
3

>  <SCORE.INTER.VDW>
-23.773

>  <SCORE.INTER.norm>
-0.404769

>  <SCORE.INTRA>
2.81282

>  <SCORE.INTRA.DIHEDRAL>
14.9443

>  <SCORE.INTRA.DIHEDRAL.0>
7.26727

>  <SCORE.INTRA.POLAR>
-0.920478

>  <SCORE.INTRA.POLAR.0>
0

>  <SCORE.INTRA.REPUL>
0

>  <SCORE.INTRA.REPUL.0>
0

>  <SCORE.INTRA.VDW>
-1.5297

>  <SCORE.INTRA.VDW.0>
0.367007

>  <SCORE.INTRA.norm>
0.0703206

>  <SCORE.RESTR>
0.506488

>  <SCORE.RESTR.CAVITY>
0.506488

>  <SCORE.RESTR.norm>
0.0126622

>  <SCORE.SYSTEM>
-0.910721

>  <SCORE.SYSTEM.CONST>
0

>  <SCORE.SYSTEM.DIHEDRAL>
0.254561

>  <SCORE.SYSTEM.VDW>
-1.038

>  <SCORE.SYSTEM.norm>
-0.022768

>  <SCORE.heavy>
40

>  <SCORE.norm>
-0.344554

$$$$
5281600
  RxDock  02242101063D
librxdock.so/0.1.0
 46 51  0  0  0  0  0  0  0  0999 V2000
  -47.0982   -0.6473   18.9236 O   0  0  0  0  0  0
  -47.7421   -5.6482   16.9353 O   0  0  0  0  0  0
  -42.7500   -1.6680   17.2600 O   0  0  0  0  0  0
  -44.1764   -0.6550   15.4049 O   0  0  0  0  0  0
  -43.1197    0.8004   21.2836 O   0  0  0  0  0  0
  -45.5461    1.3292   22.1304 O   0  0  0  0  0  0
  -52.2412   -7.4448   17.0957 O   0  0  0  0  0  0
  -51.7054   -5.0289   16.2231 O   0  0  0  0  0  0
  -48.5401  -10.0404   18.5517 O   0  0  0  0  0  0
  -53.4206   -0.6552   18.8701 O   0  0  0  0  0  0
  -44.9448   -1.1545   18.0989 C   0  0  0  0  0  0
  -45.7382   -0.5539   19.0766 C   0  0  0  0  0  0
  -45.5539   -1.8446   16.9748 C   0  0  0  0  0  0
  -45.1413    0.1058   20.1496 C   0  0  0  0  0  0
  -47.1499   -3.4565   16.1524 C   0  0  0  0  0  0
  -46.5521   -2.7852   17.2190 C   0  0  0  0  0  0
  -43.5546   -1.0927   18.1995 C   0  0  0  0  0  0
  -45.1502   -1.5720   15.6697 C   0  0  0  0  0  0
  -43.7500    0.1701   20.2539 C   0  0  0  0  0  0
  -48.2084   -4.4543   16.4063 C   0  0  0  0  0  0
  -42.9588   -0.4320   19.2748 C   0  0  0  0  0  0
  -47.9123   -0.0656   19.8836 C   0  0  0  0  0  0
  -46.0017    0.7318   21.1651 C   0  0  0  0  0  0
  -46.7479   -3.1854   14.8445 C   0  0  0  0  0  0
  -45.7479   -2.2433   14.6030 C   0  0  0  0  0  0
  -47.4580    0.6014   20.9564 C   0  0  0  0  0  0
  -50.0182   -6.4942   16.9914 C   0  0  0  0  0  0
  -48.6495   -6.6391   17.2120 C   0  0  0  0  0  0
  -49.3569   -0.2199   19.6186 C   0  0  0  0  0  0
  -49.5011   -4.1924   16.1561 C   0  0  0  0  0  0
  -50.5176   -5.2259   16.4389 C   0  0  0  0  0  0
  -50.8967   -7.5374   17.2926 C   0  0  0  0  0  0
  -48.1503   -7.8314   17.7369 C   0  0  0  0  0  0
  -50.0659    0.8003   18.9798 C   0  0  0  0  0  0
  -50.0205   -1.3870   20.0046 C   0  0  0  0  0  0
  -49.0244   -8.8758   18.0389 C   0  0  0  0  0  0
  -50.3946   -8.7290   17.8171 C   0  0  0  0  0  0
  -51.4303    0.6544   18.7287 C   0  0  0  0  0  0
  -51.3847   -1.5331   19.7534 C   0  0  0  0  0  0
  -52.0897   -0.5123   19.1154 C   0  0  0  0  0  0
  -42.0453   -2.1686   17.7056 H   0  0  0  0  0  0
  -44.0546   -0.5879   14.4424 H   0  0  0  0  0  0
  -43.7486    1.3366   21.7903 H   0  0  0  0  0  0
  -52.4795   -7.7732   16.2151 H   0  0  0  0  0  0
  -47.5758  -10.0635   18.4260 H   0  0  0  0  0  0
  -53.6338   -1.6036   18.8301 H   0  0  0  0  0  0
  1 12  1  0  0  0
  1 22  1  0  0  0
  2 20  1  0  0  0
  2 28  1  0  0  0
  3 17  1  0  0  0
  3 41  1  0  0  0
  4 18  1  0  0  0
  4 42  1  0  0  0
  5 19  1  0  0  0
  5 43  1  0  0  0
  6 23  2  0  0  0
  7 32  1  0  0  0
  7 44  1  0  0  0
  8 31  2  0  0  0
  9 36  1  0  0  0
  9 45  1  0  0  0
 10 40  1  0  0  0
 10 46  1  0  0  0
 11 12  1  0  0  0
 11 13  1  0  0  0
 11 17  2  0  0  0
 12 14  2  0  0  0
 13 16  1  0  0  0
 13 18  2  0  0  0
 14 19  1  0  0  0
 14 23  1  0  0  0
 15 16  2  0  0  0
 15 20  1  0  0  0
 15 24  1  0  0  0
 17 21  1  0  0  0
 18 25  1  0  0  0
 19 21  2  0  0  0
 20 30  2  0  0  0
 22 26  2  0  0  0
 22 29  1  0  0  0
 23 26  1  0  0  0
 24 25  2  0  0  0
 27 28  1  0  0  0
 27 31  1  0  0  0
 27 32  2  0  0  0
 28 33  2  0  0  0
 29 34  2  0  0  0
 29 35  1  0  0  0
 30 31  1  0  0  0
 32 37  1  0  0  0
 33 36  1  0  0  0
 34 38  1  0  0  0
 35 39  2  0  0  0
 36 37  2  0  0  0
 38 40  2  0  0  0
 39 40  1  0  0  0
M  END
>  <CHROM.0>
-60.39247665,-64.82443684,-57.55199844

>  <CHROM.1>
-134.08478690,-178.38246175,-12.27931037,91.64666164,-14.62984766,155.51010854
-49.75445919,-73.47244540,-96.08627904,-47.75889070,-2.73806501,18.14134438
0.95153545,0.15975446,0.41248364

>  <Name>
5281600

>  <PUBCHEM_ATOM_DEF_STEREO_COUNT>
0

>  <PUBCHEM_ATOM_UDEF_STEREO_COUNT>
0

>  <PUBCHEM_BOND_DEF_STEREO_COUNT>
0

>  <PUBCHEM_BOND_UDEF_STEREO_COUNT>
0

>  <PUBCHEM_CACTVS_TAUTO_COUNT>
994

>  <PUBCHEM_COMPONENT_COUNT>
1

>  <PUBCHEM_COMPOUND_CID>
5281600

>  <PUBCHEM_CONFORMER_DIVERSEORDER>
1
12
7
6
5
11
9
4
8
3
2
10

>  <PUBCHEM_CONFORMER_ID>
0050974000000001

>  <PUBCHEM_CONFORMER_RMSD>
0.8

>  <PUBCHEM_COORDINATE_TYPE>
2
5
10

>  <PUBCHEM_EFFECTIVE_ROTOR_COUNT>
3

>  <PUBCHEM_FEATURE_SELFOVERLAP>
81.26

>  <PUBCHEM_HEAVY_ATOM_COUNT>
40

>  <PUBCHEM_ISOTOPIC_ATOM_COUNT>
0

>  <PUBCHEM_MMFF94_ENERGY>
134.7783

>  <PUBCHEM_MMFF94_PARTIAL_CHARGES>
56
1 -0.16
10 -0.53
12 0.08
14 0.09
15 0.03
16 -0.15
17 0.08
18 0.08
19 0.08
2 -0.16
20 0.05
21 -0.15
22 0.05
23 0.47
24 -0.15
25 -0.15
26 -0.14
27 0.09
28 0.08
29 0.03
3 -0.53
30 -0.14
31 0.47
32 0.08
33 -0.15
34 -0.15
35 -0.15
36 0.08
37 -0.15
38 -0.15
39 -0.15
4 -0.53
40 0.08
41 0.15
42 0.15
43 0.15
44 0.15
45 0.15
46 0.15
47 0.15
48 0.15
49 0.15
5 -0.53
50 0.45
51 0.15
52 0.45
53 0.45
54 0.15
55 0.15
56 0.45
57 0.45
58 0.45
6 -0.57
7 -0.53
8 -0.57
9 -0.53

>  <PUBCHEM_PHARMACOPHORE_FEATURES>
16
1 1 acceptor
1 10 donor
1 2 acceptor
1 3 donor
1 4 donor
1 5 donor
1 6 acceptor
1 7 donor
1 8 acceptor
1 9 donor
6 1 12 14 22 23 26 rings
6 11 12 14 17 19 21 rings
6 13 15 16 18 24 25 rings
6 2 20 27 28 30 31 rings
6 27 28 32 33 36 37 rings
6 29 34 35 38 39 40 rings

>  <PUBCHEM_SHAPE_FINGERPRINT>
10074138 170 18272931639651384535
10462674 125 17618475011381580750
10622 236 18044087084485364727
10928967 22 18186794777961395306
11135926 11 16589159410442702964
11434127 23 16988854868850209122
11552529 35 18337099142617264300
12128747 34 17416426289408154158
12422481 6 17970917660810484883
12559416 138 17458053868550942330
131258 38 17040625661602271054
14040221 299 18130520668696863620
14068700 675 18126558149519363943
14395042 24 18339370777318689755
14674994 50 18189596350705326935
14705955 166 17345771702192931481
14856354 85 18343864420652166036
14950920 106 18341324578619618192
15320294 125 18260278451476051767
15361156 5 15359116841693389420
15484559 13 15440400299685403118
16728300 4 17967823739013222547
19319366 153 16671943977149260761
20554085 129 18057606456813237473
20775530 9 17974003148226375983
21033648 29 17986692393200921257
21133410 221 17108453988390366882
23516275 137 17830492447455348050
3882209 13 17628068207685272503
4394409 98 18410292537089562351
44880168 125 18338798914801616118
484985 159 18337095835418697607
50080093 196 18113889468875184482
5085150 59 18337387146281907241
5171179 24 16967460284478114997
581034 39 18412830166090923426

>  <PUBCHEM_SHAPE_MULTIPOLES>
764.49
14.59
6.24
3.18
25.21
8.64
-0.18
2.69
-10.24
-12.46
1.99
1.74
-0.93
-5.25

>  <PUBCHEM_SHAPE_SELFOVERLAP>
1749.357

>  <PUBCHEM_SHAPE_VOLUME>
392.9

>  <RI>
-4.21727e+08

>  <Rbt.Current_Directory>
/root/miniconda3/envs/rdock/share/rxdock-2013.1.1_148c5bd1-0/data/ligands/prepped_ligands/Amentoflavone

>  <Rbt.Executable>
rbdock/0.1.0

>  <Rbt.Library>
librxdock.so/0.1.0

>  <Rbt.Parameter_File>
/root/miniconda3/envs/rdock/share/rxdock-2013.1.1_148c5bd1-0/data/scripts/dock.prm

>  <Rbt.Receptor>
def.prm

>  <SCORE>
-12.0701

>  <SCORE.INTER>
-16.651

>  <SCORE.INTER.CONST>
1

>  <SCORE.INTER.POLAR>
-1.06904

>  <SCORE.INTER.REPUL>
0.000591258

>  <SCORE.INTER.ROT>
3

>  <SCORE.INTER.VDW>
-21.4192

>  <SCORE.INTER.norm>
-0.416274

>  <SCORE.INTRA>
5.18287

>  <SCORE.INTRA.DIHEDRAL>
13.325

>  <SCORE.INTRA.DIHEDRAL.0>
7.26727

>  <SCORE.INTRA.POLAR>
0

>  <SCORE.INTRA.POLAR.0>
0

>  <SCORE.INTRA.REPUL>
0

>  <SCORE.INTRA.REPUL.0>
0

>  <SCORE.INTRA.VDW>
-1.47962

>  <SCORE.INTRA.VDW.0>
0.367007

>  <SCORE.INTRA.norm>
0.129572

>  <SCORE.RESTR>
0.437705

>  <SCORE.RESTR.CAVITY>
0.437705

>  <SCORE.RESTR.norm>
0.0109426

>  <SCORE.SYSTEM>
-1.03968

>  <SCORE.SYSTEM.CONST>
0

>  <SCORE.SYSTEM.DIHEDRAL>
0.127894

>  <SCORE.SYSTEM.POLAR>
-0.00657681

>  <SCORE.SYSTEM.VDW>
-1.08126

>  <SCORE.SYSTEM.norm>
-0.0259919

>  <SCORE.heavy>
40

>  <SCORE.norm>
-0.301751

$$$$
5281600
  RxDock  02242101063D
librxdock.so/0.1.0
 46 51  0  0  0  0  0  0  0  0999 V2000
  -46.8454   -0.5760   18.8950 O   0  0  0  0  0  0
  -48.1257   -5.3892   17.1715 O   0  0  0  0  0  0
  -42.7139   -2.4124   17.3867 O   0  0  0  0  0  0
  -44.0164   -0.8880   15.4779 O   0  0  0  0  0  0
  -42.7598    0.0606   21.4242 O   0  0  0  0  0  0
  -45.0699    1.0456   22.1839 O   0  0  0  0  0  0
  -52.6451   -7.0642   16.6558 O   0  0  0  0  0  0
  -51.7791   -4.9101   15.4332 O   0  0  0  0  0  0
  -49.5357   -9.3004   19.4641 O   0  0  0  0  0  0
  -53.0424    0.6428   18.5988 O   0  0  0  0  0  0
  -44.7995   -1.4871   18.1471 C   0  0  0  0  0  0
  -45.5002   -0.7489   19.1013 C   0  0  0  0  0  0
  -45.4852   -2.0403   16.9918 C   0  0  0  0  0  0
  -44.8305   -0.2230   20.2047 C   0  0  0  0  0  0
  -47.2389   -3.4341   16.0954 C   0  0  0  0  0  0
  -46.5671   -2.8947   17.1925 C   0  0  0  0  0  0
  -43.4289   -1.6967   18.3018 C   0  0  0  0  0  0
  -45.0715   -1.7226   15.7001 C   0  0  0  0  0  0
  -43.4583   -0.4303   20.3631 C   0  0  0  0  0  0
  -48.3863   -4.3402   16.3032 C   0  0  0  0  0  0
  -42.7601   -1.1695   19.4075 C   0  0  0  0  0  0
  -47.5693    0.1477   19.8304 C   0  0  0  0  0  0
  -45.5934    0.5529   21.1943 C   0  0  0  0  0  0
  -46.8272   -3.1176   14.8009 C   0  0  0  0  0  0
  -45.7433   -2.2620   14.6031 C   0  0  0  0  0  0
  -47.0378    0.7085   20.9282 C   0  0  0  0  0  0
  -50.4026   -6.1809   16.8733 C   0  0  0  0  0  0
  -49.1310   -6.2849   17.4347 C   0  0  0  0  0  0
  -49.0045    0.2778   19.5082 C   0  0  0  0  0  0
  -49.5702   -4.1295   15.7063 C   0  0  0  0  0  0
  -50.6854   -5.0643   15.9588 C   0  0  0  0  0  0
  -51.3884   -7.1223   17.1779 C   0  0  0  0  0  0
  -48.8374   -7.3336   18.3067 C   0  0  0  0  0  0
  -49.4760    1.4183   18.8533 C   0  0  0  0  0  0
  -49.8969   -0.7391   19.8559 C   0  0  0  0  0  0
  -49.8192   -8.2760   18.6133 C   0  0  0  0  0  0
  -51.0919   -8.1705   18.0500 C   0  0  0  0  0  0
  -50.8317    1.5410   18.5482 C   0  0  0  0  0  0
  -51.2525   -0.6166   19.5507 C   0  0  0  0  0  0
  -51.7199    0.5236   18.8969 C   0  0  0  0  0  0
  -43.2502   -3.1623   17.0773 H   0  0  0  0  0  0
  -44.1155   -0.4744   14.6033 H   0  0  0  0  0  0
  -41.9788   -0.4862   21.5997 H   0  0  0  0  0  0
  -53.1561   -7.8475   16.9112 H   0  0  0  0  0  0
  -50.2075   -9.9955   19.3561 H   0  0  0  0  0  0
  -53.4948   -0.1850   18.8361 H   0  0  0  0  0  0
  1 12  1  0  0  0
  1 22  1  0  0  0
  2 20  1  0  0  0
  2 28  1  0  0  0
  3 17  1  0  0  0
  3 41  1  0  0  0
  4 18  1  0  0  0
  4 42  1  0  0  0
  5 19  1  0  0  0
  5 43  1  0  0  0
  6 23  2  0  0  0
  7 32  1  0  0  0
  7 44  1  0  0  0
  8 31  2  0  0  0
  9 36  1  0  0  0
  9 45  1  0  0  0
 10 40  1  0  0  0
 10 46  1  0  0  0
 11 12  1  0  0  0
 11 13  1  0  0  0
 11 17  2  0  0  0
 12 14  2  0  0  0
 13 16  1  0  0  0
 13 18  2  0  0  0
 14 19  1  0  0  0
 14 23  1  0  0  0
 15 16  2  0  0  0
 15 20  1  0  0  0
 15 24  1  0  0  0
 17 21  1  0  0  0
 18 25  1  0  0  0
 19 21  2  0  0  0
 20 30  2  0  0  0
 22 26  2  0  0  0
 22 29  1  0  0  0
 23 26  1  0  0  0
 24 25  2  0  0  0
 27 28  1  0  0  0
 27 31  1  0  0  0
 27 32  2  0  0  0
 28 33  2  0  0  0
 29 34  2  0  0  0
 29 35  1  0  0  0
 30 31  1  0  0  0
 32 37  1  0  0  0
 33 36  1  0  0  0
 34 38  1  0  0  0
 35 39  2  0  0  0
 36 37  2  0  0  0
 38 40  2  0  0  0
 39 40  1  0  0  0
M  END
>  <CHROM.0>
49.45276671,-61.66289016,-174.92237232

>  <CHROM.1>
-38.44780518,-154.80232877,153.60464454,174.31732301,-162.67917291,174.76850727
-56.93671107,-51.34396827,-95.95807269,-47.75380689,-2.60470577,18.13606880
0.85878271,0.04084064,0.38102256

>  <Name>
5281600

>  <PUBCHEM_ATOM_DEF_STEREO_COUNT>
0

>  <PUBCHEM_ATOM_UDEF_STEREO_COUNT>
0

>  <PUBCHEM_BOND_DEF_STEREO_COUNT>
0

>  <PUBCHEM_BOND_UDEF_STEREO_COUNT>
0

>  <PUBCHEM_CACTVS_TAUTO_COUNT>
994

>  <PUBCHEM_COMPONENT_COUNT>
1

>  <PUBCHEM_COMPOUND_CID>
5281600

>  <PUBCHEM_CONFORMER_DIVERSEORDER>
1
12
7
6
5
11
9
4
8
3
2
10

>  <PUBCHEM_CONFORMER_ID>
0050974000000001

>  <PUBCHEM_CONFORMER_RMSD>
0.8

>  <PUBCHEM_COORDINATE_TYPE>
2
5
10

>  <PUBCHEM_EFFECTIVE_ROTOR_COUNT>
3

>  <PUBCHEM_FEATURE_SELFOVERLAP>
81.26

>  <PUBCHEM_HEAVY_ATOM_COUNT>
40

>  <PUBCHEM_ISOTOPIC_ATOM_COUNT>
0

>  <PUBCHEM_MMFF94_ENERGY>
134.7783

>  <PUBCHEM_MMFF94_PARTIAL_CHARGES>
56
1 -0.16
10 -0.53
12 0.08
14 0.09
15 0.03
16 -0.15
17 0.08
18 0.08
19 0.08
2 -0.16
20 0.05
21 -0.15
22 0.05
23 0.47
24 -0.15
25 -0.15
26 -0.14
27 0.09
28 0.08
29 0.03
3 -0.53
30 -0.14
31 0.47
32 0.08
33 -0.15
34 -0.15
35 -0.15
36 0.08
37 -0.15
38 -0.15
39 -0.15
4 -0.53
40 0.08
41 0.15
42 0.15
43 0.15
44 0.15
45 0.15
46 0.15
47 0.15
48 0.15
49 0.15
5 -0.53
50 0.45
51 0.15
52 0.45
53 0.45
54 0.15
55 0.15
56 0.45
57 0.45
58 0.45
6 -0.57
7 -0.53
8 -0.57
9 -0.53

>  <PUBCHEM_PHARMACOPHORE_FEATURES>
16
1 1 acceptor
1 10 donor
1 2 acceptor
1 3 donor
1 4 donor
1 5 donor
1 6 acceptor
1 7 donor
1 8 acceptor
1 9 donor
6 1 12 14 22 23 26 rings
6 11 12 14 17 19 21 rings
6 13 15 16 18 24 25 rings
6 2 20 27 28 30 31 rings
6 27 28 32 33 36 37 rings
6 29 34 35 38 39 40 rings

>  <PUBCHEM_SHAPE_FINGERPRINT>
10074138 170 18272931639651384535
10462674 125 17618475011381580750
10622 236 18044087084485364727
10928967 22 18186794777961395306
11135926 11 16589159410442702964
11434127 23 16988854868850209122
11552529 35 18337099142617264300
12128747 34 17416426289408154158
12422481 6 17970917660810484883
12559416 138 17458053868550942330
131258 38 17040625661602271054
14040221 299 18130520668696863620
14068700 675 18126558149519363943
14395042 24 18339370777318689755
14674994 50 18189596350705326935
14705955 166 17345771702192931481
14856354 85 18343864420652166036
14950920 106 18341324578619618192
15320294 125 18260278451476051767
15361156 5 15359116841693389420
15484559 13 15440400299685403118
16728300 4 17967823739013222547
19319366 153 16671943977149260761
20554085 129 18057606456813237473
20775530 9 17974003148226375983
21033648 29 17986692393200921257
21133410 221 17108453988390366882
23516275 137 17830492447455348050
3882209 13 17628068207685272503
4394409 98 18410292537089562351
44880168 125 18338798914801616118
484985 159 18337095835418697607
50080093 196 18113889468875184482
5085150 59 18337387146281907241
5171179 24 16967460284478114997
581034 39 18412830166090923426

>  <PUBCHEM_SHAPE_MULTIPOLES>
764.49
14.59
6.24
3.18
25.21
8.64
-0.18
2.69
-10.24
-12.46
1.99
1.74
-0.93
-5.25

>  <PUBCHEM_SHAPE_SELFOVERLAP>
1749.357

>  <PUBCHEM_SHAPE_VOLUME>
392.9

>  <RI>
-4.21727e+08

>  <Rbt.Current_Directory>
/root/miniconda3/envs/rdock/share/rxdock-2013.1.1_148c5bd1-0/data/ligands/prepped_ligands/Amentoflavone

>  <Rbt.Executable>
rbdock/0.1.0

>  <Rbt.Library>
librxdock.so/0.1.0

>  <Rbt.Parameter_File>
/root/miniconda3/envs/rdock/share/rxdock-2013.1.1_148c5bd1-0/data/scripts/dock.prm

>  <Rbt.Receptor>
def.prm

>  <SCORE>
-14.7095

>  <SCORE.INTER>
-17.0544

>  <SCORE.INTER.CONST>
1

>  <SCORE.INTER.POLAR>
-0.818713

>  <SCORE.INTER.REPUL>
0.0644173

>  <SCORE.INTER.ROT>
3

>  <SCORE.INTER.VDW>
-22.9928

>  <SCORE.INTER.norm>
-0.426359

>  <SCORE.INTRA>
2.68271

>  <SCORE.INTRA.DIHEDRAL>
7.98828

>  <SCORE.INTRA.DIHEDRAL.0>
7.26727

>  <SCORE.INTRA.POLAR>
0

>  <SCORE.INTRA.POLAR.0>
0

>  <SCORE.INTRA.REPUL>
0

>  <SCORE.INTRA.REPUL.0>
0

>  <SCORE.INTRA.VDW>
-1.31143

>  <SCORE.INTRA.VDW.0>
0.367007

>  <SCORE.INTRA.norm>
0.0670677

>  <SCORE.RESTR>
0.539866

>  <SCORE.RESTR.CAVITY>
0.539866

>  <SCORE.RESTR.norm>
0.0134966

>  <SCORE.SYSTEM>
-0.877749

>  <SCORE.SYSTEM.CONST>
0

>  <SCORE.SYSTEM.DIHEDRAL>
0.347954

>  <SCORE.SYSTEM.POLAR>
-0.0123242

>  <SCORE.SYSTEM.VDW>
-1.00982

>  <SCORE.SYSTEM.norm>
-0.0219437

>  <SCORE.heavy>
40

>  <SCORE.norm>
-0.367739

$$$$
5281600
  RxDock  02242101063D
librxdock.so/0.1.0
 46 51  0  0  0  0  0  0  0  0999 V2000
  -47.2150   -1.5885   17.7083 O   0  0  0  0  0  0
  -52.1595   -3.5752   18.0516 O   0  0  0  0  0  0
  -47.1937   -0.4152   22.3277 O   0  0  0  0  0  0
  -48.9629    0.9386   21.1043 O   0  0  0  0  0  0
  -43.0835   -0.4589   19.9774 O   0  0  0  0  0  0
  -43.1765   -1.1223   17.4406 O   0  0  0  0  0  0
  -52.7434   -8.3462   17.4247 O   0  0  0  0  0  0
  -50.9735   -7.3356   19.0772 O   0  0  0  0  0  0
  -55.4057   -5.2395   15.0129 O   0  0  0  0  0  0
  -49.8505   -3.3484   12.2371 O   0  0  0  0  0  0
  -47.2060   -1.0065   19.9965 C   0  0  0  0  0  0
  -46.4954   -1.2115   18.8137 C   0  0  0  0  0  0
  -48.6468   -1.1900   20.0337 C   0  0  0  0  0  0
  -45.1132   -1.0328   18.7915 C   0  0  0  0  0  0
  -50.5742   -2.5545   19.5389 C   0  0  0  0  0  0
  -49.1933   -2.3598   19.5104 C   0  0  0  0  0  0
  -46.5293   -0.6223   21.1545 C   0  0  0  0  0  0
  -49.4739   -0.2140   20.5850 C   0  0  0  0  0  0
  -44.4319   -0.6484   19.9486 C   0  0  0  0  0  0
  -51.1581   -3.7929   18.9855 C   0  0  0  0  0  0
  -45.1453   -0.4436   21.1302 C   0  0  0  0  0  0
  -46.5363   -1.7929   16.5165 C   0  0  0  0  0  0
  -44.3888   -1.2575   17.5313 C   0  0  0  0  0  0
  -51.4048   -1.5792   20.0905 C   0  0  0  0  0  0
  -50.8548   -0.4087   20.6134 C   0  0  0  0  0  0
  -45.2085   -1.6595   16.3705 C   0  0  0  0  0  0
  -52.4066   -5.9762   17.7801 C   0  0  0  0  0  0
  -52.7624   -4.6638   17.4741 C   0  0  0  0  0  0
  -47.4048   -2.2012   15.3941 C   0  0  0  0  0  0
  -50.7231   -5.0071   19.3580 C   0  0  0  0  0  0
  -51.3385   -6.2110   18.7636 C   0  0  0  0  0  0
  -53.0548   -7.0468   17.1601 C   0  0  0  0  0  0
  -53.7711   -4.4139   16.5433 C   0  0  0  0  0  0
  -48.1972   -3.3468   15.5008 C   0  0  0  0  0  0
  -47.4384   -1.4433   14.2211 C   0  0  0  0  0  0
  -54.4211   -5.4804   15.9220 C   0  0  0  0  0  0
  -54.0637   -6.7940   16.2299 C   0  0  0  0  0  0
  -49.0181   -3.7322   14.4408 C   0  0  0  0  0  0
  -48.2594   -1.8284   13.1612 C   0  0  0  0  0  0
  -49.0493   -2.9730   13.2711 C   0  0  0  0  0  0
  -47.9367   -1.0396   22.3891 H   0  0  0  0  0  0
  -48.1377    1.1595   20.6396 H   0  0  0  0  0  0
  -42.8119   -0.0755   20.8253 H   0  0  0  0  0  0
  -51.7848   -8.4529   17.5238 H   0  0  0  0  0  0
  -55.6053   -6.0646   14.5380 H   0  0  0  0  0  0
  -49.9098   -2.6142   11.6016 H   0  0  0  0  0  0
  1 12  1  0  0  0
  1 22  1  0  0  0
  2 20  1  0  0  0
  2 28  1  0  0  0
  3 17  1  0  0  0
  3 41  1  0  0  0
  4 18  1  0  0  0
  4 42  1  0  0  0
  5 19  1  0  0  0
  5 43  1  0  0  0
  6 23  2  0  0  0
  7 32  1  0  0  0
  7 44  1  0  0  0
  8 31  2  0  0  0
  9 36  1  0  0  0
  9 45  1  0  0  0
 10 40  1  0  0  0
 10 46  1  0  0  0
 11 12  1  0  0  0
 11 13  1  0  0  0
 11 17  2  0  0  0
 12 14  2  0  0  0
 13 16  1  0  0  0
 13 18  2  0  0  0
 14 19  1  0  0  0
 14 23  1  0  0  0
 15 16  2  0  0  0
 15 20  1  0  0  0
 15 24  1  0  0  0
 17 21  1  0  0  0
 18 25  1  0  0  0
 19 21  2  0  0  0
 20 30  2  0  0  0
 22 26  2  0  0  0
 22 29  1  0  0  0
 23 26  1  0  0  0
 24 25  2  0  0  0
 27 28  1  0  0  0
 27 31  1  0  0  0
 27 32  2  0  0  0
 28 33  2  0  0  0
 29 34  2  0  0  0
 29 35  1  0  0  0
 30 31  1  0  0  0
 32 37  1  0  0  0
 33 36  1  0  0  0
 34 38  1  0  0  0
 35 39  2  0  0  0
 36 37  2  0  0  0
 38 40  2  0  0  0
 39 40  1  0  0  0
M  END
>  <CHROM.0>
73.12500536,74.83544310,-65.64572390

>  <CHROM.1>
34.39425286,29.15033264,171.92929562,-39.47880658,167.31596144,166.89424623
49.51700789,-126.99264321,-57.34290036,-49.13190146,-2.84875974,17.87801703
-0.43179258,-0.52073734,-1.81728998

>  <Name>
5281600

>  <PUBCHEM_ATOM_DEF_STEREO_COUNT>
0

>  <PUBCHEM_ATOM_UDEF_STEREO_COUNT>
0

>  <PUBCHEM_BOND_DEF_STEREO_COUNT>
0

>  <PUBCHEM_BOND_UDEF_STEREO_COUNT>
0

>  <PUBCHEM_CACTVS_TAUTO_COUNT>
994

>  <PUBCHEM_COMPONENT_COUNT>
1

>  <PUBCHEM_COMPOUND_CID>
5281600

>  <PUBCHEM_CONFORMER_DIVERSEORDER>
1
12
7
6
5
11
9
4
8
3
2
10

>  <PUBCHEM_CONFORMER_ID>
0050974000000001

>  <PUBCHEM_CONFORMER_RMSD>
0.8

>  <PUBCHEM_COORDINATE_TYPE>
2
5
10

>  <PUBCHEM_EFFECTIVE_ROTOR_COUNT>
3

>  <PUBCHEM_FEATURE_SELFOVERLAP>
81.26

>  <PUBCHEM_HEAVY_ATOM_COUNT>
40

>  <PUBCHEM_ISOTOPIC_ATOM_COUNT>
0

>  <PUBCHEM_MMFF94_ENERGY>
134.7783

>  <PUBCHEM_MMFF94_PARTIAL_CHARGES>
56
1 -0.16
10 -0.53
12 0.08
14 0.09
15 0.03
16 -0.15
17 0.08
18 0.08
19 0.08
2 -0.16
20 0.05
21 -0.15
22 0.05
23 0.47
24 -0.15
25 -0.15
26 -0.14
27 0.09
28 0.08
29 0.03
3 -0.53
30 -0.14
31 0.47
32 0.08
33 -0.15
34 -0.15
35 -0.15
36 0.08
37 -0.15
38 -0.15
39 -0.15
4 -0.53
40 0.08
41 0.15
42 0.15
43 0.15
44 0.15
45 0.15
46 0.15
47 0.15
48 0.15
49 0.15
5 -0.53
50 0.45
51 0.15
52 0.45
53 0.45
54 0.15
55 0.15
56 0.45
57 0.45
58 0.45
6 -0.57
7 -0.53
8 -0.57
9 -0.53

>  <PUBCHEM_PHARMACOPHORE_FEATURES>
16
1 1 acceptor
1 10 donor
1 2 acceptor
1 3 donor
1 4 donor
1 5 donor
1 6 acceptor
1 7 donor
1 8 acceptor
1 9 donor
6 1 12 14 22 23 26 rings
6 11 12 14 17 19 21 rings
6 13 15 16 18 24 25 rings
6 2 20 27 28 30 31 rings
6 27 28 32 33 36 37 rings
6 29 34 35 38 39 40 rings

>  <PUBCHEM_SHAPE_FINGERPRINT>
10074138 170 18272931639651384535
10462674 125 17618475011381580750
10622 236 18044087084485364727
10928967 22 18186794777961395306
11135926 11 16589159410442702964
11434127 23 16988854868850209122
11552529 35 18337099142617264300
12128747 34 17416426289408154158
12422481 6 17970917660810484883
12559416 138 17458053868550942330
131258 38 17040625661602271054
14040221 299 18130520668696863620
14068700 675 18126558149519363943
14395042 24 18339370777318689755
14674994 50 18189596350705326935
14705955 166 17345771702192931481
14856354 85 18343864420652166036
14950920 106 18341324578619618192
15320294 125 18260278451476051767
15361156 5 15359116841693389420
15484559 13 15440400299685403118
16728300 4 17967823739013222547
19319366 153 16671943977149260761
20554085 129 18057606456813237473
20775530 9 17974003148226375983
21033648 29 17986692393200921257
21133410 221 17108453988390366882
23516275 137 17830492447455348050
3882209 13 17628068207685272503
4394409 98 18410292537089562351
44880168 125 18338798914801616118
484985 159 18337095835418697607
50080093 196 18113889468875184482
5085150 59 18337387146281907241
5171179 24 16967460284478114997
581034 39 18412830166090923426

>  <PUBCHEM_SHAPE_MULTIPOLES>
764.49
14.59
6.24
3.18
25.21
8.64
-0.18
2.69
-10.24
-12.46
1.99
1.74
-0.93
-5.25

>  <PUBCHEM_SHAPE_SELFOVERLAP>
1749.357

>  <PUBCHEM_SHAPE_VOLUME>
392.9

>  <RI>
-4.21727e+08

>  <Rbt.Current_Directory>
/root/miniconda3/envs/rdock/share/rxdock-2013.1.1_148c5bd1-0/data/ligands/prepped_ligands/Amentoflavone

>  <Rbt.Executable>
rbdock/0.1.0

>  <Rbt.Library>
librxdock.so/0.1.0

>  <Rbt.Parameter_File>
/root/miniconda3/envs/rdock/share/rxdock-2013.1.1_148c5bd1-0/data/scripts/dock.prm

>  <Rbt.Receptor>
def.prm

>  <SCORE>
-10.3696

>  <SCORE.INTER>
-13.4183

>  <SCORE.INTER.CONST>
1

>  <SCORE.INTER.POLAR>
-0.938083

>  <SCORE.INTER.REPUL>
0.150551

>  <SCORE.INTER.ROT>
3

>  <SCORE.INTER.VDW>
-19.3816

>  <SCORE.INTER.norm>
-0.335459

>  <SCORE.INTRA>
2.60682

>  <SCORE.INTRA.DIHEDRAL>
7.15356

>  <SCORE.INTRA.DIHEDRAL.0>
7.26727

>  <SCORE.INTRA.POLAR>
0

>  <SCORE.INTRA.POLAR.0>
0

>  <SCORE.INTRA.REPUL>
0

>  <SCORE.INTRA.REPUL.0>
0

>  <SCORE.INTRA.VDW>
-0.969955

>  <SCORE.INTRA.VDW.0>
0.367007

>  <SCORE.INTRA.norm>
0.0651706

>  <SCORE.RESTR>
0.787786

>  <SCORE.RESTR.CAVITY>
0.787786

>  <SCORE.RESTR.norm>
0.0196947

>  <SCORE.SYSTEM>
-0.345888

>  <SCORE.SYSTEM.CONST>
0

>  <SCORE.SYSTEM.DIHEDRAL>
1.51499

>  <SCORE.SYSTEM.VDW>
-1.10338

>  <SCORE.SYSTEM.norm>
-0.0086472

>  <SCORE.heavy>
40

>  <SCORE.norm>
-0.259241

$$$$
5281600
  RxDock  02242101063D
librxdock.so/0.1.0
 46 51  0  0  0  0  0  0  0  0999 V2000
  -50.8329   -3.2095   16.6638 O   0  0  0  0  0  0
  -46.9657   -1.8146   18.4044 O   0  0  0  0  0  0
  -52.0236   -5.1679   20.8427 O   0  0  0  0  0  0
  -52.8970   -2.5023   20.4978 O   0  0  0  0  0  0
  -53.1654   -7.4541   16.8567 O   0  0  0  0  0  0
  -52.4831   -6.3086   14.5970 O   0  0  0  0  0  0
  -42.5605   -0.0621   19.4135 O   0  0  0  0  0  0
  -44.5844    0.1392   21.0710 O   0  0  0  0  0  0
  -43.4111   -2.2560   15.2881 O   0  0  0  0  0  0
  -48.3310    1.2001   12.8842 O   0  0  0  0  0  0
  -51.4213   -4.1791   18.7347 C   0  0  0  0  0  0
  -51.4206   -4.2475   17.3414 C   0  0  0  0  0  0
  -50.8195   -3.0473   19.4188 C   0  0  0  0  0  0
  -52.0019   -5.3384   16.6972 C   0  0  0  0  0  0
  -48.8766   -1.6841   19.8529 C   0  0  0  0  0  0
  -49.4714   -2.7675   19.2063 C   0  0  0  0  0  0
  -52.0046   -5.2047   19.4792 C   0  0  0  0  0  0
  -51.5758   -2.2496   20.2745 C   0  0  0  0  0  0
  -52.5871   -6.3672   17.4389 C   0  0  0  0  0  0
  -47.4480   -1.3835   19.6308 C   0  0  0  0  0  0
  -52.5860   -6.2963   18.8325 C   0  0  0  0  0  0
  -50.8112   -3.2536   15.2780 C   0  0  0  0  0  0
  -51.9888   -5.3841   15.2272 C   0  0  0  0  0  0
  -49.6314   -0.8834   20.7100 C   0  0  0  0  0  0
  -50.9810   -1.1662   20.9211 C   0  0  0  0  0  0
  -51.3426   -4.2447   14.5449 C   0  0  0  0  0  0
  -44.7798   -0.9168   18.9661 C   0  0  0  0  0  0
  -45.6492   -1.5777   18.0999 C   0  0  0  0  0  0
  -50.1611   -2.0853   14.6509 C   0  0  0  0  0  0
  -46.7126   -0.7314   20.5451 C   0  0  0  0  0  0
  -45.2902   -0.4500   20.2641 C   0  0  0  0  0  0
  -43.4483   -0.7025   18.6030 C   0  0  0  0  0  0
  -45.1906   -2.0289   16.8620 C   0  0  0  0  0  0
  -48.8117   -1.8182   14.8951 C   0  0  0  0  0  0
  -50.8922   -1.2426   13.8101 C   0  0  0  0  0  0
  -43.8613   -1.8170   16.4957 C   0  0  0  0  0  0
  -42.9922   -1.1553   17.3644 C   0  0  0  0  0  0
  -48.1973   -0.7150   14.3023 C   0  0  0  0  0  0
  -50.2778   -0.1397   13.2171 C   0  0  0  0  0  0
  -48.9303    0.1242   13.4632 C   0  0  0  0  0  0
  -52.3646   -4.3052   21.1347 H   0  0  0  0  0  0
  -53.4018   -1.6779   20.3916 H   0  0  0  0  0  0
  -53.1028   -8.2260   17.4397 H   0  0  0  0  0  0
  -42.8288   -0.1412   20.3418 H   0  0  0  0  0  0
  -44.1743   -2.4998   14.7365 H   0  0  0  0  0  0
  -47.6401    0.8863   12.2755 H   0  0  0  0  0  0
  1 12  1  0  0  0
  1 22  1  0  0  0
  2 20  1  0  0  0
  2 28  1  0  0  0
  3 17  1  0  0  0
  3 41  1  0  0  0
  4 18  1  0  0  0
  4 42  1  0  0  0
  5 19  1  0  0  0
  5 43  1  0  0  0
  6 23  2  0  0  0
  7 32  1  0  0  0
  7 44  1  0  0  0
  8 31  2  0  0  0
  9 36  1  0  0  0
  9 45  1  0  0  0
 10 40  1  0  0  0
 10 46  1  0  0  0
 11 12  1  0  0  0
 11 13  1  0  0  0
 11 17  2  0  0  0
 12 14  2  0  0  0
 13 16  1  0  0  0
 13 18  2  0  0  0
 14 19  1  0  0  0
 14 23  1  0  0  0
 15 16  2  0  0  0
 15 20  1  0  0  0
 15 24  1  0  0  0
 17 21  1  0  0  0
 18 25  1  0  0  0
 19 21  2  0  0  0
 20 30  2  0  0  0
 22 26  2  0  0  0
 22 29  1  0  0  0
 23 26  1  0  0  0
 24 25  2  0  0  0
 27 28  1  0  0  0
 27 31  1  0  0  0
 27 32  2  0  0  0
 28 33  2  0  0  0
 29 34  2  0  0  0
 29 35  1  0  0  0
 30 31  1  0  0  0
 32 37  1  0  0  0
 33 36  1  0  0  0
 34 38  1  0  0  0
 35 39  2  0  0  0
 36 37  2  0  0  0
 38 40  2  0  0  0
 39 40  1  0  0  0
M  END
>  <CHROM.0>
73.39557869,60.65863844,178.08008553

>  <CHROM.1>
50.22964247,-131.02093753,150.96621414,25.08081222,13.02797012,64.47694497
-58.82903644,26.67362248,62.11215604,-48.91943058,-2.51577860,17.54149998
-3.09834998,0.50989844,1.67049470

>  <Name>
5281600

>  <PUBCHEM_ATOM_DEF_STEREO_COUNT>
0

>  <PUBCHEM_ATOM_UDEF_STEREO_COUNT>
0

>  <PUBCHEM_BOND_DEF_STEREO_COUNT>
0

>  <PUBCHEM_BOND_UDEF_STEREO_COUNT>
0

>  <PUBCHEM_CACTVS_TAUTO_COUNT>
994

>  <PUBCHEM_COMPONENT_COUNT>
1

>  <PUBCHEM_COMPOUND_CID>
5281600

>  <PUBCHEM_CONFORMER_DIVERSEORDER>
1
12
7
6
5
11
9
4
8
3
2
10

>  <PUBCHEM_CONFORMER_ID>
0050974000000001

>  <PUBCHEM_CONFORMER_RMSD>
0.8

>  <PUBCHEM_COORDINATE_TYPE>
2
5
10

>  <PUBCHEM_EFFECTIVE_ROTOR_COUNT>
3

>  <PUBCHEM_FEATURE_SELFOVERLAP>
81.26

>  <PUBCHEM_HEAVY_ATOM_COUNT>
40

>  <PUBCHEM_ISOTOPIC_ATOM_COUNT>
0

>  <PUBCHEM_MMFF94_ENERGY>
134.7783

>  <PUBCHEM_MMFF94_PARTIAL_CHARGES>
56
1 -0.16
10 -0.53
12 0.08
14 0.09
15 0.03
16 -0.15
17 0.08
18 0.08
19 0.08
2 -0.16
20 0.05
21 -0.15
22 0.05
23 0.47
24 -0.15
25 -0.15
26 -0.14
27 0.09
28 0.08
29 0.03
3 -0.53
30 -0.14
31 0.47
32 0.08
33 -0.15
34 -0.15
35 -0.15
36 0.08
37 -0.15
38 -0.15
39 -0.15
4 -0.53
40 0.08
41 0.15
42 0.15
43 0.15
44 0.15
45 0.15
46 0.15
47 0.15
48 0.15
49 0.15
5 -0.53
50 0.45
51 0.15
52 0.45
53 0.45
54 0.15
55 0.15
56 0.45
57 0.45
58 0.45
6 -0.57
7 -0.53
8 -0.57
9 -0.53

>  <PUBCHEM_PHARMACOPHORE_FEATURES>
16
1 1 acceptor
1 10 donor
1 2 acceptor
1 3 donor
1 4 donor
1 5 donor
1 6 acceptor
1 7 donor
1 8 acceptor
1 9 donor
6 1 12 14 22 23 26 rings
6 11 12 14 17 19 21 rings
6 13 15 16 18 24 25 rings
6 2 20 27 28 30 31 rings
6 27 28 32 33 36 37 rings
6 29 34 35 38 39 40 rings

>  <PUBCHEM_SHAPE_FINGERPRINT>
10074138 170 18272931639651384535
10462674 125 17618475011381580750
10622 236 18044087084485364727
10928967 22 18186794777961395306
11135926 11 16589159410442702964
11434127 23 16988854868850209122
11552529 35 18337099142617264300
12128747 34 17416426289408154158
12422481 6 17970917660810484883
12559416 138 17458053868550942330
131258 38 17040625661602271054
14040221 299 18130520668696863620
14068700 675 18126558149519363943
14395042 24 18339370777318689755
14674994 50 18189596350705326935
14705955 166 17345771702192931481
14856354 85 18343864420652166036
14950920 106 18341324578619618192
15320294 125 18260278451476051767
15361156 5 15359116841693389420
15484559 13 15440400299685403118
16728300 4 17967823739013222547
19319366 153 16671943977149260761
20554085 129 18057606456813237473
20775530 9 17974003148226375983
21033648 29 17986692393200921257
21133410 221 17108453988390366882
23516275 137 17830492447455348050
3882209 13 17628068207685272503
4394409 98 18410292537089562351
44880168 125 18338798914801616118
484985 159 18337095835418697607
50080093 196 18113889468875184482
5085150 59 18337387146281907241
5171179 24 16967460284478114997
581034 39 18412830166090923426

>  <PUBCHEM_SHAPE_MULTIPOLES>
764.49
14.59
6.24
3.18
25.21
8.64
-0.18
2.69
-10.24
-12.46
1.99
1.74
-0.93
-5.25

>  <PUBCHEM_SHAPE_SELFOVERLAP>
1749.357

>  <PUBCHEM_SHAPE_VOLUME>
392.9

>  <RI>
-4.21727e+08

>  <Rbt.Current_Directory>
/root/miniconda3/envs/rdock/share/rxdock-2013.1.1_148c5bd1-0/data/ligands/prepped_ligands/Amentoflavone

>  <Rbt.Executable>
rbdock/0.1.0

>  <Rbt.Library>
librxdock.so/0.1.0

>  <Rbt.Parameter_File>
/root/miniconda3/envs/rdock/share/rxdock-2013.1.1_148c5bd1-0/data/scripts/dock.prm

>  <Rbt.Receptor>
def.prm

>  <SCORE>
-11.4435

>  <SCORE.INTER>
-12.2908

>  <SCORE.INTER.CONST>
1

>  <SCORE.INTER.POLAR>
-0.690798

>  <SCORE.INTER.REPUL>
0.0312136

>  <SCORE.INTER.ROT>
3

>  <SCORE.INTER.VDW>
-18.4982

>  <SCORE.INTER.norm>
-0.307271

>  <SCORE.INTRA>
1.29411

>  <SCORE.INTRA.DIHEDRAL>
12.6108

>  <SCORE.INTRA.DIHEDRAL.0>
7.26727

>  <SCORE.INTRA.POLAR>
-0.869312

>  <SCORE.INTRA.POLAR.0>
0

>  <SCORE.INTRA.REPUL>
0

>  <SCORE.INTRA.REPUL.0>
0

>  <SCORE.INTRA.VDW>
-2.05563

>  <SCORE.INTRA.VDW.0>
0.367007

>  <SCORE.INTRA.norm>
0.0323528

>  <SCORE.RESTR>
0.267312

>  <SCORE.RESTR.CAVITY>
0.267312

>  <SCORE.RESTR.norm>
0.00668279

>  <SCORE.SYSTEM>
-0.714076

>  <SCORE.SYSTEM.CONST>
0

>  <SCORE.SYSTEM.DIHEDRAL>
0.42876

>  <SCORE.SYSTEM.VDW>
-0.928456

>  <SCORE.SYSTEM.norm>
-0.0178519

>  <SCORE.heavy>
40

>  <SCORE.norm>
-0.286087

$$$$
5281600
  RxDock  02242101063D
librxdock.so/0.1.0
 46 51  0  0  0  0  0  0  0  0999 V2000
  -51.1472   -3.4674   16.8888 O   0  0  0  0  0  0
  -47.3313   -1.9095   18.1085 O   0  0  0  0  0  0
  -51.7770   -5.7943   21.0004 O   0  0  0  0  0  0
  -52.6478   -3.3947   21.2024 O   0  0  0  0  0  0
  -53.2553   -7.8309   16.9896 O   0  0  0  0  0  0
  -52.8802   -6.4844   14.7691 O   0  0  0  0  0  0
  -43.2247    0.6618   18.2493 O   0  0  0  0  0  0
  -44.9793    0.6774   20.2001 O   0  0  0  0  0  0
  -44.2643   -2.0434   14.4868 O   0  0  0  0  0  0
  -49.2766    1.3393   13.2308 O   0  0  0  0  0  0
  -51.4577   -4.6195   18.9262 C   0  0  0  0  0  0
  -51.6095   -4.5828   17.5400 C   0  0  0  0  0  0
  -50.8334   -3.5124   19.6303 C   0  0  0  0  0  0
  -52.2107   -5.6510   16.8765 C   0  0  0  0  0  0
  -48.9943   -1.9647   19.8400 C   0  0  0  0  0  0
  -49.6081   -3.0281   19.1779 C   0  0  0  0  0  0
  -51.9086   -5.7274   19.6442 C   0  0  0  0  0  0
  -51.4482   -2.9392   20.7412 C   0  0  0  0  0  0
  -52.6638   -6.7620   17.5917 C   0  0  0  0  0  0
  -47.6955   -1.4478   19.3641 C   0  0  0  0  0  0
  -52.5102   -6.7962   18.9782 C   0  0  0  0  0  0
  -51.2783   -3.4058   15.5097 C   0  0  0  0  0  0
  -52.3597   -5.5853   15.4148 C   0  0  0  0  0  0
  -49.6076   -1.3885   20.9524 C   0  0  0  0  0  0
  -50.8345   -1.8758   21.4033 C   0  0  0  0  0  0
  -51.8443   -4.3655   14.7608 C   0  0  0  0  0  0
  -45.2897   -0.5999   18.2364 C   0  0  0  0  0  0
  -46.1419   -1.4824   17.5747 C   0  0  0  0  0  0
  -50.7541   -2.1612   14.9123 C   0  0  0  0  0  0
  -46.9645   -0.5921   20.0960 C   0  0  0  0  0  0
  -45.6770   -0.1009   19.5646 C   0  0  0  0  0  0
  -44.0903   -0.1982   17.6440 C   0  0  0  0  0  0
  -45.7988   -1.9690   16.3131 C   0  0  0  0  0  0
  -50.0242   -1.2614   15.6929 C   0  0  0  0  0  0
  -50.9850   -1.8785   13.5639 C   0  0  0  0  0  0
  -44.6016   -1.5703   15.7181 C   0  0  0  0  0  0
  -43.7493   -0.6869   16.3822 C   0  0  0  0  0  0
  -49.5284   -0.0860   15.1286 C   0  0  0  0  0  0
  -50.4890   -0.7033   12.9994 C   0  0  0  0  0  0
  -49.7608    0.1930   13.7818 C   0  0  0  0  0  0
  -52.5148   -6.3101   21.3683 H   0  0  0  0  0  0
  -52.8339   -2.9861   22.0651 H   0  0  0  0  0  0
  -52.9373   -7.9273   16.0789 H   0  0  0  0  0  0
  -42.3157    0.3304   18.1858 H   0  0  0  0  0  0
  -45.0687   -2.1131   13.9443 H   0  0  0  0  0  0
  -49.2451    1.2355   12.2641 H   0  0  0  0  0  0
  1 12  1  0  0  0
  1 22  1  0  0  0
  2 20  1  0  0  0
  2 28  1  0  0  0
  3 17  1  0  0  0
  3 41  1  0  0  0
  4 18  1  0  0  0
  4 42  1  0  0  0
  5 19  1  0  0  0
  5 43  1  0  0  0
  6 23  2  0  0  0
  7 32  1  0  0  0
  7 44  1  0  0  0
  8 31  2  0  0  0
  9 36  1  0  0  0
  9 45  1  0  0  0
 10 40  1  0  0  0
 10 46  1  0  0  0
 11 12  1  0  0  0
 11 13  1  0  0  0
 11 17  2  0  0  0
 12 14  2  0  0  0
 13 16  1  0  0  0
 13 18  2  0  0  0
 14 19  1  0  0  0
 14 23  1  0  0  0
 15 16  2  0  0  0
 15 20  1  0  0  0
 15 24  1  0  0  0
 17 21  1  0  0  0
 18 25  1  0  0  0
 19 21  2  0  0  0
 20 30  2  0  0  0
 22 26  2  0  0  0
 22 29  1  0  0  0
 23 26  1  0  0  0
 24 25  2  0  0  0
 27 28  1  0  0  0
 27 31  1  0  0  0
 27 32  2  0  0  0
 28 33  2  0  0  0
 29 34  2  0  0  0
 29 35  1  0  0  0
 30 31  1  0  0  0
 32 37  1  0  0  0
 33 36  1  0  0  0
 34 38  1  0  0  0
 35 39  2  0  0  0
 36 37  2  0  0  0
 38 40  2  0  0  0
 39 40  1  0  0  0
M  END
>  <CHROM.0>
-161.97327536,-177.47851984,-62.96514046

>  <CHROM.1>
148.80790528,169.84410888,27.87491766,133.73958021,37.06809216,160.18663577
-50.11267889,12.66153878,8.96652297,-49.27148199,-2.63060504,17.46995760
2.98728865,0.61486290,1.73191570

>  <Name>
5281600

>  <PUBCHEM_ATOM_DEF_STEREO_COUNT>
0

>  <PUBCHEM_ATOM_UDEF_STEREO_COUNT>
0

>  <PUBCHEM_BOND_DEF_STEREO_COUNT>
0

>  <PUBCHEM_BOND_UDEF_STEREO_COUNT>
0

>  <PUBCHEM_CACTVS_TAUTO_COUNT>
994

>  <PUBCHEM_COMPONENT_COUNT>
1

>  <PUBCHEM_COMPOUND_CID>
5281600

>  <PUBCHEM_CONFORMER_DIVERSEORDER>
1
12
7
6
5
11
9
4
8
3
2
10

>  <PUBCHEM_CONFORMER_ID>
0050974000000001

>  <PUBCHEM_CONFORMER_RMSD>
0.8

>  <PUBCHEM_COORDINATE_TYPE>
2
5
10

>  <PUBCHEM_EFFECTIVE_ROTOR_COUNT>
3

>  <PUBCHEM_FEATURE_SELFOVERLAP>
81.26

>  <PUBCHEM_HEAVY_ATOM_COUNT>
40

>  <PUBCHEM_ISOTOPIC_ATOM_COUNT>
0

>  <PUBCHEM_MMFF94_ENERGY>
134.7783

>  <PUBCHEM_MMFF94_PARTIAL_CHARGES>
56
1 -0.16
10 -0.53
12 0.08
14 0.09
15 0.03
16 -0.15
17 0.08
18 0.08
19 0.08
2 -0.16
20 0.05
21 -0.15
22 0.05
23 0.47
24 -0.15
25 -0.15
26 -0.14
27 0.09
28 0.08
29 0.03
3 -0.53
30 -0.14
31 0.47
32 0.08
33 -0.15
34 -0.15
35 -0.15
36 0.08
37 -0.15
38 -0.15
39 -0.15
4 -0.53
40 0.08
41 0.15
42 0.15
43 0.15
44 0.15
45 0.15
46 0.15
47 0.15
48 0.15
49 0.15
5 -0.53
50 0.45
51 0.15
52 0.45
53 0.45
54 0.15
55 0.15
56 0.45
57 0.45
58 0.45
6 -0.57
7 -0.53
8 -0.57
9 -0.53

>  <PUBCHEM_PHARMACOPHORE_FEATURES>
16
1 1 acceptor
1 10 donor
1 2 acceptor
1 3 donor
1 4 donor
1 5 donor
1 6 acceptor
1 7 donor
1 8 acceptor
1 9 donor
6 1 12 14 22 23 26 rings
6 11 12 14 17 19 21 rings
6 13 15 16 18 24 25 rings
6 2 20 27 28 30 31 rings
6 27 28 32 33 36 37 rings
6 29 34 35 38 39 40 rings

>  <PUBCHEM_SHAPE_FINGERPRINT>
10074138 170 18272931639651384535
10462674 125 17618475011381580750
10622 236 18044087084485364727
10928967 22 18186794777961395306
11135926 11 16589159410442702964
11434127 23 16988854868850209122
11552529 35 18337099142617264300
12128747 34 17416426289408154158
12422481 6 17970917660810484883
12559416 138 17458053868550942330
131258 38 17040625661602271054
14040221 299 18130520668696863620
14068700 675 18126558149519363943
14395042 24 18339370777318689755
14674994 50 18189596350705326935
14705955 166 17345771702192931481
14856354 85 18343864420652166036
14950920 106 18341324578619618192
15320294 125 18260278451476051767
15361156 5 15359116841693389420
15484559 13 15440400299685403118
16728300 4 17967823739013222547
19319366 153 16671943977149260761
20554085 129 18057606456813237473
20775530 9 17974003148226375983
21033648 29 17986692393200921257
21133410 221 17108453988390366882
23516275 137 17830492447455348050
3882209 13 17628068207685272503
4394409 98 18410292537089562351
44880168 125 18338798914801616118
484985 159 18337095835418697607
50080093 196 18113889468875184482
5085150 59 18337387146281907241
5171179 24 16967460284478114997
581034 39 18412830166090923426

>  <PUBCHEM_SHAPE_MULTIPOLES>
764.49
14.59
6.24
3.18
25.21
8.64
-0.18
2.69
-10.24
-12.46
1.99
1.74
-0.93
-5.25

>  <PUBCHEM_SHAPE_SELFOVERLAP>
1749.357

>  <PUBCHEM_SHAPE_VOLUME>
392.9

>  <RI>
-4.21727e+08

>  <Rbt.Current_Directory>
/root/miniconda3/envs/rdock/share/rxdock-2013.1.1_148c5bd1-0/data/ligands/prepped_ligands/Amentoflavone

>  <Rbt.Executable>
rbdock/0.1.0

>  <Rbt.Library>
librxdock.so/0.1.0

>  <Rbt.Parameter_File>
/root/miniconda3/envs/rdock/share/rxdock-2013.1.1_148c5bd1-0/data/scripts/dock.prm

>  <Rbt.Receptor>
def.prm

>  <SCORE>
-12.8555

>  <SCORE.INTER>
-14.8373

>  <SCORE.INTER.CONST>
1

>  <SCORE.INTER.POLAR>
-1.30209

>  <SCORE.INTER.REPUL>
0

>  <SCORE.INTER.ROT>
3

>  <SCORE.INTER.VDW>
-18.8102

>  <SCORE.INTER.norm>
-0.370932

>  <SCORE.INTRA>
2.25315

>  <SCORE.INTRA.DIHEDRAL>
3.1704

>  <SCORE.INTRA.DIHEDRAL.0>
7.26727

>  <SCORE.INTRA.POLAR>
0

>  <SCORE.INTRA.POLAR.0>
0

>  <SCORE.INTRA.REPUL>
0.0885301

>  <SCORE.INTRA.REPUL.0>
0

>  <SCORE.INTRA.VDW>
0.225297

>  <SCORE.INTRA.VDW.0>
0.367007

>  <SCORE.INTRA.norm>
0.0563287

>  <SCORE.RESTR>
0.308573

>  <SCORE.RESTR.CAVITY>
0.308573

>  <SCORE.RESTR.norm>
0.00771432

>  <SCORE.SYSTEM>
-0.579918

>  <SCORE.SYSTEM.CONST>
0

>  <SCORE.SYSTEM.DIHEDRAL>
0.788144

>  <SCORE.SYSTEM.VDW>
-0.97399

>  <SCORE.SYSTEM.norm>
-0.0144979

>  <SCORE.heavy>
40

>  <SCORE.norm>
-0.321386

$$$$
5281600
  RxDock  02242101063D
librxdock.so/0.1.0
 46 51  0  0  0  0  0  0  0  0999 V2000
  -46.9912   -1.0211   19.2000 O   0  0  0  0  0  0
  -49.5587   -3.9869   15.7815 O   0  0  0  0  0  0
  -42.7144   -1.9504   17.3127 O   0  0  0  0  0  0
  -44.0450   -0.9077   15.6034 O   0  0  0  0  0  0
  -42.9176    0.1504   21.5512 O   0  0  0  0  0  0
  -45.3074    0.6356   22.5195 O   0  0  0  0  0  0
  -51.8969   -7.9292   17.3586 O   0  0  0  0  0  0
  -49.3602   -7.4847   17.8613 O   0  0  0  0  0  0
  -54.1520   -4.6432   14.7756 O   0  0  0  0  0  0
  -53.3114   -0.9338   19.3496 O   0  0  0  0  0  0
  -44.8731   -1.4830   18.2644 C   0  0  0  0  0  0
  -45.6256   -0.9615   19.3170 C   0  0  0  0  0  0
  -45.5284   -2.0601   17.1031 C   0  0  0  0  0  0
  -44.9848   -0.4100   20.4251 C   0  0  0  0  0  0
  -47.2454   -3.4887   16.1907 C   0  0  0  0  0  0
  -46.6027   -2.9263   17.2936 C   0  0  0  0  0  0
  -43.4797   -1.4506   18.3253 C   0  0  0  0  0  0
  -45.0933   -1.7535   15.8157 C   0  0  0  0  0  0
  -43.5900   -0.3754   20.4899 C   0  0  0  0  0  0
  -48.3847   -4.4073   16.3877 C   0  0  0  0  0  0
  -42.8398   -0.8982   19.4358 C   0  0  0  0  0  0
  -47.7652   -0.5166   20.2340 C   0  0  0  0  0  0
  -45.8027    0.1343   21.5197 C   0  0  0  0  0  0
  -46.8123   -3.1833   14.9005 C   0  0  0  0  0  0
  -45.7360   -2.3159   14.7128 C   0  0  0  0  0  0
  -47.2667    0.0443   21.3471 C   0  0  0  0  0  0
  -50.6770   -5.9818   16.5997 C   0  0  0  0  0  0
  -50.6750   -4.7752   15.9019 C   0  0  0  0  0  0
  -49.2197   -0.6256   20.0028 C   0  0  0  0  0  0
  -48.2590   -5.5507   17.0798 C   0  0  0  0  0  0
  -49.4312   -6.4355   17.2363 C   0  0  0  0  0  0
  -51.8439   -6.7442   16.6891 C   0  0  0  0  0  0
  -51.8431   -4.3232   15.2874 C   0  0  0  0  0  0
  -49.8667    0.2844   19.1631 C   0  0  0  0  0  0
  -49.9547   -1.6395   20.6218 C   0  0  0  0  0  0
  -53.0106   -5.0817   15.3745 C   0  0  0  0  0  0
  -53.0109   -6.2895   16.0740 C   0  0  0  0  0  0
  -51.2405    0.1812   18.9440 C   0  0  0  0  0  0
  -51.3284   -1.7430   20.4026 C   0  0  0  0  0  0
  -51.9713   -0.8325   19.5637 C   0  0  0  0  0  0
  -41.9921   -2.4813   17.6898 H   0  0  0  0  0  0
  -43.9996   -0.6872   14.6573 H   0  0  0  0  0  0
  -43.5374    0.4273   22.2433 H   0  0  0  0  0  0
  -52.7188   -8.4001   17.1522 H   0  0  0  0  0  0
  -53.9502   -3.8441   14.2590 H   0  0  0  0  0  0
  -53.7524   -0.1593   19.7396 H   0  0  0  0  0  0
  1 12  1  0  0  0
  1 22  1  0  0  0
  2 20  1  0  0  0
  2 28  1  0  0  0
  3 17  1  0  0  0
  3 41  1  0  0  0
  4 18  1  0  0  0
  4 42  1  0  0  0
  5 19  1  0  0  0
  5 43  1  0  0  0
  6 23  2  0  0  0
  7 32  1  0  0  0
  7 44  1  0  0  0
  8 31  2  0  0  0
  9 36  1  0  0  0
  9 45  1  0  0  0
 10 40  1  0  0  0
 10 46  1  0  0  0
 11 12  1  0  0  0
 11 13  1  0  0  0
 11 17  2  0  0  0
 12 14  2  0  0  0
 13 16  1  0  0  0
 13 18  2  0  0  0
 14 19  1  0  0  0
 14 23  1  0  0  0
 15 16  2  0  0  0
 15 20  1  0  0  0
 15 24  1  0  0  0
 17 21  1  0  0  0
 18 25  1  0  0  0
 19 21  2  0  0  0
 20 30  2  0  0  0
 22 26  2  0  0  0
 22 29  1  0  0  0
 23 26  1  0  0  0
 24 25  2  0  0  0
 27 28  1  0  0  0
 27 31  1  0  0  0
 27 32  2  0  0  0
 28 33  2  0  0  0
 29 34  2  0  0  0
 29 35  1  0  0  0
 30 31  1  0  0  0
 32 37  1  0  0  0
 33 36  1  0  0  0
 34 38  1  0  0  0
 35 39  2  0  0  0
 36 37  2  0  0  0
 38 40  2  0  0  0
 39 40  1  0  0  0
M  END
>  <CHROM.0>
45.21083559,-63.19757080,52.06633442

>  <CHROM.1>
-135.46428966,-169.37165652,3.62440212,-167.68583363,5.96726996,-66.61567187
-44.88184122,121.22907753,-78.56989557,-48.11600599,-2.60202655,18.04910579
0.64034370,0.16829498,0.80431124

>  <Name>
5281600

>  <PUBCHEM_ATOM_DEF_STEREO_COUNT>
0

>  <PUBCHEM_ATOM_UDEF_STEREO_COUNT>
0

>  <PUBCHEM_BOND_DEF_STEREO_COUNT>
0

>  <PUBCHEM_BOND_UDEF_STEREO_COUNT>
0

>  <PUBCHEM_CACTVS_TAUTO_COUNT>
994

>  <PUBCHEM_COMPONENT_COUNT>
1

>  <PUBCHEM_COMPOUND_CID>
5281600

>  <PUBCHEM_CONFORMER_DIVERSEORDER>
1
12
7
6
5
11
9
4
8
3
2
10

>  <PUBCHEM_CONFORMER_ID>
0050974000000001

>  <PUBCHEM_CONFORMER_RMSD>
0.8

>  <PUBCHEM_COORDINATE_TYPE>
2
5
10

>  <PUBCHEM_EFFECTIVE_ROTOR_COUNT>
3

>  <PUBCHEM_FEATURE_SELFOVERLAP>
81.26

>  <PUBCHEM_HEAVY_ATOM_COUNT>
40

>  <PUBCHEM_ISOTOPIC_ATOM_COUNT>
0

>  <PUBCHEM_MMFF94_ENERGY>
134.7783

>  <PUBCHEM_MMFF94_PARTIAL_CHARGES>
56
1 -0.16
10 -0.53
12 0.08
14 0.09
15 0.03
16 -0.15
17 0.08
18 0.08
19 0.08
2 -0.16
20 0.05
21 -0.15
22 0.05
23 0.47
24 -0.15
25 -0.15
26 -0.14
27 0.09
28 0.08
29 0.03
3 -0.53
30 -0.14
31 0.47
32 0.08
33 -0.15
34 -0.15
35 -0.15
36 0.08
37 -0.15
38 -0.15
39 -0.15
4 -0.53
40 0.08
41 0.15
42 0.15
43 0.15
44 0.15
45 0.15
46 0.15
47 0.15
48 0.15
49 0.15
5 -0.53
50 0.45
51 0.15
52 0.45
53 0.45
54 0.15
55 0.15
56 0.45
57 0.45
58 0.45
6 -0.57
7 -0.53
8 -0.57
9 -0.53

>  <PUBCHEM_PHARMACOPHORE_FEATURES>
16
1 1 acceptor
1 10 donor
1 2 acceptor
1 3 donor
1 4 donor
1 5 donor
1 6 acceptor
1 7 donor
1 8 acceptor
1 9 donor
6 1 12 14 22 23 26 rings
6 11 12 14 17 19 21 rings
6 13 15 16 18 24 25 rings
6 2 20 27 28 30 31 rings
6 27 28 32 33 36 37 rings
6 29 34 35 38 39 40 rings

>  <PUBCHEM_SHAPE_FINGERPRINT>
10074138 170 18272931639651384535
10462674 125 17618475011381580750
10622 236 18044087084485364727
10928967 22 18186794777961395306
11135926 11 16589159410442702964
11434127 23 16988854868850209122
11552529 35 18337099142617264300
12128747 34 17416426289408154158
12422481 6 17970917660810484883
12559416 138 17458053868550942330
131258 38 17040625661602271054
14040221 299 18130520668696863620
14068700 675 18126558149519363943
14395042 24 18339370777318689755
14674994 50 18189596350705326935
14705955 166 17345771702192931481
14856354 85 18343864420652166036
14950920 106 18341324578619618192
15320294 125 18260278451476051767
15361156 5 15359116841693389420
15484559 13 15440400299685403118
16728300 4 17967823739013222547
19319366 153 16671943977149260761
20554085 129 18057606456813237473
20775530 9 17974003148226375983
21033648 29 17986692393200921257
21133410 221 17108453988390366882
23516275 137 17830492447455348050
3882209 13 17628068207685272503
4394409 98 18410292537089562351
44880168 125 18338798914801616118
484985 159 18337095835418697607
50080093 196 18113889468875184482
5085150 59 18337387146281907241
5171179 24 16967460284478114997
581034 39 18412830166090923426

>  <PUBCHEM_SHAPE_MULTIPOLES>
764.49
14.59
6.24
3.18
25.21
8.64
-0.18
2.69
-10.24
-12.46
1.99
1.74
-0.93
-5.25

>  <PUBCHEM_SHAPE_SELFOVERLAP>
1749.357

>  <PUBCHEM_SHAPE_VOLUME>
392.9

>  <RI>
-4.21727e+08

>  <Rbt.Current_Directory>
/root/miniconda3/envs/rdock/share/rxdock-2013.1.1_148c5bd1-0/data/ligands/prepped_ligands/Amentoflavone

>  <Rbt.Executable>
rbdock/0.1.0

>  <Rbt.Library>
librxdock.so/0.1.0

>  <Rbt.Parameter_File>
/root/miniconda3/envs/rdock/share/rxdock-2013.1.1_148c5bd1-0/data/scripts/dock.prm

>  <Rbt.Receptor>
def.prm

>  <SCORE>
-11.7971

>  <SCORE.INTER>
-17.3773

>  <SCORE.INTER.CONST>
1

>  <SCORE.INTER.POLAR>
-0.817935

>  <SCORE.INTER.REPUL>
0

>  <SCORE.INTER.ROT>
3

>  <SCORE.INTER.VDW>
-22.9963

>  <SCORE.INTER.norm>
-0.434433

>  <SCORE.INTRA>
5.7527

>  <SCORE.INTRA.DIHEDRAL>
10.1566

>  <SCORE.INTRA.DIHEDRAL.0>
7.26727

>  <SCORE.INTRA.POLAR>
0

>  <SCORE.INTRA.POLAR.0>
0

>  <SCORE.INTRA.REPUL>
0.0878528

>  <SCORE.INTRA.REPUL.0>
0

>  <SCORE.INTRA.VDW>
0.235139

>  <SCORE.INTRA.VDW.0>
0.367007

>  <SCORE.INTRA.norm>
0.143817

>  <SCORE.RESTR>
0.480088

>  <SCORE.RESTR.CAVITY>
0.480088

>  <SCORE.RESTR.norm>
0.0120022

>  <SCORE.SYSTEM>
-0.652594

>  <SCORE.SYSTEM.CONST>
0

>  <SCORE.SYSTEM.DIHEDRAL>
0.732982

>  <SCORE.SYSTEM.VDW>
-1.01908

>  <SCORE.SYSTEM.norm>
-0.0163148

>  <SCORE.heavy>
40

>  <SCORE.norm>
-0.294928

$$$$
5281600
  RxDock  02242101063D
librxdock.so/0.1.0
 46 51  0  0  0  0  0  0  0  0999 V2000
  -50.8415   -2.7210   16.4535 O   0  0  0  0  0  0
  -46.9772   -1.3874   18.9475 O   0  0  0  0  0  0
  -52.3067   -4.3339   20.6923 O   0  0  0  0  0  0
  -53.2720   -1.4854   19.5787 O   0  0  0  0  0  0
  -53.0666   -7.0080   16.8594 O   0  0  0  0  0  0
  -52.2383   -6.0483   14.5622 O   0  0  0  0  0  0
  -42.8065    0.2144   20.8278 O   0  0  0  0  0  0
  -45.1419    0.7222   21.9107 O   0  0  0  0  0  0
  -42.8344   -2.3901   16.8565 O   0  0  0  0  0  0
  -48.1683    1.4128   12.4840 O   0  0  0  0  0  0
  -51.5659   -3.5193   18.5541 C   0  0  0  0  0  0
  -51.4528   -3.7131   17.1772 C   0  0  0  0  0  0
  -51.0510   -2.3106   19.1745 C   0  0  0  0  0  0
  -51.9516   -4.8768   16.5943 C   0  0  0  0  0  0
  -49.1595   -0.9805   19.8635 C   0  0  0  0  0  0
  -49.6725   -2.1353   19.2727 C   0  0  0  0  0  0
  -52.1785   -4.4929   19.3435 C   0  0  0  0  0  0
  -51.9193   -1.3374   19.6642 C   0  0  0  0  0  0
  -52.5658   -5.8539   17.3810 C   0  0  0  0  0  0
  -47.6990   -0.7902   19.9697 C   0  0  0  0  0  0
  -52.6771   -5.6576   18.7581 C   0  0  0  0  0  0
  -50.7087   -2.8890   15.0834 C   0  0  0  0  0  0
  -51.8207   -5.0544   15.1401 C   0  0  0  0  0  0
  -50.0263   -0.0042   20.3544 C   0  0  0  0  0  0
  -51.4063   -0.1826   20.2550 C   0  0  0  0  0  0
  -51.1534   -3.9598   14.4068 C   0  0  0  0  0  0
  -44.9198   -0.5575   19.9366 C   0  0  0  0  0  0
  -45.6110   -1.2633   18.9532 C   0  0  0  0  0  0
  -50.0427   -1.7606   14.4025 C   0  0  0  0  0  0
  -47.1496   -0.0798   20.9676 C   0  0  0  0  0  0
  -45.6828    0.0850   21.0175 C   0  0  0  0  0  0
  -43.5271   -0.4635   19.8916 C   0  0  0  0  0  0
  -44.9111   -1.8805   17.9161 C   0  0  0  0  0  0
  -48.6509   -1.6436   14.4361 C   0  0  0  0  0  0
  -50.8011   -0.8057   13.7210 C   0  0  0  0  0  0
  -43.5200   -1.7891   17.8676 C   0  0  0  0  0  0
  -42.8296   -1.0822   18.8533 C   0  0  0  0  0  0
  -48.0215   -0.5780   13.7923 C   0  0  0  0  0  0
  -50.1719    0.2597   13.0770 C   0  0  0  0  0  0
  -48.7820    0.3735   13.1127 C   0  0  0  0  0  0
  -51.5441   -3.8333   21.0293 H   0  0  0  0  0  0
  -53.4767   -2.1762   18.9256 H   0  0  0  0  0  0
  -52.9032   -7.7516   17.4595 H   0  0  0  0  0  0
  -43.3322    0.3464   21.6317 H   0  0  0  0  0  0
  -42.1375   -2.9515   17.2378 H   0  0  0  0  0  0
  -48.8452    1.9718   12.0650 H   0  0  0  0  0  0
  1 12  1  0  0  0
  1 22  1  0  0  0
  2 20  1  0  0  0
  2 28  1  0  0  0
  3 17  1  0  0  0
  3 41  1  0  0  0
  4 18  1  0  0  0
  4 42  1  0  0  0
  5 19  1  0  0  0
  5 43  1  0  0  0
  6 23  2  0  0  0
  7 32  1  0  0  0
  7 44  1  0  0  0
  8 31  2  0  0  0
  9 36  1  0  0  0
  9 45  1  0  0  0
 10 40  1  0  0  0
 10 46  1  0  0  0
 11 12  1  0  0  0
 11 13  1  0  0  0
 11 17  2  0  0  0
 12 14  2  0  0  0
 13 16  1  0  0  0
 13 18  2  0  0  0
 14 19  1  0  0  0
 14 23  1  0  0  0
 15 16  2  0  0  0
 15 20  1  0  0  0
 15 24  1  0  0  0
 17 21  1  0  0  0
 18 25  1  0  0  0
 19 21  2  0  0  0
 20 30  2  0  0  0
 22 26  2  0  0  0
 22 29  1  0  0  0
 23 26  1  0  0  0
 24 25  2  0  0  0
 27 28  1  0  0  0
 27 31  1  0  0  0
 27 32  2  0  0  0
 28 33  2  0  0  0
 29 34  2  0  0  0
 29 35  1  0  0  0
 30 31  1  0  0  0
 32 37  1  0  0  0
 33 36  1  0  0  0
 34 38  1  0  0  0
 35 39  2  0  0  0
 36 37  2  0  0  0
 38 40  2  0  0  0
 39 40  1  0  0  0
M  END
>  <CHROM.0>
69.70707172,-173.81812105,-176.94990563

>  <CHROM.1>
-32.79385628,-16.88188292,142.05303590,18.67390053,-127.68505662,179.91217325
-71.41883223,30.57084611,79.60953683,-48.96233239,-2.05908795,17.71023902
-2.85114984,0.47539540,1.65300194

>  <Name>
5281600

>  <PUBCHEM_ATOM_DEF_STEREO_COUNT>
0

>  <PUBCHEM_ATOM_UDEF_STEREO_COUNT>
0

>  <PUBCHEM_BOND_DEF_STEREO_COUNT>
0

>  <PUBCHEM_BOND_UDEF_STEREO_COUNT>
0

>  <PUBCHEM_CACTVS_TAUTO_COUNT>
994

>  <PUBCHEM_COMPONENT_COUNT>
1

>  <PUBCHEM_COMPOUND_CID>
5281600

>  <PUBCHEM_CONFORMER_DIVERSEORDER>
1
12
7
6
5
11
9
4
8
3
2
10

>  <PUBCHEM_CONFORMER_ID>
0050974000000001

>  <PUBCHEM_CONFORMER_RMSD>
0.8

>  <PUBCHEM_COORDINATE_TYPE>
2
5
10

>  <PUBCHEM_EFFECTIVE_ROTOR_COUNT>
3

>  <PUBCHEM_FEATURE_SELFOVERLAP>
81.26

>  <PUBCHEM_HEAVY_ATOM_COUNT>
40

>  <PUBCHEM_ISOTOPIC_ATOM_COUNT>
0

>  <PUBCHEM_MMFF94_ENERGY>
134.7783

>  <PUBCHEM_MMFF94_PARTIAL_CHARGES>
56
1 -0.16
10 -0.53
12 0.08
14 0.09
15 0.03
16 -0.15
17 0.08
18 0.08
19 0.08
2 -0.16
20 0.05
21 -0.15
22 0.05
23 0.47
24 -0.15
25 -0.15
26 -0.14
27 0.09
28 0.08
29 0.03
3 -0.53
30 -0.14
31 0.47
32 0.08
33 -0.15
34 -0.15
35 -0.15
36 0.08
37 -0.15
38 -0.15
39 -0.15
4 -0.53
40 0.08
41 0.15
42 0.15
43 0.15
44 0.15
45 0.15
46 0.15
47 0.15
48 0.15
49 0.15
5 -0.53
50 0.45
51 0.15
52 0.45
53 0.45
54 0.15
55 0.15
56 0.45
57 0.45
58 0.45
6 -0.57
7 -0.53
8 -0.57
9 -0.53

>  <PUBCHEM_PHARMACOPHORE_FEATURES>
16
1 1 acceptor
1 10 donor
1 2 acceptor
1 3 donor
1 4 donor
1 5 donor
1 6 acceptor
1 7 donor
1 8 acceptor
1 9 donor
6 1 12 14 22 23 26 rings
6 11 12 14 17 19 21 rings
6 13 15 16 18 24 25 rings
6 2 20 27 28 30 31 rings
6 27 28 32 33 36 37 rings
6 29 34 35 38 39 40 rings

>  <PUBCHEM_SHAPE_FINGERPRINT>
10074138 170 18272931639651384535
10462674 125 17618475011381580750
10622 236 18044087084485364727
10928967 22 18186794777961395306
11135926 11 16589159410442702964
11434127 23 16988854868850209122
11552529 35 18337099142617264300
12128747 34 17416426289408154158
12422481 6 17970917660810484883
12559416 138 17458053868550942330
131258 38 17040625661602271054
14040221 299 18130520668696863620
14068700 675 18126558149519363943
14395042 24 18339370777318689755
14674994 50 18189596350705326935
14705955 166 17345771702192931481
14856354 85 18343864420652166036
14950920 106 18341324578619618192
15320294 125 18260278451476051767
15361156 5 15359116841693389420
15484559 13 15440400299685403118
16728300 4 17967823739013222547
19319366 153 16671943977149260761
20554085 129 18057606456813237473
20775530 9 17974003148226375983
21033648 29 17986692393200921257
21133410 221 17108453988390366882
23516275 137 17830492447455348050
3882209 13 17628068207685272503
4394409 98 18410292537089562351
44880168 125 18338798914801616118
484985 159 18337095835418697607
50080093 196 18113889468875184482
5085150 59 18337387146281907241
5171179 24 16967460284478114997
581034 39 18412830166090923426

>  <PUBCHEM_SHAPE_MULTIPOLES>
764.49
14.59
6.24
3.18
25.21
8.64
-0.18
2.69
-10.24
-12.46
1.99
1.74
-0.93
-5.25

>  <PUBCHEM_SHAPE_SELFOVERLAP>
1749.357

>  <PUBCHEM_SHAPE_VOLUME>
392.9

>  <RI>
-4.21727e+08

>  <Rbt.Current_Directory>
/root/miniconda3/envs/rdock/share/rxdock-2013.1.1_148c5bd1-0/data/ligands/prepped_ligands/Amentoflavone

>  <Rbt.Executable>
rbdock/0.1.0

>  <Rbt.Library>
librxdock.so/0.1.0

>  <Rbt.Parameter_File>
/root/miniconda3/envs/rdock/share/rxdock-2013.1.1_148c5bd1-0/data/scripts/dock.prm

>  <Rbt.Receptor>
def.prm

>  <SCORE>
-13.1905

>  <SCORE.INTER>
-16.2991

>  <SCORE.INTER.CONST>
1

>  <SCORE.INTER.POLAR>
-1.81418

>  <SCORE.INTER.REPUL>
0.489461

>  <SCORE.INTER.ROT>
3

>  <SCORE.INTER.VDW>
-20.9782

>  <SCORE.INTER.norm>
-0.407477

>  <SCORE.INTRA>
2.91583

>  <SCORE.INTRA.DIHEDRAL>
10.003

>  <SCORE.INTRA.DIHEDRAL.0>
7.26727

>  <SCORE.INTRA.POLAR>
0

>  <SCORE.INTRA.POLAR.0>
0

>  <SCORE.INTRA.REPUL>
0

>  <SCORE.INTRA.REPUL.0>
0

>  <SCORE.INTRA.VDW>
-2.08567

>  <SCORE.INTRA.VDW.0>
0.367007

>  <SCORE.INTRA.norm>
0.0728958

>  <SCORE.RESTR>
1.03503

>  <SCORE.RESTR.CAVITY>
1.03503

>  <SCORE.RESTR.norm>
0.0258757

>  <SCORE.SYSTEM>
-0.842277

>  <SCORE.SYSTEM.CONST>
0

>  <SCORE.SYSTEM.DIHEDRAL>
0.428227

>  <SCORE.SYSTEM.POLAR>
-0.0087685

>  <SCORE.SYSTEM.VDW>
-1.02658

>  <SCORE.SYSTEM.norm>
-0.0210569

>  <SCORE.heavy>
40

>  <SCORE.norm>
-0.329763

$$$$
5281600
  RxDock  02242101073D
librxdock.so/0.1.0
 46 51  0  0  0  0  0  0  0  0999 V2000
  -47.0426   -1.2271   19.2044 O   0  0  0  0  0  0
  -48.5523   -5.2440   17.2707 O   0  0  0  0  0  0
  -42.8453   -2.2523   17.1924 O   0  0  0  0  0  0
  -44.1451   -1.0332   15.5740 O   0  0  0  0  0  0
  -42.8828   -0.4163   21.5567 O   0  0  0  0  0  0
  -45.2311    0.1281   22.5928 O   0  0  0  0  0  0
  -52.9478   -7.0323   16.2826 O   0  0  0  0  0  0
  -51.8513   -5.1018   14.8842 O   0  0  0  0  0  0
  -50.3956   -8.7353   19.9077 O   0  0  0  0  0  0
  -53.3480   -0.8238   19.4685 O   0  0  0  0  0  0
  -44.9640   -1.7364   18.2069 C   0  0  0  0  0  0
  -45.6744   -1.2448   19.3023 C   0  0  0  0  0  0
  -45.6637   -2.2046   17.0228 C   0  0  0  0  0  0
  -44.9911   -0.7980   20.4320 C   0  0  0  0  0  0
  -47.4633   -3.4850   16.0513 C   0  0  0  0  0  0
  -46.7776   -3.0270   17.1764 C   0  0  0  0  0  0
  -43.5701   -1.7791   18.2468 C   0  0  0  0  0  0
  -45.2317   -1.8380   15.7502 C   0  0  0  0  0  0
  -43.5956   -0.8388   20.4759 C   0  0  0  0  0  0
  -48.6446   -4.3568   16.2091 C   0  0  0  0  0  0
  -42.8877   -1.3315   19.3790 C   0  0  0  0  0  0
  -47.7756   -0.7502   20.2805 C   0  0  0  0  0  0
  -45.7650   -0.2830   21.5718 C   0  0  0  0  0  0
  -47.0333   -3.1193   14.7758 C   0  0  0  0  0  0
  -45.9173   -2.2959   14.6251 C   0  0  0  0  0  0
  -47.2338   -0.2870   21.4181 C   0  0  0  0  0  0
  -50.7594   -6.0999   16.7270 C   0  0  0  0  0  0
  -49.6027   -6.0947   17.5048 C   0  0  0  0  0  0
  -49.2367   -0.7699   20.0670 C   0  0  0  0  0  0
  -49.7070   -4.2618   15.3939 C   0  0  0  0  0  0
  -50.8647   -5.1541   15.6056 C   0  0  0  0  0  0
  -51.7984   -6.9886   17.0121 C   0  0  0  0  0  0
  -49.4785   -6.9805   18.5754 C   0  0  0  0  0  0
  -50.0186   -1.7660   20.6570 C   0  0  0  0  0  0
  -49.8434    0.2078   19.2748 C   0  0  0  0  0  0
  -50.5140   -7.8699   18.8633 C   0  0  0  0  0  0
  -51.6713   -7.8739   18.0832 C   0  0  0  0  0  0
  -51.3989   -1.7844   20.4559 C   0  0  0  0  0  0
  -51.2236    0.1897   19.0738 C   0  0  0  0  0  0
  -52.0014   -0.8065   19.6643 C   0  0  0  0  0  0
  -42.1180   -2.8047   17.5265 H   0  0  0  0  0  0
  -43.3428   -1.5204   15.8283 H   0  0  0  0  0  0
  -41.9740   -0.1969   21.3003 H   0  0  0  0  0  0
  -52.9249   -7.7714   15.6555 H   0  0  0  0  0  0
  -51.1947   -9.2882   19.9514 H   0  0  0  0  0  0
  -53.5297   -0.7221   18.5182 H   0  0  0  0  0  0
  1 12  1  0  0  0
  1 22  1  0  0  0
  2 20  1  0  0  0
  2 28  1  0  0  0
  3 17  1  0  0  0
  3 41  1  0  0  0
  4 18  1  0  0  0
  4 42  1  0  0  0
  5 19  1  0  0  0
  5 43  1  0  0  0
  6 23  2  0  0  0
  7 32  1  0  0  0
  7 44  1  0  0  0
  8 31  2  0  0  0
  9 36  1  0  0  0
  9 45  1  0  0  0
 10 40  1  0  0  0
 10 46  1  0  0  0
 11 12  1  0  0  0
 11 13  1  0  0  0
 11 17  2  0  0  0
 12 14  2  0  0  0
 13 16  1  0  0  0
 13 18  2  0  0  0
 14 19  1  0  0  0
 14 23  1  0  0  0
 15 16  2  0  0  0
 15 20  1  0  0  0
 15 24  1  0  0  0
 17 21  1  0  0  0
 18 25  1  0  0  0
 19 21  2  0  0  0
 20 30  2  0  0  0
 22 26  2  0  0  0
 22 29  1  0  0  0
 23 26  1  0  0  0
 24 25  2  0  0  0
 27 28  1  0  0  0
 27 31  1  0  0  0
 27 32  2  0  0  0
 28 33  2  0  0  0
 29 34  2  0  0  0
 29 35  1  0  0  0
 30 31  1  0  0  0
 32 37  1  0  0  0
 33 36  1  0  0  0
 34 38  1  0  0  0
 35 39  2  0  0  0
 36 37  2  0  0  0
 38 40  2  0  0  0
 39 40  1  0  0  0
M  END
>  <CHROM.0>
-54.04940717,61.43196201,179.65944437

>  <CHROM.1>
-138.41253995,69.26291490,-158.22834711,100.68954032,-178.86960536,-131.81436890
-44.99096818,-35.51055586,102.75192934,-48.01463895,-2.95084916,18.29957616
0.64146659,0.29583323,0.77337684

>  <Name>
5281600

>  <PUBCHEM_ATOM_DEF_STEREO_COUNT>
0

>  <PUBCHEM_ATOM_UDEF_STEREO_COUNT>
0

>  <PUBCHEM_BOND_DEF_STEREO_COUNT>
0

>  <PUBCHEM_BOND_UDEF_STEREO_COUNT>
0

>  <PUBCHEM_CACTVS_TAUTO_COUNT>
994

>  <PUBCHEM_COMPONENT_COUNT>
1

>  <PUBCHEM_COMPOUND_CID>
5281600

>  <PUBCHEM_CONFORMER_DIVERSEORDER>
1
12
7
6
5
11
9
4
8
3
2
10

>  <PUBCHEM_CONFORMER_ID>
0050974000000001

>  <PUBCHEM_CONFORMER_RMSD>
0.8

>  <PUBCHEM_COORDINATE_TYPE>
2
5
10

>  <PUBCHEM_EFFECTIVE_ROTOR_COUNT>
3

>  <PUBCHEM_FEATURE_SELFOVERLAP>
81.26

>  <PUBCHEM_HEAVY_ATOM_COUNT>
40

>  <PUBCHEM_ISOTOPIC_ATOM_COUNT>
0

>  <PUBCHEM_MMFF94_ENERGY>
134.7783

>  <PUBCHEM_MMFF94_PARTIAL_CHARGES>
56
1 -0.16
10 -0.53
12 0.08
14 0.09
15 0.03
16 -0.15
17 0.08
18 0.08
19 0.08
2 -0.16
20 0.05
21 -0.15
22 0.05
23 0.47
24 -0.15
25 -0.15
26 -0.14
27 0.09
28 0.08
29 0.03
3 -0.53
30 -0.14
31 0.47
32 0.08
33 -0.15
34 -0.15
35 -0.15
36 0.08
37 -0.15
38 -0.15
39 -0.15
4 -0.53
40 0.08
41 0.15
42 0.15
43 0.15
44 0.15
45 0.15
46 0.15
47 0.15
48 0.15
49 0.15
5 -0.53
50 0.45
51 0.15
52 0.45
53 0.45
54 0.15
55 0.15
56 0.45
57 0.45
58 0.45
6 -0.57
7 -0.53
8 -0.57
9 -0.53

>  <PUBCHEM_PHARMACOPHORE_FEATURES>
16
1 1 acceptor
1 10 donor
1 2 acceptor
1 3 donor
1 4 donor
1 5 donor
1 6 acceptor
1 7 donor
1 8 acceptor
1 9 donor
6 1 12 14 22 23 26 rings
6 11 12 14 17 19 21 rings
6 13 15 16 18 24 25 rings
6 2 20 27 28 30 31 rings
6 27 28 32 33 36 37 rings
6 29 34 35 38 39 40 rings

>  <PUBCHEM_SHAPE_FINGERPRINT>
10074138 170 18272931639651384535
10462674 125 17618475011381580750
10622 236 18044087084485364727
10928967 22 18186794777961395306
11135926 11 16589159410442702964
11434127 23 16988854868850209122
11552529 35 18337099142617264300
12128747 34 17416426289408154158
12422481 6 17970917660810484883
12559416 138 17458053868550942330
131258 38 17040625661602271054
14040221 299 18130520668696863620
14068700 675 18126558149519363943
14395042 24 18339370777318689755
14674994 50 18189596350705326935
14705955 166 17345771702192931481
14856354 85 18343864420652166036
14950920 106 18341324578619618192
15320294 125 18260278451476051767
15361156 5 15359116841693389420
15484559 13 15440400299685403118
16728300 4 17967823739013222547
19319366 153 16671943977149260761
20554085 129 18057606456813237473
20775530 9 17974003148226375983
21033648 29 17986692393200921257
21133410 221 17108453988390366882
23516275 137 17830492447455348050
3882209 13 17628068207685272503
4394409 98 18410292537089562351
44880168 125 18338798914801616118
484985 159 18337095835418697607
50080093 196 18113889468875184482
5085150 59 18337387146281907241
5171179 24 16967460284478114997
581034 39 18412830166090923426

>  <PUBCHEM_SHAPE_MULTIPOLES>
764.49
14.59
6.24
3.18
25.21
8.64
-0.18
2.69
-10.24
-12.46
1.99
1.74
-0.93
-5.25

>  <PUBCHEM_SHAPE_SELFOVERLAP>
1749.357

>  <PUBCHEM_SHAPE_VOLUME>
392.9

>  <RI>
-4.21727e+08

>  <Rbt.Current_Directory>
/root/miniconda3/envs/rdock/share/rxdock-2013.1.1_148c5bd1-0/data/ligands/prepped_ligands/Amentoflavone

>  <Rbt.Executable>
rbdock/0.1.0

>  <Rbt.Library>
librxdock.so/0.1.0

>  <Rbt.Parameter_File>
/root/miniconda3/envs/rdock/share/rxdock-2013.1.1_148c5bd1-0/data/scripts/dock.prm

>  <Rbt.Receptor>
def.prm

>  <SCORE>
-13.051

>  <SCORE.INTER>
-18.105

>  <SCORE.INTER.CONST>
1

>  <SCORE.INTER.POLAR>
-1.36448

>  <SCORE.INTER.REPUL>
0.0253044

>  <SCORE.INTER.ROT>
3

>  <SCORE.INTER.VDW>
-21.9923

>  <SCORE.INTER.norm>
-0.452625

>  <SCORE.INTRA>
5.45214

>  <SCORE.INTRA.DIHEDRAL>
15.6576

>  <SCORE.INTRA.DIHEDRAL.0>
7.26727

>  <SCORE.INTRA.POLAR>
-0.637335

>  <SCORE.INTRA.POLAR.0>
0

>  <SCORE.INTRA.REPUL>
0

>  <SCORE.INTRA.REPUL.0>
0

>  <SCORE.INTRA.VDW>
-0.209728

>  <SCORE.INTRA.VDW.0>
0.367007

>  <SCORE.INTRA.norm>
0.136304

>  <SCORE.RESTR>
0.580232

>  <SCORE.RESTR.CAVITY>
0.580232

>  <SCORE.RESTR.norm>
0.0145058

>  <SCORE.SYSTEM>
-0.978348

>  <SCORE.SYSTEM.CONST>
0

>  <SCORE.SYSTEM.DIHEDRAL>
0.0932123

>  <SCORE.SYSTEM.POLAR>
-0.00112027

>  <SCORE.SYSTEM.VDW>
-1.02115

>  <SCORE.SYSTEM.norm>
-0.0244587

>  <SCORE.heavy>
40

>  <SCORE.norm>
-0.326274

$$$$
