5281600
  RxDock  02242110233D
librxdock.so/0.1.0
 46 51  0  0  0  0  0  0  0  0999 V2000
  -46.7874   -0.5153   18.8429 O   0  0  0  0  0  0
  -49.5098   -3.9475   15.6664 O   0  0  0  0  0  0
  -42.6752   -2.4374   17.3897 O   0  0  0  0  0  0
  -43.9626   -0.9332   15.4413 O   0  0  0  0  0  0
  -42.7001    0.1321   21.3667 O   0  0  0  0  0  0
  -44.9998    1.1631   22.0965 O   0  0  0  0  0  0
  -51.9376   -7.7451   17.4495 O   0  0  0  0  0  0
  -49.4133   -7.2864   17.9990 O   0  0  0  0  0  0
  -54.0763   -4.6368   14.5652 O   0  0  0  0  0  0
  -52.9694    0.7733   18.5069 O   0  0  0  0  0  0
  -44.7511   -1.4689   18.1224 C   0  0  0  0  0  0
  -45.4449   -0.6996   19.0567 C   0  0  0  0  0  0
  -45.4408   -2.0413   16.9789 C   0  0  0  0  0  0
  -44.7714   -0.1555   20.1490 C   0  0  0  0  0  0
  -47.2052   -3.4402   16.1118 C   0  0  0  0  0  0
  -46.5294   -2.8827   17.1973 C   0  0  0  0  0  0
  -43.3835   -1.6914   18.2856 C   0  0  0  0  0  0
  -45.0243   -1.7546   15.6808 C   0  0  0  0  0  0
  -43.4022   -0.3756   20.3159 C   0  0  0  0  0  0
  -48.3597   -4.3325   16.3384 C   0  0  0  0  0  0
  -42.7109   -1.1460   19.3801 C   0  0  0  0  0  0
  -47.5045    0.2394   19.7588 C   0  0  0  0  0  0
  -45.5270    0.6531   21.1177 C   0  0  0  0  0  0
  -46.7907   -3.1547   14.8110 C   0  0  0  0  0  0
  -45.7001   -2.3121   14.5953 C   0  0  0  0  0  0
  -46.9688    0.8198   20.8442 C   0  0  0  0  0  0
  -50.6742   -5.8682   16.5909 C   0  0  0  0  0  0
  -50.6376   -4.7156   15.8080 C   0  0  0  0  0  0
  -48.9374    0.3792   19.4298 C   0  0  0  0  0  0
  -48.2678   -5.4236   17.1152 C   0  0  0  0  0  0
  -49.4536   -6.2849   17.2979 C   0  0  0  0  0  0
  -51.8512   -6.6124   16.6981 C   0  0  0  0  0  0
  -51.7812   -4.2997   15.1256 C   0  0  0  0  0  0
  -49.8201   -0.6750   19.6771 C   0  0  0  0  0  0
  -49.4165    1.5663   18.8707 C   0  0  0  0  0  0
  -52.9589   -5.0401   15.2302 C   0  0  0  0  0  0
  -52.9937   -6.1939   16.0148 C   0  0  0  0  0  0
  -51.1738   -0.5430   19.3670 C   0  0  0  0  0  0
  -50.7701    1.6986   18.5608 C   0  0  0  0  0  0
  -51.6487    0.6439   18.8089 C   0  0  0  0  0  0
  -42.8093   -2.0770   16.4965 H   0  0  0  0  0  0
  -43.9609   -0.6798   14.5023 H   0  0  0  0  0  0
  -41.7471    0.0716   21.2001 H   0  0  0  0  0  0
  -52.2750   -8.4818   16.9170 H   0  0  0  0  0  0
  -53.8730   -3.8245   14.0702 H   0  0  0  0  0  0
  -53.1028    1.6097   18.0283 H   0  0  0  0  0  0
  1 12  1  0  0  0
  1 22  1  0  0  0
  2 20  1  0  0  0
  2 28  1  0  0  0
  3 17  1  0  0  0
  3 41  1  0  0  0
  4 18  1  0  0  0
  4 42  1  0  0  0
  5 19  1  0  0  0
  5 43  1  0  0  0
  6 23  2  0  0  0
  7 32  1  0  0  0
  7 44  1  0  0  0
  8 31  2  0  0  0
  9 36  1  0  0  0
  9 45  1  0  0  0
 10 40  1  0  0  0
 10 46  1  0  0  0
 11 12  1  0  0  0
 11 13  1  0  0  0
 11 17  2  0  0  0
 12 14  2  0  0  0
 13 16  1  0  0  0
 13 18  2  0  0  0
 14 19  1  0  0  0
 14 23  1  0  0  0
 15 16  2  0  0  0
 15 20  1  0  0  0
 15 24  1  0  0  0
 17 21  1  0  0  0
 18 25  1  0  0  0
 19 21  2  0  0  0
 20 30  2  0  0  0
 22 26  2  0  0  0
 22 29  1  0  0  0
 23 26  1  0  0  0
 24 25  2  0  0  0
 27 28  1  0  0  0
 27 31  1  0  0  0
 27 32  2  0  0  0
 28 33  2  0  0  0
 29 34  2  0  0  0
 29 35  1  0  0  0
 30 31  1  0  0  0
 32 37  1  0  0  0
 33 36  1  0  0  0
 34 38  1  0  0  0
 35 39  2  0  0  0
 36 37  2  0  0  0
 38 40  2  0  0  0
 39 40  1  0  0  0
M  END
>  <CHROM.0>
52.02219095,64.95229910,-178.27520560

>  <CHROM.1>
54.16085310,-166.10863898,-165.55647087,-126.28393389,0.18628429,-172.93369617
-57.24949987,125.96733251,77.50536824,-47.98149109,-2.27531309,17.81033354
0.69071462,-0.00773190,0.56867092

>  <Name>
5281600

>  <PUBCHEM_ATOM_DEF_STEREO_COUNT>
0

>  <PUBCHEM_ATOM_UDEF_STEREO_COUNT>
0

>  <PUBCHEM_BOND_DEF_STEREO_COUNT>
0

>  <PUBCHEM_BOND_UDEF_STEREO_COUNT>
0

>  <PUBCHEM_CACTVS_TAUTO_COUNT>
994

>  <PUBCHEM_COMPONENT_COUNT>
1

>  <PUBCHEM_COMPOUND_CID>
5281600

>  <PUBCHEM_CONFORMER_DIVERSEORDER>
1
12
7
6
5
11
9
4
8
3
2
10

>  <PUBCHEM_CONFORMER_ID>
0050974000000001

>  <PUBCHEM_CONFORMER_RMSD>
0.8

>  <PUBCHEM_COORDINATE_TYPE>
2
5
10

>  <PUBCHEM_EFFECTIVE_ROTOR_COUNT>
3

>  <PUBCHEM_FEATURE_SELFOVERLAP>
81.26

>  <PUBCHEM_HEAVY_ATOM_COUNT>
40

>  <PUBCHEM_ISOTOPIC_ATOM_COUNT>
0

>  <PUBCHEM_MMFF94_ENERGY>
134.7783

>  <PUBCHEM_MMFF94_PARTIAL_CHARGES>
56
1 -0.16
10 -0.53
12 0.08
14 0.09
15 0.03
16 -0.15
17 0.08
18 0.08
19 0.08
2 -0.16
20 0.05
21 -0.15
22 0.05
23 0.47
24 -0.15
25 -0.15
26 -0.14
27 0.09
28 0.08
29 0.03
3 -0.53
30 -0.14
31 0.47
32 0.08
33 -0.15
34 -0.15
35 -0.15
36 0.08
37 -0.15
38 -0.15
39 -0.15
4 -0.53
40 0.08
41 0.15
42 0.15
43 0.15
44 0.15
45 0.15
46 0.15
47 0.15
48 0.15
49 0.15
5 -0.53
50 0.45
51 0.15
52 0.45
53 0.45
54 0.15
55 0.15
56 0.45
57 0.45
58 0.45
6 -0.57
7 -0.53
8 -0.57
9 -0.53

>  <PUBCHEM_PHARMACOPHORE_FEATURES>
16
1 1 acceptor
1 10 donor
1 2 acceptor
1 3 donor
1 4 donor
1 5 donor
1 6 acceptor
1 7 donor
1 8 acceptor
1 9 donor
6 1 12 14 22 23 26 rings
6 11 12 14 17 19 21 rings
6 13 15 16 18 24 25 rings
6 2 20 27 28 30 31 rings
6 27 28 32 33 36 37 rings
6 29 34 35 38 39 40 rings

>  <PUBCHEM_SHAPE_FINGERPRINT>
10074138 170 18272931639651384535
10462674 125 17618475011381580750
10622 236 18044087084485364727
10928967 22 18186794777961395306
11135926 11 16589159410442702964
11434127 23 16988854868850209122
11552529 35 18337099142617264300
12128747 34 17416426289408154158
12422481 6 17970917660810484883
12559416 138 17458053868550942330
131258 38 17040625661602271054
14040221 299 18130520668696863620
14068700 675 18126558149519363943
14395042 24 18339370777318689755
14674994 50 18189596350705326935
14705955 166 17345771702192931481
14856354 85 18343864420652166036
14950920 106 18341324578619618192
15320294 125 18260278451476051767
15361156 5 15359116841693389420
15484559 13 15440400299685403118
16728300 4 17967823739013222547
19319366 153 16671943977149260761
20554085 129 18057606456813237473
20775530 9 17974003148226375983
21033648 29 17986692393200921257
21133410 221 17108453988390366882
23516275 137 17830492447455348050
3882209 13 17628068207685272503
4394409 98 18410292537089562351
44880168 125 18338798914801616118
484985 159 18337095835418697607
50080093 196 18113889468875184482
5085150 59 18337387146281907241
5171179 24 16967460284478114997
581034 39 18412830166090923426

>  <PUBCHEM_SHAPE_MULTIPOLES>
764.49
14.59
6.24
3.18
25.21
8.64
-0.18
2.69
-10.24
-12.46
1.99
1.74
-0.93
-5.25

>  <PUBCHEM_SHAPE_SELFOVERLAP>
1749.357

>  <PUBCHEM_SHAPE_VOLUME>
392.9

>  <RI>
-8.24548e+08

>  <Rbt.Current_Directory>
/root/miniconda3/envs/rdock/share/rxdock-2013.1.1_148c5bd1-0/data/ligands/prepped_ligands/Amentoflavone

>  <Rbt.Executable>
rbdock/0.1.0

>  <Rbt.Library>
librxdock.so/0.1.0

>  <Rbt.Parameter_File>
/root/miniconda3/envs/rdock/share/rxdock-2013.1.1_148c5bd1-0/data/scripts/dock.prm

>  <Rbt.Receptor>
def.prm

>  <SCORE>
-15.4623

>  <SCORE.INTER>
-16.162

>  <SCORE.INTER.CONST>
1

>  <SCORE.INTER.POLAR>
-0.351781

>  <SCORE.INTER.REPUL>
0.0740074

>  <SCORE.INTER.ROT>
3

>  <SCORE.INTER.VDW>
-23.736

>  <SCORE.INTER.norm>
-0.404049

>  <SCORE.INTRA>
1.13747

>  <SCORE.INTRA.DIHEDRAL>
10.7945

>  <SCORE.INTRA.DIHEDRAL.0>
7.26727

>  <SCORE.INTRA.POLAR>
-0.845891

>  <SCORE.INTRA.POLAR.0>
0

>  <SCORE.INTRA.REPUL>
0

>  <SCORE.INTRA.REPUL.0>
0

>  <SCORE.INTRA.VDW>
-1.38376

>  <SCORE.INTRA.VDW.0>
0.367007

>  <SCORE.INTRA.norm>
0.0284368

>  <SCORE.RESTR>
0.498332

>  <SCORE.RESTR.CAVITY>
0.498332

>  <SCORE.RESTR.norm>
0.0124583

>  <SCORE.SYSTEM>
-0.936103

>  <SCORE.SYSTEM.CONST>
0

>  <SCORE.SYSTEM.DIHEDRAL>
0.28697

>  <SCORE.SYSTEM.POLAR>
-0.006039

>  <SCORE.SYSTEM.VDW>
-1.05905

>  <SCORE.SYSTEM.norm>
-0.0234026

>  <SCORE.heavy>
40

>  <SCORE.norm>
-0.386557

$$$$
5281600
  RxDock  02242110233D
librxdock.so/0.1.0
 46 51  0  0  0  0  0  0  0  0999 V2000
  -47.1267   -1.3395   17.8241 O   0  0  0  0  0  0
  -49.8100   -5.0386   19.1153 O   0  0  0  0  0  0
  -47.0430   -0.4408   22.5040 O   0  0  0  0  0  0
  -48.9942    0.8078   21.3932 O   0  0  0  0  0  0
  -43.0459    0.0812   20.0201 O   0  0  0  0  0  0
  -43.1706   -0.4397   17.4516 O   0  0  0  0  0  0
  -52.9360   -8.1089   17.0424 O   0  0  0  0  0  0
  -53.5698   -5.6402   17.6657 O   0  0  0  0  0  0
  -48.5037   -9.4791   18.0587 O   0  0  0  0  0  0
  -49.7797   -3.0425   12.3424 O   0  0  0  0  0  0
  -47.0869   -0.8937   20.1424 C   0  0  0  0  0  0
  -46.4063   -0.9543   18.9261 C   0  0  0  0  0  0
  -48.4988   -1.2284   20.2160 C   0  0  0  0  0  0
  -45.0516   -0.6314   18.8690 C   0  0  0  0  0  0
  -50.2917   -2.7647   19.7191 C   0  0  0  0  0  0
  -48.9401   -2.4255   19.6566 C   0  0  0  0  0  0
  -46.4077   -0.5089   21.2987 C   0  0  0  0  0  0
  -49.4018   -0.3687   20.8373 C   0  0  0  0  0  0
  -44.3679   -0.2460   20.0245 C   0  0  0  0  0  0
  -50.7642   -4.0326   19.1276 C   0  0  0  0  0  0
  -45.0513   -0.1857   21.2396 C   0  0  0  0  0  0
  -46.4783   -1.4024   16.6000 C   0  0  0  0  0  0
  -44.3583   -0.7057   17.5740 C   0  0  0  0  0  0
  -51.1981   -1.9061   20.3409 C   0  0  0  0  0  0
  -50.7534   -0.7079   20.8999 C   0  0  0  0  0  0
  -45.1778   -1.1230   16.4184 C   0  0  0  0  0  0
  -51.4202   -6.5315   18.0768 C   0  0  0  0  0  0
  -50.1534   -6.2586   18.5903 C   0  0  0  0  0  0
  -47.3441   -1.8332   15.4839 C   0  0  0  0  0  0
  -52.0180   -4.1746   18.6694 C   0  0  0  0  0  0
  -52.4377   -5.4696   18.0965 C   0  0  0  0  0  0
  -51.7142   -7.7932   17.5550 C   0  0  0  0  0  0
  -49.1709   -7.2490   18.5852 C   0  0  0  0  0  0
  -48.6927   -1.4692   15.4613 C   0  0  0  0  0  0
  -46.8183   -2.6056   14.4455 C   0  0  0  0  0  0
  -49.4605   -8.5105   18.0647 C   0  0  0  0  0  0
  -50.7294   -8.7818   17.5507 C   0  0  0  0  0  0
  -49.5106   -1.8754   14.4068 C   0  0  0  0  0  0
  -47.6359   -3.0117   13.3909 C   0  0  0  0  0  0
  -48.9822   -2.6466   13.3716 C   0  0  0  0  0  0
  -47.1833   -1.3414   22.8430 H   0  0  0  0  0  0
  -48.2592    0.6334   22.0057 H   0  0  0  0  0  0
  -42.5730   -0.4227   19.3402 H   0  0  0  0  0  0
  -52.8402   -8.6428   16.2388 H   0  0  0  0  0  0
  -47.9736   -9.3939   17.2475 H   0  0  0  0  0  0
  -49.8595   -2.3111   11.7060 H   0  0  0  0  0  0
  1 12  1  0  0  0
  1 22  1  0  0  0
  2 20  1  0  0  0
  2 28  1  0  0  0
  3 17  1  0  0  0
  3 41  1  0  0  0
  4 18  1  0  0  0
  4 42  1  0  0  0
  5 19  1  0  0  0
  5 43  1  0  0  0
  6 23  2  0  0  0
  7 32  1  0  0  0
  7 44  1  0  0  0
  8 31  2  0  0  0
  9 36  1  0  0  0
  9 45  1  0  0  0
 10 40  1  0  0  0
 10 46  1  0  0  0
 11 12  1  0  0  0
 11 13  1  0  0  0
 11 17  2  0  0  0
 12 14  2  0  0  0
 13 16  1  0  0  0
 13 18  2  0  0  0
 14 19  1  0  0  0
 14 23  1  0  0  0
 15 16  2  0  0  0
 15 20  1  0  0  0
 15 24  1  0  0  0
 17 21  1  0  0  0
 18 25  1  0  0  0
 19 21  2  0  0  0
 20 30  2  0  0  0
 22 26  2  0  0  0
 22 29  1  0  0  0
 23 26  1  0  0  0
 24 25  2  0  0  0
 27 28  1  0  0  0
 27 31  1  0  0  0
 27 32  2  0  0  0
 28 33  2  0  0  0
 29 34  2  0  0  0
 29 35  1  0  0  0
 30 31  1  0  0  0
 32 37  1  0  0  0
 33 36  1  0  0  0
 34 38  1  0  0  0
 35 39  2  0  0  0
 36 37  2  0  0  0
 38 40  2  0  0  0
 39 40  1  0  0  0
M  END
>  <CHROM.0>
68.77487571,64.87584208,53.90386996

>  <CHROM.1>
75.09561869,-52.55923787,-31.33508653,139.20677473,-86.98992323,81.33759783
50.42359961,28.62040191,34.27641003,-48.50176838,-3.04603411,18.17605325
-0.47638456,-0.77461145,-1.90940613

>  <Name>
5281600

>  <PUBCHEM_ATOM_DEF_STEREO_COUNT>
0

>  <PUBCHEM_ATOM_UDEF_STEREO_COUNT>
0

>  <PUBCHEM_BOND_DEF_STEREO_COUNT>
0

>  <PUBCHEM_BOND_UDEF_STEREO_COUNT>
0

>  <PUBCHEM_CACTVS_TAUTO_COUNT>
994

>  <PUBCHEM_COMPONENT_COUNT>
1

>  <PUBCHEM_COMPOUND_CID>
5281600

>  <PUBCHEM_CONFORMER_DIVERSEORDER>
1
12
7
6
5
11
9
4
8
3
2
10

>  <PUBCHEM_CONFORMER_ID>
0050974000000001

>  <PUBCHEM_CONFORMER_RMSD>
0.8

>  <PUBCHEM_COORDINATE_TYPE>
2
5
10

>  <PUBCHEM_EFFECTIVE_ROTOR_COUNT>
3

>  <PUBCHEM_FEATURE_SELFOVERLAP>
81.26

>  <PUBCHEM_HEAVY_ATOM_COUNT>
40

>  <PUBCHEM_ISOTOPIC_ATOM_COUNT>
0

>  <PUBCHEM_MMFF94_ENERGY>
134.7783

>  <PUBCHEM_MMFF94_PARTIAL_CHARGES>
56
1 -0.16
10 -0.53
12 0.08
14 0.09
15 0.03
16 -0.15
17 0.08
18 0.08
19 0.08
2 -0.16
20 0.05
21 -0.15
22 0.05
23 0.47
24 -0.15
25 -0.15
26 -0.14
27 0.09
28 0.08
29 0.03
3 -0.53
30 -0.14
31 0.47
32 0.08
33 -0.15
34 -0.15
35 -0.15
36 0.08
37 -0.15
38 -0.15
39 -0.15
4 -0.53
40 0.08
41 0.15
42 0.15
43 0.15
44 0.15
45 0.15
46 0.15
47 0.15
48 0.15
49 0.15
5 -0.53
50 0.45
51 0.15
52 0.45
53 0.45
54 0.15
55 0.15
56 0.45
57 0.45
58 0.45
6 -0.57
7 -0.53
8 -0.57
9 -0.53

>  <PUBCHEM_PHARMACOPHORE_FEATURES>
16
1 1 acceptor
1 10 donor
1 2 acceptor
1 3 donor
1 4 donor
1 5 donor
1 6 acceptor
1 7 donor
1 8 acceptor
1 9 donor
6 1 12 14 22 23 26 rings
6 11 12 14 17 19 21 rings
6 13 15 16 18 24 25 rings
6 2 20 27 28 30 31 rings
6 27 28 32 33 36 37 rings
6 29 34 35 38 39 40 rings

>  <PUBCHEM_SHAPE_FINGERPRINT>
10074138 170 18272931639651384535
10462674 125 17618475011381580750
10622 236 18044087084485364727
10928967 22 18186794777961395306
11135926 11 16589159410442702964
11434127 23 16988854868850209122
11552529 35 18337099142617264300
12128747 34 17416426289408154158
12422481 6 17970917660810484883
12559416 138 17458053868550942330
131258 38 17040625661602271054
14040221 299 18130520668696863620
14068700 675 18126558149519363943
14395042 24 18339370777318689755
14674994 50 18189596350705326935
14705955 166 17345771702192931481
14856354 85 18343864420652166036
14950920 106 18341324578619618192
15320294 125 18260278451476051767
15361156 5 15359116841693389420
15484559 13 15440400299685403118
16728300 4 17967823739013222547
19319366 153 16671943977149260761
20554085 129 18057606456813237473
20775530 9 17974003148226375983
21033648 29 17986692393200921257
21133410 221 17108453988390366882
23516275 137 17830492447455348050
3882209 13 17628068207685272503
4394409 98 18410292537089562351
44880168 125 18338798914801616118
484985 159 18337095835418697607
50080093 196 18113889468875184482
5085150 59 18337387146281907241
5171179 24 16967460284478114997
581034 39 18412830166090923426

>  <PUBCHEM_SHAPE_MULTIPOLES>
764.49
14.59
6.24
3.18
25.21
8.64
-0.18
2.69
-10.24
-12.46
1.99
1.74
-0.93
-5.25

>  <PUBCHEM_SHAPE_SELFOVERLAP>
1749.357

>  <PUBCHEM_SHAPE_VOLUME>
392.9

>  <RI>
-8.24548e+08

>  <Rbt.Current_Directory>
/root/miniconda3/envs/rdock/share/rxdock-2013.1.1_148c5bd1-0/data/ligands/prepped_ligands/Amentoflavone

>  <Rbt.Executable>
rbdock/0.1.0

>  <Rbt.Library>
librxdock.so/0.1.0

>  <Rbt.Parameter_File>
/root/miniconda3/envs/rdock/share/rxdock-2013.1.1_148c5bd1-0/data/scripts/dock.prm

>  <Rbt.Receptor>
def.prm

>  <SCORE>
-9.34163

>  <SCORE.INTER>
-14.201

>  <SCORE.INTER.CONST>
1

>  <SCORE.INTER.POLAR>
-2.23726

>  <SCORE.INTER.REPUL>
0.000580629

>  <SCORE.INTER.ROT>
3

>  <SCORE.INTER.VDW>
-14.9972

>  <SCORE.INTER.norm>
-0.355025

>  <SCORE.INTRA>
4.7592

>  <SCORE.INTRA.DIHEDRAL>
18.4685

>  <SCORE.INTRA.DIHEDRAL.0>
7.26727

>  <SCORE.INTRA.POLAR>
-0.942476

>  <SCORE.INTRA.POLAR.0>
0

>  <SCORE.INTRA.REPUL>
0

>  <SCORE.INTRA.REPUL.0>
0

>  <SCORE.INTRA.VDW>
-1.27064

>  <SCORE.INTRA.VDW.0>
0.367007

>  <SCORE.INTRA.norm>
0.11898

>  <SCORE.RESTR>
0.939749

>  <SCORE.RESTR.CAVITY>
0.939749

>  <SCORE.RESTR.norm>
0.0234937

>  <SCORE.SYSTEM>
-0.839554

>  <SCORE.SYSTEM.CONST>
0

>  <SCORE.SYSTEM.DIHEDRAL>
0.393084

>  <SCORE.SYSTEM.VDW>
-1.0361

>  <SCORE.SYSTEM.norm>
-0.0209888

>  <SCORE.heavy>
40

>  <SCORE.norm>
-0.233541

$$$$
5281600
  RxDock  02242110233D
librxdock.so/0.1.0
 46 51  0  0  0  0  0  0  0  0999 V2000
  -47.3185   -1.1551   17.7968 O   0  0  0  0  0  0
  -49.7092   -5.1081   19.1879 O   0  0  0  0  0  0
  -47.0386   -0.4462   22.5016 O   0  0  0  0  0  0
  -49.1282    0.7518   21.5021 O   0  0  0  0  0  0
  -43.2169    0.4198   19.8439 O   0  0  0  0  0  0
  -43.4474   -0.0017   17.2645 O   0  0  0  0  0  0
  -52.7130   -8.2931   17.1072 O   0  0  0  0  0  0
  -53.4466   -5.8570   17.7489 O   0  0  0  0  0  0
  -48.2231   -9.4834   18.0972 O   0  0  0  0  0  0
  -50.1558   -2.7946   12.3893 O   0  0  0  0  0  0
  -47.1815   -0.8034   20.1276 C   0  0  0  0  0  0
  -46.5642   -0.7724   18.8769 C   0  0  0  0  0  0
  -48.5654   -1.2262   20.2578 C   0  0  0  0  0  0
  -45.2358   -0.3656   18.7656 C   0  0  0  0  0  0
  -50.2828   -2.8603   19.8083 C   0  0  0  0  0  0
  -48.9588   -2.4369   19.6921 C   0  0  0  0  0  0
  -46.4655   -0.4259   21.2639 C   0  0  0  0  0  0
  -49.4890   -0.4364   20.9389 C   0  0  0  0  0  0
  -44.5153    0.0129   19.9008 C   0  0  0  0  0  0
  -50.7044   -4.1430   19.2104 C   0  0  0  0  0  0
  -45.1354   -0.0186   21.1505 C   0  0  0  0  0  0
  -46.7335   -1.1280   16.5399 C   0  0  0  0  0  0
  -44.6092   -0.3442   17.4351 C   0  0  0  0  0  0
  -51.2097   -2.0718   20.4900 C   0  0  0  0  0  0
  -50.8131   -0.8597   21.0551 C   0  0  0  0  0  0
  -45.4632   -0.7627   16.3052 C   0  0  0  0  0  0
  -51.2600   -6.6603   18.1459 C   0  0  0  0  0  0
  -50.0035   -6.3381   18.6563 C   0  0  0  0  0  0
  -47.6308   -1.5643   15.4512 C   0  0  0  0  0  0
  -51.9532   -4.3343   18.7562 C   0  0  0  0  0  0
  -52.3208   -5.6420   18.1764 C   0  0  0  0  0  0
  -51.5033   -7.9299   17.6170 C   0  0  0  0  0  0
  -48.9806   -7.2866   18.6409 C   0  0  0  0  0  0
  -47.1249   -2.3026   14.3784 C   0  0  0  0  0  0
  -48.9894   -1.2416   15.4895 C   0  0  0  0  0  0
  -49.2195   -8.5557   18.1133 C   0  0  0  0  0  0
  -50.4781   -8.8765   17.6024 C   0  0  0  0  0  0
  -47.9725   -2.7155   13.3503 C   0  0  0  0  0  0
  -49.8371   -1.6545   14.4616 C   0  0  0  0  0  0
  -49.3286   -2.3915   13.3919 C   0  0  0  0  0  0
  -47.7249   -1.1349   22.5251 H   0  0  0  0  0  0
  -49.8945    1.1309   21.9656 H   0  0  0  0  0  0
  -43.0438    0.8900   19.0140 H   0  0  0  0  0  0
  -53.3553   -7.5742   17.2100 H   0  0  0  0  0  0
  -47.8203   -9.4984   17.2120 H   0  0  0  0  0  0
  -49.6426   -2.8636   11.5658 H   0  0  0  0  0  0
  1 12  1  0  0  0
  1 22  1  0  0  0
  2 20  1  0  0  0
  2 28  1  0  0  0
  3 17  1  0  0  0
  3 41  1  0  0  0
  4 18  1  0  0  0
  4 42  1  0  0  0
  5 19  1  0  0  0
  5 43  1  0  0  0
  6 23  2  0  0  0
  7 32  1  0  0  0
  7 44  1  0  0  0
  8 31  2  0  0  0
  9 36  1  0  0  0
  9 45  1  0  0  0
 10 40  1  0  0  0
 10 46  1  0  0  0
 11 12  1  0  0  0
 11 13  1  0  0  0
 11 17  2  0  0  0
 12 14  2  0  0  0
 13 16  1  0  0  0
 13 18  2  0  0  0
 14 19  1  0  0  0
 14 23  1  0  0  0
 15 16  2  0  0  0
 15 20  1  0  0  0
 15 24  1  0  0  0
 17 21  1  0  0  0
 18 25  1  0  0  0
 19 21  2  0  0  0
 20 30  2  0  0  0
 22 26  2  0  0  0
 22 29  1  0  0  0
 23 26  1  0  0  0
 24 25  2  0  0  0
 27 28  1  0  0  0
 27 31  1  0  0  0
 27 32  2  0  0  0
 28 33  2  0  0  0
 29 34  2  0  0  0
 29 35  1  0  0  0
 30 31  1  0  0  0
 32 37  1  0  0  0
 33 36  1  0  0  0
 34 38  1  0  0  0
 35 39  2  0  0  0
 36 37  2  0  0  0
 38 40  2  0  0  0
 39 40  1  0  0  0
M  END
>  <CHROM.0>
-176.00536655,-178.78650010,-60.87430149

>  <CHROM.1>
29.12932137,-177.26499152,33.04250408,-2.77458079,-98.80230925,-28.97938784
51.70463047,31.41808374,-143.40804382,-48.57091289,-2.97154715,18.18665149
-0.37271131,-0.87169030,-1.79443409

>  <Name>
5281600

>  <PUBCHEM_ATOM_DEF_STEREO_COUNT>
0

>  <PUBCHEM_ATOM_UDEF_STEREO_COUNT>
0

>  <PUBCHEM_BOND_DEF_STEREO_COUNT>
0

>  <PUBCHEM_BOND_UDEF_STEREO_COUNT>
0

>  <PUBCHEM_CACTVS_TAUTO_COUNT>
994

>  <PUBCHEM_COMPONENT_COUNT>
1

>  <PUBCHEM_COMPOUND_CID>
5281600

>  <PUBCHEM_CONFORMER_DIVERSEORDER>
1
12
7
6
5
11
9
4
8
3
2
10

>  <PUBCHEM_CONFORMER_ID>
0050974000000001

>  <PUBCHEM_CONFORMER_RMSD>
0.8

>  <PUBCHEM_COORDINATE_TYPE>
2
5
10

>  <PUBCHEM_EFFECTIVE_ROTOR_COUNT>
3

>  <PUBCHEM_FEATURE_SELFOVERLAP>
81.26

>  <PUBCHEM_HEAVY_ATOM_COUNT>
40

>  <PUBCHEM_ISOTOPIC_ATOM_COUNT>
0

>  <PUBCHEM_MMFF94_ENERGY>
134.7783

>  <PUBCHEM_MMFF94_PARTIAL_CHARGES>
56
1 -0.16
10 -0.53
12 0.08
14 0.09
15 0.03
16 -0.15
17 0.08
18 0.08
19 0.08
2 -0.16
20 0.05
21 -0.15
22 0.05
23 0.47
24 -0.15
25 -0.15
26 -0.14
27 0.09
28 0.08
29 0.03
3 -0.53
30 -0.14
31 0.47
32 0.08
33 -0.15
34 -0.15
35 -0.15
36 0.08
37 -0.15
38 -0.15
39 -0.15
4 -0.53
40 0.08
41 0.15
42 0.15
43 0.15
44 0.15
45 0.15
46 0.15
47 0.15
48 0.15
49 0.15
5 -0.53
50 0.45
51 0.15
52 0.45
53 0.45
54 0.15
55 0.15
56 0.45
57 0.45
58 0.45
6 -0.57
7 -0.53
8 -0.57
9 -0.53

>  <PUBCHEM_PHARMACOPHORE_FEATURES>
16
1 1 acceptor
1 10 donor
1 2 acceptor
1 3 donor
1 4 donor
1 5 donor
1 6 acceptor
1 7 donor
1 8 acceptor
1 9 donor
6 1 12 14 22 23 26 rings
6 11 12 14 17 19 21 rings
6 13 15 16 18 24 25 rings
6 2 20 27 28 30 31 rings
6 27 28 32 33 36 37 rings
6 29 34 35 38 39 40 rings

>  <PUBCHEM_SHAPE_FINGERPRINT>
10074138 170 18272931639651384535
10462674 125 17618475011381580750
10622 236 18044087084485364727
10928967 22 18186794777961395306
11135926 11 16589159410442702964
11434127 23 16988854868850209122
11552529 35 18337099142617264300
12128747 34 17416426289408154158
12422481 6 17970917660810484883
12559416 138 17458053868550942330
131258 38 17040625661602271054
14040221 299 18130520668696863620
14068700 675 18126558149519363943
14395042 24 18339370777318689755
14674994 50 18189596350705326935
14705955 166 17345771702192931481
14856354 85 18343864420652166036
14950920 106 18341324578619618192
15320294 125 18260278451476051767
15361156 5 15359116841693389420
15484559 13 15440400299685403118
16728300 4 17967823739013222547
19319366 153 16671943977149260761
20554085 129 18057606456813237473
20775530 9 17974003148226375983
21033648 29 17986692393200921257
21133410 221 17108453988390366882
23516275 137 17830492447455348050
3882209 13 17628068207685272503
4394409 98 18410292537089562351
44880168 125 18338798914801616118
484985 159 18337095835418697607
50080093 196 18113889468875184482
5085150 59 18337387146281907241
5171179 24 16967460284478114997
581034 39 18412830166090923426

>  <PUBCHEM_SHAPE_MULTIPOLES>
764.49
14.59
6.24
3.18
25.21
8.64
-0.18
2.69
-10.24
-12.46
1.99
1.74
-0.93
-5.25

>  <PUBCHEM_SHAPE_SELFOVERLAP>
1749.357

>  <PUBCHEM_SHAPE_VOLUME>
392.9

>  <RI>
-8.24548e+08

>  <Rbt.Current_Directory>
/root/miniconda3/envs/rdock/share/rxdock-2013.1.1_148c5bd1-0/data/ligands/prepped_ligands/Amentoflavone

>  <Rbt.Executable>
rbdock/0.1.0

>  <Rbt.Library>
librxdock.so/0.1.0

>  <Rbt.Parameter_File>
/root/miniconda3/envs/rdock/share/rxdock-2013.1.1_148c5bd1-0/data/scripts/dock.prm

>  <Rbt.Receptor>
def.prm

>  <SCORE>
-8.97302

>  <SCORE.INTER>
-11.909

>  <SCORE.INTER.CONST>
1

>  <SCORE.INTER.POLAR>
-1.1176

>  <SCORE.INTER.REPUL>
0

>  <SCORE.INTER.ROT>
3

>  <SCORE.INTER.VDW>
-16.5091

>  <SCORE.INTER.norm>
-0.297724

>  <SCORE.INTRA>
2.96814

>  <SCORE.INTRA.DIHEDRAL>
7.03096

>  <SCORE.INTRA.DIHEDRAL.0>
7.26727

>  <SCORE.INTRA.POLAR>
0

>  <SCORE.INTRA.POLAR.0>
0

>  <SCORE.INTRA.REPUL>
0

>  <SCORE.INTRA.REPUL.0>
0

>  <SCORE.INTRA.VDW>
-0.547342

>  <SCORE.INTRA.VDW.0>
0.367007

>  <SCORE.INTRA.norm>
0.0742034

>  <SCORE.RESTR>
1.01543

>  <SCORE.RESTR.CAVITY>
1.01543

>  <SCORE.RESTR.norm>
0.0253857

>  <SCORE.SYSTEM>
-1.04763

>  <SCORE.SYSTEM.CONST>
0

>  <SCORE.SYSTEM.DIHEDRAL>
0.0463601

>  <SCORE.SYSTEM.VDW>
-1.07081

>  <SCORE.SYSTEM.norm>
-0.0261907

>  <SCORE.heavy>
40

>  <SCORE.norm>
-0.224326

$$$$
5281600
  RxDock  02242110233D
librxdock.so/0.1.0
 46 51  0  0  0  0  0  0  0  0999 V2000
  -50.1254   -1.3750   17.8852 O   0  0  0  0  0  0
  -45.5934    0.1105   16.9287 O   0  0  0  0  0  0
  -51.0921   -3.3633   13.6629 O   0  0  0  0  0  0
  -50.5040   -1.2300   13.1824 O   0  0  0  0  0  0
  -54.0717   -4.1200   17.2640 O   0  0  0  0  0  0
  -53.4671   -2.9984   19.5576 O   0  0  0  0  0  0
  -41.6020   -1.6197   19.0666 O   0  0  0  0  0  0
  -43.1588   -3.0955   17.5558 O   0  0  0  0  0  0
  -42.8882    2.9160   19.6402 O   0  0  0  0  0  0
  -46.7672    2.0847   21.9755 O   0  0  0  0  0  0
  -50.6036   -2.3586   15.7927 C   0  0  0  0  0  0
  -50.9589   -2.1572   17.1266 C   0  0  0  0  0  0
  -49.3979   -1.7560   15.2505 C   0  0  0  0  0  0
  -52.1178   -2.7415   17.6347 C   0  0  0  0  0  0
  -47.0775   -1.1555   15.5282 C   0  0  0  0  0  0
  -48.2452   -1.7283   16.0324 C   0  0  0  0  0  0
  -51.4115   -3.1451   14.9710 C   0  0  0  0  0  0
  -49.3891   -1.2139   13.9673 C   0  0  0  0  0  0
  -52.9292   -3.5299   16.8155 C   0  0  0  0  0  0
  -45.8532   -1.1239   16.3532 C   0  0  0  0  0  0
  -52.5717   -3.7292   15.4815 C   0  0  0  0  0  0
  -50.4566   -1.1516   19.2131 C   0  0  0  0  0  0
  -52.4675   -2.5142   19.0452 C   0  0  0  0  0  0
  -47.0656   -0.6122   14.2436 C   0  0  0  0  0  0
  -48.2214   -0.6411   13.4631 C   0  0  0  0  0  0
  -51.5400   -1.6637   19.8183 C   0  0  0  0  0  0
  -43.6047   -0.8129   17.9738 C   0  0  0  0  0  0
  -44.4799    0.2417   17.7192 C   0  0  0  0  0  0
  -49.4898   -0.3026   19.9378 C   0  0  0  0  0  0
  -45.0908   -2.2149   16.5284 C   0  0  0  0  0  0
  -43.8820   -2.1261   17.3724 C   0  0  0  0  0  0
  -42.4859   -0.6216   18.7877 C   0  0  0  0  0  0
  -44.2406    1.4970   18.2790 C   0  0  0  0  0  0
  -48.9642   -0.7252   21.1613 C   0  0  0  0  0  0
  -49.0958    0.9262   19.4028 C   0  0  0  0  0  0
  -43.1241    1.6921   19.0923 C   0  0  0  0  0  0
  -42.2487    0.6351   19.3459 C   0  0  0  0  0  0
  -48.0503    0.0764   21.8457 C   0  0  0  0  0  0
  -48.1819    1.7277   20.0869 C   0  0  0  0  0  0
  -47.6592    1.3028   21.3084 C   0  0  0  0  0  0
  -50.4028   -4.0474   13.6117 H   0  0  0  0  0  0
  -50.2593   -1.5191   12.2866 H   0  0  0  0  0  0
  -53.9343   -4.5021   18.1443 H   0  0  0  0  0  0
  -41.5787   -2.2654   18.3438 H   0  0  0  0  0  0
  -42.3452    3.4379   19.0246 H   0  0  0  0  0  0
  -46.5761    2.8732   21.4389 H   0  0  0  0  0  0
  1 12  1  0  0  0
  1 22  1  0  0  0
  2 20  1  0  0  0
  2 28  1  0  0  0
  3 17  1  0  0  0
  3 41  1  0  0  0
  4 18  1  0  0  0
  4 42  1  0  0  0
  5 19  1  0  0  0
  5 43  1  0  0  0
  6 23  2  0  0  0
  7 32  1  0  0  0
  7 44  1  0  0  0
  8 31  2  0  0  0
  9 36  1  0  0  0
  9 45  1  0  0  0
 10 40  1  0  0  0
 10 46  1  0  0  0
 11 12  1  0  0  0
 11 13  1  0  0  0
 11 17  2  0  0  0
 12 14  2  0  0  0
 13 16  1  0  0  0
 13 18  2  0  0  0
 14 19  1  0  0  0
 14 23  1  0  0  0
 15 16  2  0  0  0
 15 20  1  0  0  0
 15 24  1  0  0  0
 17 21  1  0  0  0
 18 25  1  0  0  0
 19 21  2  0  0  0
 20 30  2  0  0  0
 22 26  2  0  0  0
 22 29  1  0  0  0
 23 26  1  0  0  0
 24 25  2  0  0  0
 27 28  1  0  0  0
 27 31  1  0  0  0
 27 32  2  0  0  0
 28 33  2  0  0  0
 29 34  2  0  0  0
 29 35  1  0  0  0
 30 31  1  0  0  0
 32 37  1  0  0  0
 33 36  1  0  0  0
 34 38  1  0  0  0
 35 39  2  0  0  0
 36 37  2  0  0  0
 38 40  2  0  0  0
 39 40  1  0  0  0
M  END
>  <CHROM.0>
-65.05840374,-175.98664756,-12.46272183

>  <CHROM.1>
79.02056602,-134.32196780,-42.51260252,28.14598627,-89.37578495,177.12769257
40.13603904,-102.32930476,-128.88406105,-47.98839606,-1.06796603,17.65981906
2.76883601,-0.23367643,-1.94389420

>  <Name>
5281600

>  <PUBCHEM_ATOM_DEF_STEREO_COUNT>
0

>  <PUBCHEM_ATOM_UDEF_STEREO_COUNT>
0

>  <PUBCHEM_BOND_DEF_STEREO_COUNT>
0

>  <PUBCHEM_BOND_UDEF_STEREO_COUNT>
0

>  <PUBCHEM_CACTVS_TAUTO_COUNT>
994

>  <PUBCHEM_COMPONENT_COUNT>
1

>  <PUBCHEM_COMPOUND_CID>
5281600

>  <PUBCHEM_CONFORMER_DIVERSEORDER>
1
12
7
6
5
11
9
4
8
3
2
10

>  <PUBCHEM_CONFORMER_ID>
0050974000000001

>  <PUBCHEM_CONFORMER_RMSD>
0.8

>  <PUBCHEM_COORDINATE_TYPE>
2
5
10

>  <PUBCHEM_EFFECTIVE_ROTOR_COUNT>
3

>  <PUBCHEM_FEATURE_SELFOVERLAP>
81.26

>  <PUBCHEM_HEAVY_ATOM_COUNT>
40

>  <PUBCHEM_ISOTOPIC_ATOM_COUNT>
0

>  <PUBCHEM_MMFF94_ENERGY>
134.7783

>  <PUBCHEM_MMFF94_PARTIAL_CHARGES>
56
1 -0.16
10 -0.53
12 0.08
14 0.09
15 0.03
16 -0.15
17 0.08
18 0.08
19 0.08
2 -0.16
20 0.05
21 -0.15
22 0.05
23 0.47
24 -0.15
25 -0.15
26 -0.14
27 0.09
28 0.08
29 0.03
3 -0.53
30 -0.14
31 0.47
32 0.08
33 -0.15
34 -0.15
35 -0.15
36 0.08
37 -0.15
38 -0.15
39 -0.15
4 -0.53
40 0.08
41 0.15
42 0.15
43 0.15
44 0.15
45 0.15
46 0.15
47 0.15
48 0.15
49 0.15
5 -0.53
50 0.45
51 0.15
52 0.45
53 0.45
54 0.15
55 0.15
56 0.45
57 0.45
58 0.45
6 -0.57
7 -0.53
8 -0.57
9 -0.53

>  <PUBCHEM_PHARMACOPHORE_FEATURES>
16
1 1 acceptor
1 10 donor
1 2 acceptor
1 3 donor
1 4 donor
1 5 donor
1 6 acceptor
1 7 donor
1 8 acceptor
1 9 donor
6 1 12 14 22 23 26 rings
6 11 12 14 17 19 21 rings
6 13 15 16 18 24 25 rings
6 2 20 27 28 30 31 rings
6 27 28 32 33 36 37 rings
6 29 34 35 38 39 40 rings

>  <PUBCHEM_SHAPE_FINGERPRINT>
10074138 170 18272931639651384535
10462674 125 17618475011381580750
10622 236 18044087084485364727
10928967 22 18186794777961395306
11135926 11 16589159410442702964
11434127 23 16988854868850209122
11552529 35 18337099142617264300
12128747 34 17416426289408154158
12422481 6 17970917660810484883
12559416 138 17458053868550942330
131258 38 17040625661602271054
14040221 299 18130520668696863620
14068700 675 18126558149519363943
14395042 24 18339370777318689755
14674994 50 18189596350705326935
14705955 166 17345771702192931481
14856354 85 18343864420652166036
14950920 106 18341324578619618192
15320294 125 18260278451476051767
15361156 5 15359116841693389420
15484559 13 15440400299685403118
16728300 4 17967823739013222547
19319366 153 16671943977149260761
20554085 129 18057606456813237473
20775530 9 17974003148226375983
21033648 29 17986692393200921257
21133410 221 17108453988390366882
23516275 137 17830492447455348050
3882209 13 17628068207685272503
4394409 98 18410292537089562351
44880168 125 18338798914801616118
484985 159 18337095835418697607
50080093 196 18113889468875184482
5085150 59 18337387146281907241
5171179 24 16967460284478114997
581034 39 18412830166090923426

>  <PUBCHEM_SHAPE_MULTIPOLES>
764.49
14.59
6.24
3.18
25.21
8.64
-0.18
2.69
-10.24
-12.46
1.99
1.74
-0.93
-5.25

>  <PUBCHEM_SHAPE_SELFOVERLAP>
1749.357

>  <PUBCHEM_SHAPE_VOLUME>
392.9

>  <RI>
-8.24548e+08

>  <Rbt.Current_Directory>
/root/miniconda3/envs/rdock/share/rxdock-2013.1.1_148c5bd1-0/data/ligands/prepped_ligands/Amentoflavone

>  <Rbt.Executable>
rbdock/0.1.0

>  <Rbt.Library>
librxdock.so/0.1.0

>  <Rbt.Parameter_File>
/root/miniconda3/envs/rdock/share/rxdock-2013.1.1_148c5bd1-0/data/scripts/dock.prm

>  <Rbt.Receptor>
def.prm

>  <SCORE>
-7.22811

>  <SCORE.INTER>
-17.9709

>  <SCORE.INTER.CONST>
1

>  <SCORE.INTER.POLAR>
-2.27669

>  <SCORE.INTER.REPUL>
0.0533661

>  <SCORE.INTER.ROT>
3

>  <SCORE.INTER.VDW>
-18.8969

>  <SCORE.INTER.norm>
-0.449271

>  <SCORE.INTRA>
8.99673

>  <SCORE.INTRA.DIHEDRAL>
17.3033

>  <SCORE.INTRA.DIHEDRAL.0>
7.26727

>  <SCORE.INTRA.POLAR>
0

>  <SCORE.INTRA.POLAR.0>
0

>  <SCORE.INTRA.REPUL>
0

>  <SCORE.INTRA.REPUL.0>
0

>  <SCORE.INTRA.VDW>
0.345074

>  <SCORE.INTRA.VDW.0>
0.367007

>  <SCORE.INTRA.norm>
0.224918

>  <SCORE.RESTR>
0.47711

>  <SCORE.RESTR.CAVITY>
0.47711

>  <SCORE.RESTR.norm>
0.0119277

>  <SCORE.SYSTEM>
1.2689

>  <SCORE.SYSTEM.CONST>
0

>  <SCORE.SYSTEM.DIHEDRAL>
3.36637

>  <SCORE.SYSTEM.VDW>
-0.414282

>  <SCORE.SYSTEM.norm>
0.0317225

>  <SCORE.heavy>
40

>  <SCORE.norm>
-0.180703

$$$$
5281600
  RxDock  02242110243D
librxdock.so/0.1.0
 46 51  0  0  0  0  0  0  0  0999 V2000
  -46.8379   -0.5534   18.8443 O   0  0  0  0  0  0
  -48.2233   -5.1529   17.1563 O   0  0  0  0  0  0
  -42.6395   -2.3431   17.4709 O   0  0  0  0  0  0
  -43.7972   -0.9340   15.5336 O   0  0  0  0  0  0
  -42.8501    0.1007   21.5209 O   0  0  0  0  0  0
  -45.1943    1.0603   22.2049 O   0  0  0  0  0  0
  -52.7092   -6.7655   16.2778 O   0  0  0  0  0  0
  -51.6360   -4.7629   14.9654 O   0  0  0  0  0  0
  -50.0191   -8.7856   19.6301 O   0  0  0  0  0  0
  -53.0310    0.6143   18.3368 O   0  0  0  0  0  0
  -44.7588   -1.4414   18.1632 C   0  0  0  0  0  0
  -45.4994   -0.7161   19.0969 C   0  0  0  0  0  0
  -45.3983   -1.9923   16.9806 C   0  0  0  0  0  0
  -44.8738   -0.1922   20.2269 C   0  0  0  0  0  0
  -47.1529   -3.3344   16.0101 C   0  0  0  0  0  0
  -46.5244   -2.7979   17.1339 C   0  0  0  0  0  0
  -43.3927   -1.6402   18.3649 C   0  0  0  0  0  0
  -44.8971   -1.7205   15.7096 C   0  0  0  0  0  0
  -43.5063   -0.3887   20.4324 C   0  0  0  0  0  0
  -48.3469   -4.1887   16.1676 C   0  0  0  0  0  0
  -42.7682   -1.1150   19.4972 C   0  0  0  0  0  0
  -47.6008    0.1574   19.7583 C   0  0  0  0  0  0
  -45.6781    0.5700   21.1940 C   0  0  0  0  0  0
  -46.6536   -3.0636   14.7361 C   0  0  0  0  0  0
  -45.5256   -2.2569   14.5857 C   0  0  0  0  0  0
  -47.1135    0.7150   20.8781 C   0  0  0  0  0  0
  -50.4771   -5.9173   16.6708 C   0  0  0  0  0  0
  -49.2822   -5.9948   17.3843 C   0  0  0  0  0  0
  -49.0249    0.2774   19.3863 C   0  0  0  0  0  0
  -49.4471   -4.0106   15.4191 C   0  0  0  0  0  0
  -50.6153   -4.8899   15.6275 C   0  0  0  0  0  0
  -51.5230   -6.8010   16.9463 C   0  0  0  0  0  0
  -49.1262   -6.9591   18.3803 C   0  0  0  0  0  0
  -49.5358    1.5030   18.9521 C   0  0  0  0  0  0
  -49.8672   -0.8342   19.4662 C   0  0  0  0  0  0
  -50.1684   -7.8438   18.6584 C   0  0  0  0  0  0
  -51.3641   -7.7648   17.9428 C   0  0  0  0  0  0
  -50.8809    1.6163   18.6000 C   0  0  0  0  0  0
  -51.2121   -0.7211   19.1139 C   0  0  0  0  0  0
  -51.7190    0.5042   18.6808 C   0  0  0  0  0  0
  -42.1758   -3.0597   17.9370 H   0  0  0  0  0  0
  -43.8433   -0.5124   14.6584 H   0  0  0  0  0  0
  -43.4757    0.5023   22.1432 H   0  0  0  0  0  0
  -53.2587   -7.5270   16.5192 H   0  0  0  0  0  0
  -50.8086   -9.3536   19.6429 H   0  0  0  0  0  0
  -53.5022   -0.1841   18.6315 H   0  0  0  0  0  0
  1 12  1  0  0  0
  1 22  1  0  0  0
  2 20  1  0  0  0
  2 28  1  0  0  0
  3 17  1  0  0  0
  3 41  1  0  0  0
  4 18  1  0  0  0
  4 42  1  0  0  0
  5 19  1  0  0  0
  5 43  1  0  0  0
  6 23  2  0  0  0
  7 32  1  0  0  0
  7 44  1  0  0  0
  8 31  2  0  0  0
  9 36  1  0  0  0
  9 45  1  0  0  0
 10 40  1  0  0  0
 10 46  1  0  0  0
 11 12  1  0  0  0
 11 13  1  0  0  0
 11 17  2  0  0  0
 12 14  2  0  0  0
 13 16  1  0  0  0
 13 18  2  0  0  0
 14 19  1  0  0  0
 14 23  1  0  0  0
 15 16  2  0  0  0
 15 20  1  0  0  0
 15 24  1  0  0  0
 17 21  1  0  0  0
 18 25  1  0  0  0
 19 21  2  0  0  0
 20 30  2  0  0  0
 22 26  2  0  0  0
 22 29  1  0  0  0
 23 26  1  0  0  0
 24 25  2  0  0  0
 27 28  1  0  0  0
 27 31  1  0  0  0
 27 32  2  0  0  0
 28 33  2  0  0  0
 29 34  2  0  0  0
 29 35  1  0  0  0
 30 31  1  0  0  0
 32 37  1  0  0  0
 33 36  1  0  0  0
 34 38  1  0  0  0
 35 39  2  0  0  0
 36 37  2  0  0  0
 38 40  2  0  0  0
 39 40  1  0  0  0
M  END
>  <CHROM.0>
-61.24832299,65.08045760,45.89323951

>  <CHROM.1>
-125.64853739,-152.87140459,5.91410919,172.09859780,-175.73950192,-167.85566965
-53.40671247,-45.85612844,-107.83467897,-47.77946257,-2.49264482,18.06178610
0.80033387,0.04717856,0.43824399

>  <Name>
5281600

>  <PUBCHEM_ATOM_DEF_STEREO_COUNT>
0

>  <PUBCHEM_ATOM_UDEF_STEREO_COUNT>
0

>  <PUBCHEM_BOND_DEF_STEREO_COUNT>
0

>  <PUBCHEM_BOND_UDEF_STEREO_COUNT>
0

>  <PUBCHEM_CACTVS_TAUTO_COUNT>
994

>  <PUBCHEM_COMPONENT_COUNT>
1

>  <PUBCHEM_COMPOUND_CID>
5281600

>  <PUBCHEM_CONFORMER_DIVERSEORDER>
1
12
7
6
5
11
9
4
8
3
2
10

>  <PUBCHEM_CONFORMER_ID>
0050974000000001

>  <PUBCHEM_CONFORMER_RMSD>
0.8

>  <PUBCHEM_COORDINATE_TYPE>
2
5
10

>  <PUBCHEM_EFFECTIVE_ROTOR_COUNT>
3

>  <PUBCHEM_FEATURE_SELFOVERLAP>
81.26

>  <PUBCHEM_HEAVY_ATOM_COUNT>
40

>  <PUBCHEM_ISOTOPIC_ATOM_COUNT>
0

>  <PUBCHEM_MMFF94_ENERGY>
134.7783

>  <PUBCHEM_MMFF94_PARTIAL_CHARGES>
56
1 -0.16
10 -0.53
12 0.08
14 0.09
15 0.03
16 -0.15
17 0.08
18 0.08
19 0.08
2 -0.16
20 0.05
21 -0.15
22 0.05
23 0.47
24 -0.15
25 -0.15
26 -0.14
27 0.09
28 0.08
29 0.03
3 -0.53
30 -0.14
31 0.47
32 0.08
33 -0.15
34 -0.15
35 -0.15
36 0.08
37 -0.15
38 -0.15
39 -0.15
4 -0.53
40 0.08
41 0.15
42 0.15
43 0.15
44 0.15
45 0.15
46 0.15
47 0.15
48 0.15
49 0.15
5 -0.53
50 0.45
51 0.15
52 0.45
53 0.45
54 0.15
55 0.15
56 0.45
57 0.45
58 0.45
6 -0.57
7 -0.53
8 -0.57
9 -0.53

>  <PUBCHEM_PHARMACOPHORE_FEATURES>
16
1 1 acceptor
1 10 donor
1 2 acceptor
1 3 donor
1 4 donor
1 5 donor
1 6 acceptor
1 7 donor
1 8 acceptor
1 9 donor
6 1 12 14 22 23 26 rings
6 11 12 14 17 19 21 rings
6 13 15 16 18 24 25 rings
6 2 20 27 28 30 31 rings
6 27 28 32 33 36 37 rings
6 29 34 35 38 39 40 rings

>  <PUBCHEM_SHAPE_FINGERPRINT>
10074138 170 18272931639651384535
10462674 125 17618475011381580750
10622 236 18044087084485364727
10928967 22 18186794777961395306
11135926 11 16589159410442702964
11434127 23 16988854868850209122
11552529 35 18337099142617264300
12128747 34 17416426289408154158
12422481 6 17970917660810484883
12559416 138 17458053868550942330
131258 38 17040625661602271054
14040221 299 18130520668696863620
14068700 675 18126558149519363943
14395042 24 18339370777318689755
14674994 50 18189596350705326935
14705955 166 17345771702192931481
14856354 85 18343864420652166036
14950920 106 18341324578619618192
15320294 125 18260278451476051767
15361156 5 15359116841693389420
15484559 13 15440400299685403118
16728300 4 17967823739013222547
19319366 153 16671943977149260761
20554085 129 18057606456813237473
20775530 9 17974003148226375983
21033648 29 17986692393200921257
21133410 221 17108453988390366882
23516275 137 17830492447455348050
3882209 13 17628068207685272503
4394409 98 18410292537089562351
44880168 125 18338798914801616118
484985 159 18337095835418697607
50080093 196 18113889468875184482
5085150 59 18337387146281907241
5171179 24 16967460284478114997
581034 39 18412830166090923426

>  <PUBCHEM_SHAPE_MULTIPOLES>
764.49
14.59
6.24
3.18
25.21
8.64
-0.18
2.69
-10.24
-12.46
1.99
1.74
-0.93
-5.25

>  <PUBCHEM_SHAPE_SELFOVERLAP>
1749.357

>  <PUBCHEM_SHAPE_VOLUME>
392.9

>  <RI>
-8.24548e+08

>  <Rbt.Current_Directory>
/root/miniconda3/envs/rdock/share/rxdock-2013.1.1_148c5bd1-0/data/ligands/prepped_ligands/Amentoflavone

>  <Rbt.Executable>
rbdock/0.1.0

>  <Rbt.Library>
librxdock.so/0.1.0

>  <Rbt.Parameter_File>
/root/miniconda3/envs/rdock/share/rxdock-2013.1.1_148c5bd1-0/data/scripts/dock.prm

>  <Rbt.Receptor>
def.prm

>  <SCORE>
-12.6295

>  <SCORE.INTER>
-15.3639

>  <SCORE.INTER.CONST>
1

>  <SCORE.INTER.POLAR>
-0.313546

>  <SCORE.INTER.REPUL>
0.0572665

>  <SCORE.INTER.ROT>
3

>  <SCORE.INTER.VDW>
-22.9842

>  <SCORE.INTER.norm>
-0.384097

>  <SCORE.INTRA>
2.98709

>  <SCORE.INTRA.DIHEDRAL>
7.21633

>  <SCORE.INTRA.DIHEDRAL.0>
7.26727

>  <SCORE.INTRA.POLAR>
0

>  <SCORE.INTRA.POLAR.0>
0

>  <SCORE.INTRA.REPUL>
0.0571708

>  <SCORE.INTRA.REPUL.0>
0

>  <SCORE.INTRA.VDW>
-0.906923

>  <SCORE.INTRA.VDW.0>
0.367007

>  <SCORE.INTRA.norm>
0.0746773

>  <SCORE.RESTR>
0.504646

>  <SCORE.RESTR.CAVITY>
0.504646

>  <SCORE.RESTR.norm>
0.0126161

>  <SCORE.SYSTEM>
-0.75737

>  <SCORE.SYSTEM.CONST>
0

>  <SCORE.SYSTEM.DIHEDRAL>
0.611141

>  <SCORE.SYSTEM.VDW>
-1.06294

>  <SCORE.SYSTEM.norm>
-0.0189343

>  <SCORE.heavy>
40

>  <SCORE.norm>
-0.315738

$$$$
5281600
  RxDock  02242110243D
librxdock.so/0.1.0
 46 51  0  0  0  0  0  0  0  0999 V2000
  -47.1397   -1.4418   17.7025 O   0  0  0  0  0  0
  -50.2013   -4.8346   19.1195 O   0  0  0  0  0  0
  -47.0281   -0.3536   22.3414 O   0  0  0  0  0  0
  -48.8441    0.9811   21.2088 O   0  0  0  0  0  0
  -42.9743   -0.2868   19.8956 O   0  0  0  0  0  0
  -43.1165   -0.9048   17.3496 O   0  0  0  0  0  0
  -53.5092   -7.6081   16.9146 O   0  0  0  0  0  0
  -53.8758   -5.0507   17.3728 O   0  0  0  0  0  0
  -49.3828   -9.4515   18.3740 O   0  0  0  0  0  0
  -49.8752   -3.1436   12.2621 O   0  0  0  0  0  0
  -47.0860   -0.9020   20.0004 C   0  0  0  0  0  0
  -46.4002   -1.0735   18.7977 C   0  0  0  0  0  0
  -48.5223   -1.1097   20.0676 C   0  0  0  0  0  0
  -45.0220   -0.8718   18.7466 C   0  0  0  0  0  0
  -50.4404   -2.4899   19.5801 C   0  0  0  0  0  0
  -49.0638   -2.2722   19.5234 C   0  0  0  0  0  0
  -46.3883   -0.5282   21.1493 C   0  0  0  0  0  0
  -49.3502   -0.1637   20.6680 C   0  0  0  0  0  0
  -44.3198   -0.4978   19.8947 C   0  0  0  0  0  0
  -51.0189   -3.7207   19.0046 C   0  0  0  0  0  0
  -45.0083   -0.3264   21.0962 C   0  0  0  0  0  0
  -46.4861   -1.6131   16.4915 C   0  0  0  0  0  0
  -44.3240   -1.0614   17.4660 C   0  0  0  0  0  0
  -51.2718   -1.5448   20.1809 C   0  0  0  0  0  0
  -50.7269   -0.3815   20.7247 C   0  0  0  0  0  0
  -45.1644   -1.4554   16.3171 C   0  0  0  0  0  0
  -51.8964   -6.1738   18.0091 C   0  0  0  0  0  0
  -50.6516   -6.0302   18.6195 C   0  0  0  0  0  0
  -47.3742   -2.0148   15.3821 C   0  0  0  0  0  0
  -52.2390   -3.7333   18.4447 C   0  0  0  0  0  0
  -52.7702   -4.9964   17.8935 C   0  0  0  0  0  0
  -52.3034   -7.4165   17.5183 C   0  0  0  0  0  0
  -49.8045   -7.1317   18.7433 C   0  0  0  0  0  0
  -48.1113   -3.1985   15.4668 C   0  0  0  0  0  0
  -47.4818   -1.2125   14.2436 C   0  0  0  0  0  0
  -50.2072   -8.3746   18.2543 C   0  0  0  0  0  0
  -51.4540   -8.5165   17.6431 C   0  0  0  0  0  0
  -48.9508   -3.5778   14.4193 C   0  0  0  0  0  0
  -48.3213   -1.5915   13.1961 C   0  0  0  0  0  0
  -49.0558   -2.7742   13.2839 C   0  0  0  0  0  0
  -46.4678   -0.6968   23.0583 H   0  0  0  0  0  0
  -49.4533    1.3070   21.8932 H   0  0  0  0  0  0
  -42.5771   -0.6205   19.0766 H   0  0  0  0  0  0
  -53.5368   -8.4726   16.4765 H   0  0  0  0  0  0
  -49.5716  -10.0752   17.6519 H   0  0  0  0  0  0
  -49.6834   -2.5872   11.4874 H   0  0  0  0  0  0
  1 12  1  0  0  0
  1 22  1  0  0  0
  2 20  1  0  0  0
  2 28  1  0  0  0
  3 17  1  0  0  0
  3 41  1  0  0  0
  4 18  1  0  0  0
  4 42  1  0  0  0
  5 19  1  0  0  0
  5 43  1  0  0  0
  6 23  2  0  0  0
  7 32  1  0  0  0
  7 44  1  0  0  0
  8 31  2  0  0  0
  9 36  1  0  0  0
  9 45  1  0  0  0
 10 40  1  0  0  0
 10 46  1  0  0  0
 11 12  1  0  0  0
 11 13  1  0  0  0
 11 17  2  0  0  0
 12 14  2  0  0  0
 13 16  1  0  0  0
 13 18  2  0  0  0
 14 19  1  0  0  0
 14 23  1  0  0  0
 15 16  2  0  0  0
 15 20  1  0  0  0
 15 24  1  0  0  0
 17 21  1  0  0  0
 18 25  1  0  0  0
 19 21  2  0  0  0
 20 30  2  0  0  0
 22 26  2  0  0  0
 22 29  1  0  0  0
 23 26  1  0  0  0
 24 25  2  0  0  0
 27 28  1  0  0  0
 27 31  1  0  0  0
 27 32  2  0  0  0
 28 33  2  0  0  0
 29 34  2  0  0  0
 29 35  1  0  0  0
 30 31  1  0  0  0
 32 37  1  0  0  0
 33 36  1  0  0  0
 34 38  1  0  0  0
 35 39  2  0  0  0
 36 37  2  0  0  0
 38 40  2  0  0  0
 39 40  1  0  0  0
M  END
>  <CHROM.0>
-47.13443506,178.53568932,-175.74378716

>  <CHROM.1>
141.30497868,-155.23008171,-12.72465105,167.89781615,-152.29291320,-167.78444629
48.87894686,33.86525158,-59.50727423,-48.67778485,-2.99374787,18.08577834
-0.42098391,-0.70820490,-1.87660536

>  <Name>
5281600

>  <PUBCHEM_ATOM_DEF_STEREO_COUNT>
0

>  <PUBCHEM_ATOM_UDEF_STEREO_COUNT>
0

>  <PUBCHEM_BOND_DEF_STEREO_COUNT>
0

>  <PUBCHEM_BOND_UDEF_STEREO_COUNT>
0

>  <PUBCHEM_CACTVS_TAUTO_COUNT>
994

>  <PUBCHEM_COMPONENT_COUNT>
1

>  <PUBCHEM_COMPOUND_CID>
5281600

>  <PUBCHEM_CONFORMER_DIVERSEORDER>
1
12
7
6
5
11
9
4
8
3
2
10

>  <PUBCHEM_CONFORMER_ID>
0050974000000001

>  <PUBCHEM_CONFORMER_RMSD>
0.8

>  <PUBCHEM_COORDINATE_TYPE>
2
5
10

>  <PUBCHEM_EFFECTIVE_ROTOR_COUNT>
3

>  <PUBCHEM_FEATURE_SELFOVERLAP>
81.26

>  <PUBCHEM_HEAVY_ATOM_COUNT>
40

>  <PUBCHEM_ISOTOPIC_ATOM_COUNT>
0

>  <PUBCHEM_MMFF94_ENERGY>
134.7783

>  <PUBCHEM_MMFF94_PARTIAL_CHARGES>
56
1 -0.16
10 -0.53
12 0.08
14 0.09
15 0.03
16 -0.15
17 0.08
18 0.08
19 0.08
2 -0.16
20 0.05
21 -0.15
22 0.05
23 0.47
24 -0.15
25 -0.15
26 -0.14
27 0.09
28 0.08
29 0.03
3 -0.53
30 -0.14
31 0.47
32 0.08
33 -0.15
34 -0.15
35 -0.15
36 0.08
37 -0.15
38 -0.15
39 -0.15
4 -0.53
40 0.08
41 0.15
42 0.15
43 0.15
44 0.15
45 0.15
46 0.15
47 0.15
48 0.15
49 0.15
5 -0.53
50 0.45
51 0.15
52 0.45
53 0.45
54 0.15
55 0.15
56 0.45
57 0.45
58 0.45
6 -0.57
7 -0.53
8 -0.57
9 -0.53

>  <PUBCHEM_PHARMACOPHORE_FEATURES>
16
1 1 acceptor
1 10 donor
1 2 acceptor
1 3 donor
1 4 donor
1 5 donor
1 6 acceptor
1 7 donor
1 8 acceptor
1 9 donor
6 1 12 14 22 23 26 rings
6 11 12 14 17 19 21 rings
6 13 15 16 18 24 25 rings
6 2 20 27 28 30 31 rings
6 27 28 32 33 36 37 rings
6 29 34 35 38 39 40 rings

>  <PUBCHEM_SHAPE_FINGERPRINT>
10074138 170 18272931639651384535
10462674 125 17618475011381580750
10622 236 18044087084485364727
10928967 22 18186794777961395306
11135926 11 16589159410442702964
11434127 23 16988854868850209122
11552529 35 18337099142617264300
12128747 34 17416426289408154158
12422481 6 17970917660810484883
12559416 138 17458053868550942330
131258 38 17040625661602271054
14040221 299 18130520668696863620
14068700 675 18126558149519363943
14395042 24 18339370777318689755
14674994 50 18189596350705326935
14705955 166 17345771702192931481
14856354 85 18343864420652166036
14950920 106 18341324578619618192
15320294 125 18260278451476051767
15361156 5 15359116841693389420
15484559 13 15440400299685403118
16728300 4 17967823739013222547
19319366 153 16671943977149260761
20554085 129 18057606456813237473
20775530 9 17974003148226375983
21033648 29 17986692393200921257
21133410 221 17108453988390366882
23516275 137 17830492447455348050
3882209 13 17628068207685272503
4394409 98 18410292537089562351
44880168 125 18338798914801616118
484985 159 18337095835418697607
50080093 196 18113889468875184482
5085150 59 18337387146281907241
5171179 24 16967460284478114997
581034 39 18412830166090923426

>  <PUBCHEM_SHAPE_MULTIPOLES>
764.49
14.59
6.24
3.18
25.21
8.64
-0.18
2.69
-10.24
-12.46
1.99
1.74
-0.93
-5.25

>  <PUBCHEM_SHAPE_SELFOVERLAP>
1749.357

>  <PUBCHEM_SHAPE_VOLUME>
392.9

>  <RI>
-8.24548e+08

>  <Rbt.Current_Directory>
/root/miniconda3/envs/rdock/share/rxdock-2013.1.1_148c5bd1-0/data/ligands/prepped_ligands/Amentoflavone

>  <Rbt.Executable>
rbdock/0.1.0

>  <Rbt.Library>
librxdock.so/0.1.0

>  <Rbt.Parameter_File>
/root/miniconda3/envs/rdock/share/rxdock-2013.1.1_148c5bd1-0/data/scripts/dock.prm

>  <Rbt.Receptor>
def.prm

>  <SCORE>
-9.835

>  <SCORE.INTER>
-12.2

>  <SCORE.INTER.CONST>
1

>  <SCORE.INTER.POLAR>
-0.953796

>  <SCORE.INTER.REPUL>
0.00977313

>  <SCORE.INTER.ROT>
3

>  <SCORE.INTER.VDW>
-17.406

>  <SCORE.INTER.norm>
-0.305

>  <SCORE.INTRA>
2.34332

>  <SCORE.INTRA.DIHEDRAL>
4.91749

>  <SCORE.INTRA.DIHEDRAL.0>
7.26727

>  <SCORE.INTRA.POLAR>
0

>  <SCORE.INTRA.POLAR.0>
0

>  <SCORE.INTRA.REPUL>
0

>  <SCORE.INTRA.REPUL.0>
0

>  <SCORE.INTRA.VDW>
-0.115431

>  <SCORE.INTRA.VDW.0>
0.367007

>  <SCORE.INTRA.norm>
0.0585829

>  <SCORE.RESTR>
0.849227

>  <SCORE.RESTR.CAVITY>
0.849227

>  <SCORE.RESTR.norm>
0.0212307

>  <SCORE.SYSTEM>
-0.827556

>  <SCORE.SYSTEM.CONST>
0

>  <SCORE.SYSTEM.DIHEDRAL>
0.436217

>  <SCORE.SYSTEM.POLAR>
-0.010973

>  <SCORE.SYSTEM.VDW>
-1.00836

>  <SCORE.SYSTEM.norm>
-0.0206889

>  <SCORE.heavy>
40

>  <SCORE.norm>
-0.245875

$$$$
5281600
  RxDock  02242110243D
librxdock.so/0.1.0
 46 51  0  0  0  0  0  0  0  0999 V2000
  -46.6965   -0.5814   18.7376 O   0  0  0  0  0  0
  -49.0254   -4.7758   16.4219 O   0  0  0  0  0  0
  -42.9360   -3.2421   17.5144 O   0  0  0  0  0  0
  -43.5650   -1.6946   15.5925 O   0  0  0  0  0  0
  -42.8385   -0.9387   21.6501 O   0  0  0  0  0  0
  -44.9420    0.5108   22.2487 O   0  0  0  0  0  0
  -53.8218   -4.6571   15.7321 O   0  0  0  0  0  0
  -52.2286   -2.7136   14.9776 O   0  0  0  0  0  0
  -51.7685   -8.3757   17.8561 O   0  0  0  0  0  0
  -52.4216    1.9879   17.9559 O   0  0  0  0  0  0
  -44.8347   -1.9006   18.1308 C   0  0  0  0  0  0
  -45.4480   -1.0537   19.0542 C   0  0  0  0  0  0
  -45.5075   -2.2545   16.8927 C   0  0  0  0  0  0
  -44.7915   -0.7213   20.2380 C   0  0  0  0  0  0
  -47.4858   -3.0534   15.7659 C   0  0  0  0  0  0
  -46.8228   -2.7106   16.9443 C   0  0  0  0  0  0
  -43.5644   -2.4128   18.3966 C   0  0  0  0  0  0
  -44.8516   -2.1396   15.6691 C   0  0  0  0  0  0
  -43.5196   -1.2317   20.5077 C   0  0  0  0  0  0
  -48.8801   -3.5373   15.8155 C   0  0  0  0  0  0
  -42.9087   -2.0790   19.5826 C   0  0  0  0  0  0
  -47.3337    0.2571   19.6396 C   0  0  0  0  0  0
  -45.4606    0.1751   21.1929 C   0  0  0  0  0  0
  -46.8318   -2.9391   14.5392 C   0  0  0  0  0  0
  -45.5146   -2.4824   14.4907 C   0  0  0  0  0  0
  -46.8033    0.6542   20.8071 C   0  0  0  0  0  0
  -51.4226   -4.6599   16.0484 C   0  0  0  0  0  0
  -50.2847   -5.3106   16.5222 C   0  0  0  0  0  0
  -48.6676    0.7110   19.1973 C   0  0  0  0  0  0
  -49.8980   -2.8110   15.3269 C   0  0  0  0  0  0
  -51.2735   -3.3420   15.4127 C   0  0  0  0  0  0
  -52.6808   -5.2522   16.1783 C   0  0  0  0  0  0
  -50.3990   -6.5608   17.1308 C   0  0  0  0  0  0
  -49.6568   -0.2229   18.8795 C   0  0  0  0  0  0
  -48.9465    2.0761   19.0957 C   0  0  0  0  0  0
  -51.6539   -7.1559   17.2623 C   0  0  0  0  0  0
  -52.7922   -6.5029   16.7869 C   0  0  0  0  0  0
  -50.9171    0.2056   18.4624 C   0  0  0  0  0  0
  -50.2067    2.5047   18.6789 C   0  0  0  0  0  0
  -51.1920    1.5695   18.3622 C   0  0  0  0  0  0
  -43.6038   -3.7344   17.0069 H   0  0  0  0  0  0
  -43.2781   -1.7067   14.6634 H   0  0  0  0  0  0
  -43.4200   -0.5000   22.2898 H   0  0  0  0  0  0
  -54.5000   -5.3228   15.5397 H   0  0  0  0  0  0
  -52.6416   -8.7487   17.6447 H   0  0  0  0  0  0
  -53.0753    1.2999   18.1698 H   0  0  0  0  0  0
  1 12  1  0  0  0
  1 22  1  0  0  0
  2 20  1  0  0  0
  2 28  1  0  0  0
  3 17  1  0  0  0
  3 41  1  0  0  0
  4 18  1  0  0  0
  4 42  1  0  0  0
  5 19  1  0  0  0
  5 43  1  0  0  0
  6 23  2  0  0  0
  7 32  1  0  0  0
  7 44  1  0  0  0
  8 31  2  0  0  0
  9 36  1  0  0  0
  9 45  1  0  0  0
 10 40  1  0  0  0
 10 46  1  0  0  0
 11 12  1  0  0  0
 11 13  1  0  0  0
 11 17  2  0  0  0
 12 14  2  0  0  0
 13 16  1  0  0  0
 13 18  2  0  0  0
 14 19  1  0  0  0
 14 23  1  0  0  0
 15 16  2  0  0  0
 15 20  1  0  0  0
 15 24  1  0  0  0
 17 21  1  0  0  0
 18 25  1  0  0  0
 19 21  2  0  0  0
 20 30  2  0  0  0
 22 26  2  0  0  0
 22 29  1  0  0  0
 23 26  1  0  0  0
 24 25  2  0  0  0
 27 28  1  0  0  0
 27 31  1  0  0  0
 27 32  2  0  0  0
 28 33  2  0  0  0
 29 34  2  0  0  0
 29 35  1  0  0  0
 30 31  1  0  0  0
 32 37  1  0  0  0
 33 36  1  0  0  0
 34 38  1  0  0  0
 35 39  2  0  0  0
 36 37  2  0  0  0
 38 40  2  0  0  0
 39 40  1  0  0  0
M  END
>  <CHROM.0>
-63.42100008,-62.35982941,-56.54906088

>  <CHROM.1>
-28.44930420,178.53108991,11.45873492,154.79422779,-164.18173822,25.90723441
-49.63622574,-67.42162793,56.96053695,-48.03490077,-2.18847503,17.74558651
0.61794572,-0.13260917,0.47362854

>  <Name>
5281600

>  <PUBCHEM_ATOM_DEF_STEREO_COUNT>
0

>  <PUBCHEM_ATOM_UDEF_STEREO_COUNT>
0

>  <PUBCHEM_BOND_DEF_STEREO_COUNT>
0

>  <PUBCHEM_BOND_UDEF_STEREO_COUNT>
0

>  <PUBCHEM_CACTVS_TAUTO_COUNT>
994

>  <PUBCHEM_COMPONENT_COUNT>
1

>  <PUBCHEM_COMPOUND_CID>
5281600

>  <PUBCHEM_CONFORMER_DIVERSEORDER>
1
12
7
6
5
11
9
4
8
3
2
10

>  <PUBCHEM_CONFORMER_ID>
0050974000000001

>  <PUBCHEM_CONFORMER_RMSD>
0.8

>  <PUBCHEM_COORDINATE_TYPE>
2
5
10

>  <PUBCHEM_EFFECTIVE_ROTOR_COUNT>
3

>  <PUBCHEM_FEATURE_SELFOVERLAP>
81.26

>  <PUBCHEM_HEAVY_ATOM_COUNT>
40

>  <PUBCHEM_ISOTOPIC_ATOM_COUNT>
0

>  <PUBCHEM_MMFF94_ENERGY>
134.7783

>  <PUBCHEM_MMFF94_PARTIAL_CHARGES>
56
1 -0.16
10 -0.53
12 0.08
14 0.09
15 0.03
16 -0.15
17 0.08
18 0.08
19 0.08
2 -0.16
20 0.05
21 -0.15
22 0.05
23 0.47
24 -0.15
25 -0.15
26 -0.14
27 0.09
28 0.08
29 0.03
3 -0.53
30 -0.14
31 0.47
32 0.08
33 -0.15
34 -0.15
35 -0.15
36 0.08
37 -0.15
38 -0.15
39 -0.15
4 -0.53
40 0.08
41 0.15
42 0.15
43 0.15
44 0.15
45 0.15
46 0.15
47 0.15
48 0.15
49 0.15
5 -0.53
50 0.45
51 0.15
52 0.45
53 0.45
54 0.15
55 0.15
56 0.45
57 0.45
58 0.45
6 -0.57
7 -0.53
8 -0.57
9 -0.53

>  <PUBCHEM_PHARMACOPHORE_FEATURES>
16
1 1 acceptor
1 10 donor
1 2 acceptor
1 3 donor
1 4 donor
1 5 donor
1 6 acceptor
1 7 donor
1 8 acceptor
1 9 donor
6 1 12 14 22 23 26 rings
6 11 12 14 17 19 21 rings
6 13 15 16 18 24 25 rings
6 2 20 27 28 30 31 rings
6 27 28 32 33 36 37 rings
6 29 34 35 38 39 40 rings

>  <PUBCHEM_SHAPE_FINGERPRINT>
10074138 170 18272931639651384535
10462674 125 17618475011381580750
10622 236 18044087084485364727
10928967 22 18186794777961395306
11135926 11 16589159410442702964
11434127 23 16988854868850209122
11552529 35 18337099142617264300
12128747 34 17416426289408154158
12422481 6 17970917660810484883
12559416 138 17458053868550942330
131258 38 17040625661602271054
14040221 299 18130520668696863620
14068700 675 18126558149519363943
14395042 24 18339370777318689755
14674994 50 18189596350705326935
14705955 166 17345771702192931481
14856354 85 18343864420652166036
14950920 106 18341324578619618192
15320294 125 18260278451476051767
15361156 5 15359116841693389420
15484559 13 15440400299685403118
16728300 4 17967823739013222547
19319366 153 16671943977149260761
20554085 129 18057606456813237473
20775530 9 17974003148226375983
21033648 29 17986692393200921257
21133410 221 17108453988390366882
23516275 137 17830492447455348050
3882209 13 17628068207685272503
4394409 98 18410292537089562351
44880168 125 18338798914801616118
484985 159 18337095835418697607
50080093 196 18113889468875184482
5085150 59 18337387146281907241
5171179 24 16967460284478114997
581034 39 18412830166090923426

>  <PUBCHEM_SHAPE_MULTIPOLES>
764.49
14.59
6.24
3.18
25.21
8.64
-0.18
2.69
-10.24
-12.46
1.99
1.74
-0.93
-5.25

>  <PUBCHEM_SHAPE_SELFOVERLAP>
1749.357

>  <PUBCHEM_SHAPE_VOLUME>
392.9

>  <RI>
-8.24548e+08

>  <Rbt.Current_Directory>
/root/miniconda3/envs/rdock/share/rxdock-2013.1.1_148c5bd1-0/data/ligands/prepped_ligands/Amentoflavone

>  <Rbt.Executable>
rbdock/0.1.0

>  <Rbt.Library>
librxdock.so/0.1.0

>  <Rbt.Parameter_File>
/root/miniconda3/envs/rdock/share/rxdock-2013.1.1_148c5bd1-0/data/scripts/dock.prm

>  <Rbt.Receptor>
def.prm

>  <SCORE>
-17.8409

>  <SCORE.INTER>
-20.22

>  <SCORE.INTER.CONST>
1

>  <SCORE.INTER.POLAR>
-0.660425

>  <SCORE.INTER.REPUL>
0.104588

>  <SCORE.INTER.ROT>
3

>  <SCORE.INTER.VDW>
-26.8975

>  <SCORE.INTER.norm>
-0.5055

>  <SCORE.INTRA>
2.4982

>  <SCORE.INTRA.DIHEDRAL>
6.40325

>  <SCORE.INTRA.DIHEDRAL.0>
7.26727

>  <SCORE.INTRA.POLAR>
0

>  <SCORE.INTRA.POLAR.0>
0

>  <SCORE.INTRA.REPUL>
0

>  <SCORE.INTRA.REPUL.0>
0

>  <SCORE.INTRA.VDW>
-0.70343

>  <SCORE.INTRA.VDW.0>
0.367007

>  <SCORE.INTRA.norm>
0.0624549

>  <SCORE.RESTR>
0.913225

>  <SCORE.RESTR.CAVITY>
0.913225

>  <SCORE.RESTR.norm>
0.0228306

>  <SCORE.SYSTEM>
-1.03226

>  <SCORE.SYSTEM.CONST>
0

>  <SCORE.SYSTEM.DIHEDRAL>
0.0854634

>  <SCORE.SYSTEM.POLAR>
-0.00863011

>  <SCORE.SYSTEM.VDW>
-1.04565

>  <SCORE.SYSTEM.norm>
-0.0258065

>  <SCORE.heavy>
40

>  <SCORE.norm>
-0.446021

$$$$
5281600
  RxDock  02242110243D
librxdock.so/0.1.0
 46 51  0  0  0  0  0  0  0  0999 V2000
  -50.7244   -0.6640   15.6840 O   0  0  0  0  0  0
  -46.4538   -0.4103   18.5757 O   0  0  0  0  0  0
  -52.0070   -1.4494   20.2066 O   0  0  0  0  0  0
  -52.4927    1.4810   18.5506 O   0  0  0  0  0  0
  -53.6957   -4.3158   16.8375 O   0  0  0  0  0  0
  -52.9503   -3.8143   14.3724 O   0  0  0  0  0  0
  -41.8649    0.9211   19.3911 O   0  0  0  0  0  0
  -43.8935    2.5598   19.6810 O   0  0  0  0  0  0
  -42.8959   -3.5000   17.9958 O   0  0  0  0  0  0
  -47.7359    2.3500   10.9978 O   0  0  0  0  0  0
  -51.3582   -1.0526   17.9250 C   0  0  0  0  0  0
  -51.4370   -1.4185   16.5811 C   0  0  0  0  0  0
  -50.5496    0.0828   18.3350 C   0  0  0  0  0  0
  -52.2169   -2.5093   16.2008 C   0  0  0  0  0  0
  -48.3748    1.0106   18.8158 C   0  0  0  0  0  0
  -49.1677   -0.0687   18.4255 C   0  0  0  0  0  0
  -52.0611   -1.7815   18.8846 C   0  0  0  0  0  0
  -51.1428    1.3075   18.6329 C   0  0  0  0  0  0
  -52.9225   -3.2415   17.1584 C   0  0  0  0  0  0
  -46.9096    0.8550   18.9131 C   0  0  0  0  0  0
  -52.8413   -2.8736   18.5019 C   0  0  0  0  0  0
  -50.7782   -1.0083   14.3418 C   0  0  0  0  0  0
  -52.2836   -2.8719   14.7769 C   0  0  0  0  0  0
  -48.9658    2.2382   19.1143 C   0  0  0  0  0  0
  -50.3499    2.3868   19.0231 C   0  0  0  0  0  0
  -51.4973   -2.0307   13.8521 C   0  0  0  0  0  0
  -44.1747    0.3146   18.9999 C   0  0  0  0  0  0
  -45.1050   -0.6549   18.6290 C   0  0  0  0  0  0
  -49.9806   -0.1282   13.4643 C   0  0  0  0  0  0
  -46.1136    1.8722   19.2789 C   0  0  0  0  0  0
  -44.6536    1.6605   19.3497 C   0  0  0  0  0  0
  -42.8123    0.0092   19.0360 C   0  0  0  0  0  0
  -44.6767   -1.9388   18.2907 C   0  0  0  0  0  0
  -50.5505    1.0277   12.9250 C   0  0  0  0  0  0
  -48.6527   -0.4469   13.1705 C   0  0  0  0  0  0
  -43.3168   -2.2479   18.3257 C   0  0  0  0  0  0
  -42.3867   -1.2759   18.6976 C   0  0  0  0  0  0
  -49.7971    1.8596   12.0966 C   0  0  0  0  0  0
  -47.8991    0.3850   12.3424 C   0  0  0  0  0  0
  -48.4714    1.5383   11.8054 C   0  0  0  0  0  0
  -51.0832   -1.4870   20.5083 H   0  0  0  0  0  0
  -52.7377    1.6418   17.6233 H   0  0  0  0  0  0
  -54.5065   -4.3221   17.3687 H   0  0  0  0  0  0
  -42.2163    1.8219   19.3204 H   0  0  0  0  0  0
  -42.0589   -3.4323   17.5047 H   0  0  0  0  0  0
  -48.2249    2.4981   10.1700 H   0  0  0  0  0  0
  1 12  1  0  0  0
  1 22  1  0  0  0
  2 20  1  0  0  0
  2 28  1  0  0  0
  3 17  1  0  0  0
  3 41  1  0  0  0
  4 18  1  0  0  0
  4 42  1  0  0  0
  5 19  1  0  0  0
  5 43  1  0  0  0
  6 23  2  0  0  0
  7 32  1  0  0  0
  7 44  1  0  0  0
  8 31  2  0  0  0
  9 36  1  0  0  0
  9 45  1  0  0  0
 10 40  1  0  0  0
 10 46  1  0  0  0
 11 12  1  0  0  0
 11 13  1  0  0  0
 11 17  2  0  0  0
 12 14  2  0  0  0
 13 16  1  0  0  0
 13 18  2  0  0  0
 14 19  1  0  0  0
 14 23  1  0  0  0
 15 16  2  0  0  0
 15 20  1  0  0  0
 15 24  1  0  0  0
 17 21  1  0  0  0
 18 25  1  0  0  0
 19 21  2  0  0  0
 20 30  2  0  0  0
 22 26  2  0  0  0
 22 29  1  0  0  0
 23 26  1  0  0  0
 24 25  2  0  0  0
 27 28  1  0  0  0
 27 31  1  0  0  0
 27 32  2  0  0  0
 28 33  2  0  0  0
 29 34  2  0  0  0
 29 35  1  0  0  0
 30 31  1  0  0  0
 32 37  1  0  0  0
 33 36  1  0  0  0
 34 38  1  0  0  0
 35 39  2  0  0  0
 36 37  2  0  0  0
 38 40  2  0  0  0
 39 40  1  0  0  0
M  END
>  <CHROM.0>
162.91636018,66.64544506,55.98594207

>  <CHROM.1>
-58.98121201,-81.30646827,-140.94484044,-18.58669126,142.32617805,-52.62532234
-77.99649352,0.63104357,-88.55754569,-48.63666055,-0.40808554,16.96195242
-2.81980409,0.26796657,1.77355214

>  <Name>
5281600

>  <PUBCHEM_ATOM_DEF_STEREO_COUNT>
0

>  <PUBCHEM_ATOM_UDEF_STEREO_COUNT>
0

>  <PUBCHEM_BOND_DEF_STEREO_COUNT>
0

>  <PUBCHEM_BOND_UDEF_STEREO_COUNT>
0

>  <PUBCHEM_CACTVS_TAUTO_COUNT>
994

>  <PUBCHEM_COMPONENT_COUNT>
1

>  <PUBCHEM_COMPOUND_CID>
5281600

>  <PUBCHEM_CONFORMER_DIVERSEORDER>
1
12
7
6
5
11
9
4
8
3
2
10

>  <PUBCHEM_CONFORMER_ID>
0050974000000001

>  <PUBCHEM_CONFORMER_RMSD>
0.8

>  <PUBCHEM_COORDINATE_TYPE>
2
5
10

>  <PUBCHEM_EFFECTIVE_ROTOR_COUNT>
3

>  <PUBCHEM_FEATURE_SELFOVERLAP>
81.26

>  <PUBCHEM_HEAVY_ATOM_COUNT>
40

>  <PUBCHEM_ISOTOPIC_ATOM_COUNT>
0

>  <PUBCHEM_MMFF94_ENERGY>
134.7783

>  <PUBCHEM_MMFF94_PARTIAL_CHARGES>
56
1 -0.16
10 -0.53
12 0.08
14 0.09
15 0.03
16 -0.15
17 0.08
18 0.08
19 0.08
2 -0.16
20 0.05
21 -0.15
22 0.05
23 0.47
24 -0.15
25 -0.15
26 -0.14
27 0.09
28 0.08
29 0.03
3 -0.53
30 -0.14
31 0.47
32 0.08
33 -0.15
34 -0.15
35 -0.15
36 0.08
37 -0.15
38 -0.15
39 -0.15
4 -0.53
40 0.08
41 0.15
42 0.15
43 0.15
44 0.15
45 0.15
46 0.15
47 0.15
48 0.15
49 0.15
5 -0.53
50 0.45
51 0.15
52 0.45
53 0.45
54 0.15
55 0.15
56 0.45
57 0.45
58 0.45
6 -0.57
7 -0.53
8 -0.57
9 -0.53

>  <PUBCHEM_PHARMACOPHORE_FEATURES>
16
1 1 acceptor
1 10 donor
1 2 acceptor
1 3 donor
1 4 donor
1 5 donor
1 6 acceptor
1 7 donor
1 8 acceptor
1 9 donor
6 1 12 14 22 23 26 rings
6 11 12 14 17 19 21 rings
6 13 15 16 18 24 25 rings
6 2 20 27 28 30 31 rings
6 27 28 32 33 36 37 rings
6 29 34 35 38 39 40 rings

>  <PUBCHEM_SHAPE_FINGERPRINT>
10074138 170 18272931639651384535
10462674 125 17618475011381580750
10622 236 18044087084485364727
10928967 22 18186794777961395306
11135926 11 16589159410442702964
11434127 23 16988854868850209122
11552529 35 18337099142617264300
12128747 34 17416426289408154158
12422481 6 17970917660810484883
12559416 138 17458053868550942330
131258 38 17040625661602271054
14040221 299 18130520668696863620
14068700 675 18126558149519363943
14395042 24 18339370777318689755
14674994 50 18189596350705326935
14705955 166 17345771702192931481
14856354 85 18343864420652166036
14950920 106 18341324578619618192
15320294 125 18260278451476051767
15361156 5 15359116841693389420
15484559 13 15440400299685403118
16728300 4 17967823739013222547
19319366 153 16671943977149260761
20554085 129 18057606456813237473
20775530 9 17974003148226375983
21033648 29 17986692393200921257
21133410 221 17108453988390366882
23516275 137 17830492447455348050
3882209 13 17628068207685272503
4394409 98 18410292537089562351
44880168 125 18338798914801616118
484985 159 18337095835418697607
50080093 196 18113889468875184482
5085150 59 18337387146281907241
5171179 24 16967460284478114997
581034 39 18412830166090923426

>  <PUBCHEM_SHAPE_MULTIPOLES>
764.49
14.59
6.24
3.18
25.21
8.64
-0.18
2.69
-10.24
-12.46
1.99
1.74
-0.93
-5.25

>  <PUBCHEM_SHAPE_SELFOVERLAP>
1749.357

>  <PUBCHEM_SHAPE_VOLUME>
392.9

>  <RI>
-8.24548e+08

>  <Rbt.Current_Directory>
/root/miniconda3/envs/rdock/share/rxdock-2013.1.1_148c5bd1-0/data/ligands/prepped_ligands/Amentoflavone

>  <Rbt.Executable>
rbdock/0.1.0

>  <Rbt.Library>
librxdock.so/0.1.0

>  <Rbt.Parameter_File>
/root/miniconda3/envs/rdock/share/rxdock-2013.1.1_148c5bd1-0/data/scripts/dock.prm

>  <Rbt.Receptor>
def.prm

>  <SCORE>
-11.9186

>  <SCORE.INTER>
-18.618

>  <SCORE.INTER.CONST>
1

>  <SCORE.INTER.POLAR>
-0.842035

>  <SCORE.INTER.REPUL>
0.959656

>  <SCORE.INTER.ROT>
3

>  <SCORE.INTER.VDW>
-28.9534

>  <SCORE.INTER.norm>
-0.46545

>  <SCORE.INTRA>
6.16108

>  <SCORE.INTRA.DIHEDRAL>
17.559

>  <SCORE.INTRA.DIHEDRAL.0>
7.26727

>  <SCORE.INTRA.POLAR>
0

>  <SCORE.INTRA.POLAR.0>
0

>  <SCORE.INTRA.REPUL>
0

>  <SCORE.INTRA.REPUL.0>
0

>  <SCORE.INTRA.VDW>
-2.61842

>  <SCORE.INTRA.VDW.0>
0.367007

>  <SCORE.INTRA.norm>
0.154027

>  <SCORE.RESTR>
1.04535

>  <SCORE.RESTR.CAVITY>
1.04535

>  <SCORE.RESTR.norm>
0.0261337

>  <SCORE.SYSTEM>
-0.507011

>  <SCORE.SYSTEM.CONST>
0

>  <SCORE.SYSTEM.DIHEDRAL>
0.943136

>  <SCORE.SYSTEM.VDW>
-0.978579

>  <SCORE.SYSTEM.norm>
-0.0126753

>  <SCORE.heavy>
40

>  <SCORE.norm>
-0.297965

$$$$
5281600
  RxDock  02242110243D
librxdock.so/0.1.0
 46 51  0  0  0  0  0  0  0  0999 V2000
  -50.1345   -2.0262   15.8405 O   0  0  0  0  0  0
  -46.4049   -0.2646   18.9669 O   0  0  0  0  0  0
  -51.1590   -3.5960   20.2225 O   0  0  0  0  0  0
  -52.6839   -0.8783   18.4804 O   0  0  0  0  0  0
  -51.4721   -6.6235   16.5955 O   0  0  0  0  0  0
  -50.8999   -5.6824   14.2141 O   0  0  0  0  0  0
  -42.7915    2.2449   21.0020 O   0  0  0  0  0  0
  -45.3211    2.7722   21.4573 O   0  0  0  0  0  0
  -41.8776   -1.3444   18.0291 O   0  0  0  0  0  0
  -48.4101    2.2656   11.5296 O   0  0  0  0  0  0
  -50.6408   -2.8028   18.0120 C   0  0  0  0  0  0
  -50.5240   -3.0654   16.6468 C   0  0  0  0  0  0
  -50.3569   -1.4778   18.5360 C   0  0  0  0  0  0
  -50.8000   -4.3407   16.1566 C   0  0  0  0  0  0
  -48.7457    0.1371   19.3221 C   0  0  0  0  0  0
  -49.0379   -1.1311   18.8200 C   0  0  0  0  0  0
  -51.0336   -3.8196   18.8827 C   0  0  0  0  0  0
  -51.3853   -0.5631   18.7516 C   0  0  0  0  0  0
  -51.1938   -5.3614   17.0250 C   0  0  0  0  0  0
  -47.3490    0.5091   19.6245 C   0  0  0  0  0  0
  -51.3093   -5.0960   18.3900 C   0  0  0  0  0  0
  -50.0032   -2.2593   14.4798 C   0  0  0  0  0  0
  -50.6706   -4.5893   14.7128 C   0  0  0  0  0  0
  -49.7732    1.0551   19.5387 C   0  0  0  0  0  0
  -51.0931    0.7051   19.2537 C   0  0  0  0  0  0
  -50.2464   -3.4397   13.8884 C   0  0  0  0  0  0
  -44.6370    1.0283   20.0170 C   0  0  0  0  0  0
  -45.0766    0.0060   19.1776 C   0  0  0  0  0  0
  -49.5856   -1.0732   13.7056 C   0  0  0  0  0  0
  -47.0513    1.5242   20.4511 C   0  0  0  0  0  0
  -45.6356    1.8570   20.7092 C   0  0  0  0  0  0
  -43.2708    1.2591   20.1935 C   0  0  0  0  0  0
  -44.1498   -0.7932   18.5078 C   0  0  0  0  0  0
  -50.5048   -0.0593   13.4248 C   0  0  0  0  0  0
  -48.2695   -0.9593   13.2513 C   0  0  0  0  0  0
  -42.7844   -0.5661   18.6817 C   0  0  0  0  0  0
  -42.3460    0.4578   19.5228 C   0  0  0  0  0  0
  -50.1104    1.0615   12.6940 C   0  0  0  0  0  0
  -47.8749    0.1615   12.5208 C   0  0  0  0  0  0
  -48.7954    1.1719   12.2421 C   0  0  0  0  0  0
  -51.5794   -4.3684   20.6377 H   0  0  0  0  0  0
  -53.2438   -0.5890   19.2211 H   0  0  0  0  0  0
  -51.2839   -6.7098   15.6484 H   0  0  0  0  0  0
  -43.4657    2.5167   21.6435 H   0  0  0  0  0  0
  -42.1509   -2.2751   18.1012 H   0  0  0  0  0  0
  -47.8109    1.9827   10.8174 H   0  0  0  0  0  0
  1 12  1  0  0  0
  1 22  1  0  0  0
  2 20  1  0  0  0
  2 28  1  0  0  0
  3 17  1  0  0  0
  3 41  1  0  0  0
  4 18  1  0  0  0
  4 42  1  0  0  0
  5 19  1  0  0  0
  5 43  1  0  0  0
  6 23  2  0  0  0
  7 32  1  0  0  0
  7 44  1  0  0  0
  8 31  2  0  0  0
  9 36  1  0  0  0
  9 45  1  0  0  0
 10 40  1  0  0  0
 10 46  1  0  0  0
 11 12  1  0  0  0
 11 13  1  0  0  0
 11 17  2  0  0  0
 12 14  2  0  0  0
 13 16  1  0  0  0
 13 18  2  0  0  0
 14 19  1  0  0  0
 14 23  1  0  0  0
 15 16  2  0  0  0
 15 20  1  0  0  0
 15 24  1  0  0  0
 17 21  1  0  0  0
 18 25  1  0  0  0
 19 21  2  0  0  0
 20 30  2  0  0  0
 22 26  2  0  0  0
 22 29  1  0  0  0
 23 26  1  0  0  0
 24 25  2  0  0  0
 27 28  1  0  0  0
 27 31  1  0  0  0
 27 32  2  0  0  0
 28 33  2  0  0  0
 29 34  2  0  0  0
 29 35  1  0  0  0
 30 31  1  0  0  0
 32 37  1  0  0  0
 33 36  1  0  0  0
 34 38  1  0  0  0
 35 39  2  0  0  0
 36 37  2  0  0  0
 38 40  2  0  0  0
 39 40  1  0  0  0
M  END
>  <CHROM.0>
-60.59740117,-125.29505853,-60.53332126

>  <CHROM.1>
170.63996162,134.71103040,4.83620099,20.41094285,-44.62810778,-140.57689775
-83.92627929,20.87865729,-76.00785177,-48.36594150,-1.09960013,17.34820433
-2.75358036,0.65158137,1.78625930

>  <Name>
5281600

>  <PUBCHEM_ATOM_DEF_STEREO_COUNT>
0

>  <PUBCHEM_ATOM_UDEF_STEREO_COUNT>
0

>  <PUBCHEM_BOND_DEF_STEREO_COUNT>
0

>  <PUBCHEM_BOND_UDEF_STEREO_COUNT>
0

>  <PUBCHEM_CACTVS_TAUTO_COUNT>
994

>  <PUBCHEM_COMPONENT_COUNT>
1

>  <PUBCHEM_COMPOUND_CID>
5281600

>  <PUBCHEM_CONFORMER_DIVERSEORDER>
1
12
7
6
5
11
9
4
8
3
2
10

>  <PUBCHEM_CONFORMER_ID>
0050974000000001

>  <PUBCHEM_CONFORMER_RMSD>
0.8

>  <PUBCHEM_COORDINATE_TYPE>
2
5
10

>  <PUBCHEM_EFFECTIVE_ROTOR_COUNT>
3

>  <PUBCHEM_FEATURE_SELFOVERLAP>
81.26

>  <PUBCHEM_HEAVY_ATOM_COUNT>
40

>  <PUBCHEM_ISOTOPIC_ATOM_COUNT>
0

>  <PUBCHEM_MMFF94_ENERGY>
134.7783

>  <PUBCHEM_MMFF94_PARTIAL_CHARGES>
56
1 -0.16
10 -0.53
12 0.08
14 0.09
15 0.03
16 -0.15
17 0.08
18 0.08
19 0.08
2 -0.16
20 0.05
21 -0.15
22 0.05
23 0.47
24 -0.15
25 -0.15
26 -0.14
27 0.09
28 0.08
29 0.03
3 -0.53
30 -0.14
31 0.47
32 0.08
33 -0.15
34 -0.15
35 -0.15
36 0.08
37 -0.15
38 -0.15
39 -0.15
4 -0.53
40 0.08
41 0.15
42 0.15
43 0.15
44 0.15
45 0.15
46 0.15
47 0.15
48 0.15
49 0.15
5 -0.53
50 0.45
51 0.15
52 0.45
53 0.45
54 0.15
55 0.15
56 0.45
57 0.45
58 0.45
6 -0.57
7 -0.53
8 -0.57
9 -0.53

>  <PUBCHEM_PHARMACOPHORE_FEATURES>
16
1 1 acceptor
1 10 donor
1 2 acceptor
1 3 donor
1 4 donor
1 5 donor
1 6 acceptor
1 7 donor
1 8 acceptor
1 9 donor
6 1 12 14 22 23 26 rings
6 11 12 14 17 19 21 rings
6 13 15 16 18 24 25 rings
6 2 20 27 28 30 31 rings
6 27 28 32 33 36 37 rings
6 29 34 35 38 39 40 rings

>  <PUBCHEM_SHAPE_FINGERPRINT>
10074138 170 18272931639651384535
10462674 125 17618475011381580750
10622 236 18044087084485364727
10928967 22 18186794777961395306
11135926 11 16589159410442702964
11434127 23 16988854868850209122
11552529 35 18337099142617264300
12128747 34 17416426289408154158
12422481 6 17970917660810484883
12559416 138 17458053868550942330
131258 38 17040625661602271054
14040221 299 18130520668696863620
14068700 675 18126558149519363943
14395042 24 18339370777318689755
14674994 50 18189596350705326935
14705955 166 17345771702192931481
14856354 85 18343864420652166036
14950920 106 18341324578619618192
15320294 125 18260278451476051767
15361156 5 15359116841693389420
15484559 13 15440400299685403118
16728300 4 17967823739013222547
19319366 153 16671943977149260761
20554085 129 18057606456813237473
20775530 9 17974003148226375983
21033648 29 17986692393200921257
21133410 221 17108453988390366882
23516275 137 17830492447455348050
3882209 13 17628068207685272503
4394409 98 18410292537089562351
44880168 125 18338798914801616118
484985 159 18337095835418697607
50080093 196 18113889468875184482
5085150 59 18337387146281907241
5171179 24 16967460284478114997
581034 39 18412830166090923426

>  <PUBCHEM_SHAPE_MULTIPOLES>
764.49
14.59
6.24
3.18
25.21
8.64
-0.18
2.69
-10.24
-12.46
1.99
1.74
-0.93
-5.25

>  <PUBCHEM_SHAPE_SELFOVERLAP>
1749.357

>  <PUBCHEM_SHAPE_VOLUME>
392.9

>  <RI>
-8.24548e+08

>  <Rbt.Current_Directory>
/root/miniconda3/envs/rdock/share/rxdock-2013.1.1_148c5bd1-0/data/ligands/prepped_ligands/Amentoflavone

>  <Rbt.Executable>
rbdock/0.1.0

>  <Rbt.Library>
librxdock.so/0.1.0

>  <Rbt.Parameter_File>
/root/miniconda3/envs/rdock/share/rxdock-2013.1.1_148c5bd1-0/data/scripts/dock.prm

>  <Rbt.Receptor>
def.prm

>  <SCORE>
-5.26184

>  <SCORE.INTER>
-11.6643

>  <SCORE.INTER.CONST>
1

>  <SCORE.INTER.POLAR>
-0.276603

>  <SCORE.INTER.REPUL>
0.00674163

>  <SCORE.INTER.ROT>
3

>  <SCORE.INTER.VDW>
-19.1576

>  <SCORE.INTER.norm>
-0.291608

>  <SCORE.INTRA>
3.40354

>  <SCORE.INTRA.DIHEDRAL>
10.0774

>  <SCORE.INTRA.DIHEDRAL.0>
7.26727

>  <SCORE.INTRA.POLAR>
0

>  <SCORE.INTRA.POLAR.0>
0

>  <SCORE.INTRA.REPUL>
0

>  <SCORE.INTRA.REPUL.0>
0

>  <SCORE.INTRA.VDW>
-1.63518

>  <SCORE.INTRA.VDW.0>
0.367007

>  <SCORE.INTRA.norm>
0.0850885

>  <SCORE.RESTR>
0.61583

>  <SCORE.RESTR.CAVITY>
0.61583

>  <SCORE.RESTR.norm>
0.0153957

>  <SCORE.SYSTEM>
2.38312

>  <SCORE.SYSTEM.CONST>
0

>  <SCORE.SYSTEM.DIHEDRAL>
7.06518

>  <SCORE.SYSTEM.VDW>
-1.14947

>  <SCORE.SYSTEM.norm>
0.0595781

>  <SCORE.heavy>
40

>  <SCORE.norm>
-0.131546

$$$$
5281600
  RxDock  02242110243D
librxdock.so/0.1.0
 46 51  0  0  0  0  0  0  0  0999 V2000
  -46.6881   -1.4276   19.2921 O   0  0  0  0  0  0
  -47.9204   -5.7285   16.8720 O   0  0  0  0  0  0
  -42.8639   -1.7707   16.4683 O   0  0  0  0  0  0
  -44.5982   -0.6011   15.2348 O   0  0  0  0  0  0
  -42.2745   -0.2506   20.9136 O   0  0  0  0  0  0
  -44.4279   -0.0815   22.4031 O   0  0  0  0  0  0
  -52.3434   -7.6873   17.1811 O   0  0  0  0  0  0
  -51.9256   -5.2524   16.2970 O   0  0  0  0  0  0
  -48.5032  -10.1490   18.5032 O   0  0  0  0  0  0
  -52.8309   -1.8560   20.7305 O   0  0  0  0  0  0
  -44.7943   -1.5990   17.8924 C   0  0  0  0  0  0
  -45.3333   -1.2767   19.1382 C   0  0  0  0  0  0
  -45.6497   -2.0726   16.8178 C   0  0  0  0  0  0
  -44.5019   -0.8227   20.1606 C   0  0  0  0  0  0
  -47.4349   -3.5159   16.0749 C   0  0  0  0  0  0
  -46.6034   -3.0500   17.0934 C   0  0  0  0  0  0
  -43.4227   -1.4657   17.6748 C   0  0  0  0  0  0
  -45.5230   -1.5588   15.5292 C   0  0  0  0  0  0
  -43.1282   -0.6876   19.9466 C   0  0  0  0  0  0
  -48.4474   -4.5517   16.3623 C   0  0  0  0  0  0
  -42.5917   -1.0111   18.6998 C   0  0  0  0  0  0
  -47.2512   -1.1214   20.5217 C   0  0  0  0  0  0
  -45.0969   -0.4883   21.4634 C   0  0  0  0  0  0
  -47.3106   -3.0030   14.7838 C   0  0  0  0  0  0
  -46.3545   -2.0247   14.5107 C   0  0  0  0  0  0
  -46.5581   -0.6698   21.5790 C   0  0  0  0  0  0
  -50.1611   -6.6566   17.0035 C   0  0  0  0  0  0
  -48.7814   -6.7521   17.1769 C   0  0  0  0  0  0
  -48.7144   -1.3135   20.5759 C   0  0  0  0  0  0
  -49.7565   -4.3365   16.1570 C   0  0  0  0  0  0
  -50.7247   -5.4065   16.4716 C   0  0  0  0  0  0
  -50.9905   -7.7314   17.3318 C   0  0  0  0  0  0
  -48.2217   -7.9262   17.6814 C   0  0  0  0  0  0
  -49.3170   -2.3281   19.8282 C   0  0  0  0  0  0
  -49.5023   -0.4821   21.3757 C   0  0  0  0  0  0
  -49.0466   -9.0020   18.0104 C   0  0  0  0  0  0
  -50.4279   -8.9047   17.8358 C   0  0  0  0  0  0
  -50.6991   -2.5102   19.8797 C   0  0  0  0  0  0
  -50.8842   -0.6642   21.4275 C   0  0  0  0  0  0
  -51.4827   -1.6782   20.6795 C   0  0  0  0  0  0
  -43.0433   -2.7033   16.2593 H   0  0  0  0  0  0
  -44.7191   -0.3133   14.3137 H   0  0  0  0  0  0
  -42.7258    0.3620   21.5144 H   0  0  0  0  0  0
  -52.5923   -7.9179   16.2728 H   0  0  0  0  0  0
  -49.1848  -10.8429   18.5114 H   0  0  0  0  0  0
  -53.2668   -0.9923   20.6284 H   0  0  0  0  0  0
  1 12  1  0  0  0
  1 22  1  0  0  0
  2 20  1  0  0  0
  2 28  1  0  0  0
  3 17  1  0  0  0
  3 41  1  0  0  0
  4 18  1  0  0  0
  4 42  1  0  0  0
  5 19  1  0  0  0
  5 43  1  0  0  0
  6 23  2  0  0  0
  7 32  1  0  0  0
  7 44  1  0  0  0
  8 31  2  0  0  0
  9 36  1  0  0  0
  9 45  1  0  0  0
 10 40  1  0  0  0
 10 46  1  0  0  0
 11 12  1  0  0  0
 11 13  1  0  0  0
 11 17  2  0  0  0
 12 14  2  0  0  0
 13 16  1  0  0  0
 13 18  2  0  0  0
 14 19  1  0  0  0
 14 23  1  0  0  0
 15 16  2  0  0  0
 15 20  1  0  0  0
 15 24  1  0  0  0
 17 21  1  0  0  0
 18 25  1  0  0  0
 19 21  2  0  0  0
 20 30  2  0  0  0
 22 26  2  0  0  0
 22 29  1  0  0  0
 23 26  1  0  0  0
 24 25  2  0  0  0
 27 28  1  0  0  0
 27 31  1  0  0  0
 27 32  2  0  0  0
 28 33  2  0  0  0
 29 34  2  0  0  0
 29 35  1  0  0  0
 30 31  1  0  0  0
 32 37  1  0  0  0
 33 36  1  0  0  0
 34 38  1  0  0  0
 35 39  2  0  0  0
 36 37  2  0  0  0
 38 40  2  0  0  0
 39 40  1  0  0  0
M  END
>  <CHROM.0>
59.20883610,61.01384337,62.83752986

>  <CHROM.1>
-59.43993115,-174.71121020,-30.36092077,84.62737776,-168.98228166,-133.02640254
-45.70270312,-58.34458950,32.85304516,-47.58065489,-3.25558409,18.33989812
0.72881764,0.42797159,0.72968419

>  <Name>
5281600

>  <PUBCHEM_ATOM_DEF_STEREO_COUNT>
0

>  <PUBCHEM_ATOM_UDEF_STEREO_COUNT>
0

>  <PUBCHEM_BOND_DEF_STEREO_COUNT>
0

>  <PUBCHEM_BOND_UDEF_STEREO_COUNT>
0

>  <PUBCHEM_CACTVS_TAUTO_COUNT>
994

>  <PUBCHEM_COMPONENT_COUNT>
1

>  <PUBCHEM_COMPOUND_CID>
5281600

>  <PUBCHEM_CONFORMER_DIVERSEORDER>
1
12
7
6
5
11
9
4
8
3
2
10

>  <PUBCHEM_CONFORMER_ID>
0050974000000001

>  <PUBCHEM_CONFORMER_RMSD>
0.8

>  <PUBCHEM_COORDINATE_TYPE>
2
5
10

>  <PUBCHEM_EFFECTIVE_ROTOR_COUNT>
3

>  <PUBCHEM_FEATURE_SELFOVERLAP>
81.26

>  <PUBCHEM_HEAVY_ATOM_COUNT>
40

>  <PUBCHEM_ISOTOPIC_ATOM_COUNT>
0

>  <PUBCHEM_MMFF94_ENERGY>
134.7783

>  <PUBCHEM_MMFF94_PARTIAL_CHARGES>
56
1 -0.16
10 -0.53
12 0.08
14 0.09
15 0.03
16 -0.15
17 0.08
18 0.08
19 0.08
2 -0.16
20 0.05
21 -0.15
22 0.05
23 0.47
24 -0.15
25 -0.15
26 -0.14
27 0.09
28 0.08
29 0.03
3 -0.53
30 -0.14
31 0.47
32 0.08
33 -0.15
34 -0.15
35 -0.15
36 0.08
37 -0.15
38 -0.15
39 -0.15
4 -0.53
40 0.08
41 0.15
42 0.15
43 0.15
44 0.15
45 0.15
46 0.15
47 0.15
48 0.15
49 0.15
5 -0.53
50 0.45
51 0.15
52 0.45
53 0.45
54 0.15
55 0.15
56 0.45
57 0.45
58 0.45
6 -0.57
7 -0.53
8 -0.57
9 -0.53

>  <PUBCHEM_PHARMACOPHORE_FEATURES>
16
1 1 acceptor
1 10 donor
1 2 acceptor
1 3 donor
1 4 donor
1 5 donor
1 6 acceptor
1 7 donor
1 8 acceptor
1 9 donor
6 1 12 14 22 23 26 rings
6 11 12 14 17 19 21 rings
6 13 15 16 18 24 25 rings
6 2 20 27 28 30 31 rings
6 27 28 32 33 36 37 rings
6 29 34 35 38 39 40 rings

>  <PUBCHEM_SHAPE_FINGERPRINT>
10074138 170 18272931639651384535
10462674 125 17618475011381580750
10622 236 18044087084485364727
10928967 22 18186794777961395306
11135926 11 16589159410442702964
11434127 23 16988854868850209122
11552529 35 18337099142617264300
12128747 34 17416426289408154158
12422481 6 17970917660810484883
12559416 138 17458053868550942330
131258 38 17040625661602271054
14040221 299 18130520668696863620
14068700 675 18126558149519363943
14395042 24 18339370777318689755
14674994 50 18189596350705326935
14705955 166 17345771702192931481
14856354 85 18343864420652166036
14950920 106 18341324578619618192
15320294 125 18260278451476051767
15361156 5 15359116841693389420
15484559 13 15440400299685403118
16728300 4 17967823739013222547
19319366 153 16671943977149260761
20554085 129 18057606456813237473
20775530 9 17974003148226375983
21033648 29 17986692393200921257
21133410 221 17108453988390366882
23516275 137 17830492447455348050
3882209 13 17628068207685272503
4394409 98 18410292537089562351
44880168 125 18338798914801616118
484985 159 18337095835418697607
50080093 196 18113889468875184482
5085150 59 18337387146281907241
5171179 24 16967460284478114997
581034 39 18412830166090923426

>  <PUBCHEM_SHAPE_MULTIPOLES>
764.49
14.59
6.24
3.18
25.21
8.64
-0.18
2.69
-10.24
-12.46
1.99
1.74
-0.93
-5.25

>  <PUBCHEM_SHAPE_SELFOVERLAP>
1749.357

>  <PUBCHEM_SHAPE_VOLUME>
392.9

>  <RI>
-8.24548e+08

>  <Rbt.Current_Directory>
/root/miniconda3/envs/rdock/share/rxdock-2013.1.1_148c5bd1-0/data/ligands/prepped_ligands/Amentoflavone

>  <Rbt.Executable>
rbdock/0.1.0

>  <Rbt.Library>
librxdock.so/0.1.0

>  <Rbt.Parameter_File>
/root/miniconda3/envs/rdock/share/rxdock-2013.1.1_148c5bd1-0/data/scripts/dock.prm

>  <Rbt.Receptor>
def.prm

>  <SCORE>
-13.3253

>  <SCORE.INTER>
-19.393

>  <SCORE.INTER.CONST>
1

>  <SCORE.INTER.POLAR>
-1.43561

>  <SCORE.INTER.REPUL>
0

>  <SCORE.INTER.ROT>
3

>  <SCORE.INTER.VDW>
-22.9119

>  <SCORE.INTER.norm>
-0.484825

>  <SCORE.INTRA>
5.24578

>  <SCORE.INTRA.DIHEDRAL>
12.3996

>  <SCORE.INTRA.DIHEDRAL.0>
7.26727

>  <SCORE.INTRA.POLAR>
0

>  <SCORE.INTRA.POLAR.0>
0

>  <SCORE.INTRA.REPUL>
0

>  <SCORE.INTRA.REPUL.0>
0

>  <SCORE.INTRA.VDW>
-0.954021

>  <SCORE.INTRA.VDW.0>
0.367007

>  <SCORE.INTRA.norm>
0.131145

>  <SCORE.RESTR>
1.77867

>  <SCORE.RESTR.CAVITY>
1.77867

>  <SCORE.RESTR.norm>
0.0444668

>  <SCORE.SYSTEM>
-0.956711

>  <SCORE.SYSTEM.CONST>
0

>  <SCORE.SYSTEM.DIHEDRAL>
0.0249239

>  <SCORE.SYSTEM.POLAR>
-0.00723303

>  <SCORE.SYSTEM.VDW>
-0.94458

>  <SCORE.SYSTEM.norm>
-0.0239178

>  <SCORE.heavy>
40

>  <SCORE.norm>
-0.333132

$$$$
