5281600
  RxDock  02242101493D
librxdock.so/0.1.0
 46 51  0  0  0  0  0  0  0  0999 V2000
  -46.7244   -0.3217   18.6905 O   0  0  0  0  0  0
  -49.5027   -3.9193   15.6737 O   0  0  0  0  0  0
  -42.6843   -2.4620   17.3442 O   0  0  0  0  0  0
  -43.9899   -0.8540   15.3251 O   0  0  0  0  0  0
  -42.6322    0.2513   21.2242 O   0  0  0  0  0  0
  -44.8928    1.4013   21.8960 O   0  0  0  0  0  0
  -51.8550   -7.7388   17.5106 O   0  0  0  0  0  0
  -49.3234   -7.2566   18.0038 O   0  0  0  0  0  0
  -54.0860   -4.6512   14.6742 O   0  0  0  0  0  0
  -52.8447    1.2027   18.2486 O   0  0  0  0  0  0
  -44.7239   -1.3834   18.0230 C   0  0  0  0  0  0
  -45.3922   -0.5525   18.9225 C   0  0  0  0  0  0
  -45.4283   -1.9689   16.8952 C   0  0  0  0  0  0
  -44.7048    0.0036   20.0000 C   0  0  0  0  0  0
  -47.1936   -3.3906   16.0678 C   0  0  0  0  0  0
  -46.5040   -2.8203   17.1379 C   0  0  0  0  0  0
  -43.3678   -1.6552   18.2060 C   0  0  0  0  0  0
  -45.0385   -1.6850   15.5883 C   0  0  0  0  0  0
  -43.3470   -0.2658   20.1866 C   0  0  0  0  0  0
  -48.3344   -4.2935   16.3200 C   0  0  0  0  0  0
  -42.6812   -1.0976   19.2856 C   0  0  0  0  0  0
  -47.4166    0.4948   19.5720 C   0  0  0  0  0  0
  -45.4335    0.8775   20.9319 C   0  0  0  0  0  0
  -46.8058   -3.1078   14.7581 C   0  0  0  0  0  0
  -45.7281   -2.2552   14.5182 C   0  0  0  0  0  0
  -46.8652    1.0926   20.6401 C   0  0  0  0  0  0
  -50.6284   -5.8505   16.6239 C   0  0  0  0  0  0
  -50.6199   -4.6978   15.8404 C   0  0  0  0  0  0
  -48.8401    0.6806   19.2257 C   0  0  0  0  0  0
  -48.2152   -5.3835   17.0946 C   0  0  0  0  0  0
  -49.3886   -6.2556   17.3037 C   0  0  0  0  0  0
  -51.7958   -6.6055   16.7573 C   0  0  0  0  0  0
  -51.7822   -4.2927   15.1835 C   0  0  0  0  0  0
  -49.2982    1.9243   18.7841 C   0  0  0  0  0  0
  -49.7346   -0.3866   19.3374 C   0  0  0  0  0  0
  -52.9503   -5.0440   15.3144 C   0  0  0  0  0  0
  -52.9570   -6.1978   16.0996 C   0  0  0  0  0  0
  -50.6427    2.0998   18.4563 C   0  0  0  0  0  0
  -51.0790   -0.2113   19.0095 C   0  0  0  0  0  0
  -51.5331    1.0320   18.5689 C   0  0  0  0  0  0
  -43.2946   -3.1200   16.9698 H   0  0  0  0  0  0
  -43.1845   -1.2186   15.7305 H   0  0  0  0  0  0
  -41.6978    0.0042   21.1502 H   0  0  0  0  0  0
  -52.2971   -8.4497   17.0216 H   0  0  0  0  0  0
  -53.8789   -3.8931   14.1011 H   0  0  0  0  0  0
  -53.3525    0.4438   18.5842 H   0  0  0  0  0  0
  1 12  1  0  0  0
  1 22  1  0  0  0
  2 20  1  0  0  0
  2 28  1  0  0  0
  3 17  1  0  0  0
  3 41  1  0  0  0
  4 18  1  0  0  0
  4 42  1  0  0  0
  5 19  1  0  0  0
  5 43  1  0  0  0
  6 23  2  0  0  0
  7 32  1  0  0  0
  7 44  1  0  0  0
  8 31  2  0  0  0
  9 36  1  0  0  0
  9 45  1  0  0  0
 10 40  1  0  0  0
 10 46  1  0  0  0
 11 12  1  0  0  0
 11 13  1  0  0  0
 11 17  2  0  0  0
 12 14  2  0  0  0
 13 16  1  0  0  0
 13 18  2  0  0  0
 14 19  1  0  0  0
 14 23  1  0  0  0
 15 16  2  0  0  0
 15 20  1  0  0  0
 15 24  1  0  0  0
 17 21  1  0  0  0
 18 25  1  0  0  0
 19 21  2  0  0  0
 20 30  2  0  0  0
 22 26  2  0  0  0
 22 29  1  0  0  0
 23 26  1  0  0  0
 24 25  2  0  0  0
 27 28  1  0  0  0
 27 31  1  0  0  0
 27 32  2  0  0  0
 28 33  2  0  0  0
 29 34  2  0  0  0
 29 35  1  0  0  0
 30 31  1  0  0  0
 32 37  1  0  0  0
 33 36  1  0  0  0
 34 38  1  0  0  0
 35 39  2  0  0  0
 36 37  2  0  0  0
 38 40  2  0  0  0
 39 40  1  0  0  0
M  END
>  <CHROM.0>
176.12746265,-63.40652182,53.47932798

>  <CHROM.1>
-29.89708462,59.74703991,-175.96431481,-133.23200930,6.11695408,-166.37878519
-61.00425082,125.59021222,-110.98202449,-47.93268715,-2.15750583,17.73064905
0.70586648,-0.03900565,0.49626379

>  <Name>
5281600

>  <PUBCHEM_ATOM_DEF_STEREO_COUNT>
0

>  <PUBCHEM_ATOM_UDEF_STEREO_COUNT>
0

>  <PUBCHEM_BOND_DEF_STEREO_COUNT>
0

>  <PUBCHEM_BOND_UDEF_STEREO_COUNT>
0

>  <PUBCHEM_CACTVS_TAUTO_COUNT>
994

>  <PUBCHEM_COMPONENT_COUNT>
1

>  <PUBCHEM_COMPOUND_CID>
5281600

>  <PUBCHEM_CONFORMER_DIVERSEORDER>
1
12
7
6
5
11
9
4
8
3
2
10

>  <PUBCHEM_CONFORMER_ID>
0050974000000001

>  <PUBCHEM_CONFORMER_RMSD>
0.8

>  <PUBCHEM_COORDINATE_TYPE>
2
5
10

>  <PUBCHEM_EFFECTIVE_ROTOR_COUNT>
3

>  <PUBCHEM_FEATURE_SELFOVERLAP>
81.26

>  <PUBCHEM_HEAVY_ATOM_COUNT>
40

>  <PUBCHEM_ISOTOPIC_ATOM_COUNT>
0

>  <PUBCHEM_MMFF94_ENERGY>
134.7783

>  <PUBCHEM_MMFF94_PARTIAL_CHARGES>
56
1 -0.16
10 -0.53
12 0.08
14 0.09
15 0.03
16 -0.15
17 0.08
18 0.08
19 0.08
2 -0.16
20 0.05
21 -0.15
22 0.05
23 0.47
24 -0.15
25 -0.15
26 -0.14
27 0.09
28 0.08
29 0.03
3 -0.53
30 -0.14
31 0.47
32 0.08
33 -0.15
34 -0.15
35 -0.15
36 0.08
37 -0.15
38 -0.15
39 -0.15
4 -0.53
40 0.08
41 0.15
42 0.15
43 0.15
44 0.15
45 0.15
46 0.15
47 0.15
48 0.15
49 0.15
5 -0.53
50 0.45
51 0.15
52 0.45
53 0.45
54 0.15
55 0.15
56 0.45
57 0.45
58 0.45
6 -0.57
7 -0.53
8 -0.57
9 -0.53

>  <PUBCHEM_PHARMACOPHORE_FEATURES>
16
1 1 acceptor
1 10 donor
1 2 acceptor
1 3 donor
1 4 donor
1 5 donor
1 6 acceptor
1 7 donor
1 8 acceptor
1 9 donor
6 1 12 14 22 23 26 rings
6 11 12 14 17 19 21 rings
6 13 15 16 18 24 25 rings
6 2 20 27 28 30 31 rings
6 27 28 32 33 36 37 rings
6 29 34 35 38 39 40 rings

>  <PUBCHEM_SHAPE_FINGERPRINT>
10074138 170 18272931639651384535
10462674 125 17618475011381580750
10622 236 18044087084485364727
10928967 22 18186794777961395306
11135926 11 16589159410442702964
11434127 23 16988854868850209122
11552529 35 18337099142617264300
12128747 34 17416426289408154158
12422481 6 17970917660810484883
12559416 138 17458053868550942330
131258 38 17040625661602271054
14040221 299 18130520668696863620
14068700 675 18126558149519363943
14395042 24 18339370777318689755
14674994 50 18189596350705326935
14705955 166 17345771702192931481
14856354 85 18343864420652166036
14950920 106 18341324578619618192
15320294 125 18260278451476051767
15361156 5 15359116841693389420
15484559 13 15440400299685403118
16728300 4 17967823739013222547
19319366 153 16671943977149260761
20554085 129 18057606456813237473
20775530 9 17974003148226375983
21033648 29 17986692393200921257
21133410 221 17108453988390366882
23516275 137 17830492447455348050
3882209 13 17628068207685272503
4394409 98 18410292537089562351
44880168 125 18338798914801616118
484985 159 18337095835418697607
50080093 196 18113889468875184482
5085150 59 18337387146281907241
5171179 24 16967460284478114997
581034 39 18412830166090923426

>  <PUBCHEM_SHAPE_MULTIPOLES>
764.49
14.59
6.24
3.18
25.21
8.64
-0.18
2.69
-10.24
-12.46
1.99
1.74
-0.93
-5.25

>  <PUBCHEM_SHAPE_SELFOVERLAP>
1749.357

>  <PUBCHEM_SHAPE_VOLUME>
392.9

>  <RI>
-1.12089e+09

>  <Rbt.Current_Directory>
/root/miniconda3/envs/rdock/share/rxdock-2013.1.1_148c5bd1-0/data/ligands/prepped_ligands/Amentoflavone

>  <Rbt.Executable>
rbdock/0.1.0

>  <Rbt.Library>
librxdock.so/0.1.0

>  <Rbt.Parameter_File>
/root/miniconda3/envs/rdock/share/rxdock-2013.1.1_148c5bd1-0/data/scripts/dock.prm

>  <Rbt.Receptor>
def.prm

>  <SCORE>
-16.1708

>  <SCORE.INTER>
-18.9149

>  <SCORE.INTER.CONST>
1

>  <SCORE.INTER.POLAR>
-1.06724

>  <SCORE.INTER.REPUL>
0.0388803

>  <SCORE.INTER.ROT>
3

>  <SCORE.INTER.VDW>
-23.8807

>  <SCORE.INTER.norm>
-0.472872

>  <SCORE.INTRA>
3.06566

>  <SCORE.INTRA.DIHEDRAL>
11.4365

>  <SCORE.INTRA.DIHEDRAL.0>
7.26727

>  <SCORE.INTRA.POLAR>
-0.171885

>  <SCORE.INTRA.POLAR.0>
0

>  <SCORE.INTRA.REPUL>
0

>  <SCORE.INTRA.REPUL.0>
0

>  <SCORE.INTRA.VDW>
-2.06816

>  <SCORE.INTRA.VDW.0>
0.367007

>  <SCORE.INTRA.norm>
0.0766414

>  <SCORE.RESTR>
0.66452

>  <SCORE.RESTR.CAVITY>
0.66452

>  <SCORE.RESTR.norm>
0.016613

>  <SCORE.SYSTEM>
-0.986069

>  <SCORE.SYSTEM.CONST>
0

>  <SCORE.SYSTEM.DIHEDRAL>
0.206137

>  <SCORE.SYSTEM.VDW>
-1.08914

>  <SCORE.SYSTEM.norm>
-0.0246517

>  <SCORE.heavy>
40

>  <SCORE.norm>
-0.404269

$$$$
5281600
  RxDock  02242101493D
librxdock.so/0.1.0
 46 51  0  0  0  0  0  0  0  0999 V2000
  -50.0311   -5.4959   16.6067 O   0  0  0  0  0  0
  -45.6338   -1.6592   17.2199 O   0  0  0  0  0  0
  -51.8856   -2.1218   13.7974 O   0  0  0  0  0  0
  -49.6492   -3.4965   12.7053 O   0  0  0  0  0  0
  -54.7531   -5.4763   15.5130 O   0  0  0  0  0  0
  -53.6565   -7.3024   17.0449 O   0  0  0  0  0  0
  -45.1695   -0.1179   21.7921 O   0  0  0  0  0  0
  -47.4917   -0.6940   20.7150 O   0  0  0  0  0  0
  -41.3549   -0.6515   19.0136 O   0  0  0  0  0  0
  -45.4129   -8.4682   19.7395 O   0  0  0  0  0  0
  -50.9487   -3.8232   15.2157 C   0  0  0  0  0  0
  -51.1358   -4.9723   15.9844 C   0  0  0  0  0  0
  -49.6312   -3.2231   15.0933 C   0  0  0  0  0  0
  -52.4047   -5.5386   16.0931 C   0  0  0  0  0  0
  -47.7089   -2.2143   16.1463 C   0  0  0  0  0  0
  -48.9751   -2.7913   16.2439 C   0  0  0  0  0  0
  -52.0344   -3.2443   14.5581 C   0  0  0  0  0  0
  -49.0279   -3.0807   13.8457 C   0  0  0  0  0  0
  -53.4943   -4.9623   15.4361 C   0  0  0  0  0  0
  -47.0095   -1.7552   17.3632 C   0  0  0  0  0  0
  -53.3043   -3.8127   14.6684 C   0  0  0  0  0  0
  -50.1879   -6.6341   17.3832 C   0  0  0  0  0  0
  -52.5731   -6.7511   16.9085 C   0  0  0  0  0  0
  -47.1022   -2.0708   14.8986 C   0  0  0  0  0  0
  -47.7617   -2.5037   13.7481 C   0  0  0  0  0  0
  -51.3548   -7.2740   17.5593 C   0  0  0  0  0  0
  -45.4638   -0.8913   19.5180 C   0  0  0  0  0  0
  -44.8928   -1.2356   18.2940 C   0  0  0  0  0  0
  -48.9362   -7.1157   18.0012 C   0  0  0  0  0  0
  -47.6757   -1.4463   18.4870 C   0  0  0  0  0  0
  -46.9237   -0.9832   19.6709 C   0  0  0  0  0  0
  -44.6598   -0.4655   20.5777 C   0  0  0  0  0  0
  -43.5106   -1.1555   18.1223 C   0  0  0  0  0  0
  -47.9413   -7.6960   17.2105 C   0  0  0  0  0  0
  -48.7409   -6.9924   19.3789 C   0  0  0  0  0  0
  -42.7041   -0.7309   19.1784 C   0  0  0  0  0  0
  -43.2776   -0.3868   20.4034 C   0  0  0  0  0  0
  -46.7585   -8.1504   17.7940 C   0  0  0  0  0  0
  -47.5582   -7.4465   19.9625 C   0  0  0  0  0  0
  -46.5670   -8.0256   19.1700 C   0  0  0  0  0  0
  -51.0890   -1.6437   14.0851 H   0  0  0  0  0  0
  -49.3767   -2.9250   11.9671 H   0  0  0  0  0  0
  -55.4138   -4.7804   15.3750 H   0  0  0  0  0  0
  -46.1385   -0.1012   21.7622 H   0  0  0  0  0  0
  -41.0606   -1.3940   18.4585 H   0  0  0  0  0  0
  -45.3135   -9.4179   19.5532 H   0  0  0  0  0  0
  1 12  1  0  0  0
  1 22  1  0  0  0
  2 20  1  0  0  0
  2 28  1  0  0  0
  3 17  1  0  0  0
  3 41  1  0  0  0
  4 18  1  0  0  0
  4 42  1  0  0  0
  5 19  1  0  0  0
  5 43  1  0  0  0
  6 23  2  0  0  0
  7 32  1  0  0  0
  7 44  1  0  0  0
  8 31  2  0  0  0
  9 36  1  0  0  0
  9 45  1  0  0  0
 10 40  1  0  0  0
 10 46  1  0  0  0
 11 12  1  0  0  0
 11 13  1  0  0  0
 11 17  2  0  0  0
 12 14  2  0  0  0
 13 16  1  0  0  0
 13 18  2  0  0  0
 14 19  1  0  0  0
 14 23  1  0  0  0
 15 16  2  0  0  0
 15 20  1  0  0  0
 15 24  1  0  0  0
 17 21  1  0  0  0
 18 25  1  0  0  0
 19 21  2  0  0  0
 20 30  2  0  0  0
 22 26  2  0  0  0
 22 29  1  0  0  0
 23 26  1  0  0  0
 24 25  2  0  0  0
 27 28  1  0  0  0
 27 31  1  0  0  0
 27 32  2  0  0  0
 28 33  2  0  0  0
 29 34  2  0  0  0
 29 35  1  0  0  0
 30 31  1  0  0  0
 32 37  1  0  0  0
 33 36  1  0  0  0
 34 38  1  0  0  0
 35 39  2  0  0  0
 36 37  2  0  0  0
 38 40  2  0  0  0
 39 40  1  0  0  0
M  END
>  <CHROM.0>
-43.23305272,-60.44073450,-62.80663612

>  <CHROM.1>
-22.84126639,148.86774962,153.45006051,-7.27671496,-37.38792439,-58.80902084
-59.39036924,157.95885925,-70.75090938,-48.37558659,-3.80719592,17.28435021
-2.90361252,-0.59208587,-0.44124849

>  <Name>
5281600

>  <PUBCHEM_ATOM_DEF_STEREO_COUNT>
0

>  <PUBCHEM_ATOM_UDEF_STEREO_COUNT>
0

>  <PUBCHEM_BOND_DEF_STEREO_COUNT>
0

>  <PUBCHEM_BOND_UDEF_STEREO_COUNT>
0

>  <PUBCHEM_CACTVS_TAUTO_COUNT>
994

>  <PUBCHEM_COMPONENT_COUNT>
1

>  <PUBCHEM_COMPOUND_CID>
5281600

>  <PUBCHEM_CONFORMER_DIVERSEORDER>
1
12
7
6
5
11
9
4
8
3
2
10

>  <PUBCHEM_CONFORMER_ID>
0050974000000001

>  <PUBCHEM_CONFORMER_RMSD>
0.8

>  <PUBCHEM_COORDINATE_TYPE>
2
5
10

>  <PUBCHEM_EFFECTIVE_ROTOR_COUNT>
3

>  <PUBCHEM_FEATURE_SELFOVERLAP>
81.26

>  <PUBCHEM_HEAVY_ATOM_COUNT>
40

>  <PUBCHEM_ISOTOPIC_ATOM_COUNT>
0

>  <PUBCHEM_MMFF94_ENERGY>
134.7783

>  <PUBCHEM_MMFF94_PARTIAL_CHARGES>
56
1 -0.16
10 -0.53
12 0.08
14 0.09
15 0.03
16 -0.15
17 0.08
18 0.08
19 0.08
2 -0.16
20 0.05
21 -0.15
22 0.05
23 0.47
24 -0.15
25 -0.15
26 -0.14
27 0.09
28 0.08
29 0.03
3 -0.53
30 -0.14
31 0.47
32 0.08
33 -0.15
34 -0.15
35 -0.15
36 0.08
37 -0.15
38 -0.15
39 -0.15
4 -0.53
40 0.08
41 0.15
42 0.15
43 0.15
44 0.15
45 0.15
46 0.15
47 0.15
48 0.15
49 0.15
5 -0.53
50 0.45
51 0.15
52 0.45
53 0.45
54 0.15
55 0.15
56 0.45
57 0.45
58 0.45
6 -0.57
7 -0.53
8 -0.57
9 -0.53

>  <PUBCHEM_PHARMACOPHORE_FEATURES>
16
1 1 acceptor
1 10 donor
1 2 acceptor
1 3 donor
1 4 donor
1 5 donor
1 6 acceptor
1 7 donor
1 8 acceptor
1 9 donor
6 1 12 14 22 23 26 rings
6 11 12 14 17 19 21 rings
6 13 15 16 18 24 25 rings
6 2 20 27 28 30 31 rings
6 27 28 32 33 36 37 rings
6 29 34 35 38 39 40 rings

>  <PUBCHEM_SHAPE_FINGERPRINT>
10074138 170 18272931639651384535
10462674 125 17618475011381580750
10622 236 18044087084485364727
10928967 22 18186794777961395306
11135926 11 16589159410442702964
11434127 23 16988854868850209122
11552529 35 18337099142617264300
12128747 34 17416426289408154158
12422481 6 17970917660810484883
12559416 138 17458053868550942330
131258 38 17040625661602271054
14040221 299 18130520668696863620
14068700 675 18126558149519363943
14395042 24 18339370777318689755
14674994 50 18189596350705326935
14705955 166 17345771702192931481
14856354 85 18343864420652166036
14950920 106 18341324578619618192
15320294 125 18260278451476051767
15361156 5 15359116841693389420
15484559 13 15440400299685403118
16728300 4 17967823739013222547
19319366 153 16671943977149260761
20554085 129 18057606456813237473
20775530 9 17974003148226375983
21033648 29 17986692393200921257
21133410 221 17108453988390366882
23516275 137 17830492447455348050
3882209 13 17628068207685272503
4394409 98 18410292537089562351
44880168 125 18338798914801616118
484985 159 18337095835418697607
50080093 196 18113889468875184482
5085150 59 18337387146281907241
5171179 24 16967460284478114997
581034 39 18412830166090923426

>  <PUBCHEM_SHAPE_MULTIPOLES>
764.49
14.59
6.24
3.18
25.21
8.64
-0.18
2.69
-10.24
-12.46
1.99
1.74
-0.93
-5.25

>  <PUBCHEM_SHAPE_SELFOVERLAP>
1749.357

>  <PUBCHEM_SHAPE_VOLUME>
392.9

>  <RI>
-1.12089e+09

>  <Rbt.Current_Directory>
/root/miniconda3/envs/rdock/share/rxdock-2013.1.1_148c5bd1-0/data/ligands/prepped_ligands/Amentoflavone

>  <Rbt.Executable>
rbdock/0.1.0

>  <Rbt.Library>
librxdock.so/0.1.0

>  <Rbt.Parameter_File>
/root/miniconda3/envs/rdock/share/rxdock-2013.1.1_148c5bd1-0/data/scripts/dock.prm

>  <Rbt.Receptor>
def.prm

>  <SCORE>
-17.5347

>  <SCORE.INTER>
-22.4953

>  <SCORE.INTER.CONST>
1

>  <SCORE.INTER.POLAR>
-1.58002

>  <SCORE.INTER.REPUL>
0.00217608

>  <SCORE.INTER.ROT>
3

>  <SCORE.INTER.VDW>
-25.5341

>  <SCORE.INTER.norm>
-0.562382

>  <SCORE.INTRA>
3.47426

>  <SCORE.INTRA.DIHEDRAL>
9.61613

>  <SCORE.INTRA.DIHEDRAL.0>
7.26727

>  <SCORE.INTRA.POLAR>
0

>  <SCORE.INTRA.POLAR.0>
0

>  <SCORE.INTRA.REPUL>
0

>  <SCORE.INTRA.REPUL.0>
0

>  <SCORE.INTRA.VDW>
-1.33381

>  <SCORE.INTRA.VDW.0>
0.367007

>  <SCORE.INTRA.norm>
0.0868565

>  <SCORE.RESTR>
2.12657

>  <SCORE.RESTR.CAVITY>
2.12657

>  <SCORE.RESTR.norm>
0.0531644

>  <SCORE.SYSTEM>
-0.640304

>  <SCORE.SYSTEM.CONST>
0

>  <SCORE.SYSTEM.DIHEDRAL>
0.662185

>  <SCORE.SYSTEM.VDW>
-0.971396

>  <SCORE.SYSTEM.norm>
-0.0160076

>  <SCORE.heavy>
40

>  <SCORE.norm>
-0.438369

$$$$
5281600
  RxDock  02242101493D
librxdock.so/0.1.0
 46 51  0  0  0  0  0  0  0  0999 V2000
  -46.8521   -0.4946   18.7516 O   0  0  0  0  0  0
  -49.1950   -3.8778   15.6682 O   0  0  0  0  0  0
  -42.4534   -1.7710   17.4331 O   0  0  0  0  0  0
  -43.6322   -0.8891   15.4605 O   0  0  0  0  0  0
  -42.9761    0.9093   21.3011 O   0  0  0  0  0  0
  -45.4271    1.5768   21.9576 O   0  0  0  0  0  0
  -51.6306   -7.6914   17.4061 O   0  0  0  0  0  0
  -49.1015   -7.2520   17.9496 O   0  0  0  0  0  0
  -53.7701   -4.5305   14.5800 O   0  0  0  0  0  0
  -53.1523   -0.2499   18.2755 O   0  0  0  0  0  0
  -44.6736   -1.1285   18.0979 C   0  0  0  0  0  0
  -45.5020   -0.4482   18.9907 C   0  0  0  0  0  0
  -45.2379   -1.8492   16.9696 C   0  0  0  0  0  0
  -44.9481    0.2401   20.0687 C   0  0  0  0  0  0
  -46.8860   -3.3873   16.1094 C   0  0  0  0  0  0
  -46.3296   -2.6885   17.1808 C   0  0  0  0  0  0
  -43.2916   -1.1175   18.2882 C   0  0  0  0  0  0
  -44.6995   -1.7053   15.6929 C   0  0  0  0  0  0
  -43.5649    0.2538   20.2626 C   0  0  0  0  0  0
  -48.0433   -4.2779   16.3284 C   0  0  0  0  0  0
  -42.7388   -0.4279   19.3684 C   0  0  0  0  0  0
  -47.7008    0.1668   19.6263 C   0  0  0  0  0  0
  -45.8446    0.9504   20.9934 C   0  0  0  0  0  0
  -46.3494   -3.2449   14.8299 C   0  0  0  0  0  0
  -45.2559   -2.4041   14.6215 C   0  0  0  0  0  0
  -47.2885    0.8681   20.6942 C   0  0  0  0  0  0
  -50.3632   -5.8073   16.5695 C   0  0  0  0  0  0
  -50.3255   -4.6431   15.8039 C   0  0  0  0  0  0
  -49.1304    0.0573   19.2729 C   0  0  0  0  0  0
  -47.9523   -5.3811   17.0881 C   0  0  0  0  0  0
  -49.1410   -6.2398   17.2639 C   0  0  0  0  0  0
  -51.5430   -6.5478   16.6714 C   0  0  0  0  0  0
  -51.4706   -4.2119   15.1337 C   0  0  0  0  0  0
  -49.9590    1.1798   19.3450 C   0  0  0  0  0  0
  -49.6604   -1.1689   18.8640 C   0  0  0  0  0  0
  -52.6511   -4.9487   15.2332 C   0  0  0  0  0  0
  -52.6870   -6.1141   16.0004 C   0  0  0  0  0  0
  -51.3093    1.0768   19.0104 C   0  0  0  0  0  0
  -51.0106   -1.2720   18.5293 C   0  0  0  0  0  0
  -51.8351   -0.1492   18.6025 C   0  0  0  0  0  0
  -41.8522   -2.3382   17.9455 H   0  0  0  0  0  0
  -43.3175   -1.0268   14.5507 H   0  0  0  0  0  0
  -43.5822    0.9652   22.0557 H   0  0  0  0  0  0
  -52.4815   -7.7341   17.8690 H   0  0  0  0  0  0
  -53.5842   -3.6783   14.1495 H   0  0  0  0  0  0
  -53.6180    0.5419   18.5956 H   0  0  0  0  0  0
  1 12  1  0  0  0
  1 22  1  0  0  0
  2 20  1  0  0  0
  2 28  1  0  0  0
  3 17  1  0  0  0
  3 41  1  0  0  0
  4 18  1  0  0  0
  4 42  1  0  0  0
  5 19  1  0  0  0
  5 43  1  0  0  0
  6 23  2  0  0  0
  7 32  1  0  0  0
  7 44  1  0  0  0
  8 31  2  0  0  0
  9 36  1  0  0  0
  9 45  1  0  0  0
 10 40  1  0  0  0
 10 46  1  0  0  0
 11 12  1  0  0  0
 11 13  1  0  0  0
 11 17  2  0  0  0
 12 14  2  0  0  0
 13 16  1  0  0  0
 13 18  2  0  0  0
 14 19  1  0  0  0
 14 23  1  0  0  0
 15 16  2  0  0  0
 15 20  1  0  0  0
 15 24  1  0  0  0
 17 21  1  0  0  0
 18 25  1  0  0  0
 19 21  2  0  0  0
 20 30  2  0  0  0
 22 26  2  0  0  0
 22 29  1  0  0  0
 23 26  1  0  0  0
 24 25  2  0  0  0
 27 28  1  0  0  0
 27 31  1  0  0  0
 27 32  2  0  0  0
 28 33  2  0  0  0
 29 34  2  0  0  0
 29 35  1  0  0  0
 30 31  1  0  0  0
 32 37  1  0  0  0
 33 36  1  0  0  0
 34 38  1  0  0  0
 35 39  2  0  0  0
 36 37  2  0  0  0
 38 40  2  0  0  0
 39 40  1  0  0  0
M  END
>  <CHROM.0>
-65.88243407,-65.71001126,178.13264041

>  <CHROM.1>
-129.09067128,171.20860419,27.53759181,140.69671254,-3.89751535,-14.47637201
-46.80670128,116.18280204,-136.66879016,-47.90015172,-2.22634036,17.75920530
0.69520072,0.06680781,0.61555714

>  <Name>
5281600

>  <PUBCHEM_ATOM_DEF_STEREO_COUNT>
0

>  <PUBCHEM_ATOM_UDEF_STEREO_COUNT>
0

>  <PUBCHEM_BOND_DEF_STEREO_COUNT>
0

>  <PUBCHEM_BOND_UDEF_STEREO_COUNT>
0

>  <PUBCHEM_CACTVS_TAUTO_COUNT>
994

>  <PUBCHEM_COMPONENT_COUNT>
1

>  <PUBCHEM_COMPOUND_CID>
5281600

>  <PUBCHEM_CONFORMER_DIVERSEORDER>
1
12
7
6
5
11
9
4
8
3
2
10

>  <PUBCHEM_CONFORMER_ID>
0050974000000001

>  <PUBCHEM_CONFORMER_RMSD>
0.8

>  <PUBCHEM_COORDINATE_TYPE>
2
5
10

>  <PUBCHEM_EFFECTIVE_ROTOR_COUNT>
3

>  <PUBCHEM_FEATURE_SELFOVERLAP>
81.26

>  <PUBCHEM_HEAVY_ATOM_COUNT>
40

>  <PUBCHEM_ISOTOPIC_ATOM_COUNT>
0

>  <PUBCHEM_MMFF94_ENERGY>
134.7783

>  <PUBCHEM_MMFF94_PARTIAL_CHARGES>
56
1 -0.16
10 -0.53
12 0.08
14 0.09
15 0.03
16 -0.15
17 0.08
18 0.08
19 0.08
2 -0.16
20 0.05
21 -0.15
22 0.05
23 0.47
24 -0.15
25 -0.15
26 -0.14
27 0.09
28 0.08
29 0.03
3 -0.53
30 -0.14
31 0.47
32 0.08
33 -0.15
34 -0.15
35 -0.15
36 0.08
37 -0.15
38 -0.15
39 -0.15
4 -0.53
40 0.08
41 0.15
42 0.15
43 0.15
44 0.15
45 0.15
46 0.15
47 0.15
48 0.15
49 0.15
5 -0.53
50 0.45
51 0.15
52 0.45
53 0.45
54 0.15
55 0.15
56 0.45
57 0.45
58 0.45
6 -0.57
7 -0.53
8 -0.57
9 -0.53

>  <PUBCHEM_PHARMACOPHORE_FEATURES>
16
1 1 acceptor
1 10 donor
1 2 acceptor
1 3 donor
1 4 donor
1 5 donor
1 6 acceptor
1 7 donor
1 8 acceptor
1 9 donor
6 1 12 14 22 23 26 rings
6 11 12 14 17 19 21 rings
6 13 15 16 18 24 25 rings
6 2 20 27 28 30 31 rings
6 27 28 32 33 36 37 rings
6 29 34 35 38 39 40 rings

>  <PUBCHEM_SHAPE_FINGERPRINT>
10074138 170 18272931639651384535
10462674 125 17618475011381580750
10622 236 18044087084485364727
10928967 22 18186794777961395306
11135926 11 16589159410442702964
11434127 23 16988854868850209122
11552529 35 18337099142617264300
12128747 34 17416426289408154158
12422481 6 17970917660810484883
12559416 138 17458053868550942330
131258 38 17040625661602271054
14040221 299 18130520668696863620
14068700 675 18126558149519363943
14395042 24 18339370777318689755
14674994 50 18189596350705326935
14705955 166 17345771702192931481
14856354 85 18343864420652166036
14950920 106 18341324578619618192
15320294 125 18260278451476051767
15361156 5 15359116841693389420
15484559 13 15440400299685403118
16728300 4 17967823739013222547
19319366 153 16671943977149260761
20554085 129 18057606456813237473
20775530 9 17974003148226375983
21033648 29 17986692393200921257
21133410 221 17108453988390366882
23516275 137 17830492447455348050
3882209 13 17628068207685272503
4394409 98 18410292537089562351
44880168 125 18338798914801616118
484985 159 18337095835418697607
50080093 196 18113889468875184482
5085150 59 18337387146281907241
5171179 24 16967460284478114997
581034 39 18412830166090923426

>  <PUBCHEM_SHAPE_MULTIPOLES>
764.49
14.59
6.24
3.18
25.21
8.64
-0.18
2.69
-10.24
-12.46
1.99
1.74
-0.93
-5.25

>  <PUBCHEM_SHAPE_SELFOVERLAP>
1749.357

>  <PUBCHEM_SHAPE_VOLUME>
392.9

>  <RI>
-1.12089e+09

>  <Rbt.Current_Directory>
/root/miniconda3/envs/rdock/share/rxdock-2013.1.1_148c5bd1-0/data/ligands/prepped_ligands/Amentoflavone

>  <Rbt.Executable>
rbdock/0.1.0

>  <Rbt.Library>
librxdock.so/0.1.0

>  <Rbt.Parameter_File>
/root/miniconda3/envs/rdock/share/rxdock-2013.1.1_148c5bd1-0/data/scripts/dock.prm

>  <Rbt.Receptor>
def.prm

>  <SCORE>
-13.0481

>  <SCORE.INTER>
-16.4055

>  <SCORE.INTER.CONST>
1

>  <SCORE.INTER.POLAR>
-0.573023

>  <SCORE.INTER.REPUL>
0.00216831

>  <SCORE.INTER.ROT>
3

>  <SCORE.INTER.VDW>
-22.8681

>  <SCORE.INTER.norm>
-0.410137

>  <SCORE.INTRA>
3.26005

>  <SCORE.INTRA.DIHEDRAL>
7.68785

>  <SCORE.INTRA.DIHEDRAL.0>
7.26727

>  <SCORE.INTRA.POLAR>
0

>  <SCORE.INTRA.POLAR.0>
0

>  <SCORE.INTRA.REPUL>
0

>  <SCORE.INTRA.REPUL.0>
0

>  <SCORE.INTRA.VDW>
-0.583873

>  <SCORE.INTRA.VDW.0>
0.367007

>  <SCORE.INTRA.norm>
0.0815013

>  <SCORE.RESTR>
1.10169

>  <SCORE.RESTR.CAVITY>
1.10169

>  <SCORE.RESTR.norm>
0.0275422

>  <SCORE.SYSTEM>
-1.00438

>  <SCORE.SYSTEM.CONST>
0

>  <SCORE.SYSTEM.DIHEDRAL>
0.259001

>  <SCORE.SYSTEM.VDW>
-1.13388

>  <SCORE.SYSTEM.norm>
-0.0251095

>  <SCORE.heavy>
40

>  <SCORE.norm>
-0.326203

$$$$
5281600
  RxDock  02242101503D
librxdock.so/0.1.0
 46 51  0  0  0  0  0  0  0  0999 V2000
  -46.6946   -0.3327   18.7088 O   0  0  0  0  0  0
  -49.5136   -3.8741   15.7397 O   0  0  0  0  0  0
  -42.6653   -2.4893   17.3561 O   0  0  0  0  0  0
  -43.9579   -0.8934   15.3384 O   0  0  0  0  0  0
  -42.5948    0.2280   21.2330 O   0  0  0  0  0  0
  -44.8497    1.3871   21.9084 O   0  0  0  0  0  0
  -51.8858   -7.7043   17.5280 O   0  0  0  0  0  0
  -49.3350   -7.2783   17.9710 O   0  0  0  0  0  0
  -54.1320   -4.5013   14.8352 O   0  0  0  0  0  0
  -52.8102    1.2136   18.2786 O   0  0  0  0  0  0
  -44.6995   -1.4025   18.0381 C   0  0  0  0  0  0
  -45.3628   -0.5682   18.9382 C   0  0  0  0  0  0
  -45.4085   -1.9867   16.9126 C   0  0  0  0  0  0
  -44.6709   -0.0134   20.0135 C   0  0  0  0  0  0
  -47.1867   -3.3951   16.0903 C   0  0  0  0  0  0
  -46.4926   -2.8264   17.1583 C   0  0  0  0  0  0
  -43.3440   -1.6790   18.2185 C   0  0  0  0  0  0
  -45.0147   -1.7129   15.6047 C   0  0  0  0  0  0
  -43.3137   -0.2876   20.1975 C   0  0  0  0  0  0
  -48.3365   -4.2858   16.3459 C   0  0  0  0  0  0
  -42.6530   -1.1229   19.2960 C   0  0  0  0  0  0
  -47.3819    0.4873   19.5909 C   0  0  0  0  0  0
  -45.3944    0.8642   20.9461 C   0  0  0  0  0  0
  -46.7950   -3.1225   14.7797 C   0  0  0  0  0  0
  -45.7088   -2.2816   14.5367 C   0  0  0  0  0  0
  -46.8260    1.0842   20.6571 C   0  0  0  0  0  0
  -50.6489   -5.8124   16.6637 C   0  0  0  0  0  0
  -50.6397   -4.6383   15.9125 C   0  0  0  0  0  0
  -48.8054    0.6780   19.2475 C   0  0  0  0  0  0
  -48.2171   -5.3990   17.0866 C   0  0  0  0  0  0
  -49.4000   -6.2571   17.3007 C   0  0  0  0  0  0
  -51.8256   -6.5514   16.8052 C   0  0  0  0  0  0
  -51.8105   -4.1956   15.2965 C   0  0  0  0  0  0
  -49.2441    1.8974   18.7258 C   0  0  0  0  0  0
  -49.7194   -0.3604   19.4420 C   0  0  0  0  0  0
  -52.9880   -4.9308   15.4356 C   0  0  0  0  0  0
  -52.9953   -6.1060   16.1884 C   0  0  0  0  0  0
  -50.5887    2.0775   18.4008 C   0  0  0  0  0  0
  -51.0639   -0.1806   19.1168 C   0  0  0  0  0  0
  -51.4985    1.0384   18.5962 C   0  0  0  0  0  0
  -43.2749   -3.1568   16.9975 H   0  0  0  0  0  0
  -43.8121   -0.3039   16.0981 H   0  0  0  0  0  0
  -43.0623    0.9780   21.6316 H   0  0  0  0  0  0
  -51.0055   -8.1028   17.6069 H   0  0  0  0  0  0
  -53.9168   -3.7664   14.2353 H   0  0  0  0  0  0
  -52.9284    2.1051   17.9077 H   0  0  0  0  0  0
  1 12  1  0  0  0
  1 22  1  0  0  0
  2 20  1  0  0  0
  2 28  1  0  0  0
  3 17  1  0  0  0
  3 41  1  0  0  0
  4 18  1  0  0  0
  4 42  1  0  0  0
  5 19  1  0  0  0
  5 43  1  0  0  0
  6 23  2  0  0  0
  7 32  1  0  0  0
  7 44  1  0  0  0
  8 31  2  0  0  0
  9 36  1  0  0  0
  9 45  1  0  0  0
 10 40  1  0  0  0
 10 46  1  0  0  0
 11 12  1  0  0  0
 11 13  1  0  0  0
 11 17  2  0  0  0
 12 14  2  0  0  0
 13 16  1  0  0  0
 13 18  2  0  0  0
 14 19  1  0  0  0
 14 23  1  0  0  0
 15 16  2  0  0  0
 15 20  1  0  0  0
 15 24  1  0  0  0
 17 21  1  0  0  0
 18 25  1  0  0  0
 19 21  2  0  0  0
 20 30  2  0  0  0
 22 26  2  0  0  0
 22 29  1  0  0  0
 23 26  1  0  0  0
 24 25  2  0  0  0
 27 28  1  0  0  0
 27 31  1  0  0  0
 27 32  2  0  0  0
 28 33  2  0  0  0
 29 34  2  0  0  0
 29 35  1  0  0  0
 30 31  1  0  0  0
 32 37  1  0  0  0
 33 36  1  0  0  0
 34 38  1  0  0  0
 35 39  2  0  0  0
 36 37  2  0  0  0
 38 40  2  0  0  0
 39 40  1  0  0  0
M  END
>  <CHROM.0>
46.26873002,-61.61150586,-65.88194839

>  <CHROM.1>
-31.03385955,-22.99271952,-16.78798580,-22.57745725,9.64137930,1.64823934
-60.56078259,123.16283052,-106.94444307,-47.92120871,-2.14216600,17.76203833
0.69360053,-0.04066697,0.49169554

>  <Name>
5281600

>  <PUBCHEM_ATOM_DEF_STEREO_COUNT>
0

>  <PUBCHEM_ATOM_UDEF_STEREO_COUNT>
0

>  <PUBCHEM_BOND_DEF_STEREO_COUNT>
0

>  <PUBCHEM_BOND_UDEF_STEREO_COUNT>
0

>  <PUBCHEM_CACTVS_TAUTO_COUNT>
994

>  <PUBCHEM_COMPONENT_COUNT>
1

>  <PUBCHEM_COMPOUND_CID>
5281600

>  <PUBCHEM_CONFORMER_DIVERSEORDER>
1
12
7
6
5
11
9
4
8
3
2
10

>  <PUBCHEM_CONFORMER_ID>
0050974000000001

>  <PUBCHEM_CONFORMER_RMSD>
0.8

>  <PUBCHEM_COORDINATE_TYPE>
2
5
10

>  <PUBCHEM_EFFECTIVE_ROTOR_COUNT>
3

>  <PUBCHEM_FEATURE_SELFOVERLAP>
81.26

>  <PUBCHEM_HEAVY_ATOM_COUNT>
40

>  <PUBCHEM_ISOTOPIC_ATOM_COUNT>
0

>  <PUBCHEM_MMFF94_ENERGY>
134.7783

>  <PUBCHEM_MMFF94_PARTIAL_CHARGES>
56
1 -0.16
10 -0.53
12 0.08
14 0.09
15 0.03
16 -0.15
17 0.08
18 0.08
19 0.08
2 -0.16
20 0.05
21 -0.15
22 0.05
23 0.47
24 -0.15
25 -0.15
26 -0.14
27 0.09
28 0.08
29 0.03
3 -0.53
30 -0.14
31 0.47
32 0.08
33 -0.15
34 -0.15
35 -0.15
36 0.08
37 -0.15
38 -0.15
39 -0.15
4 -0.53
40 0.08
41 0.15
42 0.15
43 0.15
44 0.15
45 0.15
46 0.15
47 0.15
48 0.15
49 0.15
5 -0.53
50 0.45
51 0.15
52 0.45
53 0.45
54 0.15
55 0.15
56 0.45
57 0.45
58 0.45
6 -0.57
7 -0.53
8 -0.57
9 -0.53

>  <PUBCHEM_PHARMACOPHORE_FEATURES>
16
1 1 acceptor
1 10 donor
1 2 acceptor
1 3 donor
1 4 donor
1 5 donor
1 6 acceptor
1 7 donor
1 8 acceptor
1 9 donor
6 1 12 14 22 23 26 rings
6 11 12 14 17 19 21 rings
6 13 15 16 18 24 25 rings
6 2 20 27 28 30 31 rings
6 27 28 32 33 36 37 rings
6 29 34 35 38 39 40 rings

>  <PUBCHEM_SHAPE_FINGERPRINT>
10074138 170 18272931639651384535
10462674 125 17618475011381580750
10622 236 18044087084485364727
10928967 22 18186794777961395306
11135926 11 16589159410442702964
11434127 23 16988854868850209122
11552529 35 18337099142617264300
12128747 34 17416426289408154158
12422481 6 17970917660810484883
12559416 138 17458053868550942330
131258 38 17040625661602271054
14040221 299 18130520668696863620
14068700 675 18126558149519363943
14395042 24 18339370777318689755
14674994 50 18189596350705326935
14705955 166 17345771702192931481
14856354 85 18343864420652166036
14950920 106 18341324578619618192
15320294 125 18260278451476051767
15361156 5 15359116841693389420
15484559 13 15440400299685403118
16728300 4 17967823739013222547
19319366 153 16671943977149260761
20554085 129 18057606456813237473
20775530 9 17974003148226375983
21033648 29 17986692393200921257
21133410 221 17108453988390366882
23516275 137 17830492447455348050
3882209 13 17628068207685272503
4394409 98 18410292537089562351
44880168 125 18338798914801616118
484985 159 18337095835418697607
50080093 196 18113889468875184482
5085150 59 18337387146281907241
5171179 24 16967460284478114997
581034 39 18412830166090923426

>  <PUBCHEM_SHAPE_MULTIPOLES>
764.49
14.59
6.24
3.18
25.21
8.64
-0.18
2.69
-10.24
-12.46
1.99
1.74
-0.93
-5.25

>  <PUBCHEM_SHAPE_SELFOVERLAP>
1749.357

>  <PUBCHEM_SHAPE_VOLUME>
392.9

>  <RI>
-1.12089e+09

>  <Rbt.Current_Directory>
/root/miniconda3/envs/rdock/share/rxdock-2013.1.1_148c5bd1-0/data/ligands/prepped_ligands/Amentoflavone

>  <Rbt.Executable>
rbdock/0.1.0

>  <Rbt.Library>
librxdock.so/0.1.0

>  <Rbt.Parameter_File>
/root/miniconda3/envs/rdock/share/rxdock-2013.1.1_148c5bd1-0/data/scripts/dock.prm

>  <Rbt.Receptor>
def.prm

>  <SCORE>
-17.0697

>  <SCORE.INTER>
-18.6039

>  <SCORE.INTER.CONST>
1

>  <SCORE.INTER.POLAR>
-0.991691

>  <SCORE.INTER.REPUL>
0.0469106

>  <SCORE.INTER.ROT>
3

>  <SCORE.INTER.VDW>
-23.8667

>  <SCORE.INTER.norm>
-0.465097

>  <SCORE.INTRA>
1.68549

>  <SCORE.INTRA.DIHEDRAL>
7.39493

>  <SCORE.INTRA.DIHEDRAL.0>
7.26727

>  <SCORE.INTRA.POLAR>
0

>  <SCORE.INTRA.POLAR.0>
0

>  <SCORE.INTRA.REPUL>
0

>  <SCORE.INTRA.REPUL.0>
0

>  <SCORE.INTRA.VDW>
-2.01198

>  <SCORE.INTRA.VDW.0>
0.367007

>  <SCORE.INTRA.norm>
0.0421373

>  <SCORE.RESTR>
0.591822

>  <SCORE.RESTR.CAVITY>
0.591822

>  <SCORE.RESTR.norm>
0.0147956

>  <SCORE.SYSTEM>
-0.743138

>  <SCORE.SYSTEM.CONST>
0

>  <SCORE.SYSTEM.DIHEDRAL>
0.557219

>  <SCORE.SYSTEM.VDW>
-1.02175

>  <SCORE.SYSTEM.norm>
-0.0185784

>  <SCORE.heavy>
40

>  <SCORE.norm>
-0.426743

$$$$
5281600
  RxDock  02242101503D
librxdock.so/0.1.0
 46 51  0  0  0  0  0  0  0  0999 V2000
  -47.7180   -0.8736   17.1232 O   0  0  0  0  0  0
  -50.1612   -5.3299   18.4535 O   0  0  0  0  0  0
  -51.6346   -1.3018   14.4413 O   0  0  0  0  0  0
  -51.0728    0.8334   17.3480 O   0  0  0  0  0  0
  -47.5737   -0.0597   12.3472 O   0  0  0  0  0  0
  -45.4641    0.1627   13.8913 O   0  0  0  0  0  0
  -51.8358   -9.2580   20.7474 O   0  0  0  0  0  0
  -53.0128   -6.9174   20.8922 O   0  0  0  0  0  0
  -47.9047   -9.4915   18.0926 O   0  0  0  0  0  0
  -44.3874   -0.9923   22.4973 O   0  0  0  0  0  0
  -49.6588   -1.0871   15.7956 C   0  0  0  0  0  0
  -48.2965   -0.7988   15.8816 C   0  0  0  0  0  0
  -50.4134   -1.4490   16.9832 C   0  0  0  0  0  0
  -47.5841   -0.4521   14.7349 C   0  0  0  0  0  0
  -51.1661   -3.1498   18.5203 C   0  0  0  0  0  0
  -50.4483   -2.7835   17.3817 C   0  0  0  0  0  0
  -50.3036   -1.0274   14.5599 C   0  0  0  0  0  0
  -51.0927   -0.4791   17.7170 C   0  0  0  0  0  0
  -48.2260   -0.3910   13.4959 C   0  0  0  0  0  0
  -51.2058   -4.5630   18.9467 C   0  0  0  0  0  0
  -49.5885   -0.6803   13.4127 C   0  0  0  0  0  0
  -46.3636   -0.5990   17.2384 C   0  0  0  0  0  0
  -46.1494   -0.1513   14.8547 C   0  0  0  0  0  0
  -51.8469   -2.1809   19.2572 C   0  0  0  0  0  0
  -51.8105   -0.8455   18.8556 C   0  0  0  0  0  0
  -45.5736   -0.2481   16.2113 C   0  0  0  0  0  0
  -51.0482   -7.2636   19.6255 C   0  0  0  0  0  0
  -50.1055   -6.6568   18.7973 C   0  0  0  0  0  0
  -45.8457   -0.7029   18.6174 C   0  0  0  0  0  0
  -52.1692   -5.0299   19.7567 C   0  0  0  0  0  0
  -52.1526   -6.4513   20.1579 C   0  0  0  0  0  0
  -50.9411   -8.6196   19.9429 C   0  0  0  0  0  0
  -49.0471   -7.4047   18.2807 C   0  0  0  0  0  0
  -44.5207   -1.0845   18.8424 C   0  0  0  0  0  0
  -46.6779   -0.4192   19.7029 C   0  0  0  0  0  0
  -48.9367   -8.7593   18.5951 C   0  0  0  0  0  0
  -49.8818   -9.3653   19.4243 C   0  0  0  0  0  0
  -44.0311   -1.1820   20.1450 C   0  0  0  0  0  0
  -46.1884   -0.5164   21.0055 C   0  0  0  0  0  0
  -44.8649   -0.8979   21.2265 C   0  0  0  0  0  0
  -51.8951   -1.9291   15.1372 H   0  0  0  0  0  0
  -51.4410    1.3729   18.0685 H   0  0  0  0  0  0
  -48.1380    0.4896   11.7818 H   0  0  0  0  0  0
  -52.4202   -8.6177   21.1815 H   0  0  0  0  0  0
  -47.6239   -9.1019   17.2467 H   0  0  0  0  0  0
  -43.4677   -1.3079   22.4658 H   0  0  0  0  0  0
  1 12  1  0  0  0
  1 22  1  0  0  0
  2 20  1  0  0  0
  2 28  1  0  0  0
  3 17  1  0  0  0
  3 41  1  0  0  0
  4 18  1  0  0  0
  4 42  1  0  0  0
  5 19  1  0  0  0
  5 43  1  0  0  0
  6 23  2  0  0  0
  7 32  1  0  0  0
  7 44  1  0  0  0
  8 31  2  0  0  0
  9 36  1  0  0  0
  9 45  1  0  0  0
 10 40  1  0  0  0
 10 46  1  0  0  0
 11 12  1  0  0  0
 11 13  1  0  0  0
 11 17  2  0  0  0
 12 14  2  0  0  0
 13 16  1  0  0  0
 13 18  2  0  0  0
 14 19  1  0  0  0
 14 23  1  0  0  0
 15 16  2  0  0  0
 15 20  1  0  0  0
 15 24  1  0  0  0
 17 21  1  0  0  0
 18 25  1  0  0  0
 19 21  2  0  0  0
 20 30  2  0  0  0
 22 26  2  0  0  0
 22 29  1  0  0  0
 23 26  1  0  0  0
 24 25  2  0  0  0
 27 28  1  0  0  0
 27 31  1  0  0  0
 27 32  2  0  0  0
 28 33  2  0  0  0
 29 34  2  0  0  0
 29 35  1  0  0  0
 30 31  1  0  0  0
 32 37  1  0  0  0
 33 36  1  0  0  0
 34 38  1  0  0  0
 35 39  2  0  0  0
 36 37  2  0  0  0
 38 40  2  0  0  0
 39 40  1  0  0  0
M  END
>  <CHROM.0>
-65.23048623,179.73916438,59.03044996

>  <CHROM.1>
-28.62093390,-168.49428928,-141.87534785,-10.86045293,-27.97186602,-2.64011146
-86.79926386,21.41330907,149.60092402,-48.92680628,-2.98380190,17.83864853
-1.05499398,0.58003277,2.39564420

>  <Name>
5281600

>  <PUBCHEM_ATOM_DEF_STEREO_COUNT>
0

>  <PUBCHEM_ATOM_UDEF_STEREO_COUNT>
0

>  <PUBCHEM_BOND_DEF_STEREO_COUNT>
0

>  <PUBCHEM_BOND_UDEF_STEREO_COUNT>
0

>  <PUBCHEM_CACTVS_TAUTO_COUNT>
994

>  <PUBCHEM_COMPONENT_COUNT>
1

>  <PUBCHEM_COMPOUND_CID>
5281600

>  <PUBCHEM_CONFORMER_DIVERSEORDER>
1
12
7
6
5
11
9
4
8
3
2
10

>  <PUBCHEM_CONFORMER_ID>
0050974000000001

>  <PUBCHEM_CONFORMER_RMSD>
0.8

>  <PUBCHEM_COORDINATE_TYPE>
2
5
10

>  <PUBCHEM_EFFECTIVE_ROTOR_COUNT>
3

>  <PUBCHEM_FEATURE_SELFOVERLAP>
81.26

>  <PUBCHEM_HEAVY_ATOM_COUNT>
40

>  <PUBCHEM_ISOTOPIC_ATOM_COUNT>
0

>  <PUBCHEM_MMFF94_ENERGY>
134.7783

>  <PUBCHEM_MMFF94_PARTIAL_CHARGES>
56
1 -0.16
10 -0.53
12 0.08
14 0.09
15 0.03
16 -0.15
17 0.08
18 0.08
19 0.08
2 -0.16
20 0.05
21 -0.15
22 0.05
23 0.47
24 -0.15
25 -0.15
26 -0.14
27 0.09
28 0.08
29 0.03
3 -0.53
30 -0.14
31 0.47
32 0.08
33 -0.15
34 -0.15
35 -0.15
36 0.08
37 -0.15
38 -0.15
39 -0.15
4 -0.53
40 0.08
41 0.15
42 0.15
43 0.15
44 0.15
45 0.15
46 0.15
47 0.15
48 0.15
49 0.15
5 -0.53
50 0.45
51 0.15
52 0.45
53 0.45
54 0.15
55 0.15
56 0.45
57 0.45
58 0.45
6 -0.57
7 -0.53
8 -0.57
9 -0.53

>  <PUBCHEM_PHARMACOPHORE_FEATURES>
16
1 1 acceptor
1 10 donor
1 2 acceptor
1 3 donor
1 4 donor
1 5 donor
1 6 acceptor
1 7 donor
1 8 acceptor
1 9 donor
6 1 12 14 22 23 26 rings
6 11 12 14 17 19 21 rings
6 13 15 16 18 24 25 rings
6 2 20 27 28 30 31 rings
6 27 28 32 33 36 37 rings
6 29 34 35 38 39 40 rings

>  <PUBCHEM_SHAPE_FINGERPRINT>
10074138 170 18272931639651384535
10462674 125 17618475011381580750
10622 236 18044087084485364727
10928967 22 18186794777961395306
11135926 11 16589159410442702964
11434127 23 16988854868850209122
11552529 35 18337099142617264300
12128747 34 17416426289408154158
12422481 6 17970917660810484883
12559416 138 17458053868550942330
131258 38 17040625661602271054
14040221 299 18130520668696863620
14068700 675 18126558149519363943
14395042 24 18339370777318689755
14674994 50 18189596350705326935
14705955 166 17345771702192931481
14856354 85 18343864420652166036
14950920 106 18341324578619618192
15320294 125 18260278451476051767
15361156 5 15359116841693389420
15484559 13 15440400299685403118
16728300 4 17967823739013222547
19319366 153 16671943977149260761
20554085 129 18057606456813237473
20775530 9 17974003148226375983
21033648 29 17986692393200921257
21133410 221 17108453988390366882
23516275 137 17830492447455348050
3882209 13 17628068207685272503
4394409 98 18410292537089562351
44880168 125 18338798914801616118
484985 159 18337095835418697607
50080093 196 18113889468875184482
5085150 59 18337387146281907241
5171179 24 16967460284478114997
581034 39 18412830166090923426

>  <PUBCHEM_SHAPE_MULTIPOLES>
764.49
14.59
6.24
3.18
25.21
8.64
-0.18
2.69
-10.24
-12.46
1.99
1.74
-0.93
-5.25

>  <PUBCHEM_SHAPE_SELFOVERLAP>
1749.357

>  <PUBCHEM_SHAPE_VOLUME>
392.9

>  <RI>
-1.12089e+09

>  <Rbt.Current_Directory>
/root/miniconda3/envs/rdock/share/rxdock-2013.1.1_148c5bd1-0/data/ligands/prepped_ligands/Amentoflavone

>  <Rbt.Executable>
rbdock/0.1.0

>  <Rbt.Library>
librxdock.so/0.1.0

>  <Rbt.Parameter_File>
/root/miniconda3/envs/rdock/share/rxdock-2013.1.1_148c5bd1-0/data/scripts/dock.prm

>  <Rbt.Receptor>
def.prm

>  <SCORE>
-13.5539

>  <SCORE.INTER>
-14.3908

>  <SCORE.INTER.CONST>
1

>  <SCORE.INTER.POLAR>
-0.950971

>  <SCORE.INTER.REPUL>
0.172291

>  <SCORE.INTER.ROT>
3

>  <SCORE.INTER.VDW>
-20.419

>  <SCORE.INTER.norm>
-0.359771

>  <SCORE.INTRA>
1.28414

>  <SCORE.INTRA.DIHEDRAL>
3.75577

>  <SCORE.INTRA.DIHEDRAL.0>
7.26727

>  <SCORE.INTRA.POLAR>
0

>  <SCORE.INTRA.POLAR.0>
0

>  <SCORE.INTRA.REPUL>
0

>  <SCORE.INTRA.REPUL.0>
0

>  <SCORE.INTRA.VDW>
-0.593743

>  <SCORE.INTRA.VDW.0>
0.367007

>  <SCORE.INTRA.norm>
0.0321035

>  <SCORE.RESTR>
0.571862

>  <SCORE.RESTR.CAVITY>
0.571862

>  <SCORE.RESTR.norm>
0.0142966

>  <SCORE.SYSTEM>
-1.01907

>  <SCORE.SYSTEM.CONST>
0

>  <SCORE.SYSTEM.DIHEDRAL>
0.0745429

>  <SCORE.SYSTEM.VDW>
-1.05634

>  <SCORE.SYSTEM.norm>
-0.0254768

>  <SCORE.heavy>
40

>  <SCORE.norm>
-0.338848

$$$$
5281600
  RxDock  02242101503D
librxdock.so/0.1.0
 46 51  0  0  0  0  0  0  0  0999 V2000
  -47.3392   -1.1940   17.4741 O   0  0  0  0  0  0
  -51.6674   -3.4980   18.4792 O   0  0  0  0  0  0
  -45.9551   -0.8149   22.0191 O   0  0  0  0  0  0
  -48.0242    0.5704   21.6598 O   0  0  0  0  0  0
  -42.7405   -0.1607   18.6048 O   0  0  0  0  0  0
  -43.5776   -0.3936   16.1291 O   0  0  0  0  0  0
  -52.7146   -8.1655   17.6963 O   0  0  0  0  0  0
  -50.8433   -7.3887   19.3635 O   0  0  0  0  0  0
  -55.0813   -4.7343   15.4202 O   0  0  0  0  0  0
  -51.4588   -2.2026   12.7847 O   0  0  0  0  0  0
  -46.6551   -1.0055   19.7260 C   0  0  0  0  0  0
  -46.3285   -0.9561   18.3706 C   0  0  0  0  0  0
  -48.0142   -1.2982   20.1480 C   0  0  0  0  0  0
  -45.0207   -0.6750   17.9790 C   0  0  0  0  0  0
  -49.9800   -2.6875   19.9835 C   0  0  0  0  0  0
  -48.6755   -2.3898   19.5896 C   0  0  0  0  0  0
  -45.6697   -0.7726   20.6858 C   0  0  0  0  0  0
  -48.6507   -0.5025   21.0980 C   0  0  0  0  0  0
  -44.0312   -0.4414   18.9367 C   0  0  0  0  0  0
  -50.6849   -3.8437   19.3945 C   0  0  0  0  0  0
  -44.3608   -0.4910   20.2917 C   0  0  0  0  0  0
  -47.0457   -1.1448   16.1197 C   0  0  0  0  0  0
  -44.7038   -0.6309   16.5435 C   0  0  0  0  0  0
  -50.6197   -1.8929   20.9348 C   0  0  0  0  0  0
  -49.9553   -0.8002   21.4919 C   0  0  0  0  0  0
  -45.8260   -0.8915   15.6194 C   0  0  0  0  0  0
  -52.1475   -5.8530   18.1287 C   0  0  0  0  0  0
  -52.3770   -4.5025   17.8713 C   0  0  0  0  0  0
  -48.2028   -1.4215   15.2448 C   0  0  0  0  0  0
  -50.3668   -5.1065   19.7208 C   0  0  0  0  0  0
  -51.1001   -6.2239   19.0923 C   0  0  0  0  0  0
  -52.9007   -6.8338   17.4795 C   0  0  0  0  0  0
  -53.3635   -4.1241   16.9603 C   0  0  0  0  0  0
  -48.0413   -2.1917   14.0905 C   0  0  0  0  0  0
  -49.4640   -0.9151   15.5680 C   0  0  0  0  0  0
  -54.1181   -5.1006   16.3100 C   0  0  0  0  0  0
  -53.8872   -6.4525   16.5691 C   0  0  0  0  0  0
  -49.1343   -2.4537   13.2643 C   0  0  0  0  0  0
  -50.5571   -1.1773   14.7421 C   0  0  0  0  0  0
  -50.3922   -1.9466   13.5902 C   0  0  0  0  0  0
  -46.7327   -0.2588   22.1975 H   0  0  0  0  0  0
  -48.6902    1.1542   22.0615 H   0  0  0  0  0  0
  -42.2180    0.0274   19.3994 H   0  0  0  0  0  0
  -51.9092   -8.3165   18.2146 H   0  0  0  0  0  0
  -55.4386   -5.5331   14.9954 H   0  0  0  0  0  0
  -52.2769   -2.0834   13.2975 H   0  0  0  0  0  0
  1 12  1  0  0  0
  1 22  1  0  0  0
  2 20  1  0  0  0
  2 28  1  0  0  0
  3 17  1  0  0  0
  3 41  1  0  0  0
  4 18  1  0  0  0
  4 42  1  0  0  0
  5 19  1  0  0  0
  5 43  1  0  0  0
  6 23  2  0  0  0
  7 32  1  0  0  0
  7 44  1  0  0  0
  8 31  2  0  0  0
  9 36  1  0  0  0
  9 45  1  0  0  0
 10 40  1  0  0  0
 10 46  1  0  0  0
 11 12  1  0  0  0
 11 13  1  0  0  0
 11 17  2  0  0  0
 12 14  2  0  0  0
 13 16  1  0  0  0
 13 18  2  0  0  0
 14 19  1  0  0  0
 14 23  1  0  0  0
 15 16  2  0  0  0
 15 20  1  0  0  0
 15 24  1  0  0  0
 17 21  1  0  0  0
 18 25  1  0  0  0
 19 21  2  0  0  0
 20 30  2  0  0  0
 22 26  2  0  0  0
 22 29  1  0  0  0
 23 26  1  0  0  0
 24 25  2  0  0  0
 27 28  1  0  0  0
 27 31  1  0  0  0
 27 32  2  0  0  0
 28 33  2  0  0  0
 29 34  2  0  0  0
 29 35  1  0  0  0
 30 31  1  0  0  0
 32 37  1  0  0  0
 33 36  1  0  0  0
 34 38  1  0  0  0
 35 39  2  0  0  0
 36 37  2  0  0  0
 38 40  2  0  0  0
 39 40  1  0  0  0
M  END
>  <CHROM.0>
-50.51327982,61.22227908,58.59267561

>  <CHROM.1>
-50.45219976,161.90853143,176.27218434,-10.27551031,174.04029113,158.83443667
48.66107820,-106.11291078,-140.29644283,-49.05077575,-2.58042787,17.88029987
-0.14608437,-0.60073832,-1.45121086

>  <Name>
5281600

>  <PUBCHEM_ATOM_DEF_STEREO_COUNT>
0

>  <PUBCHEM_ATOM_UDEF_STEREO_COUNT>
0

>  <PUBCHEM_BOND_DEF_STEREO_COUNT>
0

>  <PUBCHEM_BOND_UDEF_STEREO_COUNT>
0

>  <PUBCHEM_CACTVS_TAUTO_COUNT>
994

>  <PUBCHEM_COMPONENT_COUNT>
1

>  <PUBCHEM_COMPOUND_CID>
5281600

>  <PUBCHEM_CONFORMER_DIVERSEORDER>
1
12
7
6
5
11
9
4
8
3
2
10

>  <PUBCHEM_CONFORMER_ID>
0050974000000001

>  <PUBCHEM_CONFORMER_RMSD>
0.8

>  <PUBCHEM_COORDINATE_TYPE>
2
5
10

>  <PUBCHEM_EFFECTIVE_ROTOR_COUNT>
3

>  <PUBCHEM_FEATURE_SELFOVERLAP>
81.26

>  <PUBCHEM_HEAVY_ATOM_COUNT>
40

>  <PUBCHEM_ISOTOPIC_ATOM_COUNT>
0

>  <PUBCHEM_MMFF94_ENERGY>
134.7783

>  <PUBCHEM_MMFF94_PARTIAL_CHARGES>
56
1 -0.16
10 -0.53
12 0.08
14 0.09
15 0.03
16 -0.15
17 0.08
18 0.08
19 0.08
2 -0.16
20 0.05
21 -0.15
22 0.05
23 0.47
24 -0.15
25 -0.15
26 -0.14
27 0.09
28 0.08
29 0.03
3 -0.53
30 -0.14
31 0.47
32 0.08
33 -0.15
34 -0.15
35 -0.15
36 0.08
37 -0.15
38 -0.15
39 -0.15
4 -0.53
40 0.08
41 0.15
42 0.15
43 0.15
44 0.15
45 0.15
46 0.15
47 0.15
48 0.15
49 0.15
5 -0.53
50 0.45
51 0.15
52 0.45
53 0.45
54 0.15
55 0.15
56 0.45
57 0.45
58 0.45
6 -0.57
7 -0.53
8 -0.57
9 -0.53

>  <PUBCHEM_PHARMACOPHORE_FEATURES>
16
1 1 acceptor
1 10 donor
1 2 acceptor
1 3 donor
1 4 donor
1 5 donor
1 6 acceptor
1 7 donor
1 8 acceptor
1 9 donor
6 1 12 14 22 23 26 rings
6 11 12 14 17 19 21 rings
6 13 15 16 18 24 25 rings
6 2 20 27 28 30 31 rings
6 27 28 32 33 36 37 rings
6 29 34 35 38 39 40 rings

>  <PUBCHEM_SHAPE_FINGERPRINT>
10074138 170 18272931639651384535
10462674 125 17618475011381580750
10622 236 18044087084485364727
10928967 22 18186794777961395306
11135926 11 16589159410442702964
11434127 23 16988854868850209122
11552529 35 18337099142617264300
12128747 34 17416426289408154158
12422481 6 17970917660810484883
12559416 138 17458053868550942330
131258 38 17040625661602271054
14040221 299 18130520668696863620
14068700 675 18126558149519363943
14395042 24 18339370777318689755
14674994 50 18189596350705326935
14705955 166 17345771702192931481
14856354 85 18343864420652166036
14950920 106 18341324578619618192
15320294 125 18260278451476051767
15361156 5 15359116841693389420
15484559 13 15440400299685403118
16728300 4 17967823739013222547
19319366 153 16671943977149260761
20554085 129 18057606456813237473
20775530 9 17974003148226375983
21033648 29 17986692393200921257
21133410 221 17108453988390366882
23516275 137 17830492447455348050
3882209 13 17628068207685272503
4394409 98 18410292537089562351
44880168 125 18338798914801616118
484985 159 18337095835418697607
50080093 196 18113889468875184482
5085150 59 18337387146281907241
5171179 24 16967460284478114997
581034 39 18412830166090923426

>  <PUBCHEM_SHAPE_MULTIPOLES>
764.49
14.59
6.24
3.18
25.21
8.64
-0.18
2.69
-10.24
-12.46
1.99
1.74
-0.93
-5.25

>  <PUBCHEM_SHAPE_SELFOVERLAP>
1749.357

>  <PUBCHEM_SHAPE_VOLUME>
392.9

>  <RI>
-1.12089e+09

>  <Rbt.Current_Directory>
/root/miniconda3/envs/rdock/share/rxdock-2013.1.1_148c5bd1-0/data/ligands/prepped_ligands/Amentoflavone

>  <Rbt.Executable>
rbdock/0.1.0

>  <Rbt.Library>
librxdock.so/0.1.0

>  <Rbt.Parameter_File>
/root/miniconda3/envs/rdock/share/rxdock-2013.1.1_148c5bd1-0/data/scripts/dock.prm

>  <Rbt.Receptor>
def.prm

>  <SCORE>
-8.80276

>  <SCORE.INTER>
-8.87031

>  <SCORE.INTER.CONST>
1

>  <SCORE.INTER.POLAR>
0

>  <SCORE.INTER.REPUL>
0.0339429

>  <SCORE.INTER.ROT>
3

>  <SCORE.INTER.VDW>
-17.44

>  <SCORE.INTER.norm>
-0.221758

>  <SCORE.INTRA>
0.20401

>  <SCORE.INTRA.DIHEDRAL>
5.9274

>  <SCORE.INTRA.DIHEDRAL.0>
7.26727

>  <SCORE.INTRA.POLAR>
-0.931942

>  <SCORE.INTRA.POLAR.0>
0

>  <SCORE.INTRA.REPUL>
0

>  <SCORE.INTRA.REPUL.0>
0

>  <SCORE.INTRA.VDW>
0.408911

>  <SCORE.INTRA.VDW.0>
0.367007

>  <SCORE.INTRA.norm>
0.00510025

>  <SCORE.RESTR>
0.719096

>  <SCORE.RESTR.CAVITY>
0.719096

>  <SCORE.RESTR.norm>
0.0179774

>  <SCORE.SYSTEM>
-0.855556

>  <SCORE.SYSTEM.CONST>
0

>  <SCORE.SYSTEM.DIHEDRAL>
0.224396

>  <SCORE.SYSTEM.VDW>
-0.967754

>  <SCORE.SYSTEM.norm>
-0.0213889

>  <SCORE.heavy>
40

>  <SCORE.norm>
-0.220069

$$$$
5281600
  RxDock  02242101503D
librxdock.so/0.1.0
 46 51  0  0  0  0  0  0  0  0999 V2000
  -47.9640   -1.4341   18.5727 O   0  0  0  0  0  0
  -51.2252   -4.1833   15.4121 O   0  0  0  0  0  0
  -44.2147   -2.2070   15.7334 O   0  0  0  0  0  0
  -45.9138   -0.8923   14.4817 O   0  0  0  0  0  0
  -43.4504   -0.5507   20.1029 O   0  0  0  0  0  0
  -45.5648   -0.1437   21.6022 O   0  0  0  0  0  0
  -53.1461   -8.2933   17.1192 O   0  0  0  0  0  0
  -50.5737   -7.7832   17.2052 O   0  0  0  0  0  0
  -55.9040   -4.9533   15.1714 O   0  0  0  0  0  0
  -54.1036   -1.3009   20.0776 O   0  0  0  0  0  0
  -46.1074   -1.8184   17.1654 C   0  0  0  0  0  0
  -46.6034   -1.4003   18.4005 C   0  0  0  0  0  0
  -47.0113   -2.2666   16.1200 C   0  0  0  0  0  0
  -45.7257   -0.9719   19.3949 C   0  0  0  0  0  0
  -48.8904   -3.6228   15.4479 C   0  0  0  0  0  0
  -48.0121   -3.1822   16.4379 C   0  0  0  0  0  0
  -44.7323   -1.8063   16.9302 C   0  0  0  0  0  0
  -46.8842   -1.7895   14.8174 C   0  0  0  0  0  0
  -44.3483   -0.9580   19.1633 C   0  0  0  0  0  0
  -49.9528   -4.5931   15.7801 C   0  0  0  0  0  0
  -43.8550   -1.3771   17.9272 C   0  0  0  0  0  0
  -48.4856   -1.0308   19.7926 C   0  0  0  0  0  0
  -46.2759   -0.5348   20.6869 C   0  0  0  0  0  0
  -48.7658   -3.1466   14.1429 C   0  0  0  0  0  0
  -47.7625   -2.2301   13.8274 C   0  0  0  0  0  0
  -47.7454   -0.5921   20.8231 C   0  0  0  0  0  0
  -52.1299   -6.2618   16.2846 C   0  0  0  0  0  0
  -52.2819   -5.0184   15.6732 C   0  0  0  0  0  0
  -49.9587   -1.1010   19.8678 C   0  0  0  0  0  0
  -49.6778   -5.7683   16.3680 C   0  0  0  0  0  0
  -50.7806   -6.7037   16.6683 C   0  0  0  0  0  0
  -53.2424   -7.0712   16.5255 C   0  0  0  0  0  0
  -53.5508   -4.5765   15.2978 C   0  0  0  0  0  0
  -50.7418   -0.4540   18.9087 C   0  0  0  0  0  0
  -50.5756   -1.8153   20.8977 C   0  0  0  0  0  0
  -54.6644   -5.3819   15.5369 C   0  0  0  0  0  0
  -54.5104   -6.6265   16.1495 C   0  0  0  0  0  0
  -52.1334   -0.5208   18.9792 C   0  0  0  0  0  0
  -51.9671   -1.8823   20.9682 C   0  0  0  0  0  0
  -52.7460   -1.2350   20.0089 C   0  0  0  0  0  0
  -43.4846   -2.8293   15.8930 H   0  0  0  0  0  0
  -45.8481   -0.8411   13.5128 H   0  0  0  0  0  0
  -43.8990   -0.0744   20.8182 H   0  0  0  0  0  0
  -52.2965   -8.7090   16.9063 H   0  0  0  0  0  0
  -56.5715   -5.5163   15.5999 H   0  0  0  0  0  0
  -54.3555   -2.0917   20.5850 H   0  0  0  0  0  0
  1 12  1  0  0  0
  1 22  1  0  0  0
  2 20  1  0  0  0
  2 28  1  0  0  0
  3 17  1  0  0  0
  3 41  1  0  0  0
  4 18  1  0  0  0
  4 42  1  0  0  0
  5 19  1  0  0  0
  5 43  1  0  0  0
  6 23  2  0  0  0
  7 32  1  0  0  0
  7 44  1  0  0  0
  8 31  2  0  0  0
  9 36  1  0  0  0
  9 45  1  0  0  0
 10 40  1  0  0  0
 10 46  1  0  0  0
 11 12  1  0  0  0
 11 13  1  0  0  0
 11 17  2  0  0  0
 12 14  2  0  0  0
 13 16  1  0  0  0
 13 18  2  0  0  0
 14 19  1  0  0  0
 14 23  1  0  0  0
 15 16  2  0  0  0
 15 20  1  0  0  0
 15 24  1  0  0  0
 17 21  1  0  0  0
 18 25  1  0  0  0
 19 21  2  0  0  0
 20 30  2  0  0  0
 22 26  2  0  0  0
 22 29  1  0  0  0
 23 26  1  0  0  0
 24 25  2  0  0  0
 27 28  1  0  0  0
 27 31  1  0  0  0
 27 32  2  0  0  0
 28 33  2  0  0  0
 29 34  2  0  0  0
 29 35  1  0  0  0
 30 31  1  0  0  0
 32 37  1  0  0  0
 33 36  1  0  0  0
 34 38  1  0  0  0
 35 39  2  0  0  0
 36 37  2  0  0  0
 38 40  2  0  0  0
 39 40  1  0  0  0
M  END
>  <CHROM.0>
-168.79341516,-63.87505475,-71.45475134

>  <CHROM.1>
-131.61238236,166.74025286,-14.78156610,-30.95830887,-166.08055463,156.80380237
-47.64448866,126.41198538,-54.18191318,-49.31267649,-2.95335604,17.51224165
0.49812867,0.30654171,0.94363435

>  <Name>
5281600

>  <PUBCHEM_ATOM_DEF_STEREO_COUNT>
0

>  <PUBCHEM_ATOM_UDEF_STEREO_COUNT>
0

>  <PUBCHEM_BOND_DEF_STEREO_COUNT>
0

>  <PUBCHEM_BOND_UDEF_STEREO_COUNT>
0

>  <PUBCHEM_CACTVS_TAUTO_COUNT>
994

>  <PUBCHEM_COMPONENT_COUNT>
1

>  <PUBCHEM_COMPOUND_CID>
5281600

>  <PUBCHEM_CONFORMER_DIVERSEORDER>
1
12
7
6
5
11
9
4
8
3
2
10

>  <PUBCHEM_CONFORMER_ID>
0050974000000001

>  <PUBCHEM_CONFORMER_RMSD>
0.8

>  <PUBCHEM_COORDINATE_TYPE>
2
5
10

>  <PUBCHEM_EFFECTIVE_ROTOR_COUNT>
3

>  <PUBCHEM_FEATURE_SELFOVERLAP>
81.26

>  <PUBCHEM_HEAVY_ATOM_COUNT>
40

>  <PUBCHEM_ISOTOPIC_ATOM_COUNT>
0

>  <PUBCHEM_MMFF94_ENERGY>
134.7783

>  <PUBCHEM_MMFF94_PARTIAL_CHARGES>
56
1 -0.16
10 -0.53
12 0.08
14 0.09
15 0.03
16 -0.15
17 0.08
18 0.08
19 0.08
2 -0.16
20 0.05
21 -0.15
22 0.05
23 0.47
24 -0.15
25 -0.15
26 -0.14
27 0.09
28 0.08
29 0.03
3 -0.53
30 -0.14
31 0.47
32 0.08
33 -0.15
34 -0.15
35 -0.15
36 0.08
37 -0.15
38 -0.15
39 -0.15
4 -0.53
40 0.08
41 0.15
42 0.15
43 0.15
44 0.15
45 0.15
46 0.15
47 0.15
48 0.15
49 0.15
5 -0.53
50 0.45
51 0.15
52 0.45
53 0.45
54 0.15
55 0.15
56 0.45
57 0.45
58 0.45
6 -0.57
7 -0.53
8 -0.57
9 -0.53

>  <PUBCHEM_PHARMACOPHORE_FEATURES>
16
1 1 acceptor
1 10 donor
1 2 acceptor
1 3 donor
1 4 donor
1 5 donor
1 6 acceptor
1 7 donor
1 8 acceptor
1 9 donor
6 1 12 14 22 23 26 rings
6 11 12 14 17 19 21 rings
6 13 15 16 18 24 25 rings
6 2 20 27 28 30 31 rings
6 27 28 32 33 36 37 rings
6 29 34 35 38 39 40 rings

>  <PUBCHEM_SHAPE_FINGERPRINT>
10074138 170 18272931639651384535
10462674 125 17618475011381580750
10622 236 18044087084485364727
10928967 22 18186794777961395306
11135926 11 16589159410442702964
11434127 23 16988854868850209122
11552529 35 18337099142617264300
12128747 34 17416426289408154158
12422481 6 17970917660810484883
12559416 138 17458053868550942330
131258 38 17040625661602271054
14040221 299 18130520668696863620
14068700 675 18126558149519363943
14395042 24 18339370777318689755
14674994 50 18189596350705326935
14705955 166 17345771702192931481
14856354 85 18343864420652166036
14950920 106 18341324578619618192
15320294 125 18260278451476051767
15361156 5 15359116841693389420
15484559 13 15440400299685403118
16728300 4 17967823739013222547
19319366 153 16671943977149260761
20554085 129 18057606456813237473
20775530 9 17974003148226375983
21033648 29 17986692393200921257
21133410 221 17108453988390366882
23516275 137 17830492447455348050
3882209 13 17628068207685272503
4394409 98 18410292537089562351
44880168 125 18338798914801616118
484985 159 18337095835418697607
50080093 196 18113889468875184482
5085150 59 18337387146281907241
5171179 24 16967460284478114997
581034 39 18412830166090923426

>  <PUBCHEM_SHAPE_MULTIPOLES>
764.49
14.59
6.24
3.18
25.21
8.64
-0.18
2.69
-10.24
-12.46
1.99
1.74
-0.93
-5.25

>  <PUBCHEM_SHAPE_SELFOVERLAP>
1749.357

>  <PUBCHEM_SHAPE_VOLUME>
392.9

>  <RI>
-1.12089e+09

>  <Rbt.Current_Directory>
/root/miniconda3/envs/rdock/share/rxdock-2013.1.1_148c5bd1-0/data/ligands/prepped_ligands/Amentoflavone

>  <Rbt.Executable>
rbdock/0.1.0

>  <Rbt.Library>
librxdock.so/0.1.0

>  <Rbt.Parameter_File>
/root/miniconda3/envs/rdock/share/rxdock-2013.1.1_148c5bd1-0/data/scripts/dock.prm

>  <Rbt.Receptor>
def.prm

>  <SCORE>
-15.7064

>  <SCORE.INTER>
-19.3515

>  <SCORE.INTER.CONST>
1

>  <SCORE.INTER.POLAR>
-1.29235

>  <SCORE.INTER.REPUL>
0.106945

>  <SCORE.INTER.ROT>
3

>  <SCORE.INTER.VDW>
-23.8922

>  <SCORE.INTER.norm>
-0.483786

>  <SCORE.INTRA>
3.14608

>  <SCORE.INTRA.DIHEDRAL>
7.24098

>  <SCORE.INTRA.DIHEDRAL.0>
7.26727

>  <SCORE.INTRA.POLAR>
0

>  <SCORE.INTRA.POLAR.0>
0

>  <SCORE.INTRA.REPUL>
0

>  <SCORE.INTRA.REPUL.0>
0

>  <SCORE.INTRA.VDW>
-0.474411

>  <SCORE.INTRA.VDW.0>
0.367007

>  <SCORE.INTRA.norm>
0.078652

>  <SCORE.RESTR>
1.18934

>  <SCORE.RESTR.CAVITY>
1.18934

>  <SCORE.RESTR.norm>
0.0297334

>  <SCORE.SYSTEM>
-0.690347

>  <SCORE.SYSTEM.CONST>
0

>  <SCORE.SYSTEM.DIHEDRAL>
0.690237

>  <SCORE.SYSTEM.VDW>
-1.03547

>  <SCORE.SYSTEM.norm>
-0.0172587

>  <SCORE.heavy>
40

>  <SCORE.norm>
-0.39266

$$$$
5281600
  RxDock  02242101503D
librxdock.so/0.1.0
 46 51  0  0  0  0  0  0  0  0999 V2000
  -46.7103   -0.5721   18.8514 O   0  0  0  0  0  0
  -48.7602   -5.0713   16.8451 O   0  0  0  0  0  0
  -42.9106   -3.1996   17.6789 O   0  0  0  0  0  0
  -43.6945   -1.4627   15.6930 O   0  0  0  0  0  0
  -42.8252   -0.7712   21.7428 O   0  0  0  0  0  0
  -44.9506    0.6572   22.3142 O   0  0  0  0  0  0
  -53.4996   -5.6744   16.0267 O   0  0  0  0  0  0
  -52.1274   -3.6744   15.0260 O   0  0  0  0  0  0
  -51.0973   -8.7439   18.7401 O   0  0  0  0  0  0
  -52.4868    1.8695   18.0378 O   0  0  0  0  0  0
  -44.8290   -1.8750   18.2698 C   0  0  0  0  0  0
  -45.4511   -1.0119   19.1722 C   0  0  0  0  0  0
  -45.5043   -2.2782   17.0482 C   0  0  0  0  0  0
  -44.7922   -0.6321   20.3402 C   0  0  0  0  0  0
  -47.4182   -3.2806   15.9738 C   0  0  0  0  0  0
  -46.7537   -2.8881   17.1359 C   0  0  0  0  0  0
  -43.5477   -2.3556   18.5408 C   0  0  0  0  0  0
  -44.9157   -2.0588   15.8048 C   0  0  0  0  0  0
  -43.5091   -1.1109   20.6151 C   0  0  0  0  0  0
  -48.7427   -3.9274   16.0617 C   0  0  0  0  0  0
  -42.8895   -1.9744   19.7110 C   0  0  0  0  0  0
  -47.3563    0.2815   19.7328 C   0  0  0  0  0  0
  -45.4706    0.2804   21.2731 C   0  0  0  0  0  0
  -46.8315   -3.0619   14.7275 C   0  0  0  0  0  0
  -45.5802   -2.4512   14.6428 C   0  0  0  0  0  0
  -46.8247    0.7231   20.8836 C   0  0  0  0  0  0
  -51.1347   -5.3215   16.3990 C   0  0  0  0  0  0
  -49.9469   -5.7433   16.9941 C   0  0  0  0  0  0
  -48.7016    0.6974   19.2877 C   0  0  0  0  0  0
  -49.8202   -3.4182   15.4436 C   0  0  0  0  0  0
  -51.1220   -4.1035   15.5748 C   0  0  0  0  0  0
  -52.3144   -6.0454   16.5861 C   0  0  0  0  0  0
  -49.9323   -6.8944   17.7822 C   0  0  0  0  0  0
  -49.8315    0.0013   19.7241 C   0  0  0  0  0  0
  -48.8503    1.7892   18.4290 C   0  0  0  0  0  0
  -51.1085   -7.6203   17.9713 C   0  0  0  0  0  0
  -52.2968   -7.1966   17.3744 C   0  0  0  0  0  0
  -51.1023    0.3945   19.3044 C   0  0  0  0  0  0
  -50.1210    2.1827   18.0093 C   0  0  0  0  0  0
  -51.2471    1.4853   18.4470 C   0  0  0  0  0  0
  -42.9234   -2.8144   16.7861 H   0  0  0  0  0  0
  -43.5667   -1.1671   14.7753 H   0  0  0  0  0  0
  -43.2507   -0.0211   22.1857 H   0  0  0  0  0  0
  -54.2282   -6.1974   16.3951 H   0  0  0  0  0  0
  -51.9956   -8.9049   19.0766 H   0  0  0  0  0  0
  -53.1353    1.6181   18.7180 H   0  0  0  0  0  0
  1 12  1  0  0  0
  1 22  1  0  0  0
  2 20  1  0  0  0
  2 28  1  0  0  0
  3 17  1  0  0  0
  3 41  1  0  0  0
  4 18  1  0  0  0
  4 42  1  0  0  0
  5 19  1  0  0  0
  5 43  1  0  0  0
  6 23  2  0  0  0
  7 32  1  0  0  0
  7 44  1  0  0  0
  8 31  2  0  0  0
  9 36  1  0  0  0
  9 45  1  0  0  0
 10 40  1  0  0  0
 10 46  1  0  0  0
 11 12  1  0  0  0
 11 13  1  0  0  0
 11 17  2  0  0  0
 12 14  2  0  0  0
 13 16  1  0  0  0
 13 18  2  0  0  0
 14 19  1  0  0  0
 14 23  1  0  0  0
 15 16  2  0  0  0
 15 20  1  0  0  0
 15 24  1  0  0  0
 17 21  1  0  0  0
 18 25  1  0  0  0
 19 21  2  0  0  0
 20 30  2  0  0  0
 22 26  2  0  0  0
 22 29  1  0  0  0
 23 26  1  0  0  0
 24 25  2  0  0  0
 27 28  1  0  0  0
 27 31  1  0  0  0
 27 32  2  0  0  0
 28 33  2  0  0  0
 29 34  2  0  0  0
 29 35  1  0  0  0
 30 31  1  0  0  0
 32 37  1  0  0  0
 33 36  1  0  0  0
 34 38  1  0  0  0
 35 39  2  0  0  0
 36 37  2  0  0  0
 38 40  2  0  0  0
 39 40  1  0  0  0
M  END
>  <CHROM.0>
-68.24740349,-61.84234035,-178.59437852

>  <CHROM.1>
51.92140071,-163.87557657,-13.37626476,-169.67876061,156.16342320,27.79138692
-56.41370976,-56.53870238,94.69287832,-47.93744193,-2.37076826,17.96187394
0.71037621,-0.11697091,0.39042502

>  <Name>
5281600

>  <PUBCHEM_ATOM_DEF_STEREO_COUNT>
0

>  <PUBCHEM_ATOM_UDEF_STEREO_COUNT>
0

>  <PUBCHEM_BOND_DEF_STEREO_COUNT>
0

>  <PUBCHEM_BOND_UDEF_STEREO_COUNT>
0

>  <PUBCHEM_CACTVS_TAUTO_COUNT>
994

>  <PUBCHEM_COMPONENT_COUNT>
1

>  <PUBCHEM_COMPOUND_CID>
5281600

>  <PUBCHEM_CONFORMER_DIVERSEORDER>
1
12
7
6
5
11
9
4
8
3
2
10

>  <PUBCHEM_CONFORMER_ID>
0050974000000001

>  <PUBCHEM_CONFORMER_RMSD>
0.8

>  <PUBCHEM_COORDINATE_TYPE>
2
5
10

>  <PUBCHEM_EFFECTIVE_ROTOR_COUNT>
3

>  <PUBCHEM_FEATURE_SELFOVERLAP>
81.26

>  <PUBCHEM_HEAVY_ATOM_COUNT>
40

>  <PUBCHEM_ISOTOPIC_ATOM_COUNT>
0

>  <PUBCHEM_MMFF94_ENERGY>
134.7783

>  <PUBCHEM_MMFF94_PARTIAL_CHARGES>
56
1 -0.16
10 -0.53
12 0.08
14 0.09
15 0.03
16 -0.15
17 0.08
18 0.08
19 0.08
2 -0.16
20 0.05
21 -0.15
22 0.05
23 0.47
24 -0.15
25 -0.15
26 -0.14
27 0.09
28 0.08
29 0.03
3 -0.53
30 -0.14
31 0.47
32 0.08
33 -0.15
34 -0.15
35 -0.15
36 0.08
37 -0.15
38 -0.15
39 -0.15
4 -0.53
40 0.08
41 0.15
42 0.15
43 0.15
44 0.15
45 0.15
46 0.15
47 0.15
48 0.15
49 0.15
5 -0.53
50 0.45
51 0.15
52 0.45
53 0.45
54 0.15
55 0.15
56 0.45
57 0.45
58 0.45
6 -0.57
7 -0.53
8 -0.57
9 -0.53

>  <PUBCHEM_PHARMACOPHORE_FEATURES>
16
1 1 acceptor
1 10 donor
1 2 acceptor
1 3 donor
1 4 donor
1 5 donor
1 6 acceptor
1 7 donor
1 8 acceptor
1 9 donor
6 1 12 14 22 23 26 rings
6 11 12 14 17 19 21 rings
6 13 15 16 18 24 25 rings
6 2 20 27 28 30 31 rings
6 27 28 32 33 36 37 rings
6 29 34 35 38 39 40 rings

>  <PUBCHEM_SHAPE_FINGERPRINT>
10074138 170 18272931639651384535
10462674 125 17618475011381580750
10622 236 18044087084485364727
10928967 22 18186794777961395306
11135926 11 16589159410442702964
11434127 23 16988854868850209122
11552529 35 18337099142617264300
12128747 34 17416426289408154158
12422481 6 17970917660810484883
12559416 138 17458053868550942330
131258 38 17040625661602271054
14040221 299 18130520668696863620
14068700 675 18126558149519363943
14395042 24 18339370777318689755
14674994 50 18189596350705326935
14705955 166 17345771702192931481
14856354 85 18343864420652166036
14950920 106 18341324578619618192
15320294 125 18260278451476051767
15361156 5 15359116841693389420
15484559 13 15440400299685403118
16728300 4 17967823739013222547
19319366 153 16671943977149260761
20554085 129 18057606456813237473
20775530 9 17974003148226375983
21033648 29 17986692393200921257
21133410 221 17108453988390366882
23516275 137 17830492447455348050
3882209 13 17628068207685272503
4394409 98 18410292537089562351
44880168 125 18338798914801616118
484985 159 18337095835418697607
50080093 196 18113889468875184482
5085150 59 18337387146281907241
5171179 24 16967460284478114997
581034 39 18412830166090923426

>  <PUBCHEM_SHAPE_MULTIPOLES>
764.49
14.59
6.24
3.18
25.21
8.64
-0.18
2.69
-10.24
-12.46
1.99
1.74
-0.93
-5.25

>  <PUBCHEM_SHAPE_SELFOVERLAP>
1749.357

>  <PUBCHEM_SHAPE_VOLUME>
392.9

>  <RI>
-1.12089e+09

>  <Rbt.Current_Directory>
/root/miniconda3/envs/rdock/share/rxdock-2013.1.1_148c5bd1-0/data/ligands/prepped_ligands/Amentoflavone

>  <Rbt.Executable>
rbdock/0.1.0

>  <Rbt.Library>
librxdock.so/0.1.0

>  <Rbt.Parameter_File>
/root/miniconda3/envs/rdock/share/rxdock-2013.1.1_148c5bd1-0/data/scripts/dock.prm

>  <Rbt.Receptor>
def.prm

>  <SCORE>
-16.3973

>  <SCORE.INTER>
-16.4252

>  <SCORE.INTER.CONST>
1

>  <SCORE.INTER.POLAR>
-0.169953

>  <SCORE.INTER.REPUL>
0.108097

>  <SCORE.INTER.ROT>
3

>  <SCORE.INTER.VDW>
-24.7879

>  <SCORE.INTER.norm>
-0.410631

>  <SCORE.INTRA>
0.529734

>  <SCORE.INTRA.DIHEDRAL>
9.79865

>  <SCORE.INTRA.DIHEDRAL.0>
7.26727

>  <SCORE.INTRA.POLAR>
-0.888105

>  <SCORE.INTRA.POLAR.0>
0

>  <SCORE.INTRA.REPUL>
0

>  <SCORE.INTRA.REPUL.0>
0

>  <SCORE.INTRA.VDW>
-1.35003

>  <SCORE.INTRA.VDW.0>
0.367007

>  <SCORE.INTRA.norm>
0.0132434

>  <SCORE.RESTR>
0.491898

>  <SCORE.RESTR.CAVITY>
0.491898

>  <SCORE.RESTR.norm>
0.0122975

>  <SCORE.SYSTEM>
-0.993665

>  <SCORE.SYSTEM.CONST>
0

>  <SCORE.SYSTEM.DIHEDRAL>
0.191805

>  <SCORE.SYSTEM.POLAR>
-0.0053331

>  <SCORE.SYSTEM.VDW>
-1.07144

>  <SCORE.SYSTEM.norm>
-0.0248416

>  <SCORE.heavy>
40

>  <SCORE.norm>
-0.409932

$$$$
5281600
  RxDock  02242101503D
librxdock.so/0.1.0
 46 51  0  0  0  0  0  0  0  0999 V2000
  -46.2607   -1.3659   17.5974 O   0  0  0  0  0  0
  -49.4897   -3.4970   19.9226 O   0  0  0  0  0  0
  -44.8023    0.5130   21.7276 O   0  0  0  0  0  0
  -46.6073    2.1249   20.2834 O   0  0  0  0  0  0
  -41.5414   -0.9428   18.6186 O   0  0  0  0  0  0
  -42.4228   -1.9725   16.3721 O   0  0  0  0  0  0
  -53.4584   -6.0225   21.0916 O   0  0  0  0  0  0
  -53.1390   -3.4987   21.7340 O   0  0  0  0  0  0
  -49.9056   -8.0630   18.6896 O   0  0  0  0  0  0
  -50.5276   -3.2937   13.3484 O   0  0  0  0  0  0
  -45.5396   -0.4340   19.6434 C   0  0  0  0  0  0
  -45.2176   -1.0026   18.4109 C   0  0  0  0  0  0
  -46.9274   -0.2436   20.0289 C   0  0  0  0  0  0
  -43.8822   -1.1804   18.0533 C   0  0  0  0  0  0
  -49.1054   -1.1883   20.4601 C   0  0  0  0  0  0
  -47.7703   -1.3512   20.0903 C   0  0  0  0  0  0
  -44.5219   -0.0445   20.5146 C   0  0  0  0  0  0
  -47.4126    1.0258   20.3350 C   0  0  0  0  0  0
  -42.8603   -0.7921   18.9228 C   0  0  0  0  0  0
  -50.0025   -2.3593   20.5268 C   0  0  0  0  0  0
  -43.1853   -0.2232   20.1547 C   0  0  0  0  0  0
  -45.9711   -1.9274   16.3630 C   0  0  0  0  0  0
  -43.5713   -1.7841   16.7487 C   0  0  0  0  0  0
  -49.5939    0.0815   20.7676 C   0  0  0  0  0  0
  -48.7477    1.1887   20.7048 C   0  0  0  0  0  0
  -44.7283   -2.1555   15.9094 C   0  0  0  0  0  0
  -51.5022   -4.7108   20.5359 C   0  0  0  0  0  0
  -50.2461   -4.6415   19.9357 C   0  0  0  0  0  0
  -47.1654   -2.2862   15.5721 C   0  0  0  0  0  0
  -51.1942   -2.3024   21.1423 C   0  0  0  0  0  0
  -52.0456   -3.5085   21.1857 C   0  0  0  0  0  0
  -52.2281   -5.9039   20.5193 C   0  0  0  0  0  0
  -49.7072   -5.7682   19.3141 C   0  0  0  0  0  0
  -48.0282   -3.2895   16.0201 C   0  0  0  0  0  0
  -47.4383   -1.6234   14.3731 C   0  0  0  0  0  0
  -50.4292   -6.9617   19.2952 C   0  0  0  0  0  0
  -51.6869   -7.0292   19.8965 C   0  0  0  0  0  0
  -49.1569   -3.6281   15.2734 C   0  0  0  0  0  0
  -48.5670   -1.9616   13.6265 C   0  0  0  0  0  0
  -49.4262   -2.9641   14.0767 C   0  0  0  0  0  0
  -45.3717    1.2907   21.5983 H   0  0  0  0  0  0
  -47.1601    2.9249   20.2664 H   0  0  0  0  0  0
  -41.3491   -1.8639   18.3853 H   0  0  0  0  0  0
  -53.8169   -5.1490   21.3117 H   0  0  0  0  0  0
  -49.0987   -7.8062   18.2110 H   0  0  0  0  0  0
  -51.3031   -3.3019   13.9357 H   0  0  0  0  0  0
  1 12  1  0  0  0
  1 22  1  0  0  0
  2 20  1  0  0  0
  2 28  1  0  0  0
  3 17  1  0  0  0
  3 41  1  0  0  0
  4 18  1  0  0  0
  4 42  1  0  0  0
  5 19  1  0  0  0
  5 43  1  0  0  0
  6 23  2  0  0  0
  7 32  1  0  0  0
  7 44  1  0  0  0
  8 31  2  0  0  0
  9 36  1  0  0  0
  9 45  1  0  0  0
 10 40  1  0  0  0
 10 46  1  0  0  0
 11 12  1  0  0  0
 11 13  1  0  0  0
 11 17  2  0  0  0
 12 14  2  0  0  0
 13 16  1  0  0  0
 13 18  2  0  0  0
 14 19  1  0  0  0
 14 23  1  0  0  0
 15 16  2  0  0  0
 15 20  1  0  0  0
 15 24  1  0  0  0
 17 21  1  0  0  0
 18 25  1  0  0  0
 19 21  2  0  0  0
 20 30  2  0  0  0
 22 26  2  0  0  0
 22 29  1  0  0  0
 23 26  1  0  0  0
 24 25  2  0  0  0
 27 28  1  0  0  0
 27 31  1  0  0  0
 27 32  2  0  0  0
 28 33  2  0  0  0
 29 34  2  0  0  0
 29 35  1  0  0  0
 30 31  1  0  0  0
 32 37  1  0  0  0
 33 36  1  0  0  0
 34 38  1  0  0  0
 35 39  2  0  0  0
 36 37  2  0  0  0
 38 40  2  0  0  0
 39 40  1  0  0  0
M  END
>  <CHROM.0>
-177.94957785,-174.59511985,-55.37656434

>  <CHROM.1>
-55.44168052,163.39748736,-54.52077736,12.79077197,-8.66127089,49.67793619
58.60679142,-13.54438515,-65.50891837,-47.90472580,-2.39005922,18.70237370
-0.06361464,-0.57278367,-2.00601041

>  <Name>
5281600

>  <PUBCHEM_ATOM_DEF_STEREO_COUNT>
0

>  <PUBCHEM_ATOM_UDEF_STEREO_COUNT>
0

>  <PUBCHEM_BOND_DEF_STEREO_COUNT>
0

>  <PUBCHEM_BOND_UDEF_STEREO_COUNT>
0

>  <PUBCHEM_CACTVS_TAUTO_COUNT>
994

>  <PUBCHEM_COMPONENT_COUNT>
1

>  <PUBCHEM_COMPOUND_CID>
5281600

>  <PUBCHEM_CONFORMER_DIVERSEORDER>
1
12
7
6
5
11
9
4
8
3
2
10

>  <PUBCHEM_CONFORMER_ID>
0050974000000001

>  <PUBCHEM_CONFORMER_RMSD>
0.8

>  <PUBCHEM_COORDINATE_TYPE>
2
5
10

>  <PUBCHEM_EFFECTIVE_ROTOR_COUNT>
3

>  <PUBCHEM_FEATURE_SELFOVERLAP>
81.26

>  <PUBCHEM_HEAVY_ATOM_COUNT>
40

>  <PUBCHEM_ISOTOPIC_ATOM_COUNT>
0

>  <PUBCHEM_MMFF94_ENERGY>
134.7783

>  <PUBCHEM_MMFF94_PARTIAL_CHARGES>
56
1 -0.16
10 -0.53
12 0.08
14 0.09
15 0.03
16 -0.15
17 0.08
18 0.08
19 0.08
2 -0.16
20 0.05
21 -0.15
22 0.05
23 0.47
24 -0.15
25 -0.15
26 -0.14
27 0.09
28 0.08
29 0.03
3 -0.53
30 -0.14
31 0.47
32 0.08
33 -0.15
34 -0.15
35 -0.15
36 0.08
37 -0.15
38 -0.15
39 -0.15
4 -0.53
40 0.08
41 0.15
42 0.15
43 0.15
44 0.15
45 0.15
46 0.15
47 0.15
48 0.15
49 0.15
5 -0.53
50 0.45
51 0.15
52 0.45
53 0.45
54 0.15
55 0.15
56 0.45
57 0.45
58 0.45
6 -0.57
7 -0.53
8 -0.57
9 -0.53

>  <PUBCHEM_PHARMACOPHORE_FEATURES>
16
1 1 acceptor
1 10 donor
1 2 acceptor
1 3 donor
1 4 donor
1 5 donor
1 6 acceptor
1 7 donor
1 8 acceptor
1 9 donor
6 1 12 14 22 23 26 rings
6 11 12 14 17 19 21 rings
6 13 15 16 18 24 25 rings
6 2 20 27 28 30 31 rings
6 27 28 32 33 36 37 rings
6 29 34 35 38 39 40 rings

>  <PUBCHEM_SHAPE_FINGERPRINT>
10074138 170 18272931639651384535
10462674 125 17618475011381580750
10622 236 18044087084485364727
10928967 22 18186794777961395306
11135926 11 16589159410442702964
11434127 23 16988854868850209122
11552529 35 18337099142617264300
12128747 34 17416426289408154158
12422481 6 17970917660810484883
12559416 138 17458053868550942330
131258 38 17040625661602271054
14040221 299 18130520668696863620
14068700 675 18126558149519363943
14395042 24 18339370777318689755
14674994 50 18189596350705326935
14705955 166 17345771702192931481
14856354 85 18343864420652166036
14950920 106 18341324578619618192
15320294 125 18260278451476051767
15361156 5 15359116841693389420
15484559 13 15440400299685403118
16728300 4 17967823739013222547
19319366 153 16671943977149260761
20554085 129 18057606456813237473
20775530 9 17974003148226375983
21033648 29 17986692393200921257
21133410 221 17108453988390366882
23516275 137 17830492447455348050
3882209 13 17628068207685272503
4394409 98 18410292537089562351
44880168 125 18338798914801616118
484985 159 18337095835418697607
50080093 196 18113889468875184482
5085150 59 18337387146281907241
5171179 24 16967460284478114997
581034 39 18412830166090923426

>  <PUBCHEM_SHAPE_MULTIPOLES>
764.49
14.59
6.24
3.18
25.21
8.64
-0.18
2.69
-10.24
-12.46
1.99
1.74
-0.93
-5.25

>  <PUBCHEM_SHAPE_SELFOVERLAP>
1749.357

>  <PUBCHEM_SHAPE_VOLUME>
392.9

>  <RI>
-1.12089e+09

>  <Rbt.Current_Directory>
/root/miniconda3/envs/rdock/share/rxdock-2013.1.1_148c5bd1-0/data/ligands/prepped_ligands/Amentoflavone

>  <Rbt.Executable>
rbdock/0.1.0

>  <Rbt.Library>
librxdock.so/0.1.0

>  <Rbt.Parameter_File>
/root/miniconda3/envs/rdock/share/rxdock-2013.1.1_148c5bd1-0/data/scripts/dock.prm

>  <Rbt.Receptor>
def.prm

>  <SCORE>
-8.48338

>  <SCORE.INTER>
-9.16172

>  <SCORE.INTER.CONST>
1

>  <SCORE.INTER.POLAR>
-0.712958

>  <SCORE.INTER.REPUL>
0

>  <SCORE.INTER.ROT>
3

>  <SCORE.INTER.VDW>
-15.1377

>  <SCORE.INTER.norm>
-0.229043

>  <SCORE.INTRA>
0.702904

>  <SCORE.INTRA.DIHEDRAL>
10.4743

>  <SCORE.INTRA.DIHEDRAL.0>
7.26727

>  <SCORE.INTRA.POLAR>
-0.839045

>  <SCORE.INTRA.POLAR.0>
0

>  <SCORE.INTRA.REPUL>
0

>  <SCORE.INTRA.REPUL.0>
0

>  <SCORE.INTRA.VDW>
-1.6815

>  <SCORE.INTRA.VDW.0>
0.367007

>  <SCORE.INTRA.norm>
0.0175726

>  <SCORE.RESTR>
0.946915

>  <SCORE.RESTR.CAVITY>
0.946915

>  <SCORE.RESTR.norm>
0.0236729

>  <SCORE.SYSTEM>
-0.97148

>  <SCORE.SYSTEM.CONST>
0

>  <SCORE.SYSTEM.DIHEDRAL>
0.201

>  <SCORE.SYSTEM.POLAR>
-0.0107994

>  <SCORE.SYSTEM.VDW>
-1.03526

>  <SCORE.SYSTEM.norm>
-0.024287

>  <SCORE.heavy>
40

>  <SCORE.norm>
-0.212084

$$$$
5281600
  RxDock  02242101503D
librxdock.so/0.1.0
 46 51  0  0  0  0  0  0  0  0999 V2000
  -51.0404   -6.4685   18.0802 O   0  0  0  0  0  0
  -47.6667   -2.4918   17.4107 O   0  0  0  0  0  0
  -54.4429   -3.5458   16.4687 O   0  0  0  0  0  0
  -53.5083   -3.5407   19.5850 O   0  0  0  0  0  0
  -54.9718   -8.2092   15.8423 O   0  0  0  0  0  0
  -53.0531   -9.7515   16.7499 O   0  0  0  0  0  0
  -45.0002   -0.3305   13.9881 O   0  0  0  0  0  0
  -47.6192   -0.1854   14.0525 O   0  0  0  0  0  0
  -42.9333   -2.8609   17.4349 O   0  0  0  0  0  0
  -45.5656   -7.9229   20.8910 O   0  0  0  0  0  0
  -52.7257   -5.0196   17.2833 C   0  0  0  0  0  0
  -52.2467   -6.3199   17.4441 C   0  0  0  0  0  0
  -51.9632   -3.8854   17.7764 C   0  0  0  0  0  0
  -52.9875   -7.3993   16.9658 C   0  0  0  0  0  0
  -50.0623   -2.4154   17.5581 C   0  0  0  0  0  0
  -50.8066   -3.5029   17.1006 C   0  0  0  0  0  0
  -53.9468   -4.8044   16.6436 C   0  0  0  0  0  0
  -52.3794   -3.1865   18.9073 C   0  0  0  0  0  0
  -54.2104   -7.1882   16.3246 C   0  0  0  0  0  0
  -48.8357   -2.0062   16.8451 C   0  0  0  0  0  0
  -54.6873   -5.8866   16.1656 C   0  0  0  0  0  0
  -50.5423   -7.7500   18.2605 C   0  0  0  0  0  0
  -52.4580   -8.7594   17.1472 C   0  0  0  0  0  0
  -50.4768   -1.7134   18.6899 C   0  0  0  0  0  0
  -51.6352   -2.0990   19.3647 C   0  0  0  0  0  0
  -51.1578   -8.8663   17.8395 C   0  0  0  0  0  0
  -46.3836   -1.3863   15.6696 C   0  0  0  0  0  0
  -46.4716   -2.1714   16.8180 C   0  0  0  0  0  0
  -49.2371   -7.7947   18.9498 C   0  0  0  0  0  0
  -48.8814   -1.2476   15.7383 C   0  0  0  0  0  0
  -47.6221   -0.8769   15.0616 C   0  0  0  0  0  0
  -45.1387   -1.0922   15.1087 C   0  0  0  0  0  0
  -45.3120   -2.6685   17.4133 C   0  0  0  0  0  0
  -49.0510   -7.0972   20.1459 C   0  0  0  0  0  0
  -48.1830   -8.5354   18.4095 C   0  0  0  0  0  0
  -44.0667   -2.3769   16.8562 C   0  0  0  0  0  0
  -43.9804   -1.5904   15.7065 C   0  0  0  0  0  0
  -47.8183   -7.1399   20.7975 C   0  0  0  0  0  0
  -46.9505   -8.5784   19.0611 C   0  0  0  0  0  0
  -46.7681   -7.8805   20.2552 C   0  0  0  0  0  0
  -53.8408   -2.9042   16.8828 H   0  0  0  0  0  0
  -53.4717   -4.4904   19.7913 H   0  0  0  0  0  0
  -54.4223   -8.9868   15.6601 H   0  0  0  0  0  0
  -45.7745   -0.4276   13.4128 H   0  0  0  0  0  0
  -42.9409   -2.6351   18.3810 H   0  0  0  0  0  0
  -44.8562   -7.8839   20.2265 H   0  0  0  0  0  0
  1 12  1  0  0  0
  1 22  1  0  0  0
  2 20  1  0  0  0
  2 28  1  0  0  0
  3 17  1  0  0  0
  3 41  1  0  0  0
  4 18  1  0  0  0
  4 42  1  0  0  0
  5 19  1  0  0  0
  5 43  1  0  0  0
  6 23  2  0  0  0
  7 32  1  0  0  0
  7 44  1  0  0  0
  8 31  2  0  0  0
  9 36  1  0  0  0
  9 45  1  0  0  0
 10 40  1  0  0  0
 10 46  1  0  0  0
 11 12  1  0  0  0
 11 13  1  0  0  0
 11 17  2  0  0  0
 12 14  2  0  0  0
 13 16  1  0  0  0
 13 18  2  0  0  0
 14 19  1  0  0  0
 14 23  1  0  0  0
 15 16  2  0  0  0
 15 20  1  0  0  0
 15 24  1  0  0  0
 17 21  1  0  0  0
 18 25  1  0  0  0
 19 21  2  0  0  0
 20 30  2  0  0  0
 22 26  2  0  0  0
 22 29  1  0  0  0
 23 26  1  0  0  0
 24 25  2  0  0  0
 27 28  1  0  0  0
 27 31  1  0  0  0
 27 32  2  0  0  0
 28 33  2  0  0  0
 29 34  2  0  0  0
 29 35  1  0  0  0
 30 31  1  0  0  0
 32 37  1  0  0  0
 33 36  1  0  0  0
 34 38  1  0  0  0
 35 39  2  0  0  0
 36 37  2  0  0  0
 38 40  2  0  0  0
 39 40  1  0  0  0
M  END
>  <CHROM.0>
172.86472963,-61.89696448,-176.56745998

>  <CHROM.1>
-2.43661131,51.71518902,-24.07105084,-29.91676239,-51.64242249,-140.41128623
73.01157487,-97.77906556,50.15472603,-49.55547261,-4.65812599,17.40638872
-2.51559777,-0.14516532,-0.43548215

>  <Name>
5281600

>  <PUBCHEM_ATOM_DEF_STEREO_COUNT>
0

>  <PUBCHEM_ATOM_UDEF_STEREO_COUNT>
0

>  <PUBCHEM_BOND_DEF_STEREO_COUNT>
0

>  <PUBCHEM_BOND_UDEF_STEREO_COUNT>
0

>  <PUBCHEM_CACTVS_TAUTO_COUNT>
994

>  <PUBCHEM_COMPONENT_COUNT>
1

>  <PUBCHEM_COMPOUND_CID>
5281600

>  <PUBCHEM_CONFORMER_DIVERSEORDER>
1
12
7
6
5
11
9
4
8
3
2
10

>  <PUBCHEM_CONFORMER_ID>
0050974000000001

>  <PUBCHEM_CONFORMER_RMSD>
0.8

>  <PUBCHEM_COORDINATE_TYPE>
2
5
10

>  <PUBCHEM_EFFECTIVE_ROTOR_COUNT>
3

>  <PUBCHEM_FEATURE_SELFOVERLAP>
81.26

>  <PUBCHEM_HEAVY_ATOM_COUNT>
40

>  <PUBCHEM_ISOTOPIC_ATOM_COUNT>
0

>  <PUBCHEM_MMFF94_ENERGY>
134.7783

>  <PUBCHEM_MMFF94_PARTIAL_CHARGES>
56
1 -0.16
10 -0.53
12 0.08
14 0.09
15 0.03
16 -0.15
17 0.08
18 0.08
19 0.08
2 -0.16
20 0.05
21 -0.15
22 0.05
23 0.47
24 -0.15
25 -0.15
26 -0.14
27 0.09
28 0.08
29 0.03
3 -0.53
30 -0.14
31 0.47
32 0.08
33 -0.15
34 -0.15
35 -0.15
36 0.08
37 -0.15
38 -0.15
39 -0.15
4 -0.53
40 0.08
41 0.15
42 0.15
43 0.15
44 0.15
45 0.15
46 0.15
47 0.15
48 0.15
49 0.15
5 -0.53
50 0.45
51 0.15
52 0.45
53 0.45
54 0.15
55 0.15
56 0.45
57 0.45
58 0.45
6 -0.57
7 -0.53
8 -0.57
9 -0.53

>  <PUBCHEM_PHARMACOPHORE_FEATURES>
16
1 1 acceptor
1 10 donor
1 2 acceptor
1 3 donor
1 4 donor
1 5 donor
1 6 acceptor
1 7 donor
1 8 acceptor
1 9 donor
6 1 12 14 22 23 26 rings
6 11 12 14 17 19 21 rings
6 13 15 16 18 24 25 rings
6 2 20 27 28 30 31 rings
6 27 28 32 33 36 37 rings
6 29 34 35 38 39 40 rings

>  <PUBCHEM_SHAPE_FINGERPRINT>
10074138 170 18272931639651384535
10462674 125 17618475011381580750
10622 236 18044087084485364727
10928967 22 18186794777961395306
11135926 11 16589159410442702964
11434127 23 16988854868850209122
11552529 35 18337099142617264300
12128747 34 17416426289408154158
12422481 6 17970917660810484883
12559416 138 17458053868550942330
131258 38 17040625661602271054
14040221 299 18130520668696863620
14068700 675 18126558149519363943
14395042 24 18339370777318689755
14674994 50 18189596350705326935
14705955 166 17345771702192931481
14856354 85 18343864420652166036
14950920 106 18341324578619618192
15320294 125 18260278451476051767
15361156 5 15359116841693389420
15484559 13 15440400299685403118
16728300 4 17967823739013222547
19319366 153 16671943977149260761
20554085 129 18057606456813237473
20775530 9 17974003148226375983
21033648 29 17986692393200921257
21133410 221 17108453988390366882
23516275 137 17830492447455348050
3882209 13 17628068207685272503
4394409 98 18410292537089562351
44880168 125 18338798914801616118
484985 159 18337095835418697607
50080093 196 18113889468875184482
5085150 59 18337387146281907241
5171179 24 16967460284478114997
581034 39 18412830166090923426

>  <PUBCHEM_SHAPE_MULTIPOLES>
764.49
14.59
6.24
3.18
25.21
8.64
-0.18
2.69
-10.24
-12.46
1.99
1.74
-0.93
-5.25

>  <PUBCHEM_SHAPE_SELFOVERLAP>
1749.357

>  <PUBCHEM_SHAPE_VOLUME>
392.9

>  <RI>
-1.12089e+09

>  <Rbt.Current_Directory>
/root/miniconda3/envs/rdock/share/rxdock-2013.1.1_148c5bd1-0/data/ligands/prepped_ligands/Amentoflavone

>  <Rbt.Executable>
rbdock/0.1.0

>  <Rbt.Library>
librxdock.so/0.1.0

>  <Rbt.Parameter_File>
/root/miniconda3/envs/rdock/share/rxdock-2013.1.1_148c5bd1-0/data/scripts/dock.prm

>  <Rbt.Receptor>
def.prm

>  <SCORE>
12.8288

>  <SCORE.INTER>
5.7568

>  <SCORE.INTER.CONST>
1

>  <SCORE.INTER.POLAR>
-0.475241

>  <SCORE.INTER.REPUL>
0.139818

>  <SCORE.INTER.ROT>
3

>  <SCORE.INTER.VDW>
-1.72647

>  <SCORE.INTER.norm>
0.14392

>  <SCORE.INTRA>
4.35212

>  <SCORE.INTRA.DIHEDRAL>
14.4636

>  <SCORE.INTRA.DIHEDRAL.0>
7.26727

>  <SCORE.INTRA.POLAR>
0

>  <SCORE.INTRA.POLAR.0>
0

>  <SCORE.INTRA.REPUL>
0

>  <SCORE.INTRA.REPUL.0>
0

>  <SCORE.INTRA.VDW>
-2.87967

>  <SCORE.INTRA.VDW.0>
0.367007

>  <SCORE.INTRA.norm>
0.108803

>  <SCORE.RESTR>
3.69786

>  <SCORE.RESTR.CAVITY>
3.69786

>  <SCORE.RESTR.norm>
0.0924464

>  <SCORE.SYSTEM>
-0.978004

>  <SCORE.SYSTEM.CONST>
0

>  <SCORE.SYSTEM.DIHEDRAL>
0.173464

>  <SCORE.SYSTEM.POLAR>
-0.00949615

>  <SCORE.SYSTEM.VDW>
-1.03245

>  <SCORE.SYSTEM.norm>
-0.0244501

>  <SCORE.heavy>
40

>  <SCORE.norm>
0.320719

$$$$
