5281600
  RxDock  02242112443D
librxdock.so/0.1.0
 46 51  0  0  0  0  0  0  0  0999 V2000
  -46.8633   -0.5188   18.8821 O   0  0  0  0  0  0
  -49.6111   -3.9303   15.7461 O   0  0  0  0  0  0
  -42.7652   -2.3990   17.3373 O   0  0  0  0  0  0
  -44.1176   -0.8263   15.4343 O   0  0  0  0  0  0
  -42.7430    0.1004   21.3587 O   0  0  0  0  0  0
  -45.0358    1.1095   22.1391 O   0  0  0  0  0  0
  -51.8996   -7.8688   17.4034 O   0  0  0  0  0  0
  -49.3559   -7.4080   17.8531 O   0  0  0  0  0  0
  -54.2197   -4.6170   14.8347 O   0  0  0  0  0  0
  -53.0532    0.7491   18.6509 O   0  0  0  0  0  0
  -44.8340   -1.4517   18.1162 C   0  0  0  0  0  0
  -45.5173   -0.7015   19.0736 C   0  0  0  0  0  0
  -45.5378   -2.0066   16.9727 C   0  0  0  0  0  0
  -44.8303   -0.1740   20.1656 C   0  0  0  0  0  0
  -47.2929   -3.4176   16.1063 C   0  0  0  0  0  0
  -46.6040   -2.8762   17.1917 C   0  0  0  0  0  0
  -43.4635   -1.6715   18.2561 C   0  0  0  0  0  0
  -45.1568   -1.6758   15.6743 C   0  0  0  0  0  0
  -43.4581   -0.3916   20.3092 C   0  0  0  0  0  0
  -48.4237   -4.3397   16.3333 C   0  0  0  0  0  0
  -42.7773   -1.1427   19.3503 C   0  0  0  0  0  0
  -47.5702    0.2169   19.8212 C   0  0  0  0  0  0
  -45.5750    0.6146   21.1590 C   0  0  0  0  0  0
  -46.9138   -3.0879   14.8051 C   0  0  0  0  0  0
  -45.8456   -2.2172   14.5889 C   0  0  0  0  0  0
  -47.0211    0.7804   20.9090 C   0  0  0  0  0  0
  -50.7039   -5.9228   16.6037 C   0  0  0  0  0  0
  -50.7211   -4.7226   15.8951 C   0  0  0  0  0  0
  -49.0080    0.3568   19.5150 C   0  0  0  0  0  0
  -48.2792   -5.4761   17.0333 C   0  0  0  0  0  0
  -49.4440   -6.3649   17.2203 C   0  0  0  0  0  0
  -51.8651   -6.6898   16.7223 C   0  0  0  0  0  0
  -51.9030   -4.2816   15.2991 C   0  0  0  0  0  0
  -49.4766    1.4928   18.8504 C   0  0  0  0  0  0
  -49.9058   -0.6464   19.8879 C   0  0  0  0  0  0
  -53.0649   -5.0447   15.4156 C   0  0  0  0  0  0
  -53.0459   -6.2461   16.1257 C   0  0  0  0  0  0
  -50.8347    1.6247   18.5605 C   0  0  0  0  0  0
  -51.2639   -0.5147   19.5979 C   0  0  0  0  0  0
  -51.7283    0.6210   18.9342 C   0  0  0  0  0  0
  -42.2275   -3.0652   17.7986 H   0  0  0  0  0  0
  -44.1961   -0.4733   14.5315 H   0  0  0  0  0  0
  -43.2652    0.7528   21.8501 H   0  0  0  0  0  0
  -51.2727   -7.8530   18.1429 H   0  0  0  0  0  0
  -54.6340   -5.3637   14.3689 H   0  0  0  0  0  0
  -53.1927    1.5802   18.1649 H   0  0  0  0  0  0
  1 12  1  0  0  0
  1 22  1  0  0  0
  2 20  1  0  0  0
  2 28  1  0  0  0
  3 17  1  0  0  0
  3 41  1  0  0  0
  4 18  1  0  0  0
  4 42  1  0  0  0
  5 19  1  0  0  0
  5 43  1  0  0  0
  6 23  2  0  0  0
  7 32  1  0  0  0
  7 44  1  0  0  0
  8 31  2  0  0  0
  9 36  1  0  0  0
  9 45  1  0  0  0
 10 40  1  0  0  0
 10 46  1  0  0  0
 11 12  1  0  0  0
 11 13  1  0  0  0
 11 17  2  0  0  0
 12 14  2  0  0  0
 13 16  1  0  0  0
 13 18  2  0  0  0
 14 19  1  0  0  0
 14 23  1  0  0  0
 15 16  2  0  0  0
 15 20  1  0  0  0
 15 24  1  0  0  0
 17 21  1  0  0  0
 18 25  1  0  0  0
 19 21  2  0  0  0
 20 30  2  0  0  0
 22 26  2  0  0  0
 22 29  1  0  0  0
 23 26  1  0  0  0
 24 25  2  0  0  0
 27 28  1  0  0  0
 27 31  1  0  0  0
 27 32  2  0  0  0
 28 33  2  0  0  0
 29 34  2  0  0  0
 29 35  1  0  0  0
 30 31  1  0  0  0
 32 37  1  0  0  0
 33 36  1  0  0  0
 34 38  1  0  0  0
 35 39  2  0  0  0
 36 37  2  0  0  0
 38 40  2  0  0  0
 39 40  1  0  0  0
M  END
>  <CHROM.0>
165.65606383,-63.91138943,-58.95610478

>  <CHROM.1>
-130.85470934,-160.13658547,-12.23204979,31.75420855,134.33290607,1.78948376
-58.46519997,123.31372618,-95.53496338,-48.05232627,-2.28804908,17.85347173
0.69524046,0.00528621,0.57033423

>  <Name>
5281600

>  <PUBCHEM_ATOM_DEF_STEREO_COUNT>
0

>  <PUBCHEM_ATOM_UDEF_STEREO_COUNT>
0

>  <PUBCHEM_BOND_DEF_STEREO_COUNT>
0

>  <PUBCHEM_BOND_UDEF_STEREO_COUNT>
0

>  <PUBCHEM_CACTVS_TAUTO_COUNT>
994

>  <PUBCHEM_COMPONENT_COUNT>
1

>  <PUBCHEM_COMPOUND_CID>
5281600

>  <PUBCHEM_CONFORMER_DIVERSEORDER>
1
12
7
6
5
11
9
4
8
3
2
10

>  <PUBCHEM_CONFORMER_ID>
0050974000000001

>  <PUBCHEM_CONFORMER_RMSD>
0.8

>  <PUBCHEM_COORDINATE_TYPE>
2
5
10

>  <PUBCHEM_EFFECTIVE_ROTOR_COUNT>
3

>  <PUBCHEM_FEATURE_SELFOVERLAP>
81.26

>  <PUBCHEM_HEAVY_ATOM_COUNT>
40

>  <PUBCHEM_ISOTOPIC_ATOM_COUNT>
0

>  <PUBCHEM_MMFF94_ENERGY>
134.7783

>  <PUBCHEM_MMFF94_PARTIAL_CHARGES>
56
1 -0.16
10 -0.53
12 0.08
14 0.09
15 0.03
16 -0.15
17 0.08
18 0.08
19 0.08
2 -0.16
20 0.05
21 -0.15
22 0.05
23 0.47
24 -0.15
25 -0.15
26 -0.14
27 0.09
28 0.08
29 0.03
3 -0.53
30 -0.14
31 0.47
32 0.08
33 -0.15
34 -0.15
35 -0.15
36 0.08
37 -0.15
38 -0.15
39 -0.15
4 -0.53
40 0.08
41 0.15
42 0.15
43 0.15
44 0.15
45 0.15
46 0.15
47 0.15
48 0.15
49 0.15
5 -0.53
50 0.45
51 0.15
52 0.45
53 0.45
54 0.15
55 0.15
56 0.45
57 0.45
58 0.45
6 -0.57
7 -0.53
8 -0.57
9 -0.53

>  <PUBCHEM_PHARMACOPHORE_FEATURES>
16
1 1 acceptor
1 10 donor
1 2 acceptor
1 3 donor
1 4 donor
1 5 donor
1 6 acceptor
1 7 donor
1 8 acceptor
1 9 donor
6 1 12 14 22 23 26 rings
6 11 12 14 17 19 21 rings
6 13 15 16 18 24 25 rings
6 2 20 27 28 30 31 rings
6 27 28 32 33 36 37 rings
6 29 34 35 38 39 40 rings

>  <PUBCHEM_SHAPE_FINGERPRINT>
10074138 170 18272931639651384535
10462674 125 17618475011381580750
10622 236 18044087084485364727
10928967 22 18186794777961395306
11135926 11 16589159410442702964
11434127 23 16988854868850209122
11552529 35 18337099142617264300
12128747 34 17416426289408154158
12422481 6 17970917660810484883
12559416 138 17458053868550942330
131258 38 17040625661602271054
14040221 299 18130520668696863620
14068700 675 18126558149519363943
14395042 24 18339370777318689755
14674994 50 18189596350705326935
14705955 166 17345771702192931481
14856354 85 18343864420652166036
14950920 106 18341324578619618192
15320294 125 18260278451476051767
15361156 5 15359116841693389420
15484559 13 15440400299685403118
16728300 4 17967823739013222547
19319366 153 16671943977149260761
20554085 129 18057606456813237473
20775530 9 17974003148226375983
21033648 29 17986692393200921257
21133410 221 17108453988390366882
23516275 137 17830492447455348050
3882209 13 17628068207685272503
4394409 98 18410292537089562351
44880168 125 18338798914801616118
484985 159 18337095835418697607
50080093 196 18113889468875184482
5085150 59 18337387146281907241
5171179 24 16967460284478114997
581034 39 18412830166090923426

>  <PUBCHEM_SHAPE_MULTIPOLES>
764.49
14.59
6.24
3.18
25.21
8.64
-0.18
2.69
-10.24
-12.46
1.99
1.74
-0.93
-5.25

>  <PUBCHEM_SHAPE_SELFOVERLAP>
1749.357

>  <PUBCHEM_SHAPE_VOLUME>
392.9

>  <RI>
-5.90875e+08

>  <Rbt.Current_Directory>
/root/miniconda3/envs/rdock/share/rxdock-2013.1.1_148c5bd1-0/data/ligands/prepped_ligands/Amentoflavone

>  <Rbt.Executable>
rbdock/0.1.0

>  <Rbt.Library>
librxdock.so/0.1.0

>  <Rbt.Parameter_File>
/root/miniconda3/envs/rdock/share/rxdock-2013.1.1_148c5bd1-0/data/scripts/dock.prm

>  <Rbt.Receptor>
def.prm

>  <SCORE>
-12.7432

>  <SCORE.INTER>
-16.3816

>  <SCORE.INTER.CONST>
1

>  <SCORE.INTER.POLAR>
-0.475543

>  <SCORE.INTER.REPUL>
0.172

>  <SCORE.INTER.ROT>
3

>  <SCORE.INTER.VDW>
-24.0247

>  <SCORE.INTER.norm>
-0.40954

>  <SCORE.INTRA>
3.73295

>  <SCORE.INTRA.DIHEDRAL>
11.6598

>  <SCORE.INTRA.DIHEDRAL.0>
7.26727

>  <SCORE.INTRA.POLAR>
0

>  <SCORE.INTRA.POLAR.0>
0

>  <SCORE.INTRA.REPUL>
0.00396758

>  <SCORE.INTRA.REPUL.0>
0

>  <SCORE.INTRA.VDW>
-2.1168

>  <SCORE.INTRA.VDW.0>
0.367007

>  <SCORE.INTRA.norm>
0.0933239

>  <SCORE.RESTR>
0.620862

>  <SCORE.RESTR.CAVITY>
0.620862

>  <SCORE.RESTR.norm>
0.0155216

>  <SCORE.SYSTEM>
-0.715462

>  <SCORE.SYSTEM.CONST>
0

>  <SCORE.SYSTEM.DIHEDRAL>
0.571126

>  <SCORE.SYSTEM.POLAR>
-0.00339212

>  <SCORE.SYSTEM.VDW>
-0.989492

>  <SCORE.SYSTEM.norm>
-0.0178866

>  <SCORE.heavy>
40

>  <SCORE.norm>
-0.318581

$$$$
5281600
  RxDock  02242112443D
librxdock.so/0.1.0
 46 51  0  0  0  0  0  0  0  0999 V2000
  -49.4304   -2.5596   16.6802 O   0  0  0  0  0  0
  -46.6237    0.5077   19.3689 O   0  0  0  0  0  0
  -53.2318   -2.4907   19.5543 O   0  0  0  0  0  0
  -52.8701   -0.2372   18.7669 O   0  0  0  0  0  0
  -52.9868   -5.8168   16.1933 O   0  0  0  0  0  0
  -50.8676   -5.7843   14.6467 O   0  0  0  0  0  0
  -42.6782   -0.6821   21.9211 O   0  0  0  0  0  0
  -45.0677   -1.6090   22.4830 O   0  0  0  0  0  0
  -42.3716    2.2819   18.2229 O   0  0  0  0  0  0
  -43.8618   -0.5443   14.4648 O   0  0  0  0  0  0
  -51.3126   -2.5249   18.1053 C   0  0  0  0  0  0
  -50.6328   -3.1140   17.0390 C   0  0  0  0  0  0
  -50.7525   -1.3740   18.7926 C   0  0  0  0  0  0
  -51.1813   -4.2174   16.3875 C   0  0  0  0  0  0
  -48.8479   -0.2882   19.8004 C   0  0  0  0  0  0
  -49.4038   -1.3850   19.1417 C   0  0  0  0  0  0
  -52.5407   -3.0438   18.5164 C   0  0  0  0  0  0
  -51.5481   -0.2723   19.0990 C   0  0  0  0  0  0
  -52.4108   -4.7397   16.7957 C   0  0  0  0  0  0
  -47.4189   -0.2953   20.1723 C   0  0  0  0  0  0
  -53.0882   -4.1488   17.8630 C   0  0  0  0  0  0
  -48.7287   -3.1282   15.6279 C   0  0  0  0  0  0
  -50.4443   -4.8175   15.2651 C   0  0  0  0  0  0
  -49.6420    0.8164   20.1082 C   0  0  0  0  0  0
  -50.9922    0.8245   19.7577 C   0  0  0  0  0  0
  -49.1547   -4.1860   14.9195 C   0  0  0  0  0  0
  -44.6825   -0.1254   20.6845 C   0  0  0  0  0  0
  -45.2798    0.5734   19.6368 C   0  0  0  0  0  0
  -47.4527   -2.4507   15.3222 C   0  0  0  0  0  0
  -46.9631   -1.0098   21.2135 C   0  0  0  0  0  0
  -45.5242   -0.9710   21.5445 C   0  0  0  0  0  0
  -43.3083   -0.0202   20.9111 C   0  0  0  0  0  0
  -44.5040    1.3839   18.8075 C   0  0  0  0  0  0
  -47.3418   -1.0655   15.4663 C   0  0  0  0  0  0
  -46.3509   -3.1917   14.8884 C   0  0  0  0  0  0
  -43.1311    1.4914   19.0304 C   0  0  0  0  0  0
  -42.5347    0.7908   20.0798 C   0  0  0  0  0  0
  -46.1363   -0.4253   15.1782 C   0  0  0  0  0  0
  -45.1454   -2.5518   14.6005 C   0  0  0  0  0  0
  -45.0381   -1.1685   14.7453 C   0  0  0  0  0  0
  -52.6090   -2.0373   20.1478 H   0  0  0  0  0  0
  -53.2224    0.6499   18.9534 H   0  0  0  0  0  0
  -52.4371   -6.1303   15.4589 H   0  0  0  0  0  0
  -43.2356   -0.7028   22.7141 H   0  0  0  0  0  0
  -41.5354    2.4851   18.6764 H   0  0  0  0  0  0
  -43.4861   -0.1938   15.2908 H   0  0  0  0  0  0
  1 12  1  0  0  0
  1 22  1  0  0  0
  2 20  1  0  0  0
  2 28  1  0  0  0
  3 17  1  0  0  0
  3 41  1  0  0  0
  4 18  1  0  0  0
  4 42  1  0  0  0
  5 19  1  0  0  0
  5 43  1  0  0  0
  6 23  2  0  0  0
  7 32  1  0  0  0
  7 44  1  0  0  0
  8 31  2  0  0  0
  9 36  1  0  0  0
  9 45  1  0  0  0
 10 40  1  0  0  0
 10 46  1  0  0  0
 11 12  1  0  0  0
 11 13  1  0  0  0
 11 17  2  0  0  0
 12 14  2  0  0  0
 13 16  1  0  0  0
 13 18  2  0  0  0
 14 19  1  0  0  0
 14 23  1  0  0  0
 15 16  2  0  0  0
 15 20  1  0  0  0
 15 24  1  0  0  0
 17 21  1  0  0  0
 18 25  1  0  0  0
 19 21  2  0  0  0
 20 30  2  0  0  0
 22 26  2  0  0  0
 22 29  1  0  0  0
 23 26  1  0  0  0
 24 25  2  0  0  0
 27 28  1  0  0  0
 27 31  1  0  0  0
 27 32  2  0  0  0
 28 33  2  0  0  0
 29 34  2  0  0  0
 29 35  1  0  0  0
 30 31  1  0  0  0
 32 37  1  0  0  0
 33 36  1  0  0  0
 34 38  1  0  0  0
 35 39  2  0  0  0
 36 37  2  0  0  0
 38 40  2  0  0  0
 39 40  1  0  0  0
M  END
>  <CHROM.0>
-67.50688015,67.45631672,53.00248643

>  <CHROM.1>
-25.53830135,-172.49654153,-1.21756305,-37.75590415,160.92876268,67.49914387
-45.22858532,105.15609913,-34.82963419,-48.02134217,-1.53637140,18.05587935
-2.67866647,0.29964631,1.10758767

>  <Name>
5281600

>  <PUBCHEM_ATOM_DEF_STEREO_COUNT>
0

>  <PUBCHEM_ATOM_UDEF_STEREO_COUNT>
0

>  <PUBCHEM_BOND_DEF_STEREO_COUNT>
0

>  <PUBCHEM_BOND_UDEF_STEREO_COUNT>
0

>  <PUBCHEM_CACTVS_TAUTO_COUNT>
994

>  <PUBCHEM_COMPONENT_COUNT>
1

>  <PUBCHEM_COMPOUND_CID>
5281600

>  <PUBCHEM_CONFORMER_DIVERSEORDER>
1
12
7
6
5
11
9
4
8
3
2
10

>  <PUBCHEM_CONFORMER_ID>
0050974000000001

>  <PUBCHEM_CONFORMER_RMSD>
0.8

>  <PUBCHEM_COORDINATE_TYPE>
2
5
10

>  <PUBCHEM_EFFECTIVE_ROTOR_COUNT>
3

>  <PUBCHEM_FEATURE_SELFOVERLAP>
81.26

>  <PUBCHEM_HEAVY_ATOM_COUNT>
40

>  <PUBCHEM_ISOTOPIC_ATOM_COUNT>
0

>  <PUBCHEM_MMFF94_ENERGY>
134.7783

>  <PUBCHEM_MMFF94_PARTIAL_CHARGES>
56
1 -0.16
10 -0.53
12 0.08
14 0.09
15 0.03
16 -0.15
17 0.08
18 0.08
19 0.08
2 -0.16
20 0.05
21 -0.15
22 0.05
23 0.47
24 -0.15
25 -0.15
26 -0.14
27 0.09
28 0.08
29 0.03
3 -0.53
30 -0.14
31 0.47
32 0.08
33 -0.15
34 -0.15
35 -0.15
36 0.08
37 -0.15
38 -0.15
39 -0.15
4 -0.53
40 0.08
41 0.15
42 0.15
43 0.15
44 0.15
45 0.15
46 0.15
47 0.15
48 0.15
49 0.15
5 -0.53
50 0.45
51 0.15
52 0.45
53 0.45
54 0.15
55 0.15
56 0.45
57 0.45
58 0.45
6 -0.57
7 -0.53
8 -0.57
9 -0.53

>  <PUBCHEM_PHARMACOPHORE_FEATURES>
16
1 1 acceptor
1 10 donor
1 2 acceptor
1 3 donor
1 4 donor
1 5 donor
1 6 acceptor
1 7 donor
1 8 acceptor
1 9 donor
6 1 12 14 22 23 26 rings
6 11 12 14 17 19 21 rings
6 13 15 16 18 24 25 rings
6 2 20 27 28 30 31 rings
6 27 28 32 33 36 37 rings
6 29 34 35 38 39 40 rings

>  <PUBCHEM_SHAPE_FINGERPRINT>
10074138 170 18272931639651384535
10462674 125 17618475011381580750
10622 236 18044087084485364727
10928967 22 18186794777961395306
11135926 11 16589159410442702964
11434127 23 16988854868850209122
11552529 35 18337099142617264300
12128747 34 17416426289408154158
12422481 6 17970917660810484883
12559416 138 17458053868550942330
131258 38 17040625661602271054
14040221 299 18130520668696863620
14068700 675 18126558149519363943
14395042 24 18339370777318689755
14674994 50 18189596350705326935
14705955 166 17345771702192931481
14856354 85 18343864420652166036
14950920 106 18341324578619618192
15320294 125 18260278451476051767
15361156 5 15359116841693389420
15484559 13 15440400299685403118
16728300 4 17967823739013222547
19319366 153 16671943977149260761
20554085 129 18057606456813237473
20775530 9 17974003148226375983
21033648 29 17986692393200921257
21133410 221 17108453988390366882
23516275 137 17830492447455348050
3882209 13 17628068207685272503
4394409 98 18410292537089562351
44880168 125 18338798914801616118
484985 159 18337095835418697607
50080093 196 18113889468875184482
5085150 59 18337387146281907241
5171179 24 16967460284478114997
581034 39 18412830166090923426

>  <PUBCHEM_SHAPE_MULTIPOLES>
764.49
14.59
6.24
3.18
25.21
8.64
-0.18
2.69
-10.24
-12.46
1.99
1.74
-0.93
-5.25

>  <PUBCHEM_SHAPE_SELFOVERLAP>
1749.357

>  <PUBCHEM_SHAPE_VOLUME>
392.9

>  <RI>
-5.90875e+08

>  <Rbt.Current_Directory>
/root/miniconda3/envs/rdock/share/rxdock-2013.1.1_148c5bd1-0/data/ligands/prepped_ligands/Amentoflavone

>  <Rbt.Executable>
rbdock/0.1.0

>  <Rbt.Library>
librxdock.so/0.1.0

>  <Rbt.Parameter_File>
/root/miniconda3/envs/rdock/share/rxdock-2013.1.1_148c5bd1-0/data/scripts/dock.prm

>  <Rbt.Receptor>
def.prm

>  <SCORE>
-4.49887

>  <SCORE.INTER>
-9.13499

>  <SCORE.INTER.CONST>
1

>  <SCORE.INTER.POLAR>
0

>  <SCORE.INTER.REPUL>
0.0707347

>  <SCORE.INTER.ROT>
3

>  <SCORE.INTER.VDW>
-17.8887

>  <SCORE.INTER.norm>
-0.228375

>  <SCORE.INTRA>
4.4455

>  <SCORE.INTRA.DIHEDRAL>
8.63225

>  <SCORE.INTRA.DIHEDRAL.0>
7.26727

>  <SCORE.INTRA.POLAR>
0

>  <SCORE.INTRA.POLAR.0>
0

>  <SCORE.INTRA.REPUL>
0

>  <SCORE.INTRA.REPUL.0>
0

>  <SCORE.INTRA.VDW>
0.129377

>  <SCORE.INTRA.VDW.0>
0.367007

>  <SCORE.INTRA.norm>
0.111138

>  <SCORE.RESTR>
1.02162

>  <SCORE.RESTR.CAVITY>
1.02162

>  <SCORE.RESTR.norm>
0.0255404

>  <SCORE.SYSTEM>
-0.83099

>  <SCORE.SYSTEM.CONST>
0

>  <SCORE.SYSTEM.DIHEDRAL>
0.538802

>  <SCORE.SYSTEM.VDW>
-1.10039

>  <SCORE.SYSTEM.norm>
-0.0207748

>  <SCORE.heavy>
40

>  <SCORE.norm>
-0.112472

$$$$
5281600
  RxDock  02242112443D
librxdock.so/0.1.0
 46 51  0  0  0  0  0  0  0  0999 V2000
  -46.7175   -0.3212   18.6745 O   0  0  0  0  0  0
  -49.5575   -3.8618   15.7438 O   0  0  0  0  0  0
  -42.6980   -2.4984   17.3256 O   0  0  0  0  0  0
  -43.9897   -0.9095   15.3017 O   0  0  0  0  0  0
  -42.6107    0.2402   21.1871 O   0  0  0  0  0  0
  -44.8603    1.4104   21.8607 O   0  0  0  0  0  0
  -51.9332   -7.6865   17.5392 O   0  0  0  0  0  0
  -49.3760   -7.2759   17.9595 O   0  0  0  0  0  0
  -54.1876   -4.4606   14.8808 O   0  0  0  0  0  0
  -52.8301    1.2440   18.2540 O   0  0  0  0  0  0
  -44.7272   -1.4012   18.0057 C   0  0  0  0  0  0
  -45.3859   -0.5597   18.9025 C   0  0  0  0  0  0
  -45.4405   -1.9893   16.8849 C   0  0  0  0  0  0
  -44.6901   -0.0012   19.9733 C   0  0  0  0  0  0
  -47.2249   -3.3967   16.0742 C   0  0  0  0  0  0
  -46.5267   -2.8242   17.1376 C   0  0  0  0  0  0
  -43.3723   -1.6812   18.1848 C   0  0  0  0  0  0
  -45.0486   -1.7240   15.5747 C   0  0  0  0  0  0
  -43.3334   -0.2788   20.1560 C   0  0  0  0  0  0
  -48.3769   -4.2822   16.3371 C   0  0  0  0  0  0
  -42.6772   -1.1212   19.2578 C   0  0  0  0  0  0
  -47.4002    0.5060   19.5535 C   0  0  0  0  0  0
  -45.4088    0.8839   20.9024 C   0  0  0  0  0  0
  -46.8350   -3.1326   14.7613 C   0  0  0  0  0  0
  -45.7467   -2.2965   14.5113 C   0  0  0  0  0  0
  -46.8402    1.1070   20.6152 C   0  0  0  0  0  0
  -50.6944   -5.7978   16.6708 C   0  0  0  0  0  0
  -50.6861   -4.6207   15.9242 C   0  0  0  0  0  0
  -48.8239    0.6993   19.2120 C   0  0  0  0  0  0
  -48.2565   -5.3990   17.0722 C   0  0  0  0  0  0
  -49.4419   -6.2516   17.2941 C   0  0  0  0  0  0
  -51.8737   -6.5310   16.8205 C   0  0  0  0  0  0
  -51.8603   -4.1692   15.3212 C   0  0  0  0  0  0
  -49.7337   -0.3477   19.3781 C   0  0  0  0  0  0
  -49.2672    1.9301   18.7221 C   0  0  0  0  0  0
  -53.0402   -4.8986   15.4685 C   0  0  0  0  0  0
  -53.0468   -6.0769   16.2166 C   0  0  0  0  0  0
  -51.0787   -0.1651   19.0563 C   0  0  0  0  0  0
  -50.6121    2.1130   18.4005 C   0  0  0  0  0  0
  -51.5179    1.0653   18.5675 C   0  0  0  0  0  0
  -43.3227   -3.1276   16.9260 H   0  0  0  0  0  0
  -43.7521   -0.9989   14.3629 H   0  0  0  0  0  0
  -41.6619    0.1084   21.0378 H   0  0  0  0  0  0
  -52.8316   -8.0507   17.5239 H   0  0  0  0  0  0
  -54.8156   -5.2013   14.8239 H   0  0  0  0  0  0
  -52.9406    2.1212   17.8481 H   0  0  0  0  0  0
  1 12  1  0  0  0
  1 22  1  0  0  0
  2 20  1  0  0  0
  2 28  1  0  0  0
  3 17  1  0  0  0
  3 41  1  0  0  0
  4 18  1  0  0  0
  4 42  1  0  0  0
  5 19  1  0  0  0
  5 43  1  0  0  0
  6 23  2  0  0  0
  7 32  1  0  0  0
  7 44  1  0  0  0
  8 31  2  0  0  0
  9 36  1  0  0  0
  9 45  1  0  0  0
 10 40  1  0  0  0
 10 46  1  0  0  0
 11 12  1  0  0  0
 11 13  1  0  0  0
 11 17  2  0  0  0
 12 14  2  0  0  0
 13 16  1  0  0  0
 13 18  2  0  0  0
 14 19  1  0  0  0
 14 23  1  0  0  0
 15 16  2  0  0  0
 15 20  1  0  0  0
 15 24  1  0  0  0
 17 21  1  0  0  0
 18 25  1  0  0  0
 19 21  2  0  0  0
 20 30  2  0  0  0
 22 26  2  0  0  0
 22 29  1  0  0  0
 23 26  1  0  0  0
 24 25  2  0  0  0
 27 28  1  0  0  0
 27 31  1  0  0  0
 27 32  2  0  0  0
 28 33  2  0  0  0
 29 34  2  0  0  0
 29 35  1  0  0  0
 30 31  1  0  0  0
 32 37  1  0  0  0
 33 36  1  0  0  0
 34 38  1  0  0  0
 35 39  2  0  0  0
 36 37  2  0  0  0
 38 40  2  0  0  0
 39 40  1  0  0  0
M  END
>  <CHROM.0>
176.46992814,-60.58009519,-60.41737150

>  <CHROM.1>
-27.21737069,167.79778017,-166.90887950,-179.70222214,161.23585547,-174.35985567
-60.56480082,122.45726124,71.17102354,-47.95477224,-2.13584120,17.73981339
0.68484160,-0.03603186,0.48708882

>  <Name>
5281600

>  <PUBCHEM_ATOM_DEF_STEREO_COUNT>
0

>  <PUBCHEM_ATOM_UDEF_STEREO_COUNT>
0

>  <PUBCHEM_BOND_DEF_STEREO_COUNT>
0

>  <PUBCHEM_BOND_UDEF_STEREO_COUNT>
0

>  <PUBCHEM_CACTVS_TAUTO_COUNT>
994

>  <PUBCHEM_COMPONENT_COUNT>
1

>  <PUBCHEM_COMPOUND_CID>
5281600

>  <PUBCHEM_CONFORMER_DIVERSEORDER>
1
12
7
6
5
11
9
4
8
3
2
10

>  <PUBCHEM_CONFORMER_ID>
0050974000000001

>  <PUBCHEM_CONFORMER_RMSD>
0.8

>  <PUBCHEM_COORDINATE_TYPE>
2
5
10

>  <PUBCHEM_EFFECTIVE_ROTOR_COUNT>
3

>  <PUBCHEM_FEATURE_SELFOVERLAP>
81.26

>  <PUBCHEM_HEAVY_ATOM_COUNT>
40

>  <PUBCHEM_ISOTOPIC_ATOM_COUNT>
0

>  <PUBCHEM_MMFF94_ENERGY>
134.7783

>  <PUBCHEM_MMFF94_PARTIAL_CHARGES>
56
1 -0.16
10 -0.53
12 0.08
14 0.09
15 0.03
16 -0.15
17 0.08
18 0.08
19 0.08
2 -0.16
20 0.05
21 -0.15
22 0.05
23 0.47
24 -0.15
25 -0.15
26 -0.14
27 0.09
28 0.08
29 0.03
3 -0.53
30 -0.14
31 0.47
32 0.08
33 -0.15
34 -0.15
35 -0.15
36 0.08
37 -0.15
38 -0.15
39 -0.15
4 -0.53
40 0.08
41 0.15
42 0.15
43 0.15
44 0.15
45 0.15
46 0.15
47 0.15
48 0.15
49 0.15
5 -0.53
50 0.45
51 0.15
52 0.45
53 0.45
54 0.15
55 0.15
56 0.45
57 0.45
58 0.45
6 -0.57
7 -0.53
8 -0.57
9 -0.53

>  <PUBCHEM_PHARMACOPHORE_FEATURES>
16
1 1 acceptor
1 10 donor
1 2 acceptor
1 3 donor
1 4 donor
1 5 donor
1 6 acceptor
1 7 donor
1 8 acceptor
1 9 donor
6 1 12 14 22 23 26 rings
6 11 12 14 17 19 21 rings
6 13 15 16 18 24 25 rings
6 2 20 27 28 30 31 rings
6 27 28 32 33 36 37 rings
6 29 34 35 38 39 40 rings

>  <PUBCHEM_SHAPE_FINGERPRINT>
10074138 170 18272931639651384535
10462674 125 17618475011381580750
10622 236 18044087084485364727
10928967 22 18186794777961395306
11135926 11 16589159410442702964
11434127 23 16988854868850209122
11552529 35 18337099142617264300
12128747 34 17416426289408154158
12422481 6 17970917660810484883
12559416 138 17458053868550942330
131258 38 17040625661602271054
14040221 299 18130520668696863620
14068700 675 18126558149519363943
14395042 24 18339370777318689755
14674994 50 18189596350705326935
14705955 166 17345771702192931481
14856354 85 18343864420652166036
14950920 106 18341324578619618192
15320294 125 18260278451476051767
15361156 5 15359116841693389420
15484559 13 15440400299685403118
16728300 4 17967823739013222547
19319366 153 16671943977149260761
20554085 129 18057606456813237473
20775530 9 17974003148226375983
21033648 29 17986692393200921257
21133410 221 17108453988390366882
23516275 137 17830492447455348050
3882209 13 17628068207685272503
4394409 98 18410292537089562351
44880168 125 18338798914801616118
484985 159 18337095835418697607
50080093 196 18113889468875184482
5085150 59 18337387146281907241
5171179 24 16967460284478114997
581034 39 18412830166090923426

>  <PUBCHEM_SHAPE_MULTIPOLES>
764.49
14.59
6.24
3.18
25.21
8.64
-0.18
2.69
-10.24
-12.46
1.99
1.74
-0.93
-5.25

>  <PUBCHEM_SHAPE_SELFOVERLAP>
1749.357

>  <PUBCHEM_SHAPE_VOLUME>
392.9

>  <RI>
-5.90875e+08

>  <Rbt.Current_Directory>
/root/miniconda3/envs/rdock/share/rxdock-2013.1.1_148c5bd1-0/data/ligands/prepped_ligands/Amentoflavone

>  <Rbt.Executable>
rbdock/0.1.0

>  <Rbt.Library>
librxdock.so/0.1.0

>  <Rbt.Parameter_File>
/root/miniconda3/envs/rdock/share/rxdock-2013.1.1_148c5bd1-0/data/scripts/dock.prm

>  <Rbt.Receptor>
def.prm

>  <SCORE>
-16.468

>  <SCORE.INTER>
-18.0155

>  <SCORE.INTER.CONST>
1

>  <SCORE.INTER.POLAR>
-0.782151

>  <SCORE.INTER.REPUL>
0.0204114

>  <SCORE.INTER.ROT>
3

>  <SCORE.INTER.VDW>
-23.8583

>  <SCORE.INTER.norm>
-0.450388

>  <SCORE.INTRA>
1.95112

>  <SCORE.INTRA.DIHEDRAL>
6.11065

>  <SCORE.INTRA.DIHEDRAL.0>
7.26727

>  <SCORE.INTRA.POLAR>
0

>  <SCORE.INTRA.POLAR.0>
0

>  <SCORE.INTRA.REPUL>
0

>  <SCORE.INTRA.REPUL.0>
0

>  <SCORE.INTRA.VDW>
-1.10421

>  <SCORE.INTRA.VDW.0>
0.367007

>  <SCORE.INTRA.norm>
0.048778

>  <SCORE.RESTR>
0.630972

>  <SCORE.RESTR.CAVITY>
0.630972

>  <SCORE.RESTR.norm>
0.0157743

>  <SCORE.SYSTEM>
-1.03456

>  <SCORE.SYSTEM.CONST>
0

>  <SCORE.SYSTEM.DIHEDRAL>
0.0358844

>  <SCORE.SYSTEM.VDW>
-1.05251

>  <SCORE.SYSTEM.norm>
-0.0258641

>  <SCORE.heavy>
40

>  <SCORE.norm>
-0.4117

$$$$
5281600
  RxDock  02242112453D
librxdock.so/0.1.0
 46 51  0  0  0  0  0  0  0  0999 V2000
  -50.5510   -4.8181   17.7600 O   0  0  0  0  0  0
  -47.9469   -1.1250   19.8283 O   0  0  0  0  0  0
  -52.5027   -4.4992   22.0965 O   0  0  0  0  0  0
  -53.9375   -3.1626   19.8851 O   0  0  0  0  0  0
  -51.4967   -8.7916   20.3697 O   0  0  0  0  0  0
  -50.4315   -8.8849   17.9737 O   0  0  0  0  0  0
  -44.9976    2.5481   18.6857 O   0  0  0  0  0  0
  -47.5924    2.6377   18.3067 O   0  0  0  0  0  0
  -43.2692   -1.4532   20.5719 O   0  0  0  0  0  0
  -48.2612   -2.5827   12.3057 O   0  0  0  0  0  0
  -51.5170   -4.6586   19.9085 C   0  0  0  0  0  0
  -51.0155   -5.4579   18.8810 C   0  0  0  0  0  0
  -51.5368   -3.2119   19.7760 C   0  0  0  0  0  0
  -51.0027   -6.8447   19.0203 C   0  0  0  0  0  0
  -50.3289   -1.1384   19.5244 C   0  0  0  0  0  0
  -50.3297   -2.5273   19.6543 C   0  0  0  0  0  0
  -52.0041   -5.2516   21.0736 C   0  0  0  0  0  0
  -52.7431   -2.5152   19.7687 C   0  0  0  0  0  0
  -51.4898   -7.4423   20.1850 C   0  0  0  0  0  0
  -49.0519   -0.4084   19.3950 C   0  0  0  0  0  0
  -51.9903   -6.6403   21.2113 C   0  0  0  0  0  0
  -50.0402   -5.5865   16.7248 C   0  0  0  0  0  0
  -50.4701   -7.6635   17.9206 C   0  0  0  0  0  0
  -51.5352   -0.4381   19.5163 C   0  0  0  0  0  0
  -52.7424   -1.1263   19.6388 C   0  0  0  0  0  0
  -49.9805   -6.9276   16.7374 C   0  0  0  0  0  0
  -46.5191    0.7487   19.2360 C   0  0  0  0  0  0
  -46.7112   -0.5349   19.7444 C   0  0  0  0  0  0
  -49.5744   -4.7984   15.5661 C   0  0  0  0  0  0
  -48.9951    0.8305   18.8807 C   0  0  0  0  0  0
  -47.6879    1.5084   18.7670 C   0  0  0  0  0  0
  -45.2371    1.2993   19.1738 C   0  0  0  0  0  0
  -45.6191   -1.2773   20.1942 C   0  0  0  0  0  0
  -48.6717   -3.7480   15.7493 C   0  0  0  0  0  0
  -50.0335   -5.1002   14.2818 C   0  0  0  0  0  0
  -44.3370   -0.7309   20.1339 C   0  0  0  0  0  0
  -44.1465    0.5547   19.6248 C   0  0  0  0  0  0
  -48.2310   -3.0038   14.6548 C   0  0  0  0  0  0
  -49.5927   -4.3564   13.1872 C   0  0  0  0  0  0
  -48.6915   -3.3081   13.3738 C   0  0  0  0  0  0
  -52.1504   -3.5952   22.0299 H   0  0  0  0  0  0
  -54.6059   -2.5411   20.2209 H   0  0  0  0  0  0
  -51.5765   -9.0057   21.3118 H   0  0  0  0  0  0
  -45.6884    2.8056   18.0561 H   0  0  0  0  0  0
  -42.5073   -0.8578   20.6772 H   0  0  0  0  0  0
  -48.9668   -2.5583   11.6364 H   0  0  0  0  0  0
  1 12  1  0  0  0
  1 22  1  0  0  0
  2 20  1  0  0  0
  2 28  1  0  0  0
  3 17  1  0  0  0
  3 41  1  0  0  0
  4 18  1  0  0  0
  4 42  1  0  0  0
  5 19  1  0  0  0
  5 43  1  0  0  0
  6 23  2  0  0  0
  7 32  1  0  0  0
  7 44  1  0  0  0
  8 31  2  0  0  0
  9 36  1  0  0  0
  9 45  1  0  0  0
 10 40  1  0  0  0
 10 46  1  0  0  0
 11 12  1  0  0  0
 11 13  1  0  0  0
 11 17  2  0  0  0
 12 14  2  0  0  0
 13 16  1  0  0  0
 13 18  2  0  0  0
 14 19  1  0  0  0
 14 23  1  0  0  0
 15 16  2  0  0  0
 15 20  1  0  0  0
 15 24  1  0  0  0
 17 21  1  0  0  0
 18 25  1  0  0  0
 19 21  2  0  0  0
 20 30  2  0  0  0
 22 26  2  0  0  0
 22 29  1  0  0  0
 23 26  1  0  0  0
 24 25  2  0  0  0
 27 28  1  0  0  0
 27 31  1  0  0  0
 27 32  2  0  0  0
 28 33  2  0  0  0
 29 34  2  0  0  0
 29 35  1  0  0  0
 30 31  1  0  0  0
 32 37  1  0  0  0
 33 36  1  0  0  0
 34 38  1  0  0  0
 35 39  2  0  0  0
 36 37  2  0  0  0
 38 40  2  0  0  0
 39 40  1  0  0  0
M  END
>  <CHROM.0>
69.91433005,174.77002633,52.16238283

>  <CHROM.1>
-21.73690960,156.95750822,160.68595565,-25.90929507,-165.36912209,-149.20856951
-63.07096216,-19.21102364,52.54375951,-49.30314433,-2.99004180,18.49397590
-2.70217693,0.83435814,1.03514807

>  <Name>
5281600

>  <PUBCHEM_ATOM_DEF_STEREO_COUNT>
0

>  <PUBCHEM_ATOM_UDEF_STEREO_COUNT>
0

>  <PUBCHEM_BOND_DEF_STEREO_COUNT>
0

>  <PUBCHEM_BOND_UDEF_STEREO_COUNT>
0

>  <PUBCHEM_CACTVS_TAUTO_COUNT>
994

>  <PUBCHEM_COMPONENT_COUNT>
1

>  <PUBCHEM_COMPOUND_CID>
5281600

>  <PUBCHEM_CONFORMER_DIVERSEORDER>
1
12
7
6
5
11
9
4
8
3
2
10

>  <PUBCHEM_CONFORMER_ID>
0050974000000001

>  <PUBCHEM_CONFORMER_RMSD>
0.8

>  <PUBCHEM_COORDINATE_TYPE>
2
5
10

>  <PUBCHEM_EFFECTIVE_ROTOR_COUNT>
3

>  <PUBCHEM_FEATURE_SELFOVERLAP>
81.26

>  <PUBCHEM_HEAVY_ATOM_COUNT>
40

>  <PUBCHEM_ISOTOPIC_ATOM_COUNT>
0

>  <PUBCHEM_MMFF94_ENERGY>
134.7783

>  <PUBCHEM_MMFF94_PARTIAL_CHARGES>
56
1 -0.16
10 -0.53
12 0.08
14 0.09
15 0.03
16 -0.15
17 0.08
18 0.08
19 0.08
2 -0.16
20 0.05
21 -0.15
22 0.05
23 0.47
24 -0.15
25 -0.15
26 -0.14
27 0.09
28 0.08
29 0.03
3 -0.53
30 -0.14
31 0.47
32 0.08
33 -0.15
34 -0.15
35 -0.15
36 0.08
37 -0.15
38 -0.15
39 -0.15
4 -0.53
40 0.08
41 0.15
42 0.15
43 0.15
44 0.15
45 0.15
46 0.15
47 0.15
48 0.15
49 0.15
5 -0.53
50 0.45
51 0.15
52 0.45
53 0.45
54 0.15
55 0.15
56 0.45
57 0.45
58 0.45
6 -0.57
7 -0.53
8 -0.57
9 -0.53

>  <PUBCHEM_PHARMACOPHORE_FEATURES>
16
1 1 acceptor
1 10 donor
1 2 acceptor
1 3 donor
1 4 donor
1 5 donor
1 6 acceptor
1 7 donor
1 8 acceptor
1 9 donor
6 1 12 14 22 23 26 rings
6 11 12 14 17 19 21 rings
6 13 15 16 18 24 25 rings
6 2 20 27 28 30 31 rings
6 27 28 32 33 36 37 rings
6 29 34 35 38 39 40 rings

>  <PUBCHEM_SHAPE_FINGERPRINT>
10074138 170 18272931639651384535
10462674 125 17618475011381580750
10622 236 18044087084485364727
10928967 22 18186794777961395306
11135926 11 16589159410442702964
11434127 23 16988854868850209122
11552529 35 18337099142617264300
12128747 34 17416426289408154158
12422481 6 17970917660810484883
12559416 138 17458053868550942330
131258 38 17040625661602271054
14040221 299 18130520668696863620
14068700 675 18126558149519363943
14395042 24 18339370777318689755
14674994 50 18189596350705326935
14705955 166 17345771702192931481
14856354 85 18343864420652166036
14950920 106 18341324578619618192
15320294 125 18260278451476051767
15361156 5 15359116841693389420
15484559 13 15440400299685403118
16728300 4 17967823739013222547
19319366 153 16671943977149260761
20554085 129 18057606456813237473
20775530 9 17974003148226375983
21033648 29 17986692393200921257
21133410 221 17108453988390366882
23516275 137 17830492447455348050
3882209 13 17628068207685272503
4394409 98 18410292537089562351
44880168 125 18338798914801616118
484985 159 18337095835418697607
50080093 196 18113889468875184482
5085150 59 18337387146281907241
5171179 24 16967460284478114997
581034 39 18412830166090923426

>  <PUBCHEM_SHAPE_MULTIPOLES>
764.49
14.59
6.24
3.18
25.21
8.64
-0.18
2.69
-10.24
-12.46
1.99
1.74
-0.93
-5.25

>  <PUBCHEM_SHAPE_SELFOVERLAP>
1749.357

>  <PUBCHEM_SHAPE_VOLUME>
392.9

>  <RI>
-5.90875e+08

>  <Rbt.Current_Directory>
/root/miniconda3/envs/rdock/share/rxdock-2013.1.1_148c5bd1-0/data/ligands/prepped_ligands/Amentoflavone

>  <Rbt.Executable>
rbdock/0.1.0

>  <Rbt.Library>
librxdock.so/0.1.0

>  <Rbt.Parameter_File>
/root/miniconda3/envs/rdock/share/rxdock-2013.1.1_148c5bd1-0/data/scripts/dock.prm

>  <Rbt.Receptor>
def.prm

>  <SCORE>
-12.1311

>  <SCORE.INTER>
-12.9541

>  <SCORE.INTER.CONST>
1

>  <SCORE.INTER.POLAR>
-1.54996

>  <SCORE.INTER.REPUL>
0.00048004

>  <SCORE.INTER.ROT>
3

>  <SCORE.INTER.VDW>
-16.0866

>  <SCORE.INTER.norm>
-0.323852

>  <SCORE.INTRA>
1.40788

>  <SCORE.INTRA.DIHEDRAL>
4.47699

>  <SCORE.INTRA.DIHEDRAL.0>
7.26727

>  <SCORE.INTRA.POLAR>
0

>  <SCORE.INTRA.POLAR.0>
0

>  <SCORE.INTRA.REPUL>
0

>  <SCORE.INTRA.REPUL.0>
0

>  <SCORE.INTRA.VDW>
-0.830613

>  <SCORE.INTRA.VDW.0>
0.367007

>  <SCORE.INTRA.norm>
0.035197

>  <SCORE.RESTR>
0.184877

>  <SCORE.RESTR.CAVITY>
0.184877

>  <SCORE.RESTR.norm>
0.00462192

>  <SCORE.SYSTEM>
-0.769783

>  <SCORE.SYSTEM.CONST>
0

>  <SCORE.SYSTEM.DIHEDRAL>
0.520115

>  <SCORE.SYSTEM.VDW>
-1.02984

>  <SCORE.SYSTEM.norm>
-0.0192446

>  <SCORE.heavy>
40

>  <SCORE.norm>
-0.303278

$$$$
5281600
  RxDock  02242112453D
librxdock.so/0.1.0
 46 51  0  0  0  0  0  0  0  0999 V2000
  -48.1579   -1.5274   18.3987 O   0  0  0  0  0  0
  -49.8536   -5.2050   16.4591 O   0  0  0  0  0  0
  -44.7247   -1.3834   15.0959 O   0  0  0  0  0  0
  -46.5158   -0.3561   14.1386 O   0  0  0  0  0  0
  -43.6289   -0.2499   19.5606 O   0  0  0  0  0  0
  -45.5741   -0.3455   21.3187 O   0  0  0  0  0  0
  -54.0818   -7.5701   16.3043 O   0  0  0  0  0  0
  -53.5779   -5.4609   14.8272 O   0  0  0  0  0  0
  -50.6064   -9.0030   19.2067 O   0  0  0  0  0  0
  -54.0341   -2.4409   20.5496 O   0  0  0  0  0  0
  -46.4578   -1.4574   16.7617 C   0  0  0  0  0  0
  -46.8433   -1.2840   18.0912 C   0  0  0  0  0  0
  -47.4240   -1.8786   15.7617 C   0  0  0  0  0  0
  -45.9069   -0.8789   19.0408 C   0  0  0  0  0  0
  -49.2957   -3.2720   15.1479 C   0  0  0  0  0  0
  -48.3592   -2.8561   16.0943 C   0  0  0  0  0  0
  -45.1342   -1.2247   16.3874 C   0  0  0  0  0  0
  -47.4201   -1.3150   14.4877 C   0  0  0  0  0  0
  -44.5808   -0.6445   18.6702 C   0  0  0  0  0  0
  -50.2890   -4.3078   15.4958 C   0  0  0  0  0  0
  -44.1979   -0.8193   17.3398 C   0  0  0  0  0  0
  -48.5686   -1.3698   19.7138 C   0  0  0  0  0  0
  -46.3410   -0.7019   20.4349 C   0  0  0  0  0  0
  -49.2946   -2.7093   13.8716 C   0  0  0  0  0  0
  -48.3567   -1.7309   13.5413 C   0  0  0  0  0  0
  -47.7645   -0.9784   20.7150 C   0  0  0  0  0  0
  -51.9925   -6.3495   16.3374 C   0  0  0  0  0  0
  -50.7067   -6.2036   16.8554 C   0  0  0  0  0  0
  -50.0017   -1.6512   19.9324 C   0  0  0  0  0  0
  -51.5050   -4.3399   14.9278 C   0  0  0  0  0  0
  -52.4612   -5.3943   15.3221 C   0  0  0  0  0  0
  -52.8185   -7.3856   16.7789 C   0  0  0  0  0  0
  -50.2386   -7.0952   17.8209 C   0  0  0  0  0  0
  -50.3952   -2.5747   20.9040 C   0  0  0  0  0  0
  -50.9703   -0.9946   19.1693 C   0  0  0  0  0  0
  -51.0605   -8.1315   18.2643 C   0  0  0  0  0  0
  -52.3476   -8.2763   17.7443 C   0  0  0  0  0  0
  -51.7489   -2.8401   21.1111 C   0  0  0  0  0  0
  -52.3240   -1.2598   19.3764 C   0  0  0  0  0  0
  -52.7133   -2.1826   20.3473 C   0  0  0  0  0  0
  -45.2058   -2.1285   14.6971 H   0  0  0  0  0  0
  -46.2325   -0.5041   13.2201 H   0  0  0  0  0  0
  -44.0229   -0.0917   20.4321 H   0  0  0  0  0  0
  -54.2428   -7.0018   15.5354 H   0  0  0  0  0  0
  -49.6481   -9.1224   19.0904 H   0  0  0  0  0  0
  -54.5479   -2.0395   19.8276 H   0  0  0  0  0  0
  1 12  1  0  0  0
  1 22  1  0  0  0
  2 20  1  0  0  0
  2 28  1  0  0  0
  3 17  1  0  0  0
  3 41  1  0  0  0
  4 18  1  0  0  0
  4 42  1  0  0  0
  5 19  1  0  0  0
  5 43  1  0  0  0
  6 23  2  0  0  0
  7 32  1  0  0  0
  7 44  1  0  0  0
  8 31  2  0  0  0
  9 36  1  0  0  0
  9 45  1  0  0  0
 10 40  1  0  0  0
 10 46  1  0  0  0
 11 12  1  0  0  0
 11 13  1  0  0  0
 11 17  2  0  0  0
 12 14  2  0  0  0
 13 16  1  0  0  0
 13 18  2  0  0  0
 14 19  1  0  0  0
 14 23  1  0  0  0
 15 16  2  0  0  0
 15 20  1  0  0  0
 15 24  1  0  0  0
 17 21  1  0  0  0
 18 25  1  0  0  0
 19 21  2  0  0  0
 20 30  2  0  0  0
 22 26  2  0  0  0
 22 29  1  0  0  0
 23 26  1  0  0  0
 24 25  2  0  0  0
 27 28  1  0  0  0
 27 31  1  0  0  0
 27 32  2  0  0  0
 28 33  2  0  0  0
 29 34  2  0  0  0
 29 35  1  0  0  0
 30 31  1  0  0  0
 32 37  1  0  0  0
 33 36  1  0  0  0
 34 38  1  0  0  0
 35 39  2  0  0  0
 36 37  2  0  0  0
 38 40  2  0  0  0
 39 40  1  0  0  0
M  END
>  <CHROM.0>
-178.21131142,-64.80313851,-59.09713667

>  <CHROM.1>
-35.37094096,141.60649037,-4.75868298,10.17500807,-32.78231352,-168.92222901
-40.49831140,-28.83289677,125.94784515,-49.20773982,-3.15855925,17.55859294
0.32293246,0.63684919,1.19450919

>  <Name>
5281600

>  <PUBCHEM_ATOM_DEF_STEREO_COUNT>
0

>  <PUBCHEM_ATOM_UDEF_STEREO_COUNT>
0

>  <PUBCHEM_BOND_DEF_STEREO_COUNT>
0

>  <PUBCHEM_BOND_UDEF_STEREO_COUNT>
0

>  <PUBCHEM_CACTVS_TAUTO_COUNT>
994

>  <PUBCHEM_COMPONENT_COUNT>
1

>  <PUBCHEM_COMPOUND_CID>
5281600

>  <PUBCHEM_CONFORMER_DIVERSEORDER>
1
12
7
6
5
11
9
4
8
3
2
10

>  <PUBCHEM_CONFORMER_ID>
0050974000000001

>  <PUBCHEM_CONFORMER_RMSD>
0.8

>  <PUBCHEM_COORDINATE_TYPE>
2
5
10

>  <PUBCHEM_EFFECTIVE_ROTOR_COUNT>
3

>  <PUBCHEM_FEATURE_SELFOVERLAP>
81.26

>  <PUBCHEM_HEAVY_ATOM_COUNT>
40

>  <PUBCHEM_ISOTOPIC_ATOM_COUNT>
0

>  <PUBCHEM_MMFF94_ENERGY>
134.7783

>  <PUBCHEM_MMFF94_PARTIAL_CHARGES>
56
1 -0.16
10 -0.53
12 0.08
14 0.09
15 0.03
16 -0.15
17 0.08
18 0.08
19 0.08
2 -0.16
20 0.05
21 -0.15
22 0.05
23 0.47
24 -0.15
25 -0.15
26 -0.14
27 0.09
28 0.08
29 0.03
3 -0.53
30 -0.14
31 0.47
32 0.08
33 -0.15
34 -0.15
35 -0.15
36 0.08
37 -0.15
38 -0.15
39 -0.15
4 -0.53
40 0.08
41 0.15
42 0.15
43 0.15
44 0.15
45 0.15
46 0.15
47 0.15
48 0.15
49 0.15
5 -0.53
50 0.45
51 0.15
52 0.45
53 0.45
54 0.15
55 0.15
56 0.45
57 0.45
58 0.45
6 -0.57
7 -0.53
8 -0.57
9 -0.53

>  <PUBCHEM_PHARMACOPHORE_FEATURES>
16
1 1 acceptor
1 10 donor
1 2 acceptor
1 3 donor
1 4 donor
1 5 donor
1 6 acceptor
1 7 donor
1 8 acceptor
1 9 donor
6 1 12 14 22 23 26 rings
6 11 12 14 17 19 21 rings
6 13 15 16 18 24 25 rings
6 2 20 27 28 30 31 rings
6 27 28 32 33 36 37 rings
6 29 34 35 38 39 40 rings

>  <PUBCHEM_SHAPE_FINGERPRINT>
10074138 170 18272931639651384535
10462674 125 17618475011381580750
10622 236 18044087084485364727
10928967 22 18186794777961395306
11135926 11 16589159410442702964
11434127 23 16988854868850209122
11552529 35 18337099142617264300
12128747 34 17416426289408154158
12422481 6 17970917660810484883
12559416 138 17458053868550942330
131258 38 17040625661602271054
14040221 299 18130520668696863620
14068700 675 18126558149519363943
14395042 24 18339370777318689755
14674994 50 18189596350705326935
14705955 166 17345771702192931481
14856354 85 18343864420652166036
14950920 106 18341324578619618192
15320294 125 18260278451476051767
15361156 5 15359116841693389420
15484559 13 15440400299685403118
16728300 4 17967823739013222547
19319366 153 16671943977149260761
20554085 129 18057606456813237473
20775530 9 17974003148226375983
21033648 29 17986692393200921257
21133410 221 17108453988390366882
23516275 137 17830492447455348050
3882209 13 17628068207685272503
4394409 98 18410292537089562351
44880168 125 18338798914801616118
484985 159 18337095835418697607
50080093 196 18113889468875184482
5085150 59 18337387146281907241
5171179 24 16967460284478114997
581034 39 18412830166090923426

>  <PUBCHEM_SHAPE_MULTIPOLES>
764.49
14.59
6.24
3.18
25.21
8.64
-0.18
2.69
-10.24
-12.46
1.99
1.74
-0.93
-5.25

>  <PUBCHEM_SHAPE_SELFOVERLAP>
1749.357

>  <PUBCHEM_SHAPE_VOLUME>
392.9

>  <RI>
-5.90875e+08

>  <Rbt.Current_Directory>
/root/miniconda3/envs/rdock/share/rxdock-2013.1.1_148c5bd1-0/data/ligands/prepped_ligands/Amentoflavone

>  <Rbt.Executable>
rbdock/0.1.0

>  <Rbt.Library>
librxdock.so/0.1.0

>  <Rbt.Parameter_File>
/root/miniconda3/envs/rdock/share/rxdock-2013.1.1_148c5bd1-0/data/scripts/dock.prm

>  <Rbt.Receptor>
def.prm

>  <SCORE>
-14.2358

>  <SCORE.INTER>
-18.3882

>  <SCORE.INTER.CONST>
1

>  <SCORE.INTER.POLAR>
-1.63667

>  <SCORE.INTER.REPUL>
0

>  <SCORE.INTER.ROT>
3

>  <SCORE.INTER.VDW>
-21.2235

>  <SCORE.INTER.norm>
-0.459704

>  <SCORE.INTRA>
4.91878

>  <SCORE.INTRA.DIHEDRAL>
4.31925

>  <SCORE.INTRA.DIHEDRAL.0>
7.26727

>  <SCORE.INTRA.POLAR>
0

>  <SCORE.INTRA.POLAR.0>
0

>  <SCORE.INTRA.REPUL>
0

>  <SCORE.INTRA.REPUL.0>
0

>  <SCORE.INTRA.VDW>
2.75915

>  <SCORE.INTRA.VDW.0>
0.367007

>  <SCORE.INTRA.norm>
0.122969

>  <SCORE.RESTR>
0.281653

>  <SCORE.RESTR.CAVITY>
0.281653

>  <SCORE.RESTR.norm>
0.00704133

>  <SCORE.SYSTEM>
-1.0481

>  <SCORE.SYSTEM.CONST>
0

>  <SCORE.SYSTEM.DIHEDRAL>
0.121291

>  <SCORE.SYSTEM.POLAR>
-0.00305212

>  <SCORE.SYSTEM.VDW>
-1.09836

>  <SCORE.SYSTEM.norm>
-0.0262024

>  <SCORE.heavy>
40

>  <SCORE.norm>
-0.355896

$$$$
5281600
  RxDock  02242112453D
librxdock.so/0.1.0
 46 51  0  0  0  0  0  0  0  0999 V2000
  -47.8716   -1.2682   18.4972 O   0  0  0  0  0  0
  -49.5087   -5.3583   16.7997 O   0  0  0  0  0  0
  -44.1351   -2.1344   15.6680 O   0  0  0  0  0  0
  -45.8710   -0.7648   14.4112 O   0  0  0  0  0  0
  -43.3464   -0.4058   20.0050 O   0  0  0  0  0  0
  -45.4540    0.0518   21.4992 O   0  0  0  0  0  0
  -53.7826   -7.6243   16.4923 O   0  0  0  0  0  0
  -53.1116   -5.6354   14.9178 O   0  0  0  0  0  0
  -50.5693   -8.9372   19.7336 O   0  0  0  0  0  0
  -54.0072   -1.0399   20.0069 O   0  0  0  0  0  0
  -46.0214   -1.6987   17.0950 C   0  0  0  0  0  0
  -46.5110   -1.2525   18.3228 C   0  0  0  0  0  0
  -46.9317   -2.1564   16.0592 C   0  0  0  0  0  0
  -45.6272   -0.8152   19.3079 C   0  0  0  0  0  0
  -48.8010   -3.5351   15.4062 C   0  0  0  0  0  0
  -47.9168   -3.0853   16.3868 C   0  0  0  0  0  0
  -44.6466   -1.7059   16.8579 C   0  0  0  0  0  0
  -46.8259   -1.6750   14.7563 C   0  0  0  0  0  0
  -44.2501   -0.8206   19.0743 C   0  0  0  0  0  0
  -49.8469   -4.5196   15.7487 C   0  0  0  0  0  0
  -43.7631   -1.2680   17.8456 C   0  0  0  0  0  0
  -48.3869   -0.8367   19.7101 C   0  0  0  0  0  0
  -46.1707   -0.3483   20.5923 C   0  0  0  0  0  0
  -48.6977   -3.0547   14.1008 C   0  0  0  0  0  0
  -47.7101   -2.1248   13.7756 C   0  0  0  0  0  0
  -47.6405   -0.3870   20.7314 C   0  0  0  0  0  0
  -51.6661   -6.4558   16.5976 C   0  0  0  0  0  0
  -50.4172   -6.3058   17.1982 C   0  0  0  0  0  0
  -49.8606   -0.8894   19.7885 C   0  0  0  0  0  0
  -51.0192   -4.5613   15.0957 C   0  0  0  0  0  0
  -52.0320   -5.5620   15.4883 C   0  0  0  0  0  0
  -52.5520   -7.4383   17.0455 C   0  0  0  0  0  0
  -50.0465   -7.1396   18.2535 C   0  0  0  0  0  0
  -50.6372   -0.0946   18.9418 C   0  0  0  0  0  0
  -50.4847   -1.7349   20.7090 C   0  0  0  0  0  0
  -50.9284   -8.1222   18.7037 C   0  0  0  0  0  0
  -52.1784   -8.2712   18.1009 C   0  0  0  0  0  0
  -52.0293   -0.1448   19.0152 C   0  0  0  0  0  0
  -51.8767   -1.7853   20.7824 C   0  0  0  0  0  0
  -52.6491   -0.9902   19.9355 C   0  0  0  0  0  0
  -43.2439   -1.7631   15.5507 H   0  0  0  0  0  0
  -45.8170   -0.7112   13.4417 H   0  0  0  0  0  0
  -42.4608   -0.3443   19.6155 H   0  0  0  0  0  0
  -54.0652   -8.5462   16.5931 H   0  0  0  0  0  0
  -51.3605   -9.3982   20.0617 H   0  0  0  0  0  0
  -54.2638   -1.6978   20.6761 H   0  0  0  0  0  0
  1 12  1  0  0  0
  1 22  1  0  0  0
  2 20  1  0  0  0
  2 28  1  0  0  0
  3 17  1  0  0  0
  3 41  1  0  0  0
  4 18  1  0  0  0
  4 42  1  0  0  0
  5 19  1  0  0  0
  5 43  1  0  0  0
  6 23  2  0  0  0
  7 32  1  0  0  0
  7 44  1  0  0  0
  8 31  2  0  0  0
  9 36  1  0  0  0
  9 45  1  0  0  0
 10 40  1  0  0  0
 10 46  1  0  0  0
 11 12  1  0  0  0
 11 13  1  0  0  0
 11 17  2  0  0  0
 12 14  2  0  0  0
 13 16  1  0  0  0
 13 18  2  0  0  0
 14 19  1  0  0  0
 14 23  1  0  0  0
 15 16  2  0  0  0
 15 20  1  0  0  0
 15 24  1  0  0  0
 17 21  1  0  0  0
 18 25  1  0  0  0
 19 21  2  0  0  0
 20 30  2  0  0  0
 22 26  2  0  0  0
 22 29  1  0  0  0
 23 26  1  0  0  0
 24 25  2  0  0  0
 27 28  1  0  0  0
 27 31  1  0  0  0
 27 32  2  0  0  0
 28 33  2  0  0  0
 29 34  2  0  0  0
 29 35  1  0  0  0
 30 31  1  0  0  0
 32 37  1  0  0  0
 33 36  1  0  0  0
 34 38  1  0  0  0
 35 39  2  0  0  0
 36 37  2  0  0  0
 38 40  2  0  0  0
 39 40  1  0  0  0
M  END
>  <CHROM.0>
-49.54278999,61.79120273,-66.43956051

>  <CHROM.1>
158.47647552,166.70578746,-170.71145937,152.23671605,165.91081722,178.13775251
-49.53792408,-28.34480085,-63.66646975,-48.89458903,-3.06931943,17.74217324
0.56046668,0.47633134,0.82946009

>  <Name>
5281600

>  <PUBCHEM_ATOM_DEF_STEREO_COUNT>
0

>  <PUBCHEM_ATOM_UDEF_STEREO_COUNT>
0

>  <PUBCHEM_BOND_DEF_STEREO_COUNT>
0

>  <PUBCHEM_BOND_UDEF_STEREO_COUNT>
0

>  <PUBCHEM_CACTVS_TAUTO_COUNT>
994

>  <PUBCHEM_COMPONENT_COUNT>
1

>  <PUBCHEM_COMPOUND_CID>
5281600

>  <PUBCHEM_CONFORMER_DIVERSEORDER>
1
12
7
6
5
11
9
4
8
3
2
10

>  <PUBCHEM_CONFORMER_ID>
0050974000000001

>  <PUBCHEM_CONFORMER_RMSD>
0.8

>  <PUBCHEM_COORDINATE_TYPE>
2
5
10

>  <PUBCHEM_EFFECTIVE_ROTOR_COUNT>
3

>  <PUBCHEM_FEATURE_SELFOVERLAP>
81.26

>  <PUBCHEM_HEAVY_ATOM_COUNT>
40

>  <PUBCHEM_ISOTOPIC_ATOM_COUNT>
0

>  <PUBCHEM_MMFF94_ENERGY>
134.7783

>  <PUBCHEM_MMFF94_PARTIAL_CHARGES>
56
1 -0.16
10 -0.53
12 0.08
14 0.09
15 0.03
16 -0.15
17 0.08
18 0.08
19 0.08
2 -0.16
20 0.05
21 -0.15
22 0.05
23 0.47
24 -0.15
25 -0.15
26 -0.14
27 0.09
28 0.08
29 0.03
3 -0.53
30 -0.14
31 0.47
32 0.08
33 -0.15
34 -0.15
35 -0.15
36 0.08
37 -0.15
38 -0.15
39 -0.15
4 -0.53
40 0.08
41 0.15
42 0.15
43 0.15
44 0.15
45 0.15
46 0.15
47 0.15
48 0.15
49 0.15
5 -0.53
50 0.45
51 0.15
52 0.45
53 0.45
54 0.15
55 0.15
56 0.45
57 0.45
58 0.45
6 -0.57
7 -0.53
8 -0.57
9 -0.53

>  <PUBCHEM_PHARMACOPHORE_FEATURES>
16
1 1 acceptor
1 10 donor
1 2 acceptor
1 3 donor
1 4 donor
1 5 donor
1 6 acceptor
1 7 donor
1 8 acceptor
1 9 donor
6 1 12 14 22 23 26 rings
6 11 12 14 17 19 21 rings
6 13 15 16 18 24 25 rings
6 2 20 27 28 30 31 rings
6 27 28 32 33 36 37 rings
6 29 34 35 38 39 40 rings

>  <PUBCHEM_SHAPE_FINGERPRINT>
10074138 170 18272931639651384535
10462674 125 17618475011381580750
10622 236 18044087084485364727
10928967 22 18186794777961395306
11135926 11 16589159410442702964
11434127 23 16988854868850209122
11552529 35 18337099142617264300
12128747 34 17416426289408154158
12422481 6 17970917660810484883
12559416 138 17458053868550942330
131258 38 17040625661602271054
14040221 299 18130520668696863620
14068700 675 18126558149519363943
14395042 24 18339370777318689755
14674994 50 18189596350705326935
14705955 166 17345771702192931481
14856354 85 18343864420652166036
14950920 106 18341324578619618192
15320294 125 18260278451476051767
15361156 5 15359116841693389420
15484559 13 15440400299685403118
16728300 4 17967823739013222547
19319366 153 16671943977149260761
20554085 129 18057606456813237473
20775530 9 17974003148226375983
21033648 29 17986692393200921257
21133410 221 17108453988390366882
23516275 137 17830492447455348050
3882209 13 17628068207685272503
4394409 98 18410292537089562351
44880168 125 18338798914801616118
484985 159 18337095835418697607
50080093 196 18113889468875184482
5085150 59 18337387146281907241
5171179 24 16967460284478114997
581034 39 18412830166090923426

>  <PUBCHEM_SHAPE_MULTIPOLES>
764.49
14.59
6.24
3.18
25.21
8.64
-0.18
2.69
-10.24
-12.46
1.99
1.74
-0.93
-5.25

>  <PUBCHEM_SHAPE_SELFOVERLAP>
1749.357

>  <PUBCHEM_SHAPE_VOLUME>
392.9

>  <RI>
-5.90875e+08

>  <Rbt.Current_Directory>
/root/miniconda3/envs/rdock/share/rxdock-2013.1.1_148c5bd1-0/data/ligands/prepped_ligands/Amentoflavone

>  <Rbt.Executable>
rbdock/0.1.0

>  <Rbt.Library>
librxdock.so/0.1.0

>  <Rbt.Parameter_File>
/root/miniconda3/envs/rdock/share/rxdock-2013.1.1_148c5bd1-0/data/scripts/dock.prm

>  <Rbt.Receptor>
def.prm

>  <SCORE>
-12.4989

>  <SCORE.INTER>
-14.8679

>  <SCORE.INTER.CONST>
1

>  <SCORE.INTER.POLAR>
-0.829175

>  <SCORE.INTER.REPUL>
0.139773

>  <SCORE.INTER.ROT>
3

>  <SCORE.INTER.VDW>
-21.1476

>  <SCORE.INTER.norm>
-0.371698

>  <SCORE.INTRA>
2.07323

>  <SCORE.INTRA.DIHEDRAL>
2.87338

>  <SCORE.INTRA.DIHEDRAL.0>
7.26727

>  <SCORE.INTRA.POLAR>
0

>  <SCORE.INTRA.POLAR.0>
0

>  <SCORE.INTRA.REPUL>
0

>  <SCORE.INTRA.REPUL.0>
0

>  <SCORE.INTRA.VDW>
0.636536

>  <SCORE.INTRA.VDW.0>
0.367007

>  <SCORE.INTRA.norm>
0.0518306

>  <SCORE.RESTR>
1.10358

>  <SCORE.RESTR.CAVITY>
1.10358

>  <SCORE.RESTR.norm>
0.0275894

>  <SCORE.SYSTEM>
-0.807801

>  <SCORE.SYSTEM.CONST>
0

>  <SCORE.SYSTEM.DIHEDRAL>
0.378304

>  <SCORE.SYSTEM.VDW>
-0.996953

>  <SCORE.SYSTEM.norm>
-0.020195

>  <SCORE.heavy>
40

>  <SCORE.norm>
-0.312473

$$$$
5281600
  RxDock  02242112453D
librxdock.so/0.1.0
 46 51  0  0  0  0  0  0  0  0999 V2000
  -47.4628   -1.0648   19.1366 O   0  0  0  0  0  0
  -50.1911   -4.1625   16.1982 O   0  0  0  0  0  0
  -43.3250   -2.0228   16.9740 O   0  0  0  0  0  0
  -44.9086   -0.7964   15.3650 O   0  0  0  0  0  0
  -43.2365    0.0786   21.2162 O   0  0  0  0  0  0
  -45.5545    0.5799   22.3385 O   0  0  0  0  0  0
  -52.0414   -8.4682   17.4363 O   0  0  0  0  0  0
  -49.4629   -7.9837   17.4095 O   0  0  0  0  0  0
  -54.8850   -4.8756   16.1862 O   0  0  0  0  0  0
  -53.7591   -0.9349   19.6993 O   0  0  0  0  0  0
  -45.4137   -1.5409   18.0646 C   0  0  0  0  0  0
  -46.0922   -1.0145   19.1640 C   0  0  0  0  0  0
  -46.1473   -2.1133   16.9488 C   0  0  0  0  0  0
  -45.3766   -0.4675   20.2277 C   0  0  0  0  0  0
  -47.8523   -3.6201   16.1461 C   0  0  0  0  0  0
  -47.1362   -3.0607   17.2044 C   0  0  0  0  0  0
  -44.0191   -1.5180   18.0344 C   0  0  0  0  0  0
  -45.8706   -1.7225   15.6406 C   0  0  0  0  0  0
  -43.9803   -0.4424   20.2012 C   0  0  0  0  0  0
  -48.9014   -4.6246   16.4121 C   0  0  0  0  0  0
  -43.3042   -0.9701   19.1005 C   0  0  0  0  0  0
  -48.1642   -0.5552   20.2188 C   0  0  0  0  0  0
  -46.1174    0.0821   21.3733 C   0  0  0  0  0  0
  -47.5777   -3.2306   14.8353 C   0  0  0  0  0  0
  -46.5868   -2.2819   14.5823 C   0  0  0  0  0  0
  -47.5902    0.0021   21.2968 C   0  0  0  0  0  0
  -51.0597   -6.3415   16.8286 C   0  0  0  0  0  0
  -51.2377   -5.0230   16.4128 C   0  0  0  0  0  0
  -49.6314   -0.6543   20.0832 C   0  0  0  0  0  0
  -48.6014   -5.8726   16.8055 C   0  0  0  0  0  0
  -49.6927   -6.8380   17.0478 C   0  0  0  0  0  0
  -52.1630   -7.1736   17.0310 C   0  0  0  0  0  0
  -52.5239   -4.5281   16.1960 C   0  0  0  0  0  0
  -50.3047    0.1372   19.1493 C   0  0  0  0  0  0
  -50.3523   -1.5403   20.8873 C   0  0  0  0  0  0
  -53.6286   -5.3559   16.3972 C   0  0  0  0  0  0
  -53.4484   -6.6757   16.8139 C   0  0  0  0  0  0
  -51.6905    0.0433   19.0206 C   0  0  0  0  0  0
  -51.7381   -1.6345   20.7585 C   0  0  0  0  0  0
  -52.4072   -0.8426   19.8251 C   0  0  0  0  0  0
  -43.6905   -2.8924   16.7373 H   0  0  0  0  0  0
  -44.8306   -0.1841   16.1165 H   0  0  0  0  0  0
  -42.6425    0.7686   20.8832 H   0  0  0  0  0  0
  -51.1458   -8.6388   17.7660 H   0  0  0  0  0  0
  -54.8359   -4.1224   15.5726 H   0  0  0  0  0  0
  -54.0722   -1.6986   20.2142 H   0  0  0  0  0  0
  1 12  1  0  0  0
  1 22  1  0  0  0
  2 20  1  0  0  0
  2 28  1  0  0  0
  3 17  1  0  0  0
  3 41  1  0  0  0
  4 18  1  0  0  0
  4 42  1  0  0  0
  5 19  1  0  0  0
  5 43  1  0  0  0
  6 23  2  0  0  0
  7 32  1  0  0  0
  7 44  1  0  0  0
  8 31  2  0  0  0
  9 36  1  0  0  0
  9 45  1  0  0  0
 10 40  1  0  0  0
 10 46  1  0  0  0
 11 12  1  0  0  0
 11 13  1  0  0  0
 11 17  2  0  0  0
 12 14  2  0  0  0
 13 16  1  0  0  0
 13 18  2  0  0  0
 14 19  1  0  0  0
 14 23  1  0  0  0
 15 16  2  0  0  0
 15 20  1  0  0  0
 15 24  1  0  0  0
 17 21  1  0  0  0
 18 25  1  0  0  0
 19 21  2  0  0  0
 20 30  2  0  0  0
 22 26  2  0  0  0
 22 29  1  0  0  0
 23 26  1  0  0  0
 24 25  2  0  0  0
 27 28  1  0  0  0
 27 31  1  0  0  0
 27 32  2  0  0  0
 28 33  2  0  0  0
 29 34  2  0  0  0
 29 35  1  0  0  0
 30 31  1  0  0  0
 32 37  1  0  0  0
 33 36  1  0  0  0
 34 38  1  0  0  0
 35 39  2  0  0  0
 36 37  2  0  0  0
 38 40  2  0  0  0
 39 40  1  0  0  0
M  END
>  <CHROM.0>
-177.60377532,-61.86602126,155.85503384

>  <CHROM.1>
-46.46118380,-29.23576082,-124.13659774,14.18474082,23.40307050,170.15261539
-50.39382341,108.99407799,-69.73313754,-48.59236034,-2.73842300,18.11851749
0.62891005,0.21367607,0.72686193

>  <Name>
5281600

>  <PUBCHEM_ATOM_DEF_STEREO_COUNT>
0

>  <PUBCHEM_ATOM_UDEF_STEREO_COUNT>
0

>  <PUBCHEM_BOND_DEF_STEREO_COUNT>
0

>  <PUBCHEM_BOND_UDEF_STEREO_COUNT>
0

>  <PUBCHEM_CACTVS_TAUTO_COUNT>
994

>  <PUBCHEM_COMPONENT_COUNT>
1

>  <PUBCHEM_COMPOUND_CID>
5281600

>  <PUBCHEM_CONFORMER_DIVERSEORDER>
1
12
7
6
5
11
9
4
8
3
2
10

>  <PUBCHEM_CONFORMER_ID>
0050974000000001

>  <PUBCHEM_CONFORMER_RMSD>
0.8

>  <PUBCHEM_COORDINATE_TYPE>
2
5
10

>  <PUBCHEM_EFFECTIVE_ROTOR_COUNT>
3

>  <PUBCHEM_FEATURE_SELFOVERLAP>
81.26

>  <PUBCHEM_HEAVY_ATOM_COUNT>
40

>  <PUBCHEM_ISOTOPIC_ATOM_COUNT>
0

>  <PUBCHEM_MMFF94_ENERGY>
134.7783

>  <PUBCHEM_MMFF94_PARTIAL_CHARGES>
56
1 -0.16
10 -0.53
12 0.08
14 0.09
15 0.03
16 -0.15
17 0.08
18 0.08
19 0.08
2 -0.16
20 0.05
21 -0.15
22 0.05
23 0.47
24 -0.15
25 -0.15
26 -0.14
27 0.09
28 0.08
29 0.03
3 -0.53
30 -0.14
31 0.47
32 0.08
33 -0.15
34 -0.15
35 -0.15
36 0.08
37 -0.15
38 -0.15
39 -0.15
4 -0.53
40 0.08
41 0.15
42 0.15
43 0.15
44 0.15
45 0.15
46 0.15
47 0.15
48 0.15
49 0.15
5 -0.53
50 0.45
51 0.15
52 0.45
53 0.45
54 0.15
55 0.15
56 0.45
57 0.45
58 0.45
6 -0.57
7 -0.53
8 -0.57
9 -0.53

>  <PUBCHEM_PHARMACOPHORE_FEATURES>
16
1 1 acceptor
1 10 donor
1 2 acceptor
1 3 donor
1 4 donor
1 5 donor
1 6 acceptor
1 7 donor
1 8 acceptor
1 9 donor
6 1 12 14 22 23 26 rings
6 11 12 14 17 19 21 rings
6 13 15 16 18 24 25 rings
6 2 20 27 28 30 31 rings
6 27 28 32 33 36 37 rings
6 29 34 35 38 39 40 rings

>  <PUBCHEM_SHAPE_FINGERPRINT>
10074138 170 18272931639651384535
10462674 125 17618475011381580750
10622 236 18044087084485364727
10928967 22 18186794777961395306
11135926 11 16589159410442702964
11434127 23 16988854868850209122
11552529 35 18337099142617264300
12128747 34 17416426289408154158
12422481 6 17970917660810484883
12559416 138 17458053868550942330
131258 38 17040625661602271054
14040221 299 18130520668696863620
14068700 675 18126558149519363943
14395042 24 18339370777318689755
14674994 50 18189596350705326935
14705955 166 17345771702192931481
14856354 85 18343864420652166036
14950920 106 18341324578619618192
15320294 125 18260278451476051767
15361156 5 15359116841693389420
15484559 13 15440400299685403118
16728300 4 17967823739013222547
19319366 153 16671943977149260761
20554085 129 18057606456813237473
20775530 9 17974003148226375983
21033648 29 17986692393200921257
21133410 221 17108453988390366882
23516275 137 17830492447455348050
3882209 13 17628068207685272503
4394409 98 18410292537089562351
44880168 125 18338798914801616118
484985 159 18337095835418697607
50080093 196 18113889468875184482
5085150 59 18337387146281907241
5171179 24 16967460284478114997
581034 39 18412830166090923426

>  <PUBCHEM_SHAPE_MULTIPOLES>
764.49
14.59
6.24
3.18
25.21
8.64
-0.18
2.69
-10.24
-12.46
1.99
1.74
-0.93
-5.25

>  <PUBCHEM_SHAPE_SELFOVERLAP>
1749.357

>  <PUBCHEM_SHAPE_VOLUME>
392.9

>  <RI>
-5.90875e+08

>  <Rbt.Current_Directory>
/root/miniconda3/envs/rdock/share/rxdock-2013.1.1_148c5bd1-0/data/ligands/prepped_ligands/Amentoflavone

>  <Rbt.Executable>
rbdock/0.1.0

>  <Rbt.Library>
librxdock.so/0.1.0

>  <Rbt.Parameter_File>
/root/miniconda3/envs/rdock/share/rxdock-2013.1.1_148c5bd1-0/data/scripts/dock.prm

>  <Rbt.Receptor>
def.prm

>  <SCORE>
-12.5696

>  <SCORE.INTER>
-17.596

>  <SCORE.INTER.CONST>
1

>  <SCORE.INTER.POLAR>
-1.51953

>  <SCORE.INTER.REPUL>
0.0133838

>  <SCORE.INTER.ROT>
3

>  <SCORE.INTER.VDW>
-20.8965

>  <SCORE.INTER.norm>
-0.439899

>  <SCORE.INTRA>
4.39231

>  <SCORE.INTRA.DIHEDRAL>
12.2961

>  <SCORE.INTRA.DIHEDRAL.0>
7.26727

>  <SCORE.INTRA.POLAR>
0

>  <SCORE.INTRA.POLAR.0>
0

>  <SCORE.INTRA.REPUL>
0

>  <SCORE.INTRA.REPUL.0>
0

>  <SCORE.INTRA.VDW>
-1.75572

>  <SCORE.INTRA.VDW.0>
0.367007

>  <SCORE.INTRA.norm>
0.109808

>  <SCORE.RESTR>
0.935436

>  <SCORE.RESTR.CAVITY>
0.935436

>  <SCORE.RESTR.norm>
0.0233859

>  <SCORE.SYSTEM>
-0.301342

>  <SCORE.SYSTEM.CONST>
0

>  <SCORE.SYSTEM.DIHEDRAL>
1.3013

>  <SCORE.SYSTEM.VDW>
-0.951994

>  <SCORE.SYSTEM.norm>
-0.00753355

>  <SCORE.heavy>
40

>  <SCORE.norm>
-0.314239

$$$$
5281600
  RxDock  02242112453D
librxdock.so/0.1.0
 46 51  0  0  0  0  0  0  0  0999 V2000
  -47.2377   -0.9259   17.8838 O   0  0  0  0  0  0
  -51.7728   -3.4348   18.3976 O   0  0  0  0  0  0
  -46.4489   -1.0200   22.5833 O   0  0  0  0  0  0
  -48.4680    0.6994   21.8498 O   0  0  0  0  0  0
  -42.7891   -0.2401   19.6820 O   0  0  0  0  0  0
  -43.3023   -0.2108   17.1092 O   0  0  0  0  0  0
  -52.6109   -8.1204   17.4818 O   0  0  0  0  0  0
  -50.8697   -7.3106   19.2699 O   0  0  0  0  0  0
  -54.9545   -4.7310   15.1208 O   0  0  0  0  0  0
  -50.7409   -1.3008   12.6327 O   0  0  0  0  0  0
  -46.8485   -0.9718   20.2122 C   0  0  0  0  0  0
  -46.3448   -0.8212   18.9200 C   0  0  0  0  0  0
  -48.2622   -1.2280   20.4285 C   0  0  0  0  0  0
  -44.9864   -0.5764   18.7259 C   0  0  0  0  0  0
  -50.2066   -2.5948   20.0126 C   0  0  0  0  0  0
  -48.8510   -2.3316   19.8152 C   0  0  0  0  0  0
  -45.9891   -0.8762   21.3070 C   0  0  0  0  0  0
  -49.0216   -0.3861   21.2378 C   0  0  0  0  0  0
  -44.1226   -0.4802   19.8194 C   0  0  0  0  0  0
  -50.8352   -3.7634   19.3647 C   0  0  0  0  0  0
  -44.6293   -0.6307   21.1108 C   0  0  0  0  0  0
  -46.7670   -0.7739   16.5884 C   0  0  0  0  0  0
  -44.4819   -0.4236   17.3528 C   0  0  0  0  0  0
  -50.9695   -1.7538   20.8227 C   0  0  0  0  0  0
  -50.3772   -0.6493   21.4352 C   0  0  0  0  0  0
  -45.4827   -0.5426   16.2732 C   0  0  0  0  0  0
  -52.1502   -5.7981   17.9829 C   0  0  0  0  0  0
  -52.4101   -4.4517   17.7329 C   0  0  0  0  0  0
  -47.8093   -0.9114   15.5514 C   0  0  0  0  0  0
  -50.4938   -5.0203   19.6901 C   0  0  0  0  0  0
  -51.1497   -6.1505   19.0017 C   0  0  0  0  0  0
  -52.8294   -6.7920   17.2747 C   0  0  0  0  0  0
  -53.3532   -4.0906   16.7703 C   0  0  0  0  0  0
  -47.5915   -0.4081   14.2665 C   0  0  0  0  0  0
  -49.0173   -1.5461   15.8503 C   0  0  0  0  0  0
  -54.0339   -5.0804   16.0610 C   0  0  0  0  0  0
  -53.7725   -6.4281   16.3127 C   0  0  0  0  0  0
  -48.5757   -0.5384   13.2866 C   0  0  0  0  0  0
  -50.0015   -1.6768   14.8706 C   0  0  0  0  0  0
  -49.7807   -1.1729   13.5886 C   0  0  0  0  0  0
  -45.8151   -0.6142   23.1992 H   0  0  0  0  0  0
  -47.5705    0.8384   21.5020 H   0  0  0  0  0  0
  -42.3256   -0.4070   20.5170 H   0  0  0  0  0  0
  -52.6269   -8.6030   16.6411 H   0  0  0  0  0  0
  -55.5195   -5.4998   14.9314 H   0  0  0  0  0  0
  -51.3428   -2.0221   12.8851 H   0  0  0  0  0  0
  1 12  1  0  0  0
  1 22  1  0  0  0
  2 20  1  0  0  0
  2 28  1  0  0  0
  3 17  1  0  0  0
  3 41  1  0  0  0
  4 18  1  0  0  0
  4 42  1  0  0  0
  5 19  1  0  0  0
  5 43  1  0  0  0
  6 23  2  0  0  0
  7 32  1  0  0  0
  7 44  1  0  0  0
  8 31  2  0  0  0
  9 36  1  0  0  0
  9 45  1  0  0  0
 10 40  1  0  0  0
 10 46  1  0  0  0
 11 12  1  0  0  0
 11 13  1  0  0  0
 11 17  2  0  0  0
 12 14  2  0  0  0
 13 16  1  0  0  0
 13 18  2  0  0  0
 14 19  1  0  0  0
 14 23  1  0  0  0
 15 16  2  0  0  0
 15 20  1  0  0  0
 15 24  1  0  0  0
 17 21  1  0  0  0
 18 25  1  0  0  0
 19 21  2  0  0  0
 20 30  2  0  0  0
 22 26  2  0  0  0
 22 29  1  0  0  0
 23 26  1  0  0  0
 24 25  2  0  0  0
 27 28  1  0  0  0
 27 31  1  0  0  0
 27 32  2  0  0  0
 28 33  2  0  0  0
 29 34  2  0  0  0
 29 35  1  0  0  0
 30 31  1  0  0  0
 32 37  1  0  0  0
 33 36  1  0  0  0
 34 38  1  0  0  0
 35 39  2  0  0  0
 36 37  2  0  0  0
 38 40  2  0  0  0
 39 40  1  0  0  0
M  END
>  <CHROM.0>
-174.45808998,-55.93553580,177.90158491

>  <CHROM.1>
-159.57450932,9.64183566,-167.09785780,-140.98181205,-162.39022208,159.21366983
56.42503711,-113.09433356,161.11093084,-49.01342056,-2.40487528,18.08977560
-0.16379353,-0.62590353,-1.38589665

>  <Name>
5281600

>  <PUBCHEM_ATOM_DEF_STEREO_COUNT>
0

>  <PUBCHEM_ATOM_UDEF_STEREO_COUNT>
0

>  <PUBCHEM_BOND_DEF_STEREO_COUNT>
0

>  <PUBCHEM_BOND_UDEF_STEREO_COUNT>
0

>  <PUBCHEM_CACTVS_TAUTO_COUNT>
994

>  <PUBCHEM_COMPONENT_COUNT>
1

>  <PUBCHEM_COMPOUND_CID>
5281600

>  <PUBCHEM_CONFORMER_DIVERSEORDER>
1
12
7
6
5
11
9
4
8
3
2
10

>  <PUBCHEM_CONFORMER_ID>
0050974000000001

>  <PUBCHEM_CONFORMER_RMSD>
0.8

>  <PUBCHEM_COORDINATE_TYPE>
2
5
10

>  <PUBCHEM_EFFECTIVE_ROTOR_COUNT>
3

>  <PUBCHEM_FEATURE_SELFOVERLAP>
81.26

>  <PUBCHEM_HEAVY_ATOM_COUNT>
40

>  <PUBCHEM_ISOTOPIC_ATOM_COUNT>
0

>  <PUBCHEM_MMFF94_ENERGY>
134.7783

>  <PUBCHEM_MMFF94_PARTIAL_CHARGES>
56
1 -0.16
10 -0.53
12 0.08
14 0.09
15 0.03
16 -0.15
17 0.08
18 0.08
19 0.08
2 -0.16
20 0.05
21 -0.15
22 0.05
23 0.47
24 -0.15
25 -0.15
26 -0.14
27 0.09
28 0.08
29 0.03
3 -0.53
30 -0.14
31 0.47
32 0.08
33 -0.15
34 -0.15
35 -0.15
36 0.08
37 -0.15
38 -0.15
39 -0.15
4 -0.53
40 0.08
41 0.15
42 0.15
43 0.15
44 0.15
45 0.15
46 0.15
47 0.15
48 0.15
49 0.15
5 -0.53
50 0.45
51 0.15
52 0.45
53 0.45
54 0.15
55 0.15
56 0.45
57 0.45
58 0.45
6 -0.57
7 -0.53
8 -0.57
9 -0.53

>  <PUBCHEM_PHARMACOPHORE_FEATURES>
16
1 1 acceptor
1 10 donor
1 2 acceptor
1 3 donor
1 4 donor
1 5 donor
1 6 acceptor
1 7 donor
1 8 acceptor
1 9 donor
6 1 12 14 22 23 26 rings
6 11 12 14 17 19 21 rings
6 13 15 16 18 24 25 rings
6 2 20 27 28 30 31 rings
6 27 28 32 33 36 37 rings
6 29 34 35 38 39 40 rings

>  <PUBCHEM_SHAPE_FINGERPRINT>
10074138 170 18272931639651384535
10462674 125 17618475011381580750
10622 236 18044087084485364727
10928967 22 18186794777961395306
11135926 11 16589159410442702964
11434127 23 16988854868850209122
11552529 35 18337099142617264300
12128747 34 17416426289408154158
12422481 6 17970917660810484883
12559416 138 17458053868550942330
131258 38 17040625661602271054
14040221 299 18130520668696863620
14068700 675 18126558149519363943
14395042 24 18339370777318689755
14674994 50 18189596350705326935
14705955 166 17345771702192931481
14856354 85 18343864420652166036
14950920 106 18341324578619618192
15320294 125 18260278451476051767
15361156 5 15359116841693389420
15484559 13 15440400299685403118
16728300 4 17967823739013222547
19319366 153 16671943977149260761
20554085 129 18057606456813237473
20775530 9 17974003148226375983
21033648 29 17986692393200921257
21133410 221 17108453988390366882
23516275 137 17830492447455348050
3882209 13 17628068207685272503
4394409 98 18410292537089562351
44880168 125 18338798914801616118
484985 159 18337095835418697607
50080093 196 18113889468875184482
5085150 59 18337387146281907241
5171179 24 16967460284478114997
581034 39 18412830166090923426

>  <PUBCHEM_SHAPE_MULTIPOLES>
764.49
14.59
6.24
3.18
25.21
8.64
-0.18
2.69
-10.24
-12.46
1.99
1.74
-0.93
-5.25

>  <PUBCHEM_SHAPE_SELFOVERLAP>
1749.357

>  <PUBCHEM_SHAPE_VOLUME>
392.9

>  <RI>
-5.90875e+08

>  <Rbt.Current_Directory>
/root/miniconda3/envs/rdock/share/rxdock-2013.1.1_148c5bd1-0/data/ligands/prepped_ligands/Amentoflavone

>  <Rbt.Executable>
rbdock/0.1.0

>  <Rbt.Library>
librxdock.so/0.1.0

>  <Rbt.Parameter_File>
/root/miniconda3/envs/rdock/share/rxdock-2013.1.1_148c5bd1-0/data/scripts/dock.prm

>  <Rbt.Receptor>
def.prm

>  <SCORE>
-12.793

>  <SCORE.INTER>
-15.2999

>  <SCORE.INTER.CONST>
1

>  <SCORE.INTER.POLAR>
-1.27768

>  <SCORE.INTER.REPUL>
0.044483

>  <SCORE.INTER.ROT>
3

>  <SCORE.INTER.VDW>
-19.5782

>  <SCORE.INTER.norm>
-0.382497

>  <SCORE.INTRA>
1.94271

>  <SCORE.INTRA.DIHEDRAL>
4.53232

>  <SCORE.INTRA.DIHEDRAL.0>
7.26727

>  <SCORE.INTRA.POLAR>
0

>  <SCORE.INTRA.POLAR.0>
0

>  <SCORE.INTRA.REPUL>
0

>  <SCORE.INTRA.REPUL.0>
0

>  <SCORE.INTRA.VDW>
-0.323452

>  <SCORE.INTRA.VDW.0>
0.367007

>  <SCORE.INTRA.norm>
0.0485677

>  <SCORE.RESTR>
1.52025

>  <SCORE.RESTR.CAVITY>
1.52025

>  <SCORE.RESTR.norm>
0.0380062

>  <SCORE.SYSTEM>
-0.956065

>  <SCORE.SYSTEM.CONST>
0

>  <SCORE.SYSTEM.DIHEDRAL>
0.165185

>  <SCORE.SYSTEM.VDW>
-1.03866

>  <SCORE.SYSTEM.norm>
-0.0239016

>  <SCORE.heavy>
40

>  <SCORE.norm>
-0.319824

$$$$
5281600
  RxDock  02242112453D
librxdock.so/0.1.0
 46 51  0  0  0  0  0  0  0  0999 V2000
  -46.9180   -0.9804   19.1792 O   0  0  0  0  0  0
  -47.8335   -5.6486   16.9498 O   0  0  0  0  0  0
  -42.6230   -1.8449   17.3025 O   0  0  0  0  0  0
  -43.9935   -0.8132   15.5833 O   0  0  0  0  0  0
  -42.8689    0.2832   21.5250 O   0  0  0  0  0  0
  -45.2681    0.7316   22.4877 O   0  0  0  0  0  0
  -52.4049   -7.2591   16.8858 O   0  0  0  0  0  0
  -51.7262   -4.8729   16.0314 O   0  0  0  0  0  0
  -48.8932   -9.9940   18.5422 O   0  0  0  0  0  0
  -53.2389   -1.0085   19.3231 O   0  0  0  0  0  0
  -44.7909   -1.4102   18.2488 C   0  0  0  0  0  0
  -45.5539   -0.8949   19.2969 C   0  0  0  0  0  0
  -45.4343   -2.0078   17.0913 C   0  0  0  0  0  0
  -44.9244   -0.3234   20.4014 C   0  0  0  0  0  0
  -47.1123   -3.4882   16.1888 C   0  0  0  0  0  0
  -46.4812   -2.9056   17.2879 C   0  0  0  0  0  0
  -43.3984   -1.3517   18.3107 C   0  0  0  0  0  0
  -45.0149   -1.6897   15.8015 C   0  0  0  0  0  0
  -43.5305   -0.2627   20.4671 C   0  0  0  0  0  0
  -48.2226   -4.4403   16.3922 C   0  0  0  0  0  0
  -42.7698   -0.7794   19.4176 C   0  0  0  0  0  0
  -47.7022   -0.4826   20.2088 C   0  0  0  0  0  0
  -45.7532    0.2139   21.4912 C   0  0  0  0  0  0
  -46.6948   -3.1713   14.8962 C   0  0  0  0  0  0
  -45.6460   -2.2723   14.7024 C   0  0  0  0  0  0
  -47.2151    0.0957   21.3181 C   0  0  0  0  0  0
  -50.1423   -6.4008   16.8921 C   0  0  0  0  0  0
  -48.7939   -6.5999   17.1837 C   0  0  0  0  0  0
  -49.1541   -0.6200   19.9772 C   0  0  0  0  0  0
  -49.4889   -4.1275   16.0745 C   0  0  0  0  0  0
  -50.5601   -5.1168   16.3090 C   0  0  0  0  0  0
  -51.0772   -7.4053   17.1523 C   0  0  0  0  0  0
  -48.3717   -7.8081   17.7390 C   0  0  0  0  0  0
  -49.8040    0.2263   19.0754 C   0  0  0  0  0  0
  -49.8841   -1.5973   20.6580 C   0  0  0  0  0  0
  -49.3023   -8.8140   18.0001 C   0  0  0  0  0  0
  -50.6521   -8.6129   17.7073 C   0  0  0  0  0  0
  -51.1754    0.0961   18.8559 C   0  0  0  0  0  0
  -51.2554   -1.7277   20.4385 C   0  0  0  0  0  0
  -51.9011   -0.8809   19.5375 C   0  0  0  0  0  0
  -42.0399   -2.5377   17.6570 H   0  0  0  0  0  0
  -43.7843   -0.7973   14.6336 H   0  0  0  0  0  0
  -43.4925    0.5338   22.2237 H   0  0  0  0  0  0
  -52.6722   -7.8421   16.1586 H   0  0  0  0  0  0
  -47.9216   -9.9999   18.5886 H   0  0  0  0  0  0
  -53.5325   -0.2956   18.7299 H   0  0  0  0  0  0
  1 12  1  0  0  0
  1 22  1  0  0  0
  2 20  1  0  0  0
  2 28  1  0  0  0
  3 17  1  0  0  0
  3 41  1  0  0  0
  4 18  1  0  0  0
  4 42  1  0  0  0
  5 19  1  0  0  0
  5 43  1  0  0  0
  6 23  2  0  0  0
  7 32  1  0  0  0
  7 44  1  0  0  0
  8 31  2  0  0  0
  9 36  1  0  0  0
  9 45  1  0  0  0
 10 40  1  0  0  0
 10 46  1  0  0  0
 11 12  1  0  0  0
 11 13  1  0  0  0
 11 17  2  0  0  0
 12 14  2  0  0  0
 13 16  1  0  0  0
 13 18  2  0  0  0
 14 19  1  0  0  0
 14 23  1  0  0  0
 15 16  2  0  0  0
 15 20  1  0  0  0
 15 24  1  0  0  0
 17 21  1  0  0  0
 18 25  1  0  0  0
 19 21  2  0  0  0
 20 30  2  0  0  0
 22 26  2  0  0  0
 22 29  1  0  0  0
 23 26  1  0  0  0
 24 25  2  0  0  0
 27 28  1  0  0  0
 27 31  1  0  0  0
 27 32  2  0  0  0
 28 33  2  0  0  0
 29 34  2  0  0  0
 29 35  1  0  0  0
 30 31  1  0  0  0
 32 37  1  0  0  0
 33 36  1  0  0  0
 34 38  1  0  0  0
 35 39  2  0  0  0
 36 37  2  0  0  0
 38 40  2  0  0  0
 39 40  1  0  0  0
M  END
>  <CHROM.0>
43.96144310,179.28876442,60.48554013

>  <CHROM.1>
-120.86351784,173.76035033,5.02409838,111.42791276,-6.22041905,-4.83262148
-45.70940464,-69.00140837,-75.13420072,-47.68941818,-2.91955527,18.27610184
0.84895948,0.20887675,0.53530361

>  <Name>
5281600

>  <PUBCHEM_ATOM_DEF_STEREO_COUNT>
0

>  <PUBCHEM_ATOM_UDEF_STEREO_COUNT>
0

>  <PUBCHEM_BOND_DEF_STEREO_COUNT>
0

>  <PUBCHEM_BOND_UDEF_STEREO_COUNT>
0

>  <PUBCHEM_CACTVS_TAUTO_COUNT>
994

>  <PUBCHEM_COMPONENT_COUNT>
1

>  <PUBCHEM_COMPOUND_CID>
5281600

>  <PUBCHEM_CONFORMER_DIVERSEORDER>
1
12
7
6
5
11
9
4
8
3
2
10

>  <PUBCHEM_CONFORMER_ID>
0050974000000001

>  <PUBCHEM_CONFORMER_RMSD>
0.8

>  <PUBCHEM_COORDINATE_TYPE>
2
5
10

>  <PUBCHEM_EFFECTIVE_ROTOR_COUNT>
3

>  <PUBCHEM_FEATURE_SELFOVERLAP>
81.26

>  <PUBCHEM_HEAVY_ATOM_COUNT>
40

>  <PUBCHEM_ISOTOPIC_ATOM_COUNT>
0

>  <PUBCHEM_MMFF94_ENERGY>
134.7783

>  <PUBCHEM_MMFF94_PARTIAL_CHARGES>
56
1 -0.16
10 -0.53
12 0.08
14 0.09
15 0.03
16 -0.15
17 0.08
18 0.08
19 0.08
2 -0.16
20 0.05
21 -0.15
22 0.05
23 0.47
24 -0.15
25 -0.15
26 -0.14
27 0.09
28 0.08
29 0.03
3 -0.53
30 -0.14
31 0.47
32 0.08
33 -0.15
34 -0.15
35 -0.15
36 0.08
37 -0.15
38 -0.15
39 -0.15
4 -0.53
40 0.08
41 0.15
42 0.15
43 0.15
44 0.15
45 0.15
46 0.15
47 0.15
48 0.15
49 0.15
5 -0.53
50 0.45
51 0.15
52 0.45
53 0.45
54 0.15
55 0.15
56 0.45
57 0.45
58 0.45
6 -0.57
7 -0.53
8 -0.57
9 -0.53

>  <PUBCHEM_PHARMACOPHORE_FEATURES>
16
1 1 acceptor
1 10 donor
1 2 acceptor
1 3 donor
1 4 donor
1 5 donor
1 6 acceptor
1 7 donor
1 8 acceptor
1 9 donor
6 1 12 14 22 23 26 rings
6 11 12 14 17 19 21 rings
6 13 15 16 18 24 25 rings
6 2 20 27 28 30 31 rings
6 27 28 32 33 36 37 rings
6 29 34 35 38 39 40 rings

>  <PUBCHEM_SHAPE_FINGERPRINT>
10074138 170 18272931639651384535
10462674 125 17618475011381580750
10622 236 18044087084485364727
10928967 22 18186794777961395306
11135926 11 16589159410442702964
11434127 23 16988854868850209122
11552529 35 18337099142617264300
12128747 34 17416426289408154158
12422481 6 17970917660810484883
12559416 138 17458053868550942330
131258 38 17040625661602271054
14040221 299 18130520668696863620
14068700 675 18126558149519363943
14395042 24 18339370777318689755
14674994 50 18189596350705326935
14705955 166 17345771702192931481
14856354 85 18343864420652166036
14950920 106 18341324578619618192
15320294 125 18260278451476051767
15361156 5 15359116841693389420
15484559 13 15440400299685403118
16728300 4 17967823739013222547
19319366 153 16671943977149260761
20554085 129 18057606456813237473
20775530 9 17974003148226375983
21033648 29 17986692393200921257
21133410 221 17108453988390366882
23516275 137 17830492447455348050
3882209 13 17628068207685272503
4394409 98 18410292537089562351
44880168 125 18338798914801616118
484985 159 18337095835418697607
50080093 196 18113889468875184482
5085150 59 18337387146281907241
5171179 24 16967460284478114997
581034 39 18412830166090923426

>  <PUBCHEM_SHAPE_MULTIPOLES>
764.49
14.59
6.24
3.18
25.21
8.64
-0.18
2.69
-10.24
-12.46
1.99
1.74
-0.93
-5.25

>  <PUBCHEM_SHAPE_SELFOVERLAP>
1749.357

>  <PUBCHEM_SHAPE_VOLUME>
392.9

>  <RI>
-5.90875e+08

>  <Rbt.Current_Directory>
/root/miniconda3/envs/rdock/share/rxdock-2013.1.1_148c5bd1-0/data/ligands/prepped_ligands/Amentoflavone

>  <Rbt.Executable>
rbdock/0.1.0

>  <Rbt.Library>
librxdock.so/0.1.0

>  <Rbt.Parameter_File>
/root/miniconda3/envs/rdock/share/rxdock-2013.1.1_148c5bd1-0/data/scripts/dock.prm

>  <Rbt.Receptor>
def.prm

>  <SCORE>
-13.0969

>  <SCORE.INTER>
-18.4241

>  <SCORE.INTER.CONST>
1

>  <SCORE.INTER.POLAR>
-1.09969

>  <SCORE.INTER.REPUL>
0.00393155

>  <SCORE.INTER.ROT>
3

>  <SCORE.INTER.VDW>
-23.1049

>  <SCORE.INTER.norm>
-0.460604

>  <SCORE.INTRA>
5.53469

>  <SCORE.INTRA.DIHEDRAL>
11.7928

>  <SCORE.INTRA.DIHEDRAL.0>
7.26727

>  <SCORE.INTRA.POLAR>
0

>  <SCORE.INTRA.POLAR.0>
0

>  <SCORE.INTRA.REPUL>
0

>  <SCORE.INTRA.REPUL.0>
0

>  <SCORE.INTRA.VDW>
-0.361682

>  <SCORE.INTRA.VDW.0>
0.367007

>  <SCORE.INTRA.norm>
0.138367

>  <SCORE.RESTR>
0.448437

>  <SCORE.RESTR.CAVITY>
0.448437

>  <SCORE.RESTR.norm>
0.0112109

>  <SCORE.SYSTEM>
-0.655877

>  <SCORE.SYSTEM.CONST>
0

>  <SCORE.SYSTEM.DIHEDRAL>
0.611631

>  <SCORE.SYSTEM.POLAR>
-0.00222257

>  <SCORE.SYSTEM.VDW>
-0.954135

>  <SCORE.SYSTEM.norm>
-0.0163969

>  <SCORE.heavy>
40

>  <SCORE.norm>
-0.327422

$$$$
5281600
  RxDock  02242112453D
librxdock.so/0.1.0
 46 51  0  0  0  0  0  0  0  0999 V2000
  -47.3307   -0.4476   17.2249 O   0  0  0  0  0  0
  -51.5128   -3.2825   18.0989 O   0  0  0  0  0  0
  -47.5060    1.3898   21.6192 O   0  0  0  0  0  0
  -49.4207    2.4653   19.6900 O   0  0  0  0  0  0
  -43.3701    1.4079   19.3142 O   0  0  0  0  0  0
  -43.3528    0.3721   16.9037 O   0  0  0  0  0  0
  -52.2743   -7.8242   19.6119 O   0  0  0  0  0  0
  -51.2531   -5.9640   21.1552 O   0  0  0  0  0  0
  -53.3629   -6.5320   15.1733 O   0  0  0  0  0  0
  -49.6828   -3.2503   12.0682 O   0  0  0  0  0  0
  -47.4192    0.4632   19.4015 C   0  0  0  0  0  0
  -46.6710    0.1576   18.2644 C   0  0  0  0  0  0
  -48.8356    0.1453   19.4610 C   0  0  0  0  0  0
  -45.3127    0.4673   18.2202 C   0  0  0  0  0  0
  -50.5892   -1.5118   19.4325 C   0  0  0  0  0  0
  -49.2338   -1.1870   19.3755 C   0  0  0  0  0  0
  -46.8038    1.0790   20.4917 C   0  0  0  0  0  0
  -49.7855    1.1544   19.6030 C   0  0  0  0  0  0
  -44.6928    1.0835   19.3097 C   0  0  0  0  0  0
  -51.0161   -2.9225   19.3424 C   0  0  0  0  0  0
  -45.4437    1.3885   20.4455 C   0  0  0  0  0  0
  -46.6142   -0.7571   16.0788 C   0  0  0  0  0  0
  -44.5475    0.1322   17.0096 C   0  0  0  0  0  0
  -51.5425   -0.5036   19.5750 C   0  0  0  0  0  0
  -51.1408    0.8295   19.6600 C   0  0  0  0  0  0
  -45.3033   -0.5157   15.9187 C   0  0  0  0  0  0
  -51.8719   -5.5422   18.9139 C   0  0  0  0  0  0
  -51.9315   -4.5754   17.9116 C   0  0  0  0  0  0
  -47.4185   -1.4103   15.0266 C   0  0  0  0  0  0
  -50.9023   -3.7631   20.3829 C   0  0  0  0  0  0
  -51.3373   -5.1664   20.2315 C   0  0  0  0  0  0
  -52.3121   -6.8444   18.6664 C   0  0  0  0  0  0
  -52.4327   -4.9065   16.6525 C   0  0  0  0  0  0
  -46.9008   -2.5004   14.3228 C   0  0  0  0  0  0
  -48.7009   -0.9417   14.7310 C   0  0  0  0  0  0
  -52.8735   -6.2060   16.4013 C   0  0  0  0  0  0
  -52.8134   -7.1727   17.4062 C   0  0  0  0  0  0
  -47.6607   -3.1181   13.3294 C   0  0  0  0  0  0
  -49.4610   -1.5593   13.7378 C   0  0  0  0  0  0
  -48.9409   -2.6475   13.0369 C   0  0  0  0  0  0
  -46.8950    1.7385   22.2906 H   0  0  0  0  0  0
  -48.7445    2.5630   20.3821 H   0  0  0  0  0  0
  -43.0562    1.5691   18.4113 H   0  0  0  0  0  0
  -51.5025   -7.7115   20.1878 H   0  0  0  0  0  0
  -52.8395   -7.2671   14.8101 H   0  0  0  0  0  0
  -49.5497   -2.7768   11.2289 H   0  0  0  0  0  0
  1 12  1  0  0  0
  1 22  1  0  0  0
  2 20  1  0  0  0
  2 28  1  0  0  0
  3 17  1  0  0  0
  3 41  1  0  0  0
  4 18  1  0  0  0
  4 42  1  0  0  0
  5 19  1  0  0  0
  5 43  1  0  0  0
  6 23  2  0  0  0
  7 32  1  0  0  0
  7 44  1  0  0  0
  8 31  2  0  0  0
  9 36  1  0  0  0
  9 45  1  0  0  0
 10 40  1  0  0  0
 10 46  1  0  0  0
 11 12  1  0  0  0
 11 13  1  0  0  0
 11 17  2  0  0  0
 12 14  2  0  0  0
 13 16  1  0  0  0
 13 18  2  0  0  0
 14 19  1  0  0  0
 14 23  1  0  0  0
 15 16  2  0  0  0
 15 20  1  0  0  0
 15 24  1  0  0  0
 17 21  1  0  0  0
 18 25  1  0  0  0
 19 21  2  0  0  0
 20 30  2  0  0  0
 22 26  2  0  0  0
 22 29  1  0  0  0
 23 26  1  0  0  0
 24 25  2  0  0  0
 27 28  1  0  0  0
 27 31  1  0  0  0
 27 32  2  0  0  0
 28 33  2  0  0  0
 29 34  2  0  0  0
 29 35  1  0  0  0
 30 31  1  0  0  0
 32 37  1  0  0  0
 33 36  1  0  0  0
 34 38  1  0  0  0
 35 39  2  0  0  0
 36 37  2  0  0  0
 38 40  2  0  0  0
 39 40  1  0  0  0
M  END
>  <CHROM.0>
-65.02213948,-58.01479119,58.26259976

>  <CHROM.1>
175.12349821,-51.73678618,27.70005513,-34.05333546,122.40090848,-94.02180042
62.04339775,-102.28690568,-137.01359451,-48.98759155,-1.97894853,17.83379929
-0.35986912,-0.74394252,-1.95165207

>  <Name>
5281600

>  <PUBCHEM_ATOM_DEF_STEREO_COUNT>
0

>  <PUBCHEM_ATOM_UDEF_STEREO_COUNT>
0

>  <PUBCHEM_BOND_DEF_STEREO_COUNT>
0

>  <PUBCHEM_BOND_UDEF_STEREO_COUNT>
0

>  <PUBCHEM_CACTVS_TAUTO_COUNT>
994

>  <PUBCHEM_COMPONENT_COUNT>
1

>  <PUBCHEM_COMPOUND_CID>
5281600

>  <PUBCHEM_CONFORMER_DIVERSEORDER>
1
12
7
6
5
11
9
4
8
3
2
10

>  <PUBCHEM_CONFORMER_ID>
0050974000000001

>  <PUBCHEM_CONFORMER_RMSD>
0.8

>  <PUBCHEM_COORDINATE_TYPE>
2
5
10

>  <PUBCHEM_EFFECTIVE_ROTOR_COUNT>
3

>  <PUBCHEM_FEATURE_SELFOVERLAP>
81.26

>  <PUBCHEM_HEAVY_ATOM_COUNT>
40

>  <PUBCHEM_ISOTOPIC_ATOM_COUNT>
0

>  <PUBCHEM_MMFF94_ENERGY>
134.7783

>  <PUBCHEM_MMFF94_PARTIAL_CHARGES>
56
1 -0.16
10 -0.53
12 0.08
14 0.09
15 0.03
16 -0.15
17 0.08
18 0.08
19 0.08
2 -0.16
20 0.05
21 -0.15
22 0.05
23 0.47
24 -0.15
25 -0.15
26 -0.14
27 0.09
28 0.08
29 0.03
3 -0.53
30 -0.14
31 0.47
32 0.08
33 -0.15
34 -0.15
35 -0.15
36 0.08
37 -0.15
38 -0.15
39 -0.15
4 -0.53
40 0.08
41 0.15
42 0.15
43 0.15
44 0.15
45 0.15
46 0.15
47 0.15
48 0.15
49 0.15
5 -0.53
50 0.45
51 0.15
52 0.45
53 0.45
54 0.15
55 0.15
56 0.45
57 0.45
58 0.45
6 -0.57
7 -0.53
8 -0.57
9 -0.53

>  <PUBCHEM_PHARMACOPHORE_FEATURES>
16
1 1 acceptor
1 10 donor
1 2 acceptor
1 3 donor
1 4 donor
1 5 donor
1 6 acceptor
1 7 donor
1 8 acceptor
1 9 donor
6 1 12 14 22 23 26 rings
6 11 12 14 17 19 21 rings
6 13 15 16 18 24 25 rings
6 2 20 27 28 30 31 rings
6 27 28 32 33 36 37 rings
6 29 34 35 38 39 40 rings

>  <PUBCHEM_SHAPE_FINGERPRINT>
10074138 170 18272931639651384535
10462674 125 17618475011381580750
10622 236 18044087084485364727
10928967 22 18186794777961395306
11135926 11 16589159410442702964
11434127 23 16988854868850209122
11552529 35 18337099142617264300
12128747 34 17416426289408154158
12422481 6 17970917660810484883
12559416 138 17458053868550942330
131258 38 17040625661602271054
14040221 299 18130520668696863620
14068700 675 18126558149519363943
14395042 24 18339370777318689755
14674994 50 18189596350705326935
14705955 166 17345771702192931481
14856354 85 18343864420652166036
14950920 106 18341324578619618192
15320294 125 18260278451476051767
15361156 5 15359116841693389420
15484559 13 15440400299685403118
16728300 4 17967823739013222547
19319366 153 16671943977149260761
20554085 129 18057606456813237473
20775530 9 17974003148226375983
21033648 29 17986692393200921257
21133410 221 17108453988390366882
23516275 137 17830492447455348050
3882209 13 17628068207685272503
4394409 98 18410292537089562351
44880168 125 18338798914801616118
484985 159 18337095835418697607
50080093 196 18113889468875184482
5085150 59 18337387146281907241
5171179 24 16967460284478114997
581034 39 18412830166090923426

>  <PUBCHEM_SHAPE_MULTIPOLES>
764.49
14.59
6.24
3.18
25.21
8.64
-0.18
2.69
-10.24
-12.46
1.99
1.74
-0.93
-5.25

>  <PUBCHEM_SHAPE_SELFOVERLAP>
1749.357

>  <PUBCHEM_SHAPE_VOLUME>
392.9

>  <RI>
-5.90875e+08

>  <Rbt.Current_Directory>
/root/miniconda3/envs/rdock/share/rxdock-2013.1.1_148c5bd1-0/data/ligands/prepped_ligands/Amentoflavone

>  <Rbt.Executable>
rbdock/0.1.0

>  <Rbt.Library>
librxdock.so/0.1.0

>  <Rbt.Parameter_File>
/root/miniconda3/envs/rdock/share/rxdock-2013.1.1_148c5bd1-0/data/scripts/dock.prm

>  <Rbt.Receptor>
def.prm

>  <SCORE>
-3.1347

>  <SCORE.INTER>
-6.71765

>  <SCORE.INTER.CONST>
1

>  <SCORE.INTER.POLAR>
-1.19734

>  <SCORE.INTER.REPUL>
0

>  <SCORE.INTER.ROT>
3

>  <SCORE.INTER.VDW>
-11.0467

>  <SCORE.INTER.norm>
-0.167941

>  <SCORE.INTRA>
3.53968

>  <SCORE.INTRA.DIHEDRAL>
16.9722

>  <SCORE.INTRA.DIHEDRAL.0>
7.26727

>  <SCORE.INTRA.POLAR>
-0.612519

>  <SCORE.INTRA.POLAR.0>
0

>  <SCORE.INTRA.REPUL>
0

>  <SCORE.INTRA.REPUL.0>
0

>  <SCORE.INTRA.VDW>
-2.86386

>  <SCORE.INTRA.VDW.0>
0.367007

>  <SCORE.INTRA.norm>
0.0884921

>  <SCORE.RESTR>
1.0218

>  <SCORE.RESTR.CAVITY>
1.0218

>  <SCORE.RESTR.norm>
0.025545

>  <SCORE.SYSTEM>
-0.978535

>  <SCORE.SYSTEM.CONST>
0

>  <SCORE.SYSTEM.DIHEDRAL>
0.0940305

>  <SCORE.SYSTEM.VDW>
-1.02555

>  <SCORE.SYSTEM.norm>
-0.0244634

>  <SCORE.heavy>
40

>  <SCORE.norm>
-0.0783676

$$$$
