5280443
  RxDock  02242112463D
librxdock.so/0.1.0
 23 25  0  0  0  0  0  0  0  0999 V2000
  -53.4899   -4.0638   16.3955 O   0  0  0  0  0  0
  -54.0524   -8.8740   16.6008 O   0  0  0  0  0  0
  -51.7907   -7.6809   17.1887 O   0  0  0  0  0  0
  -57.6508   -6.0653   15.2902 O   0  0  0  0  0  0
  -49.4856    0.7608   17.2099 O   0  0  0  0  0  0
  -53.7118   -6.4796   16.5176 C   0  0  0  0  0  0
  -54.2300   -5.2113   16.2615 C   0  0  0  0  0  0
  -52.1716   -4.1730   16.8113 C   0  0  0  0  0  0
  -51.4667   -2.8797   16.9163 C   0  0  0  0  0  0
  -52.3111   -6.5999   16.9500 C   0  0  0  0  0  0
  -51.5581   -5.3362   17.0815 C   0  0  0  0  0  0
  -54.5119   -7.6140   16.3636 C   0  0  0  0  0  0
  -55.5549   -5.0698   15.8484 C   0  0  0  0  0  0
  -56.3575   -6.2003   15.6936 C   0  0  0  0  0  0
  -55.8370   -7.4695   15.9507 C   0  0  0  0  0  0
  -50.5351   -2.5074   15.9441 C   0  0  0  0  0  0
  -51.7293   -2.0223   17.9875 C   0  0  0  0  0  0
  -49.8698   -1.2854   16.0429 C   0  0  0  0  0  0
  -51.0641   -0.8002   18.0860 C   0  0  0  0  0  0
  -50.1342   -0.4318   17.1138 C   0  0  0  0  0  0
  -53.1308   -8.9599   16.3125 H   0  0  0  0  0  0
  -57.9869   -5.2037   15.5913 H   0  0  0  0  0  0
  -49.8740    1.2726   17.9401 H   0  0  0  0  0  0
  1  7  1  0  0  0
  1  8  1  0  0  0
  2 12  1  0  0  0
  2 21  1  0  0  0
  3 10  2  0  0  0
  4 14  1  0  0  0
  4 22  1  0  0  0
  5 20  1  0  0  0
  5 23  1  0  0  0
  6  7  1  0  0  0
  6 10  1  0  0  0
  6 12  2  0  0  0
  7 13  2  0  0  0
  8  9  1  0  0  0
  8 11  2  0  0  0
  9 16  2  0  0  0
  9 17  1  0  0  0
 10 11  1  0  0  0
 12 15  1  0  0  0
 13 14  1  0  0  0
 14 15  2  0  0  0
 16 18  1  0  0  0
 17 19  2  0  0  0
 18 20  2  0  0  0
 19 20  1  0  0  0
M  END
>  <CHROM.0>
-61.39849390,67.44024169,-155.24217046

>  <CHROM.1>
-37.12050734,-29.23648110,172.47322628,-104.68650264,-52.90046257,-4.52226057
16.60956374,2.25355415,0.25617672,3.09472032

>  <Name>
5280443

>  <PUBCHEM_ATOM_DEF_STEREO_COUNT>
0

>  <PUBCHEM_ATOM_UDEF_STEREO_COUNT>
0

>  <PUBCHEM_BOND_DEF_STEREO_COUNT>
0

>  <PUBCHEM_BOND_UDEF_STEREO_COUNT>
0

>  <PUBCHEM_CACTVS_TAUTO_COUNT>
57

>  <PUBCHEM_COMPONENT_COUNT>
1

>  <PUBCHEM_COMPOUND_CID>
5280443

>  <PUBCHEM_CONFORMER_DIVERSEORDER>
1

>  <PUBCHEM_CONFORMER_ID>
005092BB00000001

>  <PUBCHEM_CONFORMER_RMSD>
0.6

>  <PUBCHEM_COORDINATE_TYPE>
2
5
10

>  <PUBCHEM_EFFECTIVE_ROTOR_COUNT>
1

>  <PUBCHEM_FEATURE_SELFOVERLAP>
40.625

>  <PUBCHEM_HEAVY_ATOM_COUNT>
20

>  <PUBCHEM_ISOTOPIC_ATOM_COUNT>
0

>  <PUBCHEM_MMFF94_ENERGY>
60.7436

>  <PUBCHEM_MMFF94_PARTIAL_CHARGES>
30
1 -0.16
10 0.47
11 -0.14
12 0.08
13 -0.15
14 0.08
15 -0.15
16 -0.15
17 -0.15
18 -0.15
19 -0.15
2 -0.53
20 0.08
21 0.15
22 0.15
23 0.15
24 0.15
25 0.15
26 0.15
27 0.15
28 0.45
29 0.45
3 -0.57
30 0.45
4 -0.53
5 -0.53
6 0.09
7 0.08
8 0.05
9 0.03

>  <PUBCHEM_PHARMACOPHORE_FEATURES>
8
1 1 acceptor
1 2 donor
1 3 acceptor
1 4 donor
1 5 donor
6 1 6 7 8 10 11 rings
6 6 7 12 13 14 15 rings
6 9 16 17 18 19 20 rings

>  <PUBCHEM_SHAPE_FINGERPRINT>
10014705 185 18335983090743610973
10319926 262 18339344337187947850
10411042 1 17833271196427205891
10493431 412 18339369544277550625
10498660 4 18336260146151624709
10608611 8 18342173405853837512
10646746 165 18410292501880224548
11315181 36 17967532415338923724
12107183 9 17973996255225508682
12173636 292 18409726227717107541
12236239 1 17458341966376888130
12390115 104 18270696268119625369
12403259 415 18202279234227041088
12500047 106 18411979165633848254
13073987 5 18334573538601782738
13140716 1 17974859676764465403
13544592 145 18269848531875060550
14508225 48 18124582335750861655
14790565 3 17908712730609502257
15042514 8 18192436496683379403
15196674 1 18411138009184468990
15375358 24 18272089392275024390
17844677 252 18338524131077601056
18186145 218 18201727210401115800
200 152 17060622204808618226
20510252 161 18342459253144016673
20645477 56 18410013234284757832
20645477 70 17203058396143606462
21033648 29 18271516554985427096
21065198 57 18411699920035301594
21236236 1 18412826893710328947
21267235 1 18337116777299593123
21279426 13 18269277859449011198
21421861 104 17750502976618702298
23402539 116 18412538829647092654
23402655 69 18131067100338114972
23557571 272 18342746247148492668
23559900 14 18271807861775124550
245318 6 16448986100328701468
283562 15 18410291424461079675
2916195 48 18342730849902058064
3004659 81 18335425613612532158
335352 9 18267022748231475478
350125 39 18410298038462750009
3545911 37 18342460348455732712
4028521 119 18341892965631935697
4214541 1 18411419514231212472
474 4 16879077545412114420
495365 180 17346021334593014002
5104073 3 18410011005465809410
542803 24 17530686524359763644
559249 180 18337386046670377618
633830 44 18199743644401676445
69090 78 18272086119177836790
77779 3 18412263930592437412
9709674 26 18342463655380539086

>  <PUBCHEM_SHAPE_MULTIPOLES>
382.24
10.96
2.41
0.66
9.09
0.24
0
-3.75
0.48
-2.84
-0.06
0.21
-0.01
0.71

>  <PUBCHEM_SHAPE_SELFOVERLAP>
856.39

>  <PUBCHEM_SHAPE_VOLUME>
201.3

>  <RI>
-1.12381e+09

>  <Rbt.Current_Directory>
/root/miniconda3/envs/rdock/share/rxdock-2013.1.1_148c5bd1-0/data/ligands/prepped_ligands/Apigenin

>  <Rbt.Executable>
rbdock/0.1.0

>  <Rbt.Library>
librxdock.so/0.1.0

>  <Rbt.Parameter_File>
/root/miniconda3/envs/rdock/share/rxdock-2013.1.1_148c5bd1-0/data/scripts/dock.prm

>  <Rbt.Receptor>
def.prm

>  <SCORE>
-15.0773

>  <SCORE.INTER>
-16.7902

>  <SCORE.INTER.CONST>
1

>  <SCORE.INTER.POLAR>
-2.36216

>  <SCORE.INTER.REPUL>
0

>  <SCORE.INTER.ROT>
1

>  <SCORE.INTER.VDW>
-15.1588

>  <SCORE.INTER.norm>
-0.839509

>  <SCORE.INTRA>
1.83681

>  <SCORE.INTRA.DIHEDRAL>
6.21195

>  <SCORE.INTRA.DIHEDRAL.0>
1.23283

>  <SCORE.INTRA.POLAR>
0

>  <SCORE.INTRA.POLAR.0>
0

>  <SCORE.INTRA.REPUL>
0

>  <SCORE.INTRA.REPUL.0>
0

>  <SCORE.INTRA.VDW>
-1.26917

>  <SCORE.INTRA.VDW.0>
1.06701

>  <SCORE.INTRA.norm>
0.0918404

>  <SCORE.RESTR>
0

>  <SCORE.RESTR.CAVITY>
0

>  <SCORE.RESTR.norm>
0

>  <SCORE.SYSTEM>
-0.123877

>  <SCORE.SYSTEM.CONST>
0

>  <SCORE.SYSTEM.DIHEDRAL>
1.57284

>  <SCORE.SYSTEM.POLAR>
-0.015832

>  <SCORE.SYSTEM.VDW>
-0.856468

>  <SCORE.SYSTEM.norm>
-0.00619385

>  <SCORE.heavy>
20

>  <SCORE.norm>
-0.753863

$$$$
5280443
  RxDock  02242112463D
librxdock.so/0.1.0
 23 25  0  0  0  0  0  0  0  0999 V2000
  -49.9862   -1.8819   13.8815 O   0  0  0  0  0  0
  -47.9491   -5.3323   16.6092 O   0  0  0  0  0  0
  -46.6400   -3.2121   15.7874 O   0  0  0  0  0  0
  -52.4960   -5.6622   15.2780 O   0  0  0  0  0  0
  -49.0846    3.6223   10.9019 O   0  0  0  0  0  0
  -48.9113   -3.5782   15.2478 C   0  0  0  0  0  0
  -50.0183   -3.0663   14.5731 C   0  0  0  0  0  0
  -48.8018   -1.1610   13.8608 C   0  0  0  0  0  0
  -48.8763    0.0928   13.0843 C   0  0  0  0  0  0
  -47.6508   -2.8208   15.2204 C   0  0  0  0  0  0
  -47.6685   -1.5518   14.4650 C   0  0  0  0  0  0
  -49.0016   -4.7905   15.9356 C   0  0  0  0  0  0
  -51.2251   -3.7659   14.5820 C   0  0  0  0  0  0
  -51.3196   -4.9770   15.2679 C   0  0  0  0  0  0
  -50.2102   -5.4880   15.9432 C   0  0  0  0  0  0
  -50.0041    0.9116   13.1803 C   0  0  0  0  0  0
  -47.8189    0.4663   12.2514 C   0  0  0  0  0  0
  -50.0742    2.0964   12.4473 C   0  0  0  0  0  0
  -47.8888    1.6512   11.5187 C   0  0  0  0  0  0
  -49.0166    2.4662   11.6165 C   0  0  0  0  0  0
  -48.1556   -6.2359   16.8931 H   0  0  0  0  0  0
  -52.3109   -6.6048   15.4305 H   0  0  0  0  0  0
  -49.8819    4.1113   11.1688 H   0  0  0  0  0  0
  1  7  1  0  0  0
  1  8  1  0  0  0
  2 12  1  0  0  0
  2 21  1  0  0  0
  3 10  2  0  0  0
  4 14  1  0  0  0
  4 22  1  0  0  0
  5 20  1  0  0  0
  5 23  1  0  0  0
  6  7  1  0  0  0
  6 10  1  0  0  0
  6 12  2  0  0  0
  7 13  2  0  0  0
  8  9  1  0  0  0
  8 11  2  0  0  0
  9 16  2  0  0  0
  9 17  1  0  0  0
 10 11  1  0  0  0
 12 15  1  0  0  0
 13 14  1  0  0  0
 14 15  2  0  0  0
 16 18  1  0  0  0
 17 19  2  0  0  0
 18 20  2  0  0  0
 19 20  1  0  0  0
M  END
>  <CHROM.0>
59.16143527,63.63068537,57.64723203

>  <CHROM.1>
-170.45570855,155.11796625,6.64594799,41.71294180,-49.24291232,-1.83694496
14.10180071,1.68860546,0.21313944,2.61418052

>  <Name>
5280443

>  <PUBCHEM_ATOM_DEF_STEREO_COUNT>
0

>  <PUBCHEM_ATOM_UDEF_STEREO_COUNT>
0

>  <PUBCHEM_BOND_DEF_STEREO_COUNT>
0

>  <PUBCHEM_BOND_UDEF_STEREO_COUNT>
0

>  <PUBCHEM_CACTVS_TAUTO_COUNT>
57

>  <PUBCHEM_COMPONENT_COUNT>
1

>  <PUBCHEM_COMPOUND_CID>
5280443

>  <PUBCHEM_CONFORMER_DIVERSEORDER>
1

>  <PUBCHEM_CONFORMER_ID>
005092BB00000001

>  <PUBCHEM_CONFORMER_RMSD>
0.6

>  <PUBCHEM_COORDINATE_TYPE>
2
5
10

>  <PUBCHEM_EFFECTIVE_ROTOR_COUNT>
1

>  <PUBCHEM_FEATURE_SELFOVERLAP>
40.625

>  <PUBCHEM_HEAVY_ATOM_COUNT>
20

>  <PUBCHEM_ISOTOPIC_ATOM_COUNT>
0

>  <PUBCHEM_MMFF94_ENERGY>
60.7436

>  <PUBCHEM_MMFF94_PARTIAL_CHARGES>
30
1 -0.16
10 0.47
11 -0.14
12 0.08
13 -0.15
14 0.08
15 -0.15
16 -0.15
17 -0.15
18 -0.15
19 -0.15
2 -0.53
20 0.08
21 0.15
22 0.15
23 0.15
24 0.15
25 0.15
26 0.15
27 0.15
28 0.45
29 0.45
3 -0.57
30 0.45
4 -0.53
5 -0.53
6 0.09
7 0.08
8 0.05
9 0.03

>  <PUBCHEM_PHARMACOPHORE_FEATURES>
8
1 1 acceptor
1 2 donor
1 3 acceptor
1 4 donor
1 5 donor
6 1 6 7 8 10 11 rings
6 6 7 12 13 14 15 rings
6 9 16 17 18 19 20 rings

>  <PUBCHEM_SHAPE_FINGERPRINT>
10014705 185 18335983090743610973
10319926 262 18339344337187947850
10411042 1 17833271196427205891
10493431 412 18339369544277550625
10498660 4 18336260146151624709
10608611 8 18342173405853837512
10646746 165 18410292501880224548
11315181 36 17967532415338923724
12107183 9 17973996255225508682
12173636 292 18409726227717107541
12236239 1 17458341966376888130
12390115 104 18270696268119625369
12403259 415 18202279234227041088
12500047 106 18411979165633848254
13073987 5 18334573538601782738
13140716 1 17974859676764465403
13544592 145 18269848531875060550
14508225 48 18124582335750861655
14790565 3 17908712730609502257
15042514 8 18192436496683379403
15196674 1 18411138009184468990
15375358 24 18272089392275024390
17844677 252 18338524131077601056
18186145 218 18201727210401115800
200 152 17060622204808618226
20510252 161 18342459253144016673
20645477 56 18410013234284757832
20645477 70 17203058396143606462
21033648 29 18271516554985427096
21065198 57 18411699920035301594
21236236 1 18412826893710328947
21267235 1 18337116777299593123
21279426 13 18269277859449011198
21421861 104 17750502976618702298
23402539 116 18412538829647092654
23402655 69 18131067100338114972
23557571 272 18342746247148492668
23559900 14 18271807861775124550
245318 6 16448986100328701468
283562 15 18410291424461079675
2916195 48 18342730849902058064
3004659 81 18335425613612532158
335352 9 18267022748231475478
350125 39 18410298038462750009
3545911 37 18342460348455732712
4028521 119 18341892965631935697
4214541 1 18411419514231212472
474 4 16879077545412114420
495365 180 17346021334593014002
5104073 3 18410011005465809410
542803 24 17530686524359763644
559249 180 18337386046670377618
633830 44 18199743644401676445
69090 78 18272086119177836790
77779 3 18412263930592437412
9709674 26 18342463655380539086

>  <PUBCHEM_SHAPE_MULTIPOLES>
382.24
10.96
2.41
0.66
9.09
0.24
0
-3.75
0.48
-2.84
-0.06
0.21
-0.01
0.71

>  <PUBCHEM_SHAPE_SELFOVERLAP>
856.39

>  <PUBCHEM_SHAPE_VOLUME>
201.3

>  <RI>
-1.12381e+09

>  <Rbt.Current_Directory>
/root/miniconda3/envs/rdock/share/rxdock-2013.1.1_148c5bd1-0/data/ligands/prepped_ligands/Apigenin

>  <Rbt.Executable>
rbdock/0.1.0

>  <Rbt.Library>
librxdock.so/0.1.0

>  <Rbt.Parameter_File>
/root/miniconda3/envs/rdock/share/rxdock-2013.1.1_148c5bd1-0/data/scripts/dock.prm

>  <Rbt.Receptor>
def.prm

>  <SCORE>
-17.0249

>  <SCORE.INTER>
-16.7455

>  <SCORE.INTER.CONST>
1

>  <SCORE.INTER.POLAR>
-0.848528

>  <SCORE.INTER.REPUL>
0

>  <SCORE.INTER.ROT>
1

>  <SCORE.INTER.VDW>
-20.2605

>  <SCORE.INTER.norm>
-0.837274

>  <SCORE.INTRA>
0.722304

>  <SCORE.INTRA.DIHEDRAL>
1.89515

>  <SCORE.INTRA.DIHEDRAL.0>
1.23283

>  <SCORE.INTRA.POLAR>
0

>  <SCORE.INTRA.POLAR.0>
0

>  <SCORE.INTRA.REPUL>
0

>  <SCORE.INTRA.REPUL.0>
0

>  <SCORE.INTRA.VDW>
-0.225272

>  <SCORE.INTRA.VDW.0>
1.06701

>  <SCORE.INTRA.norm>
0.0361152

>  <SCORE.RESTR>
0

>  <SCORE.RESTR.CAVITY>
0

>  <SCORE.RESTR.norm>
0

>  <SCORE.SYSTEM>
-1.00168

>  <SCORE.SYSTEM.CONST>
0

>  <SCORE.SYSTEM.DIHEDRAL>
0.0829639

>  <SCORE.SYSTEM.VDW>
-1.04316

>  <SCORE.SYSTEM.norm>
-0.0500841

>  <SCORE.heavy>
20

>  <SCORE.norm>
-0.851243

$$$$
5280443
  RxDock  02242112463D
librxdock.so/0.1.0
 23 25  0  0  0  0  0  0  0  0999 V2000
  -51.0985   -5.0741   15.9683 O   0  0  0  0  0  0
  -49.2814   -2.1470   19.3781 O   0  0  0  0  0  0
  -51.6874   -3.1828   19.5286 O   0  0  0  0  0  0
  -46.7255   -3.2763   15.5379 O   0  0  0  0  0  0
  -56.0963   -8.4998   14.1583 O   0  0  0  0  0  0
  -50.2417   -3.6134   17.7097 C   0  0  0  0  0  0
  -50.1069   -4.2869   16.4969 C   0  0  0  0  0  0
  -52.2824   -5.2099   16.6774 C   0  0  0  0  0  0
  -53.2819   -6.0728   16.0163 C   0  0  0  0  0  0
  -51.4995   -3.7478   18.4601 C   0  0  0  0  0  0
  -52.5342   -4.6076   17.8505 C   0  0  0  0  0  0
  -49.1983   -2.8246   18.1995 C   0  0  0  0  0  0
  -48.9248   -4.1748   15.7647 C   0  0  0  0  0  0
  -47.8801   -3.3880   16.2504 C   0  0  0  0  0  0
  -48.0168   -2.7145   17.4652 C   0  0  0  0  0  0
  -53.5884   -7.3271   16.5498 C   0  0  0  0  0  0
  -53.9261   -5.6383   14.8555 C   0  0  0  0  0  0
  -54.5330   -8.1420   15.9259 C   0  0  0  0  0  0
  -54.8709   -6.4532   14.2317 C   0  0  0  0  0  0
  -55.1742   -7.7051   14.7668 C   0  0  0  0  0  0
  -48.3965   -1.9280   19.7077 H   0  0  0  0  0  0
  -46.8009   -3.8111   14.7290 H   0  0  0  0  0  0
  -55.9965   -9.4088   14.4895 H   0  0  0  0  0  0
  1  7  1  0  0  0
  1  8  1  0  0  0
  2 12  1  0  0  0
  2 21  1  0  0  0
  3 10  2  0  0  0
  4 14  1  0  0  0
  4 22  1  0  0  0
  5 20  1  0  0  0
  5 23  1  0  0  0
  6  7  1  0  0  0
  6 10  1  0  0  0
  6 12  2  0  0  0
  7 13  2  0  0  0
  8  9  1  0  0  0
  8 11  2  0  0  0
  9 16  2  0  0  0
  9 17  1  0  0  0
 10 11  1  0  0  0
 12 15  1  0  0  0
 13 14  1  0  0  0
 14 15  2  0  0  0
 16 18  1  0  0  0
 17 19  2  0  0  0
 18 20  2  0  0  0
 19 20  1  0  0  0
M  END
>  <CHROM.0>
54.65113564,-58.64950955,-66.29926809

>  <CHROM.1>
159.66570594,-0.42215189,-16.63985096,109.71079399,-51.51326397,-4.88899474
16.59739577,-0.56627064,-0.41044436,-2.07301685

>  <Name>
5280443

>  <PUBCHEM_ATOM_DEF_STEREO_COUNT>
0

>  <PUBCHEM_ATOM_UDEF_STEREO_COUNT>
0

>  <PUBCHEM_BOND_DEF_STEREO_COUNT>
0

>  <PUBCHEM_BOND_UDEF_STEREO_COUNT>
0

>  <PUBCHEM_CACTVS_TAUTO_COUNT>
57

>  <PUBCHEM_COMPONENT_COUNT>
1

>  <PUBCHEM_COMPOUND_CID>
5280443

>  <PUBCHEM_CONFORMER_DIVERSEORDER>
1

>  <PUBCHEM_CONFORMER_ID>
005092BB00000001

>  <PUBCHEM_CONFORMER_RMSD>
0.6

>  <PUBCHEM_COORDINATE_TYPE>
2
5
10

>  <PUBCHEM_EFFECTIVE_ROTOR_COUNT>
1

>  <PUBCHEM_FEATURE_SELFOVERLAP>
40.625

>  <PUBCHEM_HEAVY_ATOM_COUNT>
20

>  <PUBCHEM_ISOTOPIC_ATOM_COUNT>
0

>  <PUBCHEM_MMFF94_ENERGY>
60.7436

>  <PUBCHEM_MMFF94_PARTIAL_CHARGES>
30
1 -0.16
10 0.47
11 -0.14
12 0.08
13 -0.15
14 0.08
15 -0.15
16 -0.15
17 -0.15
18 -0.15
19 -0.15
2 -0.53
20 0.08
21 0.15
22 0.15
23 0.15
24 0.15
25 0.15
26 0.15
27 0.15
28 0.45
29 0.45
3 -0.57
30 0.45
4 -0.53
5 -0.53
6 0.09
7 0.08
8 0.05
9 0.03

>  <PUBCHEM_PHARMACOPHORE_FEATURES>
8
1 1 acceptor
1 2 donor
1 3 acceptor
1 4 donor
1 5 donor
6 1 6 7 8 10 11 rings
6 6 7 12 13 14 15 rings
6 9 16 17 18 19 20 rings

>  <PUBCHEM_SHAPE_FINGERPRINT>
10014705 185 18335983090743610973
10319926 262 18339344337187947850
10411042 1 17833271196427205891
10493431 412 18339369544277550625
10498660 4 18336260146151624709
10608611 8 18342173405853837512
10646746 165 18410292501880224548
11315181 36 17967532415338923724
12107183 9 17973996255225508682
12173636 292 18409726227717107541
12236239 1 17458341966376888130
12390115 104 18270696268119625369
12403259 415 18202279234227041088
12500047 106 18411979165633848254
13073987 5 18334573538601782738
13140716 1 17974859676764465403
13544592 145 18269848531875060550
14508225 48 18124582335750861655
14790565 3 17908712730609502257
15042514 8 18192436496683379403
15196674 1 18411138009184468990
15375358 24 18272089392275024390
17844677 252 18338524131077601056
18186145 218 18201727210401115800
200 152 17060622204808618226
20510252 161 18342459253144016673
20645477 56 18410013234284757832
20645477 70 17203058396143606462
21033648 29 18271516554985427096
21065198 57 18411699920035301594
21236236 1 18412826893710328947
21267235 1 18337116777299593123
21279426 13 18269277859449011198
21421861 104 17750502976618702298
23402539 116 18412538829647092654
23402655 69 18131067100338114972
23557571 272 18342746247148492668
23559900 14 18271807861775124550
245318 6 16448986100328701468
283562 15 18410291424461079675
2916195 48 18342730849902058064
3004659 81 18335425613612532158
335352 9 18267022748231475478
350125 39 18410298038462750009
3545911 37 18342460348455732712
4028521 119 18341892965631935697
4214541 1 18411419514231212472
474 4 16879077545412114420
495365 180 17346021334593014002
5104073 3 18410011005465809410
542803 24 17530686524359763644
559249 180 18337386046670377618
633830 44 18199743644401676445
69090 78 18272086119177836790
77779 3 18412263930592437412
9709674 26 18342463655380539086

>  <PUBCHEM_SHAPE_MULTIPOLES>
382.24
10.96
2.41
0.66
9.09
0.24
0
-3.75
0.48
-2.84
-0.06
0.21
-0.01
0.71

>  <PUBCHEM_SHAPE_SELFOVERLAP>
856.39

>  <PUBCHEM_SHAPE_VOLUME>
201.3

>  <RI>
-1.12381e+09

>  <Rbt.Current_Directory>
/root/miniconda3/envs/rdock/share/rxdock-2013.1.1_148c5bd1-0/data/ligands/prepped_ligands/Apigenin

>  <Rbt.Executable>
rbdock/0.1.0

>  <Rbt.Library>
librxdock.so/0.1.0

>  <Rbt.Parameter_File>
/root/miniconda3/envs/rdock/share/rxdock-2013.1.1_148c5bd1-0/data/scripts/dock.prm

>  <Rbt.Receptor>
def.prm

>  <SCORE>
-11.4002

>  <SCORE.INTER>
-11.7688

>  <SCORE.INTER.CONST>
1

>  <SCORE.INTER.POLAR>
-1.32664

>  <SCORE.INTER.REPUL>
0.195463

>  <SCORE.INTER.ROT>
1

>  <SCORE.INTER.VDW>
-14.6355

>  <SCORE.INTER.norm>
-0.588439

>  <SCORE.INTRA>
1.32375

>  <SCORE.INTRA.DIHEDRAL>
4.02081

>  <SCORE.INTRA.DIHEDRAL.0>
1.23283

>  <SCORE.INTRA.POLAR>
0

>  <SCORE.INTRA.POLAR.0>
0

>  <SCORE.INTRA.REPUL>
0

>  <SCORE.INTRA.REPUL.0>
0

>  <SCORE.INTRA.VDW>
-0.686655

>  <SCORE.INTRA.VDW.0>
1.06701

>  <SCORE.INTRA.norm>
0.0661875

>  <SCORE.RESTR>
0

>  <SCORE.RESTR.CAVITY>
0

>  <SCORE.RESTR.norm>
0

>  <SCORE.SYSTEM>
-0.955144

>  <SCORE.SYSTEM.CONST>
0

>  <SCORE.SYSTEM.DIHEDRAL>
0.185292

>  <SCORE.SYSTEM.VDW>
-1.04779

>  <SCORE.SYSTEM.norm>
-0.0477572

>  <SCORE.heavy>
20

>  <SCORE.norm>
-0.570009

$$$$
5280443
  RxDock  02242112463D
librxdock.so/0.1.0
 23 25  0  0  0  0  0  0  0  0999 V2000
  -50.3899   -4.2148   15.7893 O   0  0  0  0  0  0
  -47.8596   -0.8458   13.3928 O   0  0  0  0  0  0
  -50.4029   -1.3037   12.9388 O   0  0  0  0  0  0
  -45.7883   -3.5184   16.7278 O   0  0  0  0  0  0
  -56.0282   -6.9924   16.4818 O   0  0  0  0  0  0
  -49.1742   -2.5115   14.5561 C   0  0  0  0  0  0
  -49.2391   -3.5194   15.5166 C   0  0  0  0  0  0
  -51.5388   -3.8936   15.0824 C   0  0  0  0  0  0
  -52.7160   -4.7057   15.4500 C   0  0  0  0  0  0
  -50.3886   -2.1743   13.7979 C   0  0  0  0  0  0
  -51.6012   -2.9493   14.1301 C   0  0  0  0  0  0
  -47.9742   -1.8369   14.3200 C   0  0  0  0  0  0
  -48.1012   -3.8597   16.2482 C   0  0  0  0  0  0
  -46.9006   -3.1882   16.0156 C   0  0  0  0  0  0
  -46.8375   -2.1790   15.0536 C   0  0  0  0  0  0
  -53.9964   -4.2989   15.0669 C   0  0  0  0  0  0
  -52.5544   -5.8848   16.1814 C   0  0  0  0  0  0
  -55.1084   -5.0664   15.4136 C   0  0  0  0  0  0
  -53.6664   -6.6525   16.5278 C   0  0  0  0  0  0
  -54.9435   -6.2431   16.1441 C   0  0  0  0  0  0
  -48.2959   -1.1014   12.5658 H   0  0  0  0  0  0
  -45.0417   -2.9797   16.4146 H   0  0  0  0  0  0
  -55.7681   -7.9292   16.5086 H   0  0  0  0  0  0
  1  7  1  0  0  0
  1  8  1  0  0  0
  2 12  1  0  0  0
  2 21  1  0  0  0
  3 10  2  0  0  0
  4 14  1  0  0  0
  4 22  1  0  0  0
  5 20  1  0  0  0
  5 23  1  0  0  0
  6  7  1  0  0  0
  6 10  1  0  0  0
  6 12  2  0  0  0
  7 13  2  0  0  0
  8  9  1  0  0  0
  8 11  2  0  0  0
  9 16  2  0  0  0
  9 17  1  0  0  0
 10 11  1  0  0  0
 12 15  1  0  0  0
 13 14  1  0  0  0
 14 15  2  0  0  0
 16 18  1  0  0  0
 17 19  2  0  0  0
 18 20  2  0  0  0
 19 20  1  0  0  0
M  END
>  <CHROM.0>
-178.17435852,-59.52154586,65.47064798

>  <CHROM.1>
-44.87425232,177.80774032,148.25245998,164.82264321,-50.72383859,-3.77973903
15.23509556,-0.43559982,0.23423907,2.39898425

>  <Name>
5280443

>  <PUBCHEM_ATOM_DEF_STEREO_COUNT>
0

>  <PUBCHEM_ATOM_UDEF_STEREO_COUNT>
0

>  <PUBCHEM_BOND_DEF_STEREO_COUNT>
0

>  <PUBCHEM_BOND_UDEF_STEREO_COUNT>
0

>  <PUBCHEM_CACTVS_TAUTO_COUNT>
57

>  <PUBCHEM_COMPONENT_COUNT>
1

>  <PUBCHEM_COMPOUND_CID>
5280443

>  <PUBCHEM_CONFORMER_DIVERSEORDER>
1

>  <PUBCHEM_CONFORMER_ID>
005092BB00000001

>  <PUBCHEM_CONFORMER_RMSD>
0.6

>  <PUBCHEM_COORDINATE_TYPE>
2
5
10

>  <PUBCHEM_EFFECTIVE_ROTOR_COUNT>
1

>  <PUBCHEM_FEATURE_SELFOVERLAP>
40.625

>  <PUBCHEM_HEAVY_ATOM_COUNT>
20

>  <PUBCHEM_ISOTOPIC_ATOM_COUNT>
0

>  <PUBCHEM_MMFF94_ENERGY>
60.7436

>  <PUBCHEM_MMFF94_PARTIAL_CHARGES>
30
1 -0.16
10 0.47
11 -0.14
12 0.08
13 -0.15
14 0.08
15 -0.15
16 -0.15
17 -0.15
18 -0.15
19 -0.15
2 -0.53
20 0.08
21 0.15
22 0.15
23 0.15
24 0.15
25 0.15
26 0.15
27 0.15
28 0.45
29 0.45
3 -0.57
30 0.45
4 -0.53
5 -0.53
6 0.09
7 0.08
8 0.05
9 0.03

>  <PUBCHEM_PHARMACOPHORE_FEATURES>
8
1 1 acceptor
1 2 donor
1 3 acceptor
1 4 donor
1 5 donor
6 1 6 7 8 10 11 rings
6 6 7 12 13 14 15 rings
6 9 16 17 18 19 20 rings

>  <PUBCHEM_SHAPE_FINGERPRINT>
10014705 185 18335983090743610973
10319926 262 18339344337187947850
10411042 1 17833271196427205891
10493431 412 18339369544277550625
10498660 4 18336260146151624709
10608611 8 18342173405853837512
10646746 165 18410292501880224548
11315181 36 17967532415338923724
12107183 9 17973996255225508682
12173636 292 18409726227717107541
12236239 1 17458341966376888130
12390115 104 18270696268119625369
12403259 415 18202279234227041088
12500047 106 18411979165633848254
13073987 5 18334573538601782738
13140716 1 17974859676764465403
13544592 145 18269848531875060550
14508225 48 18124582335750861655
14790565 3 17908712730609502257
15042514 8 18192436496683379403
15196674 1 18411138009184468990
15375358 24 18272089392275024390
17844677 252 18338524131077601056
18186145 218 18201727210401115800
200 152 17060622204808618226
20510252 161 18342459253144016673
20645477 56 18410013234284757832
20645477 70 17203058396143606462
21033648 29 18271516554985427096
21065198 57 18411699920035301594
21236236 1 18412826893710328947
21267235 1 18337116777299593123
21279426 13 18269277859449011198
21421861 104 17750502976618702298
23402539 116 18412538829647092654
23402655 69 18131067100338114972
23557571 272 18342746247148492668
23559900 14 18271807861775124550
245318 6 16448986100328701468
283562 15 18410291424461079675
2916195 48 18342730849902058064
3004659 81 18335425613612532158
335352 9 18267022748231475478
350125 39 18410298038462750009
3545911 37 18342460348455732712
4028521 119 18341892965631935697
4214541 1 18411419514231212472
474 4 16879077545412114420
495365 180 17346021334593014002
5104073 3 18410011005465809410
542803 24 17530686524359763644
559249 180 18337386046670377618
633830 44 18199743644401676445
69090 78 18272086119177836790
77779 3 18412263930592437412
9709674 26 18342463655380539086

>  <PUBCHEM_SHAPE_MULTIPOLES>
382.24
10.96
2.41
0.66
9.09
0.24
0
-3.75
0.48
-2.84
-0.06
0.21
-0.01
0.71

>  <PUBCHEM_SHAPE_SELFOVERLAP>
856.39

>  <PUBCHEM_SHAPE_VOLUME>
201.3

>  <RI>
-1.12381e+09

>  <Rbt.Current_Directory>
/root/miniconda3/envs/rdock/share/rxdock-2013.1.1_148c5bd1-0/data/ligands/prepped_ligands/Apigenin

>  <Rbt.Executable>
rbdock/0.1.0

>  <Rbt.Library>
librxdock.so/0.1.0

>  <Rbt.Parameter_File>
/root/miniconda3/envs/rdock/share/rxdock-2013.1.1_148c5bd1-0/data/scripts/dock.prm

>  <Rbt.Receptor>
def.prm

>  <SCORE>
-15.9509

>  <SCORE.INTER>
-16.0997

>  <SCORE.INTER.CONST>
1

>  <SCORE.INTER.POLAR>
-2.12294

>  <SCORE.INTER.REPUL>
0

>  <SCORE.INTER.ROT>
1

>  <SCORE.INTER.VDW>
-15.2817

>  <SCORE.INTER.norm>
-0.804983

>  <SCORE.INTRA>
1.12847

>  <SCORE.INTRA.DIHEDRAL>
2.84316

>  <SCORE.INTRA.DIHEDRAL.0>
1.23283

>  <SCORE.INTRA.POLAR>
0

>  <SCORE.INTRA.POLAR.0>
0

>  <SCORE.INTRA.REPUL>
0

>  <SCORE.INTRA.REPUL.0>
0

>  <SCORE.INTRA.VDW>
-0.293113

>  <SCORE.INTRA.VDW.0>
1.06701

>  <SCORE.INTRA.norm>
0.0564233

>  <SCORE.RESTR>
0

>  <SCORE.RESTR.CAVITY>
0

>  <SCORE.RESTR.norm>
0

>  <SCORE.SYSTEM>
-0.979672

>  <SCORE.SYSTEM.CONST>
0

>  <SCORE.SYSTEM.DIHEDRAL>
0.0771356

>  <SCORE.SYSTEM.POLAR>
-0.0117011

>  <SCORE.SYSTEM.VDW>
-0.978456

>  <SCORE.SYSTEM.norm>
-0.0489836

>  <SCORE.heavy>
20

>  <SCORE.norm>
-0.797544

$$$$
5280443
  RxDock  02242112463D
librxdock.so/0.1.0
 23 25  0  0  0  0  0  0  0  0999 V2000
  -46.5082   -1.9018   18.2136 O   0  0  0  0  0  0
  -41.7520   -1.1195   18.7261 O   0  0  0  0  0  0
  -42.7921   -2.1904   16.5684 O   0  0  0  0  0  0
  -44.7876    0.0395   22.1899 O   0  0  0  0  0  0
  -51.0520   -4.1167   14.4156 O   0  0  0  0  0  0
  -44.1156   -1.5334   18.4125 C   0  0  0  0  0  0
  -45.4135   -1.4653   18.9159 C   0  0  0  0  0  0
  -46.3128   -2.4260   16.9447 C   0  0  0  0  0  0
  -47.5551   -2.8700   16.2813 C   0  0  0  0  0  0
  -43.9035   -2.0973   17.0707 C   0  0  0  0  0  0
  -45.1132   -2.5505   16.3548 C   0  0  0  0  0  0
  -43.0378   -1.0742   19.1731 C   0  0  0  0  0  0
  -45.6417   -0.9366   20.1865 C   0  0  0  0  0  0
  -44.5680   -0.4766   20.9494 C   0  0  0  0  0  0
  -43.2690   -0.5454   20.4436 C   0  0  0  0  0  0
  -48.5449   -3.5293   17.0144 C   0  0  0  0  0  0
  -47.7465   -2.6318   14.9183 C   0  0  0  0  0  0
  -49.7187   -3.9481   16.3879 C   0  0  0  0  0  0
  -48.9205   -3.0504   14.2919 C   0  0  0  0  0  0
  -49.9065   -3.7087   15.0267 C   0  0  0  0  0  0
  -41.5175   -2.0202   18.4552 H   0  0  0  0  0  0
  -43.9391    0.3324   22.5645 H   0  0  0  0  0  0
  -51.6734   -4.4364   15.0921 H   0  0  0  0  0  0
  1  7  1  0  0  0
  1  8  1  0  0  0
  2 12  1  0  0  0
  2 21  1  0  0  0
  3 10  2  0  0  0
  4 14  1  0  0  0
  4 22  1  0  0  0
  5 20  1  0  0  0
  5 23  1  0  0  0
  6  7  1  0  0  0
  6 10  1  0  0  0
  6 12  2  0  0  0
  7 13  2  0  0  0
  8  9  1  0  0  0
  8 11  2  0  0  0
  9 16  2  0  0  0
  9 17  1  0  0  0
 10 11  1  0  0  0
 12 15  1  0  0  0
 13 14  1  0  0  0
 14 15  2  0  0  0
 16 18  1  0  0  0
 17 19  2  0  0  0
 18 20  2  0  0  0
 19 20  1  0  0  0
M  END
>  <CHROM.0>
-168.76909795,-61.75385763,-178.27148152

>  <CHROM.1>
-54.31510388,-178.34699419,8.04430009,-39.97213846,-46.00611213,-2.09664704
17.65168882,0.72745566,0.15038297,1.20817858

>  <Name>
5280443

>  <PUBCHEM_ATOM_DEF_STEREO_COUNT>
0

>  <PUBCHEM_ATOM_UDEF_STEREO_COUNT>
0

>  <PUBCHEM_BOND_DEF_STEREO_COUNT>
0

>  <PUBCHEM_BOND_UDEF_STEREO_COUNT>
0

>  <PUBCHEM_CACTVS_TAUTO_COUNT>
57

>  <PUBCHEM_COMPONENT_COUNT>
1

>  <PUBCHEM_COMPOUND_CID>
5280443

>  <PUBCHEM_CONFORMER_DIVERSEORDER>
1

>  <PUBCHEM_CONFORMER_ID>
005092BB00000001

>  <PUBCHEM_CONFORMER_RMSD>
0.6

>  <PUBCHEM_COORDINATE_TYPE>
2
5
10

>  <PUBCHEM_EFFECTIVE_ROTOR_COUNT>
1

>  <PUBCHEM_FEATURE_SELFOVERLAP>
40.625

>  <PUBCHEM_HEAVY_ATOM_COUNT>
20

>  <PUBCHEM_ISOTOPIC_ATOM_COUNT>
0

>  <PUBCHEM_MMFF94_ENERGY>
60.7436

>  <PUBCHEM_MMFF94_PARTIAL_CHARGES>
30
1 -0.16
10 0.47
11 -0.14
12 0.08
13 -0.15
14 0.08
15 -0.15
16 -0.15
17 -0.15
18 -0.15
19 -0.15
2 -0.53
20 0.08
21 0.15
22 0.15
23 0.15
24 0.15
25 0.15
26 0.15
27 0.15
28 0.45
29 0.45
3 -0.57
30 0.45
4 -0.53
5 -0.53
6 0.09
7 0.08
8 0.05
9 0.03

>  <PUBCHEM_PHARMACOPHORE_FEATURES>
8
1 1 acceptor
1 2 donor
1 3 acceptor
1 4 donor
1 5 donor
6 1 6 7 8 10 11 rings
6 6 7 12 13 14 15 rings
6 9 16 17 18 19 20 rings

>  <PUBCHEM_SHAPE_FINGERPRINT>
10014705 185 18335983090743610973
10319926 262 18339344337187947850
10411042 1 17833271196427205891
10493431 412 18339369544277550625
10498660 4 18336260146151624709
10608611 8 18342173405853837512
10646746 165 18410292501880224548
11315181 36 17967532415338923724
12107183 9 17973996255225508682
12173636 292 18409726227717107541
12236239 1 17458341966376888130
12390115 104 18270696268119625369
12403259 415 18202279234227041088
12500047 106 18411979165633848254
13073987 5 18334573538601782738
13140716 1 17974859676764465403
13544592 145 18269848531875060550
14508225 48 18124582335750861655
14790565 3 17908712730609502257
15042514 8 18192436496683379403
15196674 1 18411138009184468990
15375358 24 18272089392275024390
17844677 252 18338524131077601056
18186145 218 18201727210401115800
200 152 17060622204808618226
20510252 161 18342459253144016673
20645477 56 18410013234284757832
20645477 70 17203058396143606462
21033648 29 18271516554985427096
21065198 57 18411699920035301594
21236236 1 18412826893710328947
21267235 1 18337116777299593123
21279426 13 18269277859449011198
21421861 104 17750502976618702298
23402539 116 18412538829647092654
23402655 69 18131067100338114972
23557571 272 18342746247148492668
23559900 14 18271807861775124550
245318 6 16448986100328701468
283562 15 18410291424461079675
2916195 48 18342730849902058064
3004659 81 18335425613612532158
335352 9 18267022748231475478
350125 39 18410298038462750009
3545911 37 18342460348455732712
4028521 119 18341892965631935697
4214541 1 18411419514231212472
474 4 16879077545412114420
495365 180 17346021334593014002
5104073 3 18410011005465809410
542803 24 17530686524359763644
559249 180 18337386046670377618
633830 44 18199743644401676445
69090 78 18272086119177836790
77779 3 18412263930592437412
9709674 26 18342463655380539086

>  <PUBCHEM_SHAPE_MULTIPOLES>
382.24
10.96
2.41
0.66
9.09
0.24
0
-3.75
0.48
-2.84
-0.06
0.21
-0.01
0.71

>  <PUBCHEM_SHAPE_SELFOVERLAP>
856.39

>  <PUBCHEM_SHAPE_VOLUME>
201.3

>  <RI>
-1.12381e+09

>  <Rbt.Current_Directory>
/root/miniconda3/envs/rdock/share/rxdock-2013.1.1_148c5bd1-0/data/ligands/prepped_ligands/Apigenin

>  <Rbt.Executable>
rbdock/0.1.0

>  <Rbt.Library>
librxdock.so/0.1.0

>  <Rbt.Parameter_File>
/root/miniconda3/envs/rdock/share/rxdock-2013.1.1_148c5bd1-0/data/scripts/dock.prm

>  <Rbt.Receptor>
def.prm

>  <SCORE>
-10.245

>  <SCORE.INTER>
-10.7786

>  <SCORE.INTER.CONST>
1

>  <SCORE.INTER.POLAR>
-1.07316

>  <SCORE.INTER.REPUL>
0

>  <SCORE.INTER.ROT>
1

>  <SCORE.INTER.VDW>
-13.5299

>  <SCORE.INTER.norm>
-0.538932

>  <SCORE.INTRA>
1.33396

>  <SCORE.INTRA.DIHEDRAL>
4.05612

>  <SCORE.INTRA.DIHEDRAL.0>
1.23283

>  <SCORE.INTRA.POLAR>
0

>  <SCORE.INTRA.POLAR.0>
0

>  <SCORE.INTRA.REPUL>
0

>  <SCORE.INTRA.REPUL.0>
0

>  <SCORE.INTRA.VDW>
-0.694102

>  <SCORE.INTRA.VDW.0>
1.06701

>  <SCORE.INTRA.norm>
0.0666979

>  <SCORE.RESTR>
0.107924

>  <SCORE.RESTR.CAVITY>
0.107924

>  <SCORE.RESTR.norm>
0.00539622

>  <SCORE.SYSTEM>
-0.908271

>  <SCORE.SYSTEM.CONST>
0

>  <SCORE.SYSTEM.DIHEDRAL>
0.315838

>  <SCORE.SYSTEM.POLAR>
-0.00604713

>  <SCORE.SYSTEM.VDW>
-1.04563

>  <SCORE.SYSTEM.norm>
-0.0454136

>  <SCORE.heavy>
20

>  <SCORE.norm>
-0.512251

$$$$
5280443
  RxDock  02242112463D
librxdock.so/0.1.0
 23 25  0  0  0  0  0  0  0  0999 V2000
  -52.5819   -3.9512   14.9026 O   0  0  0  0  0  0
  -53.0266   -8.2462   17.1051 O   0  0  0  0  0  0
  -50.7314   -6.9952   16.8799 O   0  0  0  0  0  0
  -56.8111   -6.0855   15.2171 O   0  0  0  0  0  0
  -48.5926    0.6495   13.1993 O   0  0  0  0  0  0
  -52.7428   -6.1027   16.0186 C   0  0  0  0  0  0
  -53.3118   -5.0290   15.3358 C   0  0  0  0  0  0
  -51.2202   -3.9279   15.1635 C   0  0  0  0  0  0
  -50.5313   -2.7273   14.6492 C   0  0  0  0  0  0
  -51.2971   -6.0857   16.2890 C   0  0  0  0  0  0
  -50.5567   -4.9031   15.8048 C   0  0  0  0  0  0
  -53.5351   -7.1746   16.4357 C   0  0  0  0  0  0
  -54.6803   -5.0214   15.0651 C   0  0  0  0  0  0
  -55.4753   -6.0900   15.4802 C   0  0  0  0  0  0
  -54.9038   -7.1641   16.1640 C   0  0  0  0  0  0
  -49.1462   -2.6025   14.7814 C   0  0  0  0  0  0
  -51.2615   -1.7118   14.0272 C   0  0  0  0  0  0
  -48.4954   -1.4686   14.2949 C   0  0  0  0  0  0
  -50.6106   -0.5781   13.5405 C   0  0  0  0  0  0
  -49.2275   -0.4564   13.6745 C   0  0  0  0  0  0
  -52.2270   -8.5737   16.6658 H   0  0  0  0  0  0
  -57.2833   -6.4707   15.9751 H   0  0  0  0  0  0
  -49.2509    1.2432   12.7991 H   0  0  0  0  0  0
  1  7  1  0  0  0
  1  8  1  0  0  0
  2 12  1  0  0  0
  2 21  1  0  0  0
  3 10  2  0  0  0
  4 14  1  0  0  0
  4 22  1  0  0  0
  5 20  1  0  0  0
  5 23  1  0  0  0
  6  7  1  0  0  0
  6 10  1  0  0  0
  6 12  2  0  0  0
  7 13  2  0  0  0
  8  9  1  0  0  0
  8 11  2  0  0  0
  9 16  2  0  0  0
  9 17  1  0  0  0
 10 11  1  0  0  0
 12 15  1  0  0  0
 13 14  1  0  0  0
 14 15  2  0  0  0
 16 18  1  0  0  0
 17 19  2  0  0  0
 18 20  2  0  0  0
 19 20  1  0  0  0
M  END
>  <CHROM.0>
-61.34004093,61.50281174,-179.32969922

>  <CHROM.1>
-47.47432303,-142.46826265,179.77960261,-176.79097016,-51.96378873,-4.31014578
15.20976545,2.23673821,0.16032108,2.65723321

>  <Name>
5280443

>  <PUBCHEM_ATOM_DEF_STEREO_COUNT>
0

>  <PUBCHEM_ATOM_UDEF_STEREO_COUNT>
0

>  <PUBCHEM_BOND_DEF_STEREO_COUNT>
0

>  <PUBCHEM_BOND_UDEF_STEREO_COUNT>
0

>  <PUBCHEM_CACTVS_TAUTO_COUNT>
57

>  <PUBCHEM_COMPONENT_COUNT>
1

>  <PUBCHEM_COMPOUND_CID>
5280443

>  <PUBCHEM_CONFORMER_DIVERSEORDER>
1

>  <PUBCHEM_CONFORMER_ID>
005092BB00000001

>  <PUBCHEM_CONFORMER_RMSD>
0.6

>  <PUBCHEM_COORDINATE_TYPE>
2
5
10

>  <PUBCHEM_EFFECTIVE_ROTOR_COUNT>
1

>  <PUBCHEM_FEATURE_SELFOVERLAP>
40.625

>  <PUBCHEM_HEAVY_ATOM_COUNT>
20

>  <PUBCHEM_ISOTOPIC_ATOM_COUNT>
0

>  <PUBCHEM_MMFF94_ENERGY>
60.7436

>  <PUBCHEM_MMFF94_PARTIAL_CHARGES>
30
1 -0.16
10 0.47
11 -0.14
12 0.08
13 -0.15
14 0.08
15 -0.15
16 -0.15
17 -0.15
18 -0.15
19 -0.15
2 -0.53
20 0.08
21 0.15
22 0.15
23 0.15
24 0.15
25 0.15
26 0.15
27 0.15
28 0.45
29 0.45
3 -0.57
30 0.45
4 -0.53
5 -0.53
6 0.09
7 0.08
8 0.05
9 0.03

>  <PUBCHEM_PHARMACOPHORE_FEATURES>
8
1 1 acceptor
1 2 donor
1 3 acceptor
1 4 donor
1 5 donor
6 1 6 7 8 10 11 rings
6 6 7 12 13 14 15 rings
6 9 16 17 18 19 20 rings

>  <PUBCHEM_SHAPE_FINGERPRINT>
10014705 185 18335983090743610973
10319926 262 18339344337187947850
10411042 1 17833271196427205891
10493431 412 18339369544277550625
10498660 4 18336260146151624709
10608611 8 18342173405853837512
10646746 165 18410292501880224548
11315181 36 17967532415338923724
12107183 9 17973996255225508682
12173636 292 18409726227717107541
12236239 1 17458341966376888130
12390115 104 18270696268119625369
12403259 415 18202279234227041088
12500047 106 18411979165633848254
13073987 5 18334573538601782738
13140716 1 17974859676764465403
13544592 145 18269848531875060550
14508225 48 18124582335750861655
14790565 3 17908712730609502257
15042514 8 18192436496683379403
15196674 1 18411138009184468990
15375358 24 18272089392275024390
17844677 252 18338524131077601056
18186145 218 18201727210401115800
200 152 17060622204808618226
20510252 161 18342459253144016673
20645477 56 18410013234284757832
20645477 70 17203058396143606462
21033648 29 18271516554985427096
21065198 57 18411699920035301594
21236236 1 18412826893710328947
21267235 1 18337116777299593123
21279426 13 18269277859449011198
21421861 104 17750502976618702298
23402539 116 18412538829647092654
23402655 69 18131067100338114972
23557571 272 18342746247148492668
23559900 14 18271807861775124550
245318 6 16448986100328701468
283562 15 18410291424461079675
2916195 48 18342730849902058064
3004659 81 18335425613612532158
335352 9 18267022748231475478
350125 39 18410298038462750009
3545911 37 18342460348455732712
4028521 119 18341892965631935697
4214541 1 18411419514231212472
474 4 16879077545412114420
495365 180 17346021334593014002
5104073 3 18410011005465809410
542803 24 17530686524359763644
559249 180 18337386046670377618
633830 44 18199743644401676445
69090 78 18272086119177836790
77779 3 18412263930592437412
9709674 26 18342463655380539086

>  <PUBCHEM_SHAPE_MULTIPOLES>
382.24
10.96
2.41
0.66
9.09
0.24
0
-3.75
0.48
-2.84
-0.06
0.21
-0.01
0.71

>  <PUBCHEM_SHAPE_SELFOVERLAP>
856.39

>  <PUBCHEM_SHAPE_VOLUME>
201.3

>  <RI>
-1.12381e+09

>  <Rbt.Current_Directory>
/root/miniconda3/envs/rdock/share/rxdock-2013.1.1_148c5bd1-0/data/ligands/prepped_ligands/Apigenin

>  <Rbt.Executable>
rbdock/0.1.0

>  <Rbt.Library>
librxdock.so/0.1.0

>  <Rbt.Parameter_File>
/root/miniconda3/envs/rdock/share/rxdock-2013.1.1_148c5bd1-0/data/scripts/dock.prm

>  <Rbt.Receptor>
def.prm

>  <SCORE>
-14.9272

>  <SCORE.INTER>
-15.2469

>  <SCORE.INTER.CONST>
1

>  <SCORE.INTER.POLAR>
-0.757657

>  <SCORE.INTER.REPUL>
0.0259737

>  <SCORE.INTER.ROT>
1

>  <SCORE.INTER.VDW>
-19.2007

>  <SCORE.INTER.norm>
-0.762344

>  <SCORE.INTRA>
1.35547

>  <SCORE.INTRA.DIHEDRAL>
3.16913

>  <SCORE.INTRA.DIHEDRAL.0>
1.23283

>  <SCORE.INTRA.POLAR>
0

>  <SCORE.INTRA.POLAR.0>
0

>  <SCORE.INTRA.REPUL>
0

>  <SCORE.INTRA.REPUL.0>
0

>  <SCORE.INTRA.VDW>
-0.229102

>  <SCORE.INTRA.VDW.0>
1.06701

>  <SCORE.INTRA.norm>
0.0677733

>  <SCORE.RESTR>
0

>  <SCORE.RESTR.CAVITY>
0

>  <SCORE.RESTR.norm>
0

>  <SCORE.SYSTEM>
-1.03583

>  <SCORE.SYSTEM.CONST>
0

>  <SCORE.SYSTEM.DIHEDRAL>
0.0173205

>  <SCORE.SYSTEM.POLAR>
-0.00363459

>  <SCORE.SYSTEM.VDW>
-1.03213

>  <SCORE.SYSTEM.norm>
-0.0517913

>  <SCORE.heavy>
20

>  <SCORE.norm>
-0.746362

$$$$
5280443
  RxDock  02242112463D
librxdock.so/0.1.0
 23 25  0  0  0  0  0  0  0  0999 V2000
  -53.5144   -4.2341   16.3501 O   0  0  0  0  0  0
  -53.6347   -9.0734   16.6009 O   0  0  0  0  0  0
  -51.5290   -7.6664   17.2868 O   0  0  0  0  0  0
  -57.4052   -6.6303   15.0614 O   0  0  0  0  0  0
  -50.0238    0.9525   17.3007 O   0  0  0  0  0  0
  -53.5156   -6.6586   16.4982 C   0  0  0  0  0  0
  -54.1357   -5.4475   16.1957 C   0  0  0  0  0  0
  -52.2156   -4.2142   16.8355 C   0  0  0  0  0  0
  -51.6413   -2.8592   16.9568 C   0  0  0  0  0  0
  -52.1348   -6.6419   17.0046 C   0  0  0  0  0  0
  -51.5112   -5.3115   17.1553 C   0  0  0  0  0  0
  -54.1968   -7.8649   16.3205 C   0  0  0  0  0  0
  -55.4441   -5.4359   15.7122 C   0  0  0  0  0  0
  -56.1282   -6.6385   15.5335 C   0  0  0  0  0  0
  -55.5058   -7.8503   15.8371 C   0  0  0  0  0  0
  -52.2437   -1.9139   17.7907 C   0  0  0  0  0  0
  -50.4926   -2.5170   16.2394 C   0  0  0  0  0  0
  -51.7009   -0.6342   17.9058 C   0  0  0  0  0  0
  -49.9496   -1.2373   16.3548 C   0  0  0  0  0  0
  -50.5539   -0.2958   17.1879 C   0  0  0  0  0  0
  -52.6800   -9.0514   16.4345 H   0  0  0  0  0  0
  -57.8501   -5.8221   15.3693 H   0  0  0  0  0  0
  -49.0573    0.8939   17.2087 H   0  0  0  0  0  0
  1  7  1  0  0  0
  1  8  1  0  0  0
  2 12  1  0  0  0
  2 21  1  0  0  0
  3 10  2  0  0  0
  4 14  1  0  0  0
  4 22  1  0  0  0
  5 20  1  0  0  0
  5 23  1  0  0  0
  6  7  1  0  0  0
  6 10  1  0  0  0
  6 12  2  0  0  0
  7 13  2  0  0  0
  8  9  1  0  0  0
  8 11  2  0  0  0
  9 16  2  0  0  0
  9 17  1  0  0  0
 10 11  1  0  0  0
 12 15  1  0  0  0
 13 14  1  0  0  0
 14 15  2  0  0  0
 16 18  1  0  0  0
 17 19  2  0  0  0
 18 20  2  0  0  0
 19 20  1  0  0  0
M  END
>  <CHROM.0>
174.81087893,176.87791809,-44.33346569

>  <CHROM.1>
-32.22680504,-32.09023315,147.27202182,60.49257546,-52.89090509,-4.63500065
16.59981405,2.15956303,0.29194530,3.11864917

>  <Name>
5280443

>  <PUBCHEM_ATOM_DEF_STEREO_COUNT>
0

>  <PUBCHEM_ATOM_UDEF_STEREO_COUNT>
0

>  <PUBCHEM_BOND_DEF_STEREO_COUNT>
0

>  <PUBCHEM_BOND_UDEF_STEREO_COUNT>
0

>  <PUBCHEM_CACTVS_TAUTO_COUNT>
57

>  <PUBCHEM_COMPONENT_COUNT>
1

>  <PUBCHEM_COMPOUND_CID>
5280443

>  <PUBCHEM_CONFORMER_DIVERSEORDER>
1

>  <PUBCHEM_CONFORMER_ID>
005092BB00000001

>  <PUBCHEM_CONFORMER_RMSD>
0.6

>  <PUBCHEM_COORDINATE_TYPE>
2
5
10

>  <PUBCHEM_EFFECTIVE_ROTOR_COUNT>
1

>  <PUBCHEM_FEATURE_SELFOVERLAP>
40.625

>  <PUBCHEM_HEAVY_ATOM_COUNT>
20

>  <PUBCHEM_ISOTOPIC_ATOM_COUNT>
0

>  <PUBCHEM_MMFF94_ENERGY>
60.7436

>  <PUBCHEM_MMFF94_PARTIAL_CHARGES>
30
1 -0.16
10 0.47
11 -0.14
12 0.08
13 -0.15
14 0.08
15 -0.15
16 -0.15
17 -0.15
18 -0.15
19 -0.15
2 -0.53
20 0.08
21 0.15
22 0.15
23 0.15
24 0.15
25 0.15
26 0.15
27 0.15
28 0.45
29 0.45
3 -0.57
30 0.45
4 -0.53
5 -0.53
6 0.09
7 0.08
8 0.05
9 0.03

>  <PUBCHEM_PHARMACOPHORE_FEATURES>
8
1 1 acceptor
1 2 donor
1 3 acceptor
1 4 donor
1 5 donor
6 1 6 7 8 10 11 rings
6 6 7 12 13 14 15 rings
6 9 16 17 18 19 20 rings

>  <PUBCHEM_SHAPE_FINGERPRINT>
10014705 185 18335983090743610973
10319926 262 18339344337187947850
10411042 1 17833271196427205891
10493431 412 18339369544277550625
10498660 4 18336260146151624709
10608611 8 18342173405853837512
10646746 165 18410292501880224548
11315181 36 17967532415338923724
12107183 9 17973996255225508682
12173636 292 18409726227717107541
12236239 1 17458341966376888130
12390115 104 18270696268119625369
12403259 415 18202279234227041088
12500047 106 18411979165633848254
13073987 5 18334573538601782738
13140716 1 17974859676764465403
13544592 145 18269848531875060550
14508225 48 18124582335750861655
14790565 3 17908712730609502257
15042514 8 18192436496683379403
15196674 1 18411138009184468990
15375358 24 18272089392275024390
17844677 252 18338524131077601056
18186145 218 18201727210401115800
200 152 17060622204808618226
20510252 161 18342459253144016673
20645477 56 18410013234284757832
20645477 70 17203058396143606462
21033648 29 18271516554985427096
21065198 57 18411699920035301594
21236236 1 18412826893710328947
21267235 1 18337116777299593123
21279426 13 18269277859449011198
21421861 104 17750502976618702298
23402539 116 18412538829647092654
23402655 69 18131067100338114972
23557571 272 18342746247148492668
23559900 14 18271807861775124550
245318 6 16448986100328701468
283562 15 18410291424461079675
2916195 48 18342730849902058064
3004659 81 18335425613612532158
335352 9 18267022748231475478
350125 39 18410298038462750009
3545911 37 18342460348455732712
4028521 119 18341892965631935697
4214541 1 18411419514231212472
474 4 16879077545412114420
495365 180 17346021334593014002
5104073 3 18410011005465809410
542803 24 17530686524359763644
559249 180 18337386046670377618
633830 44 18199743644401676445
69090 78 18272086119177836790
77779 3 18412263930592437412
9709674 26 18342463655380539086

>  <PUBCHEM_SHAPE_MULTIPOLES>
382.24
10.96
2.41
0.66
9.09
0.24
0
-3.75
0.48
-2.84
-0.06
0.21
-0.01
0.71

>  <PUBCHEM_SHAPE_SELFOVERLAP>
856.39

>  <PUBCHEM_SHAPE_VOLUME>
201.3

>  <RI>
-1.12381e+09

>  <Rbt.Current_Directory>
/root/miniconda3/envs/rdock/share/rxdock-2013.1.1_148c5bd1-0/data/ligands/prepped_ligands/Apigenin

>  <Rbt.Executable>
rbdock/0.1.0

>  <Rbt.Library>
librxdock.so/0.1.0

>  <Rbt.Parameter_File>
/root/miniconda3/envs/rdock/share/rxdock-2013.1.1_148c5bd1-0/data/scripts/dock.prm

>  <Rbt.Receptor>
def.prm

>  <SCORE>
-14.8913

>  <SCORE.INTER>
-16.1954

>  <SCORE.INTER.CONST>
1

>  <SCORE.INTER.POLAR>
-1.71776

>  <SCORE.INTER.REPUL>
0

>  <SCORE.INTER.ROT>
1

>  <SCORE.INTER.VDW>
-16.755

>  <SCORE.INTER.norm>
-0.809771

>  <SCORE.INTRA>
1.93145

>  <SCORE.INTRA.DIHEDRAL>
6.48684

>  <SCORE.INTRA.DIHEDRAL.0>
1.23283

>  <SCORE.INTRA.POLAR>
0

>  <SCORE.INTRA.POLAR.0>
0

>  <SCORE.INTRA.REPUL>
0

>  <SCORE.INTRA.REPUL.0>
0

>  <SCORE.INTRA.VDW>
-1.31197

>  <SCORE.INTRA.VDW.0>
1.06701

>  <SCORE.INTRA.norm>
0.0965725

>  <SCORE.RESTR>
0

>  <SCORE.RESTR.CAVITY>
0

>  <SCORE.RESTR.norm>
0

>  <SCORE.SYSTEM>
-0.627352

>  <SCORE.SYSTEM.CONST>
0

>  <SCORE.SYSTEM.DIHEDRAL>
0.678979

>  <SCORE.SYSTEM.POLAR>
-0.0201126

>  <SCORE.SYSTEM.VDW>
-0.898458

>  <SCORE.SYSTEM.norm>
-0.0313676

>  <SCORE.heavy>
20

>  <SCORE.norm>
-0.744566

$$$$
5280443
  RxDock  02242112463D
librxdock.so/0.1.0
 23 25  0  0  0  0  0  0  0  0999 V2000
  -51.9711   -3.8377   16.9424 O   0  0  0  0  0  0
  -49.9518    0.2719   15.3519 O   0  0  0  0  0  0
  -51.3400   -1.3236   13.7990 O   0  0  0  0  0  0
  -49.4813   -1.0655   19.8845 O   0  0  0  0  0  0
  -55.4250   -8.8985   15.3810 O   0  0  0  0  0  0
  -50.9829   -1.7899   16.0879 C   0  0  0  0  0  0
  -51.2356   -2.6931   17.1189 C   0  0  0  0  0  0
  -52.4911   -4.1010   15.6841 C   0  0  0  0  0  0
  -53.2598   -5.3593   15.6041 C   0  0  0  0  0  0
  -51.5252   -2.0706   14.7498 C   0  0  0  0  0  0
  -52.3117   -3.3131   14.6121 C   0  0  0  0  0  0
  -50.2264   -0.6401   16.3255 C   0  0  0  0  0  0
  -50.7312   -2.4513   18.3969 C   0  0  0  0  0  0
  -49.9751   -1.3040   18.6384 C   0  0  0  0  0  0
  -49.7234   -0.4005   17.6049 C   0  0  0  0  0  0
  -53.0736   -6.3574   16.5636 C   0  0  0  0  0  0
  -54.1774   -5.5564   14.5695 C   0  0  0  0  0  0
  -53.8002   -7.5457   16.4885 C   0  0  0  0  0  0
  -54.9043   -6.7447   14.4946 C   0  0  0  0  0  0
  -54.7155   -7.7394   15.4540 C   0  0  0  0  0  0
  -50.2905   -0.0318   14.4959 H   0  0  0  0  0  0
  -49.7813   -1.7709   20.4831 H   0  0  0  0  0  0
  -55.8286   -8.9657   14.4986 H   0  0  0  0  0  0
  1  7  1  0  0  0
  1  8  1  0  0  0
  2 12  1  0  0  0
  2 21  1  0  0  0
  3 10  2  0  0  0
  4 14  1  0  0  0
  4 22  1  0  0  0
  5 20  1  0  0  0
  5 23  1  0  0  0
  6  7  1  0  0  0
  6 10  1  0  0  0
  6 12  2  0  0  0
  7 13  2  0  0  0
  8  9  1  0  0  0
  8 11  2  0  0  0
  9 16  2  0  0  0
  9 17  1  0  0  0
 10 11  1  0  0  0
 12 15  1  0  0  0
 13 14  1  0  0  0
 14 15  2  0  0  0
 16 18  1  0  0  0
 17 19  2  0  0  0
 18 20  2  0  0  0
 19 20  1  0  0  0
M  END
>  <CHROM.0>
56.47697701,-67.72890058,177.77589790

>  <CHROM.1>
-4.39928004,-2.36406422,-165.39165446,-20.21886088,-52.04812232,-3.62106325
16.19502912,-0.19943260,0.97825543,2.08150415

>  <Name>
5280443

>  <PUBCHEM_ATOM_DEF_STEREO_COUNT>
0

>  <PUBCHEM_ATOM_UDEF_STEREO_COUNT>
0

>  <PUBCHEM_BOND_DEF_STEREO_COUNT>
0

>  <PUBCHEM_BOND_UDEF_STEREO_COUNT>
0

>  <PUBCHEM_CACTVS_TAUTO_COUNT>
57

>  <PUBCHEM_COMPONENT_COUNT>
1

>  <PUBCHEM_COMPOUND_CID>
5280443

>  <PUBCHEM_CONFORMER_DIVERSEORDER>
1

>  <PUBCHEM_CONFORMER_ID>
005092BB00000001

>  <PUBCHEM_CONFORMER_RMSD>
0.6

>  <PUBCHEM_COORDINATE_TYPE>
2
5
10

>  <PUBCHEM_EFFECTIVE_ROTOR_COUNT>
1

>  <PUBCHEM_FEATURE_SELFOVERLAP>
40.625

>  <PUBCHEM_HEAVY_ATOM_COUNT>
20

>  <PUBCHEM_ISOTOPIC_ATOM_COUNT>
0

>  <PUBCHEM_MMFF94_ENERGY>
60.7436

>  <PUBCHEM_MMFF94_PARTIAL_CHARGES>
30
1 -0.16
10 0.47
11 -0.14
12 0.08
13 -0.15
14 0.08
15 -0.15
16 -0.15
17 -0.15
18 -0.15
19 -0.15
2 -0.53
20 0.08
21 0.15
22 0.15
23 0.15
24 0.15
25 0.15
26 0.15
27 0.15
28 0.45
29 0.45
3 -0.57
30 0.45
4 -0.53
5 -0.53
6 0.09
7 0.08
8 0.05
9 0.03

>  <PUBCHEM_PHARMACOPHORE_FEATURES>
8
1 1 acceptor
1 2 donor
1 3 acceptor
1 4 donor
1 5 donor
6 1 6 7 8 10 11 rings
6 6 7 12 13 14 15 rings
6 9 16 17 18 19 20 rings

>  <PUBCHEM_SHAPE_FINGERPRINT>
10014705 185 18335983090743610973
10319926 262 18339344337187947850
10411042 1 17833271196427205891
10493431 412 18339369544277550625
10498660 4 18336260146151624709
10608611 8 18342173405853837512
10646746 165 18410292501880224548
11315181 36 17967532415338923724
12107183 9 17973996255225508682
12173636 292 18409726227717107541
12236239 1 17458341966376888130
12390115 104 18270696268119625369
12403259 415 18202279234227041088
12500047 106 18411979165633848254
13073987 5 18334573538601782738
13140716 1 17974859676764465403
13544592 145 18269848531875060550
14508225 48 18124582335750861655
14790565 3 17908712730609502257
15042514 8 18192436496683379403
15196674 1 18411138009184468990
15375358 24 18272089392275024390
17844677 252 18338524131077601056
18186145 218 18201727210401115800
200 152 17060622204808618226
20510252 161 18342459253144016673
20645477 56 18410013234284757832
20645477 70 17203058396143606462
21033648 29 18271516554985427096
21065198 57 18411699920035301594
21236236 1 18412826893710328947
21267235 1 18337116777299593123
21279426 13 18269277859449011198
21421861 104 17750502976618702298
23402539 116 18412538829647092654
23402655 69 18131067100338114972
23557571 272 18342746247148492668
23559900 14 18271807861775124550
245318 6 16448986100328701468
283562 15 18410291424461079675
2916195 48 18342730849902058064
3004659 81 18335425613612532158
335352 9 18267022748231475478
350125 39 18410298038462750009
3545911 37 18342460348455732712
4028521 119 18341892965631935697
4214541 1 18411419514231212472
474 4 16879077545412114420
495365 180 17346021334593014002
5104073 3 18410011005465809410
542803 24 17530686524359763644
559249 180 18337386046670377618
633830 44 18199743644401676445
69090 78 18272086119177836790
77779 3 18412263930592437412
9709674 26 18342463655380539086

>  <PUBCHEM_SHAPE_MULTIPOLES>
382.24
10.96
2.41
0.66
9.09
0.24
0
-3.75
0.48
-2.84
-0.06
0.21
-0.01
0.71

>  <PUBCHEM_SHAPE_SELFOVERLAP>
856.39

>  <PUBCHEM_SHAPE_VOLUME>
201.3

>  <RI>
-1.12381e+09

>  <Rbt.Current_Directory>
/root/miniconda3/envs/rdock/share/rxdock-2013.1.1_148c5bd1-0/data/ligands/prepped_ligands/Apigenin

>  <Rbt.Executable>
rbdock/0.1.0

>  <Rbt.Library>
librxdock.so/0.1.0

>  <Rbt.Parameter_File>
/root/miniconda3/envs/rdock/share/rxdock-2013.1.1_148c5bd1-0/data/scripts/dock.prm

>  <Rbt.Receptor>
def.prm

>  <SCORE>
-13.93

>  <SCORE.INTER>
-12.9548

>  <SCORE.INTER.CONST>
1

>  <SCORE.INTER.POLAR>
-0.864862

>  <SCORE.INTER.REPUL>
0

>  <SCORE.INTER.ROT>
1

>  <SCORE.INTER.VDW>
-16.4143

>  <SCORE.INTER.norm>
-0.647742

>  <SCORE.INTRA>
0.00833151

>  <SCORE.INTRA.DIHEDRAL>
-0.288951

>  <SCORE.INTRA.DIHEDRAL.0>
1.23283

>  <SCORE.INTRA.POLAR>
0

>  <SCORE.INTRA.POLAR.0>
0

>  <SCORE.INTRA.REPUL>
0

>  <SCORE.INTRA.REPUL.0>
0

>  <SCORE.INTRA.VDW>
0.152807

>  <SCORE.INTRA.VDW.0>
1.06701

>  <SCORE.INTRA.norm>
0.000416576

>  <SCORE.RESTR>
0

>  <SCORE.RESTR.CAVITY>
0

>  <SCORE.RESTR.norm>
0

>  <SCORE.SYSTEM>
-0.983456

>  <SCORE.SYSTEM.CONST>
0

>  <SCORE.SYSTEM.DIHEDRAL>
0.338111

>  <SCORE.SYSTEM.VDW>
-1.15251

>  <SCORE.SYSTEM.norm>
-0.0491728

>  <SCORE.heavy>
20

>  <SCORE.norm>
-0.696499

$$$$
5280443
  RxDock  02242112463D
librxdock.so/0.1.0
 23 25  0  0  0  0  0  0  0  0999 V2000
  -49.0284   -0.8176   15.2794 O   0  0  0  0  0  0
  -49.4649   -5.5769   16.0886 O   0  0  0  0  0  0
  -49.5440   -4.5308   13.6837 O   0  0  0  0  0  0
  -48.8713   -2.5477   19.6979 O   0  0  0  0  0  0
  -48.9061    3.7408   10.8999 O   0  0  0  0  0  0
  -49.2523   -3.2118   15.6226 C   0  0  0  0  0  0
  -49.0796   -1.9145   16.1020 C   0  0  0  0  0  0
  -49.1462   -1.0119   13.9115 C   0  0  0  0  0  0
  -49.0837    0.2339   13.1212 C   0  0  0  0  0  0
  -49.3869   -3.4207   14.1729 C   0  0  0  0  0  0
  -49.3227   -2.2093   13.3305 C   0  0  0  0  0  0
  -49.2976   -4.2917   16.5073 C   0  0  0  0  0  0
  -48.9513   -1.6889   17.4726 C   0  0  0  0  0  0
  -48.9959   -2.7648   18.3597 C   0  0  0  0  0  0
  -49.1686   -4.0632   17.8779 C   0  0  0  0  0  0
  -50.0824    1.2014   13.2563 C   0  0  0  0  0  0
  -48.0250    0.4510   12.2361 C   0  0  0  0  0  0
  -50.0230    2.3785   12.5102 C   0  0  0  0  0  0
  -47.9655    1.6283   11.4903 C   0  0  0  0  0  0
  -48.9646    2.5920   11.6272 C   0  0  0  0  0  0
  -49.5459   -5.6125   15.1233 H   0  0  0  0  0  0
  -49.0492   -3.3790   20.1703 H   0  0  0  0  0  0
  -49.4596    3.6397   10.1064 H   0  0  0  0  0  0
  1  7  1  0  0  0
  1  8  1  0  0  0
  2 12  1  0  0  0
  2 21  1  0  0  0
  3 10  2  0  0  0
  4 14  1  0  0  0
  4 22  1  0  0  0
  5 20  1  0  0  0
  5 23  1  0  0  0
  6  7  1  0  0  0
  6 10  1  0  0  0
  6 12  2  0  0  0
  7 13  2  0  0  0
  8  9  1  0  0  0
  8 11  2  0  0  0
  9 16  2  0  0  0
  9 17  1  0  0  0
 10 11  1  0  0  0
 12 15  1  0  0  0
 13 14  1  0  0  0
 14 15  2  0  0  0
 16 18  1  0  0  0
 17 19  2  0  0  0
 18 20  2  0  0  0
 19 20  1  0  0  0
M  END
>  <CHROM.0>
59.47587328,-67.01030198,177.05878731

>  <CHROM.1>
-0.18756129,172.11488190,-83.46474490,-64.86570480,-49.13174656,-1.31992907
14.68551543,-1.93113101,-1.49898830,-1.09875713

>  <Name>
5280443

>  <PUBCHEM_ATOM_DEF_STEREO_COUNT>
0

>  <PUBCHEM_ATOM_UDEF_STEREO_COUNT>
0

>  <PUBCHEM_BOND_DEF_STEREO_COUNT>
0

>  <PUBCHEM_BOND_UDEF_STEREO_COUNT>
0

>  <PUBCHEM_CACTVS_TAUTO_COUNT>
57

>  <PUBCHEM_COMPONENT_COUNT>
1

>  <PUBCHEM_COMPOUND_CID>
5280443

>  <PUBCHEM_CONFORMER_DIVERSEORDER>
1

>  <PUBCHEM_CONFORMER_ID>
005092BB00000001

>  <PUBCHEM_CONFORMER_RMSD>
0.6

>  <PUBCHEM_COORDINATE_TYPE>
2
5
10

>  <PUBCHEM_EFFECTIVE_ROTOR_COUNT>
1

>  <PUBCHEM_FEATURE_SELFOVERLAP>
40.625

>  <PUBCHEM_HEAVY_ATOM_COUNT>
20

>  <PUBCHEM_ISOTOPIC_ATOM_COUNT>
0

>  <PUBCHEM_MMFF94_ENERGY>
60.7436

>  <PUBCHEM_MMFF94_PARTIAL_CHARGES>
30
1 -0.16
10 0.47
11 -0.14
12 0.08
13 -0.15
14 0.08
15 -0.15
16 -0.15
17 -0.15
18 -0.15
19 -0.15
2 -0.53
20 0.08
21 0.15
22 0.15
23 0.15
24 0.15
25 0.15
26 0.15
27 0.15
28 0.45
29 0.45
3 -0.57
30 0.45
4 -0.53
5 -0.53
6 0.09
7 0.08
8 0.05
9 0.03

>  <PUBCHEM_PHARMACOPHORE_FEATURES>
8
1 1 acceptor
1 2 donor
1 3 acceptor
1 4 donor
1 5 donor
6 1 6 7 8 10 11 rings
6 6 7 12 13 14 15 rings
6 9 16 17 18 19 20 rings

>  <PUBCHEM_SHAPE_FINGERPRINT>
10014705 185 18335983090743610973
10319926 262 18339344337187947850
10411042 1 17833271196427205891
10493431 412 18339369544277550625
10498660 4 18336260146151624709
10608611 8 18342173405853837512
10646746 165 18410292501880224548
11315181 36 17967532415338923724
12107183 9 17973996255225508682
12173636 292 18409726227717107541
12236239 1 17458341966376888130
12390115 104 18270696268119625369
12403259 415 18202279234227041088
12500047 106 18411979165633848254
13073987 5 18334573538601782738
13140716 1 17974859676764465403
13544592 145 18269848531875060550
14508225 48 18124582335750861655
14790565 3 17908712730609502257
15042514 8 18192436496683379403
15196674 1 18411138009184468990
15375358 24 18272089392275024390
17844677 252 18338524131077601056
18186145 218 18201727210401115800
200 152 17060622204808618226
20510252 161 18342459253144016673
20645477 56 18410013234284757832
20645477 70 17203058396143606462
21033648 29 18271516554985427096
21065198 57 18411699920035301594
21236236 1 18412826893710328947
21267235 1 18337116777299593123
21279426 13 18269277859449011198
21421861 104 17750502976618702298
23402539 116 18412538829647092654
23402655 69 18131067100338114972
23557571 272 18342746247148492668
23559900 14 18271807861775124550
245318 6 16448986100328701468
283562 15 18410291424461079675
2916195 48 18342730849902058064
3004659 81 18335425613612532158
335352 9 18267022748231475478
350125 39 18410298038462750009
3545911 37 18342460348455732712
4028521 119 18341892965631935697
4214541 1 18411419514231212472
474 4 16879077545412114420
495365 180 17346021334593014002
5104073 3 18410011005465809410
542803 24 17530686524359763644
559249 180 18337386046670377618
633830 44 18199743644401676445
69090 78 18272086119177836790
77779 3 18412263930592437412
9709674 26 18342463655380539086

>  <PUBCHEM_SHAPE_MULTIPOLES>
382.24
10.96
2.41
0.66
9.09
0.24
0
-3.75
0.48
-2.84
-0.06
0.21
-0.01
0.71

>  <PUBCHEM_SHAPE_SELFOVERLAP>
856.39

>  <PUBCHEM_SHAPE_VOLUME>
201.3

>  <RI>
-1.12381e+09

>  <Rbt.Current_Directory>
/root/miniconda3/envs/rdock/share/rxdock-2013.1.1_148c5bd1-0/data/ligands/prepped_ligands/Apigenin

>  <Rbt.Executable>
rbdock/0.1.0

>  <Rbt.Library>
librxdock.so/0.1.0

>  <Rbt.Parameter_File>
/root/miniconda3/envs/rdock/share/rxdock-2013.1.1_148c5bd1-0/data/scripts/dock.prm

>  <Rbt.Receptor>
def.prm

>  <SCORE>
-12.1677

>  <SCORE.INTER>
-13.7166

>  <SCORE.INTER.CONST>
1

>  <SCORE.INTER.POLAR>
-0.638464

>  <SCORE.INTER.REPUL>
0

>  <SCORE.INTER.ROT>
1

>  <SCORE.INTER.VDW>
-17.9458

>  <SCORE.INTER.norm>
-0.68583

>  <SCORE.INTRA>
2.56715

>  <SCORE.INTRA.DIHEDRAL>
7.56086

>  <SCORE.INTRA.DIHEDRAL.0>
1.23283

>  <SCORE.INTRA.POLAR>
0

>  <SCORE.INTRA.POLAR.0>
0

>  <SCORE.INTRA.REPUL>
0

>  <SCORE.INTRA.REPUL.0>
0

>  <SCORE.INTRA.VDW>
-1.21328

>  <SCORE.INTRA.VDW.0>
1.06701

>  <SCORE.INTRA.norm>
0.128357

>  <SCORE.RESTR>
0.00014416

>  <SCORE.RESTR.CAVITY>
0.00014416

>  <SCORE.RESTR.norm>
7.20801e-06

>  <SCORE.SYSTEM>
-1.0184

>  <SCORE.SYSTEM.CONST>
0

>  <SCORE.SYSTEM.DIHEDRAL>
0.264764

>  <SCORE.SYSTEM.VDW>
-1.15079

>  <SCORE.SYSTEM.norm>
-0.0509202

>  <SCORE.heavy>
20

>  <SCORE.norm>
-0.608386

$$$$
5280443
  RxDock  02242112463D
librxdock.so/0.1.0
 23 25  0  0  0  0  0  0  0  0999 V2000
  -50.4559   -1.3412   13.6694 O   0  0  0  0  0  0
  -48.9932   -5.3061   16.0434 O   0  0  0  0  0  0
  -47.3319   -3.4533   15.2117 O   0  0  0  0  0  0
  -53.5944   -4.6040   15.0992 O   0  0  0  0  0  0
  -48.6430    4.0361   10.8806 O   0  0  0  0  0  0
  -49.6633   -3.3072   14.8553 C   0  0  0  0  0  0
  -50.6849   -2.5355   14.3045 C   0  0  0  0  0  0
  -49.1510   -0.8804   13.5797 C   0  0  0  0  0  0
  -49.0175    0.4090   12.8726 C   0  0  0  0  0  0
  -48.2771   -2.8262   14.7540 C   0  0  0  0  0  0
  -48.0834   -1.5349   14.0637 C   0  0  0  0  0  0
  -49.9553   -4.5164   15.4903 C   0  0  0  0  0  0
  -52.0080   -2.9700   14.3854 C   0  0  0  0  0  0
  -52.3040   -4.1771   15.0190 C   0  0  0  0  0  0
  -51.2798   -4.9485   15.5702 C   0  0  0  0  0  0
  -47.8969    0.6602   12.0771 C   0  0  0  0  0  0
  -50.0116    1.3827   12.9951 C   0  0  0  0  0  0
  -47.7710    1.8780   11.4087 C   0  0  0  0  0  0
  -49.8858    2.6004   12.3263 C   0  0  0  0  0  0
  -48.7654    2.8482   11.5332 C   0  0  0  0  0  0
  -48.1154   -4.9171   15.9096 H   0  0  0  0  0  0
  -54.1239   -4.1349   14.4317 H   0  0  0  0  0  0
  -49.4403    4.5688   11.0438 H   0  0  0  0  0  0
  1  7  1  0  0  0
  1  8  1  0  0  0
  2 12  1  0  0  0
  2 21  1  0  0  0
  3 10  2  0  0  0
  4 14  1  0  0  0
  4 22  1  0  0  0
  5 20  1  0  0  0
  5 23  1  0  0  0
  6  7  1  0  0  0
  6 10  1  0  0  0
  6 12  2  0  0  0
  7 13  2  0  0  0
  8  9  1  0  0  0
  8 11  2  0  0  0
  9 16  2  0  0  0
  9 17  1  0  0  0
 10 11  1  0  0  0
 12 15  1  0  0  0
 13 14  1  0  0  0
 14 15  2  0  0  0
 16 18  1  0  0  0
 17 19  2  0  0  0
 18 20  2  0  0  0
 19 20  1  0  0  0
M  END
>  <CHROM.0>
-179.29538557,56.42076525,-173.95789239

>  <CHROM.1>
-1.29722817,18.92145510,177.23471141,-145.01077156,-49.70361310,-1.45563360
13.82016996,1.83342728,0.04613419,2.64911106

>  <Name>
5280443

>  <PUBCHEM_ATOM_DEF_STEREO_COUNT>
0

>  <PUBCHEM_ATOM_UDEF_STEREO_COUNT>
0

>  <PUBCHEM_BOND_DEF_STEREO_COUNT>
0

>  <PUBCHEM_BOND_UDEF_STEREO_COUNT>
0

>  <PUBCHEM_CACTVS_TAUTO_COUNT>
57

>  <PUBCHEM_COMPONENT_COUNT>
1

>  <PUBCHEM_COMPOUND_CID>
5280443

>  <PUBCHEM_CONFORMER_DIVERSEORDER>
1

>  <PUBCHEM_CONFORMER_ID>
005092BB00000001

>  <PUBCHEM_CONFORMER_RMSD>
0.6

>  <PUBCHEM_COORDINATE_TYPE>
2
5
10

>  <PUBCHEM_EFFECTIVE_ROTOR_COUNT>
1

>  <PUBCHEM_FEATURE_SELFOVERLAP>
40.625

>  <PUBCHEM_HEAVY_ATOM_COUNT>
20

>  <PUBCHEM_ISOTOPIC_ATOM_COUNT>
0

>  <PUBCHEM_MMFF94_ENERGY>
60.7436

>  <PUBCHEM_MMFF94_PARTIAL_CHARGES>
30
1 -0.16
10 0.47
11 -0.14
12 0.08
13 -0.15
14 0.08
15 -0.15
16 -0.15
17 -0.15
18 -0.15
19 -0.15
2 -0.53
20 0.08
21 0.15
22 0.15
23 0.15
24 0.15
25 0.15
26 0.15
27 0.15
28 0.45
29 0.45
3 -0.57
30 0.45
4 -0.53
5 -0.53
6 0.09
7 0.08
8 0.05
9 0.03

>  <PUBCHEM_PHARMACOPHORE_FEATURES>
8
1 1 acceptor
1 2 donor
1 3 acceptor
1 4 donor
1 5 donor
6 1 6 7 8 10 11 rings
6 6 7 12 13 14 15 rings
6 9 16 17 18 19 20 rings

>  <PUBCHEM_SHAPE_FINGERPRINT>
10014705 185 18335983090743610973
10319926 262 18339344337187947850
10411042 1 17833271196427205891
10493431 412 18339369544277550625
10498660 4 18336260146151624709
10608611 8 18342173405853837512
10646746 165 18410292501880224548
11315181 36 17967532415338923724
12107183 9 17973996255225508682
12173636 292 18409726227717107541
12236239 1 17458341966376888130
12390115 104 18270696268119625369
12403259 415 18202279234227041088
12500047 106 18411979165633848254
13073987 5 18334573538601782738
13140716 1 17974859676764465403
13544592 145 18269848531875060550
14508225 48 18124582335750861655
14790565 3 17908712730609502257
15042514 8 18192436496683379403
15196674 1 18411138009184468990
15375358 24 18272089392275024390
17844677 252 18338524131077601056
18186145 218 18201727210401115800
200 152 17060622204808618226
20510252 161 18342459253144016673
20645477 56 18410013234284757832
20645477 70 17203058396143606462
21033648 29 18271516554985427096
21065198 57 18411699920035301594
21236236 1 18412826893710328947
21267235 1 18337116777299593123
21279426 13 18269277859449011198
21421861 104 17750502976618702298
23402539 116 18412538829647092654
23402655 69 18131067100338114972
23557571 272 18342746247148492668
23559900 14 18271807861775124550
245318 6 16448986100328701468
283562 15 18410291424461079675
2916195 48 18342730849902058064
3004659 81 18335425613612532158
335352 9 18267022748231475478
350125 39 18410298038462750009
3545911 37 18342460348455732712
4028521 119 18341892965631935697
4214541 1 18411419514231212472
474 4 16879077545412114420
495365 180 17346021334593014002
5104073 3 18410011005465809410
542803 24 17530686524359763644
559249 180 18337386046670377618
633830 44 18199743644401676445
69090 78 18272086119177836790
77779 3 18412263930592437412
9709674 26 18342463655380539086

>  <PUBCHEM_SHAPE_MULTIPOLES>
382.24
10.96
2.41
0.66
9.09
0.24
0
-3.75
0.48
-2.84
-0.06
0.21
-0.01
0.71

>  <PUBCHEM_SHAPE_SELFOVERLAP>
856.39

>  <PUBCHEM_SHAPE_VOLUME>
201.3

>  <RI>
-1.12381e+09

>  <Rbt.Current_Directory>
/root/miniconda3/envs/rdock/share/rxdock-2013.1.1_148c5bd1-0/data/ligands/prepped_ligands/Apigenin

>  <Rbt.Executable>
rbdock/0.1.0

>  <Rbt.Library>
librxdock.so/0.1.0

>  <Rbt.Parameter_File>
/root/miniconda3/envs/rdock/share/rxdock-2013.1.1_148c5bd1-0/data/scripts/dock.prm

>  <Rbt.Receptor>
def.prm

>  <SCORE>
-16.8353

>  <SCORE.INTER>
-16.2887

>  <SCORE.INTER.CONST>
1

>  <SCORE.INTER.POLAR>
-0.145157

>  <SCORE.INTER.REPUL>
0

>  <SCORE.INTER.ROT>
1

>  <SCORE.INTER.VDW>
-22.1952

>  <SCORE.INTER.norm>
-0.814436

>  <SCORE.INTRA>
0.227396

>  <SCORE.INTRA.DIHEDRAL>
0.825072

>  <SCORE.INTRA.DIHEDRAL.0>
1.23283

>  <SCORE.INTRA.POLAR>
0

>  <SCORE.INTRA.POLAR.0>
0

>  <SCORE.INTRA.REPUL>
0

>  <SCORE.INTRA.REPUL.0>
0

>  <SCORE.INTRA.VDW>
-0.18514

>  <SCORE.INTRA.VDW.0>
1.06701

>  <SCORE.INTRA.norm>
0.0113698

>  <SCORE.RESTR>
0.0504599

>  <SCORE.RESTR.CAVITY>
0.0504599

>  <SCORE.RESTR.norm>
0.00252299

>  <SCORE.SYSTEM>
-0.824422

>  <SCORE.SYSTEM.CONST>
0

>  <SCORE.SYSTEM.DIHEDRAL>
0.148417

>  <SCORE.SYSTEM.POLAR>
-0.0137582

>  <SCORE.SYSTEM.VDW>
-0.851853

>  <SCORE.SYSTEM.norm>
-0.0412211

>  <SCORE.heavy>
20

>  <SCORE.norm>
-0.841765

$$$$
