5280443
  RxDock  02242101503D
librxdock.so/0.1.0
 23 25  0  0  0  0  0  0  0  0999 V2000
  -51.5239   -3.9428   15.1967 O   0  0  0  0  0  0
  -51.7896   -8.1458   17.5966 O   0  0  0  0  0  0
  -49.5149   -6.9424   17.0849 O   0  0  0  0  0  0
  -55.7235   -5.9931   16.0331 O   0  0  0  0  0  0
  -47.6769    0.5248   12.9109 O   0  0  0  0  0  0
  -51.5941   -6.0487   16.4050 C   0  0  0  0  0  0
  -52.2180   -4.9916   15.7448 C   0  0  0  0  0  0
  -50.1421   -3.9327   15.3127 C   0  0  0  0  0  0
  -49.4958   -2.7634   14.6836 C   0  0  0  0  0  0
  -50.1279   -6.0460   16.5220 C   0  0  0  0  0  0
  -49.4274   -4.8945   15.9181 C   0  0  0  0  0  0
  -52.3518   -7.0912   16.9434 C   0  0  0  0  0  0
  -53.6071   -4.9710   15.6186 C   0  0  0  0  0  0
  -54.3677   -6.0102   16.1551 C   0  0  0  0  0  0
  -53.7412   -7.0678   16.8161 C   0  0  0  0  0  0
  -48.1143   -2.5844   14.7888 C   0  0  0  0  0  0
  -50.2628   -1.8321   13.9796 C   0  0  0  0  0  0
  -47.5037   -1.4803   14.1939 C   0  0  0  0  0  0
  -49.6521   -0.7281   13.3845 C   0  0  0  0  0  0
  -48.2726   -0.5521   13.4918 C   0  0  0  0  0  0
  -52.4231   -8.8755   17.6732 H   0  0  0  0  0  0
  -56.0508   -6.9088   16.0207 H   0  0  0  0  0  0
  -46.7846    0.2714   12.6181 H   0  0  0  0  0  0
  1  7  1  0  0  0
  1  8  1  0  0  0
  2 12  1  0  0  0
  2 21  1  0  0  0
  3 10  2  0  0  0
  4 14  1  0  0  0
  4 22  1  0  0  0
  5 20  1  0  0  0
  5 23  1  0  0  0
  6  7  1  0  0  0
  6 10  1  0  0  0
  6 12  2  0  0  0
  7 13  2  0  0  0
  8  9  1  0  0  0
  8 11  2  0  0  0
  9 16  2  0  0  0
  9 17  1  0  0  0
 10 11  1  0  0  0
 12 15  1  0  0  0
 13 14  1  0  0  0
 14 15  2  0  0  0
 16 18  1  0  0  0
 17 19  2  0  0  0
 18 20  2  0  0  0
 19 20  1  0  0  0
M  END
>  <CHROM.0>
-60.21793673,-66.55243199,51.97590892

>  <CHROM.1>
-163.86238648,151.16367751,32.69160097,176.39450934,-50.88049089,-4.30710687
15.45043954,2.20459903,0.07871549,2.61177049

>  <Name>
5280443

>  <PUBCHEM_ATOM_DEF_STEREO_COUNT>
0

>  <PUBCHEM_ATOM_UDEF_STEREO_COUNT>
0

>  <PUBCHEM_BOND_DEF_STEREO_COUNT>
0

>  <PUBCHEM_BOND_UDEF_STEREO_COUNT>
0

>  <PUBCHEM_CACTVS_TAUTO_COUNT>
57

>  <PUBCHEM_COMPONENT_COUNT>
1

>  <PUBCHEM_COMPOUND_CID>
5280443

>  <PUBCHEM_CONFORMER_DIVERSEORDER>
1

>  <PUBCHEM_CONFORMER_ID>
005092BB00000001

>  <PUBCHEM_CONFORMER_RMSD>
0.6

>  <PUBCHEM_COORDINATE_TYPE>
2
5
10

>  <PUBCHEM_EFFECTIVE_ROTOR_COUNT>
1

>  <PUBCHEM_FEATURE_SELFOVERLAP>
40.625

>  <PUBCHEM_HEAVY_ATOM_COUNT>
20

>  <PUBCHEM_ISOTOPIC_ATOM_COUNT>
0

>  <PUBCHEM_MMFF94_ENERGY>
60.7436

>  <PUBCHEM_MMFF94_PARTIAL_CHARGES>
30
1 -0.16
10 0.47
11 -0.14
12 0.08
13 -0.15
14 0.08
15 -0.15
16 -0.15
17 -0.15
18 -0.15
19 -0.15
2 -0.53
20 0.08
21 0.15
22 0.15
23 0.15
24 0.15
25 0.15
26 0.15
27 0.15
28 0.45
29 0.45
3 -0.57
30 0.45
4 -0.53
5 -0.53
6 0.09
7 0.08
8 0.05
9 0.03

>  <PUBCHEM_PHARMACOPHORE_FEATURES>
8
1 1 acceptor
1 2 donor
1 3 acceptor
1 4 donor
1 5 donor
6 1 6 7 8 10 11 rings
6 6 7 12 13 14 15 rings
6 9 16 17 18 19 20 rings

>  <PUBCHEM_SHAPE_FINGERPRINT>
10014705 185 18335983090743610973
10319926 262 18339344337187947850
10411042 1 17833271196427205891
10493431 412 18339369544277550625
10498660 4 18336260146151624709
10608611 8 18342173405853837512
10646746 165 18410292501880224548
11315181 36 17967532415338923724
12107183 9 17973996255225508682
12173636 292 18409726227717107541
12236239 1 17458341966376888130
12390115 104 18270696268119625369
12403259 415 18202279234227041088
12500047 106 18411979165633848254
13073987 5 18334573538601782738
13140716 1 17974859676764465403
13544592 145 18269848531875060550
14508225 48 18124582335750861655
14790565 3 17908712730609502257
15042514 8 18192436496683379403
15196674 1 18411138009184468990
15375358 24 18272089392275024390
17844677 252 18338524131077601056
18186145 218 18201727210401115800
200 152 17060622204808618226
20510252 161 18342459253144016673
20645477 56 18410013234284757832
20645477 70 17203058396143606462
21033648 29 18271516554985427096
21065198 57 18411699920035301594
21236236 1 18412826893710328947
21267235 1 18337116777299593123
21279426 13 18269277859449011198
21421861 104 17750502976618702298
23402539 116 18412538829647092654
23402655 69 18131067100338114972
23557571 272 18342746247148492668
23559900 14 18271807861775124550
245318 6 16448986100328701468
283562 15 18410291424461079675
2916195 48 18342730849902058064
3004659 81 18335425613612532158
335352 9 18267022748231475478
350125 39 18410298038462750009
3545911 37 18342460348455732712
4028521 119 18341892965631935697
4214541 1 18411419514231212472
474 4 16879077545412114420
495365 180 17346021334593014002
5104073 3 18410011005465809410
542803 24 17530686524359763644
559249 180 18337386046670377618
633830 44 18199743644401676445
69090 78 18272086119177836790
77779 3 18412263930592437412
9709674 26 18342463655380539086

>  <PUBCHEM_SHAPE_MULTIPOLES>
382.24
10.96
2.41
0.66
9.09
0.24
0
-3.75
0.48
-2.84
-0.06
0.21
-0.01
0.71

>  <PUBCHEM_SHAPE_SELFOVERLAP>
856.39

>  <PUBCHEM_SHAPE_VOLUME>
201.3

>  <RI>
-1.16464e+09

>  <Rbt.Current_Directory>
/root/miniconda3/envs/rdock/share/rxdock-2013.1.1_148c5bd1-0/data/ligands/prepped_ligands/Apigenin

>  <Rbt.Executable>
rbdock/0.1.0

>  <Rbt.Library>
librxdock.so/0.1.0

>  <Rbt.Parameter_File>
/root/miniconda3/envs/rdock/share/rxdock-2013.1.1_148c5bd1-0/data/scripts/dock.prm

>  <Rbt.Receptor>
def.prm

>  <SCORE>
-18.27

>  <SCORE.INTER>
-18.3261

>  <SCORE.INTER.CONST>
1

>  <SCORE.INTER.POLAR>
-2.35149

>  <SCORE.INTER.REPUL>
0.0846862

>  <SCORE.INTER.ROT>
1

>  <SCORE.INTER.VDW>
-17.1545

>  <SCORE.INTER.norm>
-0.916305

>  <SCORE.INTRA>
1.00989

>  <SCORE.INTRA.DIHEDRAL>
1.67938

>  <SCORE.INTRA.DIHEDRAL.0>
1.23283

>  <SCORE.INTRA.POLAR>
0

>  <SCORE.INTRA.POLAR.0>
0

>  <SCORE.INTRA.REPUL>
0

>  <SCORE.INTRA.REPUL.0>
0

>  <SCORE.INTRA.VDW>
0.1702

>  <SCORE.INTRA.VDW.0>
1.06701

>  <SCORE.INTRA.norm>
0.0504945

>  <SCORE.RESTR>
0

>  <SCORE.RESTR.CAVITY>
0

>  <SCORE.RESTR.norm>
0

>  <SCORE.SYSTEM>
-0.953783

>  <SCORE.SYSTEM.CONST>
0

>  <SCORE.SYSTEM.DIHEDRAL>
0.373169

>  <SCORE.SYSTEM.VDW>
-1.14037

>  <SCORE.SYSTEM.norm>
-0.0476892

>  <SCORE.heavy>
20

>  <SCORE.norm>
-0.9135

$$$$
5280443
  RxDock  02242101503D
librxdock.so/0.1.0
 23 25  0  0  0  0  0  0  0  0999 V2000
  -50.6450   -1.2321   13.6658 O   0  0  0  0  0  0
  -49.5106   -5.2793   16.0801 O   0  0  0  0  0  0
  -47.7089   -3.5435   15.2896 O   0  0  0  0  0  0
  -54.0292   -4.2750   15.0178 O   0  0  0  0  0  0
  -48.4049    4.0076   10.9247 O   0  0  0  0  0  0
  -50.0156   -3.2434   14.8735 C   0  0  0  0  0  0
  -50.9692   -2.4068   14.2959 C   0  0  0  0  0  0
  -49.3105   -0.8595   13.6091 C   0  0  0  0  0  0
  -49.0734    0.4164   12.9045 C   0  0  0  0  0  0
  -48.5983   -2.8560   14.8072 C   0  0  0  0  0  0
  -48.3015   -1.5823   14.1209 C   0  0  0  0  0  0
  -50.4036   -4.4289   15.5019 C   0  0  0  0  0  0
  -52.3200   -2.7521   14.3434 C   0  0  0  0  0  0
  -52.7118   -3.9352   14.9703 C   0  0  0  0  0  0
  -51.7556   -4.7716   15.5483 C   0  0  0  0  0  0
  -50.0004    1.4566   13.0059 C   0  0  0  0  0  0
  -47.9206    0.5892   12.1347 C   0  0  0  0  0  0
  -49.7761    2.6621   12.3409 C   0  0  0  0  0  0
  -47.6963    1.7949   11.4700 C   0  0  0  0  0  0
  -48.6241    2.8313   11.5730 C   0  0  0  0  0  0
  -49.9708   -6.0221   16.4999 H   0  0  0  0  0  0
  -54.1335   -5.0554   15.5888 H   0  0  0  0  0  0
  -47.4467    4.1679   10.8782 H   0  0  0  0  0  0
  1  7  1  0  0  0
  1  8  1  0  0  0
  2 12  1  0  0  0
  2 21  1  0  0  0
  3 10  2  0  0  0
  4 14  1  0  0  0
  4 22  1  0  0  0
  5 20  1  0  0  0
  5 23  1  0  0  0
  6  7  1  0  0  0
  6 10  1  0  0  0
  6 12  2  0  0  0
  7 13  2  0  0  0
  8  9  1  0  0  0
  8 11  2  0  0  0
  9 16  2  0  0  0
  9 17  1  0  0  0
 10 11  1  0  0  0
 12 15  1  0  0  0
 13 14  1  0  0  0
 14 15  2  0  0  0
 16 18  1  0  0  0
 17 19  2  0  0  0
 18 20  2  0  0  0
 19 20  1  0  0  0
M  END
>  <CHROM.0>
-178.04215789,-176.08321172,174.30525424

>  <CHROM.1>
177.28620394,-172.40086506,148.42553241,35.22953962,-49.90301896,-1.40596756
13.84270865,1.90940788,0.03397460,2.64420163

>  <Name>
5280443

>  <PUBCHEM_ATOM_DEF_STEREO_COUNT>
0

>  <PUBCHEM_ATOM_UDEF_STEREO_COUNT>
0

>  <PUBCHEM_BOND_DEF_STEREO_COUNT>
0

>  <PUBCHEM_BOND_UDEF_STEREO_COUNT>
0

>  <PUBCHEM_CACTVS_TAUTO_COUNT>
57

>  <PUBCHEM_COMPONENT_COUNT>
1

>  <PUBCHEM_COMPOUND_CID>
5280443

>  <PUBCHEM_CONFORMER_DIVERSEORDER>
1

>  <PUBCHEM_CONFORMER_ID>
005092BB00000001

>  <PUBCHEM_CONFORMER_RMSD>
0.6

>  <PUBCHEM_COORDINATE_TYPE>
2
5
10

>  <PUBCHEM_EFFECTIVE_ROTOR_COUNT>
1

>  <PUBCHEM_FEATURE_SELFOVERLAP>
40.625

>  <PUBCHEM_HEAVY_ATOM_COUNT>
20

>  <PUBCHEM_ISOTOPIC_ATOM_COUNT>
0

>  <PUBCHEM_MMFF94_ENERGY>
60.7436

>  <PUBCHEM_MMFF94_PARTIAL_CHARGES>
30
1 -0.16
10 0.47
11 -0.14
12 0.08
13 -0.15
14 0.08
15 -0.15
16 -0.15
17 -0.15
18 -0.15
19 -0.15
2 -0.53
20 0.08
21 0.15
22 0.15
23 0.15
24 0.15
25 0.15
26 0.15
27 0.15
28 0.45
29 0.45
3 -0.57
30 0.45
4 -0.53
5 -0.53
6 0.09
7 0.08
8 0.05
9 0.03

>  <PUBCHEM_PHARMACOPHORE_FEATURES>
8
1 1 acceptor
1 2 donor
1 3 acceptor
1 4 donor
1 5 donor
6 1 6 7 8 10 11 rings
6 6 7 12 13 14 15 rings
6 9 16 17 18 19 20 rings

>  <PUBCHEM_SHAPE_FINGERPRINT>
10014705 185 18335983090743610973
10319926 262 18339344337187947850
10411042 1 17833271196427205891
10493431 412 18339369544277550625
10498660 4 18336260146151624709
10608611 8 18342173405853837512
10646746 165 18410292501880224548
11315181 36 17967532415338923724
12107183 9 17973996255225508682
12173636 292 18409726227717107541
12236239 1 17458341966376888130
12390115 104 18270696268119625369
12403259 415 18202279234227041088
12500047 106 18411979165633848254
13073987 5 18334573538601782738
13140716 1 17974859676764465403
13544592 145 18269848531875060550
14508225 48 18124582335750861655
14790565 3 17908712730609502257
15042514 8 18192436496683379403
15196674 1 18411138009184468990
15375358 24 18272089392275024390
17844677 252 18338524131077601056
18186145 218 18201727210401115800
200 152 17060622204808618226
20510252 161 18342459253144016673
20645477 56 18410013234284757832
20645477 70 17203058396143606462
21033648 29 18271516554985427096
21065198 57 18411699920035301594
21236236 1 18412826893710328947
21267235 1 18337116777299593123
21279426 13 18269277859449011198
21421861 104 17750502976618702298
23402539 116 18412538829647092654
23402655 69 18131067100338114972
23557571 272 18342746247148492668
23559900 14 18271807861775124550
245318 6 16448986100328701468
283562 15 18410291424461079675
2916195 48 18342730849902058064
3004659 81 18335425613612532158
335352 9 18267022748231475478
350125 39 18410298038462750009
3545911 37 18342460348455732712
4028521 119 18341892965631935697
4214541 1 18411419514231212472
474 4 16879077545412114420
495365 180 17346021334593014002
5104073 3 18410011005465809410
542803 24 17530686524359763644
559249 180 18337386046670377618
633830 44 18199743644401676445
69090 78 18272086119177836790
77779 3 18412263930592437412
9709674 26 18342463655380539086

>  <PUBCHEM_SHAPE_MULTIPOLES>
382.24
10.96
2.41
0.66
9.09
0.24
0
-3.75
0.48
-2.84
-0.06
0.21
-0.01
0.71

>  <PUBCHEM_SHAPE_SELFOVERLAP>
856.39

>  <PUBCHEM_SHAPE_VOLUME>
201.3

>  <RI>
-1.16464e+09

>  <Rbt.Current_Directory>
/root/miniconda3/envs/rdock/share/rxdock-2013.1.1_148c5bd1-0/data/ligands/prepped_ligands/Apigenin

>  <Rbt.Executable>
rbdock/0.1.0

>  <Rbt.Library>
librxdock.so/0.1.0

>  <Rbt.Parameter_File>
/root/miniconda3/envs/rdock/share/rxdock-2013.1.1_148c5bd1-0/data/scripts/dock.prm

>  <Rbt.Receptor>
def.prm

>  <SCORE>
-16.0966

>  <SCORE.INTER>
-15.828

>  <SCORE.INTER.CONST>
1

>  <SCORE.INTER.POLAR>
-0.433371

>  <SCORE.INTER.REPUL>
0

>  <SCORE.INTER.ROT>
1

>  <SCORE.INTER.VDW>
-20.7545

>  <SCORE.INTER.norm>
-0.791398

>  <SCORE.INTRA>
0.755651

>  <SCORE.INTRA.DIHEDRAL>
1.73452

>  <SCORE.INTRA.DIHEDRAL.0>
1.23283

>  <SCORE.INTRA.POLAR>
0

>  <SCORE.INTRA.POLAR.0>
0

>  <SCORE.INTRA.REPUL>
0

>  <SCORE.INTRA.REPUL.0>
0

>  <SCORE.INTRA.VDW>
-0.111609

>  <SCORE.INTRA.VDW.0>
1.06701

>  <SCORE.INTRA.norm>
0.0377825

>  <SCORE.RESTR>
0

>  <SCORE.RESTR.CAVITY>
0

>  <SCORE.RESTR.norm>
0

>  <SCORE.SYSTEM>
-1.02428

>  <SCORE.SYSTEM.CONST>
0

>  <SCORE.SYSTEM.DIHEDRAL>
0.167645

>  <SCORE.SYSTEM.VDW>
-1.1081

>  <SCORE.SYSTEM.norm>
-0.051214

>  <SCORE.heavy>
20

>  <SCORE.norm>
-0.804829

$$$$
5280443
  RxDock  02242101503D
librxdock.so/0.1.0
 23 25  0  0  0  0  0  0  0  0999 V2000
  -52.3294   -3.6899   14.7962 O   0  0  0  0  0  0
  -50.2242   -0.4143   17.6831 O   0  0  0  0  0  0
  -51.6316   -2.4270   18.6064 O   0  0  0  0  0  0
  -49.8216   -0.1004   12.9614 O   0  0  0  0  0  0
  -55.8887   -8.9113   14.5585 O   0  0  0  0  0  0
  -51.2969   -2.0796   16.2931 C   0  0  0  0  0  0
  -51.5749   -2.5655   15.0166 C   0  0  0  0  0  0
  -52.8295   -4.3752   15.8931 C   0  0  0  0  0  0
  -53.6310   -5.5649   15.5426 C   0  0  0  0  0  0
  -51.8334   -2.7987   17.4586 C   0  0  0  0  0  0
  -52.6367   -4.0037   17.1687 C   0  0  0  0  0  0
  -50.5230   -0.9286   16.4578 C   0  0  0  0  0  0
  -51.0796   -1.9011   13.8945 C   0  0  0  0  0  0
  -50.3060   -0.7512   14.0547 C   0  0  0  0  0  0
  -50.0284   -0.2662   15.3336 C   0  0  0  0  0  0
  -53.6086   -6.6933   16.3659 C   0  0  0  0  0  0
  -54.4161   -5.5667   14.3872 C   0  0  0  0  0  0
  -54.3663   -7.8169   16.0353 C   0  0  0  0  0  0
  -55.1740   -6.6902   14.0568 C   0  0  0  0  0  0
  -55.1489   -7.8154   14.8808 C   0  0  0  0  0  0
  -49.7841    0.4448   17.5934 H   0  0  0  0  0  0
  -49.1793    0.5697   13.2519 H   0  0  0  0  0  0
  -56.3861   -8.7269   13.7433 H   0  0  0  0  0  0
  1  7  1  0  0  0
  1  8  1  0  0  0
  2 12  1  0  0  0
  2 21  1  0  0  0
  3 10  2  0  0  0
  4 14  1  0  0  0
  4 22  1  0  0  0
  5 20  1  0  0  0
  5 23  1  0  0  0
  6  7  1  0  0  0
  6 10  1  0  0  0
  6 12  2  0  0  0
  7 13  2  0  0  0
  8  9  1  0  0  0
  8 11  2  0  0  0
  9 16  2  0  0  0
  9 17  1  0  0  0
 10 11  1  0  0  0
 12 15  1  0  0  0
 13 14  1  0  0  0
 14 15  2  0  0  0
 16 18  1  0  0  0
 17 19  2  0  0  0
 18 20  2  0  0  0
 19 20  1  0  0  0
M  END
>  <CHROM.0>
-60.35582479,-58.95155786,-179.38944137

>  <CHROM.1>
-172.34147751,-169.68337140,178.47137467,146.05749065,-52.39436433,-3.73040297
15.56870899,-0.02179879,-0.97756659,-1.51789163

>  <Name>
5280443

>  <PUBCHEM_ATOM_DEF_STEREO_COUNT>
0

>  <PUBCHEM_ATOM_UDEF_STEREO_COUNT>
0

>  <PUBCHEM_BOND_DEF_STEREO_COUNT>
0

>  <PUBCHEM_BOND_UDEF_STEREO_COUNT>
0

>  <PUBCHEM_CACTVS_TAUTO_COUNT>
57

>  <PUBCHEM_COMPONENT_COUNT>
1

>  <PUBCHEM_COMPOUND_CID>
5280443

>  <PUBCHEM_CONFORMER_DIVERSEORDER>
1

>  <PUBCHEM_CONFORMER_ID>
005092BB00000001

>  <PUBCHEM_CONFORMER_RMSD>
0.6

>  <PUBCHEM_COORDINATE_TYPE>
2
5
10

>  <PUBCHEM_EFFECTIVE_ROTOR_COUNT>
1

>  <PUBCHEM_FEATURE_SELFOVERLAP>
40.625

>  <PUBCHEM_HEAVY_ATOM_COUNT>
20

>  <PUBCHEM_ISOTOPIC_ATOM_COUNT>
0

>  <PUBCHEM_MMFF94_ENERGY>
60.7436

>  <PUBCHEM_MMFF94_PARTIAL_CHARGES>
30
1 -0.16
10 0.47
11 -0.14
12 0.08
13 -0.15
14 0.08
15 -0.15
16 -0.15
17 -0.15
18 -0.15
19 -0.15
2 -0.53
20 0.08
21 0.15
22 0.15
23 0.15
24 0.15
25 0.15
26 0.15
27 0.15
28 0.45
29 0.45
3 -0.57
30 0.45
4 -0.53
5 -0.53
6 0.09
7 0.08
8 0.05
9 0.03

>  <PUBCHEM_PHARMACOPHORE_FEATURES>
8
1 1 acceptor
1 2 donor
1 3 acceptor
1 4 donor
1 5 donor
6 1 6 7 8 10 11 rings
6 6 7 12 13 14 15 rings
6 9 16 17 18 19 20 rings

>  <PUBCHEM_SHAPE_FINGERPRINT>
10014705 185 18335983090743610973
10319926 262 18339344337187947850
10411042 1 17833271196427205891
10493431 412 18339369544277550625
10498660 4 18336260146151624709
10608611 8 18342173405853837512
10646746 165 18410292501880224548
11315181 36 17967532415338923724
12107183 9 17973996255225508682
12173636 292 18409726227717107541
12236239 1 17458341966376888130
12390115 104 18270696268119625369
12403259 415 18202279234227041088
12500047 106 18411979165633848254
13073987 5 18334573538601782738
13140716 1 17974859676764465403
13544592 145 18269848531875060550
14508225 48 18124582335750861655
14790565 3 17908712730609502257
15042514 8 18192436496683379403
15196674 1 18411138009184468990
15375358 24 18272089392275024390
17844677 252 18338524131077601056
18186145 218 18201727210401115800
200 152 17060622204808618226
20510252 161 18342459253144016673
20645477 56 18410013234284757832
20645477 70 17203058396143606462
21033648 29 18271516554985427096
21065198 57 18411699920035301594
21236236 1 18412826893710328947
21267235 1 18337116777299593123
21279426 13 18269277859449011198
21421861 104 17750502976618702298
23402539 116 18412538829647092654
23402655 69 18131067100338114972
23557571 272 18342746247148492668
23559900 14 18271807861775124550
245318 6 16448986100328701468
283562 15 18410291424461079675
2916195 48 18342730849902058064
3004659 81 18335425613612532158
335352 9 18267022748231475478
350125 39 18410298038462750009
3545911 37 18342460348455732712
4028521 119 18341892965631935697
4214541 1 18411419514231212472
474 4 16879077545412114420
495365 180 17346021334593014002
5104073 3 18410011005465809410
542803 24 17530686524359763644
559249 180 18337386046670377618
633830 44 18199743644401676445
69090 78 18272086119177836790
77779 3 18412263930592437412
9709674 26 18342463655380539086

>  <PUBCHEM_SHAPE_MULTIPOLES>
382.24
10.96
2.41
0.66
9.09
0.24
0
-3.75
0.48
-2.84
-0.06
0.21
-0.01
0.71

>  <PUBCHEM_SHAPE_SELFOVERLAP>
856.39

>  <PUBCHEM_SHAPE_VOLUME>
201.3

>  <RI>
-1.16464e+09

>  <Rbt.Current_Directory>
/root/miniconda3/envs/rdock/share/rxdock-2013.1.1_148c5bd1-0/data/ligands/prepped_ligands/Apigenin

>  <Rbt.Executable>
rbdock/0.1.0

>  <Rbt.Library>
librxdock.so/0.1.0

>  <Rbt.Parameter_File>
/root/miniconda3/envs/rdock/share/rxdock-2013.1.1_148c5bd1-0/data/scripts/dock.prm

>  <Rbt.Receptor>
def.prm

>  <SCORE>
-15.7633

>  <SCORE.INTER>
-15.0217

>  <SCORE.INTER.CONST>
1

>  <SCORE.INTER.POLAR>
-0.824621

>  <SCORE.INTER.REPUL>
0.0345861

>  <SCORE.INTER.ROT>
1

>  <SCORE.INTER.VDW>
-18.7909

>  <SCORE.INTER.norm>
-0.751083

>  <SCORE.INTRA>
0.336706

>  <SCORE.INTRA.DIHEDRAL>
0.546079

>  <SCORE.INTRA.DIHEDRAL.0>
1.23283

>  <SCORE.INTRA.POLAR>
0

>  <SCORE.INTRA.POLAR.0>
0

>  <SCORE.INTRA.REPUL>
0

>  <SCORE.INTRA.REPUL.0>
0

>  <SCORE.INTRA.VDW>
0.0636672

>  <SCORE.INTRA.VDW.0>
1.06701

>  <SCORE.INTRA.norm>
0.0168353

>  <SCORE.RESTR>
0

>  <SCORE.RESTR.CAVITY>
0

>  <SCORE.RESTR.norm>
0

>  <SCORE.SYSTEM>
-1.07836

>  <SCORE.SYSTEM.CONST>
0

>  <SCORE.SYSTEM.DIHEDRAL>
0.00662132

>  <SCORE.SYSTEM.POLAR>
-0.00349216

>  <SCORE.SYSTEM.VDW>
-1.06979

>  <SCORE.SYSTEM.norm>
-0.0539178

>  <SCORE.heavy>
20

>  <SCORE.norm>
-0.788165

$$$$
5280443
  RxDock  02242101513D
librxdock.so/0.1.0
 23 25  0  0  0  0  0  0  0  0999 V2000
  -50.3294   -4.5494   15.8720 O   0  0  0  0  0  0
  -54.5432   -6.8903   16.3820 O   0  0  0  0  0  0
  -54.2943   -4.7073   14.9480 O   0  0  0  0  0  0
  -50.6095   -8.4856   18.5119 O   0  0  0  0  0  0
  -47.3966    0.4038   13.2557 O   0  0  0  0  0  0
  -52.4684   -5.6796   16.0901 C   0  0  0  0  0  0
  -51.1072   -5.5651   16.3676 C   0  0  0  0  0  0
  -50.9242   -3.6011   15.0536 C   0  0  0  0  0  0
  -49.9991   -2.5514   14.5815 C   0  0  0  0  0  0
  -53.1046   -4.6704   15.2299 C   0  0  0  0  0  0
  -52.2246   -3.5994   14.7200 C   0  0  0  0  0  0
  -53.2117   -6.7352   16.6231 C   0  0  0  0  0  0
  -50.4800   -6.5080   17.1821 C   0  0  0  0  0  0
  -51.2188   -7.5641   17.7163 C   0  0  0  0  0  0
  -52.5816   -7.6772   17.4372 C   0  0  0  0  0  0
  -50.5008   -1.3793   14.0102 C   0  0  0  0  0  0
  -48.6186   -2.7251   14.7051 C   0  0  0  0  0  0
  -49.6271   -0.3874   13.5648 C   0  0  0  0  0  0
  -47.7449   -1.7330   14.2599 C   0  0  0  0  0  0
  -48.2491   -0.5642   13.6896 C   0  0  0  0  0  0
  -54.8150   -7.8055   16.5500 H   0  0  0  0  0  0
  -51.2887   -9.0543   18.9133 H   0  0  0  0  0  0
  -46.7367    0.0010   12.6655 H   0  0  0  0  0  0
  1  7  1  0  0  0
  1  8  1  0  0  0
  2 12  1  0  0  0
  2 21  1  0  0  0
  3 10  2  0  0  0
  4 14  1  0  0  0
  4 22  1  0  0  0
  5 20  1  0  0  0
  5 23  1  0  0  0
  6  7  1  0  0  0
  6 10  1  0  0  0
  6 12  2  0  0  0
  7 13  2  0  0  0
  8  9  1  0  0  0
  8 11  2  0  0  0
  9 16  2  0  0  0
  9 17  1  0  0  0
 10 11  1  0  0  0
 12 15  1  0  0  0
 13 14  1  0  0  0
 14 15  2  0  0  0
 16 18  1  0  0  0
 17 19  2  0  0  0
 18 20  2  0  0  0
 19 20  1  0  0  0
M  END
>  <CHROM.0>
-58.21680475,-65.88539620,52.32373168

>  <CHROM.1>
159.68858597,170.55081186,-128.18473705,-165.52748912,-50.97793982,-4.29541048
15.52689866,-2.08874043,-0.18774475,-0.58779398

>  <Name>
5280443

>  <PUBCHEM_ATOM_DEF_STEREO_COUNT>
0

>  <PUBCHEM_ATOM_UDEF_STEREO_COUNT>
0

>  <PUBCHEM_BOND_DEF_STEREO_COUNT>
0

>  <PUBCHEM_BOND_UDEF_STEREO_COUNT>
0

>  <PUBCHEM_CACTVS_TAUTO_COUNT>
57

>  <PUBCHEM_COMPONENT_COUNT>
1

>  <PUBCHEM_COMPOUND_CID>
5280443

>  <PUBCHEM_CONFORMER_DIVERSEORDER>
1

>  <PUBCHEM_CONFORMER_ID>
005092BB00000001

>  <PUBCHEM_CONFORMER_RMSD>
0.6

>  <PUBCHEM_COORDINATE_TYPE>
2
5
10

>  <PUBCHEM_EFFECTIVE_ROTOR_COUNT>
1

>  <PUBCHEM_FEATURE_SELFOVERLAP>
40.625

>  <PUBCHEM_HEAVY_ATOM_COUNT>
20

>  <PUBCHEM_ISOTOPIC_ATOM_COUNT>
0

>  <PUBCHEM_MMFF94_ENERGY>
60.7436

>  <PUBCHEM_MMFF94_PARTIAL_CHARGES>
30
1 -0.16
10 0.47
11 -0.14
12 0.08
13 -0.15
14 0.08
15 -0.15
16 -0.15
17 -0.15
18 -0.15
19 -0.15
2 -0.53
20 0.08
21 0.15
22 0.15
23 0.15
24 0.15
25 0.15
26 0.15
27 0.15
28 0.45
29 0.45
3 -0.57
30 0.45
4 -0.53
5 -0.53
6 0.09
7 0.08
8 0.05
9 0.03

>  <PUBCHEM_PHARMACOPHORE_FEATURES>
8
1 1 acceptor
1 2 donor
1 3 acceptor
1 4 donor
1 5 donor
6 1 6 7 8 10 11 rings
6 6 7 12 13 14 15 rings
6 9 16 17 18 19 20 rings

>  <PUBCHEM_SHAPE_FINGERPRINT>
10014705 185 18335983090743610973
10319926 262 18339344337187947850
10411042 1 17833271196427205891
10493431 412 18339369544277550625
10498660 4 18336260146151624709
10608611 8 18342173405853837512
10646746 165 18410292501880224548
11315181 36 17967532415338923724
12107183 9 17973996255225508682
12173636 292 18409726227717107541
12236239 1 17458341966376888130
12390115 104 18270696268119625369
12403259 415 18202279234227041088
12500047 106 18411979165633848254
13073987 5 18334573538601782738
13140716 1 17974859676764465403
13544592 145 18269848531875060550
14508225 48 18124582335750861655
14790565 3 17908712730609502257
15042514 8 18192436496683379403
15196674 1 18411138009184468990
15375358 24 18272089392275024390
17844677 252 18338524131077601056
18186145 218 18201727210401115800
200 152 17060622204808618226
20510252 161 18342459253144016673
20645477 56 18410013234284757832
20645477 70 17203058396143606462
21033648 29 18271516554985427096
21065198 57 18411699920035301594
21236236 1 18412826893710328947
21267235 1 18337116777299593123
21279426 13 18269277859449011198
21421861 104 17750502976618702298
23402539 116 18412538829647092654
23402655 69 18131067100338114972
23557571 272 18342746247148492668
23559900 14 18271807861775124550
245318 6 16448986100328701468
283562 15 18410291424461079675
2916195 48 18342730849902058064
3004659 81 18335425613612532158
335352 9 18267022748231475478
350125 39 18410298038462750009
3545911 37 18342460348455732712
4028521 119 18341892965631935697
4214541 1 18411419514231212472
474 4 16879077545412114420
495365 180 17346021334593014002
5104073 3 18410011005465809410
542803 24 17530686524359763644
559249 180 18337386046670377618
633830 44 18199743644401676445
69090 78 18272086119177836790
77779 3 18412263930592437412
9709674 26 18342463655380539086

>  <PUBCHEM_SHAPE_MULTIPOLES>
382.24
10.96
2.41
0.66
9.09
0.24
0
-3.75
0.48
-2.84
-0.06
0.21
-0.01
0.71

>  <PUBCHEM_SHAPE_SELFOVERLAP>
856.39

>  <PUBCHEM_SHAPE_VOLUME>
201.3

>  <RI>
-1.16464e+09

>  <Rbt.Current_Directory>
/root/miniconda3/envs/rdock/share/rxdock-2013.1.1_148c5bd1-0/data/ligands/prepped_ligands/Apigenin

>  <Rbt.Executable>
rbdock/0.1.0

>  <Rbt.Library>
librxdock.so/0.1.0

>  <Rbt.Parameter_File>
/root/miniconda3/envs/rdock/share/rxdock-2013.1.1_148c5bd1-0/data/scripts/dock.prm

>  <Rbt.Receptor>
def.prm

>  <SCORE>
-15.7137

>  <SCORE.INTER>
-16.1146

>  <SCORE.INTER.CONST>
1

>  <SCORE.INTER.POLAR>
-1.47973

>  <SCORE.INTER.REPUL>
0.0215046

>  <SCORE.INTER.ROT>
1

>  <SCORE.INTER.VDW>
-17.591

>  <SCORE.INTER.norm>
-0.805728

>  <SCORE.INTRA>
1.37116

>  <SCORE.INTRA.DIHEDRAL>
2.72192

>  <SCORE.INTRA.DIHEDRAL.0>
1.23283

>  <SCORE.INTRA.POLAR>
0

>  <SCORE.INTRA.POLAR.0>
0

>  <SCORE.INTRA.REPUL>
0

>  <SCORE.INTRA.REPUL.0>
0

>  <SCORE.INTRA.VDW>
0.0101959

>  <SCORE.INTRA.VDW.0>
1.06701

>  <SCORE.INTRA.norm>
0.0685579

>  <SCORE.RESTR>
0

>  <SCORE.RESTR.CAVITY>
0

>  <SCORE.RESTR.norm>
0

>  <SCORE.SYSTEM>
-0.970303

>  <SCORE.SYSTEM.CONST>
0

>  <SCORE.SYSTEM.DIHEDRAL>
0.325837

>  <SCORE.SYSTEM.VDW>
-1.13322

>  <SCORE.SYSTEM.norm>
-0.0485152

>  <SCORE.heavy>
20

>  <SCORE.norm>
-0.785685

$$$$
5280443
  RxDock  02242101513D
librxdock.so/0.1.0
 23 25  0  0  0  0  0  0  0  0999 V2000
  -53.5557   -4.8886   15.3623 O   0  0  0  0  0  0
  -54.2197   -9.5457   16.5313 O   0  0  0  0  0  0
  -52.4328   -8.0259   17.7067 O   0  0  0  0  0  0
  -56.8298   -7.5032   13.1297 O   0  0  0  0  0  0
  -50.2548    0.3706   16.5538 O   0  0  0  0  0  0
  -53.8431   -7.2169   15.9919 C   0  0  0  0  0  0
  -54.1769   -6.1038   15.2223 C   0  0  0  0  0  0
  -52.5578   -4.7631   16.3170 C   0  0  0  0  0  0
  -51.9532   -3.4173   16.3794 C   0  0  0  0  0  0
  -52.7789   -7.0900   16.9992 C   0  0  0  0  0  0
  -52.1432   -5.7617   17.1128 C   0  0  0  0  0  0
  -54.5093   -8.4302   15.8054 C   0  0  0  0  0  0
  -55.1813   -6.1981   14.2589 C   0  0  0  0  0  0
  -55.8494   -7.4081   14.0695 C   0  0  0  0  0  0
  -55.5140   -8.5216   14.8412 C   0  0  0  0  0  0
  -51.3408   -2.8703   15.2492 C   0  0  0  0  0  0
  -51.9922   -2.6850   17.5683 C   0  0  0  0  0  0
  -50.7703   -1.5987   15.3079 C   0  0  0  0  0  0
  -51.4219   -1.4133   17.6268 C   0  0  0  0  0  0
  -50.8108   -0.8702   16.4967 C   0  0  0  0  0  0
  -54.7190  -10.3072   16.1988 H   0  0  0  0  0  0
  -57.2631   -8.3700   13.2124 H   0  0  0  0  0  0
  -49.5185    0.4154   15.9199 H   0  0  0  0  0  0
  1  7  1  0  0  0
  1  8  1  0  0  0
  2 12  1  0  0  0
  2 21  1  0  0  0
  3 10  2  0  0  0
  4 14  1  0  0  0
  4 22  1  0  0  0
  5 20  1  0  0  0
  5 23  1  0  0  0
  6  7  1  0  0  0
  6 10  1  0  0  0
  6 12  2  0  0  0
  7 13  2  0  0  0
  8  9  1  0  0  0
  8 11  2  0  0  0
  9 16  2  0  0  0
  9 17  1  0  0  0
 10 11  1  0  0  0
 12 15  1  0  0  0
 13 14  1  0  0  0
 14 15  2  0  0  0
 16 18  1  0  0  0
 17 19  2  0  0  0
 18 20  2  0  0  0
 19 20  1  0  0  0
M  END
>  <CHROM.0>
175.22722295,-63.34747300,-62.94201436

>  <CHROM.1>
-174.18321699,-172.61816955,-29.16453706,-58.73900120,-53.12825996,-5.23292704
15.91403378,2.37749401,0.79381393,2.69983376

>  <Name>
5280443

>  <PUBCHEM_ATOM_DEF_STEREO_COUNT>
0

>  <PUBCHEM_ATOM_UDEF_STEREO_COUNT>
0

>  <PUBCHEM_BOND_DEF_STEREO_COUNT>
0

>  <PUBCHEM_BOND_UDEF_STEREO_COUNT>
0

>  <PUBCHEM_CACTVS_TAUTO_COUNT>
57

>  <PUBCHEM_COMPONENT_COUNT>
1

>  <PUBCHEM_COMPOUND_CID>
5280443

>  <PUBCHEM_CONFORMER_DIVERSEORDER>
1

>  <PUBCHEM_CONFORMER_ID>
005092BB00000001

>  <PUBCHEM_CONFORMER_RMSD>
0.6

>  <PUBCHEM_COORDINATE_TYPE>
2
5
10

>  <PUBCHEM_EFFECTIVE_ROTOR_COUNT>
1

>  <PUBCHEM_FEATURE_SELFOVERLAP>
40.625

>  <PUBCHEM_HEAVY_ATOM_COUNT>
20

>  <PUBCHEM_ISOTOPIC_ATOM_COUNT>
0

>  <PUBCHEM_MMFF94_ENERGY>
60.7436

>  <PUBCHEM_MMFF94_PARTIAL_CHARGES>
30
1 -0.16
10 0.47
11 -0.14
12 0.08
13 -0.15
14 0.08
15 -0.15
16 -0.15
17 -0.15
18 -0.15
19 -0.15
2 -0.53
20 0.08
21 0.15
22 0.15
23 0.15
24 0.15
25 0.15
26 0.15
27 0.15
28 0.45
29 0.45
3 -0.57
30 0.45
4 -0.53
5 -0.53
6 0.09
7 0.08
8 0.05
9 0.03

>  <PUBCHEM_PHARMACOPHORE_FEATURES>
8
1 1 acceptor
1 2 donor
1 3 acceptor
1 4 donor
1 5 donor
6 1 6 7 8 10 11 rings
6 6 7 12 13 14 15 rings
6 9 16 17 18 19 20 rings

>  <PUBCHEM_SHAPE_FINGERPRINT>
10014705 185 18335983090743610973
10319926 262 18339344337187947850
10411042 1 17833271196427205891
10493431 412 18339369544277550625
10498660 4 18336260146151624709
10608611 8 18342173405853837512
10646746 165 18410292501880224548
11315181 36 17967532415338923724
12107183 9 17973996255225508682
12173636 292 18409726227717107541
12236239 1 17458341966376888130
12390115 104 18270696268119625369
12403259 415 18202279234227041088
12500047 106 18411979165633848254
13073987 5 18334573538601782738
13140716 1 17974859676764465403
13544592 145 18269848531875060550
14508225 48 18124582335750861655
14790565 3 17908712730609502257
15042514 8 18192436496683379403
15196674 1 18411138009184468990
15375358 24 18272089392275024390
17844677 252 18338524131077601056
18186145 218 18201727210401115800
200 152 17060622204808618226
20510252 161 18342459253144016673
20645477 56 18410013234284757832
20645477 70 17203058396143606462
21033648 29 18271516554985427096
21065198 57 18411699920035301594
21236236 1 18412826893710328947
21267235 1 18337116777299593123
21279426 13 18269277859449011198
21421861 104 17750502976618702298
23402539 116 18412538829647092654
23402655 69 18131067100338114972
23557571 272 18342746247148492668
23559900 14 18271807861775124550
245318 6 16448986100328701468
283562 15 18410291424461079675
2916195 48 18342730849902058064
3004659 81 18335425613612532158
335352 9 18267022748231475478
350125 39 18410298038462750009
3545911 37 18342460348455732712
4028521 119 18341892965631935697
4214541 1 18411419514231212472
474 4 16879077545412114420
495365 180 17346021334593014002
5104073 3 18410011005465809410
542803 24 17530686524359763644
559249 180 18337386046670377618
633830 44 18199743644401676445
69090 78 18272086119177836790
77779 3 18412263930592437412
9709674 26 18342463655380539086

>  <PUBCHEM_SHAPE_MULTIPOLES>
382.24
10.96
2.41
0.66
9.09
0.24
0
-3.75
0.48
-2.84
-0.06
0.21
-0.01
0.71

>  <PUBCHEM_SHAPE_SELFOVERLAP>
856.39

>  <PUBCHEM_SHAPE_VOLUME>
201.3

>  <RI>
-1.16464e+09

>  <Rbt.Current_Directory>
/root/miniconda3/envs/rdock/share/rxdock-2013.1.1_148c5bd1-0/data/ligands/prepped_ligands/Apigenin

>  <Rbt.Executable>
rbdock/0.1.0

>  <Rbt.Library>
librxdock.so/0.1.0

>  <Rbt.Parameter_File>
/root/miniconda3/envs/rdock/share/rxdock-2013.1.1_148c5bd1-0/data/scripts/dock.prm

>  <Rbt.Receptor>
def.prm

>  <SCORE>
-18.714

>  <SCORE.INTER>
-18.8961

>  <SCORE.INTER.CONST>
1

>  <SCORE.INTER.POLAR>
-1.5682

>  <SCORE.INTER.REPUL>
0.0175952

>  <SCORE.INTER.ROT>
1

>  <SCORE.INTER.VDW>
-20.0522

>  <SCORE.INTER.norm>
-0.944807

>  <SCORE.INTRA>
1.19936

>  <SCORE.INTRA.DIHEDRAL>
3.57926

>  <SCORE.INTRA.DIHEDRAL.0>
1.23283

>  <SCORE.INTRA.POLAR>
0

>  <SCORE.INTRA.POLAR.0>
0

>  <SCORE.INTRA.REPUL>
0

>  <SCORE.INTRA.REPUL.0>
0

>  <SCORE.INTRA.VDW>
-0.590272

>  <SCORE.INTRA.VDW.0>
1.06701

>  <SCORE.INTRA.norm>
0.059968

>  <SCORE.RESTR>
0

>  <SCORE.RESTR.CAVITY>
0

>  <SCORE.RESTR.norm>
0

>  <SCORE.SYSTEM>
-1.01721

>  <SCORE.SYSTEM.CONST>
0

>  <SCORE.SYSTEM.DIHEDRAL>
0.138462

>  <SCORE.SYSTEM.VDW>
-1.08644

>  <SCORE.SYSTEM.norm>
-0.0508603

>  <SCORE.heavy>
20

>  <SCORE.norm>
-0.935699

$$$$
5280443
  RxDock  02242101513D
librxdock.so/0.1.0
 23 25  0  0  0  0  0  0  0  0999 V2000
  -47.9588   -0.8283   14.5935 O   0  0  0  0  0  0
  -49.0859   -5.3222   16.0185 O   0  0  0  0  0  0
  -50.4398   -4.0331   14.1775 O   0  0  0  0  0  0
  -45.4081   -3.0174   17.9465 O   0  0  0  0  0  0
  -49.4844    3.9648   10.7610 O   0  0  0  0  0  0
  -48.5712   -3.0805   15.2661 C   0  0  0  0  0  0
  -47.7615   -1.9498   15.3587 C   0  0  0  0  0  0
  -49.0054   -0.8251   13.6839 C   0  0  0  0  0  0
  -49.1307    0.4313   12.9181 C   0  0  0  0  0  0
  -49.6879   -3.0772   14.3089 C   0  0  0  0  0  0
  -49.8566   -1.8481   13.5074 C   0  0  0  0  0  0
  -48.3237   -4.1946   16.0713 C   0  0  0  0  0  0
  -46.6969   -1.9266   16.2599 C   0  0  0  0  0  0
  -46.4461   -3.0373   17.0659 C   0  0  0  0  0  0
  -47.2579   -4.1688   16.9716 C   0  0  0  0  0  0
  -48.1081    0.8315   12.0545 C   0  0  0  0  0  0
  -50.2726    1.2244   13.0531 C   0  0  0  0  0  0
  -48.2268    2.0179   11.3306 C   0  0  0  0  0  0
  -50.3914    2.4107   12.3289 C   0  0  0  0  0  0
  -49.3683    2.8076   11.4678 C   0  0  0  0  0  0
  -49.6911   -5.2887   15.2621 H   0  0  0  0  0  0
  -44.8491   -2.2442   17.7578 H   0  0  0  0  0  0
  -50.0645    3.8098    9.9959 H   0  0  0  0  0  0
  1  7  1  0  0  0
  1  8  1  0  0  0
  2 12  1  0  0  0
  2 21  1  0  0  0
  3 10  2  0  0  0
  4 14  1  0  0  0
  4 22  1  0  0  0
  5 20  1  0  0  0
  5 23  1  0  0  0
  6  7  1  0  0  0
  6 10  1  0  0  0
  6 12  2  0  0  0
  7 13  2  0  0  0
  8  9  1  0  0  0
  8 11  2  0  0  0
  9 16  2  0  0  0
  9 17  1  0  0  0
 10 11  1  0  0  0
 12 15  1  0  0  0
 13 14  1  0  0  0
 14 15  2  0  0  0
 16 18  1  0  0  0
 17 19  2  0  0  0
 18 20  2  0  0  0
 19 20  1  0  0  0
M  END
>  <CHROM.0>
-56.75398203,64.05711875,-61.25453957

>  <CHROM.1>
9.82471908,-11.36487342,101.15692264,63.69249976,-48.56560663,-1.20548526
14.27471606,-1.30231419,-0.58850029,-0.50589404

>  <Name>
5280443

>  <PUBCHEM_ATOM_DEF_STEREO_COUNT>
0

>  <PUBCHEM_ATOM_UDEF_STEREO_COUNT>
0

>  <PUBCHEM_BOND_DEF_STEREO_COUNT>
0

>  <PUBCHEM_BOND_UDEF_STEREO_COUNT>
0

>  <PUBCHEM_CACTVS_TAUTO_COUNT>
57

>  <PUBCHEM_COMPONENT_COUNT>
1

>  <PUBCHEM_COMPOUND_CID>
5280443

>  <PUBCHEM_CONFORMER_DIVERSEORDER>
1

>  <PUBCHEM_CONFORMER_ID>
005092BB00000001

>  <PUBCHEM_CONFORMER_RMSD>
0.6

>  <PUBCHEM_COORDINATE_TYPE>
2
5
10

>  <PUBCHEM_EFFECTIVE_ROTOR_COUNT>
1

>  <PUBCHEM_FEATURE_SELFOVERLAP>
40.625

>  <PUBCHEM_HEAVY_ATOM_COUNT>
20

>  <PUBCHEM_ISOTOPIC_ATOM_COUNT>
0

>  <PUBCHEM_MMFF94_ENERGY>
60.7436

>  <PUBCHEM_MMFF94_PARTIAL_CHARGES>
30
1 -0.16
10 0.47
11 -0.14
12 0.08
13 -0.15
14 0.08
15 -0.15
16 -0.15
17 -0.15
18 -0.15
19 -0.15
2 -0.53
20 0.08
21 0.15
22 0.15
23 0.15
24 0.15
25 0.15
26 0.15
27 0.15
28 0.45
29 0.45
3 -0.57
30 0.45
4 -0.53
5 -0.53
6 0.09
7 0.08
8 0.05
9 0.03

>  <PUBCHEM_PHARMACOPHORE_FEATURES>
8
1 1 acceptor
1 2 donor
1 3 acceptor
1 4 donor
1 5 donor
6 1 6 7 8 10 11 rings
6 6 7 12 13 14 15 rings
6 9 16 17 18 19 20 rings

>  <PUBCHEM_SHAPE_FINGERPRINT>
10014705 185 18335983090743610973
10319926 262 18339344337187947850
10411042 1 17833271196427205891
10493431 412 18339369544277550625
10498660 4 18336260146151624709
10608611 8 18342173405853837512
10646746 165 18410292501880224548
11315181 36 17967532415338923724
12107183 9 17973996255225508682
12173636 292 18409726227717107541
12236239 1 17458341966376888130
12390115 104 18270696268119625369
12403259 415 18202279234227041088
12500047 106 18411979165633848254
13073987 5 18334573538601782738
13140716 1 17974859676764465403
13544592 145 18269848531875060550
14508225 48 18124582335750861655
14790565 3 17908712730609502257
15042514 8 18192436496683379403
15196674 1 18411138009184468990
15375358 24 18272089392275024390
17844677 252 18338524131077601056
18186145 218 18201727210401115800
200 152 17060622204808618226
20510252 161 18342459253144016673
20645477 56 18410013234284757832
20645477 70 17203058396143606462
21033648 29 18271516554985427096
21065198 57 18411699920035301594
21236236 1 18412826893710328947
21267235 1 18337116777299593123
21279426 13 18269277859449011198
21421861 104 17750502976618702298
23402539 116 18412538829647092654
23402655 69 18131067100338114972
23557571 272 18342746247148492668
23559900 14 18271807861775124550
245318 6 16448986100328701468
283562 15 18410291424461079675
2916195 48 18342730849902058064
3004659 81 18335425613612532158
335352 9 18267022748231475478
350125 39 18410298038462750009
3545911 37 18342460348455732712
4028521 119 18341892965631935697
4214541 1 18411419514231212472
474 4 16879077545412114420
495365 180 17346021334593014002
5104073 3 18410011005465809410
542803 24 17530686524359763644
559249 180 18337386046670377618
633830 44 18199743644401676445
69090 78 18272086119177836790
77779 3 18412263930592437412
9709674 26 18342463655380539086

>  <PUBCHEM_SHAPE_MULTIPOLES>
382.24
10.96
2.41
0.66
9.09
0.24
0
-3.75
0.48
-2.84
-0.06
0.21
-0.01
0.71

>  <PUBCHEM_SHAPE_SELFOVERLAP>
856.39

>  <PUBCHEM_SHAPE_VOLUME>
201.3

>  <RI>
-1.16464e+09

>  <Rbt.Current_Directory>
/root/miniconda3/envs/rdock/share/rxdock-2013.1.1_148c5bd1-0/data/ligands/prepped_ligands/Apigenin

>  <Rbt.Executable>
rbdock/0.1.0

>  <Rbt.Library>
librxdock.so/0.1.0

>  <Rbt.Parameter_File>
/root/miniconda3/envs/rdock/share/rxdock-2013.1.1_148c5bd1-0/data/scripts/dock.prm

>  <Rbt.Receptor>
def.prm

>  <SCORE>
-16.4204

>  <SCORE.INTER>
-18.0845

>  <SCORE.INTER.CONST>
1

>  <SCORE.INTER.POLAR>
-1.08552

>  <SCORE.INTER.REPUL>
0

>  <SCORE.INTER.ROT>
1

>  <SCORE.INTER.VDW>
-20.7938

>  <SCORE.INTER.norm>
-0.904226

>  <SCORE.INTRA>
2.53452

>  <SCORE.INTRA.DIHEDRAL>
7.53515

>  <SCORE.INTRA.DIHEDRAL.0>
1.23283

>  <SCORE.INTRA.POLAR>
0

>  <SCORE.INTRA.POLAR.0>
0

>  <SCORE.INTRA.REPUL>
0

>  <SCORE.INTRA.REPUL.0>
0

>  <SCORE.INTRA.VDW>
-1.23305

>  <SCORE.INTRA.VDW.0>
1.06701

>  <SCORE.INTRA.norm>
0.126726

>  <SCORE.RESTR>
0.138957

>  <SCORE.RESTR.CAVITY>
0.138957

>  <SCORE.RESTR.norm>
0.00694784

>  <SCORE.SYSTEM>
-1.00941

>  <SCORE.SYSTEM.CONST>
0

>  <SCORE.SYSTEM.DIHEDRAL>
0.109575

>  <SCORE.SYSTEM.VDW>
-1.0642

>  <SCORE.SYSTEM.norm>
-0.0504707

>  <SCORE.heavy>
20

>  <SCORE.norm>
-0.821022

$$$$
5280443
  RxDock  02242101513D
librxdock.so/0.1.0
 23 25  0  0  0  0  0  0  0  0999 V2000
  -53.5811   -4.8850   15.4557 O   0  0  0  0  0  0
  -54.1820   -9.5770   16.5140 O   0  0  0  0  0  0
  -52.3779   -8.0751   17.6861 O   0  0  0  0  0  0
  -56.8899   -7.4647   13.2337 O   0  0  0  0  0  0
  -50.2904    0.3665   16.7077 O   0  0  0  0  0  0
  -53.8359   -7.2317   16.0288 C   0  0  0  0  0  0
  -54.1967   -6.1009   15.2980 C   0  0  0  0  0  0
  -52.5610   -4.7772   16.3888 C   0  0  0  0  0  0
  -51.9650   -3.4288   16.4728 C   0  0  0  0  0  0
  -52.7482   -7.1233   17.0129 C   0  0  0  0  0  0
  -52.1196   -5.7935   17.1469 C   0  0  0  0  0  0
  -54.4976   -8.4448   15.8258 C   0  0  0  0  0  0
  -55.2238   -6.1773   14.3572 C   0  0  0  0  0  0
  -55.8874   -7.3871   14.1515 C   0  0  0  0  0  0
  -55.5249   -8.5182   14.8843 C   0  0  0  0  0  0
  -51.1902   -2.9373   15.4193 C   0  0  0  0  0  0
  -52.1743   -2.6384   17.6054 C   0  0  0  0  0  0
  -50.6277   -1.6633   15.4984 C   0  0  0  0  0  0
  -51.6120   -1.3643   17.6843 C   0  0  0  0  0  0
  -50.8386   -0.8768   16.6308 C   0  0  0  0  0  0
  -54.6951  -10.3301   16.1836 H   0  0  0  0  0  0
  -57.2402   -8.3720   13.2250 H   0  0  0  0  0  0
  -49.4877    0.3913   16.1590 H   0  0  0  0  0  0
  1  7  1  0  0  0
  1  8  1  0  0  0
  2 12  1  0  0  0
  2 21  1  0  0  0
  3 10  2  0  0  0
  4 14  1  0  0  0
  4 22  1  0  0  0
  5 20  1  0  0  0
  5 23  1  0  0  0
  6  7  1  0  0  0
  6 10  1  0  0  0
  6 12  2  0  0  0
  7 13  2  0  0  0
  8  9  1  0  0  0
  8 11  2  0  0  0
  9 16  2  0  0  0
  9 17  1  0  0  0
 10 11  1  0  0  0
 12 15  1  0  0  0
 13 14  1  0  0  0
 14 15  2  0  0  0
 16 18  1  0  0  0
 17 19  2  0  0  0
 18 20  2  0  0  0
 19 20  1  0  0  0
M  END
>  <CHROM.0>
-177.52823004,62.68074381,-61.38462600

>  <CHROM.1>
-175.17473464,-179.70103769,-26.94018844,-69.54642977,-53.13716990,-5.24089883
15.98731534,2.34300988,0.76353798,2.75820869

>  <Name>
5280443

>  <PUBCHEM_ATOM_DEF_STEREO_COUNT>
0

>  <PUBCHEM_ATOM_UDEF_STEREO_COUNT>
0

>  <PUBCHEM_BOND_DEF_STEREO_COUNT>
0

>  <PUBCHEM_BOND_UDEF_STEREO_COUNT>
0

>  <PUBCHEM_CACTVS_TAUTO_COUNT>
57

>  <PUBCHEM_COMPONENT_COUNT>
1

>  <PUBCHEM_COMPOUND_CID>
5280443

>  <PUBCHEM_CONFORMER_DIVERSEORDER>
1

>  <PUBCHEM_CONFORMER_ID>
005092BB00000001

>  <PUBCHEM_CONFORMER_RMSD>
0.6

>  <PUBCHEM_COORDINATE_TYPE>
2
5
10

>  <PUBCHEM_EFFECTIVE_ROTOR_COUNT>
1

>  <PUBCHEM_FEATURE_SELFOVERLAP>
40.625

>  <PUBCHEM_HEAVY_ATOM_COUNT>
20

>  <PUBCHEM_ISOTOPIC_ATOM_COUNT>
0

>  <PUBCHEM_MMFF94_ENERGY>
60.7436

>  <PUBCHEM_MMFF94_PARTIAL_CHARGES>
30
1 -0.16
10 0.47
11 -0.14
12 0.08
13 -0.15
14 0.08
15 -0.15
16 -0.15
17 -0.15
18 -0.15
19 -0.15
2 -0.53
20 0.08
21 0.15
22 0.15
23 0.15
24 0.15
25 0.15
26 0.15
27 0.15
28 0.45
29 0.45
3 -0.57
30 0.45
4 -0.53
5 -0.53
6 0.09
7 0.08
8 0.05
9 0.03

>  <PUBCHEM_PHARMACOPHORE_FEATURES>
8
1 1 acceptor
1 2 donor
1 3 acceptor
1 4 donor
1 5 donor
6 1 6 7 8 10 11 rings
6 6 7 12 13 14 15 rings
6 9 16 17 18 19 20 rings

>  <PUBCHEM_SHAPE_FINGERPRINT>
10014705 185 18335983090743610973
10319926 262 18339344337187947850
10411042 1 17833271196427205891
10493431 412 18339369544277550625
10498660 4 18336260146151624709
10608611 8 18342173405853837512
10646746 165 18410292501880224548
11315181 36 17967532415338923724
12107183 9 17973996255225508682
12173636 292 18409726227717107541
12236239 1 17458341966376888130
12390115 104 18270696268119625369
12403259 415 18202279234227041088
12500047 106 18411979165633848254
13073987 5 18334573538601782738
13140716 1 17974859676764465403
13544592 145 18269848531875060550
14508225 48 18124582335750861655
14790565 3 17908712730609502257
15042514 8 18192436496683379403
15196674 1 18411138009184468990
15375358 24 18272089392275024390
17844677 252 18338524131077601056
18186145 218 18201727210401115800
200 152 17060622204808618226
20510252 161 18342459253144016673
20645477 56 18410013234284757832
20645477 70 17203058396143606462
21033648 29 18271516554985427096
21065198 57 18411699920035301594
21236236 1 18412826893710328947
21267235 1 18337116777299593123
21279426 13 18269277859449011198
21421861 104 17750502976618702298
23402539 116 18412538829647092654
23402655 69 18131067100338114972
23557571 272 18342746247148492668
23559900 14 18271807861775124550
245318 6 16448986100328701468
283562 15 18410291424461079675
2916195 48 18342730849902058064
3004659 81 18335425613612532158
335352 9 18267022748231475478
350125 39 18410298038462750009
3545911 37 18342460348455732712
4028521 119 18341892965631935697
4214541 1 18411419514231212472
474 4 16879077545412114420
495365 180 17346021334593014002
5104073 3 18410011005465809410
542803 24 17530686524359763644
559249 180 18337386046670377618
633830 44 18199743644401676445
69090 78 18272086119177836790
77779 3 18412263930592437412
9709674 26 18342463655380539086

>  <PUBCHEM_SHAPE_MULTIPOLES>
382.24
10.96
2.41
0.66
9.09
0.24
0
-3.75
0.48
-2.84
-0.06
0.21
-0.01
0.71

>  <PUBCHEM_SHAPE_SELFOVERLAP>
856.39

>  <PUBCHEM_SHAPE_VOLUME>
201.3

>  <RI>
-1.16464e+09

>  <Rbt.Current_Directory>
/root/miniconda3/envs/rdock/share/rxdock-2013.1.1_148c5bd1-0/data/ligands/prepped_ligands/Apigenin

>  <Rbt.Executable>
rbdock/0.1.0

>  <Rbt.Library>
librxdock.so/0.1.0

>  <Rbt.Parameter_File>
/root/miniconda3/envs/rdock/share/rxdock-2013.1.1_148c5bd1-0/data/scripts/dock.prm

>  <Rbt.Receptor>
def.prm

>  <SCORE>
-18.7881

>  <SCORE.INTER>
-19.1248

>  <SCORE.INTER.CONST>
1

>  <SCORE.INTER.POLAR>
-1.66928

>  <SCORE.INTER.REPUL>
0.00585818

>  <SCORE.INTER.ROT>
1

>  <SCORE.INTER.VDW>
-19.8786

>  <SCORE.INTER.norm>
-0.956241

>  <SCORE.INTRA>
1.34289

>  <SCORE.INTRA.DIHEDRAL>
4.02629

>  <SCORE.INTRA.DIHEDRAL.0>
1.23283

>  <SCORE.INTRA.POLAR>
0

>  <SCORE.INTRA.POLAR.0>
0

>  <SCORE.INTRA.REPUL>
0

>  <SCORE.INTRA.REPUL.0>
0

>  <SCORE.INTRA.VDW>
-0.67026

>  <SCORE.INTRA.VDW.0>
1.06701

>  <SCORE.INTRA.norm>
0.0671443

>  <SCORE.RESTR>
0

>  <SCORE.RESTR.CAVITY>
0

>  <SCORE.RESTR.norm>
0

>  <SCORE.SYSTEM>
-1.00612

>  <SCORE.SYSTEM.CONST>
0

>  <SCORE.SYSTEM.DIHEDRAL>
0.0546939

>  <SCORE.SYSTEM.VDW>
-1.03347

>  <SCORE.SYSTEM.norm>
-0.0503059

>  <SCORE.heavy>
20

>  <SCORE.norm>
-0.939403

$$$$
5280443
  RxDock  02242101513D
librxdock.so/0.1.0
 23 25  0  0  0  0  0  0  0  0999 V2000
  -51.7663   -3.5001   15.0641 O   0  0  0  0  0  0
  -51.5005   -7.7549   17.3711 O   0  0  0  0  0  0
  -49.3806   -6.3359   16.7571 O   0  0  0  0  0  0
  -55.7023   -5.9472   16.0937 O   0  0  0  0  0  0
  -48.4897    1.3483   12.6681 O   0  0  0  0  0  0
  -51.5702   -5.6263   16.2221 C   0  0  0  0  0  0
  -52.3271   -4.6192   15.6258 C   0  0  0  0  0  0
  -50.3868   -3.3640   15.0993 C   0  0  0  0  0  0
  -49.8896   -2.1280   14.4625 C   0  0  0  0  0  0
  -50.1061   -5.4897   16.2532 C   0  0  0  0  0  0
  -49.5517   -4.2667   15.6380 C   0  0  0  0  0  0
  -52.1954   -6.7447   16.7781 C   0  0  0  0  0  0
  -53.7173   -4.7253   15.5815 C   0  0  0  0  0  0
  -54.3457   -5.8407   16.1358 C   0  0  0  0  0  0
  -53.5863   -6.8481   16.7327 C   0  0  0  0  0  0
  -48.5345   -1.7964   14.5372 C   0  0  0  0  0  0
  -50.7717   -1.2855   13.7817 C   0  0  0  0  0  0
  -48.0646   -0.6292   13.9351 C   0  0  0  0  0  0
  -50.3017   -0.1184   13.1793 C   0  0  0  0  0  0
  -48.9482    0.2098   13.2562 C   0  0  0  0  0  0
  -50.5884   -7.4804   17.5512 H   0  0  0  0  0  0
  -55.9482   -6.8842   16.1809 H   0  0  0  0  0  0
  -49.2498    1.8770   12.3701 H   0  0  0  0  0  0
  1  7  1  0  0  0
  1  8  1  0  0  0
  2 12  1  0  0  0
  2 21  1  0  0  0
  3 10  2  0  0  0
  4 14  1  0  0  0
  4 22  1  0  0  0
  5 20  1  0  0  0
  5 23  1  0  0  0
  6  7  1  0  0  0
  6 10  1  0  0  0
  6 12  2  0  0  0
  7 13  2  0  0  0
  8  9  1  0  0  0
  8 11  2  0  0  0
  9 16  2  0  0  0
  9 17  1  0  0  0
 10 11  1  0  0  0
 12 15  1  0  0  0
 13 14  1  0  0  0
 14 15  2  0  0  0
 16 18  1  0  0  0
 17 19  2  0  0  0
 18 20  2  0  0  0
 19 20  1  0  0  0
M  END
>  <CHROM.0>
-179.55327029,60.98253112,174.16082008

>  <CHROM.1>
14.68846166,157.59209680,-170.97186436,173.83446350,-51.07883485,-3.80138612
15.27157785,2.09002900,0.07830267,2.63915165

>  <Name>
5280443

>  <PUBCHEM_ATOM_DEF_STEREO_COUNT>
0

>  <PUBCHEM_ATOM_UDEF_STEREO_COUNT>
0

>  <PUBCHEM_BOND_DEF_STEREO_COUNT>
0

>  <PUBCHEM_BOND_UDEF_STEREO_COUNT>
0

>  <PUBCHEM_CACTVS_TAUTO_COUNT>
57

>  <PUBCHEM_COMPONENT_COUNT>
1

>  <PUBCHEM_COMPOUND_CID>
5280443

>  <PUBCHEM_CONFORMER_DIVERSEORDER>
1

>  <PUBCHEM_CONFORMER_ID>
005092BB00000001

>  <PUBCHEM_CONFORMER_RMSD>
0.6

>  <PUBCHEM_COORDINATE_TYPE>
2
5
10

>  <PUBCHEM_EFFECTIVE_ROTOR_COUNT>
1

>  <PUBCHEM_FEATURE_SELFOVERLAP>
40.625

>  <PUBCHEM_HEAVY_ATOM_COUNT>
20

>  <PUBCHEM_ISOTOPIC_ATOM_COUNT>
0

>  <PUBCHEM_MMFF94_ENERGY>
60.7436

>  <PUBCHEM_MMFF94_PARTIAL_CHARGES>
30
1 -0.16
10 0.47
11 -0.14
12 0.08
13 -0.15
14 0.08
15 -0.15
16 -0.15
17 -0.15
18 -0.15
19 -0.15
2 -0.53
20 0.08
21 0.15
22 0.15
23 0.15
24 0.15
25 0.15
26 0.15
27 0.15
28 0.45
29 0.45
3 -0.57
30 0.45
4 -0.53
5 -0.53
6 0.09
7 0.08
8 0.05
9 0.03

>  <PUBCHEM_PHARMACOPHORE_FEATURES>
8
1 1 acceptor
1 2 donor
1 3 acceptor
1 4 donor
1 5 donor
6 1 6 7 8 10 11 rings
6 6 7 12 13 14 15 rings
6 9 16 17 18 19 20 rings

>  <PUBCHEM_SHAPE_FINGERPRINT>
10014705 185 18335983090743610973
10319926 262 18339344337187947850
10411042 1 17833271196427205891
10493431 412 18339369544277550625
10498660 4 18336260146151624709
10608611 8 18342173405853837512
10646746 165 18410292501880224548
11315181 36 17967532415338923724
12107183 9 17973996255225508682
12173636 292 18409726227717107541
12236239 1 17458341966376888130
12390115 104 18270696268119625369
12403259 415 18202279234227041088
12500047 106 18411979165633848254
13073987 5 18334573538601782738
13140716 1 17974859676764465403
13544592 145 18269848531875060550
14508225 48 18124582335750861655
14790565 3 17908712730609502257
15042514 8 18192436496683379403
15196674 1 18411138009184468990
15375358 24 18272089392275024390
17844677 252 18338524131077601056
18186145 218 18201727210401115800
200 152 17060622204808618226
20510252 161 18342459253144016673
20645477 56 18410013234284757832
20645477 70 17203058396143606462
21033648 29 18271516554985427096
21065198 57 18411699920035301594
21236236 1 18412826893710328947
21267235 1 18337116777299593123
21279426 13 18269277859449011198
21421861 104 17750502976618702298
23402539 116 18412538829647092654
23402655 69 18131067100338114972
23557571 272 18342746247148492668
23559900 14 18271807861775124550
245318 6 16448986100328701468
283562 15 18410291424461079675
2916195 48 18342730849902058064
3004659 81 18335425613612532158
335352 9 18267022748231475478
350125 39 18410298038462750009
3545911 37 18342460348455732712
4028521 119 18341892965631935697
4214541 1 18411419514231212472
474 4 16879077545412114420
495365 180 17346021334593014002
5104073 3 18410011005465809410
542803 24 17530686524359763644
559249 180 18337386046670377618
633830 44 18199743644401676445
69090 78 18272086119177836790
77779 3 18412263930592437412
9709674 26 18342463655380539086

>  <PUBCHEM_SHAPE_MULTIPOLES>
382.24
10.96
2.41
0.66
9.09
0.24
0
-3.75
0.48
-2.84
-0.06
0.21
-0.01
0.71

>  <PUBCHEM_SHAPE_SELFOVERLAP>
856.39

>  <PUBCHEM_SHAPE_VOLUME>
201.3

>  <RI>
-1.16464e+09

>  <Rbt.Current_Directory>
/root/miniconda3/envs/rdock/share/rxdock-2013.1.1_148c5bd1-0/data/ligands/prepped_ligands/Apigenin

>  <Rbt.Executable>
rbdock/0.1.0

>  <Rbt.Library>
librxdock.so/0.1.0

>  <Rbt.Parameter_File>
/root/miniconda3/envs/rdock/share/rxdock-2013.1.1_148c5bd1-0/data/scripts/dock.prm

>  <Rbt.Receptor>
def.prm

>  <SCORE>
-16.7779

>  <SCORE.INTER>
-15.9833

>  <SCORE.INTER.CONST>
1

>  <SCORE.INTER.POLAR>
-1.57717

>  <SCORE.INTER.REPUL>
0.228398

>  <SCORE.INTER.ROT>
1

>  <SCORE.INTER.VDW>
-18.1629

>  <SCORE.INTER.norm>
-0.799163

>  <SCORE.INTRA>
0.18205

>  <SCORE.INTRA.DIHEDRAL>
-0.044521

>  <SCORE.INTRA.DIHEDRAL.0>
1.23283

>  <SCORE.INTRA.POLAR>
0

>  <SCORE.INTRA.POLAR.0>
0

>  <SCORE.INTRA.REPUL>
0

>  <SCORE.INTRA.REPUL.0>
0

>  <SCORE.INTRA.VDW>
0.204311

>  <SCORE.INTRA.VDW.0>
1.06701

>  <SCORE.INTRA.norm>
0.0091025

>  <SCORE.RESTR>
0

>  <SCORE.RESTR.CAVITY>
0

>  <SCORE.RESTR.norm>
0

>  <SCORE.SYSTEM>
-0.976738

>  <SCORE.SYSTEM.CONST>
0

>  <SCORE.SYSTEM.DIHEDRAL>
0.0932847

>  <SCORE.SYSTEM.VDW>
-1.02338

>  <SCORE.SYSTEM.norm>
-0.0488369

>  <SCORE.heavy>
20

>  <SCORE.norm>
-0.838897

$$$$
5280443
  RxDock  02242101513D
librxdock.so/0.1.0
 23 25  0  0  0  0  0  0  0  0999 V2000
  -50.8007   -4.1884   15.9240 O   0  0  0  0  0  0
  -48.3971   -0.2306   14.4907 O   0  0  0  0  0  0
  -50.8525   -0.7559   13.7297 O   0  0  0  0  0  0
  -46.3554   -3.3913   17.3884 O   0  0  0  0  0  0
  -56.2184   -7.4257   15.5447 O   0  0  0  0  0  0
  -49.6470   -2.1872   15.1727 C   0  0  0  0  0  0
  -49.6962   -3.3749   15.9005 C   0  0  0  0  0  0
  -51.9181   -3.8060   15.1973 C   0  0  0  0  0  0
  -53.0459   -4.7549   15.2876 C   0  0  0  0  0  0
  -50.8271   -1.7831   14.3934 C   0  0  0  0  0  0
  -51.9907   -2.6908   14.4534 C   0  0  0  0  0  0
  -48.4946   -1.3983   15.1850 C   0  0  0  0  0  0
  -48.5899   -3.7818   16.6465 C   0  0  0  0  0  0
  -47.4368   -2.9966   16.6616 C   0  0  0  0  0  0
  -47.3895   -1.8075   15.9325 C   0  0  0  0  0  0
  -52.8505   -6.1069   14.9946 C   0  0  0  0  0  0
  -54.3127   -4.3052   15.6675 C   0  0  0  0  0  0
  -53.9156   -7.0034   15.0806 C   0  0  0  0  0  0
  -55.3778   -5.2019   15.7538 C   0  0  0  0  0  0
  -55.1793   -6.5510   15.4601 C   0  0  0  0  0  0
  -49.2254   -0.0421   14.0239 H   0  0  0  0  0  0
  -45.6550   -2.7223   17.3007 H   0  0  0  0  0  0
  -57.0238   -6.9359   15.7844 H   0  0  0  0  0  0
  1  7  1  0  0  0
  1  8  1  0  0  0
  2 12  1  0  0  0
  2 21  1  0  0  0
  3 10  2  0  0  0
  4 14  1  0  0  0
  4 22  1  0  0  0
  5 20  1  0  0  0
  5 23  1  0  0  0
  6  7  1  0  0  0
  6 10  1  0  0  0
  6 12  2  0  0  0
  7 13  2  0  0  0
  8  9  1  0  0  0
  8 11  2  0  0  0
  9 16  2  0  0  0
  9 17  1  0  0  0
 10 11  1  0  0  0
 12 15  1  0  0  0
 13 14  1  0  0  0
 14 15  2  0  0  0
 16 18  1  0  0  0
 17 19  2  0  0  0
 18 20  2  0  0  0
 19 20  1  0  0  0
M  END
>  <CHROM.0>
-170.97383658,-61.04080241,-48.06671149

>  <CHROM.1>
0.95959162,-178.81768784,-177.67186303,-53.17315658,-51.13503129,-3.66490668
15.44568158,-0.46081336,0.32569220,2.64425966

>  <Name>
5280443

>  <PUBCHEM_ATOM_DEF_STEREO_COUNT>
0

>  <PUBCHEM_ATOM_UDEF_STEREO_COUNT>
0

>  <PUBCHEM_BOND_DEF_STEREO_COUNT>
0

>  <PUBCHEM_BOND_UDEF_STEREO_COUNT>
0

>  <PUBCHEM_CACTVS_TAUTO_COUNT>
57

>  <PUBCHEM_COMPONENT_COUNT>
1

>  <PUBCHEM_COMPOUND_CID>
5280443

>  <PUBCHEM_CONFORMER_DIVERSEORDER>
1

>  <PUBCHEM_CONFORMER_ID>
005092BB00000001

>  <PUBCHEM_CONFORMER_RMSD>
0.6

>  <PUBCHEM_COORDINATE_TYPE>
2
5
10

>  <PUBCHEM_EFFECTIVE_ROTOR_COUNT>
1

>  <PUBCHEM_FEATURE_SELFOVERLAP>
40.625

>  <PUBCHEM_HEAVY_ATOM_COUNT>
20

>  <PUBCHEM_ISOTOPIC_ATOM_COUNT>
0

>  <PUBCHEM_MMFF94_ENERGY>
60.7436

>  <PUBCHEM_MMFF94_PARTIAL_CHARGES>
30
1 -0.16
10 0.47
11 -0.14
12 0.08
13 -0.15
14 0.08
15 -0.15
16 -0.15
17 -0.15
18 -0.15
19 -0.15
2 -0.53
20 0.08
21 0.15
22 0.15
23 0.15
24 0.15
25 0.15
26 0.15
27 0.15
28 0.45
29 0.45
3 -0.57
30 0.45
4 -0.53
5 -0.53
6 0.09
7 0.08
8 0.05
9 0.03

>  <PUBCHEM_PHARMACOPHORE_FEATURES>
8
1 1 acceptor
1 2 donor
1 3 acceptor
1 4 donor
1 5 donor
6 1 6 7 8 10 11 rings
6 6 7 12 13 14 15 rings
6 9 16 17 18 19 20 rings

>  <PUBCHEM_SHAPE_FINGERPRINT>
10014705 185 18335983090743610973
10319926 262 18339344337187947850
10411042 1 17833271196427205891
10493431 412 18339369544277550625
10498660 4 18336260146151624709
10608611 8 18342173405853837512
10646746 165 18410292501880224548
11315181 36 17967532415338923724
12107183 9 17973996255225508682
12173636 292 18409726227717107541
12236239 1 17458341966376888130
12390115 104 18270696268119625369
12403259 415 18202279234227041088
12500047 106 18411979165633848254
13073987 5 18334573538601782738
13140716 1 17974859676764465403
13544592 145 18269848531875060550
14508225 48 18124582335750861655
14790565 3 17908712730609502257
15042514 8 18192436496683379403
15196674 1 18411138009184468990
15375358 24 18272089392275024390
17844677 252 18338524131077601056
18186145 218 18201727210401115800
200 152 17060622204808618226
20510252 161 18342459253144016673
20645477 56 18410013234284757832
20645477 70 17203058396143606462
21033648 29 18271516554985427096
21065198 57 18411699920035301594
21236236 1 18412826893710328947
21267235 1 18337116777299593123
21279426 13 18269277859449011198
21421861 104 17750502976618702298
23402539 116 18412538829647092654
23402655 69 18131067100338114972
23557571 272 18342746247148492668
23559900 14 18271807861775124550
245318 6 16448986100328701468
283562 15 18410291424461079675
2916195 48 18342730849902058064
3004659 81 18335425613612532158
335352 9 18267022748231475478
350125 39 18410298038462750009
3545911 37 18342460348455732712
4028521 119 18341892965631935697
4214541 1 18411419514231212472
474 4 16879077545412114420
495365 180 17346021334593014002
5104073 3 18410011005465809410
542803 24 17530686524359763644
559249 180 18337386046670377618
633830 44 18199743644401676445
69090 78 18272086119177836790
77779 3 18412263930592437412
9709674 26 18342463655380539086

>  <PUBCHEM_SHAPE_MULTIPOLES>
382.24
10.96
2.41
0.66
9.09
0.24
0
-3.75
0.48
-2.84
-0.06
0.21
-0.01
0.71

>  <PUBCHEM_SHAPE_SELFOVERLAP>
856.39

>  <PUBCHEM_SHAPE_VOLUME>
201.3

>  <RI>
-1.16464e+09

>  <Rbt.Current_Directory>
/root/miniconda3/envs/rdock/share/rxdock-2013.1.1_148c5bd1-0/data/ligands/prepped_ligands/Apigenin

>  <Rbt.Executable>
rbdock/0.1.0

>  <Rbt.Library>
librxdock.so/0.1.0

>  <Rbt.Parameter_File>
/root/miniconda3/envs/rdock/share/rxdock-2013.1.1_148c5bd1-0/data/scripts/dock.prm

>  <Rbt.Receptor>
def.prm

>  <SCORE>
-13.6829

>  <SCORE.INTER>
-13.4023

>  <SCORE.INTER.CONST>
1

>  <SCORE.INTER.POLAR>
-1.28032

>  <SCORE.INTER.REPUL>
0

>  <SCORE.INTER.ROT>
1

>  <SCORE.INTER.VDW>
-15.4492

>  <SCORE.INTER.norm>
-0.670113

>  <SCORE.INTRA>
0.446077

>  <SCORE.INTRA.DIHEDRAL>
1.89462

>  <SCORE.INTRA.DIHEDRAL.0>
1.23283

>  <SCORE.INTRA.POLAR>
0

>  <SCORE.INTRA.POLAR.0>
0

>  <SCORE.INTRA.REPUL>
0

>  <SCORE.INTRA.REPUL.0>
0

>  <SCORE.INTRA.VDW>
-0.501235

>  <SCORE.INTRA.VDW.0>
1.06701

>  <SCORE.INTRA.norm>
0.0223038

>  <SCORE.RESTR>
0

>  <SCORE.RESTR.CAVITY>
0

>  <SCORE.RESTR.norm>
0

>  <SCORE.SYSTEM>
-0.726686

>  <SCORE.SYSTEM.CONST>
0

>  <SCORE.SYSTEM.DIHEDRAL>
0.527369

>  <SCORE.SYSTEM.POLAR>
-0.0190275

>  <SCORE.SYSTEM.VDW>
-0.925677

>  <SCORE.SYSTEM.norm>
-0.0363343

>  <SCORE.heavy>
20

>  <SCORE.norm>
-0.684144

$$$$
5280443
  RxDock  02242101513D
librxdock.so/0.1.0
 23 25  0  0  0  0  0  0  0  0999 V2000
  -47.4094    0.1484   13.8062 O   0  0  0  0  0  0
  -47.6867   -4.1796   15.9713 O   0  0  0  0  0  0
  -49.7008   -3.1059   14.6771 O   0  0  0  0  0  0
  -43.6707   -1.6485   16.1159 O   0  0  0  0  0  0
  -50.5111    4.4934   10.4169 O   0  0  0  0  0  0
  -47.6081   -2.0255   14.8714 C   0  0  0  0  0  0
  -46.8809   -0.8838   14.5394 C   0  0  0  0  0  0
  -48.7220    0.0452   13.3713 C   0  0  0  0  0  0
  -49.1909    1.2121   12.5972 C   0  0  0  0  0  0
  -49.0036   -2.1344   14.4195 C   0  0  0  0  0  0
  -49.5248   -0.9988   13.6319 C   0  0  0  0  0  0
  -47.0184   -3.0455   15.6214 C   0  0  0  0  0  0
  -45.5562   -0.7549   14.9572 C   0  0  0  0  0  0
  -44.9633   -1.7716   15.7064 C   0  0  0  0  0  0
  -45.6930   -2.9143   16.0376 C   0  0  0  0  0  0
  -48.3467    1.8212   11.6656 C   0  0  0  0  0  0
  -50.4809    1.7111   12.7923 C   0  0  0  0  0  0
  -48.7898    2.9230   10.9339 C   0  0  0  0  0  0
  -50.9241    2.8127   12.0603 C   0  0  0  0  0  0
  -50.0785    3.4188   11.1312 C   0  0  0  0  0  0
  -48.5358   -4.2312   15.5066 H   0  0  0  0  0  0
  -43.3455   -0.7648   15.8726 H   0  0  0  0  0  0
  -51.4555    4.6349   10.6017 H   0  0  0  0  0  0
  1  7  1  0  0  0
  1  8  1  0  0  0
  2 12  1  0  0  0
  2 21  1  0  0  0
  3 10  2  0  0  0
  4 14  1  0  0  0
  4 22  1  0  0  0
  5 20  1  0  0  0
  5 23  1  0  0  0
  6  7  1  0  0  0
  6 10  1  0  0  0
  6 12  2  0  0  0
  7 13  2  0  0  0
  8  9  1  0  0  0
  8 11  2  0  0  0
  9 16  2  0  0  0
  9 17  1  0  0  0
 10 11  1  0  0  0
 12 15  1  0  0  0
 13 14  1  0  0  0
 14 15  2  0  0  0
 16 18  1  0  0  0
 17 19  2  0  0  0
 18 20  2  0  0  0
 19 20  1  0  0  0
M  END
>  <CHROM.0>
174.67846402,62.70701486,-61.78640853

>  <CHROM.1>
9.69791576,5.24632920,173.31533460,40.67665115,-48.07303226,-0.26430165,13.78459858
-1.06324704,-0.25432018,-0.51152312

>  <Name>
5280443

>  <PUBCHEM_ATOM_DEF_STEREO_COUNT>
0

>  <PUBCHEM_ATOM_UDEF_STEREO_COUNT>
0

>  <PUBCHEM_BOND_DEF_STEREO_COUNT>
0

>  <PUBCHEM_BOND_UDEF_STEREO_COUNT>
0

>  <PUBCHEM_CACTVS_TAUTO_COUNT>
57

>  <PUBCHEM_COMPONENT_COUNT>
1

>  <PUBCHEM_COMPOUND_CID>
5280443

>  <PUBCHEM_CONFORMER_DIVERSEORDER>
1

>  <PUBCHEM_CONFORMER_ID>
005092BB00000001

>  <PUBCHEM_CONFORMER_RMSD>
0.6

>  <PUBCHEM_COORDINATE_TYPE>
2
5
10

>  <PUBCHEM_EFFECTIVE_ROTOR_COUNT>
1

>  <PUBCHEM_FEATURE_SELFOVERLAP>
40.625

>  <PUBCHEM_HEAVY_ATOM_COUNT>
20

>  <PUBCHEM_ISOTOPIC_ATOM_COUNT>
0

>  <PUBCHEM_MMFF94_ENERGY>
60.7436

>  <PUBCHEM_MMFF94_PARTIAL_CHARGES>
30
1 -0.16
10 0.47
11 -0.14
12 0.08
13 -0.15
14 0.08
15 -0.15
16 -0.15
17 -0.15
18 -0.15
19 -0.15
2 -0.53
20 0.08
21 0.15
22 0.15
23 0.15
24 0.15
25 0.15
26 0.15
27 0.15
28 0.45
29 0.45
3 -0.57
30 0.45
4 -0.53
5 -0.53
6 0.09
7 0.08
8 0.05
9 0.03

>  <PUBCHEM_PHARMACOPHORE_FEATURES>
8
1 1 acceptor
1 2 donor
1 3 acceptor
1 4 donor
1 5 donor
6 1 6 7 8 10 11 rings
6 6 7 12 13 14 15 rings
6 9 16 17 18 19 20 rings

>  <PUBCHEM_SHAPE_FINGERPRINT>
10014705 185 18335983090743610973
10319926 262 18339344337187947850
10411042 1 17833271196427205891
10493431 412 18339369544277550625
10498660 4 18336260146151624709
10608611 8 18342173405853837512
10646746 165 18410292501880224548
11315181 36 17967532415338923724
12107183 9 17973996255225508682
12173636 292 18409726227717107541
12236239 1 17458341966376888130
12390115 104 18270696268119625369
12403259 415 18202279234227041088
12500047 106 18411979165633848254
13073987 5 18334573538601782738
13140716 1 17974859676764465403
13544592 145 18269848531875060550
14508225 48 18124582335750861655
14790565 3 17908712730609502257
15042514 8 18192436496683379403
15196674 1 18411138009184468990
15375358 24 18272089392275024390
17844677 252 18338524131077601056
18186145 218 18201727210401115800
200 152 17060622204808618226
20510252 161 18342459253144016673
20645477 56 18410013234284757832
20645477 70 17203058396143606462
21033648 29 18271516554985427096
21065198 57 18411699920035301594
21236236 1 18412826893710328947
21267235 1 18337116777299593123
21279426 13 18269277859449011198
21421861 104 17750502976618702298
23402539 116 18412538829647092654
23402655 69 18131067100338114972
23557571 272 18342746247148492668
23559900 14 18271807861775124550
245318 6 16448986100328701468
283562 15 18410291424461079675
2916195 48 18342730849902058064
3004659 81 18335425613612532158
335352 9 18267022748231475478
350125 39 18410298038462750009
3545911 37 18342460348455732712
4028521 119 18341892965631935697
4214541 1 18411419514231212472
474 4 16879077545412114420
495365 180 17346021334593014002
5104073 3 18410011005465809410
542803 24 17530686524359763644
559249 180 18337386046670377618
633830 44 18199743644401676445
69090 78 18272086119177836790
77779 3 18412263930592437412
9709674 26 18342463655380539086

>  <PUBCHEM_SHAPE_MULTIPOLES>
382.24
10.96
2.41
0.66
9.09
0.24
0
-3.75
0.48
-2.84
-0.06
0.21
-0.01
0.71

>  <PUBCHEM_SHAPE_SELFOVERLAP>
856.39

>  <PUBCHEM_SHAPE_VOLUME>
201.3

>  <RI>
-1.16464e+09

>  <Rbt.Current_Directory>
/root/miniconda3/envs/rdock/share/rxdock-2013.1.1_148c5bd1-0/data/ligands/prepped_ligands/Apigenin

>  <Rbt.Executable>
rbdock/0.1.0

>  <Rbt.Library>
librxdock.so/0.1.0

>  <Rbt.Parameter_File>
/root/miniconda3/envs/rdock/share/rxdock-2013.1.1_148c5bd1-0/data/scripts/dock.prm

>  <Rbt.Receptor>
def.prm

>  <SCORE>
-15.4701

>  <SCORE.INTER>
-15.1918

>  <SCORE.INTER.CONST>
1

>  <SCORE.INTER.POLAR>
-0.306558

>  <SCORE.INTER.REPUL>
0

>  <SCORE.INTER.ROT>
1

>  <SCORE.INTER.VDW>
-20.5495

>  <SCORE.INTER.norm>
-0.759589

>  <SCORE.INTRA>
0.220762

>  <SCORE.INTRA.DIHEDRAL>
1.00551

>  <SCORE.INTRA.DIHEDRAL.0>
1.23283

>  <SCORE.INTRA.POLAR>
0

>  <SCORE.INTRA.POLAR.0>
0

>  <SCORE.INTRA.REPUL>
0

>  <SCORE.INTRA.REPUL.0>
0

>  <SCORE.INTRA.VDW>
-0.281992

>  <SCORE.INTRA.VDW.0>
1.06701

>  <SCORE.INTRA.norm>
0.0110381

>  <SCORE.RESTR>
0.459761

>  <SCORE.RESTR.CAVITY>
0.459761

>  <SCORE.RESTR.norm>
0.022988

>  <SCORE.SYSTEM>
-0.958852

>  <SCORE.SYSTEM.CONST>
0

>  <SCORE.SYSTEM.DIHEDRAL>
0.118927

>  <SCORE.SYSTEM.VDW>
-1.01832

>  <SCORE.SYSTEM.norm>
-0.0479426

>  <SCORE.heavy>
20

>  <SCORE.norm>
-0.773505

$$$$
