5280443
  RxDock  02242101073D
librxdock.so/0.1.0
 23 25  0  0  0  0  0  0  0  0999 V2000
  -51.4259   -3.2014   14.7598 O   0  0  0  0  0  0
  -46.6077   -2.8148   15.1222 O   0  0  0  0  0  0
  -47.9515   -4.8323   16.1264 O   0  0  0  0  0  0
  -49.1474    0.5215   12.8919 O   0  0  0  0  0  0
  -56.5002   -6.6974   16.1780 O   0  0  0  0  0  0
  -49.0103   -3.0626   14.9726 C   0  0  0  0  0  0
  -50.2342   -2.5601   14.5343 C   0  0  0  0  0  0
  -51.4082   -4.4055   15.4473 C   0  0  0  0  0  0
  -52.7435   -5.0061   15.6396 C   0  0  0  0  0  0
  -48.9886   -4.3350   15.7101 C   0  0  0  0  0  0
  -50.2964   -4.9870   15.9248 C   0  0  0  0  0  0
  -47.8275   -2.3660   14.7149 C   0  0  0  0  0  0
  -50.2825   -1.3545   13.8343 C   0  0  0  0  0  0
  -49.1034   -0.6556   13.5746 C   0  0  0  0  0  0
  -47.8786   -1.1604   14.0140 C   0  0  0  0  0  0
  -53.8754   -4.3856   15.1054 C   0  0  0  0  0  0
  -52.8804   -6.1978   16.3554 C   0  0  0  0  0  0
  -55.1367   -4.9532   15.2865 C   0  0  0  0  0  0
  -54.1417   -6.7656   16.5362 C   0  0  0  0  0  0
  -55.2699   -6.1432   16.0019 C   0  0  0  0  0  0
  -46.4936   -3.7488   14.8890 H   0  0  0  0  0  0
  -48.2593    0.7211   12.5495 H   0  0  0  0  0  0
  -56.8794   -6.9062   15.3070 H   0  0  0  0  0  0
  1  7  1  0  0  0
  1  8  1  0  0  0
  2 12  1  0  0  0
  2 21  1  0  0  0
  3 10  2  0  0  0
  4 14  1  0  0  0
  4 22  1  0  0  0
  5 20  1  0  0  0
  5 23  1  0  0  0
  6  7  1  0  0  0
  6 10  1  0  0  0
  6 12  2  0  0  0
  7 13  2  0  0  0
  8  9  1  0  0  0
  8 11  2  0  0  0
  9 16  2  0  0  0
  9 17  1  0  0  0
 10 11  1  0  0  0
 12 15  1  0  0  0
 13 14  1  0  0  0
 14 15  2  0  0  0
 16 18  1  0  0  0
 17 19  2  0  0  0
 18 20  2  0  0  0
 19 20  1  0  0  0
M  END
>  <CHROM.0>
179.35019143,63.92158722,-169.84831175

>  <CHROM.1>
48.21668702,-161.70999860,60.69487402,2.22290631,-51.00469805,-3.74898163
15.12176494,0.60618154,-0.10610952,-0.52613872

>  <Name>
5280443

>  <PUBCHEM_ATOM_DEF_STEREO_COUNT>
0

>  <PUBCHEM_ATOM_UDEF_STEREO_COUNT>
0

>  <PUBCHEM_BOND_DEF_STEREO_COUNT>
0

>  <PUBCHEM_BOND_UDEF_STEREO_COUNT>
0

>  <PUBCHEM_CACTVS_TAUTO_COUNT>
57

>  <PUBCHEM_COMPONENT_COUNT>
1

>  <PUBCHEM_COMPOUND_CID>
5280443

>  <PUBCHEM_CONFORMER_DIVERSEORDER>
1

>  <PUBCHEM_CONFORMER_ID>
005092BB00000001

>  <PUBCHEM_CONFORMER_RMSD>
0.6

>  <PUBCHEM_COORDINATE_TYPE>
2
5
10

>  <PUBCHEM_EFFECTIVE_ROTOR_COUNT>
1

>  <PUBCHEM_FEATURE_SELFOVERLAP>
40.625

>  <PUBCHEM_HEAVY_ATOM_COUNT>
20

>  <PUBCHEM_ISOTOPIC_ATOM_COUNT>
0

>  <PUBCHEM_MMFF94_ENERGY>
60.7436

>  <PUBCHEM_MMFF94_PARTIAL_CHARGES>
30
1 -0.16
10 0.47
11 -0.14
12 0.08
13 -0.15
14 0.08
15 -0.15
16 -0.15
17 -0.15
18 -0.15
19 -0.15
2 -0.53
20 0.08
21 0.15
22 0.15
23 0.15
24 0.15
25 0.15
26 0.15
27 0.15
28 0.45
29 0.45
3 -0.57
30 0.45
4 -0.53
5 -0.53
6 0.09
7 0.08
8 0.05
9 0.03

>  <PUBCHEM_PHARMACOPHORE_FEATURES>
8
1 1 acceptor
1 2 donor
1 3 acceptor
1 4 donor
1 5 donor
6 1 6 7 8 10 11 rings
6 6 7 12 13 14 15 rings
6 9 16 17 18 19 20 rings

>  <PUBCHEM_SHAPE_FINGERPRINT>
10014705 185 18335983090743610973
10319926 262 18339344337187947850
10411042 1 17833271196427205891
10493431 412 18339369544277550625
10498660 4 18336260146151624709
10608611 8 18342173405853837512
10646746 165 18410292501880224548
11315181 36 17967532415338923724
12107183 9 17973996255225508682
12173636 292 18409726227717107541
12236239 1 17458341966376888130
12390115 104 18270696268119625369
12403259 415 18202279234227041088
12500047 106 18411979165633848254
13073987 5 18334573538601782738
13140716 1 17974859676764465403
13544592 145 18269848531875060550
14508225 48 18124582335750861655
14790565 3 17908712730609502257
15042514 8 18192436496683379403
15196674 1 18411138009184468990
15375358 24 18272089392275024390
17844677 252 18338524131077601056
18186145 218 18201727210401115800
200 152 17060622204808618226
20510252 161 18342459253144016673
20645477 56 18410013234284757832
20645477 70 17203058396143606462
21033648 29 18271516554985427096
21065198 57 18411699920035301594
21236236 1 18412826893710328947
21267235 1 18337116777299593123
21279426 13 18269277859449011198
21421861 104 17750502976618702298
23402539 116 18412538829647092654
23402655 69 18131067100338114972
23557571 272 18342746247148492668
23559900 14 18271807861775124550
245318 6 16448986100328701468
283562 15 18410291424461079675
2916195 48 18342730849902058064
3004659 81 18335425613612532158
335352 9 18267022748231475478
350125 39 18410298038462750009
3545911 37 18342460348455732712
4028521 119 18341892965631935697
4214541 1 18411419514231212472
474 4 16879077545412114420
495365 180 17346021334593014002
5104073 3 18410011005465809410
542803 24 17530686524359763644
559249 180 18337386046670377618
633830 44 18199743644401676445
69090 78 18272086119177836790
77779 3 18412263930592437412
9709674 26 18342463655380539086

>  <PUBCHEM_SHAPE_MULTIPOLES>
382.24
10.96
2.41
0.66
9.09
0.24
0
-3.75
0.48
-2.84
-0.06
0.21
-0.01
0.71

>  <PUBCHEM_SHAPE_SELFOVERLAP>
856.39

>  <PUBCHEM_SHAPE_VOLUME>
201.3

>  <RI>
-1.1732e+09

>  <Rbt.Current_Directory>
/root/miniconda3/envs/rdock/share/rxdock-2013.1.1_148c5bd1-0/data/ligands/prepped_ligands/Apigenin

>  <Rbt.Executable>
rbdock/0.1.0

>  <Rbt.Library>
librxdock.so/0.1.0

>  <Rbt.Parameter_File>
/root/miniconda3/envs/rdock/share/rxdock-2013.1.1_148c5bd1-0/data/scripts/dock.prm

>  <Rbt.Receptor>
def.prm

>  <SCORE>
-14.5725

>  <SCORE.INTER>
-15.9625

>  <SCORE.INTER.CONST>
1

>  <SCORE.INTER.POLAR>
-1.79568

>  <SCORE.INTER.REPUL>
0.15894

>  <SCORE.INTER.ROT>
1

>  <SCORE.INTER.VDW>
-17.0519

>  <SCORE.INTER.norm>
-0.798126

>  <SCORE.INTRA>
2.27966

>  <SCORE.INTRA.DIHEDRAL>
5.56479

>  <SCORE.INTRA.DIHEDRAL.0>
1.23283

>  <SCORE.INTRA.POLAR>
0

>  <SCORE.INTRA.POLAR.0>
0

>  <SCORE.INTRA.REPUL>
0

>  <SCORE.INTRA.REPUL.0>
0

>  <SCORE.INTRA.VDW>
-0.502738

>  <SCORE.INTRA.VDW.0>
1.06701

>  <SCORE.INTRA.norm>
0.113983

>  <SCORE.RESTR>
0

>  <SCORE.RESTR.CAVITY>
0

>  <SCORE.RESTR.norm>
0

>  <SCORE.SYSTEM>
-0.889621

>  <SCORE.SYSTEM.CONST>
0

>  <SCORE.SYSTEM.DIHEDRAL>
0.317789

>  <SCORE.SYSTEM.POLAR>
-0.0181042

>  <SCORE.SYSTEM.VDW>
-0.986962

>  <SCORE.SYSTEM.norm>
-0.0444811

>  <SCORE.heavy>
20

>  <SCORE.norm>
-0.728624

$$$$
5280443
  RxDock  02242101073D
librxdock.so/0.1.0
 23 25  0  0  0  0  0  0  0  0999 V2000
  -49.4925   -4.2211   15.6242 O   0  0  0  0  0  0
  -52.8631   -7.2235   17.3908 O   0  0  0  0  0  0
  -53.4568   -4.9577   16.2084 O   0  0  0  0  0  0
  -48.2469   -8.2824   17.7445 O   0  0  0  0  0  0
  -48.4277    1.2593   12.6557 O   0  0  0  0  0  0
  -51.2263   -5.6858   16.4896 C   0  0  0  0  0  0
  -49.8882   -5.3714   16.2587 C   0  0  0  0  0  0
  -50.4687   -3.3383   15.1879 C   0  0  0  0  0  0
  -49.9337   -2.1323   14.5246 C   0  0  0  0  0  0
  -52.2642   -4.7473   16.0363 C   0  0  0  0  0  0
  -51.7873   -3.5256   15.3569 C   0  0  0  0  0  0
  -51.5711   -6.8718   17.1416 C   0  0  0  0  0  0
  -48.8844   -6.2436   16.6801 C   0  0  0  0  0  0
  -49.2245   -7.4294   17.3317 C   0  0  0  0  0  0
  -50.5649   -7.7427   17.5618 C   0  0  0  0  0  0
  -48.5556   -1.9065   14.4849 C   0  0  0  0  0  0
  -50.8029   -1.2127   13.9330 C   0  0  0  0  0  0
  -48.0500   -0.7677   13.8578 C   0  0  0  0  0  0
  -50.2973   -0.0741   13.3057 C   0  0  0  0  0  0
  -48.9208    0.1485   13.2682 C   0  0  0  0  0  0
  -53.4691   -6.5315   17.0849 H   0  0  0  0  0  0
  -47.8217   -8.6765   16.9636 H   0  0  0  0  0  0
  -49.1686    1.8419   12.4158 H   0  0  0  0  0  0
  1  7  1  0  0  0
  1  8  1  0  0  0
  2 12  1  0  0  0
  2 21  1  0  0  0
  3 10  2  0  0  0
  4 14  1  0  0  0
  4 22  1  0  0  0
  5 20  1  0  0  0
  5 23  1  0  0  0
  6  7  1  0  0  0
  6 10  1  0  0  0
  6 12  2  0  0  0
  7 13  2  0  0  0
  8  9  1  0  0  0
  8 11  2  0  0  0
  9 16  2  0  0  0
  9 17  1  0  0  0
 10 11  1  0  0  0
 12 15  1  0  0  0
 13 14  1  0  0  0
 14 15  2  0  0  0
 16 18  1  0  0  0
 17 19  2  0  0  0
 18 20  2  0  0  0
 19 20  1  0  0  0
M  END
>  <CHROM.0>
59.80030108,66.29726923,178.02563900

>  <CHROM.1>
-2.03151463,-68.60936835,-172.05438771,-5.46133897,-50.25346037,-4.04580503
15.56515318,-1.76219998,0.03270037,-0.49179900

>  <Name>
5280443

>  <PUBCHEM_ATOM_DEF_STEREO_COUNT>
0

>  <PUBCHEM_ATOM_UDEF_STEREO_COUNT>
0

>  <PUBCHEM_BOND_DEF_STEREO_COUNT>
0

>  <PUBCHEM_BOND_UDEF_STEREO_COUNT>
0

>  <PUBCHEM_CACTVS_TAUTO_COUNT>
57

>  <PUBCHEM_COMPONENT_COUNT>
1

>  <PUBCHEM_COMPOUND_CID>
5280443

>  <PUBCHEM_CONFORMER_DIVERSEORDER>
1

>  <PUBCHEM_CONFORMER_ID>
005092BB00000001

>  <PUBCHEM_CONFORMER_RMSD>
0.6

>  <PUBCHEM_COORDINATE_TYPE>
2
5
10

>  <PUBCHEM_EFFECTIVE_ROTOR_COUNT>
1

>  <PUBCHEM_FEATURE_SELFOVERLAP>
40.625

>  <PUBCHEM_HEAVY_ATOM_COUNT>
20

>  <PUBCHEM_ISOTOPIC_ATOM_COUNT>
0

>  <PUBCHEM_MMFF94_ENERGY>
60.7436

>  <PUBCHEM_MMFF94_PARTIAL_CHARGES>
30
1 -0.16
10 0.47
11 -0.14
12 0.08
13 -0.15
14 0.08
15 -0.15
16 -0.15
17 -0.15
18 -0.15
19 -0.15
2 -0.53
20 0.08
21 0.15
22 0.15
23 0.15
24 0.15
25 0.15
26 0.15
27 0.15
28 0.45
29 0.45
3 -0.57
30 0.45
4 -0.53
5 -0.53
6 0.09
7 0.08
8 0.05
9 0.03

>  <PUBCHEM_PHARMACOPHORE_FEATURES>
8
1 1 acceptor
1 2 donor
1 3 acceptor
1 4 donor
1 5 donor
6 1 6 7 8 10 11 rings
6 6 7 12 13 14 15 rings
6 9 16 17 18 19 20 rings

>  <PUBCHEM_SHAPE_FINGERPRINT>
10014705 185 18335983090743610973
10319926 262 18339344337187947850
10411042 1 17833271196427205891
10493431 412 18339369544277550625
10498660 4 18336260146151624709
10608611 8 18342173405853837512
10646746 165 18410292501880224548
11315181 36 17967532415338923724
12107183 9 17973996255225508682
12173636 292 18409726227717107541
12236239 1 17458341966376888130
12390115 104 18270696268119625369
12403259 415 18202279234227041088
12500047 106 18411979165633848254
13073987 5 18334573538601782738
13140716 1 17974859676764465403
13544592 145 18269848531875060550
14508225 48 18124582335750861655
14790565 3 17908712730609502257
15042514 8 18192436496683379403
15196674 1 18411138009184468990
15375358 24 18272089392275024390
17844677 252 18338524131077601056
18186145 218 18201727210401115800
200 152 17060622204808618226
20510252 161 18342459253144016673
20645477 56 18410013234284757832
20645477 70 17203058396143606462
21033648 29 18271516554985427096
21065198 57 18411699920035301594
21236236 1 18412826893710328947
21267235 1 18337116777299593123
21279426 13 18269277859449011198
21421861 104 17750502976618702298
23402539 116 18412538829647092654
23402655 69 18131067100338114972
23557571 272 18342746247148492668
23559900 14 18271807861775124550
245318 6 16448986100328701468
283562 15 18410291424461079675
2916195 48 18342730849902058064
3004659 81 18335425613612532158
335352 9 18267022748231475478
350125 39 18410298038462750009
3545911 37 18342460348455732712
4028521 119 18341892965631935697
4214541 1 18411419514231212472
474 4 16879077545412114420
495365 180 17346021334593014002
5104073 3 18410011005465809410
542803 24 17530686524359763644
559249 180 18337386046670377618
633830 44 18199743644401676445
69090 78 18272086119177836790
77779 3 18412263930592437412
9709674 26 18342463655380539086

>  <PUBCHEM_SHAPE_MULTIPOLES>
382.24
10.96
2.41
0.66
9.09
0.24
0
-3.75
0.48
-2.84
-0.06
0.21
-0.01
0.71

>  <PUBCHEM_SHAPE_SELFOVERLAP>
856.39

>  <PUBCHEM_SHAPE_VOLUME>
201.3

>  <RI>
-1.1732e+09

>  <Rbt.Current_Directory>
/root/miniconda3/envs/rdock/share/rxdock-2013.1.1_148c5bd1-0/data/ligands/prepped_ligands/Apigenin

>  <Rbt.Executable>
rbdock/0.1.0

>  <Rbt.Library>
librxdock.so/0.1.0

>  <Rbt.Parameter_File>
/root/miniconda3/envs/rdock/share/rxdock-2013.1.1_148c5bd1-0/data/scripts/dock.prm

>  <Rbt.Receptor>
def.prm

>  <SCORE>
-15.5968

>  <SCORE.INTER>
-16.0411

>  <SCORE.INTER.CONST>
1

>  <SCORE.INTER.POLAR>
-1.62006

>  <SCORE.INTER.REPUL>
0.162106

>  <SCORE.INTER.ROT>
1

>  <SCORE.INTER.VDW>
-17.7434

>  <SCORE.INTER.norm>
-0.802053

>  <SCORE.INTRA>
1.45445

>  <SCORE.INTRA.DIHEDRAL>
3.07802

>  <SCORE.INTRA.DIHEDRAL.0>
1.23283

>  <SCORE.INTRA.POLAR>
0

>  <SCORE.INTRA.POLAR.0>
0

>  <SCORE.INTRA.REPUL>
0

>  <SCORE.INTRA.REPUL.0>
0

>  <SCORE.INTRA.VDW>
-0.084564

>  <SCORE.INTRA.VDW.0>
1.06701

>  <SCORE.INTRA.norm>
0.0727223

>  <SCORE.RESTR>
0

>  <SCORE.RESTR.CAVITY>
0

>  <SCORE.RESTR.norm>
0

>  <SCORE.SYSTEM>
-1.01014

>  <SCORE.SYSTEM.CONST>
0

>  <SCORE.SYSTEM.DIHEDRAL>
0.205589

>  <SCORE.SYSTEM.VDW>
-1.11294

>  <SCORE.SYSTEM.norm>
-0.0505072

>  <SCORE.heavy>
20

>  <SCORE.norm>
-0.779838

$$$$
5280443
  RxDock  02242101073D
librxdock.so/0.1.0
 23 25  0  0  0  0  0  0  0  0999 V2000
  -46.7665   -0.4625   14.3926 O   0  0  0  0  0  0
  -51.4784    0.0428   13.3732 O   0  0  0  0  0  0
  -50.6135   -1.1601   15.5387 O   0  0  0  0  0  0
  -48.1637    1.7355   10.4231 O   0  0  0  0  0  0
  -42.5344   -2.7259   18.5101 O   0  0  0  0  0  0
  -49.1417   -0.2390   13.9358 C   0  0  0  0  0  0
  -47.8037   -0.0348   13.6029 C   0  0  0  0  0  0
  -47.0653   -1.1197   15.5766 C   0  0  0  0  0  0
  -45.8769   -1.5411   16.3451 C   0  0  0  0  0  0
  -49.4623   -0.9437   15.1863 C   0  0  0  0  0  0
  -48.3115   -1.3816   16.0019 C   0  0  0  0  0  0
  -50.1571    0.2181   13.0927 C   0  0  0  0  0  0
  -47.4726    0.6292   12.4216 C   0  0  0  0  0  0
  -48.4839    1.0875   11.5768 C   0  0  0  0  0  0
  -49.8231    0.8823   11.9118 C   0  0  0  0  0  0
  -44.8196   -0.6506   16.5466 C   0  0  0  0  0  0
  -45.8053   -2.8316   16.8749 C   0  0  0  0  0  0
  -43.6973   -1.0484   17.2731 C   0  0  0  0  0  0
  -44.6831   -3.2294   17.6017 C   0  0  0  0  0  0
  -43.6290   -2.3378   17.8007 C   0  0  0  0  0  0
  -51.6250   -0.8161   13.7980 H   0  0  0  0  0  0
  -47.2273    1.9959   10.4569 H   0  0  0  0  0  0
  -41.9329   -1.9670   18.6014 H   0  0  0  0  0  0
  1  7  1  0  0  0
  1  8  1  0  0  0
  2 12  1  0  0  0
  2 21  1  0  0  0
  3 10  2  0  0  0
  4 14  1  0  0  0
  4 22  1  0  0  0
  5 20  1  0  0  0
  5 23  1  0  0  0
  6  7  1  0  0  0
  6 10  1  0  0  0
  6 12  2  0  0  0
  7 13  2  0  0  0
  8  9  1  0  0  0
  8 11  2  0  0  0
  9 16  2  0  0  0
  9 17  1  0  0  0
 10 11  1  0  0  0
 12 15  1  0  0  0
 13 14  1  0  0  0
 14 15  2  0  0  0
 16 18  1  0  0  0
 17 19  2  0  0  0
 18 20  2  0  0  0
 19 20  1  0  0  0
M  END
>  <CHROM.0>
178.22049819,63.90390947,-58.97383348

>  <CHROM.1>
-36.55309672,-14.69090422,3.82361243,46.29190556,-47.30738283,-0.74093679
14.87527551,-2.33534276,0.06492000,2.13307668

>  <Name>
5280443

>  <PUBCHEM_ATOM_DEF_STEREO_COUNT>
0

>  <PUBCHEM_ATOM_UDEF_STEREO_COUNT>
0

>  <PUBCHEM_BOND_DEF_STEREO_COUNT>
0

>  <PUBCHEM_BOND_UDEF_STEREO_COUNT>
0

>  <PUBCHEM_CACTVS_TAUTO_COUNT>
57

>  <PUBCHEM_COMPONENT_COUNT>
1

>  <PUBCHEM_COMPOUND_CID>
5280443

>  <PUBCHEM_CONFORMER_DIVERSEORDER>
1

>  <PUBCHEM_CONFORMER_ID>
005092BB00000001

>  <PUBCHEM_CONFORMER_RMSD>
0.6

>  <PUBCHEM_COORDINATE_TYPE>
2
5
10

>  <PUBCHEM_EFFECTIVE_ROTOR_COUNT>
1

>  <PUBCHEM_FEATURE_SELFOVERLAP>
40.625

>  <PUBCHEM_HEAVY_ATOM_COUNT>
20

>  <PUBCHEM_ISOTOPIC_ATOM_COUNT>
0

>  <PUBCHEM_MMFF94_ENERGY>
60.7436

>  <PUBCHEM_MMFF94_PARTIAL_CHARGES>
30
1 -0.16
10 0.47
11 -0.14
12 0.08
13 -0.15
14 0.08
15 -0.15
16 -0.15
17 -0.15
18 -0.15
19 -0.15
2 -0.53
20 0.08
21 0.15
22 0.15
23 0.15
24 0.15
25 0.15
26 0.15
27 0.15
28 0.45
29 0.45
3 -0.57
30 0.45
4 -0.53
5 -0.53
6 0.09
7 0.08
8 0.05
9 0.03

>  <PUBCHEM_PHARMACOPHORE_FEATURES>
8
1 1 acceptor
1 2 donor
1 3 acceptor
1 4 donor
1 5 donor
6 1 6 7 8 10 11 rings
6 6 7 12 13 14 15 rings
6 9 16 17 18 19 20 rings

>  <PUBCHEM_SHAPE_FINGERPRINT>
10014705 185 18335983090743610973
10319926 262 18339344337187947850
10411042 1 17833271196427205891
10493431 412 18339369544277550625
10498660 4 18336260146151624709
10608611 8 18342173405853837512
10646746 165 18410292501880224548
11315181 36 17967532415338923724
12107183 9 17973996255225508682
12173636 292 18409726227717107541
12236239 1 17458341966376888130
12390115 104 18270696268119625369
12403259 415 18202279234227041088
12500047 106 18411979165633848254
13073987 5 18334573538601782738
13140716 1 17974859676764465403
13544592 145 18269848531875060550
14508225 48 18124582335750861655
14790565 3 17908712730609502257
15042514 8 18192436496683379403
15196674 1 18411138009184468990
15375358 24 18272089392275024390
17844677 252 18338524131077601056
18186145 218 18201727210401115800
200 152 17060622204808618226
20510252 161 18342459253144016673
20645477 56 18410013234284757832
20645477 70 17203058396143606462
21033648 29 18271516554985427096
21065198 57 18411699920035301594
21236236 1 18412826893710328947
21267235 1 18337116777299593123
21279426 13 18269277859449011198
21421861 104 17750502976618702298
23402539 116 18412538829647092654
23402655 69 18131067100338114972
23557571 272 18342746247148492668
23559900 14 18271807861775124550
245318 6 16448986100328701468
283562 15 18410291424461079675
2916195 48 18342730849902058064
3004659 81 18335425613612532158
335352 9 18267022748231475478
350125 39 18410298038462750009
3545911 37 18342460348455732712
4028521 119 18341892965631935697
4214541 1 18411419514231212472
474 4 16879077545412114420
495365 180 17346021334593014002
5104073 3 18410011005465809410
542803 24 17530686524359763644
559249 180 18337386046670377618
633830 44 18199743644401676445
69090 78 18272086119177836790
77779 3 18412263930592437412
9709674 26 18342463655380539086

>  <PUBCHEM_SHAPE_MULTIPOLES>
382.24
10.96
2.41
0.66
9.09
0.24
0
-3.75
0.48
-2.84
-0.06
0.21
-0.01
0.71

>  <PUBCHEM_SHAPE_SELFOVERLAP>
856.39

>  <PUBCHEM_SHAPE_VOLUME>
201.3

>  <RI>
-1.1732e+09

>  <Rbt.Current_Directory>
/root/miniconda3/envs/rdock/share/rxdock-2013.1.1_148c5bd1-0/data/ligands/prepped_ligands/Apigenin

>  <Rbt.Executable>
rbdock/0.1.0

>  <Rbt.Library>
librxdock.so/0.1.0

>  <Rbt.Parameter_File>
/root/miniconda3/envs/rdock/share/rxdock-2013.1.1_148c5bd1-0/data/scripts/dock.prm

>  <Rbt.Receptor>
def.prm

>  <SCORE>
2.32277

>  <SCORE.INTER>
2.06124

>  <SCORE.INTER.CONST>
1

>  <SCORE.INTER.POLAR>
0

>  <SCORE.INTER.REPUL>
0

>  <SCORE.INTER.ROT>
1

>  <SCORE.INTER.VDW>
-4.33876

>  <SCORE.INTER.norm>
0.103062

>  <SCORE.INTRA>
0.902715

>  <SCORE.INTRA.DIHEDRAL>
3.26588

>  <SCORE.INTRA.DIHEDRAL.0>
1.23283

>  <SCORE.INTRA.POLAR>
0

>  <SCORE.INTRA.POLAR.0>
0

>  <SCORE.INTRA.REPUL>
0

>  <SCORE.INTRA.REPUL.0>
0

>  <SCORE.INTRA.VDW>
-0.730225

>  <SCORE.INTRA.VDW.0>
1.06701

>  <SCORE.INTRA.norm>
0.0451357

>  <SCORE.RESTR>
0.367704

>  <SCORE.RESTR.CAVITY>
0.367704

>  <SCORE.RESTR.norm>
0.0183852

>  <SCORE.SYSTEM>
-1.00888

>  <SCORE.SYSTEM.CONST>
0

>  <SCORE.SYSTEM.DIHEDRAL>
0.08603

>  <SCORE.SYSTEM.POLAR>
-0.00334958

>  <SCORE.SYSTEM.VDW>
-1.04051

>  <SCORE.SYSTEM.norm>
-0.0504441

>  <SCORE.heavy>
20

>  <SCORE.norm>
0.116139

$$$$
5280443
  RxDock  02242101073D
librxdock.so/0.1.0
 23 25  0  0  0  0  0  0  0  0999 V2000
  -51.4895   -3.2549   14.7768 O   0  0  0  0  0  0
  -46.7869   -2.0847   14.8864 O   0  0  0  0  0  0
  -47.7198   -4.3186   15.8981 O   0  0  0  0  0  0
  -49.9669    0.8344   12.9061 O   0  0  0  0  0  0
  -55.8287   -7.5735   16.3597 O   0  0  0  0  0  0
  -49.1209   -2.7232   14.8610 C   0  0  0  0  0  0
  -50.4346   -2.4205   14.5068 C   0  0  0  0  0  0
  -51.2339   -4.4546   15.4237 C   0  0  0  0  0  0
  -52.4389   -5.2719   15.6698 C   0  0  0  0  0  0
  -48.8473   -3.9906   15.5554 C   0  0  0  0  0  0
  -50.0154   -4.8546   15.8207 C   0  0  0  0  0  0
  -48.0857   -1.8349   14.5611 C   0  0  0  0  0  0
  -50.7213   -1.2241   13.8492 C   0  0  0  0  0  0
  -49.6901   -0.3341   13.5475 C   0  0  0  0  0  0
  -48.3753   -0.6391   13.9028 C   0  0  0  0  0  0
  -53.6445   -4.9515   15.0409 C   0  0  0  0  0  0
  -52.3782   -6.3698   16.5314 C   0  0  0  0  0  0
  -54.7826   -5.7240   15.2728 C   0  0  0  0  0  0
  -53.5163   -7.1424   16.7631 C   0  0  0  0  0  0
  -54.7185   -6.8194   16.1339 C   0  0  0  0  0  0
  -46.2064   -1.9053   14.1311 H   0  0  0  0  0  0
  -49.1674    1.3881   12.9000 H   0  0  0  0  0  0
  -56.5369   -7.2783   15.7620 H   0  0  0  0  0  0
  1  7  1  0  0  0
  1  8  1  0  0  0
  2 12  1  0  0  0
  2 21  1  0  0  0
  3 10  2  0  0  0
  4 14  1  0  0  0
  4 22  1  0  0  0
  5 20  1  0  0  0
  5 23  1  0  0  0
  6  7  1  0  0  0
  6 10  1  0  0  0
  6 12  2  0  0  0
  7 13  2  0  0  0
  8  9  1  0  0  0
  8 11  2  0  0  0
  9 16  2  0  0  0
  9 17  1  0  0  0
 10 11  1  0  0  0
 12 15  1  0  0  0
 13 14  1  0  0  0
 14 15  2  0  0  0
 16 18  1  0  0  0
 17 19  2  0  0  0
 18 20  2  0  0  0
 19 20  1  0  0  0
M  END
>  <CHROM.0>
-60.42677700,-47.42264475,179.49791304

>  <CHROM.1>
133.18336131,171.30306977,7.00789443,12.49678109,-50.96348515,-3.72652250
15.09811592,0.77684584,-0.14840473,-0.49301016

>  <Name>
5280443

>  <PUBCHEM_ATOM_DEF_STEREO_COUNT>
0

>  <PUBCHEM_ATOM_UDEF_STEREO_COUNT>
0

>  <PUBCHEM_BOND_DEF_STEREO_COUNT>
0

>  <PUBCHEM_BOND_UDEF_STEREO_COUNT>
0

>  <PUBCHEM_CACTVS_TAUTO_COUNT>
57

>  <PUBCHEM_COMPONENT_COUNT>
1

>  <PUBCHEM_COMPOUND_CID>
5280443

>  <PUBCHEM_CONFORMER_DIVERSEORDER>
1

>  <PUBCHEM_CONFORMER_ID>
005092BB00000001

>  <PUBCHEM_CONFORMER_RMSD>
0.6

>  <PUBCHEM_COORDINATE_TYPE>
2
5
10

>  <PUBCHEM_EFFECTIVE_ROTOR_COUNT>
1

>  <PUBCHEM_FEATURE_SELFOVERLAP>
40.625

>  <PUBCHEM_HEAVY_ATOM_COUNT>
20

>  <PUBCHEM_ISOTOPIC_ATOM_COUNT>
0

>  <PUBCHEM_MMFF94_ENERGY>
60.7436

>  <PUBCHEM_MMFF94_PARTIAL_CHARGES>
30
1 -0.16
10 0.47
11 -0.14
12 0.08
13 -0.15
14 0.08
15 -0.15
16 -0.15
17 -0.15
18 -0.15
19 -0.15
2 -0.53
20 0.08
21 0.15
22 0.15
23 0.15
24 0.15
25 0.15
26 0.15
27 0.15
28 0.45
29 0.45
3 -0.57
30 0.45
4 -0.53
5 -0.53
6 0.09
7 0.08
8 0.05
9 0.03

>  <PUBCHEM_PHARMACOPHORE_FEATURES>
8
1 1 acceptor
1 2 donor
1 3 acceptor
1 4 donor
1 5 donor
6 1 6 7 8 10 11 rings
6 6 7 12 13 14 15 rings
6 9 16 17 18 19 20 rings

>  <PUBCHEM_SHAPE_FINGERPRINT>
10014705 185 18335983090743610973
10319926 262 18339344337187947850
10411042 1 17833271196427205891
10493431 412 18339369544277550625
10498660 4 18336260146151624709
10608611 8 18342173405853837512
10646746 165 18410292501880224548
11315181 36 17967532415338923724
12107183 9 17973996255225508682
12173636 292 18409726227717107541
12236239 1 17458341966376888130
12390115 104 18270696268119625369
12403259 415 18202279234227041088
12500047 106 18411979165633848254
13073987 5 18334573538601782738
13140716 1 17974859676764465403
13544592 145 18269848531875060550
14508225 48 18124582335750861655
14790565 3 17908712730609502257
15042514 8 18192436496683379403
15196674 1 18411138009184468990
15375358 24 18272089392275024390
17844677 252 18338524131077601056
18186145 218 18201727210401115800
200 152 17060622204808618226
20510252 161 18342459253144016673
20645477 56 18410013234284757832
20645477 70 17203058396143606462
21033648 29 18271516554985427096
21065198 57 18411699920035301594
21236236 1 18412826893710328947
21267235 1 18337116777299593123
21279426 13 18269277859449011198
21421861 104 17750502976618702298
23402539 116 18412538829647092654
23402655 69 18131067100338114972
23557571 272 18342746247148492668
23559900 14 18271807861775124550
245318 6 16448986100328701468
283562 15 18410291424461079675
2916195 48 18342730849902058064
3004659 81 18335425613612532158
335352 9 18267022748231475478
350125 39 18410298038462750009
3545911 37 18342460348455732712
4028521 119 18341892965631935697
4214541 1 18411419514231212472
474 4 16879077545412114420
495365 180 17346021334593014002
5104073 3 18410011005465809410
542803 24 17530686524359763644
559249 180 18337386046670377618
633830 44 18199743644401676445
69090 78 18272086119177836790
77779 3 18412263930592437412
9709674 26 18342463655380539086

>  <PUBCHEM_SHAPE_MULTIPOLES>
382.24
10.96
2.41
0.66
9.09
0.24
0
-3.75
0.48
-2.84
-0.06
0.21
-0.01
0.71

>  <PUBCHEM_SHAPE_SELFOVERLAP>
856.39

>  <PUBCHEM_SHAPE_VOLUME>
201.3

>  <RI>
-1.1732e+09

>  <Rbt.Current_Directory>
/root/miniconda3/envs/rdock/share/rxdock-2013.1.1_148c5bd1-0/data/ligands/prepped_ligands/Apigenin

>  <Rbt.Executable>
rbdock/0.1.0

>  <Rbt.Library>
librxdock.so/0.1.0

>  <Rbt.Parameter_File>
/root/miniconda3/envs/rdock/share/rxdock-2013.1.1_148c5bd1-0/data/scripts/dock.prm

>  <Rbt.Receptor>
def.prm

>  <SCORE>
-14.6207

>  <SCORE.INTER>
-15.0686

>  <SCORE.INTER.CONST>
1

>  <SCORE.INTER.POLAR>
-1.70111

>  <SCORE.INTER.REPUL>
0.207776

>  <SCORE.INTER.ROT>
1

>  <SCORE.INTER.VDW>
-16.7237

>  <SCORE.INTER.norm>
-0.753431

>  <SCORE.INTRA>
0.993512

>  <SCORE.INTRA.DIHEDRAL>
1.70874

>  <SCORE.INTRA.DIHEDRAL.0>
1.23283

>  <SCORE.INTRA.POLAR>
0

>  <SCORE.INTRA.POLAR.0>
0

>  <SCORE.INTRA.REPUL>
0

>  <SCORE.INTRA.REPUL.0>
0

>  <SCORE.INTRA.VDW>
0.139141

>  <SCORE.INTRA.VDW.0>
1.06701

>  <SCORE.INTRA.norm>
0.0496756

>  <SCORE.RESTR>
0

>  <SCORE.RESTR.CAVITY>
0

>  <SCORE.RESTR.norm>
0

>  <SCORE.SYSTEM>
-0.545626

>  <SCORE.SYSTEM.CONST>
0

>  <SCORE.SYSTEM.DIHEDRAL>
0.754825

>  <SCORE.SYSTEM.POLAR>
-0.000705607

>  <SCORE.SYSTEM.VDW>
-0.920639

>  <SCORE.SYSTEM.norm>
-0.0272813

>  <SCORE.heavy>
20

>  <SCORE.norm>
-0.731037

$$$$
5280443
  RxDock  02242101073D
librxdock.so/0.1.0
 23 25  0  0  0  0  0  0  0  0999 V2000
  -51.5457   -3.9844   15.1784 O   0  0  0  0  0  0
  -51.8278   -8.1757   17.5970 O   0  0  0  0  0  0
  -49.5501   -6.9719   17.0999 O   0  0  0  0  0  0
  -55.7502   -6.0361   15.9870 O   0  0  0  0  0  0
  -47.6840    0.4767   12.9049 O   0  0  0  0  0  0
  -51.6242   -6.0844   16.3966 C   0  0  0  0  0  0
  -52.2434   -5.0314   15.7255 C   0  0  0  0  0  0
  -50.1651   -3.9719   15.3069 C   0  0  0  0  0  0
  -49.5147   -2.8050   14.6777 C   0  0  0  0  0  0
  -50.1591   -6.0791   16.5269 C   0  0  0  0  0  0
  -49.4546   -4.9297   15.9236 C   0  0  0  0  0  0
  -52.3854   -7.1251   16.9334 C   0  0  0  0  0  0
  -53.6314   -5.0133   15.5865 C   0  0  0  0  0  0
  -54.3955   -6.0508   16.1214 C   0  0  0  0  0  0
  -53.7737   -7.1043   16.7933 C   0  0  0  0  0  0
  -48.1284   -2.6492   14.7531 C   0  0  0  0  0  0
  -50.2825   -1.8526   14.0035 C   0  0  0  0  0  0
  -47.5139   -1.5473   14.1582 C   0  0  0  0  0  0
  -49.6679   -0.7508   13.4083 C   0  0  0  0  0  0
  -48.2835   -0.5981   13.4859 C   0  0  0  0  0  0
  -50.9164   -8.3205   17.3002 H   0  0  0  0  0  0
  -56.0751   -6.9525   15.9657 H   0  0  0  0  0  0
  -46.7601    0.2504   12.7018 H   0  0  0  0  0  0
  1  7  1  0  0  0
  1  8  1  0  0  0
  2 12  1  0  0  0
  2 21  1  0  0  0
  3 10  2  0  0  0
  4 14  1  0  0  0
  4 22  1  0  0  0
  5 20  1  0  0  0
  5 23  1  0  0  0
  6  7  1  0  0  0
  6 10  1  0  0  0
  6 12  2  0  0  0
  7 13  2  0  0  0
  8  9  1  0  0  0
  8 11  2  0  0  0
  9 16  2  0  0  0
  9 17  1  0  0  0
 10 11  1  0  0  0
 12 15  1  0  0  0
 13 14  1  0  0  0
 14 15  2  0  0  0
 16 18  1  0  0  0
 17 19  2  0  0  0
 18 20  2  0  0  0
 19 20  1  0  0  0
M  END
>  <CHROM.0>
-68.24917511,-64.45865182,174.57825904

>  <CHROM.1>
-26.17526182,150.50198666,24.77789596,178.72262776,-50.89836495,-4.34435339
15.43862015,2.20774199,0.08241195,2.61005498

>  <Name>
5280443

>  <PUBCHEM_ATOM_DEF_STEREO_COUNT>
0

>  <PUBCHEM_ATOM_UDEF_STEREO_COUNT>
0

>  <PUBCHEM_BOND_DEF_STEREO_COUNT>
0

>  <PUBCHEM_BOND_UDEF_STEREO_COUNT>
0

>  <PUBCHEM_CACTVS_TAUTO_COUNT>
57

>  <PUBCHEM_COMPONENT_COUNT>
1

>  <PUBCHEM_COMPOUND_CID>
5280443

>  <PUBCHEM_CONFORMER_DIVERSEORDER>
1

>  <PUBCHEM_CONFORMER_ID>
005092BB00000001

>  <PUBCHEM_CONFORMER_RMSD>
0.6

>  <PUBCHEM_COORDINATE_TYPE>
2
5
10

>  <PUBCHEM_EFFECTIVE_ROTOR_COUNT>
1

>  <PUBCHEM_FEATURE_SELFOVERLAP>
40.625

>  <PUBCHEM_HEAVY_ATOM_COUNT>
20

>  <PUBCHEM_ISOTOPIC_ATOM_COUNT>
0

>  <PUBCHEM_MMFF94_ENERGY>
60.7436

>  <PUBCHEM_MMFF94_PARTIAL_CHARGES>
30
1 -0.16
10 0.47
11 -0.14
12 0.08
13 -0.15
14 0.08
15 -0.15
16 -0.15
17 -0.15
18 -0.15
19 -0.15
2 -0.53
20 0.08
21 0.15
22 0.15
23 0.15
24 0.15
25 0.15
26 0.15
27 0.15
28 0.45
29 0.45
3 -0.57
30 0.45
4 -0.53
5 -0.53
6 0.09
7 0.08
8 0.05
9 0.03

>  <PUBCHEM_PHARMACOPHORE_FEATURES>
8
1 1 acceptor
1 2 donor
1 3 acceptor
1 4 donor
1 5 donor
6 1 6 7 8 10 11 rings
6 6 7 12 13 14 15 rings
6 9 16 17 18 19 20 rings

>  <PUBCHEM_SHAPE_FINGERPRINT>
10014705 185 18335983090743610973
10319926 262 18339344337187947850
10411042 1 17833271196427205891
10493431 412 18339369544277550625
10498660 4 18336260146151624709
10608611 8 18342173405853837512
10646746 165 18410292501880224548
11315181 36 17967532415338923724
12107183 9 17973996255225508682
12173636 292 18409726227717107541
12236239 1 17458341966376888130
12390115 104 18270696268119625369
12403259 415 18202279234227041088
12500047 106 18411979165633848254
13073987 5 18334573538601782738
13140716 1 17974859676764465403
13544592 145 18269848531875060550
14508225 48 18124582335750861655
14790565 3 17908712730609502257
15042514 8 18192436496683379403
15196674 1 18411138009184468990
15375358 24 18272089392275024390
17844677 252 18338524131077601056
18186145 218 18201727210401115800
200 152 17060622204808618226
20510252 161 18342459253144016673
20645477 56 18410013234284757832
20645477 70 17203058396143606462
21033648 29 18271516554985427096
21065198 57 18411699920035301594
21236236 1 18412826893710328947
21267235 1 18337116777299593123
21279426 13 18269277859449011198
21421861 104 17750502976618702298
23402539 116 18412538829647092654
23402655 69 18131067100338114972
23557571 272 18342746247148492668
23559900 14 18271807861775124550
245318 6 16448986100328701468
283562 15 18410291424461079675
2916195 48 18342730849902058064
3004659 81 18335425613612532158
335352 9 18267022748231475478
350125 39 18410298038462750009
3545911 37 18342460348455732712
4028521 119 18341892965631935697
4214541 1 18411419514231212472
474 4 16879077545412114420
495365 180 17346021334593014002
5104073 3 18410011005465809410
542803 24 17530686524359763644
559249 180 18337386046670377618
633830 44 18199743644401676445
69090 78 18272086119177836790
77779 3 18412263930592437412
9709674 26 18342463655380539086

>  <PUBCHEM_SHAPE_MULTIPOLES>
382.24
10.96
2.41
0.66
9.09
0.24
0
-3.75
0.48
-2.84
-0.06
0.21
-0.01
0.71

>  <PUBCHEM_SHAPE_SELFOVERLAP>
856.39

>  <PUBCHEM_SHAPE_VOLUME>
201.3

>  <RI>
-1.1732e+09

>  <Rbt.Current_Directory>
/root/miniconda3/envs/rdock/share/rxdock-2013.1.1_148c5bd1-0/data/ligands/prepped_ligands/Apigenin

>  <Rbt.Executable>
rbdock/0.1.0

>  <Rbt.Library>
librxdock.so/0.1.0

>  <Rbt.Parameter_File>
/root/miniconda3/envs/rdock/share/rxdock-2013.1.1_148c5bd1-0/data/scripts/dock.prm

>  <Rbt.Receptor>
def.prm

>  <SCORE>
-17.6339

>  <SCORE.INTER>
-17.4577

>  <SCORE.INTER.CONST>
1

>  <SCORE.INTER.POLAR>
-2.24833

>  <SCORE.INTER.REPUL>
0.0858503

>  <SCORE.INTER.ROT>
1

>  <SCORE.INTER.VDW>
-16.6426

>  <SCORE.INTER.norm>
-0.872885

>  <SCORE.INTRA>
0.76371

>  <SCORE.INTRA.DIHEDRAL>
1.71356

>  <SCORE.INTRA.DIHEDRAL.0>
1.23283

>  <SCORE.INTRA.POLAR>
0

>  <SCORE.INTRA.POLAR.0>
0

>  <SCORE.INTRA.REPUL>
0

>  <SCORE.INTRA.REPUL.0>
0

>  <SCORE.INTRA.VDW>
-0.0930689

>  <SCORE.INTRA.VDW.0>
1.06701

>  <SCORE.INTRA.norm>
0.0381855

>  <SCORE.RESTR>
0

>  <SCORE.RESTR.CAVITY>
0

>  <SCORE.RESTR.norm>
0

>  <SCORE.SYSTEM>
-0.939878

>  <SCORE.SYSTEM.CONST>
0

>  <SCORE.SYSTEM.DIHEDRAL>
0.345472

>  <SCORE.SYSTEM.VDW>
-1.11261

>  <SCORE.SYSTEM.norm>
-0.0469939

>  <SCORE.heavy>
20

>  <SCORE.norm>
-0.881693

$$$$
5280443
  RxDock  02242101073D
librxdock.so/0.1.0
 23 25  0  0  0  0  0  0  0  0999 V2000
  -50.1092   -3.2965   15.8479 O   0  0  0  0  0  0
  -47.5827    0.1251   13.5228 O   0  0  0  0  0  0
  -50.1147   -0.3545   13.0293 O   0  0  0  0  0  0
  -45.5284   -2.5622   16.8565 O   0  0  0  0  0  0
  -55.7285   -6.1363   16.4366 O   0  0  0  0  0  0
  -48.8951   -1.5670   14.6499 C   0  0  0  0  0  0
  -48.9623   -2.5861   15.5985 C   0  0  0  0  0  0
  -51.2518   -2.9796   15.1289 C   0  0  0  0  0  0
  -52.4252   -3.8080   15.4717 C   0  0  0  0  0  0
  -50.1027   -1.2343   13.8790 C   0  0  0  0  0  0
  -51.3114   -2.0256   14.1862 C   0  0  0  0  0  0
  -47.6993   -0.8773   14.4375 C   0  0  0  0  0  0
  -47.8308   -2.9225   16.3418 C   0  0  0  0  0  0
  -46.6344   -2.2359   16.1328 C   0  0  0  0  0  0
  -46.5690   -1.2156   15.1828 C   0  0  0  0  0  0
  -52.7373   -4.0630   16.8094 C   0  0  0  0  0  0
  -53.2288   -4.3393   14.4602 C   0  0  0  0  0  0
  -53.8461   -4.8449   17.1333 C   0  0  0  0  0  0
  -54.3377   -5.1210   14.7841 C   0  0  0  0  0  0
  -54.6463   -5.3740   16.1207 C   0  0  0  0  0  0
  -46.8668   -0.0662   12.8978 H   0  0  0  0  0  0
  -45.7077   -3.3767   17.3569 H   0  0  0  0  0  0
  -56.2252   -6.3307   15.6232 H   0  0  0  0  0  0
  1  7  1  0  0  0
  1  8  1  0  0  0
  2 12  1  0  0  0
  2 21  1  0  0  0
  3 10  2  0  0  0
  4 14  1  0  0  0
  4 22  1  0  0  0
  5 20  1  0  0  0
  5 23  1  0  0  0
  6  7  1  0  0  0
  6 10  1  0  0  0
  6 12  2  0  0  0
  7 13  2  0  0  0
  8  9  1  0  0  0
  8 11  2  0  0  0
  9 16  2  0  0  0
  9 17  1  0  0  0
 10 11  1  0  0  0
 12 15  1  0  0  0
 13 14  1  0  0  0
 14 15  2  0  0  0
 16 18  1  0  0  0
 17 19  2  0  0  0
 18 20  2  0  0  0
 19 20  1  0  0  0
M  END
>  <CHROM.0>
-64.26807988,-52.61255258,178.14800087

>  <CHROM.1>
-124.23585467,9.16169889,173.40065067,45.07847996,-50.44255454,-2.86034655
15.29514155,-0.40686181,0.29547390,2.31288793

>  <Name>
5280443

>  <PUBCHEM_ATOM_DEF_STEREO_COUNT>
0

>  <PUBCHEM_ATOM_UDEF_STEREO_COUNT>
0

>  <PUBCHEM_BOND_DEF_STEREO_COUNT>
0

>  <PUBCHEM_BOND_UDEF_STEREO_COUNT>
0

>  <PUBCHEM_CACTVS_TAUTO_COUNT>
57

>  <PUBCHEM_COMPONENT_COUNT>
1

>  <PUBCHEM_COMPOUND_CID>
5280443

>  <PUBCHEM_CONFORMER_DIVERSEORDER>
1

>  <PUBCHEM_CONFORMER_ID>
005092BB00000001

>  <PUBCHEM_CONFORMER_RMSD>
0.6

>  <PUBCHEM_COORDINATE_TYPE>
2
5
10

>  <PUBCHEM_EFFECTIVE_ROTOR_COUNT>
1

>  <PUBCHEM_FEATURE_SELFOVERLAP>
40.625

>  <PUBCHEM_HEAVY_ATOM_COUNT>
20

>  <PUBCHEM_ISOTOPIC_ATOM_COUNT>
0

>  <PUBCHEM_MMFF94_ENERGY>
60.7436

>  <PUBCHEM_MMFF94_PARTIAL_CHARGES>
30
1 -0.16
10 0.47
11 -0.14
12 0.08
13 -0.15
14 0.08
15 -0.15
16 -0.15
17 -0.15
18 -0.15
19 -0.15
2 -0.53
20 0.08
21 0.15
22 0.15
23 0.15
24 0.15
25 0.15
26 0.15
27 0.15
28 0.45
29 0.45
3 -0.57
30 0.45
4 -0.53
5 -0.53
6 0.09
7 0.08
8 0.05
9 0.03

>  <PUBCHEM_PHARMACOPHORE_FEATURES>
8
1 1 acceptor
1 2 donor
1 3 acceptor
1 4 donor
1 5 donor
6 1 6 7 8 10 11 rings
6 6 7 12 13 14 15 rings
6 9 16 17 18 19 20 rings

>  <PUBCHEM_SHAPE_FINGERPRINT>
10014705 185 18335983090743610973
10319926 262 18339344337187947850
10411042 1 17833271196427205891
10493431 412 18339369544277550625
10498660 4 18336260146151624709
10608611 8 18342173405853837512
10646746 165 18410292501880224548
11315181 36 17967532415338923724
12107183 9 17973996255225508682
12173636 292 18409726227717107541
12236239 1 17458341966376888130
12390115 104 18270696268119625369
12403259 415 18202279234227041088
12500047 106 18411979165633848254
13073987 5 18334573538601782738
13140716 1 17974859676764465403
13544592 145 18269848531875060550
14508225 48 18124582335750861655
14790565 3 17908712730609502257
15042514 8 18192436496683379403
15196674 1 18411138009184468990
15375358 24 18272089392275024390
17844677 252 18338524131077601056
18186145 218 18201727210401115800
200 152 17060622204808618226
20510252 161 18342459253144016673
20645477 56 18410013234284757832
20645477 70 17203058396143606462
21033648 29 18271516554985427096
21065198 57 18411699920035301594
21236236 1 18412826893710328947
21267235 1 18337116777299593123
21279426 13 18269277859449011198
21421861 104 17750502976618702298
23402539 116 18412538829647092654
23402655 69 18131067100338114972
23557571 272 18342746247148492668
23559900 14 18271807861775124550
245318 6 16448986100328701468
283562 15 18410291424461079675
2916195 48 18342730849902058064
3004659 81 18335425613612532158
335352 9 18267022748231475478
350125 39 18410298038462750009
3545911 37 18342460348455732712
4028521 119 18341892965631935697
4214541 1 18411419514231212472
474 4 16879077545412114420
495365 180 17346021334593014002
5104073 3 18410011005465809410
542803 24 17530686524359763644
559249 180 18337386046670377618
633830 44 18199743644401676445
69090 78 18272086119177836790
77779 3 18412263930592437412
9709674 26 18342463655380539086

>  <PUBCHEM_SHAPE_MULTIPOLES>
382.24
10.96
2.41
0.66
9.09
0.24
0
-3.75
0.48
-2.84
-0.06
0.21
-0.01
0.71

>  <PUBCHEM_SHAPE_SELFOVERLAP>
856.39

>  <PUBCHEM_SHAPE_VOLUME>
201.3

>  <RI>
-1.1732e+09

>  <Rbt.Current_Directory>
/root/miniconda3/envs/rdock/share/rxdock-2013.1.1_148c5bd1-0/data/ligands/prepped_ligands/Apigenin

>  <Rbt.Executable>
rbdock/0.1.0

>  <Rbt.Library>
librxdock.so/0.1.0

>  <Rbt.Parameter_File>
/root/miniconda3/envs/rdock/share/rxdock-2013.1.1_148c5bd1-0/data/scripts/dock.prm

>  <Rbt.Receptor>
def.prm

>  <SCORE>
-18.1843

>  <SCORE.INTER>
-19.0108

>  <SCORE.INTER.CONST>
1

>  <SCORE.INTER.POLAR>
-2.76259

>  <SCORE.INTER.REPUL>
0.00306222

>  <SCORE.INTER.ROT>
1

>  <SCORE.INTER.VDW>
-16.0332

>  <SCORE.INTER.norm>
-0.950538

>  <SCORE.INTRA>
1.66634

>  <SCORE.INTRA.DIHEDRAL>
4.59637

>  <SCORE.INTRA.DIHEDRAL.0>
1.23283

>  <SCORE.INTRA.POLAR>
0

>  <SCORE.INTRA.POLAR.0>
0

>  <SCORE.INTRA.REPUL>
0

>  <SCORE.INTRA.REPUL.0>
0

>  <SCORE.INTRA.VDW>
-0.631842

>  <SCORE.INTRA.VDW.0>
1.06701

>  <SCORE.INTRA.norm>
0.0833171

>  <SCORE.RESTR>
0

>  <SCORE.RESTR.CAVITY>
0

>  <SCORE.RESTR.norm>
0

>  <SCORE.SYSTEM>
-0.839852

>  <SCORE.SYSTEM.CONST>
0

>  <SCORE.SYSTEM.DIHEDRAL>
0.324025

>  <SCORE.SYSTEM.VDW>
-1.00186

>  <SCORE.SYSTEM.norm>
-0.0419926

>  <SCORE.heavy>
20

>  <SCORE.norm>
-0.909213

$$$$
5280443
  RxDock  02242101073D
librxdock.so/0.1.0
 23 25  0  0  0  0  0  0  0  0999 V2000
  -50.2361   -2.4289   15.0395 O   0  0  0  0  0  0
  -45.6391   -1.8100   16.4469 O   0  0  0  0  0  0
  -47.2724   -3.4917   17.6253 O   0  0  0  0  0  0
  -47.4136    0.6640   12.8019 O   0  0  0  0  0  0
  -55.6505   -5.5131   16.1124 O   0  0  0  0  0  0
  -47.9413   -2.1624   15.7897 C   0  0  0  0  0  0
  -48.9990   -1.8445   14.9394 C   0  0  0  0  0  0
  -50.4381   -3.3827   16.0257 C   0  0  0  0  0  0
  -51.8046   -3.9421   16.0482 C   0  0  0  0  0  0
  -48.1546   -3.1669   16.8427 C   0  0  0  0  0  0
  -49.5020   -3.7682   16.9074 C   0  0  0  0  0  0
  -46.7025   -1.5344   15.6417 C   0  0  0  0  0  0
  -48.8235   -0.8938   13.9337 C   0  0  0  0  0  0
  -47.5877   -0.2644   13.7823 C   0  0  0  0  0  0
  -46.5297   -0.5842   14.6345 C   0  0  0  0  0  0
  -52.3605   -4.3876   17.2499 C   0  0  0  0  0  0
  -52.5476   -4.0270   14.8684 C   0  0  0  0  0  0
  -53.6515   -4.9154   17.2714 C   0  0  0  0  0  0
  -53.8388   -4.5545   14.8900 C   0  0  0  0  0  0
  -54.3907   -4.9989   16.0915 C   0  0  0  0  0  0
  -45.8647   -2.5069   17.0818 H   0  0  0  0  0  0
  -46.6623    0.3974   12.2447 H   0  0  0  0  0  0
  -56.0601   -5.3790   15.2405 H   0  0  0  0  0  0
  1  7  1  0  0  0
  1  8  1  0  0  0
  2 12  1  0  0  0
  2 21  1  0  0  0
  3 10  2  0  0  0
  4 14  1  0  0  0
  4 22  1  0  0  0
  5 20  1  0  0  0
  5 23  1  0  0  0
  6  7  1  0  0  0
  6 10  1  0  0  0
  6 12  2  0  0  0
  7 13  2  0  0  0
  8  9  1  0  0  0
  8 11  2  0  0  0
  9 16  2  0  0  0
  9 17  1  0  0  0
 10 11  1  0  0  0
 12 15  1  0  0  0
 13 14  1  0  0  0
 14 15  2  0  0  0
 16 18  1  0  0  0
 17 19  2  0  0  0
 18 20  2  0  0  0
 19 20  1  0  0  0
M  END
>  <CHROM.0>
-48.64211505,-176.37663057,-66.57501316

>  <CHROM.1>
2.33744390,-124.20754003,171.98690873,-150.10532301,-49.94293459,-2.83354578
15.63600610,0.41999451,-0.31529690,-0.91098352

>  <Name>
5280443

>  <PUBCHEM_ATOM_DEF_STEREO_COUNT>
0

>  <PUBCHEM_ATOM_UDEF_STEREO_COUNT>
0

>  <PUBCHEM_BOND_DEF_STEREO_COUNT>
0

>  <PUBCHEM_BOND_UDEF_STEREO_COUNT>
0

>  <PUBCHEM_CACTVS_TAUTO_COUNT>
57

>  <PUBCHEM_COMPONENT_COUNT>
1

>  <PUBCHEM_COMPOUND_CID>
5280443

>  <PUBCHEM_CONFORMER_DIVERSEORDER>
1

>  <PUBCHEM_CONFORMER_ID>
005092BB00000001

>  <PUBCHEM_CONFORMER_RMSD>
0.6

>  <PUBCHEM_COORDINATE_TYPE>
2
5
10

>  <PUBCHEM_EFFECTIVE_ROTOR_COUNT>
1

>  <PUBCHEM_FEATURE_SELFOVERLAP>
40.625

>  <PUBCHEM_HEAVY_ATOM_COUNT>
20

>  <PUBCHEM_ISOTOPIC_ATOM_COUNT>
0

>  <PUBCHEM_MMFF94_ENERGY>
60.7436

>  <PUBCHEM_MMFF94_PARTIAL_CHARGES>
30
1 -0.16
10 0.47
11 -0.14
12 0.08
13 -0.15
14 0.08
15 -0.15
16 -0.15
17 -0.15
18 -0.15
19 -0.15
2 -0.53
20 0.08
21 0.15
22 0.15
23 0.15
24 0.15
25 0.15
26 0.15
27 0.15
28 0.45
29 0.45
3 -0.57
30 0.45
4 -0.53
5 -0.53
6 0.09
7 0.08
8 0.05
9 0.03

>  <PUBCHEM_PHARMACOPHORE_FEATURES>
8
1 1 acceptor
1 2 donor
1 3 acceptor
1 4 donor
1 5 donor
6 1 6 7 8 10 11 rings
6 6 7 12 13 14 15 rings
6 9 16 17 18 19 20 rings

>  <PUBCHEM_SHAPE_FINGERPRINT>
10014705 185 18335983090743610973
10319926 262 18339344337187947850
10411042 1 17833271196427205891
10493431 412 18339369544277550625
10498660 4 18336260146151624709
10608611 8 18342173405853837512
10646746 165 18410292501880224548
11315181 36 17967532415338923724
12107183 9 17973996255225508682
12173636 292 18409726227717107541
12236239 1 17458341966376888130
12390115 104 18270696268119625369
12403259 415 18202279234227041088
12500047 106 18411979165633848254
13073987 5 18334573538601782738
13140716 1 17974859676764465403
13544592 145 18269848531875060550
14508225 48 18124582335750861655
14790565 3 17908712730609502257
15042514 8 18192436496683379403
15196674 1 18411138009184468990
15375358 24 18272089392275024390
17844677 252 18338524131077601056
18186145 218 18201727210401115800
200 152 17060622204808618226
20510252 161 18342459253144016673
20645477 56 18410013234284757832
20645477 70 17203058396143606462
21033648 29 18271516554985427096
21065198 57 18411699920035301594
21236236 1 18412826893710328947
21267235 1 18337116777299593123
21279426 13 18269277859449011198
21421861 104 17750502976618702298
23402539 116 18412538829647092654
23402655 69 18131067100338114972
23557571 272 18342746247148492668
23559900 14 18271807861775124550
245318 6 16448986100328701468
283562 15 18410291424461079675
2916195 48 18342730849902058064
3004659 81 18335425613612532158
335352 9 18267022748231475478
350125 39 18410298038462750009
3545911 37 18342460348455732712
4028521 119 18341892965631935697
4214541 1 18411419514231212472
474 4 16879077545412114420
495365 180 17346021334593014002
5104073 3 18410011005465809410
542803 24 17530686524359763644
559249 180 18337386046670377618
633830 44 18199743644401676445
69090 78 18272086119177836790
77779 3 18412263930592437412
9709674 26 18342463655380539086

>  <PUBCHEM_SHAPE_MULTIPOLES>
382.24
10.96
2.41
0.66
9.09
0.24
0
-3.75
0.48
-2.84
-0.06
0.21
-0.01
0.71

>  <PUBCHEM_SHAPE_SELFOVERLAP>
856.39

>  <PUBCHEM_SHAPE_VOLUME>
201.3

>  <RI>
-1.1732e+09

>  <Rbt.Current_Directory>
/root/miniconda3/envs/rdock/share/rxdock-2013.1.1_148c5bd1-0/data/ligands/prepped_ligands/Apigenin

>  <Rbt.Executable>
rbdock/0.1.0

>  <Rbt.Library>
librxdock.so/0.1.0

>  <Rbt.Parameter_File>
/root/miniconda3/envs/rdock/share/rxdock-2013.1.1_148c5bd1-0/data/scripts/dock.prm

>  <Rbt.Receptor>
def.prm

>  <SCORE>
-16.9472

>  <SCORE.INTER>
-17.3591

>  <SCORE.INTER.CONST>
1

>  <SCORE.INTER.POLAR>
-2.61881

>  <SCORE.INTER.REPUL>
0.0327994

>  <SCORE.INTER.ROT>
1

>  <SCORE.INTER.VDW>
-15.0191

>  <SCORE.INTER.norm>
-0.867954

>  <SCORE.INTRA>
1.2299

>  <SCORE.INTRA.DIHEDRAL>
3.30837

>  <SCORE.INTRA.DIHEDRAL.0>
1.23283

>  <SCORE.INTRA.POLAR>
0

>  <SCORE.INTRA.POLAR.0>
0

>  <SCORE.INTRA.REPUL>
0

>  <SCORE.INTRA.REPUL.0>
0

>  <SCORE.INTRA.VDW>
-0.424282

>  <SCORE.INTRA.VDW.0>
1.06701

>  <SCORE.INTRA.norm>
0.0614951

>  <SCORE.RESTR>
0

>  <SCORE.RESTR.CAVITY>
0

>  <SCORE.RESTR.norm>
0

>  <SCORE.SYSTEM>
-0.817991

>  <SCORE.SYSTEM.CONST>
0

>  <SCORE.SYSTEM.DIHEDRAL>
0.476767

>  <SCORE.SYSTEM.VDW>
-1.05638

>  <SCORE.SYSTEM.norm>
-0.0408996

>  <SCORE.heavy>
20

>  <SCORE.norm>
-0.847359

$$$$
5280443
  RxDock  02242101073D
librxdock.so/0.1.0
 23 25  0  0  0  0  0  0  0  0999 V2000
  -49.1421   -4.2077   15.8344 O   0  0  0  0  0  0
  -52.0584   -7.7972   17.2859 O   0  0  0  0  0  0
  -52.9124   -5.7511   15.8829 O   0  0  0  0  0  0
  -47.4362   -7.8367   18.3762 O   0  0  0  0  0  0
  -48.7763    1.2734   12.7029 O   0  0  0  0  0  0
  -50.6518   -5.9777   16.5329 C   0  0  0  0  0  0
  -49.3874   -5.3937   16.4789 C   0  0  0  0  0  0
  -50.1984   -3.5681   15.2035 C   0  0  0  0  0  0
  -49.8254   -2.2991   14.5471 C   0  0  0  0  0  0
  -51.7764   -5.2975   15.8726 C   0  0  0  0  0  0
  -51.4604   -4.0260   15.1909 C   0  0  0  0  0  0
  -50.8433   -7.1872   17.2046 C   0  0  0  0  0  0
  -48.3043   -6.0175   17.0985 C   0  0  0  0  0  0
  -48.4912   -7.2258   17.7703 C   0  0  0  0  0  0
  -49.7580   -7.8092   17.8231 C   0  0  0  0  0  0
  -50.8113   -1.4810   13.9900 C   0  0  0  0  0  0
  -48.4852   -1.9104   14.4814 C   0  0  0  0  0  0
  -50.4591   -0.2819   13.3706 C   0  0  0  0  0  0
  -48.1330   -0.7111   13.8623 C   0  0  0  0  0  0
  -49.1200    0.1031   13.3067 C   0  0  0  0  0  0
  -52.3987   -7.9970   16.4005 H   0  0  0  0  0  0
  -47.7716   -8.5290   18.9713 H   0  0  0  0  0  0
  -49.5672    1.8349   12.6309 H   0  0  0  0  0  0
  1  7  1  0  0  0
  1  8  1  0  0  0
  2 12  1  0  0  0
  2 21  1  0  0  0
  3 10  2  0  0  0
  4 14  1  0  0  0
  4 22  1  0  0  0
  5 20  1  0  0  0
  5 23  1  0  0  0
  6  7  1  0  0  0
  6 10  1  0  0  0
  6 12  2  0  0  0
  7 13  2  0  0  0
  8  9  1  0  0  0
  8 11  2  0  0  0
  9 16  2  0  0  0
  9 17  1  0  0  0
 10 11  1  0  0  0
 12 15  1  0  0  0
 13 14  1  0  0  0
 14 15  2  0  0  0
 16 18  1  0  0  0
 17 19  2  0  0  0
 18 20  2  0  0  0
 19 20  1  0  0  0
M  END
>  <CHROM.0>
-60.74205328,177.90484142,57.54663638

>  <CHROM.1>
59.37934429,166.03675409,17.82091038,-173.50890606,-49.90663529,-4.20352270
15.65885604,-1.65222513,-0.18785483,-0.53010279

>  <Name>
5280443

>  <PUBCHEM_ATOM_DEF_STEREO_COUNT>
0

>  <PUBCHEM_ATOM_UDEF_STEREO_COUNT>
0

>  <PUBCHEM_BOND_DEF_STEREO_COUNT>
0

>  <PUBCHEM_BOND_UDEF_STEREO_COUNT>
0

>  <PUBCHEM_CACTVS_TAUTO_COUNT>
57

>  <PUBCHEM_COMPONENT_COUNT>
1

>  <PUBCHEM_COMPOUND_CID>
5280443

>  <PUBCHEM_CONFORMER_DIVERSEORDER>
1

>  <PUBCHEM_CONFORMER_ID>
005092BB00000001

>  <PUBCHEM_CONFORMER_RMSD>
0.6

>  <PUBCHEM_COORDINATE_TYPE>
2
5
10

>  <PUBCHEM_EFFECTIVE_ROTOR_COUNT>
1

>  <PUBCHEM_FEATURE_SELFOVERLAP>
40.625

>  <PUBCHEM_HEAVY_ATOM_COUNT>
20

>  <PUBCHEM_ISOTOPIC_ATOM_COUNT>
0

>  <PUBCHEM_MMFF94_ENERGY>
60.7436

>  <PUBCHEM_MMFF94_PARTIAL_CHARGES>
30
1 -0.16
10 0.47
11 -0.14
12 0.08
13 -0.15
14 0.08
15 -0.15
16 -0.15
17 -0.15
18 -0.15
19 -0.15
2 -0.53
20 0.08
21 0.15
22 0.15
23 0.15
24 0.15
25 0.15
26 0.15
27 0.15
28 0.45
29 0.45
3 -0.57
30 0.45
4 -0.53
5 -0.53
6 0.09
7 0.08
8 0.05
9 0.03

>  <PUBCHEM_PHARMACOPHORE_FEATURES>
8
1 1 acceptor
1 2 donor
1 3 acceptor
1 4 donor
1 5 donor
6 1 6 7 8 10 11 rings
6 6 7 12 13 14 15 rings
6 9 16 17 18 19 20 rings

>  <PUBCHEM_SHAPE_FINGERPRINT>
10014705 185 18335983090743610973
10319926 262 18339344337187947850
10411042 1 17833271196427205891
10493431 412 18339369544277550625
10498660 4 18336260146151624709
10608611 8 18342173405853837512
10646746 165 18410292501880224548
11315181 36 17967532415338923724
12107183 9 17973996255225508682
12173636 292 18409726227717107541
12236239 1 17458341966376888130
12390115 104 18270696268119625369
12403259 415 18202279234227041088
12500047 106 18411979165633848254
13073987 5 18334573538601782738
13140716 1 17974859676764465403
13544592 145 18269848531875060550
14508225 48 18124582335750861655
14790565 3 17908712730609502257
15042514 8 18192436496683379403
15196674 1 18411138009184468990
15375358 24 18272089392275024390
17844677 252 18338524131077601056
18186145 218 18201727210401115800
200 152 17060622204808618226
20510252 161 18342459253144016673
20645477 56 18410013234284757832
20645477 70 17203058396143606462
21033648 29 18271516554985427096
21065198 57 18411699920035301594
21236236 1 18412826893710328947
21267235 1 18337116777299593123
21279426 13 18269277859449011198
21421861 104 17750502976618702298
23402539 116 18412538829647092654
23402655 69 18131067100338114972
23557571 272 18342746247148492668
23559900 14 18271807861775124550
245318 6 16448986100328701468
283562 15 18410291424461079675
2916195 48 18342730849902058064
3004659 81 18335425613612532158
335352 9 18267022748231475478
350125 39 18410298038462750009
3545911 37 18342460348455732712
4028521 119 18341892965631935697
4214541 1 18411419514231212472
474 4 16879077545412114420
495365 180 17346021334593014002
5104073 3 18410011005465809410
542803 24 17530686524359763644
559249 180 18337386046670377618
633830 44 18199743644401676445
69090 78 18272086119177836790
77779 3 18412263930592437412
9709674 26 18342463655380539086

>  <PUBCHEM_SHAPE_MULTIPOLES>
382.24
10.96
2.41
0.66
9.09
0.24
0
-3.75
0.48
-2.84
-0.06
0.21
-0.01
0.71

>  <PUBCHEM_SHAPE_SELFOVERLAP>
856.39

>  <PUBCHEM_SHAPE_VOLUME>
201.3

>  <RI>
-1.1732e+09

>  <Rbt.Current_Directory>
/root/miniconda3/envs/rdock/share/rxdock-2013.1.1_148c5bd1-0/data/ligands/prepped_ligands/Apigenin

>  <Rbt.Executable>
rbdock/0.1.0

>  <Rbt.Library>
librxdock.so/0.1.0

>  <Rbt.Parameter_File>
/root/miniconda3/envs/rdock/share/rxdock-2013.1.1_148c5bd1-0/data/scripts/dock.prm

>  <Rbt.Receptor>
def.prm

>  <SCORE>
-13.6032

>  <SCORE.INTER>
-13.9373

>  <SCORE.INTER.CONST>
1

>  <SCORE.INTER.POLAR>
-1.11387

>  <SCORE.INTER.REPUL>
0.0749447

>  <SCORE.INTER.ROT>
1

>  <SCORE.INTER.VDW>
-16.9248

>  <SCORE.INTER.norm>
-0.696863

>  <SCORE.INTRA>
1.40127

>  <SCORE.INTRA.DIHEDRAL>
3.10272

>  <SCORE.INTRA.DIHEDRAL.0>
1.23283

>  <SCORE.INTRA.POLAR>
0

>  <SCORE.INTRA.POLAR.0>
0

>  <SCORE.INTRA.REPUL>
0

>  <SCORE.INTRA.REPUL.0>
0

>  <SCORE.INTRA.VDW>
-0.150094

>  <SCORE.INTRA.VDW.0>
1.06701

>  <SCORE.INTRA.norm>
0.0700633

>  <SCORE.RESTR>
0

>  <SCORE.RESTR.CAVITY>
0

>  <SCORE.RESTR.norm>
0

>  <SCORE.SYSTEM>
-1.06723

>  <SCORE.SYSTEM.CONST>
0

>  <SCORE.SYSTEM.DIHEDRAL>
0.0405737

>  <SCORE.SYSTEM.VDW>
-1.08751

>  <SCORE.SYSTEM.norm>
-0.0533613

>  <SCORE.heavy>
20

>  <SCORE.norm>
-0.680161

$$$$
5280443
  RxDock  02242101073D
librxdock.so/0.1.0
 23 25  0  0  0  0  0  0  0  0999 V2000
  -51.8819   -4.1754   15.3874 O   0  0  0  0  0  0
  -50.1854   -0.2142   17.6072 O   0  0  0  0  0  0
  -51.1509   -2.2734   18.9155 O   0  0  0  0  0  0
  -50.1754   -0.5308   12.8685 O   0  0  0  0  0  0
  -54.4802   -9.8865   16.1754 O   0  0  0  0  0  0
  -51.0448   -2.2171   16.5555 C   0  0  0  0  0  0
  -51.3222   -2.9228   15.3860 C   0  0  0  0  0  0
  -52.1764   -4.7658   16.6071 C   0  0  0  0  0  0
  -52.7799   -6.1086   16.4933 C   0  0  0  0  0  0
  -51.3644   -2.8364   17.8508 C   0  0  0  0  0  0
  -51.9627   -4.1857   17.7988 C   0  0  0  0  0  0
  -50.4746   -0.9436   16.4938 C   0  0  0  0  0  0
  -51.0305   -2.3572   14.1446 C   0  0  0  0  0  0
  -50.4608   -1.0854   14.0786 C   0  0  0  0  0  0
  -50.1835   -0.3804   15.2507 C   0  0  0  0  0  0
  -52.3166   -7.1562   17.2931 C   0  0  0  0  0  0
  -53.8175   -6.3371   15.5863 C   0  0  0  0  0  0
  -52.8872   -8.4245   17.1861 C   0  0  0  0  0  0
  -54.3883   -7.6054   15.4796 C   0  0  0  0  0  0
  -53.9230   -8.6492   16.2793 C   0  0  0  0  0  0
  -50.3706   -0.7279   18.4080 H   0  0  0  0  0  0
  -49.6638    0.2846   13.0079 H   0  0  0  0  0  0
  -55.2089   -9.8507   15.5322 H   0  0  0  0  0  0
  1  7  1  0  0  0
  1  8  1  0  0  0
  2 12  1  0  0  0
  2 21  1  0  0  0
  3 10  2  0  0  0
  4 14  1  0  0  0
  4 22  1  0  0  0
  5 20  1  0  0  0
  5 23  1  0  0  0
  6  7  1  0  0  0
  6 10  1  0  0  0
  6 12  2  0  0  0
  7 13  2  0  0  0
  8  9  1  0  0  0
  8 11  2  0  0  0
  9 16  2  0  0  0
  9 17  1  0  0  0
 10 11  1  0  0  0
 12 15  1  0  0  0
 13 14  1  0  0  0
 14 15  2  0  0  0
 16 18  1  0  0  0
 17 19  2  0  0  0
 18 20  2  0  0  0
 19 20  1  0  0  0
M  END
>  <CHROM.0>
67.01268189,-60.11480917,-53.00957623

>  <CHROM.1>
4.04130544,-171.32832566,177.30892044,133.94592354,-51.88682899,-4.11784228
16.16569914,0.18817183,-1.14110203,-1.46946279

>  <Name>
5280443

>  <PUBCHEM_ATOM_DEF_STEREO_COUNT>
0

>  <PUBCHEM_ATOM_UDEF_STEREO_COUNT>
0

>  <PUBCHEM_BOND_DEF_STEREO_COUNT>
0

>  <PUBCHEM_BOND_UDEF_STEREO_COUNT>
0

>  <PUBCHEM_CACTVS_TAUTO_COUNT>
57

>  <PUBCHEM_COMPONENT_COUNT>
1

>  <PUBCHEM_COMPOUND_CID>
5280443

>  <PUBCHEM_CONFORMER_DIVERSEORDER>
1

>  <PUBCHEM_CONFORMER_ID>
005092BB00000001

>  <PUBCHEM_CONFORMER_RMSD>
0.6

>  <PUBCHEM_COORDINATE_TYPE>
2
5
10

>  <PUBCHEM_EFFECTIVE_ROTOR_COUNT>
1

>  <PUBCHEM_FEATURE_SELFOVERLAP>
40.625

>  <PUBCHEM_HEAVY_ATOM_COUNT>
20

>  <PUBCHEM_ISOTOPIC_ATOM_COUNT>
0

>  <PUBCHEM_MMFF94_ENERGY>
60.7436

>  <PUBCHEM_MMFF94_PARTIAL_CHARGES>
30
1 -0.16
10 0.47
11 -0.14
12 0.08
13 -0.15
14 0.08
15 -0.15
16 -0.15
17 -0.15
18 -0.15
19 -0.15
2 -0.53
20 0.08
21 0.15
22 0.15
23 0.15
24 0.15
25 0.15
26 0.15
27 0.15
28 0.45
29 0.45
3 -0.57
30 0.45
4 -0.53
5 -0.53
6 0.09
7 0.08
8 0.05
9 0.03

>  <PUBCHEM_PHARMACOPHORE_FEATURES>
8
1 1 acceptor
1 2 donor
1 3 acceptor
1 4 donor
1 5 donor
6 1 6 7 8 10 11 rings
6 6 7 12 13 14 15 rings
6 9 16 17 18 19 20 rings

>  <PUBCHEM_SHAPE_FINGERPRINT>
10014705 185 18335983090743610973
10319926 262 18339344337187947850
10411042 1 17833271196427205891
10493431 412 18339369544277550625
10498660 4 18336260146151624709
10608611 8 18342173405853837512
10646746 165 18410292501880224548
11315181 36 17967532415338923724
12107183 9 17973996255225508682
12173636 292 18409726227717107541
12236239 1 17458341966376888130
12390115 104 18270696268119625369
12403259 415 18202279234227041088
12500047 106 18411979165633848254
13073987 5 18334573538601782738
13140716 1 17974859676764465403
13544592 145 18269848531875060550
14508225 48 18124582335750861655
14790565 3 17908712730609502257
15042514 8 18192436496683379403
15196674 1 18411138009184468990
15375358 24 18272089392275024390
17844677 252 18338524131077601056
18186145 218 18201727210401115800
200 152 17060622204808618226
20510252 161 18342459253144016673
20645477 56 18410013234284757832
20645477 70 17203058396143606462
21033648 29 18271516554985427096
21065198 57 18411699920035301594
21236236 1 18412826893710328947
21267235 1 18337116777299593123
21279426 13 18269277859449011198
21421861 104 17750502976618702298
23402539 116 18412538829647092654
23402655 69 18131067100338114972
23557571 272 18342746247148492668
23559900 14 18271807861775124550
245318 6 16448986100328701468
283562 15 18410291424461079675
2916195 48 18342730849902058064
3004659 81 18335425613612532158
335352 9 18267022748231475478
350125 39 18410298038462750009
3545911 37 18342460348455732712
4028521 119 18341892965631935697
4214541 1 18411419514231212472
474 4 16879077545412114420
495365 180 17346021334593014002
5104073 3 18410011005465809410
542803 24 17530686524359763644
559249 180 18337386046670377618
633830 44 18199743644401676445
69090 78 18272086119177836790
77779 3 18412263930592437412
9709674 26 18342463655380539086

>  <PUBCHEM_SHAPE_MULTIPOLES>
382.24
10.96
2.41
0.66
9.09
0.24
0
-3.75
0.48
-2.84
-0.06
0.21
-0.01
0.71

>  <PUBCHEM_SHAPE_SELFOVERLAP>
856.39

>  <PUBCHEM_SHAPE_VOLUME>
201.3

>  <RI>
-1.1732e+09

>  <Rbt.Current_Directory>
/root/miniconda3/envs/rdock/share/rxdock-2013.1.1_148c5bd1-0/data/ligands/prepped_ligands/Apigenin

>  <Rbt.Executable>
rbdock/0.1.0

>  <Rbt.Library>
librxdock.so/0.1.0

>  <Rbt.Parameter_File>
/root/miniconda3/envs/rdock/share/rxdock-2013.1.1_148c5bd1-0/data/scripts/dock.prm

>  <Rbt.Receptor>
def.prm

>  <SCORE>
-16.0359

>  <SCORE.INTER>
-15.464

>  <SCORE.INTER.CONST>
1

>  <SCORE.INTER.POLAR>
-1.93106

>  <SCORE.INTER.REPUL>
0.00037553

>  <SCORE.INTER.ROT>
1

>  <SCORE.INTER.VDW>
-15.3003

>  <SCORE.INTER.norm>
-0.773201

>  <SCORE.INTRA>
0.325243

>  <SCORE.INTRA.DIHEDRAL>
1.44158

>  <SCORE.INTRA.DIHEDRAL.0>
1.23283

>  <SCORE.INTRA.POLAR>
0

>  <SCORE.INTRA.POLAR.0>
0

>  <SCORE.INTRA.REPUL>
0

>  <SCORE.INTRA.REPUL.0>
0

>  <SCORE.INTRA.VDW>
-0.395546

>  <SCORE.INTRA.VDW.0>
1.06701

>  <SCORE.INTRA.norm>
0.0162622

>  <SCORE.RESTR>
0

>  <SCORE.RESTR.CAVITY>
0

>  <SCORE.RESTR.norm>
0

>  <SCORE.SYSTEM>
-0.897159

>  <SCORE.SYSTEM.CONST>
0

>  <SCORE.SYSTEM.DIHEDRAL>
0.228826

>  <SCORE.SYSTEM.POLAR>
-0.0144363

>  <SCORE.SYSTEM.VDW>
-0.962489

>  <SCORE.SYSTEM.norm>
-0.044858

>  <SCORE.heavy>
20

>  <SCORE.norm>
-0.801797

$$$$
5280443
  RxDock  02242101073D
librxdock.so/0.1.0
 23 25  0  0  0  0  0  0  0  0999 V2000
  -52.2761   -3.9742   14.9247 O   0  0  0  0  0  0
  -53.0577   -8.1924   17.1814 O   0  0  0  0  0  0
  -50.6734   -7.1202   16.9578 O   0  0  0  0  0  0
  -56.6558   -5.7808   15.2337 O   0  0  0  0  0  0
  -47.9404    0.2924   13.1974 O   0  0  0  0  0  0
  -52.6060   -6.0916   16.0683 C   0  0  0  0  0  0
  -53.0880   -4.9881   15.3665 C   0  0  0  0  0  0
  -50.9184   -4.0495   15.1962 C   0  0  0  0  0  0
  -50.1378   -2.9112   14.6713 C   0  0  0  0  0  0
  -51.1651   -6.1793   16.3501 C   0  0  0  0  0  0
  -50.3345   -5.0625   15.8560 C   0  0  0  0  0  0
  -53.4795   -7.0951   16.4934 C   0  0  0  0  0  0
  -54.4501   -4.8817   15.0846 C   0  0  0  0  0  0
  -55.3260   -5.8817   15.5077 C   0  0  0  0  0  0
  -54.8416   -6.9859   16.2105 C   0  0  0  0  0  0
  -50.7244   -1.6478   14.5648 C   0  0  0  0  0  0
  -48.8090   -3.0924   14.2802 C   0  0  0  0  0  0
  -49.9868   -0.5724   14.0697 C   0  0  0  0  0  0
  -48.0714   -2.0169   13.7853 C   0  0  0  0  0  0
  -48.6604   -0.7569   13.6799 C   0  0  0  0  0  0
  -52.2523   -8.5553   16.7822 H   0  0  0  0  0  0
  -57.1612   -6.0867   16.0063 H   0  0  0  0  0  0
  -47.0651   -0.0275   12.9191 H   0  0  0  0  0  0
  1  7  1  0  0  0
  1  8  1  0  0  0
  2 12  1  0  0  0
  2 21  1  0  0  0
  3 10  2  0  0  0
  4 14  1  0  0  0
  4 22  1  0  0  0
  5 20  1  0  0  0
  5 23  1  0  0  0
  6  7  1  0  0  0
  6 10  1  0  0  0
  6 12  2  0  0  0
  7 13  2  0  0  0
  8  9  1  0  0  0
  8 11  2  0  0  0
  9 16  2  0  0  0
  9 17  1  0  0  0
 10 11  1  0  0  0
 12 15  1  0  0  0
 13 14  1  0  0  0
 14 15  2  0  0  0
 16 18  1  0  0  0
 17 19  2  0  0  0
 18 20  2  0  0  0
 19 20  1  0  0  0
M  END
>  <CHROM.0>
61.68540008,-70.50280023,-59.28211893

>  <CHROM.1>
-44.25074814,-140.30551741,-176.08279996,30.74248272,-51.68328222,-4.37707658
15.24315972,2.30671444,0.09116008,2.66628453

>  <Name>
5280443

>  <PUBCHEM_ATOM_DEF_STEREO_COUNT>
0

>  <PUBCHEM_ATOM_UDEF_STEREO_COUNT>
0

>  <PUBCHEM_BOND_DEF_STEREO_COUNT>
0

>  <PUBCHEM_BOND_UDEF_STEREO_COUNT>
0

>  <PUBCHEM_CACTVS_TAUTO_COUNT>
57

>  <PUBCHEM_COMPONENT_COUNT>
1

>  <PUBCHEM_COMPOUND_CID>
5280443

>  <PUBCHEM_CONFORMER_DIVERSEORDER>
1

>  <PUBCHEM_CONFORMER_ID>
005092BB00000001

>  <PUBCHEM_CONFORMER_RMSD>
0.6

>  <PUBCHEM_COORDINATE_TYPE>
2
5
10

>  <PUBCHEM_EFFECTIVE_ROTOR_COUNT>
1

>  <PUBCHEM_FEATURE_SELFOVERLAP>
40.625

>  <PUBCHEM_HEAVY_ATOM_COUNT>
20

>  <PUBCHEM_ISOTOPIC_ATOM_COUNT>
0

>  <PUBCHEM_MMFF94_ENERGY>
60.7436

>  <PUBCHEM_MMFF94_PARTIAL_CHARGES>
30
1 -0.16
10 0.47
11 -0.14
12 0.08
13 -0.15
14 0.08
15 -0.15
16 -0.15
17 -0.15
18 -0.15
19 -0.15
2 -0.53
20 0.08
21 0.15
22 0.15
23 0.15
24 0.15
25 0.15
26 0.15
27 0.15
28 0.45
29 0.45
3 -0.57
30 0.45
4 -0.53
5 -0.53
6 0.09
7 0.08
8 0.05
9 0.03

>  <PUBCHEM_PHARMACOPHORE_FEATURES>
8
1 1 acceptor
1 2 donor
1 3 acceptor
1 4 donor
1 5 donor
6 1 6 7 8 10 11 rings
6 6 7 12 13 14 15 rings
6 9 16 17 18 19 20 rings

>  <PUBCHEM_SHAPE_FINGERPRINT>
10014705 185 18335983090743610973
10319926 262 18339344337187947850
10411042 1 17833271196427205891
10493431 412 18339369544277550625
10498660 4 18336260146151624709
10608611 8 18342173405853837512
10646746 165 18410292501880224548
11315181 36 17967532415338923724
12107183 9 17973996255225508682
12173636 292 18409726227717107541
12236239 1 17458341966376888130
12390115 104 18270696268119625369
12403259 415 18202279234227041088
12500047 106 18411979165633848254
13073987 5 18334573538601782738
13140716 1 17974859676764465403
13544592 145 18269848531875060550
14508225 48 18124582335750861655
14790565 3 17908712730609502257
15042514 8 18192436496683379403
15196674 1 18411138009184468990
15375358 24 18272089392275024390
17844677 252 18338524131077601056
18186145 218 18201727210401115800
200 152 17060622204808618226
20510252 161 18342459253144016673
20645477 56 18410013234284757832
20645477 70 17203058396143606462
21033648 29 18271516554985427096
21065198 57 18411699920035301594
21236236 1 18412826893710328947
21267235 1 18337116777299593123
21279426 13 18269277859449011198
21421861 104 17750502976618702298
23402539 116 18412538829647092654
23402655 69 18131067100338114972
23557571 272 18342746247148492668
23559900 14 18271807861775124550
245318 6 16448986100328701468
283562 15 18410291424461079675
2916195 48 18342730849902058064
3004659 81 18335425613612532158
335352 9 18267022748231475478
350125 39 18410298038462750009
3545911 37 18342460348455732712
4028521 119 18341892965631935697
4214541 1 18411419514231212472
474 4 16879077545412114420
495365 180 17346021334593014002
5104073 3 18410011005465809410
542803 24 17530686524359763644
559249 180 18337386046670377618
633830 44 18199743644401676445
69090 78 18272086119177836790
77779 3 18412263930592437412
9709674 26 18342463655380539086

>  <PUBCHEM_SHAPE_MULTIPOLES>
382.24
10.96
2.41
0.66
9.09
0.24
0
-3.75
0.48
-2.84
-0.06
0.21
-0.01
0.71

>  <PUBCHEM_SHAPE_SELFOVERLAP>
856.39

>  <PUBCHEM_SHAPE_VOLUME>
201.3

>  <RI>
-1.1732e+09

>  <Rbt.Current_Directory>
/root/miniconda3/envs/rdock/share/rxdock-2013.1.1_148c5bd1-0/data/ligands/prepped_ligands/Apigenin

>  <Rbt.Executable>
rbdock/0.1.0

>  <Rbt.Library>
librxdock.so/0.1.0

>  <Rbt.Parameter_File>
/root/miniconda3/envs/rdock/share/rxdock-2013.1.1_148c5bd1-0/data/scripts/dock.prm

>  <Rbt.Receptor>
def.prm

>  <SCORE>
-16.6966

>  <SCORE.INTER>
-17.2858

>  <SCORE.INTER.CONST>
1

>  <SCORE.INTER.POLAR>
-1.69688

>  <SCORE.INTER.REPUL>
0.10278

>  <SCORE.INTER.ROT>
1

>  <SCORE.INTER.VDW>
-18.4303

>  <SCORE.INTER.norm>
-0.86429

>  <SCORE.INTRA>
1.47282

>  <SCORE.INTRA.DIHEDRAL>
4.30488

>  <SCORE.INTRA.DIHEDRAL.0>
1.23283

>  <SCORE.INTRA.POLAR>
0

>  <SCORE.INTRA.POLAR.0>
0

>  <SCORE.INTRA.REPUL>
0

>  <SCORE.INTRA.REPUL.0>
0

>  <SCORE.INTRA.VDW>
-0.679621

>  <SCORE.INTRA.VDW.0>
1.06701

>  <SCORE.INTRA.norm>
0.0736411

>  <SCORE.RESTR>
0

>  <SCORE.RESTR.CAVITY>
0

>  <SCORE.RESTR.norm>
0

>  <SCORE.SYSTEM>
-0.883568

>  <SCORE.SYSTEM.CONST>
0

>  <SCORE.SYSTEM.DIHEDRAL>
0.537418

>  <SCORE.SYSTEM.POLAR>
-0.00260059

>  <SCORE.SYSTEM.VDW>
-1.14344

>  <SCORE.SYSTEM.norm>
-0.0441784

>  <SCORE.heavy>
20

>  <SCORE.norm>
-0.834828

$$$$
