5280443
  RxDock  02242110243D
librxdock.so/0.1.0
 23 25  0  0  0  0  0  0  0  0999 V2000
  -52.0626   -4.1845   14.8229 O   0  0  0  0  0  0
  -52.7422   -8.1760   17.4879 O   0  0  0  0  0  0
  -50.4678   -6.8686   17.4405 O   0  0  0  0  0  0
  -56.2417   -6.4371   14.7887 O   0  0  0  0  0  0
  -47.9637    0.3260   13.1370 O   0  0  0  0  0  0
  -52.3438   -6.1797   16.1794 C   0  0  0  0  0  0
  -52.8258   -5.2276   15.2829 C   0  0  0  0  0  0
  -50.7574   -4.0706   15.2772 C   0  0  0  0  0  0
  -50.0251   -2.9179   14.7152 C   0  0  0  0  0  0
  -50.9570   -6.0672   16.6564 C   0  0  0  0  0  0
  -50.1779   -4.9264   16.1340 C   0  0  0  0  0  0
  -53.1664   -7.2216   16.6136 C   0  0  0  0  0  0
  -54.1369   -5.3125   14.8138 C   0  0  0  0  0  0
  -54.9619   -6.3515   15.2451 C   0  0  0  0  0  0
  -54.4775   -7.3038   16.1431 C   0  0  0  0  0  0
  -50.6287   -1.6590   14.6674 C   0  0  0  0  0  0
  -48.7253   -3.0811   14.2302 C   0  0  0  0  0  0
  -49.9368   -0.5700   14.1372 C   0  0  0  0  0  0
  -48.0333   -1.9921   13.7003 C   0  0  0  0  0  0
  -48.6391   -0.7365   13.6536 C   0  0  0  0  0  0
  -51.7925   -8.3379   17.3804 H   0  0  0  0  0  0
  -56.6275   -7.2786   15.0872 H   0  0  0  0  0  0
  -47.0993    0.0216   12.8111 H   0  0  0  0  0  0
  1  7  1  0  0  0
  1  8  1  0  0  0
  2 12  1  0  0  0
  2 21  1  0  0  0
  3 10  2  0  0  0
  4 14  1  0  0  0
  4 22  1  0  0  0
  5 20  1  0  0  0
  5 23  1  0  0  0
  6  7  1  0  0  0
  6 10  1  0  0  0
  6 12  2  0  0  0
  7 13  2  0  0  0
  8  9  1  0  0  0
  8 11  2  0  0  0
  9 16  2  0  0  0
  9 17  1  0  0  0
 10 11  1  0  0  0
 12 15  1  0  0  0
 13 14  1  0  0  0
 14 15  2  0  0  0
 16 18  1  0  0  0
 17 19  2  0  0  0
 18 20  2  0  0  0
 19 20  1  0  0  0
M  END
>  <CHROM.0>
-172.24983662,-65.38360946,55.76749537

>  <CHROM.1>
-31.01909974,172.08802501,-177.26850473,46.10942501,-51.48424746,-4.47857844
15.26402794,2.28099590,0.25858796,2.55239982

>  <Name>
5280443

>  <PUBCHEM_ATOM_DEF_STEREO_COUNT>
0

>  <PUBCHEM_ATOM_UDEF_STEREO_COUNT>
0

>  <PUBCHEM_BOND_DEF_STEREO_COUNT>
0

>  <PUBCHEM_BOND_UDEF_STEREO_COUNT>
0

>  <PUBCHEM_CACTVS_TAUTO_COUNT>
57

>  <PUBCHEM_COMPONENT_COUNT>
1

>  <PUBCHEM_COMPOUND_CID>
5280443

>  <PUBCHEM_CONFORMER_DIVERSEORDER>
1

>  <PUBCHEM_CONFORMER_ID>
005092BB00000001

>  <PUBCHEM_CONFORMER_RMSD>
0.6

>  <PUBCHEM_COORDINATE_TYPE>
2
5
10

>  <PUBCHEM_EFFECTIVE_ROTOR_COUNT>
1

>  <PUBCHEM_FEATURE_SELFOVERLAP>
40.625

>  <PUBCHEM_HEAVY_ATOM_COUNT>
20

>  <PUBCHEM_ISOTOPIC_ATOM_COUNT>
0

>  <PUBCHEM_MMFF94_ENERGY>
60.7436

>  <PUBCHEM_MMFF94_PARTIAL_CHARGES>
30
1 -0.16
10 0.47
11 -0.14
12 0.08
13 -0.15
14 0.08
15 -0.15
16 -0.15
17 -0.15
18 -0.15
19 -0.15
2 -0.53
20 0.08
21 0.15
22 0.15
23 0.15
24 0.15
25 0.15
26 0.15
27 0.15
28 0.45
29 0.45
3 -0.57
30 0.45
4 -0.53
5 -0.53
6 0.09
7 0.08
8 0.05
9 0.03

>  <PUBCHEM_PHARMACOPHORE_FEATURES>
8
1 1 acceptor
1 2 donor
1 3 acceptor
1 4 donor
1 5 donor
6 1 6 7 8 10 11 rings
6 6 7 12 13 14 15 rings
6 9 16 17 18 19 20 rings

>  <PUBCHEM_SHAPE_FINGERPRINT>
10014705 185 18335983090743610973
10319926 262 18339344337187947850
10411042 1 17833271196427205891
10493431 412 18339369544277550625
10498660 4 18336260146151624709
10608611 8 18342173405853837512
10646746 165 18410292501880224548
11315181 36 17967532415338923724
12107183 9 17973996255225508682
12173636 292 18409726227717107541
12236239 1 17458341966376888130
12390115 104 18270696268119625369
12403259 415 18202279234227041088
12500047 106 18411979165633848254
13073987 5 18334573538601782738
13140716 1 17974859676764465403
13544592 145 18269848531875060550
14508225 48 18124582335750861655
14790565 3 17908712730609502257
15042514 8 18192436496683379403
15196674 1 18411138009184468990
15375358 24 18272089392275024390
17844677 252 18338524131077601056
18186145 218 18201727210401115800
200 152 17060622204808618226
20510252 161 18342459253144016673
20645477 56 18410013234284757832
20645477 70 17203058396143606462
21033648 29 18271516554985427096
21065198 57 18411699920035301594
21236236 1 18412826893710328947
21267235 1 18337116777299593123
21279426 13 18269277859449011198
21421861 104 17750502976618702298
23402539 116 18412538829647092654
23402655 69 18131067100338114972
23557571 272 18342746247148492668
23559900 14 18271807861775124550
245318 6 16448986100328701468
283562 15 18410291424461079675
2916195 48 18342730849902058064
3004659 81 18335425613612532158
335352 9 18267022748231475478
350125 39 18410298038462750009
3545911 37 18342460348455732712
4028521 119 18341892965631935697
4214541 1 18411419514231212472
474 4 16879077545412114420
495365 180 17346021334593014002
5104073 3 18410011005465809410
542803 24 17530686524359763644
559249 180 18337386046670377618
633830 44 18199743644401676445
69090 78 18272086119177836790
77779 3 18412263930592437412
9709674 26 18342463655380539086

>  <PUBCHEM_SHAPE_MULTIPOLES>
382.24
10.96
2.41
0.66
9.09
0.24
0
-3.75
0.48
-2.84
-0.06
0.21
-0.01
0.71

>  <PUBCHEM_SHAPE_SELFOVERLAP>
856.39

>  <PUBCHEM_SHAPE_VOLUME>
201.3

>  <RI>
-6.92772e+08

>  <Rbt.Current_Directory>
/root/miniconda3/envs/rdock/share/rxdock-2013.1.1_148c5bd1-0/data/ligands/prepped_ligands/Apigenin

>  <Rbt.Executable>
rbdock/0.1.0

>  <Rbt.Library>
librxdock.so/0.1.0

>  <Rbt.Parameter_File>
/root/miniconda3/envs/rdock/share/rxdock-2013.1.1_148c5bd1-0/data/scripts/dock.prm

>  <Rbt.Receptor>
def.prm

>  <SCORE>
-15.4509

>  <SCORE.INTER>
-15.1877

>  <SCORE.INTER.CONST>
1

>  <SCORE.INTER.POLAR>
-1.34587

>  <SCORE.INTER.REPUL>
0.182019

>  <SCORE.INTER.ROT>
1

>  <SCORE.INTER.VDW>
-17.9218

>  <SCORE.INTER.norm>
-0.759386

>  <SCORE.INTRA>
0.668204

>  <SCORE.INTRA.DIHEDRAL>
2.59473

>  <SCORE.INTRA.DIHEDRAL.0>
1.23283

>  <SCORE.INTRA.POLAR>
0

>  <SCORE.INTRA.POLAR.0>
0

>  <SCORE.INTRA.REPUL>
0

>  <SCORE.INTRA.REPUL.0>
0

>  <SCORE.INTRA.VDW>
-0.629161

>  <SCORE.INTRA.VDW.0>
1.06701

>  <SCORE.INTRA.norm>
0.0334102

>  <SCORE.RESTR>
0

>  <SCORE.RESTR.CAVITY>
0

>  <SCORE.RESTR.norm>
0

>  <SCORE.SYSTEM>
-0.931367

>  <SCORE.SYSTEM.CONST>
0

>  <SCORE.SYSTEM.DIHEDRAL>
0.330327

>  <SCORE.SYSTEM.VDW>
-1.09653

>  <SCORE.SYSTEM.norm>
-0.0465684

>  <SCORE.heavy>
20

>  <SCORE.norm>
-0.772544

$$$$
5280443
  RxDock  02242110243D
librxdock.so/0.1.0
 23 25  0  0  0  0  0  0  0  0999 V2000
  -49.0902   -0.9836   15.2708 O   0  0  0  0  0  0
  -49.5597   -5.7436   16.0568 O   0  0  0  0  0  0
  -49.6219   -4.6863   13.6563 O   0  0  0  0  0  0
  -48.9630   -2.7342   19.6821 O   0  0  0  0  0  0
  -48.9232    3.5904   10.9073 O   0  0  0  0  0  0
  -49.3304   -3.3779   15.6023 C   0  0  0  0  0  0
  -49.1517   -2.0837   16.0882 C   0  0  0  0  0  0
  -49.2033   -1.1710   13.9015 C   0  0  0  0  0  0
  -49.1295    0.0779   13.1171 C   0  0  0  0  0  0
  -49.4600   -3.5794   14.1512 C   0  0  0  0  0  0
  -49.3846   -2.3647   13.3145 C   0  0  0  0  0  0
  -49.3863   -4.4613   16.4820 C   0  0  0  0  0  0
  -49.0280   -1.8651   17.4604 C   0  0  0  0  0  0
  -49.0831   -2.9446   18.3424 C   0  0  0  0  0  0
  -49.2618   -4.2398   17.8541 C   0  0  0  0  0  0
  -47.9986    0.3560   12.3456 C   0  0  0  0  0  0
  -50.1907    0.9859   13.1420 C   0  0  0  0  0  0
  -47.9292    1.5354   11.6040 C   0  0  0  0  0  0
  -50.1214    2.1652   12.4002 C   0  0  0  0  0  0
  -48.9905    2.4400   11.6313 C   0  0  0  0  0  0
  -49.9327   -5.7580   15.1622 H   0  0  0  0  0  0
  -49.3976   -1.8945   19.9099 H   0  0  0  0  0  0
  -49.5309    3.5226   10.1509 H   0  0  0  0  0  0
  1  7  1  0  0  0
  1  8  1  0  0  0
  2 12  1  0  0  0
  2 21  1  0  0  0
  3 10  2  0  0  0
  4 14  1  0  0  0
  4 22  1  0  0  0
  5 20  1  0  0  0
  5 23  1  0  0  0
  6  7  1  0  0  0
  6 10  1  0  0  0
  6 12  2  0  0  0
  7 13  2  0  0  0
  8  9  1  0  0  0
  8 11  2  0  0  0
  9 16  2  0  0  0
  9 17  1  0  0  0
 10 11  1  0  0  0
 12 15  1  0  0  0
 13 14  1  0  0  0
 14 15  2  0  0  0
 16 18  1  0  0  0
 17 19  2  0  0  0
 18 20  2  0  0  0
 19 20  1  0  0  0
M  END
>  <CHROM.0>
-52.05792891,61.36928196,177.26601987

>  <CHROM.1>
-19.51664435,35.86047418,107.99245246,108.32197085,-49.19665626,-1.47667896
14.67296776,-1.96656656,-1.48503689,-1.12916662

>  <Name>
5280443

>  <PUBCHEM_ATOM_DEF_STEREO_COUNT>
0

>  <PUBCHEM_ATOM_UDEF_STEREO_COUNT>
0

>  <PUBCHEM_BOND_DEF_STEREO_COUNT>
0

>  <PUBCHEM_BOND_UDEF_STEREO_COUNT>
0

>  <PUBCHEM_CACTVS_TAUTO_COUNT>
57

>  <PUBCHEM_COMPONENT_COUNT>
1

>  <PUBCHEM_COMPOUND_CID>
5280443

>  <PUBCHEM_CONFORMER_DIVERSEORDER>
1

>  <PUBCHEM_CONFORMER_ID>
005092BB00000001

>  <PUBCHEM_CONFORMER_RMSD>
0.6

>  <PUBCHEM_COORDINATE_TYPE>
2
5
10

>  <PUBCHEM_EFFECTIVE_ROTOR_COUNT>
1

>  <PUBCHEM_FEATURE_SELFOVERLAP>
40.625

>  <PUBCHEM_HEAVY_ATOM_COUNT>
20

>  <PUBCHEM_ISOTOPIC_ATOM_COUNT>
0

>  <PUBCHEM_MMFF94_ENERGY>
60.7436

>  <PUBCHEM_MMFF94_PARTIAL_CHARGES>
30
1 -0.16
10 0.47
11 -0.14
12 0.08
13 -0.15
14 0.08
15 -0.15
16 -0.15
17 -0.15
18 -0.15
19 -0.15
2 -0.53
20 0.08
21 0.15
22 0.15
23 0.15
24 0.15
25 0.15
26 0.15
27 0.15
28 0.45
29 0.45
3 -0.57
30 0.45
4 -0.53
5 -0.53
6 0.09
7 0.08
8 0.05
9 0.03

>  <PUBCHEM_PHARMACOPHORE_FEATURES>
8
1 1 acceptor
1 2 donor
1 3 acceptor
1 4 donor
1 5 donor
6 1 6 7 8 10 11 rings
6 6 7 12 13 14 15 rings
6 9 16 17 18 19 20 rings

>  <PUBCHEM_SHAPE_FINGERPRINT>
10014705 185 18335983090743610973
10319926 262 18339344337187947850
10411042 1 17833271196427205891
10493431 412 18339369544277550625
10498660 4 18336260146151624709
10608611 8 18342173405853837512
10646746 165 18410292501880224548
11315181 36 17967532415338923724
12107183 9 17973996255225508682
12173636 292 18409726227717107541
12236239 1 17458341966376888130
12390115 104 18270696268119625369
12403259 415 18202279234227041088
12500047 106 18411979165633848254
13073987 5 18334573538601782738
13140716 1 17974859676764465403
13544592 145 18269848531875060550
14508225 48 18124582335750861655
14790565 3 17908712730609502257
15042514 8 18192436496683379403
15196674 1 18411138009184468990
15375358 24 18272089392275024390
17844677 252 18338524131077601056
18186145 218 18201727210401115800
200 152 17060622204808618226
20510252 161 18342459253144016673
20645477 56 18410013234284757832
20645477 70 17203058396143606462
21033648 29 18271516554985427096
21065198 57 18411699920035301594
21236236 1 18412826893710328947
21267235 1 18337116777299593123
21279426 13 18269277859449011198
21421861 104 17750502976618702298
23402539 116 18412538829647092654
23402655 69 18131067100338114972
23557571 272 18342746247148492668
23559900 14 18271807861775124550
245318 6 16448986100328701468
283562 15 18410291424461079675
2916195 48 18342730849902058064
3004659 81 18335425613612532158
335352 9 18267022748231475478
350125 39 18410298038462750009
3545911 37 18342460348455732712
4028521 119 18341892965631935697
4214541 1 18411419514231212472
474 4 16879077545412114420
495365 180 17346021334593014002
5104073 3 18410011005465809410
542803 24 17530686524359763644
559249 180 18337386046670377618
633830 44 18199743644401676445
69090 78 18272086119177836790
77779 3 18412263930592437412
9709674 26 18342463655380539086

>  <PUBCHEM_SHAPE_MULTIPOLES>
382.24
10.96
2.41
0.66
9.09
0.24
0
-3.75
0.48
-2.84
-0.06
0.21
-0.01
0.71

>  <PUBCHEM_SHAPE_SELFOVERLAP>
856.39

>  <PUBCHEM_SHAPE_VOLUME>
201.3

>  <RI>
-6.92772e+08

>  <Rbt.Current_Directory>
/root/miniconda3/envs/rdock/share/rxdock-2013.1.1_148c5bd1-0/data/ligands/prepped_ligands/Apigenin

>  <Rbt.Executable>
rbdock/0.1.0

>  <Rbt.Library>
librxdock.so/0.1.0

>  <Rbt.Parameter_File>
/root/miniconda3/envs/rdock/share/rxdock-2013.1.1_148c5bd1-0/data/scripts/dock.prm

>  <Rbt.Receptor>
def.prm

>  <SCORE>
-12.0718

>  <SCORE.INTER>
-14.3448

>  <SCORE.INTER.CONST>
1

>  <SCORE.INTER.POLAR>
-0.722883

>  <SCORE.INTER.REPUL>
0

>  <SCORE.INTER.ROT>
1

>  <SCORE.INTER.VDW>
-18.287

>  <SCORE.INTER.norm>
-0.717242

>  <SCORE.INTRA>
3.199

>  <SCORE.INTRA.DIHEDRAL>
9.64381

>  <SCORE.INTRA.DIHEDRAL.0>
1.23283

>  <SCORE.INTRA.POLAR>
0

>  <SCORE.INTRA.POLAR.0>
0

>  <SCORE.INTRA.REPUL>
0

>  <SCORE.INTRA.REPUL.0>
0

>  <SCORE.INTRA.VDW>
-1.6229

>  <SCORE.INTRA.VDW.0>
1.06701

>  <SCORE.INTRA.norm>
0.15995

>  <SCORE.RESTR>
0

>  <SCORE.RESTR.CAVITY>
0

>  <SCORE.RESTR.norm>
0

>  <SCORE.SYSTEM>
-0.926008

>  <SCORE.SYSTEM.CONST>
0

>  <SCORE.SYSTEM.DIHEDRAL>
0.177777

>  <SCORE.SYSTEM.VDW>
-1.0149

>  <SCORE.SYSTEM.norm>
-0.0463004

>  <SCORE.heavy>
20

>  <SCORE.norm>
-0.603592

$$$$
5280443
  RxDock  02242110243D
librxdock.so/0.1.0
 23 25  0  0  0  0  0  0  0  0999 V2000
  -47.0385   -0.3963   16.2401 O   0  0  0  0  0  0
  -42.9322   -2.6174   17.5445 O   0  0  0  0  0  0
  -43.6190   -2.2569   15.0380 O   0  0  0  0  0  0
  -45.9485   -0.9748   20.8246 O   0  0  0  0  0  0
  -50.6253    1.5136   11.3960 O   0  0  0  0  0  0
  -44.9663   -1.5167   16.8327 C   0  0  0  0  0  0
  -46.1540   -0.8723   17.1747 C   0  0  0  0  0  0
  -46.7313   -0.5580   14.8976 C   0  0  0  0  0  0
  -47.7525   -0.0156   13.9791 C   0  0  0  0  0  0
  -44.6417   -1.6981   15.4097 C   0  0  0  0  0  0
  -45.6241   -1.1664   14.4434 C   0  0  0  0  0  0
  -44.1031   -1.9817   17.8274 C   0  0  0  0  0  0
  -46.4863   -0.6891   18.5171 C   0  0  0  0  0  0
  -45.6267   -1.1519   19.5137 C   0  0  0  0  0  0
  -44.4378   -1.7967   19.1694 C   0  0  0  0  0  0
  -49.0751    0.1272   14.4059 C   0  0  0  0  0  0
  -47.4003    0.3582   12.6801 C   0  0  0  0  0  0
  -50.0395    0.6402   13.5386 C   0  0  0  0  0  0
  -48.3648    0.8716   11.8129 C   0  0  0  0  0  0
  -49.6845    1.0124   12.2421 C   0  0  0  0  0  0
  -43.0495   -3.2337   16.8056 H   0  0  0  0  0  0
  -46.9087   -1.0870   20.9317 H   0  0  0  0  0  0
  -50.2092    1.6996   10.5368 H   0  0  0  0  0  0
  1  7  1  0  0  0
  1  8  1  0  0  0
  2 12  1  0  0  0
  2 21  1  0  0  0
  3 10  2  0  0  0
  4 14  1  0  0  0
  4 22  1  0  0  0
  5 20  1  0  0  0
  5 23  1  0  0  0
  6  7  1  0  0  0
  6 10  1  0  0  0
  6 12  2  0  0  0
  7 13  2  0  0  0
  8  9  1  0  0  0
  8 11  2  0  0  0
  9 16  2  0  0  0
  9 17  1  0  0  0
 10 11  1  0  0  0
 12 15  1  0  0  0
 13 14  1  0  0  0
 14 15  2  0  0  0
 16 18  1  0  0  0
 17 19  2  0  0  0
 18 20  2  0  0  0
 19 20  1  0  0  0
M  END
>  <CHROM.0>
-165.52444888,61.17355648,53.38561679

>  <CHROM.1>
-41.02386513,37.16052395,-178.80121548,-24.09556297,-46.54572114,-0.67107977
15.69924590,0.86618725,-0.46094941,1.60681916

>  <Name>
5280443

>  <PUBCHEM_ATOM_DEF_STEREO_COUNT>
0

>  <PUBCHEM_ATOM_UDEF_STEREO_COUNT>
0

>  <PUBCHEM_BOND_DEF_STEREO_COUNT>
0

>  <PUBCHEM_BOND_UDEF_STEREO_COUNT>
0

>  <PUBCHEM_CACTVS_TAUTO_COUNT>
57

>  <PUBCHEM_COMPONENT_COUNT>
1

>  <PUBCHEM_COMPOUND_CID>
5280443

>  <PUBCHEM_CONFORMER_DIVERSEORDER>
1

>  <PUBCHEM_CONFORMER_ID>
005092BB00000001

>  <PUBCHEM_CONFORMER_RMSD>
0.6

>  <PUBCHEM_COORDINATE_TYPE>
2
5
10

>  <PUBCHEM_EFFECTIVE_ROTOR_COUNT>
1

>  <PUBCHEM_FEATURE_SELFOVERLAP>
40.625

>  <PUBCHEM_HEAVY_ATOM_COUNT>
20

>  <PUBCHEM_ISOTOPIC_ATOM_COUNT>
0

>  <PUBCHEM_MMFF94_ENERGY>
60.7436

>  <PUBCHEM_MMFF94_PARTIAL_CHARGES>
30
1 -0.16
10 0.47
11 -0.14
12 0.08
13 -0.15
14 0.08
15 -0.15
16 -0.15
17 -0.15
18 -0.15
19 -0.15
2 -0.53
20 0.08
21 0.15
22 0.15
23 0.15
24 0.15
25 0.15
26 0.15
27 0.15
28 0.45
29 0.45
3 -0.57
30 0.45
4 -0.53
5 -0.53
6 0.09
7 0.08
8 0.05
9 0.03

>  <PUBCHEM_PHARMACOPHORE_FEATURES>
8
1 1 acceptor
1 2 donor
1 3 acceptor
1 4 donor
1 5 donor
6 1 6 7 8 10 11 rings
6 6 7 12 13 14 15 rings
6 9 16 17 18 19 20 rings

>  <PUBCHEM_SHAPE_FINGERPRINT>
10014705 185 18335983090743610973
10319926 262 18339344337187947850
10411042 1 17833271196427205891
10493431 412 18339369544277550625
10498660 4 18336260146151624709
10608611 8 18342173405853837512
10646746 165 18410292501880224548
11315181 36 17967532415338923724
12107183 9 17973996255225508682
12173636 292 18409726227717107541
12236239 1 17458341966376888130
12390115 104 18270696268119625369
12403259 415 18202279234227041088
12500047 106 18411979165633848254
13073987 5 18334573538601782738
13140716 1 17974859676764465403
13544592 145 18269848531875060550
14508225 48 18124582335750861655
14790565 3 17908712730609502257
15042514 8 18192436496683379403
15196674 1 18411138009184468990
15375358 24 18272089392275024390
17844677 252 18338524131077601056
18186145 218 18201727210401115800
200 152 17060622204808618226
20510252 161 18342459253144016673
20645477 56 18410013234284757832
20645477 70 17203058396143606462
21033648 29 18271516554985427096
21065198 57 18411699920035301594
21236236 1 18412826893710328947
21267235 1 18337116777299593123
21279426 13 18269277859449011198
21421861 104 17750502976618702298
23402539 116 18412538829647092654
23402655 69 18131067100338114972
23557571 272 18342746247148492668
23559900 14 18271807861775124550
245318 6 16448986100328701468
283562 15 18410291424461079675
2916195 48 18342730849902058064
3004659 81 18335425613612532158
335352 9 18267022748231475478
350125 39 18410298038462750009
3545911 37 18342460348455732712
4028521 119 18341892965631935697
4214541 1 18411419514231212472
474 4 16879077545412114420
495365 180 17346021334593014002
5104073 3 18410011005465809410
542803 24 17530686524359763644
559249 180 18337386046670377618
633830 44 18199743644401676445
69090 78 18272086119177836790
77779 3 18412263930592437412
9709674 26 18342463655380539086

>  <PUBCHEM_SHAPE_MULTIPOLES>
382.24
10.96
2.41
0.66
9.09
0.24
0
-3.75
0.48
-2.84
-0.06
0.21
-0.01
0.71

>  <PUBCHEM_SHAPE_SELFOVERLAP>
856.39

>  <PUBCHEM_SHAPE_VOLUME>
201.3

>  <RI>
-6.92772e+08

>  <Rbt.Current_Directory>
/root/miniconda3/envs/rdock/share/rxdock-2013.1.1_148c5bd1-0/data/ligands/prepped_ligands/Apigenin

>  <Rbt.Executable>
rbdock/0.1.0

>  <Rbt.Library>
librxdock.so/0.1.0

>  <Rbt.Parameter_File>
/root/miniconda3/envs/rdock/share/rxdock-2013.1.1_148c5bd1-0/data/scripts/dock.prm

>  <Rbt.Receptor>
def.prm

>  <SCORE>
-7.87432

>  <SCORE.INTER>
-8.45262

>  <SCORE.INTER.CONST>
1

>  <SCORE.INTER.POLAR>
-1.78204

>  <SCORE.INTER.REPUL>
0.199085

>  <SCORE.INTER.ROT>
1

>  <SCORE.INTER.VDW>
-9.78912

>  <SCORE.INTER.norm>
-0.422631

>  <SCORE.INTRA>
1.21275

>  <SCORE.INTRA.DIHEDRAL>
3.42332

>  <SCORE.INTRA.DIHEDRAL.0>
1.23283

>  <SCORE.INTRA.POLAR>
0

>  <SCORE.INTRA.POLAR.0>
0

>  <SCORE.INTRA.REPUL>
0

>  <SCORE.INTRA.REPUL.0>
0

>  <SCORE.INTRA.VDW>
-0.498906

>  <SCORE.INTRA.VDW.0>
1.06701

>  <SCORE.INTRA.norm>
0.0606376

>  <SCORE.RESTR>
0.00117791

>  <SCORE.RESTR.CAVITY>
0.00117791

>  <SCORE.RESTR.norm>
5.88954e-05

>  <SCORE.SYSTEM>
-0.635637

>  <SCORE.SYSTEM.CONST>
0

>  <SCORE.SYSTEM.DIHEDRAL>
0.602163

>  <SCORE.SYSTEM.VDW>
-0.936719

>  <SCORE.SYSTEM.norm>
-0.0317819

>  <SCORE.heavy>
20

>  <SCORE.norm>
-0.393716

$$$$
5280443
  RxDock  02242110243D
librxdock.so/0.1.0
 23 25  0  0  0  0  0  0  0  0999 V2000
  -50.9570   -2.7075   14.7949 O   0  0  0  0  0  0
  -46.1670   -2.1033   15.2266 O   0  0  0  0  0  0
  -47.4355   -4.1687   16.2313 O   0  0  0  0  0  0
  -48.8169    1.0947   12.9231 O   0  0  0  0  0  0
  -55.8925   -6.4126   16.1728 O   0  0  0  0  0  0
  -48.5535   -2.4593   15.0430 C   0  0  0  0  0  0
  -49.7915   -2.0161   14.5809 C   0  0  0  0  0  0
  -50.8967   -3.9029   15.4952 C   0  0  0  0  0  0
  -52.2069   -4.5603   15.6734 C   0  0  0  0  0  0
  -48.4870   -3.7222   15.7941 C   0  0  0  0  0  0
  -49.7678   -4.4296   15.9956 C   0  0  0  0  0  0
  -47.3989   -1.7132   14.7961 C   0  0  0  0  0  0
  -49.8823   -0.8207   13.8676 C   0  0  0  0  0  0
  -48.7313   -0.0726   13.6187 C   0  0  0  0  0  0
  -47.4925   -0.5180   14.0819 C   0  0  0  0  0  0
  -53.2722   -4.2426   14.8274 C   0  0  0  0  0  0
  -52.3863   -5.5038   16.6879 C   0  0  0  0  0  0
  -54.5096   -4.8641   14.9953 C   0  0  0  0  0  0
  -53.6237   -6.1255   16.8555 C   0  0  0  0  0  0
  -54.6854   -5.8056   16.0093 C   0  0  0  0  0  0
  -45.4923   -1.4639   14.9518 H   0  0  0  0  0  0
  -49.7497    1.3654   12.8746 H   0  0  0  0  0  0
  -56.3499   -6.4404   15.3149 H   0  0  0  0  0  0
  1  7  1  0  0  0
  1  8  1  0  0  0
  2 12  1  0  0  0
  2 21  1  0  0  0
  3 10  2  0  0  0
  4 14  1  0  0  0
  4 22  1  0  0  0
  5 20  1  0  0  0
  5 23  1  0  0  0
  6  7  1  0  0  0
  6 10  1  0  0  0
  6 12  2  0  0  0
  7 13  2  0  0  0
  8  9  1  0  0  0
  8 11  2  0  0  0
  9 16  2  0  0  0
  9 17  1  0  0  0
 10 11  1  0  0  0
 12 15  1  0  0  0
 13 14  1  0  0  0
 14 15  2  0  0  0
 16 18  1  0  0  0
 17 19  2  0  0  0
 18 20  2  0  0  0
 19 20  1  0  0  0
M  END
>  <CHROM.0>
56.17042245,-66.21875266,-179.84301514

>  <CHROM.1>
179.38146383,14.08485317,27.80180685,20.72851459,-50.52279532,-3.22559502
15.16998630,0.63131826,-0.16398502,-0.56282802

>  <Name>
5280443

>  <PUBCHEM_ATOM_DEF_STEREO_COUNT>
0

>  <PUBCHEM_ATOM_UDEF_STEREO_COUNT>
0

>  <PUBCHEM_BOND_DEF_STEREO_COUNT>
0

>  <PUBCHEM_BOND_UDEF_STEREO_COUNT>
0

>  <PUBCHEM_CACTVS_TAUTO_COUNT>
57

>  <PUBCHEM_COMPONENT_COUNT>
1

>  <PUBCHEM_COMPOUND_CID>
5280443

>  <PUBCHEM_CONFORMER_DIVERSEORDER>
1

>  <PUBCHEM_CONFORMER_ID>
005092BB00000001

>  <PUBCHEM_CONFORMER_RMSD>
0.6

>  <PUBCHEM_COORDINATE_TYPE>
2
5
10

>  <PUBCHEM_EFFECTIVE_ROTOR_COUNT>
1

>  <PUBCHEM_FEATURE_SELFOVERLAP>
40.625

>  <PUBCHEM_HEAVY_ATOM_COUNT>
20

>  <PUBCHEM_ISOTOPIC_ATOM_COUNT>
0

>  <PUBCHEM_MMFF94_ENERGY>
60.7436

>  <PUBCHEM_MMFF94_PARTIAL_CHARGES>
30
1 -0.16
10 0.47
11 -0.14
12 0.08
13 -0.15
14 0.08
15 -0.15
16 -0.15
17 -0.15
18 -0.15
19 -0.15
2 -0.53
20 0.08
21 0.15
22 0.15
23 0.15
24 0.15
25 0.15
26 0.15
27 0.15
28 0.45
29 0.45
3 -0.57
30 0.45
4 -0.53
5 -0.53
6 0.09
7 0.08
8 0.05
9 0.03

>  <PUBCHEM_PHARMACOPHORE_FEATURES>
8
1 1 acceptor
1 2 donor
1 3 acceptor
1 4 donor
1 5 donor
6 1 6 7 8 10 11 rings
6 6 7 12 13 14 15 rings
6 9 16 17 18 19 20 rings

>  <PUBCHEM_SHAPE_FINGERPRINT>
10014705 185 18335983090743610973
10319926 262 18339344337187947850
10411042 1 17833271196427205891
10493431 412 18339369544277550625
10498660 4 18336260146151624709
10608611 8 18342173405853837512
10646746 165 18410292501880224548
11315181 36 17967532415338923724
12107183 9 17973996255225508682
12173636 292 18409726227717107541
12236239 1 17458341966376888130
12390115 104 18270696268119625369
12403259 415 18202279234227041088
12500047 106 18411979165633848254
13073987 5 18334573538601782738
13140716 1 17974859676764465403
13544592 145 18269848531875060550
14508225 48 18124582335750861655
14790565 3 17908712730609502257
15042514 8 18192436496683379403
15196674 1 18411138009184468990
15375358 24 18272089392275024390
17844677 252 18338524131077601056
18186145 218 18201727210401115800
200 152 17060622204808618226
20510252 161 18342459253144016673
20645477 56 18410013234284757832
20645477 70 17203058396143606462
21033648 29 18271516554985427096
21065198 57 18411699920035301594
21236236 1 18412826893710328947
21267235 1 18337116777299593123
21279426 13 18269277859449011198
21421861 104 17750502976618702298
23402539 116 18412538829647092654
23402655 69 18131067100338114972
23557571 272 18342746247148492668
23559900 14 18271807861775124550
245318 6 16448986100328701468
283562 15 18410291424461079675
2916195 48 18342730849902058064
3004659 81 18335425613612532158
335352 9 18267022748231475478
350125 39 18410298038462750009
3545911 37 18342460348455732712
4028521 119 18341892965631935697
4214541 1 18411419514231212472
474 4 16879077545412114420
495365 180 17346021334593014002
5104073 3 18410011005465809410
542803 24 17530686524359763644
559249 180 18337386046670377618
633830 44 18199743644401676445
69090 78 18272086119177836790
77779 3 18412263930592437412
9709674 26 18342463655380539086

>  <PUBCHEM_SHAPE_MULTIPOLES>
382.24
10.96
2.41
0.66
9.09
0.24
0
-3.75
0.48
-2.84
-0.06
0.21
-0.01
0.71

>  <PUBCHEM_SHAPE_SELFOVERLAP>
856.39

>  <PUBCHEM_SHAPE_VOLUME>
201.3

>  <RI>
-6.92772e+08

>  <Rbt.Current_Directory>
/root/miniconda3/envs/rdock/share/rxdock-2013.1.1_148c5bd1-0/data/ligands/prepped_ligands/Apigenin

>  <Rbt.Executable>
rbdock/0.1.0

>  <Rbt.Library>
librxdock.so/0.1.0

>  <Rbt.Parameter_File>
/root/miniconda3/envs/rdock/share/rxdock-2013.1.1_148c5bd1-0/data/scripts/dock.prm

>  <Rbt.Receptor>
def.prm

>  <SCORE>
-14.7827

>  <SCORE.INTER>
-14.3155

>  <SCORE.INTER.CONST>
1

>  <SCORE.INTER.POLAR>
-1.31408

>  <SCORE.INTER.REPUL>
0.02544

>  <SCORE.INTER.ROT>
1

>  <SCORE.INTER.VDW>
-16.3748

>  <SCORE.INTER.norm>
-0.715776

>  <SCORE.INTRA>
0.558899

>  <SCORE.INTRA.DIHEDRAL>
0.671948

>  <SCORE.INTRA.DIHEDRAL.0>
1.23283

>  <SCORE.INTRA.POLAR>
0

>  <SCORE.INTRA.POLAR.0>
0

>  <SCORE.INTRA.REPUL>
0

>  <SCORE.INTRA.REPUL.0>
0

>  <SCORE.INTRA.VDW>
0.222926

>  <SCORE.INTRA.VDW.0>
1.06701

>  <SCORE.INTRA.norm>
0.027945

>  <SCORE.RESTR>
0

>  <SCORE.RESTR.CAVITY>
0

>  <SCORE.RESTR.norm>
0

>  <SCORE.SYSTEM>
-1.02611

>  <SCORE.SYSTEM.CONST>
0

>  <SCORE.SYSTEM.DIHEDRAL>
0.228172

>  <SCORE.SYSTEM.POLAR>
-0.00238669

>  <SCORE.SYSTEM.VDW>
-1.13208

>  <SCORE.SYSTEM.norm>
-0.0513054

>  <SCORE.heavy>
20

>  <SCORE.norm>
-0.739136

$$$$
5280443
  RxDock  02242110243D
librxdock.so/0.1.0
 23 25  0  0  0  0  0  0  0  0999 V2000
  -49.0744   -4.9690   16.7090 O   0  0  0  0  0  0
  -52.5365   -8.2714   17.4861 O   0  0  0  0  0  0
  -52.8074   -6.3047   15.7706 O   0  0  0  0  0  0
  -48.4262   -8.4627   19.8576 O   0  0  0  0  0  0
  -47.4407    0.2117   13.4715 O   0  0  0  0  0  0
  -50.8453   -6.5951   17.0551 C   0  0  0  0  0  0
  -49.5779   -6.0841   17.3296 C   0  0  0  0  0  0
  -49.8598   -4.3287   15.7623 C   0  0  0  0  0  0
  -49.2247   -3.1385   15.1618 C   0  0  0  0  0  0
  -51.6847   -5.9133   16.0582 C   0  0  0  0  0  0
  -51.0968   -4.7197   15.4170 C   0  0  0  0  0  0
  -51.3067   -7.7342   17.7186 C   0  0  0  0  0  0
  -48.7625   -6.7109   18.2721 C   0  0  0  0  0  0
  -49.2195   -7.8491   18.9370 C   0  0  0  0  0  0
  -50.4888   -8.3595   18.6607 C   0  0  0  0  0  0
  -49.0091   -3.0789   13.7828 C   0  0  0  0  0  0
  -48.8380   -2.0666   15.9697 C   0  0  0  0  0  0
  -48.4098   -1.9543   13.2154 C   0  0  0  0  0  0
  -48.2390   -0.9419   15.4023 C   0  0  0  0  0  0
  -48.0248   -0.8858   14.0251 C   0  0  0  0  0  0
  -52.6746   -8.4066   16.5362 H   0  0  0  0  0  0
  -47.5381   -8.0679   19.8220 H   0  0  0  0  0  0
  -46.8278   -0.0760   12.7733 H   0  0  0  0  0  0
  1  7  1  0  0  0
  1  8  1  0  0  0
  2 12  1  0  0  0
  2 21  1  0  0  0
  3 10  2  0  0  0
  4 14  1  0  0  0
  4 22  1  0  0  0
  5 20  1  0  0  0
  5 23  1  0  0  0
  6  7  1  0  0  0
  6 10  1  0  0  0
  6 12  2  0  0  0
  7 13  2  0  0  0
  8  9  1  0  0  0
  8 11  2  0  0  0
  9 16  2  0  0  0
  9 17  1  0  0  0
 10 11  1  0  0  0
 12 15  1  0  0  0
 13 14  1  0  0  0
 14 15  2  0  0  0
 16 18  1  0  0  0
 17 19  2  0  0  0
 18 20  2  0  0  0
 19 20  1  0  0  0
M  END
>  <CHROM.0>
173.76450897,-62.25185978,56.63322287

>  <CHROM.1>
51.23822423,-8.96573266,-39.58777709,120.59471514,-49.74605718,-4.93839216
16.31752897,-1.89587821,-0.46075816,-0.69958500

>  <Name>
5280443

>  <PUBCHEM_ATOM_DEF_STEREO_COUNT>
0

>  <PUBCHEM_ATOM_UDEF_STEREO_COUNT>
0

>  <PUBCHEM_BOND_DEF_STEREO_COUNT>
0

>  <PUBCHEM_BOND_UDEF_STEREO_COUNT>
0

>  <PUBCHEM_CACTVS_TAUTO_COUNT>
57

>  <PUBCHEM_COMPONENT_COUNT>
1

>  <PUBCHEM_COMPOUND_CID>
5280443

>  <PUBCHEM_CONFORMER_DIVERSEORDER>
1

>  <PUBCHEM_CONFORMER_ID>
005092BB00000001

>  <PUBCHEM_CONFORMER_RMSD>
0.6

>  <PUBCHEM_COORDINATE_TYPE>
2
5
10

>  <PUBCHEM_EFFECTIVE_ROTOR_COUNT>
1

>  <PUBCHEM_FEATURE_SELFOVERLAP>
40.625

>  <PUBCHEM_HEAVY_ATOM_COUNT>
20

>  <PUBCHEM_ISOTOPIC_ATOM_COUNT>
0

>  <PUBCHEM_MMFF94_ENERGY>
60.7436

>  <PUBCHEM_MMFF94_PARTIAL_CHARGES>
30
1 -0.16
10 0.47
11 -0.14
12 0.08
13 -0.15
14 0.08
15 -0.15
16 -0.15
17 -0.15
18 -0.15
19 -0.15
2 -0.53
20 0.08
21 0.15
22 0.15
23 0.15
24 0.15
25 0.15
26 0.15
27 0.15
28 0.45
29 0.45
3 -0.57
30 0.45
4 -0.53
5 -0.53
6 0.09
7 0.08
8 0.05
9 0.03

>  <PUBCHEM_PHARMACOPHORE_FEATURES>
8
1 1 acceptor
1 2 donor
1 3 acceptor
1 4 donor
1 5 donor
6 1 6 7 8 10 11 rings
6 6 7 12 13 14 15 rings
6 9 16 17 18 19 20 rings

>  <PUBCHEM_SHAPE_FINGERPRINT>
10014705 185 18335983090743610973
10319926 262 18339344337187947850
10411042 1 17833271196427205891
10493431 412 18339369544277550625
10498660 4 18336260146151624709
10608611 8 18342173405853837512
10646746 165 18410292501880224548
11315181 36 17967532415338923724
12107183 9 17973996255225508682
12173636 292 18409726227717107541
12236239 1 17458341966376888130
12390115 104 18270696268119625369
12403259 415 18202279234227041088
12500047 106 18411979165633848254
13073987 5 18334573538601782738
13140716 1 17974859676764465403
13544592 145 18269848531875060550
14508225 48 18124582335750861655
14790565 3 17908712730609502257
15042514 8 18192436496683379403
15196674 1 18411138009184468990
15375358 24 18272089392275024390
17844677 252 18338524131077601056
18186145 218 18201727210401115800
200 152 17060622204808618226
20510252 161 18342459253144016673
20645477 56 18410013234284757832
20645477 70 17203058396143606462
21033648 29 18271516554985427096
21065198 57 18411699920035301594
21236236 1 18412826893710328947
21267235 1 18337116777299593123
21279426 13 18269277859449011198
21421861 104 17750502976618702298
23402539 116 18412538829647092654
23402655 69 18131067100338114972
23557571 272 18342746247148492668
23559900 14 18271807861775124550
245318 6 16448986100328701468
283562 15 18410291424461079675
2916195 48 18342730849902058064
3004659 81 18335425613612532158
335352 9 18267022748231475478
350125 39 18410298038462750009
3545911 37 18342460348455732712
4028521 119 18341892965631935697
4214541 1 18411419514231212472
474 4 16879077545412114420
495365 180 17346021334593014002
5104073 3 18410011005465809410
542803 24 17530686524359763644
559249 180 18337386046670377618
633830 44 18199743644401676445
69090 78 18272086119177836790
77779 3 18412263930592437412
9709674 26 18342463655380539086

>  <PUBCHEM_SHAPE_MULTIPOLES>
382.24
10.96
2.41
0.66
9.09
0.24
0
-3.75
0.48
-2.84
-0.06
0.21
-0.01
0.71

>  <PUBCHEM_SHAPE_SELFOVERLAP>
856.39

>  <PUBCHEM_SHAPE_VOLUME>
201.3

>  <RI>
-6.92772e+08

>  <Rbt.Current_Directory>
/root/miniconda3/envs/rdock/share/rxdock-2013.1.1_148c5bd1-0/data/ligands/prepped_ligands/Apigenin

>  <Rbt.Executable>
rbdock/0.1.0

>  <Rbt.Library>
librxdock.so/0.1.0

>  <Rbt.Parameter_File>
/root/miniconda3/envs/rdock/share/rxdock-2013.1.1_148c5bd1-0/data/scripts/dock.prm

>  <Rbt.Receptor>
def.prm

>  <SCORE>
-12.6111

>  <SCORE.INTER>
-13.9685

>  <SCORE.INTER.CONST>
1

>  <SCORE.INTER.POLAR>
-1.97986

>  <SCORE.INTER.REPUL>
0

>  <SCORE.INTER.ROT>
1

>  <SCORE.INTER.VDW>
-13.637

>  <SCORE.INTER.norm>
-0.698426

>  <SCORE.INTRA>
2.33716

>  <SCORE.INTRA.DIHEDRAL>
7.34209

>  <SCORE.INTRA.DIHEDRAL.0>
1.23283

>  <SCORE.INTRA.POLAR>
0

>  <SCORE.INTRA.POLAR.0>
0

>  <SCORE.INTRA.REPUL>
0

>  <SCORE.INTRA.REPUL.0>
0

>  <SCORE.INTRA.VDW>
-1.33389

>  <SCORE.INTRA.VDW.0>
1.06701

>  <SCORE.INTRA.norm>
0.116858

>  <SCORE.RESTR>
0

>  <SCORE.RESTR.CAVITY>
0

>  <SCORE.RESTR.norm>
0

>  <SCORE.SYSTEM>
-0.979782

>  <SCORE.SYSTEM.CONST>
0

>  <SCORE.SYSTEM.DIHEDRAL>
0.155431

>  <SCORE.SYSTEM.VDW>
-1.0575

>  <SCORE.SYSTEM.norm>
-0.0489891

>  <SCORE.heavy>
20

>  <SCORE.norm>
-0.630557

$$$$
5280443
  RxDock  02242110253D
librxdock.so/0.1.0
 23 25  0  0  0  0  0  0  0  0999 V2000
  -51.8526   -3.7440   15.1262 O   0  0  0  0  0  0
  -52.4948   -8.0443   17.2688 O   0  0  0  0  0  0
  -50.1206   -7.0367   16.7867 O   0  0  0  0  0  0
  -56.2207   -5.4270   15.9185 O   0  0  0  0  0  0
  -47.6194    0.4656   13.0423 O   0  0  0  0  0  0
  -52.1117   -5.9051   16.2043 C   0  0  0  0  0  0
  -52.6383   -4.7531   15.6226 C   0  0  0  0  0  0
  -50.4750   -3.8749   15.2151 C   0  0  0  0  0  0
  -49.7263   -2.7364   14.6461 C   0  0  0  0  0  0
  -50.6508   -6.0516   16.2920 C   0  0  0  0  0  0
  -49.8495   -4.9375   15.7461 C   0  0  0  0  0  0
  -52.9602   -6.9012   16.6927 C   0  0  0  0  0  0
  -54.0204   -4.5904   15.5255 C   0  0  0  0  0  0
  -54.8714   -5.5829   16.0123 C   0  0  0  0  0  0
  -54.3423   -6.7356   16.5947 C   0  0  0  0  0  0
  -48.3295   -2.7325   14.6711 C   0  0  0  0  0  0
  -50.4113   -1.6590   14.0793 C   0  0  0  0  0  0
  -47.6222   -1.6573   14.1330 C   0  0  0  0  0  0
  -49.7040   -0.5840   13.5409 C   0  0  0  0  0  0
  -48.3094   -0.5831   13.5679 C   0  0  0  0  0  0
  -51.5342   -7.9975   17.3899 H   0  0  0  0  0  0
  -56.4104   -4.6021   15.4396 H   0  0  0  0  0  0
  -46.7866    0.1363   12.6628 H   0  0  0  0  0  0
  1  7  1  0  0  0
  1  8  1  0  0  0
  2 12  1  0  0  0
  2 21  1  0  0  0
  3 10  2  0  0  0
  4 14  1  0  0  0
  4 22  1  0  0  0
  5 20  1  0  0  0
  5 23  1  0  0  0
  6  7  1  0  0  0
  6 10  1  0  0  0
  6 12  2  0  0  0
  7 13  2  0  0  0
  8  9  1  0  0  0
  8 11  2  0  0  0
  9 16  2  0  0  0
  9 17  1  0  0  0
 10 11  1  0  0  0
 12 15  1  0  0  0
 13 14  1  0  0  0
 14 15  2  0  0  0
 16 18  1  0  0  0
 17 19  2  0  0  0
 18 20  2  0  0  0
 19 20  1  0  0  0
M  END
>  <CHROM.0>
61.24152390,-61.60680692,-52.48952760

>  <CHROM.1>
7.59589357,3.55076165,33.07453368,179.80499943,-51.23759408,-4.17508384,15.34274204
2.28161399,0.01014765,2.67420721

>  <Name>
5280443

>  <PUBCHEM_ATOM_DEF_STEREO_COUNT>
0

>  <PUBCHEM_ATOM_UDEF_STEREO_COUNT>
0

>  <PUBCHEM_BOND_DEF_STEREO_COUNT>
0

>  <PUBCHEM_BOND_UDEF_STEREO_COUNT>
0

>  <PUBCHEM_CACTVS_TAUTO_COUNT>
57

>  <PUBCHEM_COMPONENT_COUNT>
1

>  <PUBCHEM_COMPOUND_CID>
5280443

>  <PUBCHEM_CONFORMER_DIVERSEORDER>
1

>  <PUBCHEM_CONFORMER_ID>
005092BB00000001

>  <PUBCHEM_CONFORMER_RMSD>
0.6

>  <PUBCHEM_COORDINATE_TYPE>
2
5
10

>  <PUBCHEM_EFFECTIVE_ROTOR_COUNT>
1

>  <PUBCHEM_FEATURE_SELFOVERLAP>
40.625

>  <PUBCHEM_HEAVY_ATOM_COUNT>
20

>  <PUBCHEM_ISOTOPIC_ATOM_COUNT>
0

>  <PUBCHEM_MMFF94_ENERGY>
60.7436

>  <PUBCHEM_MMFF94_PARTIAL_CHARGES>
30
1 -0.16
10 0.47
11 -0.14
12 0.08
13 -0.15
14 0.08
15 -0.15
16 -0.15
17 -0.15
18 -0.15
19 -0.15
2 -0.53
20 0.08
21 0.15
22 0.15
23 0.15
24 0.15
25 0.15
26 0.15
27 0.15
28 0.45
29 0.45
3 -0.57
30 0.45
4 -0.53
5 -0.53
6 0.09
7 0.08
8 0.05
9 0.03

>  <PUBCHEM_PHARMACOPHORE_FEATURES>
8
1 1 acceptor
1 2 donor
1 3 acceptor
1 4 donor
1 5 donor
6 1 6 7 8 10 11 rings
6 6 7 12 13 14 15 rings
6 9 16 17 18 19 20 rings

>  <PUBCHEM_SHAPE_FINGERPRINT>
10014705 185 18335983090743610973
10319926 262 18339344337187947850
10411042 1 17833271196427205891
10493431 412 18339369544277550625
10498660 4 18336260146151624709
10608611 8 18342173405853837512
10646746 165 18410292501880224548
11315181 36 17967532415338923724
12107183 9 17973996255225508682
12173636 292 18409726227717107541
12236239 1 17458341966376888130
12390115 104 18270696268119625369
12403259 415 18202279234227041088
12500047 106 18411979165633848254
13073987 5 18334573538601782738
13140716 1 17974859676764465403
13544592 145 18269848531875060550
14508225 48 18124582335750861655
14790565 3 17908712730609502257
15042514 8 18192436496683379403
15196674 1 18411138009184468990
15375358 24 18272089392275024390
17844677 252 18338524131077601056
18186145 218 18201727210401115800
200 152 17060622204808618226
20510252 161 18342459253144016673
20645477 56 18410013234284757832
20645477 70 17203058396143606462
21033648 29 18271516554985427096
21065198 57 18411699920035301594
21236236 1 18412826893710328947
21267235 1 18337116777299593123
21279426 13 18269277859449011198
21421861 104 17750502976618702298
23402539 116 18412538829647092654
23402655 69 18131067100338114972
23557571 272 18342746247148492668
23559900 14 18271807861775124550
245318 6 16448986100328701468
283562 15 18410291424461079675
2916195 48 18342730849902058064
3004659 81 18335425613612532158
335352 9 18267022748231475478
350125 39 18410298038462750009
3545911 37 18342460348455732712
4028521 119 18341892965631935697
4214541 1 18411419514231212472
474 4 16879077545412114420
495365 180 17346021334593014002
5104073 3 18410011005465809410
542803 24 17530686524359763644
559249 180 18337386046670377618
633830 44 18199743644401676445
69090 78 18272086119177836790
77779 3 18412263930592437412
9709674 26 18342463655380539086

>  <PUBCHEM_SHAPE_MULTIPOLES>
382.24
10.96
2.41
0.66
9.09
0.24
0
-3.75
0.48
-2.84
-0.06
0.21
-0.01
0.71

>  <PUBCHEM_SHAPE_SELFOVERLAP>
856.39

>  <PUBCHEM_SHAPE_VOLUME>
201.3

>  <RI>
-6.92772e+08

>  <Rbt.Current_Directory>
/root/miniconda3/envs/rdock/share/rxdock-2013.1.1_148c5bd1-0/data/ligands/prepped_ligands/Apigenin

>  <Rbt.Executable>
rbdock/0.1.0

>  <Rbt.Library>
librxdock.so/0.1.0

>  <Rbt.Parameter_File>
/root/miniconda3/envs/rdock/share/rxdock-2013.1.1_148c5bd1-0/data/scripts/dock.prm

>  <Rbt.Receptor>
def.prm

>  <SCORE>
-19.9723

>  <SCORE.INTER>
-19.3472

>  <SCORE.INTER.CONST>
1

>  <SCORE.INTER.POLAR>
-2.38843

>  <SCORE.INTER.REPUL>
0.103713

>  <SCORE.INTER.ROT>
1

>  <SCORE.INTER.VDW>
-18.1451

>  <SCORE.INTER.norm>
-0.967359

>  <SCORE.INTRA>
0.351122

>  <SCORE.INTRA.DIHEDRAL>
0.301353

>  <SCORE.INTRA.DIHEDRAL.0>
1.23283

>  <SCORE.INTRA.POLAR>
0

>  <SCORE.INTRA.POLAR.0>
0

>  <SCORE.INTRA.REPUL>
0

>  <SCORE.INTRA.REPUL.0>
0

>  <SCORE.INTRA.VDW>
0.200446

>  <SCORE.INTRA.VDW.0>
1.06701

>  <SCORE.INTRA.norm>
0.0175561

>  <SCORE.RESTR>
0

>  <SCORE.RESTR.CAVITY>
0

>  <SCORE.RESTR.norm>
0

>  <SCORE.SYSTEM>
-0.976234

>  <SCORE.SYSTEM.CONST>
0

>  <SCORE.SYSTEM.DIHEDRAL>
0.147236

>  <SCORE.SYSTEM.POLAR>
-0.0151058

>  <SCORE.SYSTEM.VDW>
-0.998493

>  <SCORE.SYSTEM.norm>
-0.0488117

>  <SCORE.heavy>
20

>  <SCORE.norm>
-0.998615

$$$$
5280443
  RxDock  02242110253D
librxdock.so/0.1.0
 23 25  0  0  0  0  0  0  0  0999 V2000
  -51.8741   -4.3381   14.8695 O   0  0  0  0  0  0
  -52.5889   -8.0973   17.8450 O   0  0  0  0  0  0
  -50.4201   -6.6223   17.9138 O   0  0  0  0  0  0
  -55.8553   -6.9114   14.6077 O   0  0  0  0  0  0
  -47.9236    0.3041   13.1867 O   0  0  0  0  0  0
  -52.1764   -6.2101   16.3875 C   0  0  0  0  0  0
  -52.6131   -5.3901   15.3485 C   0  0  0  0  0  0
  -50.6429   -4.0768   15.4514 C   0  0  0  0  0  0
  -49.9301   -2.9283   14.8568 C   0  0  0  0  0  0
  -50.8668   -5.9416   17.0009 C   0  0  0  0  0  0
  -50.1115   -4.7973   16.4519 C   0  0  0  0  0  0
  -52.9711   -7.2682   16.8343 C   0  0  0  0  0  0
  -53.8504   -5.6244   14.7484 C   0  0  0  0  0  0
  -54.6475   -6.6801   15.1918 C   0  0  0  0  0  0
  -54.2086   -7.5000   16.2324 C   0  0  0  0  0  0
  -50.5825   -1.7032   14.6986 C   0  0  0  0  0  0
  -48.6000   -3.0616   14.4511 C   0  0  0  0  0  0
  -49.9090   -0.6181   14.1376 C   0  0  0  0  0  0
  -47.9265   -1.9764   13.8904 C   0  0  0  0  0  0
  -48.5810   -0.7547   13.7334 C   0  0  0  0  0  0
  -51.6260   -8.0781   17.9551 H   0  0  0  0  0  0
  -55.8280   -6.5924   13.6894 H   0  0  0  0  0  0
  -47.0490    0.0081   12.8810 H   0  0  0  0  0  0
  1  7  1  0  0  0
  1  8  1  0  0  0
  2 12  1  0  0  0
  2 21  1  0  0  0
  3 10  2  0  0  0
  4 14  1  0  0  0
  4 22  1  0  0  0
  5 20  1  0  0  0
  5 23  1  0  0  0
  6  7  1  0  0  0
  6 10  1  0  0  0
  6 12  2  0  0  0
  7 13  2  0  0  0
  8  9  1  0  0  0
  8 11  2  0  0  0
  9 16  2  0  0  0
  9 17  1  0  0  0
 10 11  1  0  0  0
 12 15  1  0  0  0
 13 14  1  0  0  0
 14 15  2  0  0  0
 16 18  1  0  0  0
 17 19  2  0  0  0
 18 20  2  0  0  0
 19 20  1  0  0  0
M  END
>  <CHROM.0>
-65.40227908,-68.59620272,-61.92745256

>  <CHROM.1>
-21.67969289,27.62060494,-174.15523022,50.65652099,-51.33198886,-4.53655347
15.39564117,2.29060174,0.39803880,2.44614267

>  <Name>
5280443

>  <PUBCHEM_ATOM_DEF_STEREO_COUNT>
0

>  <PUBCHEM_ATOM_UDEF_STEREO_COUNT>
0

>  <PUBCHEM_BOND_DEF_STEREO_COUNT>
0

>  <PUBCHEM_BOND_UDEF_STEREO_COUNT>
0

>  <PUBCHEM_CACTVS_TAUTO_COUNT>
57

>  <PUBCHEM_COMPONENT_COUNT>
1

>  <PUBCHEM_COMPOUND_CID>
5280443

>  <PUBCHEM_CONFORMER_DIVERSEORDER>
1

>  <PUBCHEM_CONFORMER_ID>
005092BB00000001

>  <PUBCHEM_CONFORMER_RMSD>
0.6

>  <PUBCHEM_COORDINATE_TYPE>
2
5
10

>  <PUBCHEM_EFFECTIVE_ROTOR_COUNT>
1

>  <PUBCHEM_FEATURE_SELFOVERLAP>
40.625

>  <PUBCHEM_HEAVY_ATOM_COUNT>
20

>  <PUBCHEM_ISOTOPIC_ATOM_COUNT>
0

>  <PUBCHEM_MMFF94_ENERGY>
60.7436

>  <PUBCHEM_MMFF94_PARTIAL_CHARGES>
30
1 -0.16
10 0.47
11 -0.14
12 0.08
13 -0.15
14 0.08
15 -0.15
16 -0.15
17 -0.15
18 -0.15
19 -0.15
2 -0.53
20 0.08
21 0.15
22 0.15
23 0.15
24 0.15
25 0.15
26 0.15
27 0.15
28 0.45
29 0.45
3 -0.57
30 0.45
4 -0.53
5 -0.53
6 0.09
7 0.08
8 0.05
9 0.03

>  <PUBCHEM_PHARMACOPHORE_FEATURES>
8
1 1 acceptor
1 2 donor
1 3 acceptor
1 4 donor
1 5 donor
6 1 6 7 8 10 11 rings
6 6 7 12 13 14 15 rings
6 9 16 17 18 19 20 rings

>  <PUBCHEM_SHAPE_FINGERPRINT>
10014705 185 18335983090743610973
10319926 262 18339344337187947850
10411042 1 17833271196427205891
10493431 412 18339369544277550625
10498660 4 18336260146151624709
10608611 8 18342173405853837512
10646746 165 18410292501880224548
11315181 36 17967532415338923724
12107183 9 17973996255225508682
12173636 292 18409726227717107541
12236239 1 17458341966376888130
12390115 104 18270696268119625369
12403259 415 18202279234227041088
12500047 106 18411979165633848254
13073987 5 18334573538601782738
13140716 1 17974859676764465403
13544592 145 18269848531875060550
14508225 48 18124582335750861655
14790565 3 17908712730609502257
15042514 8 18192436496683379403
15196674 1 18411138009184468990
15375358 24 18272089392275024390
17844677 252 18338524131077601056
18186145 218 18201727210401115800
200 152 17060622204808618226
20510252 161 18342459253144016673
20645477 56 18410013234284757832
20645477 70 17203058396143606462
21033648 29 18271516554985427096
21065198 57 18411699920035301594
21236236 1 18412826893710328947
21267235 1 18337116777299593123
21279426 13 18269277859449011198
21421861 104 17750502976618702298
23402539 116 18412538829647092654
23402655 69 18131067100338114972
23557571 272 18342746247148492668
23559900 14 18271807861775124550
245318 6 16448986100328701468
283562 15 18410291424461079675
2916195 48 18342730849902058064
3004659 81 18335425613612532158
335352 9 18267022748231475478
350125 39 18410298038462750009
3545911 37 18342460348455732712
4028521 119 18341892965631935697
4214541 1 18411419514231212472
474 4 16879077545412114420
495365 180 17346021334593014002
5104073 3 18410011005465809410
542803 24 17530686524359763644
559249 180 18337386046670377618
633830 44 18199743644401676445
69090 78 18272086119177836790
77779 3 18412263930592437412
9709674 26 18342463655380539086

>  <PUBCHEM_SHAPE_MULTIPOLES>
382.24
10.96
2.41
0.66
9.09
0.24
0
-3.75
0.48
-2.84
-0.06
0.21
-0.01
0.71

>  <PUBCHEM_SHAPE_SELFOVERLAP>
856.39

>  <PUBCHEM_SHAPE_VOLUME>
201.3

>  <RI>
-6.92772e+08

>  <Rbt.Current_Directory>
/root/miniconda3/envs/rdock/share/rxdock-2013.1.1_148c5bd1-0/data/ligands/prepped_ligands/Apigenin

>  <Rbt.Executable>
rbdock/0.1.0

>  <Rbt.Library>
librxdock.so/0.1.0

>  <Rbt.Parameter_File>
/root/miniconda3/envs/rdock/share/rxdock-2013.1.1_148c5bd1-0/data/scripts/dock.prm

>  <Rbt.Receptor>
def.prm

>  <SCORE>
-14.0144

>  <SCORE.INTER>
-13.9902

>  <SCORE.INTER.CONST>
1

>  <SCORE.INTER.POLAR>
-1.36956

>  <SCORE.INTER.REPUL>
0.129464

>  <SCORE.INTER.ROT>
1

>  <SCORE.INTER.VDW>
-16.381

>  <SCORE.INTER.norm>
-0.699508

>  <SCORE.INTRA>
0.896094

>  <SCORE.INTRA.DIHEDRAL>
3.335

>  <SCORE.INTRA.DIHEDRAL.0>
1.23283

>  <SCORE.INTRA.POLAR>
0

>  <SCORE.INTRA.POLAR.0>
0

>  <SCORE.INTRA.REPUL>
0

>  <SCORE.INTRA.REPUL.0>
0

>  <SCORE.INTRA.VDW>
-0.771409

>  <SCORE.INTRA.VDW.0>
1.06701

>  <SCORE.INTRA.norm>
0.0448047

>  <SCORE.RESTR>
0

>  <SCORE.RESTR.CAVITY>
0

>  <SCORE.RESTR.norm>
0

>  <SCORE.SYSTEM>
-0.920296

>  <SCORE.SYSTEM.CONST>
0

>  <SCORE.SYSTEM.DIHEDRAL>
0.444937

>  <SCORE.SYSTEM.VDW>
-1.14276

>  <SCORE.SYSTEM.norm>
-0.0460148

>  <SCORE.heavy>
20

>  <SCORE.norm>
-0.700718

$$$$
5280443
  RxDock  02242110253D
librxdock.so/0.1.0
 23 25  0  0  0  0  0  0  0  0999 V2000
  -51.0995   -1.6112   14.1656 O   0  0  0  0  0  0
  -52.1519   -3.2252   18.6135 O   0  0  0  0  0  0
  -50.4371   -1.2888   18.1727 O   0  0  0  0  0  0
  -54.2228   -5.1322   14.7886 O   0  0  0  0  0  0
  -47.6800    2.4857   10.7749 O   0  0  0  0  0  0
  -51.5869   -2.3773   16.4186 C   0  0  0  0  0  0
  -51.7653   -2.4352   15.0374 C   0  0  0  0  0  0
  -50.2171   -0.6757   14.6844 C   0  0  0  0  0  0
  -49.5515    0.1537   13.6599 C   0  0  0  0  0  0
  -50.6448   -1.3925   16.9718 C   0  0  0  0  0  0
  -49.9554   -0.5277   15.9929 C   0  0  0  0  0  0
  -52.2916   -3.2423   17.2588 C   0  0  0  0  0  0
  -52.6515   -3.3614   14.4871 C   0  0  0  0  0  0
  -53.3575   -4.2271   15.3229 C   0  0  0  0  0  0
  -53.1778   -4.1675   16.7056 C   0  0  0  0  0  0
  -48.3273   -0.2474   13.1193 C   0  0  0  0  0  0
  -50.1435    1.3422   13.2260 C   0  0  0  0  0  0
  -47.6989    0.5357   12.1510 C   0  0  0  0  0  0
  -49.5152    2.1251   12.2575 C   0  0  0  0  0  0
  -48.2927    1.7219   11.7201 C   0  0  0  0  0  0
  -51.6209   -2.4632   18.8912 H   0  0  0  0  0  0
  -54.4328   -4.8676   13.8766 H   0  0  0  0  0  0
  -48.1791    3.3134   10.6667 H   0  0  0  0  0  0
  1  7  1  0  0  0
  1  8  1  0  0  0
  2 12  1  0  0  0
  2 21  1  0  0  0
  3 10  2  0  0  0
  4 14  1  0  0  0
  4 22  1  0  0  0
  5 20  1  0  0  0
  5 23  1  0  0  0
  6  7  1  0  0  0
  6 10  1  0  0  0
  6 12  2  0  0  0
  7 13  2  0  0  0
  8  9  1  0  0  0
  8 11  2  0  0  0
  9 16  2  0  0  0
  9 17  1  0  0  0
 10 11  1  0  0  0
 12 15  1  0  0  0
 13 14  1  0  0  0
 14 15  2  0  0  0
 16 18  1  0  0  0
 17 19  2  0  0  0
 18 20  2  0  0  0
 19 20  1  0  0  0
M  END
>  <CHROM.0>
-175.41271717,-62.27122185,53.79381112

>  <CHROM.1>
8.58597794,-17.16508335,-173.92369236,-91.09996323,-50.76016628,-1.29594119
14.79145930,2.46421018,0.82945650,1.67937755

>  <Name>
5280443

>  <PUBCHEM_ATOM_DEF_STEREO_COUNT>
0

>  <PUBCHEM_ATOM_UDEF_STEREO_COUNT>
0

>  <PUBCHEM_BOND_DEF_STEREO_COUNT>
0

>  <PUBCHEM_BOND_UDEF_STEREO_COUNT>
0

>  <PUBCHEM_CACTVS_TAUTO_COUNT>
57

>  <PUBCHEM_COMPONENT_COUNT>
1

>  <PUBCHEM_COMPOUND_CID>
5280443

>  <PUBCHEM_CONFORMER_DIVERSEORDER>
1

>  <PUBCHEM_CONFORMER_ID>
005092BB00000001

>  <PUBCHEM_CONFORMER_RMSD>
0.6

>  <PUBCHEM_COORDINATE_TYPE>
2
5
10

>  <PUBCHEM_EFFECTIVE_ROTOR_COUNT>
1

>  <PUBCHEM_FEATURE_SELFOVERLAP>
40.625

>  <PUBCHEM_HEAVY_ATOM_COUNT>
20

>  <PUBCHEM_ISOTOPIC_ATOM_COUNT>
0

>  <PUBCHEM_MMFF94_ENERGY>
60.7436

>  <PUBCHEM_MMFF94_PARTIAL_CHARGES>
30
1 -0.16
10 0.47
11 -0.14
12 0.08
13 -0.15
14 0.08
15 -0.15
16 -0.15
17 -0.15
18 -0.15
19 -0.15
2 -0.53
20 0.08
21 0.15
22 0.15
23 0.15
24 0.15
25 0.15
26 0.15
27 0.15
28 0.45
29 0.45
3 -0.57
30 0.45
4 -0.53
5 -0.53
6 0.09
7 0.08
8 0.05
9 0.03

>  <PUBCHEM_PHARMACOPHORE_FEATURES>
8
1 1 acceptor
1 2 donor
1 3 acceptor
1 4 donor
1 5 donor
6 1 6 7 8 10 11 rings
6 6 7 12 13 14 15 rings
6 9 16 17 18 19 20 rings

>  <PUBCHEM_SHAPE_FINGERPRINT>
10014705 185 18335983090743610973
10319926 262 18339344337187947850
10411042 1 17833271196427205891
10493431 412 18339369544277550625
10498660 4 18336260146151624709
10608611 8 18342173405853837512
10646746 165 18410292501880224548
11315181 36 17967532415338923724
12107183 9 17973996255225508682
12173636 292 18409726227717107541
12236239 1 17458341966376888130
12390115 104 18270696268119625369
12403259 415 18202279234227041088
12500047 106 18411979165633848254
13073987 5 18334573538601782738
13140716 1 17974859676764465403
13544592 145 18269848531875060550
14508225 48 18124582335750861655
14790565 3 17908712730609502257
15042514 8 18192436496683379403
15196674 1 18411138009184468990
15375358 24 18272089392275024390
17844677 252 18338524131077601056
18186145 218 18201727210401115800
200 152 17060622204808618226
20510252 161 18342459253144016673
20645477 56 18410013234284757832
20645477 70 17203058396143606462
21033648 29 18271516554985427096
21065198 57 18411699920035301594
21236236 1 18412826893710328947
21267235 1 18337116777299593123
21279426 13 18269277859449011198
21421861 104 17750502976618702298
23402539 116 18412538829647092654
23402655 69 18131067100338114972
23557571 272 18342746247148492668
23559900 14 18271807861775124550
245318 6 16448986100328701468
283562 15 18410291424461079675
2916195 48 18342730849902058064
3004659 81 18335425613612532158
335352 9 18267022748231475478
350125 39 18410298038462750009
3545911 37 18342460348455732712
4028521 119 18341892965631935697
4214541 1 18411419514231212472
474 4 16879077545412114420
495365 180 17346021334593014002
5104073 3 18410011005465809410
542803 24 17530686524359763644
559249 180 18337386046670377618
633830 44 18199743644401676445
69090 78 18272086119177836790
77779 3 18412263930592437412
9709674 26 18342463655380539086

>  <PUBCHEM_SHAPE_MULTIPOLES>
382.24
10.96
2.41
0.66
9.09
0.24
0
-3.75
0.48
-2.84
-0.06
0.21
-0.01
0.71

>  <PUBCHEM_SHAPE_SELFOVERLAP>
856.39

>  <PUBCHEM_SHAPE_VOLUME>
201.3

>  <RI>
-6.92772e+08

>  <Rbt.Current_Directory>
/root/miniconda3/envs/rdock/share/rxdock-2013.1.1_148c5bd1-0/data/ligands/prepped_ligands/Apigenin

>  <Rbt.Executable>
rbdock/0.1.0

>  <Rbt.Library>
librxdock.so/0.1.0

>  <Rbt.Parameter_File>
/root/miniconda3/envs/rdock/share/rxdock-2013.1.1_148c5bd1-0/data/scripts/dock.prm

>  <Rbt.Receptor>
def.prm

>  <SCORE>
-12.8926

>  <SCORE.INTER>
-13.2134

>  <SCORE.INTER.CONST>
1

>  <SCORE.INTER.POLAR>
0

>  <SCORE.INTER.REPUL>
0.00656661

>  <SCORE.INTER.ROT>
1

>  <SCORE.INTER.VDW>
-19.6463

>  <SCORE.INTER.norm>
-0.660672

>  <SCORE.INTRA>
1.18983

>  <SCORE.INTRA.DIHEDRAL>
4.14105

>  <SCORE.INTRA.DIHEDRAL.0>
1.23283

>  <SCORE.INTRA.POLAR>
0

>  <SCORE.INTRA.POLAR.0>
0

>  <SCORE.INTRA.REPUL>
0

>  <SCORE.INTRA.REPUL.0>
0

>  <SCORE.INTRA.VDW>
-0.880698

>  <SCORE.INTRA.VDW.0>
1.06701

>  <SCORE.INTRA.norm>
0.0594914

>  <SCORE.RESTR>
0.127797

>  <SCORE.RESTR.CAVITY>
0.127797

>  <SCORE.RESTR.norm>
0.00638986

>  <SCORE.SYSTEM>
-0.996739

>  <SCORE.SYSTEM.CONST>
0

>  <SCORE.SYSTEM.DIHEDRAL>
0.173109

>  <SCORE.SYSTEM.VDW>
-1.08329

>  <SCORE.SYSTEM.norm>
-0.049837

>  <SCORE.heavy>
20

>  <SCORE.norm>
-0.644628

$$$$
5280443
  RxDock  02242110253D
librxdock.so/0.1.0
 23 25  0  0  0  0  0  0  0  0999 V2000
  -49.3020   -4.8729   15.8134 O   0  0  0  0  0  0
  -52.9515   -7.6658   17.3549 O   0  0  0  0  0  0
  -53.3324   -5.3748   16.1340 O   0  0  0  0  0  0
  -48.4385   -8.9899   18.0146 O   0  0  0  0  0  0
  -47.7260    0.5259   12.9232 O   0  0  0  0  0  0
  -51.1717   -6.2301   16.5629 C   0  0  0  0  0  0
  -49.8052   -5.9952   16.4211 C   0  0  0  0  0  0
  -50.1940   -3.9367   15.3126 C   0  0  0  0  0  0
  -49.5467   -2.7670   14.6854 C   0  0  0  0  0  0
  -52.1208   -5.2349   16.0412 C   0  0  0  0  0  0
  -51.5296   -4.0462   15.3940 C   0  0  0  0  0  0
  -51.6275   -7.3911   17.1916 C   0  0  0  0  0  0
  -48.8841   -6.9224   16.9088 C   0  0  0  0  0  0
  -49.3352   -8.0834   17.5372 C   0  0  0  0  0  0
  -50.7039   -8.3171   17.6782 C   0  0  0  0  0  0
  -50.3200   -1.8019   14.0355 C   0  0  0  0  0  0
  -48.1587   -2.6198   14.7402 C   0  0  0  0  0  0
  -49.7087   -0.6966   13.4436 C   0  0  0  0  0  0
  -47.5475   -1.5143   14.1486 C   0  0  0  0  0  0
  -48.3225   -0.5528   13.5001 C   0  0  0  0  0  0
  -53.0865   -8.6144   17.5021 H   0  0  0  0  0  0
  -47.7498   -9.1359   17.3435 H   0  0  0  0  0  0
  -46.8536    0.2602   12.5852 H   0  0  0  0  0  0
  1  7  1  0  0  0
  1  8  1  0  0  0
  2 12  1  0  0  0
  2 21  1  0  0  0
  3 10  2  0  0  0
  4 14  1  0  0  0
  4 22  1  0  0  0
  5 20  1  0  0  0
  5 23  1  0  0  0
  6  7  1  0  0  0
  6 10  1  0  0  0
  6 12  2  0  0  0
  7 13  2  0  0  0
  8  9  1  0  0  0
  8 11  2  0  0  0
  9 16  2  0  0  0
  9 17  1  0  0  0
 10 11  1  0  0  0
 12 15  1  0  0  0
 13 14  1  0  0  0
 14 15  2  0  0  0
 16 18  1  0  0  0
 17 19  2  0  0  0
 18 20  2  0  0  0
 19 20  1  0  0  0
M  END
>  <CHROM.0>
-61.81747854,-177.87891170,-64.66176568

>  <CHROM.1>
159.33607479,-45.28471109,-147.01815640,174.40710547,-50.03776518,-4.66184333
15.70659656,-1.84942823,0.00052563,-0.49379603

>  <Name>
5280443

>  <PUBCHEM_ATOM_DEF_STEREO_COUNT>
0

>  <PUBCHEM_ATOM_UDEF_STEREO_COUNT>
0

>  <PUBCHEM_BOND_DEF_STEREO_COUNT>
0

>  <PUBCHEM_BOND_UDEF_STEREO_COUNT>
0

>  <PUBCHEM_CACTVS_TAUTO_COUNT>
57

>  <PUBCHEM_COMPONENT_COUNT>
1

>  <PUBCHEM_COMPOUND_CID>
5280443

>  <PUBCHEM_CONFORMER_DIVERSEORDER>
1

>  <PUBCHEM_CONFORMER_ID>
005092BB00000001

>  <PUBCHEM_CONFORMER_RMSD>
0.6

>  <PUBCHEM_COORDINATE_TYPE>
2
5
10

>  <PUBCHEM_EFFECTIVE_ROTOR_COUNT>
1

>  <PUBCHEM_FEATURE_SELFOVERLAP>
40.625

>  <PUBCHEM_HEAVY_ATOM_COUNT>
20

>  <PUBCHEM_ISOTOPIC_ATOM_COUNT>
0

>  <PUBCHEM_MMFF94_ENERGY>
60.7436

>  <PUBCHEM_MMFF94_PARTIAL_CHARGES>
30
1 -0.16
10 0.47
11 -0.14
12 0.08
13 -0.15
14 0.08
15 -0.15
16 -0.15
17 -0.15
18 -0.15
19 -0.15
2 -0.53
20 0.08
21 0.15
22 0.15
23 0.15
24 0.15
25 0.15
26 0.15
27 0.15
28 0.45
29 0.45
3 -0.57
30 0.45
4 -0.53
5 -0.53
6 0.09
7 0.08
8 0.05
9 0.03

>  <PUBCHEM_PHARMACOPHORE_FEATURES>
8
1 1 acceptor
1 2 donor
1 3 acceptor
1 4 donor
1 5 donor
6 1 6 7 8 10 11 rings
6 6 7 12 13 14 15 rings
6 9 16 17 18 19 20 rings

>  <PUBCHEM_SHAPE_FINGERPRINT>
10014705 185 18335983090743610973
10319926 262 18339344337187947850
10411042 1 17833271196427205891
10493431 412 18339369544277550625
10498660 4 18336260146151624709
10608611 8 18342173405853837512
10646746 165 18410292501880224548
11315181 36 17967532415338923724
12107183 9 17973996255225508682
12173636 292 18409726227717107541
12236239 1 17458341966376888130
12390115 104 18270696268119625369
12403259 415 18202279234227041088
12500047 106 18411979165633848254
13073987 5 18334573538601782738
13140716 1 17974859676764465403
13544592 145 18269848531875060550
14508225 48 18124582335750861655
14790565 3 17908712730609502257
15042514 8 18192436496683379403
15196674 1 18411138009184468990
15375358 24 18272089392275024390
17844677 252 18338524131077601056
18186145 218 18201727210401115800
200 152 17060622204808618226
20510252 161 18342459253144016673
20645477 56 18410013234284757832
20645477 70 17203058396143606462
21033648 29 18271516554985427096
21065198 57 18411699920035301594
21236236 1 18412826893710328947
21267235 1 18337116777299593123
21279426 13 18269277859449011198
21421861 104 17750502976618702298
23402539 116 18412538829647092654
23402655 69 18131067100338114972
23557571 272 18342746247148492668
23559900 14 18271807861775124550
245318 6 16448986100328701468
283562 15 18410291424461079675
2916195 48 18342730849902058064
3004659 81 18335425613612532158
335352 9 18267022748231475478
350125 39 18410298038462750009
3545911 37 18342460348455732712
4028521 119 18341892965631935697
4214541 1 18411419514231212472
474 4 16879077545412114420
495365 180 17346021334593014002
5104073 3 18410011005465809410
542803 24 17530686524359763644
559249 180 18337386046670377618
633830 44 18199743644401676445
69090 78 18272086119177836790
77779 3 18412263930592437412
9709674 26 18342463655380539086

>  <PUBCHEM_SHAPE_MULTIPOLES>
382.24
10.96
2.41
0.66
9.09
0.24
0
-3.75
0.48
-2.84
-0.06
0.21
-0.01
0.71

>  <PUBCHEM_SHAPE_SELFOVERLAP>
856.39

>  <PUBCHEM_SHAPE_VOLUME>
201.3

>  <RI>
-6.92772e+08

>  <Rbt.Current_Directory>
/root/miniconda3/envs/rdock/share/rxdock-2013.1.1_148c5bd1-0/data/ligands/prepped_ligands/Apigenin

>  <Rbt.Executable>
rbdock/0.1.0

>  <Rbt.Library>
librxdock.so/0.1.0

>  <Rbt.Parameter_File>
/root/miniconda3/envs/rdock/share/rxdock-2013.1.1_148c5bd1-0/data/scripts/dock.prm

>  <Rbt.Receptor>
def.prm

>  <SCORE>
-16.1947

>  <SCORE.INTER>
-16.7228

>  <SCORE.INTER.CONST>
1

>  <SCORE.INTER.POLAR>
-2.15063

>  <SCORE.INTER.REPUL>
0.0565452

>  <SCORE.INTER.ROT>
1

>  <SCORE.INTER.VDW>
-16.0934

>  <SCORE.INTER.norm>
-0.836139

>  <SCORE.INTRA>
1.58189

>  <SCORE.INTRA.DIHEDRAL>
3.26612

>  <SCORE.INTRA.DIHEDRAL.0>
1.23283

>  <SCORE.INTRA.POLAR>
0

>  <SCORE.INTRA.POLAR.0>
0

>  <SCORE.INTRA.REPUL>
0

>  <SCORE.INTRA.REPUL.0>
0

>  <SCORE.INTRA.VDW>
-0.051169

>  <SCORE.INTRA.VDW.0>
1.06701

>  <SCORE.INTRA.norm>
0.0790946

>  <SCORE.RESTR>
0

>  <SCORE.RESTR.CAVITY>
0

>  <SCORE.RESTR.norm>
0

>  <SCORE.SYSTEM>
-1.05379

>  <SCORE.SYSTEM.CONST>
0

>  <SCORE.SYSTEM.DIHEDRAL>
0.0889824

>  <SCORE.SYSTEM.VDW>
-1.09828

>  <SCORE.SYSTEM.norm>
-0.0526895

>  <SCORE.heavy>
20

>  <SCORE.norm>
-0.809734

$$$$
5280443
  RxDock  02242110253D
librxdock.so/0.1.0
 23 25  0  0  0  0  0  0  0  0999 V2000
  -50.3756   -1.7028   13.8749 O   0  0  0  0  0  0
  -48.4754   -5.3767   16.4023 O   0  0  0  0  0  0
  -47.0357   -3.3776   15.4996 O   0  0  0  0  0  0
  -53.1223   -5.2494   15.4299 O   0  0  0  0  0  0
  -49.1815    3.7393   10.8843 O   0  0  0  0  0  0
  -49.3666   -3.5165   15.1369 C   0  0  0  0  0  0
  -50.4680   -2.8901   14.5561 C   0  0  0  0  0  0
  -49.1324   -1.0979   13.7678 C   0  0  0  0  0  0
  -49.1456    0.1701   13.0110 C   0  0  0  0  0  0
  -48.0449   -2.8823   15.0174 C   0  0  0  0  0  0
  -47.9986   -1.6050   14.2773 C   0  0  0  0  0  0
  -49.5198   -4.7259   15.8186 C   0  0  0  0  0  0
  -51.7323   -3.4715   14.6534 C   0  0  0  0  0  0
  -51.8897   -4.6794   15.3336 C   0  0  0  0  0  0
  -50.7857   -5.3050   15.9148 C   0  0  0  0  0  0
  -50.2627    1.0072   13.0641 C   0  0  0  0  0  0
  -48.0406    0.5385   12.2398 C   0  0  0  0  0  0
  -50.2749    2.2053   12.3498 C   0  0  0  0  0  0
  -48.0528    1.7368   11.5258 C   0  0  0  0  0  0
  -49.1700    2.5701   11.5806 C   0  0  0  0  0  0
  -47.7039   -4.7934   16.4662 H   0  0  0  0  0  0
  -53.7474   -4.7434   14.8830 H   0  0  0  0  0  0
  -49.7774    3.6457   10.1213 H   0  0  0  0  0  0
  1  7  1  0  0  0
  1  8  1  0  0  0
  2 12  1  0  0  0
  2 21  1  0  0  0
  3 10  2  0  0  0
  4 14  1  0  0  0
  4 22  1  0  0  0
  5 20  1  0  0  0
  5 23  1  0  0  0
  6  7  1  0  0  0
  6 10  1  0  0  0
  6 12  2  0  0  0
  7 13  2  0  0  0
  8  9  1  0  0  0
  8 11  2  0  0  0
  9 16  2  0  0  0
  9 17  1  0  0  0
 10 11  1  0  0  0
 12 15  1  0  0  0
 13 14  1  0  0  0
 14 15  2  0  0  0
 16 18  1  0  0  0
 17 19  2  0  0  0
 18 20  2  0  0  0
 19 20  1  0  0  0
M  END
>  <CHROM.0>
-177.16586723,-179.53462195,-62.91584994

>  <CHROM.1>
14.00650375,6.79436488,-72.97005090,33.04030790,-49.61500623,-1.72411656
14.02908143,1.73412600,0.10898086,2.61460666

>  <Name>
5280443

>  <PUBCHEM_ATOM_DEF_STEREO_COUNT>
0

>  <PUBCHEM_ATOM_UDEF_STEREO_COUNT>
0

>  <PUBCHEM_BOND_DEF_STEREO_COUNT>
0

>  <PUBCHEM_BOND_UDEF_STEREO_COUNT>
0

>  <PUBCHEM_CACTVS_TAUTO_COUNT>
57

>  <PUBCHEM_COMPONENT_COUNT>
1

>  <PUBCHEM_COMPOUND_CID>
5280443

>  <PUBCHEM_CONFORMER_DIVERSEORDER>
1

>  <PUBCHEM_CONFORMER_ID>
005092BB00000001

>  <PUBCHEM_CONFORMER_RMSD>
0.6

>  <PUBCHEM_COORDINATE_TYPE>
2
5
10

>  <PUBCHEM_EFFECTIVE_ROTOR_COUNT>
1

>  <PUBCHEM_FEATURE_SELFOVERLAP>
40.625

>  <PUBCHEM_HEAVY_ATOM_COUNT>
20

>  <PUBCHEM_ISOTOPIC_ATOM_COUNT>
0

>  <PUBCHEM_MMFF94_ENERGY>
60.7436

>  <PUBCHEM_MMFF94_PARTIAL_CHARGES>
30
1 -0.16
10 0.47
11 -0.14
12 0.08
13 -0.15
14 0.08
15 -0.15
16 -0.15
17 -0.15
18 -0.15
19 -0.15
2 -0.53
20 0.08
21 0.15
22 0.15
23 0.15
24 0.15
25 0.15
26 0.15
27 0.15
28 0.45
29 0.45
3 -0.57
30 0.45
4 -0.53
5 -0.53
6 0.09
7 0.08
8 0.05
9 0.03

>  <PUBCHEM_PHARMACOPHORE_FEATURES>
8
1 1 acceptor
1 2 donor
1 3 acceptor
1 4 donor
1 5 donor
6 1 6 7 8 10 11 rings
6 6 7 12 13 14 15 rings
6 9 16 17 18 19 20 rings

>  <PUBCHEM_SHAPE_FINGERPRINT>
10014705 185 18335983090743610973
10319926 262 18339344337187947850
10411042 1 17833271196427205891
10493431 412 18339369544277550625
10498660 4 18336260146151624709
10608611 8 18342173405853837512
10646746 165 18410292501880224548
11315181 36 17967532415338923724
12107183 9 17973996255225508682
12173636 292 18409726227717107541
12236239 1 17458341966376888130
12390115 104 18270696268119625369
12403259 415 18202279234227041088
12500047 106 18411979165633848254
13073987 5 18334573538601782738
13140716 1 17974859676764465403
13544592 145 18269848531875060550
14508225 48 18124582335750861655
14790565 3 17908712730609502257
15042514 8 18192436496683379403
15196674 1 18411138009184468990
15375358 24 18272089392275024390
17844677 252 18338524131077601056
18186145 218 18201727210401115800
200 152 17060622204808618226
20510252 161 18342459253144016673
20645477 56 18410013234284757832
20645477 70 17203058396143606462
21033648 29 18271516554985427096
21065198 57 18411699920035301594
21236236 1 18412826893710328947
21267235 1 18337116777299593123
21279426 13 18269277859449011198
21421861 104 17750502976618702298
23402539 116 18412538829647092654
23402655 69 18131067100338114972
23557571 272 18342746247148492668
23559900 14 18271807861775124550
245318 6 16448986100328701468
283562 15 18410291424461079675
2916195 48 18342730849902058064
3004659 81 18335425613612532158
335352 9 18267022748231475478
350125 39 18410298038462750009
3545911 37 18342460348455732712
4028521 119 18341892965631935697
4214541 1 18411419514231212472
474 4 16879077545412114420
495365 180 17346021334593014002
5104073 3 18410011005465809410
542803 24 17530686524359763644
559249 180 18337386046670377618
633830 44 18199743644401676445
69090 78 18272086119177836790
77779 3 18412263930592437412
9709674 26 18342463655380539086

>  <PUBCHEM_SHAPE_MULTIPOLES>
382.24
10.96
2.41
0.66
9.09
0.24
0
-3.75
0.48
-2.84
-0.06
0.21
-0.01
0.71

>  <PUBCHEM_SHAPE_SELFOVERLAP>
856.39

>  <PUBCHEM_SHAPE_VOLUME>
201.3

>  <RI>
-6.92772e+08

>  <Rbt.Current_Directory>
/root/miniconda3/envs/rdock/share/rxdock-2013.1.1_148c5bd1-0/data/ligands/prepped_ligands/Apigenin

>  <Rbt.Executable>
rbdock/0.1.0

>  <Rbt.Library>
librxdock.so/0.1.0

>  <Rbt.Parameter_File>
/root/miniconda3/envs/rdock/share/rxdock-2013.1.1_148c5bd1-0/data/scripts/dock.prm

>  <Rbt.Receptor>
def.prm

>  <SCORE>
-16.1317

>  <SCORE.INTER>
-16.8859

>  <SCORE.INTER.CONST>
1

>  <SCORE.INTER.POLAR>
-0.724443

>  <SCORE.INTER.REPUL>
0

>  <SCORE.INTER.ROT>
1

>  <SCORE.INTER.VDW>
-20.8228

>  <SCORE.INTER.norm>
-0.844295

>  <SCORE.INTRA>
1.79586

>  <SCORE.INTRA.DIHEDRAL>
4.89132

>  <SCORE.INTRA.DIHEDRAL.0>
1.23283

>  <SCORE.INTRA.POLAR>
0

>  <SCORE.INTRA.POLAR.0>
0

>  <SCORE.INTRA.REPUL>
0

>  <SCORE.INTRA.REPUL.0>
0

>  <SCORE.INTRA.VDW>
-0.6498

>  <SCORE.INTRA.VDW.0>
1.06701

>  <SCORE.INTRA.norm>
0.089793

>  <SCORE.RESTR>
0.0157434

>  <SCORE.RESTR.CAVITY>
0.0157434

>  <SCORE.RESTR.norm>
0.000787171

>  <SCORE.SYSTEM>
-1.05741

>  <SCORE.SYSTEM.CONST>
0

>  <SCORE.SYSTEM.DIHEDRAL>
0.0422694

>  <SCORE.SYSTEM.VDW>
-1.07855

>  <SCORE.SYSTEM.norm>
-0.0528706

>  <SCORE.heavy>
20

>  <SCORE.norm>
-0.806585

$$$$
