MODEL 1
REMARK VINA RESULT:     -12.4      0.000      0.000
REMARK  8 active torsions:
REMARK  status: ('A' for Active; 'I' for Inactive)
REMARK    1  A    between atoms: O_1  and  C_33 
REMARK    2  A    between atoms: O_1  and  C_49 
REMARK    3  A    between atoms: O_8  and  C_53 
REMARK    4  A    between atoms: O_12  and  C_56 
REMARK    5  A    between atoms: O_13  and  C_57 
REMARK    6  A    between atoms: O_14  and  C_59 
REMARK    7  A    between atoms: C_52  and  C_55 
REMARK    8  A    between atoms: C_58  and  C_60 
ROOT
HETATM    1  O   MOL     1     -48.357  -9.667  20.849  1.00  0.00     0.000 OA
ENDROOT
BRANCH   1   2
HETATM    2  C   MOL     1     -48.693  -9.003  20.180  1.00  0.00     0.007 C 
HETATM    3  C   MOL     1     -49.699  -8.603  20.269  1.00  0.00    -0.058 C 
HETATM    4  C   MOL     1     -49.891  -7.486  19.891  1.00  0.00    -0.007 C 
HETATM    5  C   MOL     1     -50.603  -8.618  20.696  1.00  0.00     0.027 C 
HETATM    6  C   MOL     1     -49.880  -9.218  21.037  1.00  0.00    -0.005 C 
HETATM    7  C   MOL     1     -49.407  -7.494  18.817  1.00  0.00    -0.037 A 
HETATM    8  C   MOL     1     -51.016  -7.494  19.627  1.00  0.00     0.006 C 
HETATM    9  C   MOL     1     -49.594  -6.372  18.510  1.00  0.00     0.013 A 
HETATM   10  C   MOL     1     -48.368  -7.806  18.773  1.00  0.00     0.014 C 
HETATM   11  C   MOL     1     -49.065  -7.801  17.517  1.00  0.00     0.081 C 
HETATM   12  C   MOL     1     -49.115  -6.363  17.499  1.00  0.00    -0.024 A 
HETATM   13  C   MOL     1     -50.694  -6.429  18.211  1.00  0.00    -0.033 A 
HETATM   14  C   MOL     1     -50.982  -5.657  17.636  1.00  0.00    -0.030 A 
HETATM   15  C   MOL     1     -51.339  -6.764  18.957  1.00  0.00     0.011 C 
HETATM   16  C   MOL     1     -51.913  -7.002  17.917  1.00  0.00     0.044 C 
HETATM   17  C   MOL     1     -50.373  -5.327  16.912  1.00  0.00    -0.018 A 
HETATM   18  C   MOL     1     -50.834  -4.954  15.921  1.00  0.00    -0.002 C 
HETATM   19  C   MOL     1     -49.433  -5.662  16.860  1.00  0.00    -0.036 C 
HETATM   20  C   MOL     1     -51.979  -5.353  17.671  1.00  0.00     0.041 A 
HETATM   21  C   MOL     1     -51.683  -4.278  16.256  1.00  0.00    -0.059 C 
HETATM   22  C   MOL     1     -49.995  -4.216  15.499  1.00  0.00     0.003 C 
HETATM   23  C   MOL     1     -52.317  -4.624  17.009  1.00  0.00     0.009 C 
HETATM   24  C   MOL     1     -52.020  -3.483  15.598  1.00  0.00     0.014 C 
HETATM   25  C   MOL     1     -52.897  -4.616  15.696  1.00  0.00     0.028 C 
HETATM   26  C   MOL     1     -51.344  -3.086  14.848  1.00  0.00     0.253 A 
HETATM   27  C   MOL     1     -50.310  -3.420  14.830  1.00  0.00     0.003 A 
HETATM   28  O   MOL     1     -50.856  -2.242  13.683  1.00  0.00    -0.382 OA
HETATM   29  C   MOL     1     -49.128  -2.732  15.014  1.00  0.00     0.044 C 
HETATM   30  C   MOL     1     -50.137  -2.844  14.030  1.00  0.00     0.080 A 
HETATM   31  O   MOL     1     -49.231  -2.834  13.607  1.00  0.00     0.000 OA
HETATM   32  C   MOL     1     -51.540  -5.118  18.776  1.00  0.00     0.025 C 
HETATM   33  C   MOL     1     -48.008  -8.566  19.459  1.00  0.00    -0.012 C 
HETATM   34  O   MOL     1     -48.174  -6.698  17.447  1.00  0.00     0.000 OA
ENDBRANCH   1   2
BRANCH   1  35
HETATM   35  C   MOL     1     -47.636 -10.314  20.597  1.00  0.00    -0.027 A 
HETATM   36  O   MOL     1     -47.844 -11.073  19.977  1.00  0.00     0.000 OA
HETATM   37  C   MOL     1     -47.156 -11.778  19.798  1.00  0.00     0.096 A 
HETATM   38  C   MOL     1     -46.227 -11.667  20.165  1.00  0.00     0.133 A 
HETATM   39  C   MOL     1     -46.069 -10.996  20.896  1.00  0.00     0.055 A 
HETATM   40  O   MOL     1     -45.488 -11.496  22.043  1.00  0.00     0.000 OA
HETATM   41  C   MOL     1     -46.741 -10.261  21.038  1.00  0.00     0.007 A 
HETATM   42  H   MOL     1     -44.720 -11.332  21.167  1.00  0.00     0.000 HD
HETATM   43  O   MOL     1     -44.965 -10.184  21.958  1.00  0.00     0.000 OA
HETATM   44  C   MOL     1     -45.686  -9.537  22.211  1.00  0.00     0.057 A 
HETATM   45  C   MOL     1     -44.086 -10.160  22.436  1.00  0.00     0.071 C 
HETATM   46  O   MOL     1     -46.565  -9.561  21.732  1.00  0.00     0.000 OA
HETATM   47  C   MOL     1     -45.462  -8.749  22.793  1.00  0.00     0.154 A 
HETATM   48  C   MOL     1     -44.599  -8.754  23.309  1.00  0.00     0.211 A 
HETATM   49  C   MOL     1     -43.862  -9.372  23.019  1.00  0.00     0.146 C 
BRANCH  37  50
HETATM   50  C   MOL     1     -47.662 -13.060  19.846  1.00  0.00     0.297 C 
HETATM   51  O   MOL     1     -46.997 -13.019  18.599  1.00  0.00    -0.188 OA
HETATM   52  O   MOL     1     -48.562 -12.387  18.988  1.00  0.00    -0.188 OA
ENDBRANCH  37  50
BRANCH  38  53
HETATM   53  O   MOL     1     -45.208 -11.790  19.244  1.00  0.00    -0.395 OA
HETATM   54  H   MOL     1     -46.186 -12.365  18.933  1.00  0.00     0.210 HD
ENDBRANCH  38  53
BRANCH  47  55
HETATM   55  O   MOL     1     -45.852  -7.520  22.304  1.00  0.00    -0.393 OA
HETATM   56  H   MOL     1     -44.684  -7.659  22.332  1.00  0.00     0.210 HD
ENDBRANCH  47  55
BRANCH  48  57
HETATM   57  O   MOL     1     -44.723  -8.578  24.671  1.00  0.00    -0.392 OA
HETATM   58  H   MOL     1     -43.749  -8.090  24.227  1.00  0.00     0.210 HD
ENDBRANCH  48  57
BRANCH  49  59
HETATM   59  O   MOL     1     -42.651  -8.766  22.755  1.00  0.00    -0.399 OA
HETATM   60  H   MOL     1     -42.980  -8.676  23.880  1.00  0.00     0.209 HD
ENDBRANCH  49  59
BRANCH  45  61
HETATM   61  C   MOL     1     -43.696 -11.390  22.925  1.00  0.00     0.292 C 
HETATM   62  O   MOL     1     -42.646 -10.531  23.327  1.00  0.00    -0.188 OA
HETATM   63  O   MOL     1     -42.903 -11.234  21.765  1.00  0.00    -0.188 OA
ENDBRANCH  45  61
ENDBRANCH   1  35
TORSDOF 8
ENDMDL
MODEL 2
REMARK VINA RESULT:     -12.2     11.115     13.861
REMARK  8 active torsions:
REMARK  status: ('A' for Active; 'I' for Inactive)
REMARK    1  A    between atoms: O_1  and  C_33 
REMARK    2  A    between atoms: O_1  and  C_49 
REMARK    3  A    between atoms: O_8  and  C_53 
REMARK    4  A    between atoms: O_12  and  C_56 
REMARK    5  A    between atoms: O_13  and  C_57 
REMARK    6  A    between atoms: O_14  and  C_59 
REMARK    7  A    between atoms: C_52  and  C_55 
REMARK    8  A    between atoms: C_58  and  C_60 
ROOT
HETATM    1  O   MOL     1     -46.553 -19.366  23.339  1.00  0.00     0.000 OA
ENDROOT
BRANCH   1   2
HETATM    2  C   MOL     1     -46.663 -18.714  24.091  1.00  0.00     0.007 C 
HETATM    3  C   MOL     1     -47.613 -18.207  24.235  1.00  0.00    -0.058 C 
HETATM    4  C   MOL     1     -47.930 -17.922  25.351  1.00  0.00    -0.007 C 
HETATM    5  C   MOL     1     -48.532 -17.978  23.912  1.00  0.00     0.027 C 
HETATM    6  C   MOL     1     -47.967 -18.622  23.397  1.00  0.00    -0.005 C 
HETATM    7  C   MOL     1     -46.965 -17.386  25.761  1.00  0.00    -0.037 A 
HETATM    8  C   MOL     1     -48.636 -17.020  25.196  1.00  0.00     0.006 C 
HETATM    9  C   MOL     1     -47.318 -17.160  26.862  1.00  0.00     0.013 A 
HETATM   10  C   MOL     1     -46.045 -17.958  25.692  1.00  0.00     0.014 C 
HETATM   11  C   MOL     1     -45.879 -16.551  25.930  1.00  0.00     0.081 C 
HETATM   12  C   MOL     1     -46.398 -16.671  27.267  1.00  0.00    -0.024 A 
HETATM   13  C   MOL     1     -47.969 -16.241  26.676  1.00  0.00    -0.033 A 
HETATM   14  C   MOL     1     -48.132 -15.704  27.510  1.00  0.00    -0.030 A 
HETATM   15  C   MOL     1     -48.758 -16.384  26.012  1.00  0.00     0.011 C 
HETATM   16  C   MOL     1     -48.537 -15.192  25.984  1.00  0.00     0.044 C 
HETATM   17  C   MOL     1     -47.381 -15.556  28.155  1.00  0.00    -0.018 A 
HETATM   18  C   MOL     1     -47.308 -14.543  28.706  1.00  0.00    -0.002 C 
HETATM   19  C   MOL     1     -46.523 -16.058  28.048  1.00  0.00    -0.036 C 
HETATM   20  C   MOL     1     -49.012 -15.149  27.583  1.00  0.00     0.041 A 
HETATM   21  C   MOL     1     -48.368 -14.356  29.066  1.00  0.00    -0.059 C 
HETATM   22  C   MOL     1     -46.688 -14.818  29.689  1.00  0.00     0.003 C 
HETATM   23  C   MOL     1     -49.150 -14.509  28.392  1.00  0.00     0.009 C 
HETATM   24  C   MOL     1     -48.531 -13.727  29.936  1.00  0.00     0.014 C 
HETATM   25  C   MOL     1     -48.866 -13.131  28.673  1.00  0.00     0.028 C 
HETATM   26  C   MOL     1     -47.736 -13.607  30.666  1.00  0.00     0.253 A 
HETATM   27  C   MOL     1     -46.828 -14.194  30.568  1.00  0.00     0.003 A 
HETATM   28  O   MOL     1     -47.008 -13.099  31.899  1.00  0.00    -0.382 OA
HETATM   29  C   MOL     1     -46.266 -15.147  31.392  1.00  0.00     0.044 C 
HETATM   30  C   MOL     1     -46.449 -13.745  31.378  1.00  0.00     0.080 A 
HETATM   31  O   MOL     1     -45.529 -13.978  31.695  1.00  0.00     0.000 OA
HETATM   32  C   MOL     1     -49.371 -16.307  27.561  1.00  0.00     0.025 C 
HETATM   33  C   MOL     1     -45.893 -18.627  24.851  1.00  0.00    -0.012 C 
HETATM   34  O   MOL     1     -45.539 -17.174  27.159  1.00  0.00     0.000 OA
ENDBRANCH   1   2
BRANCH   1  35
HETATM   35  C   MOL     1     -45.644 -19.554  22.967  1.00  0.00    -0.027 A 
HETATM   36  O   MOL     1     -45.197 -18.878  22.378  1.00  0.00     0.000 OA
HETATM   37  C   MOL     1     -44.333 -19.100  21.924  1.00  0.00     0.096 A 
HETATM   38  C   MOL     1     -43.868 -19.964  22.141  1.00  0.00     0.133 A 
HETATM   39  C   MOL     1     -44.383 -20.691  22.606  1.00  0.00     0.055 A 
HETATM   40  O   MOL     1     -44.402 -21.910  21.960  1.00  0.00     0.000 OA
HETATM   41  C   MOL     1     -45.225 -20.453  23.101  1.00  0.00     0.007 A 
HETATM   42  H   MOL     1     -43.392 -21.700  22.525  1.00  0.00     0.000 HD
HETATM   43  O   MOL     1     -44.412 -22.266  23.329  1.00  0.00     0.000 OA
HETATM   44  C   MOL     1     -45.322 -22.078  23.701  1.00  0.00     0.057 A 
HETATM   45  C   MOL     1     -44.016 -23.181  23.422  1.00  0.00     0.071 C 
HETATM   46  O   MOL     1     -45.716 -21.163  23.607  1.00  0.00     0.000 OA
HETATM   47  C   MOL     1     -45.745 -22.738  24.330  1.00  0.00     0.154 A 
HETATM   48  C   MOL     1     -45.373 -23.670  24.382  1.00  0.00     0.211 A 
HETATM   49  C   MOL     1     -44.439 -23.841  24.051  1.00  0.00     0.146 C 
BRANCH  37  50
HETATM   50  C   MOL     1     -44.301 -18.727  20.597  1.00  0.00     0.297 C 
HETATM   51  O   MOL     1     -43.272 -17.950  21.179  1.00  0.00    -0.188 OA
HETATM   52  O   MOL     1     -44.978 -17.653  21.221  1.00  0.00    -0.188 OA
ENDBRANCH  37  50
BRANCH  38  53
HETATM   53  O   MOL     1     -42.544 -19.849  22.508  1.00  0.00    -0.395 OA
HETATM   54  H   MOL     1     -43.180 -18.893  22.762  1.00  0.00     0.210 HD
ENDBRANCH  38  53
BRANCH  47  55
HETATM   55  O   MOL     1     -46.195 -22.212  25.523  1.00  0.00    -0.393 OA
HETATM   56  H   MOL     1     -46.748 -23.204  25.215  1.00  0.00     0.210 HD
ENDBRANCH  47  55
BRANCH  48  57
HETATM   57  O   MOL     1     -46.279 -24.683  24.149  1.00  0.00    -0.392 OA
HETATM   58  H   MOL     1     -46.598 -23.656  23.671  1.00  0.00     0.210 HD
ENDBRANCH  48  57
BRANCH  49  59
HETATM   59  O   MOL     1     -43.584 -24.419  24.966  1.00  0.00    -0.399 OA
HETATM   60  H   MOL     1     -43.221 -24.535  23.853  1.00  0.00     0.209 HD
ENDBRANCH  49  59
BRANCH  45  61
HETATM   61  C   MOL     1     -43.565 -23.706  22.228  1.00  0.00     0.292 C 
HETATM   62  O   MOL     1     -43.186 -24.683  23.178  1.00  0.00    -0.188 OA
HETATM   63  O   MOL     1     -42.391 -23.187  22.819  1.00  0.00    -0.188 OA
ENDBRANCH  45  61
ENDBRANCH   1  35
TORSDOF 8
ENDMDL
MODEL 3
REMARK VINA RESULT:     -11.6      1.034      2.970
REMARK  8 active torsions:
REMARK  status: ('A' for Active; 'I' for Inactive)
REMARK    1  A    between atoms: O_1  and  C_33 
REMARK    2  A    between atoms: O_1  and  C_49 
REMARK    3  A    between atoms: O_8  and  C_53 
REMARK    4  A    between atoms: O_12  and  C_56 
REMARK    5  A    between atoms: O_13  and  C_57 
REMARK    6  A    between atoms: O_14  and  C_59 
REMARK    7  A    between atoms: C_52  and  C_55 
REMARK    8  A    between atoms: C_58  and  C_60 
ROOT
HETATM    1  O   MOL     1     -48.687  -9.789  20.776  1.00  0.00     0.000 OA
ENDROOT
BRANCH   1   2
HETATM    2  C   MOL     1     -48.979  -9.095  20.116  1.00  0.00     0.007 C 
HETATM    3  C   MOL     1     -49.949  -8.618  20.224  1.00  0.00    -0.058 C 
HETATM    4  C   MOL     1     -50.057  -7.487  19.854  1.00  0.00    -0.007 C 
HETATM    5  C   MOL     1     -50.844  -8.563  20.665  1.00  0.00     0.027 C 
HETATM    6  C   MOL     1     -50.165  -9.220  20.992  1.00  0.00    -0.005 C 
HETATM    7  C   MOL     1     -49.593  -7.526  18.773  1.00  0.00    -0.037 A 
HETATM    8  C   MOL     1     -51.184  -7.404  19.609  1.00  0.00     0.006 C 
HETATM    9  C   MOL     1     -49.694  -6.391  18.474  1.00  0.00     0.013 A 
HETATM   10  C   MOL     1     -48.583  -7.920  18.710  1.00  0.00     0.014 C 
HETATM   11  C   MOL     1     -49.297  -7.852  17.465  1.00  0.00     0.081 C 
HETATM   12  C   MOL     1     -49.233  -6.414  17.455  1.00  0.00    -0.024 A 
HETATM   13  C   MOL     1     -50.800  -6.359  18.193  1.00  0.00    -0.033 A 
HETATM   14  C   MOL     1     -51.035  -5.563  17.626  1.00  0.00    -0.030 A 
HETATM   15  C   MOL     1     -51.458  -6.646  18.948  1.00  0.00     0.011 C 
HETATM   16  C   MOL     1     -52.066  -6.831  17.916  1.00  0.00     0.044 C 
HETATM   17  C   MOL     1     -50.414  -5.278  16.894  1.00  0.00    -0.018 A 
HETATM   18  C   MOL     1     -50.860  -4.863  15.913  1.00  0.00    -0.002 C 
HETATM   19  C   MOL     1     -49.504  -5.686  16.825  1.00  0.00    -0.036 C 
HETATM   20  C   MOL     1     -52.004  -5.181  17.679  1.00  0.00     0.041 A 
HETATM   21  C   MOL     1     -51.646  -4.125  16.265  1.00  0.00    -0.059 C 
HETATM   22  C   MOL     1     -49.972  -4.192  15.480  1.00  0.00     0.003 C 
HETATM   23  C   MOL     1     -52.294  -4.423  17.026  1.00  0.00     0.009 C 
HETATM   24  C   MOL     1     -51.930  -3.301  15.617  1.00  0.00     0.014 C 
HETATM   25  C   MOL     1     -52.892  -4.361  15.724  1.00  0.00     0.028 C 
HETATM   26  C   MOL     1     -51.236  -2.954  14.857  1.00  0.00     0.253 A 
HETATM   27  C   MOL     1     -50.233  -3.369  14.820  1.00  0.00     0.003 A 
HETATM   28  O   MOL     1     -50.702  -2.144  13.688  1.00  0.00    -0.382 OA
HETATM   29  C   MOL     1     -48.997  -2.779  14.988  1.00  0.00     0.044 C 
HETATM   30  C   MOL     1     -50.028  -2.804  14.020  1.00  0.00     0.080 A 
HETATM   31  O   MOL     1     -49.130  -2.864  13.583  1.00  0.00     0.000 OA
HETATM   32  C   MOL     1     -51.531  -4.988  18.778  1.00  0.00     0.025 C 
HETATM   33  C   MOL     1     -48.274  -8.710  19.386  1.00  0.00    -0.012 C 
HETATM   34  O   MOL     1     -48.322  -6.823  17.385  1.00  0.00     0.000 OA
ENDBRANCH   1   2
BRANCH   1  35
HETATM   35  C   MOL     1     -47.759  -9.766  21.151  1.00  0.00    -0.027 A 
HETATM   36  O   MOL     1     -47.439  -8.951  21.637  1.00  0.00     0.000 OA
HETATM   37  C   MOL     1     -46.483  -8.882  21.927  1.00  0.00     0.096 A 
HETATM   38  C   MOL     1     -45.874  -9.674  21.816  1.00  0.00     0.133 A 
HETATM   39  C   MOL     1     -46.152 -10.420  21.203  1.00  0.00     0.055 A 
HETATM   40  O   MOL     1     -45.254 -10.732  20.204  1.00  0.00     0.000 OA
HETATM   41  C   MOL     1     -47.123 -10.512  20.955  1.00  0.00     0.007 A 
HETATM   42  H   MOL     1     -44.947 -11.161  21.255  1.00  0.00     0.000 HD
HETATM   43  O   MOL     1     -45.836 -11.982  20.521  1.00  0.00     0.000 OA
HETATM   44  C   MOL     1     -46.764 -12.005  20.146  1.00  0.00     0.057 A 
HETATM   45  C   MOL     1     -45.186 -12.705  20.283  1.00  0.00     0.071 C 
HETATM   46  O   MOL     1     -47.414 -11.281  20.385  1.00  0.00     0.000 OA
HETATM   47  C   MOL     1     -47.098 -12.843  19.702  1.00  0.00     0.154 A 
HETATM   48  C   MOL     1     -46.434 -13.543  19.422  1.00  0.00     0.211 A 
HETATM   49  C   MOL     1     -45.519 -13.543  19.839  1.00  0.00     0.146 C 
BRANCH  37  50
HETATM   50  C   MOL     1     -45.915  -7.655  21.653  1.00  0.00     0.297 C 
HETATM   51  O   MOL     1     -45.662  -7.831  23.033  1.00  0.00    -0.188 OA
HETATM   52  O   MOL     1     -47.135  -7.316  22.282  1.00  0.00    -0.188 OA
ENDBRANCH  37  50
BRANCH  38  53
HETATM   53  O   MOL     1     -45.195 -10.062  22.952  1.00  0.00    -0.395 OA
HETATM   54  H   MOL     1     -44.784 -10.565  21.970  1.00  0.00     0.210 HD
ENDBRANCH  38  53
BRANCH  47  55
HETATM   55  O   MOL     1     -48.302 -13.323  20.173  1.00  0.00    -0.393 OA
HETATM   56  H   MOL     1     -48.198 -12.155  20.271  1.00  0.00     0.210 HD
ENDBRANCH  47  55
BRANCH  48  57
HETATM   57  O   MOL     1     -46.477 -13.901  18.090  1.00  0.00    -0.392 OA
HETATM   58  H   MOL     1     -45.403 -13.996  18.562  1.00  0.00     0.210 HD
ENDBRANCH  48  57
BRANCH  49  59
HETATM   59  O   MOL     1     -45.145 -14.723  20.446  1.00  0.00    -0.399 OA
HETATM   60  H   MOL     1     -44.696 -13.770  20.969  1.00  0.00     0.209 HD
ENDBRANCH  49  59
BRANCH  45  61
HETATM   61  C   MOL     1     -43.981 -12.224  19.813  1.00  0.00     0.292 C 
HETATM   62  O   MOL     1     -43.789 -13.625  19.830  1.00  0.00    -0.188 OA
HETATM   63  O   MOL     1     -43.705 -12.526  21.166  1.00  0.00    -0.188 OA
ENDBRANCH  45  61
ENDBRANCH   1  35
TORSDOF 8
ENDMDL
MODEL 4
REMARK VINA RESULT:     -11.3      2.472      9.022
REMARK  8 active torsions:
REMARK  status: ('A' for Active; 'I' for Inactive)
REMARK    1  A    between atoms: O_1  and  C_33 
REMARK    2  A    between atoms: O_1  and  C_49 
REMARK    3  A    between atoms: O_8  and  C_53 
REMARK    4  A    between atoms: O_12  and  C_56 
REMARK    5  A    between atoms: O_13  and  C_57 
REMARK    6  A    between atoms: O_14  and  C_59 
REMARK    7  A    between atoms: C_52  and  C_55 
REMARK    8  A    between atoms: C_58  and  C_60 
ROOT
HETATM    1  O   MOL     1     -50.283  -6.761  19.892  1.00  0.00     0.000 OA
ENDROOT
BRANCH   1   2
HETATM    2  C   MOL     1     -49.486  -7.366  19.929  1.00  0.00     0.007 C 
HETATM    3  C   MOL     1     -49.603  -8.399  20.243  1.00  0.00    -0.058 C 
HETATM    4  C   MOL     1     -48.868  -9.212  19.767  1.00  0.00    -0.007 C 
HETATM    5  C   MOL     1     -50.165  -9.129  20.632  1.00  0.00     0.027 C 
HETATM    6  C   MOL     1     -50.567  -8.232  20.448  1.00  0.00    -0.005 C 
HETATM    7  C   MOL     1     -47.809  -8.719  19.919  1.00  0.00    -0.037 A 
HETATM    8  C   MOL     1     -48.845 -10.040  20.573  1.00  0.00     0.006 C 
HETATM    9  C   MOL     1     -47.135  -9.540  19.407  1.00  0.00     0.013 A 
HETATM   10  C   MOL     1     -47.694  -7.722  19.508  1.00  0.00     0.014 C 
HETATM   11  C   MOL     1     -46.687  -8.120  20.453  1.00  0.00     0.081 C 
HETATM   12  C   MOL     1     -46.128  -9.068  19.526  1.00  0.00    -0.024 A 
HETATM   13  C   MOL     1     -47.095 -10.313  20.246  1.00  0.00    -0.033 A 
HETATM   14  C   MOL     1     -46.333 -10.960  20.143  1.00  0.00    -0.030 A 
HETATM   15  C   MOL     1     -48.020 -10.677  20.559  1.00  0.00     0.011 C 
HETATM   16  C   MOL     1     -47.279 -10.852  21.502  1.00  0.00     0.044 C 
HETATM   17  C   MOL     1     -45.438 -10.624  19.846  1.00  0.00    -0.018 A 
HETATM   18  C   MOL     1     -44.485 -11.104  20.290  1.00  0.00    -0.002 C 
HETATM   19  C   MOL     1     -45.341  -9.685  19.515  1.00  0.00    -0.036 C 
HETATM   20  C   MOL     1     -46.436 -11.920  20.537  1.00  0.00     0.041 A 
HETATM   21  C   MOL     1     -44.689 -12.219  20.219  1.00  0.00    -0.059 C 
HETATM   22  C   MOL     1     -43.662 -10.883  19.453  1.00  0.00     0.003 C 
HETATM   23  C   MOL     1     -45.621 -12.568  20.529  1.00  0.00     0.009 C 
HETATM   24  C   MOL     1     -43.852 -12.909  20.164  1.00  0.00     0.014 C 
HETATM   25  C   MOL     1     -44.542 -12.874  21.424  1.00  0.00     0.028 C 
HETATM   26  C   MOL     1     -42.894 -12.560  19.793  1.00  0.00     0.253 A 
HETATM   27  C   MOL     1     -42.811 -11.556  19.389  1.00  0.00     0.003 A 
HETATM   28  O   MOL     1     -41.424 -12.595  19.408  1.00  0.00    -0.382 OA
HETATM   29  C   MOL     1     -42.490 -11.106  18.125  1.00  0.00     0.044 C 
HETATM   30  C   MOL     1     -41.834 -11.700  19.227  1.00  0.00     0.080 A 
HETATM   31  O   MOL     1     -41.277 -10.966  18.838  1.00  0.00     0.000 OA
HETATM   32  C   MOL     1     -47.262 -11.854  19.652  1.00  0.00     0.025 C 
HETATM   33  C   MOL     1     -48.538  -7.040  19.513  1.00  0.00    -0.012 C 
HETATM   34  O   MOL     1     -46.032  -8.129  19.194  1.00  0.00     0.000 OA
ENDBRANCH   1   2
BRANCH   1  35
HETATM   35  C   MOL     1     -50.160  -5.768  19.893  1.00  0.00    -0.027 A 
HETATM   36  O   MOL     1     -49.925  -5.296  20.745  1.00  0.00     0.000 OA
HETATM   37  C   MOL     1     -49.898  -4.296  20.775  1.00  0.00     0.096 A 
HETATM   38  C   MOL     1     -50.009  -3.773  19.924  1.00  0.00     0.133 A 
HETATM   39  C   MOL     1     -50.387  -4.233  19.114  1.00  0.00     0.055 A 
HETATM   40  O   MOL     1     -51.503  -3.639  18.562  1.00  0.00     0.000 OA
HETATM   41  C   MOL     1     -50.367  -5.238  19.070  1.00  0.00     0.007 A 
HETATM   42  H   MOL     1     -50.500  -3.090  18.287  1.00  0.00     0.000 HD
HETATM   43  O   MOL     1     -50.830  -4.175  17.440  1.00  0.00     0.000 OA
HETATM   44  C   MOL     1     -50.953  -5.169  17.438  1.00  0.00     0.057 A 
HETATM   45  C   MOL     1     -51.085  -3.642  16.631  1.00  0.00     0.071 C 
HETATM   46  O   MOL     1     -50.697  -5.701  18.247  1.00  0.00     0.000 OA
HETATM   47  C   MOL     1     -51.140  -5.643  16.572  1.00  0.00     0.154 A 
HETATM   48  C   MOL     1     -51.442  -5.106  15.778  1.00  0.00     0.211 A 
HETATM   49  C   MOL     1     -51.271  -4.116  15.765  1.00  0.00     0.146 C 
BRANCH  37  50
HETATM   50  C   MOL     1     -50.524  -3.764  21.883  1.00  0.00     0.297 C 
HETATM   51  O   MOL     1     -49.181  -3.348  22.036  1.00  0.00    -0.188 OA
HETATM   52  O   MOL     1     -49.858  -4.901  22.398  1.00  0.00    -0.188 OA
ENDBRANCH  37  50
BRANCH  38  53
HETATM   53  O   MOL     1     -49.026  -2.840  19.669  1.00  0.00    -0.395 OA
HETATM   54  H   MOL     1     -49.707  -2.557  20.585  1.00  0.00     0.210 HD
ENDBRANCH  38  53
BRANCH  47  55
HETATM   55  O   MOL     1     -50.306  -6.704  16.286  1.00  0.00    -0.393 OA
HETATM   56  H   MOL     1     -51.118  -6.515  15.456  1.00  0.00     0.210 HD
ENDBRANCH  47  55
BRANCH  48  57
HETATM   57  O   MOL     1     -52.633  -5.509  15.211  1.00  0.00    -0.392 OA
HETATM   58  H   MOL     1     -52.777  -4.770  16.115  1.00  0.00     0.210 HD
ENDBRANCH  48  57
BRANCH  49  59
HETATM   59  O   MOL     1     -50.570  -3.651  14.672  1.00  0.00    -0.399 OA
HETATM   60  H   MOL     1     -51.092  -2.795  15.288  1.00  0.00     0.209 HD
ENDBRANCH  49  59
BRANCH  45  61
HETATM   61  C   MOL     1     -51.917  -2.580  16.918  1.00  0.00     0.292 C 
HETATM   62  O   MOL     1     -51.798  -2.530  15.509  1.00  0.00    -0.188 OA
HETATM   63  O   MOL     1     -50.666  -1.960  16.691  1.00  0.00    -0.188 OA
ENDBRANCH  45  61
ENDBRANCH   1  35
TORSDOF 8
ENDMDL
MODEL 5
REMARK VINA RESULT:     -11.2      4.711      8.026
REMARK  8 active torsions:
REMARK  status: ('A' for Active; 'I' for Inactive)
REMARK    1  A    between atoms: O_1  and  C_33 
REMARK    2  A    between atoms: O_1  and  C_49 
REMARK    3  A    between atoms: O_8  and  C_53 
REMARK    4  A    between atoms: O_12  and  C_56 
REMARK    5  A    between atoms: O_13  and  C_57 
REMARK    6  A    between atoms: O_14  and  C_59 
REMARK    7  A    between atoms: C_52  and  C_55 
REMARK    8  A    between atoms: C_58  and  C_60 
ROOT
HETATM    1  O   MOL     1     -46.669 -15.359  19.973  1.00  0.00     0.000 OA
ENDROOT
BRANCH   1   2
HETATM    2  C   MOL     1     -46.978 -14.446  20.245  1.00  0.00     0.007 C 
HETATM    3  C   MOL     1     -46.708 -13.581  19.645  1.00  0.00    -0.058 C 
HETATM    4  C   MOL     1     -47.478 -12.668  19.605  1.00  0.00    -0.007 C 
HETATM    5  C   MOL     1     -46.180 -13.172  18.900  1.00  0.00     0.027 C 
HETATM    6  C   MOL     1     -46.140 -14.159  19.059  1.00  0.00    -0.005 C 
HETATM    7  C   MOL     1     -47.713 -12.482  20.744  1.00  0.00    -0.037 A 
HETATM    8  C   MOL     1     -46.796 -11.766  19.369  1.00  0.00     0.006 C 
HETATM    9  C   MOL     1     -48.493 -11.605  20.644  1.00  0.00     0.013 A 
HETATM   10  C   MOL     1     -48.073 -13.345  21.296  1.00  0.00     0.014 C 
HETATM   11  C   MOL     1     -47.611 -12.247  22.100  1.00  0.00     0.081 C 
HETATM   12  C   MOL     1     -48.739 -11.437  21.722  1.00  0.00    -0.024 A 
HETATM   13  C   MOL     1     -47.784 -10.730  20.461  1.00  0.00    -0.033 A 
HETATM   14  C   MOL     1     -48.210  -9.838  20.643  1.00  0.00    -0.030 A 
HETATM   15  C   MOL     1     -47.164 -10.827  19.629  1.00  0.00     0.011 C 
HETATM   16  C   MOL     1     -46.589 -10.049  20.359  1.00  0.00     0.044 C 
HETATM   17  C   MOL     1     -48.805  -9.729  21.441  1.00  0.00    -0.018 A 
HETATM   18  C   MOL     1     -48.790  -8.728  22.017  1.00  0.00    -0.002 C 
HETATM   19  C   MOL     1     -49.088 -10.532  21.965  1.00  0.00    -0.036 C 
HETATM   20  C   MOL     1     -47.867  -9.004  20.119  1.00  0.00     0.041 A 
HETATM   21  C   MOL     1     -48.847  -7.945  21.196  1.00  0.00    -0.059 C 
HETATM   22  C   MOL     1     -49.862  -8.708  22.543  1.00  0.00     0.003 C 
HETATM   23  C   MOL     1     -48.226  -8.059  20.366  1.00  0.00     0.009 C 
HETATM   24  C   MOL     1     -49.260  -6.967  21.423  1.00  0.00     0.014 C 
HETATM   25  C   MOL     1     -47.833  -7.013  21.266  1.00  0.00     0.028 C 
HETATM   26  C   MOL     1     -49.947  -6.856  22.256  1.00  0.00     0.253 A 
HETATM   27  C   MOL     1     -50.289  -7.739  22.789  1.00  0.00     0.003 A 
HETATM   28  O   MOL     1     -50.866  -6.174  23.256  1.00  0.00    -0.382 OA
HETATM   29  C   MOL     1     -51.549  -8.279  22.942  1.00  0.00     0.044 C 
HETATM   30  C   MOL     1     -50.820  -7.161  23.409  1.00  0.00     0.080 A 
HETATM   31  O   MOL     1     -51.346  -7.576  24.152  1.00  0.00     0.000 OA
HETATM   32  C   MOL     1     -48.363  -9.722  19.277  1.00  0.00     0.025 C 
HETATM   33  C   MOL     1     -47.703 -14.333  21.045  1.00  0.00    -0.012 C 
HETATM   34  O   MOL     1     -49.023 -12.241  22.246  1.00  0.00     0.000 OA
ENDBRANCH   1   2
BRANCH   1  35
HETATM   35  C   MOL     1     -46.269 -15.976  20.652  1.00  0.00    -0.027 A 
HETATM   36  O   MOL     1     -45.971 -15.614  21.538  1.00  0.00     0.000 OA
HETATM   37  C   MOL     1     -45.481 -16.204  22.181  1.00  0.00     0.096 A 
HETATM   38  C   MOL     1     -45.378 -17.183  21.975  1.00  0.00     0.133 A 
HETATM   39  C   MOL     1     -45.542 -17.503  21.037  1.00  0.00     0.055 A 
HETATM   40  O   MOL     1     -44.500 -18.197  20.458  1.00  0.00     0.000 OA
HETATM   41  C   MOL     1     -46.077 -16.927  20.410  1.00  0.00     0.007 A 
HETATM   42  H   MOL     1     -45.119 -18.842  21.223  1.00  0.00     0.000 HD
HETATM   43  O   MOL     1     -45.648 -18.816  19.910  1.00  0.00     0.000 OA
HETATM   44  C   MOL     1     -46.049 -18.199  19.231  1.00  0.00     0.057 A 
HETATM   45  C   MOL     1     -45.411 -19.753  19.651  1.00  0.00     0.071 C 
HETATM   46  O   MOL     1     -46.285 -17.261  19.491  1.00  0.00     0.000 OA
HETATM   47  C   MOL     1     -46.391 -18.574  18.364  1.00  0.00     0.154 A 
HETATM   48  C   MOL     1     -46.110 -19.498  18.087  1.00  0.00     0.211 A 
HETATM   49  C   MOL     1     -45.754 -20.128  18.784  1.00  0.00     0.146 C 
BRANCH  37  50
HETATM   50  C   MOL     1     -44.378 -15.599  22.747  1.00  0.00     0.297 C 
HETATM   51  O   MOL     1     -44.907 -16.370  23.808  1.00  0.00    -0.188 OA
HETATM   52  O   MOL     1     -45.459 -14.831  23.237  1.00  0.00    -0.188 OA
ENDBRANCH  37  50
BRANCH  38  53
HETATM   53  O   MOL     1     -45.783 -18.043  22.974  1.00  0.00    -0.395 OA
HETATM   54  H   MOL     1     -45.532 -18.591  21.963  1.00  0.00     0.210 HD
ENDBRANCH  38  53
BRANCH  47  55
HETATM   55  O   MOL     1     -47.686 -18.227  18.040  1.00  0.00    -0.393 OA
HETATM   56  H   MOL     1     -47.312 -17.737  19.041  1.00  0.00     0.210 HD
ENDBRANCH  47  55
BRANCH  48  57
HETATM   57  O   MOL     1     -45.513 -19.588  16.847  1.00  0.00    -0.392 OA
HETATM   58  H   MOL     1     -45.481 -18.502  17.299  1.00  0.00     0.210 HD
ENDBRANCH  48  57
BRANCH  49  59
HETATM   59  O   MOL     1     -46.412 -21.337  18.880  1.00  0.00    -0.399 OA
HETATM   60  H   MOL     1     -46.762 -20.553  19.683  1.00  0.00     0.209 HD
ENDBRANCH  49  59
BRANCH  45  61
HETATM   61  C   MOL     1     -44.116 -20.100  19.976  1.00  0.00     0.292 C 
HETATM   62  O   MOL     1     -44.617 -21.264  19.348  1.00  0.00    -0.188 OA
HETATM   63  O   MOL     1     -44.884 -20.738  20.977  1.00  0.00    -0.188 OA
ENDBRANCH  45  61
ENDBRANCH   1  35
TORSDOF 8
ENDMDL
MODEL 6
REMARK VINA RESULT:     -11.2      9.306     12.823
REMARK  8 active torsions:
REMARK  status: ('A' for Active; 'I' for Inactive)
REMARK    1  A    between atoms: O_1  and  C_33 
REMARK    2  A    between atoms: O_1  and  C_49 
REMARK    3  A    between atoms: O_8  and  C_53 
REMARK    4  A    between atoms: O_12  and  C_56 
REMARK    5  A    between atoms: O_13  and  C_57 
REMARK    6  A    between atoms: O_14  and  C_59 
REMARK    7  A    between atoms: C_52  and  C_55 
REMARK    8  A    between atoms: C_58  and  C_60 
ROOT
HETATM    1  O   MOL     1     -45.037  -0.686  18.879  1.00  0.00     0.000 OA
ENDROOT
BRANCH   1   2
HETATM    2  C   MOL     1     -44.371   0.004  19.164  1.00  0.00     0.007 C 
HETATM    3  C   MOL     1     -43.633  -0.235  19.925  1.00  0.00    -0.058 C 
HETATM    4  C   MOL     1     -42.567   0.300  19.856  1.00  0.00    -0.007 C 
HETATM    5  C   MOL     1     -43.281  -0.853  20.628  1.00  0.00     0.027 C 
HETATM    6  C   MOL     1     -44.059  -1.129  20.064  1.00  0.00    -0.005 C 
HETATM    7  C   MOL     1     -42.858   1.434  19.724  1.00  0.00    -0.037 A 
HETATM    8  C   MOL     1     -42.202   0.290  20.953  1.00  0.00     0.006 C 
HETATM    9  C   MOL     1     -41.781   1.903  19.628  1.00  0.00     0.013 A 
HETATM   10  C   MOL     1     -43.521   1.654  18.894  1.00  0.00     0.014 C 
HETATM   11  C   MOL     1     -43.401   2.692  19.880  1.00  0.00     0.081 C 
HETATM   12  C   MOL     1     -42.049   2.979  19.479  1.00  0.00    -0.024 A 
HETATM   13  C   MOL     1     -41.476   1.922  20.727  1.00  0.00    -0.033 A 
HETATM   14  C   MOL     1     -40.716   2.555  20.910  1.00  0.00    -0.030 A 
HETATM   15  C   MOL     1     -41.480   0.997  21.206  1.00  0.00     0.011 C 
HETATM   16  C   MOL     1     -41.606   1.810  22.096  1.00  0.00     0.044 C 
HETATM   17  C   MOL     1     -40.702   3.450  20.460  1.00  0.00    -0.018 A 
HETATM   18  C   MOL     1     -40.295   4.361  21.042  1.00  0.00    -0.002 C 
HETATM   19  C   MOL     1     -41.352   3.652  19.728  1.00  0.00    -0.036 C 
HETATM   20  C   MOL     1     -40.076   2.352  21.708  1.00  0.00     0.041 A 
HETATM   21  C   MOL     1     -39.332   3.978  21.503  1.00  0.00    -0.059 C 
HETATM   22  C   MOL     1     -39.952   5.102  20.170  1.00  0.00     0.003 C 
HETATM   23  C   MOL     1     -39.349   3.047  21.972  1.00  0.00     0.009 C 
HETATM   24  C   MOL     1     -38.542   4.683  21.745  1.00  0.00     0.014 C 
HETATM   25  C   MOL     1     -39.273   4.166  22.868  1.00  0.00     0.028 C 
HETATM   26  C   MOL     1     -38.492   5.632  21.221  1.00  0.00     0.253 A 
HETATM   27  C   MOL     1     -39.171   5.823  20.395  1.00  0.00     0.003 A 
HETATM   28  O   MOL     1     -38.003   7.021  20.845  1.00  0.00    -0.382 OA
HETATM   29  C   MOL     1     -38.932   6.055  19.056  1.00  0.00     0.044 C 
HETATM   30  C   MOL     1     -38.781   6.738  20.285  1.00  0.00     0.080 A 
HETATM   31  O   MOL     1     -39.138   7.352  19.580  1.00  0.00     0.000 OA
HETATM   32  C   MOL     1     -39.898   1.445  20.923  1.00  0.00     0.025 C 
HETATM   33  C   MOL     1     -44.283   0.935  18.612  1.00  0.00    -0.012 C 
HETATM   34  O   MOL     1     -42.700   3.180  18.746  1.00  0.00     0.000 OA
ENDBRANCH   1   2
BRANCH   1  35
HETATM   35  C   MOL     1     -46.014  -0.471  18.878  1.00  0.00    -0.027 A 
HETATM   36  O   MOL     1     -46.462  -0.188  19.728  1.00  0.00     0.000 OA
HETATM   37  C   MOL     1     -47.455  -0.066  19.757  1.00  0.00     0.096 A 
HETATM   38  C   MOL     1     -47.986  -0.133  18.905  1.00  0.00     0.133 A 
HETATM   39  C   MOL     1     -47.562  -0.557  18.099  1.00  0.00     0.055 A 
HETATM   40  O   MOL     1     -48.258  -1.614  17.552  1.00  0.00     0.000 OA
HETATM   41  C   MOL     1     -46.560  -0.631  18.056  1.00  0.00     0.007 A 
HETATM   42  H   MOL     1     -48.711  -0.566  17.270  1.00  0.00     0.000 HD
HETATM   43  O   MOL     1     -47.661  -1.000  16.426  1.00  0.00     0.000 OA
HETATM   44  C   MOL     1     -46.683  -1.216  16.427  1.00  0.00     0.057 A 
HETATM   45  C   MOL     1     -48.215  -1.208  15.619  1.00  0.00     0.071 C 
HETATM   46  O   MOL     1     -46.130  -1.008  17.235  1.00  0.00     0.000 OA
HETATM   47  C   MOL     1     -46.228  -1.451  15.562  1.00  0.00     0.154 A 
HETATM   48  C   MOL     1     -46.790  -1.706  14.769  1.00  0.00     0.211 A 
HETATM   49  C   MOL     1     -47.760  -1.443  14.754  1.00  0.00     0.146 C 
BRANCH  37  50
HETATM   50  C   MOL     1     -48.045  -0.633  20.867  1.00  0.00     0.297 C 
HETATM   51  O   MOL     1     -48.504   0.704  20.901  1.00  0.00    -0.188 OA
HETATM   52  O   MOL     1     -46.963   0.099  21.410  1.00  0.00    -0.188 OA
ENDBRANCH  37  50
BRANCH  38  53
HETATM   53  O   MOL     1     -48.821   0.933  18.644  1.00  0.00    -0.395 OA
HETATM   54  H   MOL     1     -49.136   0.320  19.598  1.00  0.00     0.210 HD
ENDBRANCH  38  53
BRANCH  47  55
HETATM   55  O   MOL     1     -45.092  -0.723  15.274  1.00  0.00    -0.393 OA
HETATM   56  H   MOL     1     -45.905  -0.104  15.857  1.00  0.00     0.210 HD
ENDBRANCH  47  55
BRANCH  48  57
HETATM   57  O   MOL     1     -46.501  -2.933  14.209  1.00  0.00    -0.392 OA
HETATM   58  H   MOL     1     -47.419  -2.398  13.705  1.00  0.00     0.210 HD
ENDBRANCH  48  57
BRANCH  49  59
HETATM   59  O   MOL     1     -48.156  -0.707  13.657  1.00  0.00    -0.399 OA
HETATM   60  H   MOL     1     -47.002  -0.632  13.874  1.00  0.00     0.209 HD
ENDBRANCH  49  59
BRANCH  45  61
HETATM   61  C   MOL     1     -49.351  -1.936  15.908  1.00  0.00     0.292 C 
HETATM   62  O   MOL     1     -49.398  -1.803  14.500  1.00  0.00    -0.188 OA
HETATM   63  O   MOL     1     -49.847  -0.629  15.692  1.00  0.00    -0.188 OA
ENDBRANCH  45  61
ENDBRANCH   1  35
TORSDOF 8
ENDMDL
MODEL 7
REMARK VINA RESULT:     -11.1      3.740      6.483
REMARK  8 active torsions:
REMARK  status: ('A' for Active; 'I' for Inactive)
REMARK    1  A    between atoms: O_1  and  C_33 
REMARK    2  A    between atoms: O_1  and  C_49 
REMARK    3  A    between atoms: O_8  and  C_53 
REMARK    4  A    between atoms: O_12  and  C_56 
REMARK    5  A    between atoms: O_13  and  C_57 
REMARK    6  A    between atoms: O_14  and  C_59 
REMARK    7  A    between atoms: C_52  and  C_55 
REMARK    8  A    between atoms: C_58  and  C_60 
ROOT
HETATM    1  O   MOL     1     -46.334 -13.132  20.553  1.00  0.00     0.000 OA
ENDROOT
BRANCH   1   2
HETATM    2  C   MOL     1     -46.955 -12.361  20.704  1.00  0.00     0.007 C 
HETATM    3  C   MOL     1     -47.004 -11.553  19.980  1.00  0.00    -0.058 C 
HETATM    4  C   MOL     1     -48.049 -10.993  19.839  1.00  0.00    -0.007 C 
HETATM    5  C   MOL     1     -46.644 -11.094  19.167  1.00  0.00     0.027 C 
HETATM    6  C   MOL     1     -46.255 -11.967  19.462  1.00  0.00    -0.005 C 
HETATM    7  C   MOL     1     -48.356 -10.742  20.948  1.00  0.00    -0.037 A 
HETATM    8  C   MOL     1     -47.733  -9.950  19.454  1.00  0.00     0.006 C 
HETATM    9  C   MOL     1     -49.397 -10.227  20.753  1.00  0.00     0.013 A 
HETATM   10  C   MOL     1     -48.392 -11.587  21.628  1.00  0.00     0.014 C 
HETATM   11  C   MOL     1     -48.371 -10.294  22.253  1.00  0.00     0.081 C 
HETATM   12  C   MOL     1     -49.707 -10.005  21.804  1.00  0.00    -0.024 A 
HETATM   13  C   MOL     1     -49.047  -9.191  20.424  1.00  0.00    -0.033 A 
HETATM   14  C   MOL     1     -49.769  -8.496  20.493  1.00  0.00    -0.030 A 
HETATM   15  C   MOL     1     -48.419  -9.178  19.593  1.00  0.00     0.011 C 
HETATM   16  C   MOL     1     -48.175  -8.150  20.185  1.00  0.00     0.044 C 
HETATM   17  C   MOL     1     -50.377  -8.494  21.289  1.00  0.00    -0.018 A 
HETATM   18  C   MOL     1     -50.734  -7.482  21.717  1.00  0.00    -0.002 C 
HETATM   19  C   MOL     1     -50.363  -9.261  21.930  1.00  0.00    -0.036 C 
HETATM   20  C   MOL     1     -49.739  -7.679  19.845  1.00  0.00     0.041 A 
HETATM   21  C   MOL     1     -51.054  -6.899  20.797  1.00  0.00    -0.059 C 
HETATM   22  C   MOL     1     -51.752  -7.772  22.272  1.00  0.00     0.003 C 
HETATM   23  C   MOL     1     -50.419  -6.900  19.970  1.00  0.00     0.009 C 
HETATM   24  C   MOL     1     -51.796  -6.111  20.898  1.00  0.00     0.014 C 
HETATM   25  C   MOL     1     -50.445  -5.665  20.700  1.00  0.00     0.028 C 
HETATM   26  C   MOL     1     -52.492  -6.136  21.731  1.00  0.00     0.253 A 
HETATM   27  C   MOL     1     -52.502  -6.997  22.394  1.00  0.00     0.003 A 
HETATM   28  O   MOL     1     -53.612  -5.692  22.656  1.00  0.00    -0.382 OA
HETATM   29  C   MOL     1     -53.486  -7.924  22.665  1.00  0.00     0.044 C 
HETATM   30  C   MOL     1     -53.217  -6.564  22.945  1.00  0.00     0.080 A 
HETATM   31  O   MOL     1     -53.572  -7.029  23.756  1.00  0.00     0.000 OA
HETATM   32  C   MOL     1     -49.928  -8.640  19.131  1.00  0.00     0.025 C 
HETATM   33  C   MOL     1     -47.687 -12.403  21.505  1.00  0.00    -0.012 C 
HETATM   34  O   MOL     1     -49.693 -10.773  22.446  1.00  0.00     0.000 OA
ENDBRANCH   1   2
BRANCH   1  35
HETATM   35  C   MOL     1     -45.794 -13.498  21.312  1.00  0.00    -0.027 A 
HETATM   36  O   MOL     1     -45.306 -12.871  21.923  1.00  0.00     0.000 OA
HETATM   37  C   MOL     1     -44.686 -13.232  22.622  1.00  0.00     0.096 A 
HETATM   38  C   MOL     1     -44.634 -14.224  22.772  1.00  0.00     0.133 A 
HETATM   39  C   MOL     1     -45.003 -14.843  22.071  1.00  0.00     0.055 A 
HETATM   40  O   MOL     1     -44.117 -15.782  21.585  1.00  0.00     0.000 OA
HETATM   41  C   MOL     1     -45.663 -14.485  21.401  1.00  0.00     0.007 A 
HETATM   42  H   MOL     1     -44.553 -16.059  22.642  1.00  0.00     0.000 HD
HETATM   43  O   MOL     1     -45.360 -16.457  21.550  1.00  0.00     0.000 OA
HETATM   44  C   MOL     1     -45.900 -16.092  20.790  1.00  0.00     0.057 A 
HETATM   45  C   MOL     1     -45.189 -17.442  21.609  1.00  0.00     0.071 C 
HETATM   46  O   MOL     1     -46.071 -15.107  20.732  1.00  0.00     0.000 OA
HETATM   47  C   MOL     1     -46.428 -16.721  20.211  1.00  0.00     0.154 A 
HETATM   48  C   MOL     1     -46.217 -17.703  20.239  1.00  0.00     0.211 A 
HETATM   49  C   MOL     1     -45.717 -18.071  21.029  1.00  0.00     0.146 C 
BRANCH  37  50
HETATM   50  C   MOL     1     -43.484 -12.560  22.686  1.00  0.00     0.297 C 
HETATM   51  O   MOL     1     -43.953 -12.519  24.020  1.00  0.00    -0.188 OA
HETATM   52  O   MOL     1     -44.441 -11.518  22.693  1.00  0.00    -0.188 OA
ENDBRANCH  37  50
BRANCH  38  53
HETATM   53  O   MOL     1     -44.809 -14.636  24.076  1.00  0.00    -0.395 OA
HETATM   54  H   MOL     1     -45.460 -13.697  23.795  1.00  0.00     0.210 HD
ENDBRANCH  38  53
BRANCH  47  55
HETATM   55  O   MOL     1     -47.762 -16.406  20.057  1.00  0.00    -0.393 OA
HETATM   56  H   MOL     1     -47.586 -17.506  20.435  1.00  0.00     0.210 HD
ENDBRANCH  47  55
BRANCH  48  57
HETATM   57  O   MOL     1     -45.911 -18.278  19.024  1.00  0.00    -0.392 OA
HETATM   58  H   MOL     1     -45.645 -17.134  19.075  1.00  0.00     0.210 HD
ENDBRANCH  48  57
BRANCH  49  59
HETATM   59  O   MOL     1     -46.340 -19.107  21.694  1.00  0.00    -0.399 OA
HETATM   60  H   MOL     1     -45.591 -18.504  22.372  1.00  0.00     0.209 HD
ENDBRANCH  49  59
BRANCH  45  61
HETATM   61  C   MOL     1     -43.855 -17.757  21.763  1.00  0.00     0.292 C 
HETATM   62  O   MOL     1     -44.485 -19.022  21.721  1.00  0.00    -0.188 OA
HETATM   63  O   MOL     1     -44.383 -17.933  23.063  1.00  0.00    -0.188 OA
ENDBRANCH  45  61
ENDBRANCH   1  35
TORSDOF 8
ENDMDL
MODEL 8
REMARK VINA RESULT:     -11.1      3.406      9.527
REMARK  8 active torsions:
REMARK  status: ('A' for Active; 'I' for Inactive)
REMARK    1  A    between atoms: O_1  and  C_33 
REMARK    2  A    between atoms: O_1  and  C_49 
REMARK    3  A    between atoms: O_8  and  C_53 
REMARK    4  A    between atoms: O_12  and  C_56 
REMARK    5  A    between atoms: O_13  and  C_57 
REMARK    6  A    between atoms: O_14  and  C_59 
REMARK    7  A    between atoms: C_52  and  C_55 
REMARK    8  A    between atoms: C_58  and  C_60 
ROOT
HETATM    1  O   MOL     1     -47.420  -8.985  20.294  1.00  0.00     0.000 OA
ENDROOT
BRANCH   1   2
HETATM    2  C   MOL     1     -47.404  -9.975  20.440  1.00  0.00     0.007 C 
HETATM    3  C   MOL     1     -46.656 -10.586  19.943  1.00  0.00    -0.058 C 
HETATM    4  C   MOL     1     -46.272 -11.566  20.507  1.00  0.00    -0.007 C 
HETATM    5  C   MOL     1     -45.923 -10.682  19.269  1.00  0.00     0.027 C 
HETATM    6  C   MOL     1     -46.327  -9.784  19.443  1.00  0.00    -0.005 C 
HETATM    7  C   MOL     1     -47.278 -12.094  20.816  1.00  0.00    -0.037 A 
HETATM    8  C   MOL     1     -45.925 -12.244  19.636  1.00  0.00     0.006 C 
HETATM    9  C   MOL     1     -46.843 -13.026  21.391  1.00  0.00     0.013 A 
HETATM   10  C   MOL     1     -47.966 -11.487  21.397  1.00  0.00     0.014 C 
HETATM   11  C   MOL     1     -48.531 -12.671  20.812  1.00  0.00     0.081 C 
HETATM   12  C   MOL     1     -47.794 -13.521  21.710  1.00  0.00    -0.024 A 
HETATM   13  C   MOL     1     -46.559 -13.688  20.506  1.00  0.00    -0.033 A 
HETATM   14  C   MOL     1     -46.444 -14.653  20.762  1.00  0.00    -0.030 A 
HETATM   15  C   MOL     1     -45.883 -13.266  19.835  1.00  0.00     0.011 C 
HETATM   16  C   MOL     1     -46.474 -14.108  19.195  1.00  0.00     0.044 C 
HETATM   17  C   MOL     1     -47.089 -15.073  21.403  1.00  0.00    -0.018 A 
HETATM   18  C   MOL     1     -47.391 -16.177  21.249  1.00  0.00    -0.002 C 
HETATM   19  C   MOL     1     -47.747 -14.503  21.895  1.00  0.00    -0.036 C 
HETATM   20  C   MOL     1     -45.787 -15.243  20.207  1.00  0.00     0.041 A 
HETATM   21  C   MOL     1     -46.403 -16.703  21.063  1.00  0.00    -0.059 C 
HETATM   22  C   MOL     1     -47.725 -16.517  22.345  1.00  0.00     0.003 C 
HETATM   23  C   MOL     1     -45.732 -16.266  20.394  1.00  0.00     0.009 C 
HETATM   24  C   MOL     1     -46.312 -17.761  21.294  1.00  0.00     0.014 C 
HETATM   25  C   MOL     1     -46.392 -17.439  19.896  1.00  0.00     0.028 C 
HETATM   26  C   MOL     1     -46.975 -18.207  22.028  1.00  0.00     0.253 A 
HETATM   27  C   MOL     1     -47.652 -17.572  22.592  1.00  0.00     0.003 A 
HETATM   28  O   MOL     1     -47.619 -19.279  22.891  1.00  0.00    -0.382 OA
HETATM   29  C   MOL     1     -47.740 -17.311  23.944  1.00  0.00     0.044 C 
HETATM   30  C   MOL     1     -48.019 -18.378  23.059  1.00  0.00     0.080 A 
HETATM   31  O   MOL     1     -48.752 -18.275  23.732  1.00  0.00     0.000 OA
HETATM   32  C   MOL     1     -45.086 -14.414  20.746  1.00  0.00     0.025 C 
HETATM   33  C   MOL     1     -48.029 -10.421  21.208  1.00  0.00    -0.012 C 
HETATM   34  O   MOL     1     -48.453 -12.950  22.202  1.00  0.00     0.000 OA
ENDBRANCH   1   2
BRANCH   1  35
HETATM   35  C   MOL     1     -48.293  -8.507  20.188  1.00  0.00    -0.027 A 
HETATM   36  O   MOL     1     -48.860  -8.680  19.381  1.00  0.00     0.000 OA
HETATM   37  C   MOL     1     -49.684  -8.135  19.220  1.00  0.00     0.096 A 
HETATM   38  C   MOL     1     -49.991  -7.484  19.921  1.00  0.00     0.133 A 
HETATM   39  C   MOL     1     -49.351  -7.210  20.645  1.00  0.00     0.055 A 
HETATM   40  O   MOL     1     -49.141  -5.852  20.767  1.00  0.00     0.000 OA
HETATM   41  C   MOL     1     -48.550  -7.789  20.835  1.00  0.00     0.007 A 
HETATM   42  H   MOL     1     -50.158  -6.208  21.237  1.00  0.00     0.000 HD
HETATM   43  O   MOL     1     -49.041  -6.319  22.099  1.00  0.00     0.000 OA
HETATM   44  C   MOL     1     -48.168  -6.796  22.205  1.00  0.00     0.057 A 
HETATM   45  C   MOL     1     -49.274  -5.566  22.718  1.00  0.00     0.071 C 
HETATM   46  O   MOL     1     -47.935  -7.548  21.586  1.00  0.00     0.000 OA
HETATM   47  C   MOL     1     -47.626  -6.657  23.040  1.00  0.00     0.154 A 
HETATM   48  C   MOL     1     -47.835  -5.871  23.631  1.00  0.00     0.211 A 
HETATM   49  C   MOL     1     -48.733  -5.427  23.553  1.00  0.00     0.146 C 
BRANCH  37  50
HETATM   50  C   MOL     1     -49.807  -7.702  17.916  1.00  0.00     0.297 C 
HETATM   51  O   MOL     1     -51.016  -8.399  18.144  1.00  0.00    -0.188 OA
HETATM   52  O   MOL     1     -49.461  -9.066  17.776  1.00  0.00    -0.188 OA
ENDBRANCH  37  50
BRANCH  38  53
HETATM   53  O   MOL     1     -51.308  -7.612  20.312  1.00  0.00    -0.395 OA
HETATM   54  H   MOL     1     -50.552  -7.633  21.213  1.00  0.00     0.210 HD
ENDBRANCH  38  53
BRANCH  47  55
HETATM   55  O   MOL     1     -47.245  -7.808  23.698  1.00  0.00    -0.393 OA
HETATM   56  H   MOL     1     -47.688  -8.011  22.627  1.00  0.00     0.210 HD
ENDBRANCH  47  55
BRANCH  48  57
HETATM   57  O   MOL     1     -46.776  -5.025  23.887  1.00  0.00    -0.392 OA
HETATM   58  H   MOL     1     -46.543  -5.820  23.051  1.00  0.00     0.210 HD
ENDBRANCH  48  57
BRANCH  49  59
HETATM   59  O   MOL     1     -49.458  -5.348  24.723  1.00  0.00    -0.399 OA
HETATM   60  H   MOL     1     -48.426  -5.897  24.853  1.00  0.00     0.209 HD
ENDBRANCH  49  59
BRANCH  45  61
HETATM   61  C   MOL     1     -49.656  -4.415  22.060  1.00  0.00     0.292 C 
HETATM   62  O   MOL     1     -49.740  -4.054  23.424  1.00  0.00    -0.188 OA
HETATM   63  O   MOL     1     -50.884  -4.963  22.496  1.00  0.00    -0.188 OA
ENDBRANCH  45  61
ENDBRANCH   1  35
TORSDOF 8
ENDMDL
MODEL 9
REMARK VINA RESULT:     -11.0      4.971      8.304
REMARK  8 active torsions:
REMARK  status: ('A' for Active; 'I' for Inactive)
REMARK    1  A    between atoms: O_1  and  C_33 
REMARK    2  A    between atoms: O_1  and  C_49 
REMARK    3  A    between atoms: O_8  and  C_53 
REMARK    4  A    between atoms: O_12  and  C_56 
REMARK    5  A    between atoms: O_13  and  C_57 
REMARK    6  A    between atoms: O_14  and  C_59 
REMARK    7  A    between atoms: C_52  and  C_55 
REMARK    8  A    between atoms: C_58  and  C_60 
ROOT
HETATM    1  O   MOL     1     -45.005 -16.199  20.596  1.00  0.00     0.000 OA
ENDROOT
BRANCH   1   2
HETATM    2  C   MOL     1     -45.365 -15.276  20.456  1.00  0.00     0.007 C 
HETATM    3  C   MOL     1     -44.690 -14.424  20.455  1.00  0.00    -0.058 C 
HETATM    4  C   MOL     1     -44.970 -13.491  19.764  1.00  0.00    -0.007 C 
HETATM    5  C   MOL     1     -43.781 -14.038  20.615  1.00  0.00     0.027 C 
HETATM    6  C   MOL     1     -43.927 -15.024  20.700  1.00  0.00    -0.005 C 
HETATM    7  C   MOL     1     -46.093 -13.288  20.053  1.00  0.00    -0.037 A 
HETATM    8  C   MOL     1     -44.441 -12.611  20.294  1.00  0.00     0.006 C 
HETATM    9  C   MOL     1     -46.324 -12.390  19.326  1.00  0.00     0.013 A 
HETATM   10  C   MOL     1     -46.765 -14.134  19.951  1.00  0.00     0.014 C 
HETATM   11  C   MOL     1     -47.265 -13.042  20.740  1.00  0.00     0.081 C 
HETATM   12  C   MOL     1     -47.398 -12.205  19.577  1.00  0.00    -0.024 A 
HETATM   13  C   MOL     1     -45.833 -11.537  19.903  1.00  0.00    -0.033 A 
HETATM   14  C   MOL     1     -46.163 -10.632  19.616  1.00  0.00    -0.030 A 
HETATM   15  C   MOL     1     -44.816 -11.659  20.096  1.00  0.00     0.011 C 
HETATM   16  C   MOL     1     -45.206 -10.890  20.948  1.00  0.00     0.044 C 
HETATM   17  C   MOL     1     -47.138 -10.499  19.431  1.00  0.00    -0.018 A 
HETATM   18  C   MOL     1     -47.629  -9.493  19.716  1.00  0.00    -0.002 C 
HETATM   19  C   MOL     1     -47.750 -11.288  19.387  1.00  0.00    -0.036 C 
HETATM   20  C   MOL     1     -45.525  -9.813  19.714  1.00  0.00     0.041 A 
HETATM   21  C   MOL     1     -46.900  -8.717  19.324  1.00  0.00    -0.059 C 
HETATM   22  C   MOL     1     -48.569  -9.438  18.981  1.00  0.00     0.003 C 
HETATM   23  C   MOL     1     -45.884  -8.855  19.518  1.00  0.00     0.009 C 
HETATM   24  C   MOL     1     -47.263  -7.725  19.071  1.00  0.00     0.014 C 
HETATM   25  C   MOL     1     -46.502  -7.812  20.286  1.00  0.00     0.028 C 
HETATM   26  C   MOL     1     -48.310  -7.587  18.818  1.00  0.00     0.253 A 
HETATM   27  C   MOL     1     -48.956  -8.455  18.724  1.00  0.00     0.003 A 
HETATM   28  O   MOL     1     -49.595  -6.870  18.441  1.00  0.00    -0.382 OA
HETATM   29  C   MOL     1     -49.654  -8.959  17.646  1.00  0.00     0.044 C 
HETATM   30  C   MOL     1     -49.733  -7.856  18.528  1.00  0.00     0.080 A 
HETATM   31  O   MOL     1     -50.639  -8.249  18.370  1.00  0.00     0.000 OA
HETATM   32  C   MOL     1     -44.998 -10.525  18.886  1.00  0.00     0.025 C 
HETATM   33  C   MOL     1     -46.398 -15.135  20.154  1.00  0.00    -0.012 C 
HETATM   34  O   MOL     1     -48.011 -12.995  19.533  1.00  0.00     0.000 OA
ENDBRANCH   1   2
BRANCH   1  35
HETATM   35  C   MOL     1     -45.365 -16.771  21.335  1.00  0.00    -0.027 A 
HETATM   36  O   MOL     1     -45.860 -16.347  22.096  1.00  0.00     0.000 OA
HETATM   37  C   MOL     1     -46.135 -16.898  22.885  1.00  0.00     0.096 A 
HETATM   38  C   MOL     1     -46.000 -17.894  22.864  1.00  0.00     0.133 A 
HETATM   39  C   MOL     1     -45.379 -18.287  22.179  1.00  0.00     0.055 A 
HETATM   40  O   MOL     1     -44.360 -19.068  22.683  1.00  0.00     0.000 OA
HETATM   41  C   MOL     1     -45.145 -17.746  21.364  1.00  0.00     0.007 A 
HETATM   42  H   MOL     1     -45.398 -19.621  22.656  1.00  0.00     0.000 HD
HETATM   43  O   MOL     1     -44.664 -19.686  21.447  1.00  0.00     0.000 OA
HETATM   44  C   MOL     1     -44.305 -19.115  20.708  1.00  0.00     0.057 A 
HETATM   45  C   MOL     1     -44.403 -20.651  21.501  1.00  0.00     0.071 C 
HETATM   46  O   MOL     1     -44.567 -18.150  20.654  1.00  0.00     0.000 OA
HETATM   47  C   MOL     1     -43.852 -19.549  19.923  1.00  0.00     0.154 A 
HETATM   48  C   MOL     1     -43.548 -20.504  20.002  1.00  0.00     0.211 A 
HETATM   49  C   MOL     1     -43.950 -21.085  20.716  1.00  0.00     0.146 C 
BRANCH  37  50
HETATM   50  C   MOL     1     -45.873 -16.290  24.095  1.00  0.00     0.297 C 
HETATM   51  O   MOL     1     -47.171 -16.823  24.272  1.00  0.00    -0.188 OA
HETATM   52  O   MOL     1     -46.725 -15.368  23.445  1.00  0.00    -0.188 OA
ENDBRANCH  37  50
BRANCH  38  53
HETATM   53  O   MOL     1     -47.117 -18.649  23.153  1.00  0.00    -0.395 OA
HETATM   54  H   MOL     1     -46.819 -18.679  22.015  1.00  0.00     0.210 HD
ENDBRANCH  38  53
BRANCH  47  55
HETATM   55  O   MOL     1     -44.334 -19.181  18.684  1.00  0.00    -0.393 OA
HETATM   56  H   MOL     1     -44.514 -20.317  18.934  1.00  0.00     0.210 HD
ENDBRANCH  47  55
BRANCH  48  57
HETATM   57  O   MOL     1     -42.211 -20.723  19.741  1.00  0.00    -0.392 OA
HETATM   58  H   MOL     1     -42.915 -21.545  19.279  1.00  0.00     0.210 HD
ENDBRANCH  48  57
BRANCH  49  59
HETATM   59  O   MOL     1     -44.530 -22.255  20.270  1.00  0.00    -0.399 OA
HETATM   60  H   MOL     1     -44.158 -21.559  19.397  1.00  0.00     0.209 HD
ENDBRANCH  49  59
BRANCH  45  61
HETATM   61  C   MOL     1     -43.921 -21.019  22.741  1.00  0.00     0.292 C 
HETATM   62  O   MOL     1     -43.871 -22.223  22.001  1.00  0.00    -0.188 OA
HETATM   63  O   MOL     1     -45.252 -21.497  22.754  1.00  0.00    -0.188 OA
ENDBRANCH  45  61
ENDBRANCH   1  35
TORSDOF 8
ENDMDL
MODEL 10
REMARK VINA RESULT:     -11.0      2.419      9.002
REMARK  8 active torsions:
REMARK  status: ('A' for Active; 'I' for Inactive)
REMARK    1  A    between atoms: O_1  and  C_33 
REMARK    2  A    between atoms: O_1  and  C_49 
REMARK    3  A    between atoms: O_8  and  C_53 
REMARK    4  A    between atoms: O_12  and  C_56 
REMARK    5  A    between atoms: O_13  and  C_57 
REMARK    6  A    between atoms: O_14  and  C_59 
REMARK    7  A    between atoms: C_52  and  C_55 
REMARK    8  A    between atoms: C_58  and  C_60 
ROOT
HETATM    1  O   MOL     1     -49.794  -8.497  19.776  1.00  0.00     0.000 OA
ENDROOT
BRANCH   1   2
HETATM    2  C   MOL     1     -48.854  -8.566  20.114  1.00  0.00     0.007 C 
HETATM    3  C   MOL     1     -48.143  -9.215  19.610  1.00  0.00    -0.058 C 
HETATM    4  C   MOL     1     -46.993  -8.890  19.616  1.00  0.00    -0.007 C 
HETATM    5  C   MOL     1     -47.944  -9.924  18.934  1.00  0.00     0.027 C 
HETATM    6  C   MOL     1     -48.866  -9.544  19.004  1.00  0.00    -0.005 C 
HETATM    7  C   MOL     1     -46.798  -8.658  20.754  1.00  0.00    -0.037 A 
HETATM    8  C   MOL     1     -46.441  -9.899  19.498  1.00  0.00     0.006 C 
HETATM    9  C   MOL     1     -45.672  -8.316  20.695  1.00  0.00     0.013 A 
HETATM   10  C   MOL     1     -47.467  -7.932  21.205  1.00  0.00     0.014 C 
HETATM   11  C   MOL     1     -46.711  -8.732  22.128  1.00  0.00     0.081 C 
HETATM   12  C   MOL     1     -45.485  -8.070  21.769  1.00  0.00    -0.024 A 
HETATM   13  C   MOL     1     -45.160  -9.333  20.629  1.00  0.00    -0.033 A 
HETATM   14  C   MOL     1     -44.185  -9.294  20.869  1.00  0.00    -0.030 A 
HETATM   15  C   MOL     1     -45.452  -9.926  19.824  1.00  0.00     0.011 C 
HETATM   16  C   MOL     1     -45.029 -10.706  20.650  1.00  0.00     0.044 C 
HETATM   17  C   MOL     1     -43.890  -8.731  21.643  1.00  0.00    -0.018 A 
HETATM   18  C   MOL     1     -43.022  -9.105  22.308  1.00  0.00    -0.002 C 
HETATM   19  C   MOL     1     -44.534  -8.101  22.077  1.00  0.00    -0.036 C 
HETATM   20  C   MOL     1     -43.536  -9.990  20.442  1.00  0.00     0.041 A 
HETATM   21  C   MOL     1     -42.237  -9.441  21.561  1.00  0.00    -0.059 C 
HETATM   22  C   MOL     1     -42.593  -8.094  22.779  1.00  0.00     0.003 C 
HETATM   23  C   MOL     1     -42.544 -10.029  20.756  1.00  0.00     0.009 C 
HETATM   24  C   MOL     1     -41.191  -9.446  21.856  1.00  0.00     0.014 C 
HETATM   25  C   MOL     1     -41.814 -10.738  21.767  1.00  0.00     0.028 C 
HETATM   26  C   MOL     1     -40.859  -8.797  22.659  1.00  0.00     0.253 A 
HETATM   27  C   MOL     1     -41.553  -8.081  23.091  1.00  0.00     0.003 A 
HETATM   28  O   MOL     1     -39.921  -8.157  23.670  1.00  0.00    -0.382 OA
HETATM   29  C   MOL     1     -41.531  -6.703  23.130  1.00  0.00     0.044 C 
HETATM   30  C   MOL     1     -40.846  -7.782  23.734  1.00  0.00     0.080 A 
HETATM   31  O   MOL     1     -41.052  -7.073  24.408  1.00  0.00     0.000 OA
HETATM   32  C   MOL     1     -43.930  -9.317  19.514  1.00  0.00     0.025 C 
HETATM   33  C   MOL     1     -48.502  -7.886  20.883  1.00  0.00    -0.012 C 
HETATM   34  O   MOL     1     -46.131  -7.439  22.203  1.00  0.00     0.000 OA
ENDBRANCH   1   2
BRANCH   1  35
HETATM   35  C   MOL     1     -50.402  -7.784  20.127  1.00  0.00    -0.027 A 
HETATM   36  O   MOL     1     -50.846  -7.904  21.018  1.00  0.00     0.000 OA
HETATM   37  C   MOL     1     -51.530  -7.243  21.331  1.00  0.00     0.096 A 
HETATM   38  C   MOL     1     -51.696  -6.411  20.793  1.00  0.00     0.133 A 
HETATM   39  C   MOL     1     -51.367  -6.370  19.844  1.00  0.00     0.055 A 
HETATM   40  O   MOL     1     -52.328  -6.087  18.896  1.00  0.00     0.000 OA
HETATM   41  C   MOL     1     -50.644  -7.004  19.550  1.00  0.00     0.007 A 
HETATM   42  H   MOL     1     -51.971  -5.138  19.492  1.00  0.00     0.000 HD
HETATM   43  O   MOL     1     -51.165  -5.470  18.377  1.00  0.00     0.000 OA
HETATM   44  C   MOL     1     -50.557  -6.183  18.025  1.00  0.00     0.057 A 
HETATM   45  C   MOL     1     -51.445  -4.716  17.780  1.00  0.00     0.071 C 
HETATM   46  O   MOL     1     -50.278  -6.937  18.622  1.00  0.00     0.000 OA
HETATM   47  C   MOL     1     -50.076  -6.037  17.154  1.00  0.00     0.154 A 
HETATM   48  C   MOL     1     -50.393  -5.309  16.538  1.00  0.00     0.211 A 
HETATM   49  C   MOL     1     -50.964  -4.571  16.910  1.00  0.00     0.146 C 
BRANCH  37  50
HETATM   50  C   MOL     1     -52.654  -7.835  21.869  1.00  0.00     0.297 C 
HETATM   51  O   MOL     1     -52.092  -7.142  22.967  1.00  0.00    -0.188 OA
HETATM   52  O   MOL     1     -51.603  -8.669  22.313  1.00  0.00    -0.188 OA
ENDBRANCH  37  50
BRANCH  38  53
HETATM   53  O   MOL     1     -51.624  -5.227  21.497  1.00  0.00    -0.395 OA
HETATM   54  H   MOL     1     -50.572  -5.631  21.159  1.00  0.00     0.210 HD
ENDBRANCH  38  53
BRANCH  47  55
HETATM   55  O   MOL     1     -48.710  -6.226  17.193  1.00  0.00    -0.393 OA
HETATM   56  H   MOL     1     -49.254  -6.569  18.178  1.00  0.00     0.210 HD
ENDBRANCH  47  55
BRANCH  48  57
HETATM   57  O   MOL     1     -50.708  -5.713  15.257  1.00  0.00    -0.392 OA
HETATM   58  H   MOL     1     -49.687  -5.132  15.323  1.00  0.00     0.210 HD
ENDBRANCH  48  57
BRANCH  49  59
HETATM   59  O   MOL     1     -50.487  -3.293  16.704  1.00  0.00    -0.399 OA
HETATM   60  H   MOL     1     -49.922  -3.867  17.561  1.00  0.00     0.209 HD
ENDBRANCH  49  59
BRANCH  45  61
HETATM   61  C   MOL     1     -52.811  -4.527  17.742  1.00  0.00     0.292 C 
HETATM   62  O   MOL     1     -52.321  -3.544  16.851  1.00  0.00    -0.188 OA
HETATM   63  O   MOL     1     -52.361  -3.482  18.582  1.00  0.00    -0.188 OA
ENDBRANCH  45  61
ENDBRANCH   1  35
TORSDOF 8
ENDMDL
