MODEL 1
REMARK VINA RESULT:      -7.6      0.000      0.000
REMARK  16 active torsions:
REMARK  status: ('A' for Active; 'I' for Inactive)
REMARK    1  A    between atoms: N_3  and  C_13 
REMARK    2  A    between atoms: C_6  and  C_37 
REMARK    3  A    between atoms: C_13  and  C_14 
REMARK    4  A    between atoms: C_13  and  C_17 
REMARK       I    between atoms: C_14  and  N_15 
REMARK    5  A    between atoms: N_15  and  C_16 
REMARK    6  A    between atoms: C_16  and  C_27 
REMARK    7  A    between atoms: C_16  and  C_28 
REMARK    8  A    between atoms: C_25  and  C_27 
REMARK    9  A    between atoms: C_28  and  C_29 
REMARK   10  A    between atoms: C_29  and  C_30 
REMARK   11  A    between atoms: C_29  and  O_36 
REMARK   12  A    between atoms: C_30  and  N_31 
REMARK   13  A    between atoms: C_30  and  C_37 
REMARK       I    between atoms: N_31  and  C_32 
REMARK   14  A    between atoms: C_32  and  C_33 
REMARK   15  A    between atoms: C_33  and  O_34 
REMARK   16  A    between atoms: O_34  and  C_35 
ROOT
HETATM    1  C   UNK     0     -45.952  -0.554  16.530  0.00  0.00     0.126 C 
HETATM    2  C   UNK     0     -46.973  -2.797  16.061  0.00  0.00     0.130 C 
HETATM    3  N   UNK     0     -48.288  -2.259  16.571  0.00  0.00    -0.320 N 
HETATM    4  C   UNK     0     -48.404  -0.953  17.027  0.00  0.00     0.319 C 
HETATM    5  N   UNK     0     -47.295  -0.160  17.001  0.00  0.00    -0.343 N 
HETATM    6  O   UNK     0     -49.458  -0.504  17.446  0.00  0.00    -0.247 OA
HETATM    7  C   UNK     0     -46.016  -1.711  15.527  0.00  0.00     0.040 C 
HETATM    8  H   UNK     0     -47.481   0.780  17.351  0.00  0.00     0.164 HD
ENDROOT
BRANCH   3   9
HETATM    9  C   UNK     0     -49.501  -3.148  16.597  0.00  0.00     0.184 C 
BRANCH   9  10
HETATM   10  C   UNK     0     -49.451  -4.044  17.865  0.00  0.00     0.241 C 
HETATM   11  N   UNK     0     -50.560  -3.904  18.655  0.00  0.00    -0.354 N 
HETATM   12  H   UNK     0     -51.237  -3.235  18.288  0.00  0.00     0.162 HD
HETATM   13  O   UNK     0     -48.496  -4.786  18.097  0.00  0.00    -0.271 OA
BRANCH  11  14
HETATM   14  C   UNK     0     -50.790  -4.631  19.923  0.00  0.00     0.091 C 
BRANCH  14  15
HETATM   15  C   UNK     0     -52.285  -4.589  20.315  0.00  0.00     0.063 C 
BRANCH  15  16
HETATM   16  C   UNK     0     -52.651  -3.933  21.616  0.00  0.00    -0.056 A 
HETATM   17  C   UNK     0     -51.638  -3.572  22.546  0.00  0.00     0.007 A 
HETATM   18  C   UNK     0     -51.970  -2.954  23.773  0.00  0.00     0.001 A 
HETATM   19  C   UNK     0     -53.324  -2.688  24.083  0.00  0.00     0.000 A 
HETATM   20  C   UNK     0     -54.339  -3.043  23.162  0.00  0.00     0.001 A 
HETATM   21  C   UNK     0     -54.002  -3.662  21.935  0.00  0.00     0.007 A 
ENDBRANCH  15  16
ENDBRANCH  14  15
BRANCH  14  22
HETATM   22  C   UNK     0     -50.418  -6.124  19.794  0.00  0.00     0.059 C 
BRANCH  22  23
HETATM   23  C   UNK     0     -49.505  -6.781  20.846  0.00  0.00     0.143 C 
BRANCH  23  24
HETATM   24  C   UNK     0     -49.546  -8.327  20.948  0.00  0.00     0.117 C 
BRANCH  24  25
HETATM   25  N   UNK     0     -48.185  -8.846  20.674  0.00  0.00    -0.352 N 
HETATM   26  C   UNK     0     -47.907  -9.825  19.756  0.00  0.00     0.242 C 
HETATM   27  O   UNK     0     -48.746 -10.389  19.045  0.00  0.00    -0.271 OA
HETATM   28  H   UNK     0     -47.362  -8.495  21.165  0.00  0.00     0.163 HD
BRANCH  26  29
HETATM   29  C   UNK     0     -46.418 -10.215  19.669  0.00  0.00     0.278 C 
BRANCH  29  30
HETATM   30  O   UNK     0     -45.565  -9.059  19.584  0.00  0.00    -0.341 OA
BRANCH  30  31
HETATM   31  C   UNK     0     -44.333  -9.207  20.249  0.00  0.00     0.081 A 
HETATM   32  C   UNK     0     -43.241  -9.940  19.667  0.00  0.00    -0.028 A 
HETATM   33  C   UNK     0     -42.021 -10.052  20.387  0.00  0.00     0.009 A 
HETATM   34  C   UNK     0     -43.340 -10.597  18.310  0.00  0.00     0.051 C 
HETATM   35  C   UNK     0     -41.871  -9.455  21.656  0.00  0.00     0.001 A 
HETATM   36  C   UNK     0     -42.935  -8.733  22.234  0.00  0.00     0.009 A 
HETATM   37  C   UNK     0     -44.164  -8.601  21.546  0.00  0.00    -0.028 A 
HETATM   38  C   UNK     0     -45.268  -7.828  22.185  0.00  0.00     0.051 C 
ENDBRANCH  30  31
ENDBRANCH  29  30
ENDBRANCH  26  29
ENDBRANCH  24  25
BRANCH  24  39
HETATM   39  C   UNK     0     -49.976  -8.775  22.377  0.00  0.00     0.066 C 
BRANCH  39  40
HETATM   40  C   UNK     0     -51.163  -8.021  22.946  0.00  0.00    -0.056 A 
HETATM   41  C   UNK     0     -52.418  -8.083  22.293  0.00  0.00     0.007 A 
HETATM   42  C   UNK     0     -53.539  -7.384  22.804  0.00  0.00     0.001 A 
HETATM   43  C   UNK     0     -53.416  -6.614  23.976  0.00  0.00     0.000 A 
HETATM   44  C   UNK     0     -52.170  -6.545  24.636  0.00  0.00     0.001 A 
HETATM   45  C   UNK     0     -51.050  -7.243  24.126  0.00  0.00     0.007 A 
ENDBRANCH  39  40
ENDBRANCH  24  39
ENDBRANCH  23  24
BRANCH  23  46
HETATM   46  O   UNK     0     -48.191  -6.422  20.492  0.00  0.00    -0.393 OA
HETATM   47  H   UNK     0     -47.637  -7.131  20.798  0.00  0.00     0.210 HD
ENDBRANCH  23  46
ENDBRANCH  22  23
ENDBRANCH  14  22
ENDBRANCH  11  14
ENDBRANCH   9  10
BRANCH   9  48
HETATM   48  C   UNK     0     -49.641  -3.995  15.271  0.00  0.00     0.010 C 
HETATM   49  C   UNK     0     -50.728  -5.084  15.348  0.00  0.00     0.012 C 
HETATM   50  C   UNK     0     -49.950  -3.080  14.063  0.00  0.00     0.012 C 
ENDBRANCH   9  48
ENDBRANCH   3   9
TORSDOF 16
ENDMDL
MODEL 2
REMARK VINA RESULT:      -7.4      5.878     10.791
REMARK  16 active torsions:
REMARK  status: ('A' for Active; 'I' for Inactive)
REMARK    1  A    between atoms: N_3  and  C_13 
REMARK    2  A    between atoms: C_6  and  C_37 
REMARK    3  A    between atoms: C_13  and  C_14 
REMARK    4  A    between atoms: C_13  and  C_17 
REMARK       I    between atoms: C_14  and  N_15 
REMARK    5  A    between atoms: N_15  and  C_16 
REMARK    6  A    between atoms: C_16  and  C_27 
REMARK    7  A    between atoms: C_16  and  C_28 
REMARK    8  A    between atoms: C_25  and  C_27 
REMARK    9  A    between atoms: C_28  and  C_29 
REMARK   10  A    between atoms: C_29  and  C_30 
REMARK   11  A    between atoms: C_29  and  O_36 
REMARK   12  A    between atoms: C_30  and  N_31 
REMARK   13  A    between atoms: C_30  and  C_37 
REMARK       I    between atoms: N_31  and  C_32 
REMARK   14  A    between atoms: C_32  and  C_33 
REMARK   15  A    between atoms: C_33  and  O_34 
REMARK   16  A    between atoms: O_34  and  C_35 
ROOT
HETATM    1  C   UNK     0     -51.030  -8.915  21.842  0.00  0.00     0.126 C 
HETATM    2  C   UNK     0     -48.839 -10.131  21.722  0.00  0.00     0.130 C 
HETATM    3  N   UNK     0     -48.723  -9.695  20.281  0.00  0.00    -0.320 N 
HETATM    4  C   UNK     0     -49.708  -8.922  19.681  0.00  0.00     0.319 C 
HETATM    5  N   UNK     0     -50.788  -8.561  20.429  0.00  0.00    -0.343 N 
HETATM    6  O   UNK     0     -49.631  -8.565  18.518  0.00  0.00    -0.247 OA
HETATM    7  C   UNK     0     -49.723  -9.209  22.587  0.00  0.00     0.040 C 
HETATM    8  H   UNK     0     -51.453  -7.993  19.903  0.00  0.00     0.164 HD
ENDROOT
BRANCH   3   9
HETATM    9  C   UNK     0     -47.526 -10.106  19.468  0.00  0.00     0.184 C 
BRANCH   9  10
HETATM   10  C   UNK     0     -47.455 -11.657  19.410  0.00  0.00     0.241 C 
HETATM   11  N   UNK     0     -46.223 -12.143  19.754  0.00  0.00    -0.354 N 
HETATM   12  H   UNK     0     -45.551 -11.413  19.990  0.00  0.00     0.162 HD
HETATM   13  O   UNK     0     -48.428 -12.338  19.083  0.00  0.00    -0.271 OA
BRANCH  11  14
HETATM   14  C   UNK     0     -45.862 -13.578  19.791  0.00  0.00     0.091 C 
BRANCH  14  15
HETATM   15  C   UNK     0     -44.336 -13.754  19.963  0.00  0.00     0.063 C 
BRANCH  15  16
HETATM   16  C   UNK     0     -43.513 -12.526  20.232  0.00  0.00    -0.056 A 
HETATM   17  C   UNK     0     -43.639 -11.837  21.469  0.00  0.00     0.007 A 
HETATM   18  C   UNK     0     -42.870 -10.681  21.734  0.00  0.00     0.001 A 
HETATM   19  C   UNK     0     -41.964 -10.200  20.761  0.00  0.00     0.000 A 
HETATM   20  C   UNK     0     -41.832 -10.881  19.527  0.00  0.00     0.001 A 
HETATM   21  C   UNK     0     -42.604 -12.038  19.265  0.00  0.00     0.007 A 
ENDBRANCH  15  16
ENDBRANCH  14  15
BRANCH  14  22
HETATM   22  C   UNK     0     -46.519 -14.296  20.991  0.00  0.00     0.059 C 
BRANCH  22  23
HETATM   23  C   UNK     0     -46.166 -15.763  21.293  0.00  0.00     0.143 C 
BRANCH  23  24
HETATM   24  C   UNK     0     -45.571 -16.072  22.691  0.00  0.00     0.117 C 
BRANCH  24  25
HETATM   25  N   UNK     0     -46.568 -16.855  23.457  0.00  0.00    -0.352 N 
HETATM   26  C   UNK     0     -47.521 -16.299  24.270  0.00  0.00     0.242 C 
HETATM   27  O   UNK     0     -47.670 -15.087  24.461  0.00  0.00    -0.271 OA
HETATM   28  H   UNK     0     -46.602 -17.874  23.420  0.00  0.00     0.163 HD
BRANCH  26  29
HETATM   29  C   UNK     0     -48.429 -17.320  24.982  0.00  0.00     0.278 C 
BRANCH  29  30
HETATM   30  O   UNK     0     -47.845 -17.793  26.210  0.00  0.00    -0.341 OA
BRANCH  30  31
HETATM   31  C   UNK     0     -47.668 -16.791  27.183  0.00  0.00     0.081 A 
HETATM   32  C   UNK     0     -48.787 -16.149  27.821  0.00  0.00    -0.028 A 
HETATM   33  C   UNK     0     -48.543 -15.146  28.797  0.00  0.00     0.009 A 
HETATM   34  C   UNK     0     -50.218 -16.503  27.492  0.00  0.00     0.051 C 
HETATM   35  C   UNK     0     -47.227 -14.778  29.146  0.00  0.00     0.001 A 
HETATM   36  C   UNK     0     -46.125 -15.403  28.529  0.00  0.00     0.009 A 
HETATM   37  C   UNK     0     -46.329 -16.406  27.551  0.00  0.00    -0.028 A 
HETATM   38  C   UNK     0     -45.141 -17.049  26.920  0.00  0.00     0.051 C 
ENDBRANCH  30  31
ENDBRANCH  29  30
ENDBRANCH  26  29
ENDBRANCH  24  25
BRANCH  24  39
HETATM   39  C   UNK     0     -44.265 -16.911  22.562  0.00  0.00     0.066 C 
BRANCH  39  40
HETATM   40  C   UNK     0     -43.015 -16.099  22.283  0.00  0.00    -0.056 A 
HETATM   41  C   UNK     0     -42.669 -15.021  23.134  0.00  0.00     0.007 A 
HETATM   42  C   UNK     0     -41.509 -14.245  22.891  0.00  0.00     0.001 A 
HETATM   43  C   UNK     0     -40.680 -14.541  21.791  0.00  0.00     0.000 A 
HETATM   44  C   UNK     0     -41.015 -15.614  20.936  0.00  0.00     0.001 A 
HETATM   45  C   UNK     0     -42.174 -16.389  21.179  0.00  0.00     0.007 A 
ENDBRANCH  39  40
ENDBRANCH  24  39
ENDBRANCH  23  24
BRANCH  23  46
HETATM   46  O   UNK     0     -47.373 -16.479  21.188  0.00  0.00    -0.393 OA
HETATM   47  H   UNK     0     -47.147 -17.314  20.794  0.00  0.00     0.210 HD
ENDBRANCH  23  46
ENDBRANCH  22  23
ENDBRANCH  14  22
ENDBRANCH  11  14
ENDBRANCH   9  10
BRANCH   9  48
HETATM   48  C   UNK     0     -46.191  -9.467  20.020  0.00  0.00     0.010 C 
HETATM   49  C   UNK     0     -45.150  -9.174  18.922  0.00  0.00     0.012 C 
HETATM   50  C   UNK     0     -46.483  -8.152  20.780  0.00  0.00     0.012 C 
ENDBRANCH   9  48
ENDBRANCH   3   9
TORSDOF 16
ENDMDL
MODEL 3
REMARK VINA RESULT:      -7.2      1.920      7.515
REMARK  16 active torsions:
REMARK  status: ('A' for Active; 'I' for Inactive)
REMARK    1  A    between atoms: N_3  and  C_13 
REMARK    2  A    between atoms: C_6  and  C_37 
REMARK    3  A    between atoms: C_13  and  C_14 
REMARK    4  A    between atoms: C_13  and  C_17 
REMARK       I    between atoms: C_14  and  N_15 
REMARK    5  A    between atoms: N_15  and  C_16 
REMARK    6  A    between atoms: C_16  and  C_27 
REMARK    7  A    between atoms: C_16  and  C_28 
REMARK    8  A    between atoms: C_25  and  C_27 
REMARK    9  A    between atoms: C_28  and  C_29 
REMARK   10  A    between atoms: C_29  and  C_30 
REMARK   11  A    between atoms: C_29  and  O_36 
REMARK   12  A    between atoms: C_30  and  N_31 
REMARK   13  A    between atoms: C_30  and  C_37 
REMARK       I    between atoms: N_31  and  C_32 
REMARK   14  A    between atoms: C_32  and  C_33 
REMARK   15  A    between atoms: C_33  and  O_34 
REMARK   16  A    between atoms: O_34  and  C_35 
ROOT
HETATM    1  C   UNK     0     -43.657 -10.050  18.537  0.00  0.00     0.126 C 
HETATM    2  C   UNK     0     -45.385 -10.870  20.161  0.00  0.00     0.130 C 
HETATM    3  N   UNK     0     -46.232  -9.674  19.798  0.00  0.00    -0.320 N 
HETATM    4  C   UNK     0     -45.800  -8.741  18.866  0.00  0.00     0.319 C 
HETATM    5  N   UNK     0     -44.585  -8.932  18.278  0.00  0.00    -0.343 N 
HETATM    6  O   UNK     0     -46.471  -7.768  18.565  0.00  0.00    -0.247 OA
HETATM    7  C   UNK     0     -44.391 -11.291  19.059  0.00  0.00     0.040 C 
HETATM    8  H   UNK     0     -44.358  -8.198  17.607  0.00  0.00     0.164 HD
ENDROOT
BRANCH   3   9
HETATM    9  C   UNK     0     -47.569  -9.476  20.459  0.00  0.00     0.184 C 
BRANCH   9  10
HETATM   10  C   UNK     0     -48.656  -9.284  19.365  0.00  0.00     0.241 C 
HETATM   11  N   UNK     0     -49.208  -8.031  19.382  0.00  0.00    -0.354 N 
HETATM   12  H   UNK     0     -48.820  -7.428  20.107  0.00  0.00     0.162 HD
HETATM   13  O   UNK     0     -48.960 -10.190  18.587  0.00  0.00    -0.271 OA
BRANCH  11  14
HETATM   14  C   UNK     0     -50.263  -7.561  18.457  0.00  0.00     0.091 C 
BRANCH  14  15
HETATM   15  C   UNK     0     -51.408  -6.874  19.237  0.00  0.00     0.063 C 
BRANCH  15  16
HETATM   16  C   UNK     0     -51.118  -6.392  20.629  0.00  0.00    -0.056 A 
HETATM   17  C   UNK     0     -50.026  -5.514  20.871  0.00  0.00     0.007 A 
HETATM   18  C   UNK     0     -49.743  -5.054  22.177  0.00  0.00     0.001 A 
HETATM   19  C   UNK     0     -50.554  -5.467  23.260  0.00  0.00     0.000 A 
HETATM   20  C   UNK     0     -51.643  -6.341  23.028  0.00  0.00     0.001 A 
HETATM   21  C   UNK     0     -51.922  -6.800  21.718  0.00  0.00     0.007 A 
ENDBRANCH  15  16
ENDBRANCH  14  15
BRANCH  14  22
HETATM   22  C   UNK     0     -49.719  -6.508  17.467  0.00  0.00     0.059 C 
BRANCH  22  23
HETATM   23  C   UNK     0     -50.605  -5.320  17.050  0.00  0.00     0.143 C 
BRANCH  23  24
HETATM   24  C   UNK     0     -50.178  -3.914  17.543  0.00  0.00     0.117 C 
BRANCH  24  25
HETATM   25  N   UNK     0     -49.339  -3.289  16.494  0.00  0.00    -0.352 N 
HETATM   26  C   UNK     0     -47.973  -3.187  16.563  0.00  0.00     0.242 C 
HETATM   27  O   UNK     0     -47.278  -3.602  17.496  0.00  0.00    -0.271 OA
HETATM   28  H   UNK     0     -49.739  -2.894  15.643  0.00  0.00     0.163 HD
BRANCH  26  29
HETATM   29  C   UNK     0     -47.324  -2.473  15.360  0.00  0.00     0.278 C 
BRANCH  29  30
HETATM   30  O   UNK     0     -47.409  -1.041  15.477  0.00  0.00    -0.341 OA
BRANCH  30  31
HETATM   31  C   UNK     0     -46.652  -0.507  16.537  0.00  0.00     0.081 A 
HETATM   32  C   UNK     0     -47.276   0.072  17.697  0.00  0.00    -0.028 A 
HETATM   33  C   UNK     0     -46.457   0.592  18.735  0.00  0.00     0.009 A 
HETATM   34  C   UNK     0     -48.776   0.147  17.856  0.00  0.00     0.051 C 
HETATM   35  C   UNK     0     -45.050   0.545  18.641  0.00  0.00     0.001 A 
HETATM   36  C   UNK     0     -44.430  -0.022  17.510  0.00  0.00     0.009 A 
HETATM   37  C   UNK     0     -45.214  -0.550  16.456  0.00  0.00    -0.028 A 
HETATM   38  C   UNK     0     -44.525  -1.146  15.275  0.00  0.00     0.051 C 
ENDBRANCH  30  31
ENDBRANCH  29  30
ENDBRANCH  26  29
ENDBRANCH  24  25
BRANCH  24  39
HETATM   39  C   UNK     0     -51.425  -3.013  17.791  0.00  0.00     0.066 C 
BRANCH  39  40
HETATM   40  C   UNK     0     -51.793  -2.829  19.250  0.00  0.00    -0.056 A 
HETATM   41  C   UNK     0     -52.926  -3.491  19.782  0.00  0.00     0.007 A 
HETATM   42  C   UNK     0     -53.292  -3.329  21.141  0.00  0.00     0.001 A 
HETATM   43  C   UNK     0     -52.525  -2.503  21.984  0.00  0.00     0.000 A 
HETATM   44  C   UNK     0     -51.393  -1.838  21.465  0.00  0.00     0.001 A 
HETATM   45  C   UNK     0     -51.027  -1.999  20.108  0.00  0.00     0.007 A 
ENDBRANCH  39  40
ENDBRANCH  24  39
ENDBRANCH  23  24
BRANCH  23  46
HETATM   46  O   UNK     0     -50.575  -5.294  15.643  0.00  0.00    -0.393 OA
HETATM   47  H   UNK     0     -50.682  -6.197  15.364  0.00  0.00     0.210 HD
ENDBRANCH  23  46
ENDBRANCH  22  23
ENDBRANCH  14  22
ENDBRANCH  11  14
ENDBRANCH   9  10
BRANCH   9  48
HETATM   48  C   UNK     0     -47.545  -8.283  21.494  0.00  0.00     0.010 C 
HETATM   49  C   UNK     0     -48.499  -8.485  22.687  0.00  0.00     0.012 C 
HETATM   50  C   UNK     0     -46.117  -8.059  22.042  0.00  0.00     0.012 C 
ENDBRANCH   9  48
ENDBRANCH   3   9
TORSDOF 16
ENDMDL
MODEL 4
REMARK VINA RESULT:      -7.2      2.266      4.223
REMARK  16 active torsions:
REMARK  status: ('A' for Active; 'I' for Inactive)
REMARK    1  A    between atoms: N_3  and  C_13 
REMARK    2  A    between atoms: C_6  and  C_37 
REMARK    3  A    between atoms: C_13  and  C_14 
REMARK    4  A    between atoms: C_13  and  C_17 
REMARK       I    between atoms: C_14  and  N_15 
REMARK    5  A    between atoms: N_15  and  C_16 
REMARK    6  A    between atoms: C_16  and  C_27 
REMARK    7  A    between atoms: C_16  and  C_28 
REMARK    8  A    between atoms: C_25  and  C_27 
REMARK    9  A    between atoms: C_28  and  C_29 
REMARK   10  A    between atoms: C_29  and  C_30 
REMARK   11  A    between atoms: C_29  and  O_36 
REMARK   12  A    between atoms: C_30  and  N_31 
REMARK   13  A    between atoms: C_30  and  C_37 
REMARK       I    between atoms: N_31  and  C_32 
REMARK   14  A    between atoms: C_32  and  C_33 
REMARK   15  A    between atoms: C_33  and  O_34 
REMARK   16  A    between atoms: O_34  and  C_35 
ROOT
HETATM    1  C   UNK     0     -53.358  -5.976  16.354  0.00  0.00     0.126 C 
HETATM    2  C   UNK     0     -52.393  -3.725  15.809  0.00  0.00     0.130 C 
HETATM    3  N   UNK     0     -51.045  -4.242  16.251  0.00  0.00    -0.320 N 
HETATM    4  C   UNK     0     -50.888  -5.541  16.713  0.00  0.00     0.319 C 
HETATM    5  N   UNK     0     -51.986  -6.348  16.755  0.00  0.00    -0.343 N 
HETATM    6  O   UNK     0     -49.808  -5.973  17.078  0.00  0.00    -0.247 OA
HETATM    7  C   UNK     0     -53.363  -4.828  15.338  0.00  0.00     0.040 C 
HETATM    8  H   UNK     0     -51.770  -7.282  17.104  0.00  0.00     0.164 HD
ENDROOT
BRANCH   3   9
HETATM    9  C   UNK     0     -49.844  -3.337  16.203  0.00  0.00     0.184 C 
BRANCH   9  10
HETATM   10  C   UNK     0     -49.369  -3.041  17.652  0.00  0.00     0.241 C 
HETATM   11  N   UNK     0     -50.405  -2.980  18.546  0.00  0.00    -0.354 N 
HETATM   12  H   UNK     0     -51.318  -3.137  18.119  0.00  0.00     0.162 HD
HETATM   13  O   UNK     0     -48.178  -2.882  17.924  0.00  0.00    -0.271 OA
BRANCH  11  14
HETATM   14  C   UNK     0     -50.255  -2.716  19.994  0.00  0.00     0.091 C 
BRANCH  14  15
HETATM   15  C   UNK     0     -51.039  -1.447  20.403  0.00  0.00     0.063 C 
BRANCH  15  16
HETATM   16  C   UNK     0     -50.531  -0.121  19.915  0.00  0.00    -0.056 A 
HETATM   17  C   UNK     0     -49.134   0.101  19.765  0.00  0.00     0.007 A 
HETATM   18  C   UNK     0     -48.644   1.345  19.307  0.00  0.00     0.001 A 
HETATM   19  C   UNK     0     -49.550   2.384  18.990  0.00  0.00     0.000 A 
HETATM   20  C   UNK     0     -50.942   2.172  19.135  0.00  0.00     0.001 A 
HETATM   21  C   UNK     0     -51.428   0.925  19.595  0.00  0.00     0.007 A 
ENDBRANCH  15  16
ENDBRANCH  14  15
BRANCH  14  22
HETATM   22  C   UNK     0     -50.829  -3.872  20.842  0.00  0.00     0.059 C 
BRANCH  22  23
HETATM   23  C   UNK     0     -49.994  -5.146  21.065  0.00  0.00     0.143 C 
BRANCH  23  24
HETATM   24  C   UNK     0     -50.762  -6.492  21.115  0.00  0.00     0.117 C 
BRANCH  24  25
HETATM   25  N   UNK     0     -49.899  -7.540  20.520  0.00  0.00    -0.352 N 
HETATM   26  C   UNK     0     -50.283  -8.355  19.486  0.00  0.00     0.242 C 
HETATM   27  O   UNK     0     -51.382  -8.315  18.923  0.00  0.00    -0.271 OA
HETATM   28  H   UNK     0     -48.952  -7.716  20.854  0.00  0.00     0.163 HD
BRANCH  26  29
HETATM   29  C   UNK     0     -49.220  -9.386  19.057  0.00  0.00     0.278 C 
BRANCH  29  30
HETATM   30  O   UNK     0     -48.433  -9.841  20.173  0.00  0.00    -0.341 OA
BRANCH  30  31
HETATM   31  C   UNK     0     -47.187 -10.388  19.810  0.00  0.00     0.081 A 
HETATM   32  C   UNK     0     -47.042 -11.775  19.457  0.00  0.00    -0.028 A 
HETATM   33  C   UNK     0     -45.759 -12.266  19.098  0.00  0.00     0.009 A 
HETATM   34  C   UNK     0     -48.209 -12.734  19.453  0.00  0.00     0.051 C 
HETATM   35  C   UNK     0     -44.635 -11.414  19.081  0.00  0.00     0.001 A 
HETATM   36  C   UNK     0     -44.767 -10.053  19.423  0.00  0.00     0.009 A 
HETATM   37  C   UNK     0     -46.031  -9.528  19.787  0.00  0.00    -0.028 A 
HETATM   38  C   UNK     0     -46.136  -8.083  20.140  0.00  0.00     0.051 C 
ENDBRANCH  30  31
ENDBRANCH  29  30
ENDBRANCH  26  29
ENDBRANCH  24  25
BRANCH  24  39
HETATM   39  C   UNK     0     -51.090  -6.887  22.585  0.00  0.00     0.066 C 
BRANCH  39  40
HETATM   40  C   UNK     0     -52.317  -6.208  23.164  0.00  0.00    -0.056 A 
HETATM   41  C   UNK     0     -53.476  -6.047  22.368  0.00  0.00     0.007 A 
HETATM   42  C   UNK     0     -54.632  -5.411  22.886  0.00  0.00     0.001 A 
HETATM   43  C   UNK     0     -54.639  -4.931  24.209  0.00  0.00     0.000 A 
HETATM   44  C   UNK     0     -53.489  -5.087  25.012  0.00  0.00     0.001 A 
HETATM   45  C   UNK     0     -52.335  -5.721  24.496  0.00  0.00     0.007 A 
ENDBRANCH  39  40
ENDBRANCH  24  39
ENDBRANCH  23  24
BRANCH  23  46
HETATM   46  O   UNK     0     -49.102  -5.216  19.979  0.00  0.00    -0.393 OA
HETATM   47  H   UNK     0     -49.432  -4.604  19.332  0.00  0.00     0.210 HD
ENDBRANCH  23  46
ENDBRANCH  22  23
ENDBRANCH  14  22
ENDBRANCH  11  14
ENDBRANCH   9  10
BRANCH   9  48
HETATM   48  C   UNK     0     -50.132  -2.017  15.385  0.00  0.00     0.010 C 
HETATM   49  C   UNK     0     -49.818  -0.728  16.170  0.00  0.00     0.012 C 
HETATM   50  C   UNK     0     -49.322  -1.997  14.068  0.00  0.00     0.012 C 
ENDBRANCH   9  48
ENDBRANCH   3   9
TORSDOF 16
ENDMDL
MODEL 5
REMARK VINA RESULT:      -7.1      8.327     14.002
REMARK  16 active torsions:
REMARK  status: ('A' for Active; 'I' for Inactive)
REMARK    1  A    between atoms: N_3  and  C_13 
REMARK    2  A    between atoms: C_6  and  C_37 
REMARK    3  A    between atoms: C_13  and  C_14 
REMARK    4  A    between atoms: C_13  and  C_17 
REMARK       I    between atoms: C_14  and  N_15 
REMARK    5  A    between atoms: N_15  and  C_16 
REMARK    6  A    between atoms: C_16  and  C_27 
REMARK    7  A    between atoms: C_16  and  C_28 
REMARK    8  A    between atoms: C_25  and  C_27 
REMARK    9  A    between atoms: C_28  and  C_29 
REMARK   10  A    between atoms: C_29  and  C_30 
REMARK   11  A    between atoms: C_29  and  O_36 
REMARK   12  A    between atoms: C_30  and  N_31 
REMARK   13  A    between atoms: C_30  and  C_37 
REMARK       I    between atoms: N_31  and  C_32 
REMARK   14  A    between atoms: C_32  and  C_33 
REMARK   15  A    between atoms: C_33  and  O_34 
REMARK   16  A    between atoms: O_34  and  C_35 
ROOT
HETATM    1  C   UNK     0     -44.988 -12.636  29.969  0.00  0.00     0.126 C 
HETATM    2  C   UNK     0     -46.069 -13.685  27.962  0.00  0.00     0.130 C 
HETATM    3  N   UNK     0     -46.549 -14.802  28.857  0.00  0.00    -0.320 N 
HETATM    4  C   UNK     0     -46.255 -14.816  30.213  0.00  0.00     0.319 C 
HETATM    5  N   UNK     0     -45.520 -13.788  30.724  0.00  0.00    -0.343 N 
HETATM    6  O   UNK     0     -46.632 -15.713  30.948  0.00  0.00    -0.247 OA
HETATM    7  C   UNK     0     -45.808 -12.357  28.703  0.00  0.00     0.040 C 
HETATM    8  H   UNK     0     -45.359 -13.885  31.726  0.00  0.00     0.164 HD
ENDROOT
BRANCH   3   9
HETATM    9  C   UNK     0     -47.357 -15.932  28.277  0.00  0.00     0.184 C 
BRANCH   9  10
HETATM   10  C   UNK     0     -46.537 -16.619  27.151  0.00  0.00     0.241 C 
HETATM   11  N   UNK     0     -47.283 -16.863  26.028  0.00  0.00    -0.354 N 
HETATM   12  H   UNK     0     -48.252 -16.557  26.111  0.00  0.00     0.162 HD
HETATM   13  O   UNK     0     -45.346 -16.900  27.294  0.00  0.00    -0.271 OA
BRANCH  11  14
HETATM   14  C   UNK     0     -46.769 -17.504  24.797  0.00  0.00     0.091 C 
BRANCH  14  15
HETATM   15  C   UNK     0     -47.013 -19.030  24.832  0.00  0.00     0.063 C 
BRANCH  15  16
HETATM   16  C   UNK     0     -45.909 -19.928  24.350  0.00  0.00    -0.056 A 
HETATM   17  C   UNK     0     -44.553 -19.516  24.456  0.00  0.00     0.007 A 
HETATM   18  C   UNK     0     -43.506 -20.352  24.006  0.00  0.00     0.001 A 
HETATM   19  C   UNK     0     -43.806 -21.616  23.446  0.00  0.00     0.000 A 
HETATM   20  C   UNK     0     -45.154 -22.034  23.338  0.00  0.00     0.001 A 
HETATM   21  C   UNK     0     -46.199 -21.193  23.789  0.00  0.00     0.007 A 
ENDBRANCH  15  16
ENDBRANCH  14  15
BRANCH  14  22
HETATM   22  C   UNK     0     -47.496 -16.978  23.540  0.00  0.00     0.059 C 
BRANCH  22  23
HETATM   23  C   UNK     0     -46.990 -15.703  22.839  0.00  0.00     0.143 C 
BRANCH  23  24
HETATM   24  C   UNK     0     -46.078 -15.894  21.600  0.00  0.00     0.117 C 
BRANCH  24  25
HETATM   25  N   UNK     0     -45.603 -14.561  21.165  0.00  0.00    -0.352 N 
HETATM   26  C   UNK     0     -45.425 -14.199  19.854  0.00  0.00     0.242 C 
HETATM   27  O   UNK     0     -45.642 -14.929  18.881  0.00  0.00    -0.271 OA
HETATM   28  H   UNK     0     -45.376 -13.822  21.830  0.00  0.00     0.163 HD
BRANCH  26  29
HETATM   29  C   UNK     0     -44.896 -12.765  19.653  0.00  0.00     0.278 C 
BRANCH  29  30
HETATM   30  O   UNK     0     -45.741 -12.000  18.774  0.00  0.00    -0.341 OA
BRANCH  30  31
HETATM   31  C   UNK     0     -46.109 -10.740  19.285  0.00  0.00     0.081 A 
HETATM   32  C   UNK     0     -45.307  -9.568  19.058  0.00  0.00    -0.028 A 
HETATM   33  C   UNK     0     -45.732  -8.325  19.599  0.00  0.00     0.009 A 
HETATM   34  C   UNK     0     -44.024  -9.607  18.262  0.00  0.00     0.051 C 
HETATM   35  C   UNK     0     -46.924  -8.229  20.348  0.00  0.00     0.001 A 
HETATM   36  C   UNK     0     -47.718  -9.372  20.573  0.00  0.00     0.009 A 
HETATM   37  C   UNK     0     -47.325 -10.628  20.050  0.00  0.00    -0.028 A 
HETATM   38  C   UNK     0     -48.189 -11.816  20.304  0.00  0.00     0.051 C 
ENDBRANCH  30  31
ENDBRANCH  29  30
ENDBRANCH  26  29
ENDBRANCH  24  25
BRANCH  24  39
HETATM   39  C   UNK     0     -44.845 -16.777  21.953  0.00  0.00     0.066 C 
BRANCH  39  40
HETATM   40  C   UNK     0     -44.762 -18.085  21.190  0.00  0.00    -0.056 A 
HETATM   41  C   UNK     0     -45.947 -18.792  20.869  0.00  0.00     0.007 A 
HETATM   42  C   UNK     0     -45.894 -20.018  20.161  0.00  0.00     0.001 A 
HETATM   43  C   UNK     0     -44.653 -20.550  19.765  0.00  0.00     0.000 A 
HETATM   44  C   UNK     0     -43.465 -19.854  20.078  0.00  0.00     0.001 A 
HETATM   45  C   UNK     0     -43.517 -18.630  20.785  0.00  0.00     0.007 A 
ENDBRANCH  39  40
ENDBRANCH  24  39
ENDBRANCH  23  24
BRANCH  23  46
HETATM   46  O   UNK     0     -48.142 -15.020  22.406  0.00  0.00    -0.393 OA
HETATM   47  H   UNK     0     -48.879 -15.552  22.683  0.00  0.00     0.210 HD
ENDBRANCH  23  46
ENDBRANCH  22  23
ENDBRANCH  14  22
ENDBRANCH  11  14
ENDBRANCH   9  10
BRANCH   9  48
HETATM   48  C   UNK     0     -48.774 -15.447  27.775  0.00  0.00     0.010 C 
HETATM   49  C   UNK     0     -49.862 -16.534  27.864  0.00  0.00     0.012 C 
HETATM   50  C   UNK     0     -49.249 -14.213  28.577  0.00  0.00     0.012 C 
ENDBRANCH   9  48
ENDBRANCH   3   9
TORSDOF 16
ENDMDL
MODEL 6
REMARK VINA RESULT:      -7.1      6.670     11.101
REMARK  16 active torsions:
REMARK  status: ('A' for Active; 'I' for Inactive)
REMARK    1  A    between atoms: N_3  and  C_13 
REMARK    2  A    between atoms: C_6  and  C_37 
REMARK    3  A    between atoms: C_13  and  C_14 
REMARK    4  A    between atoms: C_13  and  C_17 
REMARK       I    between atoms: C_14  and  N_15 
REMARK    5  A    between atoms: N_15  and  C_16 
REMARK    6  A    between atoms: C_16  and  C_27 
REMARK    7  A    between atoms: C_16  and  C_28 
REMARK    8  A    between atoms: C_25  and  C_27 
REMARK    9  A    between atoms: C_28  and  C_29 
REMARK   10  A    between atoms: C_29  and  C_30 
REMARK   11  A    between atoms: C_29  and  O_36 
REMARK   12  A    between atoms: C_30  and  N_31 
REMARK   13  A    between atoms: C_30  and  C_37 
REMARK       I    between atoms: N_31  and  C_32 
REMARK   14  A    between atoms: C_32  and  C_33 
REMARK   15  A    between atoms: C_33  and  O_34 
REMARK   16  A    between atoms: O_34  and  C_35 
ROOT
HETATM    1  C   UNK     0     -40.957 -14.432  21.762  0.00  0.00     0.126 C 
HETATM    2  C   UNK     0     -41.891 -12.631  20.285  0.00  0.00     0.130 C 
HETATM    3  N   UNK     0     -42.958 -12.389  21.326  0.00  0.00    -0.320 N 
HETATM    4  C   UNK     0     -43.003 -13.132  22.498  0.00  0.00     0.319 C 
HETATM    5  N   UNK     0     -42.053 -14.090  22.691  0.00  0.00    -0.343 N 
HETATM    6  O   UNK     0     -43.860 -12.951  23.346  0.00  0.00    -0.247 OA
HETATM    7  C   UNK     0     -40.597 -13.255  20.848  0.00  0.00     0.040 C 
HETATM    8  H   UNK     0     -42.167 -14.578  23.579  0.00  0.00     0.164 HD
ENDROOT
BRANCH   3   9
HETATM    9  C   UNK     0     -44.002 -11.330  21.096  0.00  0.00     0.184 C 
BRANCH   9  10
HETATM   10  C   UNK     0     -45.247 -11.977  20.430  0.00  0.00     0.241 C 
HETATM   11  N   UNK     0     -46.260 -12.211  21.320  0.00  0.00    -0.354 N 
HETATM   12  H   UNK     0     -46.036 -11.927  22.274  0.00  0.00     0.162 HD
HETATM   13  O   UNK     0     -45.278 -12.236  19.226  0.00  0.00    -0.271 OA
BRANCH  11  14
HETATM   14  C   UNK     0     -47.566 -12.815  20.973  0.00  0.00     0.091 C 
BRANCH  14  15
HETATM   15  C   UNK     0     -48.252 -12.019  19.838  0.00  0.00     0.063 C 
BRANCH  15  16
HETATM   16  C   UNK     0     -48.489 -10.552  20.055  0.00  0.00    -0.056 A 
HETATM   17  C   UNK     0     -49.033 -10.087  21.283  0.00  0.00     0.007 A 
HETATM   18  C   UNK     0     -49.260  -8.708  21.498  0.00  0.00     0.001 A 
HETATM   19  C   UNK     0     -48.942  -7.776  20.482  0.00  0.00     0.000 A 
HETATM   20  C   UNK     0     -48.399  -8.231  19.257  0.00  0.00     0.001 A 
HETATM   21  C   UNK     0     -48.174  -9.612  19.046  0.00  0.00     0.007 A 
ENDBRANCH  15  16
ENDBRANCH  14  15
BRANCH  14  22
HETATM   22  C   UNK     0     -47.401 -14.259  20.451  0.00  0.00     0.059 C 
BRANCH  22  23
HETATM   23  C   UNK     0     -46.349 -15.188  21.085  0.00  0.00     0.143 C 
BRANCH  23  24
HETATM   24  C   UNK     0     -46.790 -16.639  21.404  0.00  0.00     0.117 C 
BRANCH  24  25
HETATM   25  N   UNK     0     -47.635 -16.610  22.621  0.00  0.00    -0.352 N 
HETATM   26  C   UNK     0     -47.642 -17.595  23.575  0.00  0.00     0.242 C 
HETATM   27  O   UNK     0     -46.948 -18.617  23.543  0.00  0.00    -0.271 OA
HETATM   28  H   UNK     0     -48.272 -15.838  22.820  0.00  0.00     0.163 HD
BRANCH  26  29
HETATM   29  C   UNK     0     -48.625 -17.352  24.737  0.00  0.00     0.278 C 
BRANCH  29  30
HETATM   30  O   UNK     0     -48.136 -17.898  25.976  0.00  0.00    -0.341 OA
BRANCH  30  31
HETATM   31  C   UNK     0     -47.864 -16.930  26.961  0.00  0.00     0.081 A 
HETATM   32  C   UNK     0     -48.916 -16.284  27.700  0.00  0.00    -0.028 A 
HETATM   33  C   UNK     0     -48.577 -15.316  28.683  0.00  0.00     0.009 A 
HETATM   34  C   UNK     0     -50.376 -16.599  27.471  0.00  0.00     0.051 C 
HETATM   35  C   UNK     0     -47.230 -14.986  28.941  0.00  0.00     0.001 A 
HETATM   36  C   UNK     0     -46.192 -15.615  28.224  0.00  0.00     0.009 A 
HETATM   37  C   UNK     0     -46.492 -16.584  27.237  0.00  0.00    -0.028 A 
HETATM   38  C   UNK     0     -45.370 -17.231  26.499  0.00  0.00     0.051 C 
ENDBRANCH  30  31
ENDBRANCH  29  30
ENDBRANCH  26  29
ENDBRANCH  24  25
BRANCH  24  39
HETATM   39  C   UNK     0     -47.622 -17.234  20.229  0.00  0.00     0.066 C 
BRANCH  39  40
HETATM   40  C   UNK     0     -46.849 -18.162  19.312  0.00  0.00    -0.056 A 
HETATM   41  C   UNK     0     -47.160 -18.211  17.932  0.00  0.00     0.007 A 
HETATM   42  C   UNK     0     -46.455 -19.075  17.057  0.00  0.00     0.001 A 
HETATM   43  C   UNK     0     -45.428 -19.898  17.556  0.00  0.00     0.000 A 
HETATM   44  C   UNK     0     -45.109 -19.857  18.931  0.00  0.00     0.001 A 
HETATM   45  C   UNK     0     -45.813 -18.996  19.804  0.00  0.00     0.007 A 
ENDBRANCH  39  40
ENDBRANCH  24  39
ENDBRANCH  23  24
BRANCH  23  46
HETATM   46  O   UNK     0     -45.297 -15.268  20.154  0.00  0.00    -0.393 OA
HETATM   47  H   UNK     0     -44.552 -14.844  20.566  0.00  0.00     0.210 HD
ENDBRANCH  23  46
ENDBRANCH  22  23
ENDBRANCH  14  22
ENDBRANCH  11  14
ENDBRANCH   9  10
BRANCH   9  48
HETATM   48  C   UNK     0     -43.436 -10.117  20.256  0.00  0.00     0.010 C 
HETATM   49  C   UNK     0     -44.531  -9.161  19.745  0.00  0.00     0.012 C 
HETATM   50  C   UNK     0     -42.420  -9.299  21.087  0.00  0.00     0.012 C 
ENDBRANCH   9  48
ENDBRANCH   3   9
TORSDOF 16
ENDMDL
MODEL 7
REMARK VINA RESULT:      -7.1      9.430     14.627
REMARK  16 active torsions:
REMARK  status: ('A' for Active; 'I' for Inactive)
REMARK    1  A    between atoms: N_3  and  C_13 
REMARK    2  A    between atoms: C_6  and  C_37 
REMARK    3  A    between atoms: C_13  and  C_14 
REMARK    4  A    between atoms: C_13  and  C_17 
REMARK       I    between atoms: C_14  and  N_15 
REMARK    5  A    between atoms: N_15  and  C_16 
REMARK    6  A    between atoms: C_16  and  C_27 
REMARK    7  A    between atoms: C_16  and  C_28 
REMARK    8  A    between atoms: C_25  and  C_27 
REMARK    9  A    between atoms: C_28  and  C_29 
REMARK   10  A    between atoms: C_29  and  C_30 
REMARK   11  A    between atoms: C_29  and  O_36 
REMARK   12  A    between atoms: C_30  and  N_31 
REMARK   13  A    between atoms: C_30  and  C_37 
REMARK       I    between atoms: N_31  and  C_32 
REMARK   14  A    between atoms: C_32  and  C_33 
REMARK   15  A    between atoms: C_33  and  O_34 
REMARK   16  A    between atoms: O_34  and  C_35 
ROOT
HETATM    1  C   UNK     0     -41.100 -18.084  23.061  0.00  0.00     0.126 C 
HETATM    2  C   UNK     0     -42.853 -19.183  24.479  0.00  0.00     0.130 C 
HETATM    3  N   UNK     0     -43.335 -19.910  23.247  0.00  0.00    -0.320 N 
HETATM    4  C   UNK     0     -42.726 -19.720  22.014  0.00  0.00     0.319 C 
HETATM    5  N   UNK     0     -41.672 -18.858  21.942  0.00  0.00    -0.343 N 
HETATM    6  O   UNK     0     -43.105 -20.297  21.009  0.00  0.00    -0.247 OA
HETATM    7  C   UNK     0     -41.374 -18.750  24.414  0.00  0.00     0.040 C 
HETATM    8  H   UNK     0     -41.291 -18.788  20.998  0.00  0.00     0.164 HD
ENDROOT
BRANCH   3   9
HETATM    9  C   UNK     0     -44.501 -20.856  23.344  0.00  0.00     0.184 C 
BRANCH   9  10
HETATM   10  C   UNK     0     -45.802 -20.040  23.574  0.00  0.00     0.241 C 
HETATM   11  N   UNK     0     -45.638 -19.029  24.483  0.00  0.00    -0.354 N 
HETATM   12  H   UNK     0     -44.693 -18.975  24.862  0.00  0.00     0.162 HD
HETATM   13  O   UNK     0     -46.849 -20.309  22.983  0.00  0.00    -0.271 OA
BRANCH  11  14
HETATM   14  C   UNK     0     -46.702 -18.088  24.899  0.00  0.00     0.091 C 
BRANCH  14  15
HETATM   15  C   UNK     0     -46.505 -17.656  26.370  0.00  0.00     0.063 C 
BRANCH  15  16
HETATM   16  C   UNK     0     -47.556 -16.778  26.990  0.00  0.00    -0.056 A 
HETATM   17  C   UNK     0     -47.203 -15.512  27.532  0.00  0.00     0.007 A 
HETATM   18  C   UNK     0     -48.182 -14.678  28.117  0.00  0.00     0.001 A 
HETATM   19  C   UNK     0     -49.531 -15.103  28.166  0.00  0.00     0.000 A 
HETATM   20  C   UNK     0     -49.890 -16.361  27.627  0.00  0.00     0.001 A 
HETATM   21  C   UNK     0     -48.906 -17.194  27.043  0.00  0.00     0.007 A 
ENDBRANCH  15  16
ENDBRANCH  14  15
BRANCH  14  22
HETATM   22  C   UNK     0     -46.671 -16.792  24.059  0.00  0.00     0.059 C 
BRANCH  22  23
HETATM   23  C   UNK     0     -47.593 -16.651  22.834  0.00  0.00     0.143 C 
BRANCH  23  24
HETATM   24  C   UNK     0     -46.936 -16.195  21.506  0.00  0.00     0.117 C 
BRANCH  24  25
HETATM   25  N   UNK     0     -46.954 -17.338  20.563  0.00  0.00    -0.352 N 
HETATM   26  C   UNK     0     -45.828 -17.923  20.044  0.00  0.00     0.242 C 
HETATM   27  O   UNK     0     -44.669 -17.579  20.299  0.00  0.00    -0.271 OA
HETATM   28  H   UNK     0     -47.824 -17.761  20.241  0.00  0.00     0.163 HD
BRANCH  26  29
HETATM   29  C   UNK     0     -46.103 -19.080  19.063  0.00  0.00     0.278 C 
BRANCH  29  30
HETATM   30  O   UNK     0     -44.930 -19.433  18.308  0.00  0.00    -0.341 OA
BRANCH  30  31
HETATM   31  C   UNK     0     -45.204 -20.147  17.126  0.00  0.00     0.081 A 
HETATM   32  C   UNK     0     -45.779 -19.509  15.972  0.00  0.00    -0.028 A 
HETATM   33  C   UNK     0     -46.031 -20.283  14.807  0.00  0.00     0.009 A 
HETATM   34  C   UNK     0     -46.127 -18.039  15.949  0.00  0.00     0.051 C 
HETATM   35  C   UNK     0     -45.723 -21.660  14.771  0.00  0.00     0.001 A 
HETATM   36  C   UNK     0     -45.157 -22.293  15.896  0.00  0.00     0.009 A 
HETATM   37  C   UNK     0     -44.892 -21.553  17.073  0.00  0.00    -0.028 A 
HETATM   38  C   UNK     0     -44.291 -22.254  18.244  0.00  0.00     0.051 C 
ENDBRANCH  30  31
ENDBRANCH  29  30
ENDBRANCH  26  29
ENDBRANCH  24  25
BRANCH  24  39
HETATM   39  C   UNK     0     -47.728 -15.011  20.876  0.00  0.00     0.066 C 
BRANCH  39  40
HETATM   40  C   UNK     0     -46.864 -13.908  20.297  0.00  0.00    -0.056 A 
HETATM   41  C   UNK     0     -45.454 -14.041  20.296  0.00  0.00     0.007 A 
HETATM   42  C   UNK     0     -44.626 -13.021  19.765  0.00  0.00     0.001 A 
HETATM   43  C   UNK     0     -45.202 -11.855  19.227  0.00  0.00     0.000 A 
HETATM   44  C   UNK     0     -46.607 -11.711  19.221  0.00  0.00     0.001 A 
HETATM   45  C   UNK     0     -47.434 -12.729  19.752  0.00  0.00     0.007 A 
ENDBRANCH  39  40
ENDBRANCH  24  39
ENDBRANCH  23  24
BRANCH  23  46
HETATM   46  O   UNK     0     -48.135 -17.931  22.611  0.00  0.00    -0.393 OA
HETATM   47  H   UNK     0     -48.768 -18.069  23.307  0.00  0.00     0.210 HD
ENDBRANCH  23  46
ENDBRANCH  22  23
ENDBRANCH  14  22
ENDBRANCH  11  14
ENDBRANCH   9  10
BRANCH   9  48
HETATM   48  C   UNK     0     -44.278 -21.955  24.456  0.00  0.00     0.010 C 
HETATM   49  C   UNK     0     -45.504 -22.863  24.676  0.00  0.00     0.012 C 
HETATM   50  C   UNK     0     -43.063 -22.848  24.113  0.00  0.00     0.012 C 
ENDBRANCH   9  48
ENDBRANCH   3   9
TORSDOF 16
ENDMDL
MODEL 8
REMARK VINA RESULT:      -7.0      2.322      8.583
REMARK  16 active torsions:
REMARK  status: ('A' for Active; 'I' for Inactive)
REMARK    1  A    between atoms: N_3  and  C_13 
REMARK    2  A    between atoms: C_6  and  C_37 
REMARK    3  A    between atoms: C_13  and  C_14 
REMARK    4  A    between atoms: C_13  and  C_17 
REMARK       I    between atoms: C_14  and  N_15 
REMARK    5  A    between atoms: N_15  and  C_16 
REMARK    6  A    between atoms: C_16  and  C_27 
REMARK    7  A    between atoms: C_16  and  C_28 
REMARK    8  A    between atoms: C_25  and  C_27 
REMARK    9  A    between atoms: C_28  and  C_29 
REMARK   10  A    between atoms: C_29  and  C_30 
REMARK   11  A    between atoms: C_29  and  O_36 
REMARK   12  A    between atoms: C_30  and  N_31 
REMARK   13  A    between atoms: C_30  and  C_37 
REMARK       I    between atoms: N_31  and  C_32 
REMARK   14  A    between atoms: C_32  and  C_33 
REMARK   15  A    between atoms: C_33  and  O_34 
REMARK   16  A    between atoms: O_34  and  C_35 
ROOT
HETATM    1  C   UNK     0     -53.594  -2.981  22.934  0.00  0.00     0.126 C 
HETATM    2  C   UNK     0     -52.647  -4.526  21.198  0.00  0.00     0.130 C 
HETATM    3  N   UNK     0     -51.838  -5.187  22.288  0.00  0.00    -0.320 N 
HETATM    4  C   UNK     0     -51.914  -4.755  23.605  0.00  0.00     0.319 C 
HETATM    5  N   UNK     0     -52.748  -3.716  23.895  0.00  0.00    -0.343 N 
HETATM    6  O   UNK     0     -51.264  -5.275  24.496  0.00  0.00    -0.247 OA
HETATM    7  C   UNK     0     -53.930  -3.832  21.704  0.00  0.00     0.040 C 
HETATM    8  H   UNK     0     -52.738  -3.475  24.886  0.00  0.00     0.164 HD
ENDROOT
BRANCH   3   9
HETATM    9  C   UNK     0     -50.920  -6.330  21.950  0.00  0.00     0.184 C 
BRANCH   9  10
HETATM   10  C   UNK     0     -49.922  -5.877  20.850  0.00  0.00     0.241 C 
HETATM   11  N   UNK     0     -49.962  -6.674  19.738  0.00  0.00    -0.354 N 
HETATM   12  H   UNK     0     -50.637  -7.436  19.810  0.00  0.00     0.162 HD
HETATM   13  O   UNK     0     -49.188  -4.898  21.003  0.00  0.00    -0.271 OA
BRANCH  11  14
HETATM   14  C   UNK     0     -49.127  -6.483  18.532  0.00  0.00     0.091 C 
BRANCH  14  15
HETATM   15  C   UNK     0     -48.641  -7.844  17.982  0.00  0.00     0.063 C 
BRANCH  15  16
HETATM   16  C   UNK     0     -47.703  -8.651  18.834  0.00  0.00    -0.056 A 
HETATM   17  C   UNK     0     -46.392  -8.175  19.105  0.00  0.00     0.007 A 
HETATM   18  C   UNK     0     -45.501  -8.925  19.906  0.00  0.00     0.001 A 
HETATM   19  C   UNK     0     -45.915 -10.164  20.448  0.00  0.00     0.000 A 
HETATM   20  C   UNK     0     -47.220 -10.645  20.184  0.00  0.00     0.001 A 
HETATM   21  C   UNK     0     -48.109  -9.890  19.381  0.00  0.00     0.007 A 
ENDBRANCH  15  16
ENDBRANCH  14  15
BRANCH  14  22
HETATM   22  C   UNK     0     -49.925  -5.815  17.391  0.00  0.00     0.059 C 
BRANCH  22  23
HETATM   23  C   UNK     0     -51.375  -5.359  17.635  0.00  0.00     0.143 C 
BRANCH  23  24
HETATM   24  C   UNK     0     -51.639  -3.831  17.662  0.00  0.00     0.117 C 
BRANCH  24  25
HETATM   25  N   UNK     0     -50.383  -3.151  18.054  0.00  0.00    -0.352 N 
HETATM   26  C   UNK     0     -50.306  -2.174  19.013  0.00  0.00     0.242 C 
HETATM   27  O   UNK     0     -51.263  -1.747  19.668  0.00  0.00    -0.271 OA
HETATM   28  H   UNK     0     -49.487  -3.376  17.623  0.00  0.00     0.163 HD
BRANCH  26  29
HETATM   29  C   UNK     0     -48.892  -1.598  19.227  0.00  0.00     0.278 C 
BRANCH  29  30
HETATM   30  O   UNK     0     -48.427  -0.877  18.071  0.00  0.00    -0.341 OA
BRANCH  30  31
HETATM   31  C   UNK     0     -47.024  -0.821  17.958  0.00  0.00     0.081 A 
HETATM   32  C   UNK     0     -46.269   0.301  18.447  0.00  0.00    -0.028 A 
HETATM   33  C   UNK     0     -44.856   0.298  18.305  0.00  0.00     0.009 A 
HETATM   34  C   UNK     0     -46.925   1.490  19.110  0.00  0.00     0.051 C 
HETATM   35  C   UNK     0     -44.191  -0.787  17.697  0.00  0.00     0.001 A 
HETATM   36  C   UNK     0     -44.921  -1.893  17.218  0.00  0.00     0.009 A 
HETATM   37  C   UNK     0     -46.331  -1.924  17.341  0.00  0.00    -0.028 A 
HETATM   38  C   UNK     0     -47.073  -3.110  16.825  0.00  0.00     0.051 C 
ENDBRANCH  30  31
ENDBRANCH  29  30
ENDBRANCH  26  29
ENDBRANCH  24  25
BRANCH  24  39
HETATM   39  C   UNK     0     -52.069  -3.320  16.255  0.00  0.00     0.066 C 
BRANCH  39  40
HETATM   40  C   UNK     0     -50.952  -2.702  15.437  0.00  0.00    -0.056 A 
HETATM   41  C   UNK     0     -50.673  -1.319  15.555  0.00  0.00     0.007 A 
HETATM   42  C   UNK     0     -49.638  -0.717  14.797  0.00  0.00     0.001 A 
HETATM   43  C   UNK     0     -48.869  -1.497  13.912  0.00  0.00     0.000 A 
HETATM   44  C   UNK     0     -49.138  -2.877  13.786  0.00  0.00     0.001 A 
HETATM   45  C   UNK     0     -50.172  -3.477  14.542  0.00  0.00     0.007 A 
ENDBRANCH  39  40
ENDBRANCH  24  39
ENDBRANCH  23  24
BRANCH  23  46
HETATM   46  O   UNK     0     -52.130  -5.892  16.573  0.00  0.00    -0.393 OA
HETATM   47  H   UNK     0     -52.062  -5.263  15.864  0.00  0.00     0.210 HD
ENDBRANCH  23  46
ENDBRANCH  22  23
ENDBRANCH  14  22
ENDBRANCH  11  14
ENDBRANCH   9  10
BRANCH   9  48
HETATM   48  C   UNK     0     -51.721  -7.626  21.534  0.00  0.00     0.010 C 
HETATM   49  C   UNK     0     -50.899  -8.923  21.659  0.00  0.00     0.012 C 
HETATM   50  C   UNK     0     -53.005  -7.777  22.383  0.00  0.00     0.012 C 
ENDBRANCH   9  48
ENDBRANCH   3   9
TORSDOF 16
ENDMDL
MODEL 9
REMARK VINA RESULT:      -6.9      2.309      7.349
REMARK  16 active torsions:
REMARK  status: ('A' for Active; 'I' for Inactive)
REMARK    1  A    between atoms: N_3  and  C_13 
REMARK    2  A    between atoms: C_6  and  C_37 
REMARK    3  A    between atoms: C_13  and  C_14 
REMARK    4  A    between atoms: C_13  and  C_17 
REMARK       I    between atoms: C_14  and  N_15 
REMARK    5  A    between atoms: N_15  and  C_16 
REMARK    6  A    between atoms: C_16  and  C_27 
REMARK    7  A    between atoms: C_16  and  C_28 
REMARK    8  A    between atoms: C_25  and  C_27 
REMARK    9  A    between atoms: C_28  and  C_29 
REMARK   10  A    between atoms: C_29  and  C_30 
REMARK   11  A    between atoms: C_29  and  O_36 
REMARK   12  A    between atoms: C_30  and  N_31 
REMARK   13  A    between atoms: C_30  and  C_37 
REMARK       I    between atoms: N_31  and  C_32 
REMARK   14  A    between atoms: C_32  and  C_33 
REMARK   15  A    between atoms: C_33  and  O_34 
REMARK   16  A    between atoms: O_34  and  C_35 
ROOT
HETATM    1  C   UNK     0     -46.481  -9.084  19.853  0.00  0.00     0.126 C 
HETATM    2  C   UNK     0     -48.784 -10.031  20.160  0.00  0.00     0.130 C 
HETATM    3  N   UNK     0     -49.304  -8.619  20.273  0.00  0.00    -0.320 N 
HETATM    4  C   UNK     0     -48.452  -7.527  20.181  0.00  0.00     0.319 C 
HETATM    5  N   UNK     0     -47.124  -7.762  19.981  0.00  0.00    -0.343 N 
HETATM    6  O   UNK     0     -48.856  -6.381  20.275  0.00  0.00    -0.247 OA
HETATM    7  C   UNK     0     -47.466 -10.152  19.365  0.00  0.00     0.040 C 
HETATM    8  H   UNK     0     -46.581  -6.900  19.924  0.00  0.00     0.164 HD
ENDROOT
BRANCH   3   9
HETATM    9  C   UNK     0     -50.772  -8.378  20.497  0.00  0.00     0.184 C 
BRANCH   9  10
HETATM   10  C   UNK     0     -51.352  -7.593  19.288  0.00  0.00     0.241 C 
HETATM   11  N   UNK     0     -51.564  -6.270  19.570  0.00  0.00    -0.354 N 
HETATM   12  H   UNK     0     -51.310  -6.013  20.524  0.00  0.00     0.162 HD
HETATM   13  O   UNK     0     -51.583  -8.142  18.210  0.00  0.00    -0.271 OA
BRANCH  11  14
HETATM   14  C   UNK     0     -52.105  -5.280  18.612  0.00  0.00     0.091 C 
BRANCH  14  15
HETATM   15  C   UNK     0     -52.777  -4.106  19.360  0.00  0.00     0.063 C 
BRANCH  15  16
HETATM   16  C   UNK     0     -52.556  -3.999  20.842  0.00  0.00    -0.056 A 
HETATM   17  C   UNK     0     -51.237  -3.898  21.364  0.00  0.00     0.007 A 
HETATM   18  C   UNK     0     -51.016  -3.797  22.756  0.00  0.00     0.001 A 
HETATM   19  C   UNK     0     -52.116  -3.795  23.645  0.00  0.00     0.000 A 
HETATM   20  C   UNK     0     -53.432  -3.894  23.134  0.00  0.00     0.001 A 
HETATM   21  C   UNK     0     -53.649  -3.996  21.739  0.00  0.00     0.007 A 
ENDBRANCH  15  16
ENDBRANCH  14  15
BRANCH  14  22
HETATM   22  C   UNK     0     -50.986  -4.659  17.748  0.00  0.00     0.059 C 
BRANCH  22  23
HETATM   23  C   UNK     0     -51.215  -3.302  17.057  0.00  0.00     0.143 C 
BRANCH  23  24
HETATM   24  C   UNK     0     -50.432  -2.085  17.615  0.00  0.00     0.117 C 
BRANCH  24  25
HETATM   25  N   UNK     0     -49.489  -1.622  16.571  0.00  0.00    -0.352 N 
HETATM   26  C   UNK     0     -48.270  -2.200  16.326  0.00  0.00     0.242 C 
HETATM   27  O   UNK     0     -47.811  -3.172  16.935  0.00  0.00    -0.271 OA
HETATM   28  H   UNK     0     -49.699  -0.831  15.962  0.00  0.00     0.163 HD
BRANCH  26  29
HETATM   29  C   UNK     0     -47.456  -1.524  15.205  0.00  0.00     0.278 C 
BRANCH  29  30
HETATM   30  O   UNK     0     -46.888  -0.273  15.634  0.00  0.00    -0.341 OA
BRANCH  30  31
HETATM   31  C   UNK     0     -45.905  -0.404  16.634  0.00  0.00     0.081 A 
HETATM   32  C   UNK     0     -44.638  -1.033  16.373  0.00  0.00    -0.028 A 
HETATM   33  C   UNK     0     -43.686  -1.133  17.423  0.00  0.00     0.009 A 
HETATM   34  C   UNK     0     -44.277  -1.593  15.017  0.00  0.00     0.051 C 
HETATM   35  C   UNK     0     -43.968  -0.624  18.708  0.00  0.00     0.001 A 
HETATM   36  C   UNK     0     -45.206  -0.003  18.973  0.00  0.00     0.009 A 
HETATM   37  C   UNK     0     -46.178   0.114  17.951  0.00  0.00    -0.028 A 
HETATM   38  C   UNK     0     -47.476   0.778  18.265  0.00  0.00     0.051 C 
ENDBRANCH  30  31
ENDBRANCH  29  30
ENDBRANCH  26  29
ENDBRANCH  24  25
BRANCH  24  39
HETATM   39  C   UNK     0     -51.403  -0.920  17.968  0.00  0.00     0.066 C 
BRANCH  39  40
HETATM   40  C   UNK     0     -51.554  -0.649  19.453  0.00  0.00    -0.056 A 
HETATM   41  C   UNK     0     -50.403  -0.540  20.272  0.00  0.00     0.007 A 
HETATM   42  C   UNK     0     -50.520  -0.293  21.662  0.00  0.00     0.001 A 
HETATM   43  C   UNK     0     -51.792  -0.151  22.248  0.00  0.00     0.000 A 
HETATM   44  C   UNK     0     -52.946  -0.256  21.441  0.00  0.00     0.001 A 
HETATM   45  C   UNK     0     -52.830  -0.504  20.054  0.00  0.00     0.007 A 
ENDBRANCH  39  40
ENDBRANCH  24  39
ENDBRANCH  23  24
BRANCH  23  46
HETATM   46  O   UNK     0     -50.812  -3.478  15.720  0.00  0.00    -0.393 OA
HETATM   47  H   UNK     0     -50.049  -2.923  15.604  0.00  0.00     0.210 HD
ENDBRANCH  23  46
ENDBRANCH  22  23
ENDBRANCH  14  22
ENDBRANCH  11  14
ENDBRANCH   9  10
BRANCH   9  48
HETATM   48  C   UNK     0     -51.047  -7.648  21.871  0.00  0.00     0.010 C 
HETATM   49  C   UNK     0     -52.532  -7.656  22.284  0.00  0.00     0.012 C 
HETATM   50  C   UNK     0     -50.219  -8.289  23.010  0.00  0.00     0.012 C 
ENDBRANCH   9  48
ENDBRANCH   3   9
TORSDOF 16
ENDMDL
MODEL 10
REMARK VINA RESULT:      -6.9      6.961     10.956
REMARK  16 active torsions:
REMARK  status: ('A' for Active; 'I' for Inactive)
REMARK    1  A    between atoms: N_3  and  C_13 
REMARK    2  A    between atoms: C_6  and  C_37 
REMARK    3  A    between atoms: C_13  and  C_14 
REMARK    4  A    between atoms: C_13  and  C_17 
REMARK       I    between atoms: C_14  and  N_15 
REMARK    5  A    between atoms: N_15  and  C_16 
REMARK    6  A    between atoms: C_16  and  C_27 
REMARK    7  A    between atoms: C_16  and  C_28 
REMARK    8  A    between atoms: C_25  and  C_27 
REMARK    9  A    between atoms: C_28  and  C_29 
REMARK   10  A    between atoms: C_29  and  C_30 
REMARK   11  A    between atoms: C_29  and  O_36 
REMARK   12  A    between atoms: C_30  and  N_31 
REMARK   13  A    between atoms: C_30  and  C_37 
REMARK       I    between atoms: N_31  and  C_32 
REMARK   14  A    between atoms: C_32  and  C_33 
REMARK   15  A    between atoms: C_33  and  O_34 
REMARK   16  A    between atoms: O_34  and  C_35 
ROOT
HETATM    1  C   UNK     0     -42.428  -8.284  23.851  0.00  0.00     0.126 C 
HETATM    2  C   UNK     0     -41.845 -10.553  22.952  0.00  0.00     0.130 C 
HETATM    3  N   UNK     0     -42.670 -10.234  21.729  0.00  0.00    -0.320 N 
HETATM    4  C   UNK     0     -43.323  -9.016  21.597  0.00  0.00     0.319 C 
HETATM    5  N   UNK     0     -43.199  -8.106  22.605  0.00  0.00    -0.343 N 
HETATM    6  O   UNK     0     -43.996  -8.745  20.618  0.00  0.00    -0.247 OA
HETATM    7  C   UNK     0     -41.300  -9.308  23.682  0.00  0.00     0.040 C 
HETATM    8  H   UNK     0     -43.710  -7.244  22.415  0.00  0.00     0.164 HD
ENDROOT
BRANCH   3   9
HETATM    9  C   UNK     0     -42.800 -11.251  20.627  0.00  0.00     0.184 C 
BRANCH   9  10
HETATM   10  C   UNK     0     -43.917 -12.265  20.998  0.00  0.00     0.241 C 
HETATM   11  N   UNK     0     -45.022 -12.150  20.197  0.00  0.00    -0.354 N 
HETATM   12  H   UNK     0     -44.936 -11.420  19.490  0.00  0.00     0.162 HD
HETATM   13  O   UNK     0     -43.783 -13.069  21.922  0.00  0.00    -0.271 OA
BRANCH  11  14
HETATM   14  C   UNK     0     -46.238 -12.984  20.314  0.00  0.00     0.091 C 
BRANCH  14  15
HETATM   15  C   UNK     0     -47.421 -12.335  19.558  0.00  0.00     0.063 C 
BRANCH  15  16
HETATM   16  C   UNK     0     -48.238 -11.305  20.286  0.00  0.00    -0.056 A 
HETATM   17  C   UNK     0     -48.620 -11.519  21.639  0.00  0.00     0.007 A 
HETATM   18  C   UNK     0     -49.388 -10.557  22.334  0.00  0.00     0.001 A 
HETATM   19  C   UNK     0     -49.782  -9.366  21.681  0.00  0.00     0.000 A 
HETATM   20  C   UNK     0     -49.404  -9.145  20.335  0.00  0.00     0.001 A 
HETATM   21  C   UNK     0     -48.636 -10.111  19.642  0.00  0.00     0.007 A 
ENDBRANCH  15  16
ENDBRANCH  14  15
BRANCH  14  22
HETATM   22  C   UNK     0     -46.032 -14.378  19.680  0.00  0.00     0.059 C 
BRANCH  22  23
HETATM   23  C   UNK     0     -46.058 -15.635  20.568  0.00  0.00     0.143 C 
BRANCH  23  24
HETATM   24  C   UNK     0     -47.048 -16.760  20.170  0.00  0.00     0.117 C 
BRANCH  24  25
HETATM   25  N   UNK     0     -46.263 -17.962  19.807  0.00  0.00    -0.352 N 
HETATM   26  C   UNK     0     -46.567 -18.790  18.757  0.00  0.00     0.242 C 
HETATM   27  O   UNK     0     -47.520 -18.636  17.986  0.00  0.00    -0.271 OA
HETATM   28  H   UNK     0     -45.434 -18.246  20.330  0.00  0.00     0.163 HD
BRANCH  26  29
HETATM   29  C   UNK     0     -45.616 -19.992  18.595  0.00  0.00     0.278 C 
BRANCH  29  30
HETATM   30  O   UNK     0     -44.691 -19.802  17.509  0.00  0.00    -0.341 OA
BRANCH  30  31
HETATM   31  C   UNK     0     -44.973 -20.584  16.373  0.00  0.00     0.081 A 
HETATM   32  C   UNK     0     -44.652 -21.985  16.319  0.00  0.00    -0.028 A 
HETATM   33  C   UNK     0     -44.965 -22.721  15.144  0.00  0.00     0.009 A 
HETATM   34  C   UNK     0     -43.993 -22.708  17.469  0.00  0.00     0.051 C 
HETATM   35  C   UNK     0     -45.584 -22.097  14.041  0.00  0.00     0.001 A 
HETATM   36  C   UNK     0     -45.905 -20.726  14.086  0.00  0.00     0.009 A 
HETATM   37  C   UNK     0     -45.608 -19.961  15.239  0.00  0.00    -0.028 A 
HETATM   38  C   UNK     0     -45.964 -18.513  15.254  0.00  0.00     0.051 C 
ENDBRANCH  30  31
ENDBRANCH  29  30
ENDBRANCH  26  29
ENDBRANCH  24  25
BRANCH  24  39
HETATM   39  C   UNK     0     -47.989 -17.114  21.360  0.00  0.00     0.066 C 
BRANCH  39  40
HETATM   40  C   UNK     0     -47.320 -17.102  22.721  0.00  0.00    -0.056 A 
HETATM   41  C   UNK     0     -47.383 -15.941  23.528  0.00  0.00     0.007 A 
HETATM   42  C   UNK     0     -46.762 -15.905  24.801  0.00  0.00     0.001 A 
HETATM   43  C   UNK     0     -46.071 -17.034  25.281  0.00  0.00     0.000 A 
HETATM   44  C   UNK     0     -46.002 -18.198  24.484  0.00  0.00     0.001 A 
HETATM   45  C   UNK     0     -46.622 -18.234  23.213  0.00  0.00     0.007 A 
ENDBRANCH  39  40
ENDBRANCH  24  39
ENDBRANCH  23  24
BRANCH  23  46
HETATM   46  O   UNK     0     -44.762 -16.180  20.501  0.00  0.00    -0.393 OA
HETATM   47  H   UNK     0     -44.613 -16.384  19.585  0.00  0.00     0.210 HD
ENDBRANCH  23  46
ENDBRANCH  22  23
ENDBRANCH  14  22
ENDBRANCH  11  14
ENDBRANCH   9  10
BRANCH   9  48
HETATM   48  C   UNK     0     -41.425 -11.962  20.316  0.00  0.00     0.010 C 
HETATM   49  C   UNK     0     -41.515 -13.007  19.187  0.00  0.00     0.012 C 
HETATM   50  C   UNK     0     -40.342 -10.925  19.937  0.00  0.00     0.012 C 
ENDBRANCH   9  48
ENDBRANCH   3   9
TORSDOF 16
ENDMDL
