MODEL 1
REMARK VINA RESULT:      -7.4      0.000      0.000
REMARK  15 active torsions:
REMARK  status: ('A' for Active; 'I' for Inactive)
REMARK    1  A    between atoms: O_2  and  C_18 
REMARK    2  A    between atoms: O_2  and  C_22 
REMARK    3  A    between atoms: O_4  and  C_14 
REMARK    4  A    between atoms: O_5  and  C_21 
REMARK    5  A    between atoms: O_5  and  C_25 
REMARK    6  A    between atoms: O_6  and  C_15 
REMARK    7  A    between atoms: O_7  and  C_16 
REMARK    8  A    between atoms: O_8  and  C_17 
REMARK    9  A    between atoms: O_9  and  C_19 
REMARK   10  A    between atoms: O_10  and  C_20 
REMARK   11  A    between atoms: O_11  and  C_30 
REMARK   12  A    between atoms: O_12  and  C_32 
REMARK   13  A    between atoms: C_13  and  C_22 
REMARK   14  A    between atoms: C_25  and  C_26 
REMARK   15  A    between atoms: C_26  and  C_27 
ROOT
HETATM    1  O   UNK     0     -50.438  -4.873  18.206  0.00  0.00    -0.348 OA
HETATM    2  C   UNK     0     -49.757  -5.113  16.973  0.00  0.00     0.180 C 
HETATM    3  C   UNK     0     -50.249  -4.133  15.906  0.00  0.00     0.180 C 
HETATM    4  C   UNK     0     -51.767  -4.223  15.744  0.00  0.00     0.183 C 
HETATM    5  C   UNK     0     -52.472  -4.146  17.098  0.00  0.00     0.204 C 
HETATM    6  C   UNK     0     -51.842  -5.103  18.109  0.00  0.00     0.291 C 
ENDROOT
BRANCH   2   7
HETATM    7  C   UNK     0     -48.263  -4.961  17.235  0.00  0.00     0.205 C 
BRANCH   7   8
HETATM    8  O   UNK     0     -47.936  -3.578  17.256  0.00  0.00    -0.356 OA
BRANCH   8   9
HETATM    9  C   UNK     0     -46.647  -3.340  16.702  0.00  0.00     0.291 C 
HETATM   10  O   UNK     0     -45.753  -2.730  17.640  0.00  0.00    -0.351 OA
HETATM   11  C   UNK     0     -46.149  -1.420  18.060  0.00  0.00     0.152 C 
HETATM   12  C   UNK     0     -46.250  -0.464  16.862  0.00  0.00     0.178 C 
HETATM   13  C   UNK     0     -45.116  -0.949  19.081  0.00  0.00     0.042 C 
HETATM   14  C   UNK     0     -47.182  -1.050  15.801  0.00  0.00     0.183 C 
HETATM   15  C   UNK     0     -46.776  -2.481  15.445  0.00  0.00     0.204 C 
BRANCH  12  16
HETATM   16  O   UNK     0     -46.782   0.791  17.276  0.00  0.00    -0.390 OA
HETATM   17  H   UNK     0     -47.258   0.655  18.114  0.00  0.00     0.210 HD
ENDBRANCH  12  16
BRANCH  14  18
HETATM   18  O   UNK     0     -47.140  -0.230  14.636  0.00  0.00    -0.390 OA
HETATM   19  H   UNK     0     -48.047   0.072  14.456  0.00  0.00     0.210 HD
ENDBRANCH  14  18
BRANCH  15  20
HETATM   20  O   UNK     0     -45.508  -2.479  14.788  0.00  0.00    -0.388 OA
HETATM   21  H   UNK     0     -45.127  -3.369  14.880  0.00  0.00     0.210 HD
ENDBRANCH  15  20
ENDBRANCH   8   9
ENDBRANCH   7   8
ENDBRANCH   2   7
BRANCH   6  22
HETATM   22  O   UNK     0     -52.457  -4.871  19.377  0.00  0.00    -0.358 OA
BRANCH  22  23
HETATM   23  C   UNK     0     -51.751  -5.524  20.420  0.00  0.00     0.175 C 
BRANCH  23  24
HETATM   24  C   UNK     0     -52.234  -6.964  20.544  0.00  0.00     0.065 C 
BRANCH  24  25
HETATM   25  C   UNK     0     -51.094  -7.952  20.584  0.00  0.00    -0.053 A 
HETATM   26  C   UNK     0     -50.389  -8.251  19.419  0.00  0.00     0.046 A 
HETATM   27  C   UNK     0     -49.333  -9.162  19.457  0.00  0.00     0.099 A 
HETATM   28  C   UNK     0     -48.983  -9.774  20.660  0.00  0.00     0.098 A 
HETATM   29  C   UNK     0     -49.688  -9.474  21.826  0.00  0.00     0.040 A 
HETATM   30  C   UNK     0     -50.743  -8.563  21.789  0.00  0.00     0.010 A 
BRANCH  27  31
HETATM   31  O   UNK     0     -48.651  -9.446  18.312  0.00  0.00    -0.358 OA
HETATM   32  H   UNK     0     -47.755  -9.073  18.377  0.00  0.00     0.217 HD
ENDBRANCH  27  31
BRANCH  28  33
HETATM   33  O   UNK     0     -47.954 -10.666  20.710  0.00  0.00    -0.358 OA
HETATM   34  H   UNK     0     -48.316 -11.561  20.832  0.00  0.00     0.217 HD
ENDBRANCH  28  33
ENDBRANCH  24  25
ENDBRANCH  23  24
ENDBRANCH  22  23
ENDBRANCH   6  22
BRANCH   3  35
HETATM   35  O   UNK     0     -49.624  -4.438  14.662  0.00  0.00    -0.390 OA
HETATM   36  H   UNK     0     -50.193  -5.066  14.185  0.00  0.00     0.210 HD
ENDBRANCH   3  35
BRANCH   5  37
HETATM   37  O   UNK     0     -53.845  -4.505  16.938  0.00  0.00    -0.388 OA
HETATM   38  H   UNK     0     -54.205  -4.716  17.817  0.00  0.00     0.210 HD
ENDBRANCH   5  37
BRANCH   4  39
HETATM   39  O   UNK     0     -52.189  -3.131  14.925  0.00  0.00    -0.390 OA
HETATM   40  H   UNK     0     -51.837  -3.271  14.029  0.00  0.00     0.210 HD
ENDBRANCH   4  39
TORSDOF 15
ENDMDL
MODEL 2
REMARK VINA RESULT:      -7.4      2.047      3.736
REMARK  15 active torsions:
REMARK  status: ('A' for Active; 'I' for Inactive)
REMARK    1  A    between atoms: O_2  and  C_18 
REMARK    2  A    between atoms: O_2  and  C_22 
REMARK    3  A    between atoms: O_4  and  C_14 
REMARK    4  A    between atoms: O_5  and  C_21 
REMARK    5  A    between atoms: O_5  and  C_25 
REMARK    6  A    between atoms: O_6  and  C_15 
REMARK    7  A    between atoms: O_7  and  C_16 
REMARK    8  A    between atoms: O_8  and  C_17 
REMARK    9  A    between atoms: O_9  and  C_19 
REMARK   10  A    between atoms: O_10  and  C_20 
REMARK   11  A    between atoms: O_11  and  C_30 
REMARK   12  A    between atoms: O_12  and  C_32 
REMARK   13  A    between atoms: C_13  and  C_22 
REMARK   14  A    between atoms: C_25  and  C_26 
REMARK   15  A    between atoms: C_26  and  C_27 
ROOT
HETATM    1  O   UNK     0     -49.614  -2.566  17.218  0.00  0.00    -0.348 OA
HETATM    2  C   UNK     0     -48.641  -1.693  16.643  0.00  0.00     0.180 C 
HETATM    3  C   UNK     0     -49.050  -1.323  15.216  0.00  0.00     0.180 C 
HETATM    4  C   UNK     0     -49.261  -2.578  14.368  0.00  0.00     0.183 C 
HETATM    5  C   UNK     0     -50.163  -3.583  15.083  0.00  0.00     0.204 C 
HETATM    6  C   UNK     0     -49.712  -3.809  16.526  0.00  0.00     0.291 C 
ENDROOT
BRANCH   2   7
HETATM    7  C   UNK     0     -48.539  -0.463  17.539  0.00  0.00     0.205 C 
BRANCH   7   8
HETATM    8  O   UNK     0     -47.333  -0.533  18.286  0.00  0.00    -0.356 OA
BRANCH   8   9
HETATM    9  C   UNK     0     -46.384   0.427  17.833  0.00  0.00     0.291 C 
HETATM   10  O   UNK     0     -45.830   0.088  16.558  0.00  0.00    -0.351 OA
HETATM   11  C   UNK     0     -45.062  -1.121  16.554  0.00  0.00     0.152 C 
HETATM   12  C   UNK     0     -43.885  -1.030  17.536  0.00  0.00     0.178 C 
HETATM   13  C   UNK     0     -44.593  -1.347  15.119  0.00  0.00     0.042 C 
HETATM   14  C   UNK     0     -44.392  -0.656  18.929  0.00  0.00     0.183 C 
HETATM   15  C   UNK     0     -45.278   0.589  18.875  0.00  0.00     0.204 C 
BRANCH  12  16
HETATM   16  O   UNK     0     -43.220  -2.286  17.627  0.00  0.00    -0.390 OA
HETATM   17  H   UNK     0     -42.873  -2.508  16.746  0.00  0.00     0.210 HD
ENDBRANCH  12  16
BRANCH  14  18
HETATM   18  O   UNK     0     -43.277  -0.421  19.787  0.00  0.00    -0.390 OA
HETATM   19  H   UNK     0     -43.255   0.531  19.985  0.00  0.00     0.210 HD
ENDBRANCH  14  18
BRANCH  15  20
HETATM   20  O   UNK     0     -44.497   1.727  18.506  0.00  0.00    -0.388 OA
HETATM   21  H   UNK     0     -43.737   1.771  19.110  0.00  0.00     0.210 HD
ENDBRANCH  15  20
ENDBRANCH   8   9
ENDBRANCH   7   8
ENDBRANCH   2   7
BRANCH   6  22
HETATM   22  O   UNK     0     -50.680  -4.642  17.164  0.00  0.00    -0.358 OA
BRANCH  22  23
HETATM   23  C   UNK     0     -50.065  -5.555  18.059  0.00  0.00     0.175 C 
BRANCH  23  24
HETATM   24  C   UNK     0     -50.868  -6.849  18.107  0.00  0.00     0.065 C 
BRANCH  24  25
HETATM   25  C   UNK     0     -51.249  -7.237  19.515  0.00  0.00    -0.053 A 
HETATM   26  C   UNK     0     -50.745  -8.410  20.075  0.00  0.00     0.046 A 
HETATM   27  C   UNK     0     -51.096  -8.768  21.377  0.00  0.00     0.099 A 
HETATM   28  C   UNK     0     -51.952  -7.952  22.118  0.00  0.00     0.098 A 
HETATM   29  C   UNK     0     -52.456  -6.779  21.557  0.00  0.00     0.040 A 
HETATM   30  C   UNK     0     -52.105  -6.421  20.256  0.00  0.00     0.010 A 
BRANCH  27  31
HETATM   31  O   UNK     0     -50.596  -9.915  21.915  0.00  0.00    -0.358 OA
HETATM   32  H   UNK     0     -49.624  -9.886  21.876  0.00  0.00     0.217 HD
ENDBRANCH  27  31
BRANCH  28  33
HETATM   33  O   UNK     0     -52.302  -8.291  23.391  0.00  0.00    -0.358 OA
HETATM   34  H   UNK     0     -51.709  -8.995  23.705  0.00  0.00     0.217 HD
ENDBRANCH  28  33
ENDBRANCH  24  25
ENDBRANCH  23  24
ENDBRANCH  22  23
ENDBRANCH   6  22
BRANCH   3  35
HETATM   35  O   UNK     0     -48.031  -0.521  14.626  0.00  0.00    -0.390 OA
HETATM   36  H   UNK     0     -47.293  -0.461  15.257  0.00  0.00     0.210 HD
ENDBRANCH   3  35
BRANCH   5  37
HETATM   37  O   UNK     0     -50.114  -4.835  14.399  0.00  0.00    -0.388 OA
HETATM   38  H   UNK     0     -49.231  -5.220  14.537  0.00  0.00     0.210 HD
ENDBRANCH   5  37
BRANCH   4  39
HETATM   39  O   UNK     0     -49.869  -2.183  13.137  0.00  0.00    -0.390 OA
HETATM   40  H   UNK     0     -49.195  -1.738  12.595  0.00  0.00     0.210 HD
ENDBRANCH   4  39
TORSDOF 15
ENDMDL
MODEL 3
REMARK VINA RESULT:      -7.4      2.103      7.242
REMARK  15 active torsions:
REMARK  status: ('A' for Active; 'I' for Inactive)
REMARK    1  A    between atoms: O_2  and  C_18 
REMARK    2  A    between atoms: O_2  and  C_22 
REMARK    3  A    between atoms: O_4  and  C_14 
REMARK    4  A    between atoms: O_5  and  C_21 
REMARK    5  A    between atoms: O_5  and  C_25 
REMARK    6  A    between atoms: O_6  and  C_15 
REMARK    7  A    between atoms: O_7  and  C_16 
REMARK    8  A    between atoms: O_8  and  C_17 
REMARK    9  A    between atoms: O_9  and  C_19 
REMARK   10  A    between atoms: O_10  and  C_20 
REMARK   11  A    between atoms: O_11  and  C_30 
REMARK   12  A    between atoms: O_12  and  C_32 
REMARK   13  A    between atoms: C_13  and  C_22 
REMARK   14  A    between atoms: C_25  and  C_26 
REMARK   15  A    between atoms: C_26  and  C_27 
ROOT
HETATM    1  O   UNK     0     -50.389  -2.264  16.705  0.00  0.00    -0.348 OA
HETATM    2  C   UNK     0     -50.773  -3.427  15.968  0.00  0.00     0.180 C 
HETATM    3  C   UNK     0     -49.697  -3.768  14.934  0.00  0.00     0.180 C 
HETATM    4  C   UNK     0     -49.428  -2.576  14.016  0.00  0.00     0.183 C 
HETATM    5  C   UNK     0     -49.198  -1.298  14.822  0.00  0.00     0.204 C 
HETATM    6  C   UNK     0     -50.283  -1.105  15.881  0.00  0.00     0.291 C 
ENDROOT
BRANCH   2   7
HETATM    7  C   UNK     0     -50.975  -4.560  16.969  0.00  0.00     0.205 C 
BRANCH   7   8
HETATM    8  O   UNK     0     -49.735  -5.223  17.174  0.00  0.00    -0.356 OA
BRANCH   8   9
HETATM    9  C   UNK     0     -49.434  -5.345  18.560  0.00  0.00     0.291 C 
HETATM   10  O   UNK     0     -48.165  -5.967  18.790  0.00  0.00    -0.351 OA
HETATM   11  C   UNK     0     -48.088  -7.325  18.342  0.00  0.00     0.152 C 
HETATM   12  C   UNK     0     -49.139  -8.197  19.043  0.00  0.00     0.178 C 
HETATM   13  C   UNK     0     -46.666  -7.806  18.624  0.00  0.00     0.042 C 
HETATM   14  C   UNK     0     -50.531  -7.593  18.855  0.00  0.00     0.183 C 
HETATM   15  C   UNK     0     -50.548  -6.118  19.263  0.00  0.00     0.204 C 
BRANCH  12  16
HETATM   16  O   UNK     0     -49.146  -9.507  18.483  0.00  0.00    -0.390 OA
HETATM   17  H   UNK     0     -48.301  -9.641  18.019  0.00  0.00     0.210 HD
ENDBRANCH  12  16
BRANCH  14  18
HETATM   18  O   UNK     0     -51.470  -8.324  19.641  0.00  0.00    -0.390 OA
HETATM   19  H   UNK     0     -51.014  -8.610  20.451  0.00  0.00     0.210 HD
ENDBRANCH  14  18
BRANCH  15  20
HETATM   20  O   UNK     0     -50.337  -6.000  20.671  0.00  0.00    -0.388 OA
HETATM   21  H   UNK     0     -50.228  -5.055  20.874  0.00  0.00     0.210 HD
ENDBRANCH  15  20
ENDBRANCH   8   9
ENDBRANCH   7   8
ENDBRANCH   2   7
BRANCH   6  22
HETATM   22  O   UNK     0     -49.923   0.022  16.680  0.00  0.00    -0.358 OA
BRANCH  22  23
HETATM   23  C   UNK     0     -49.150  -0.367  17.804  0.00  0.00     0.175 C 
BRANCH  23  24
HETATM   24  C   UNK     0     -47.917   0.523  17.914  0.00  0.00     0.065 C 
BRANCH  24  25
HETATM   25  C   UNK     0     -46.638  -0.231  17.647  0.00  0.00    -0.053 A 
HETATM   26  C   UNK     0     -46.179  -0.387  16.339  0.00  0.00     0.046 A 
HETATM   27  C   UNK     0     -44.995  -1.083  16.094  0.00  0.00     0.099 A 
HETATM   28  C   UNK     0     -44.271  -1.623  17.156  0.00  0.00     0.098 A 
HETATM   29  C   UNK     0     -44.729  -1.467  18.464  0.00  0.00     0.040 A 
HETATM   30  C   UNK     0     -45.913  -0.771  18.710  0.00  0.00     0.010 A 
BRANCH  27  31
HETATM   31  O   UNK     0     -44.556  -1.227  14.812  0.00  0.00    -0.358 OA
HETATM   32  H   UNK     0     -44.548  -0.355  14.381  0.00  0.00     0.217 HD
ENDBRANCH  27  31
BRANCH  28  33
HETATM   33  O   UNK     0     -43.113  -2.305  16.929  0.00  0.00    -0.358 OA
HETATM   34  H   UNK     0     -43.152  -2.710  16.045  0.00  0.00     0.217 HD
ENDBRANCH  28  33
ENDBRANCH  24  25
ENDBRANCH  23  24
ENDBRANCH  22  23
ENDBRANCH   6  22
BRANCH   3  35
HETATM   35  O   UNK     0     -50.131  -4.878  14.152  0.00  0.00    -0.390 OA
HETATM   36  H   UNK     0     -50.128  -4.607  13.218  0.00  0.00     0.210 HD
ENDBRANCH   3  35
BRANCH   5  37
HETATM   37  O   UNK     0     -49.226  -0.172  13.945  0.00  0.00    -0.388 OA
HETATM   38  H   UNK     0     -49.402  -0.496  13.044  0.00  0.00     0.210 HD
ENDBRANCH   5  37
BRANCH   4  39
HETATM   39  O   UNK     0     -48.262  -2.867  13.243  0.00  0.00    -0.390 OA
HETATM   40  H   UNK     0     -48.173  -2.181  12.559  0.00  0.00     0.210 HD
ENDBRANCH   4  39
TORSDOF 15
ENDMDL
MODEL 4
REMARK VINA RESULT:      -7.4      2.148      3.594
REMARK  15 active torsions:
REMARK  status: ('A' for Active; 'I' for Inactive)
REMARK    1  A    between atoms: O_2  and  C_18 
REMARK    2  A    between atoms: O_2  and  C_22 
REMARK    3  A    between atoms: O_4  and  C_14 
REMARK    4  A    between atoms: O_5  and  C_21 
REMARK    5  A    between atoms: O_5  and  C_25 
REMARK    6  A    between atoms: O_6  and  C_15 
REMARK    7  A    between atoms: O_7  and  C_16 
REMARK    8  A    between atoms: O_8  and  C_17 
REMARK    9  A    between atoms: O_9  and  C_19 
REMARK   10  A    between atoms: O_10  and  C_20 
REMARK   11  A    between atoms: O_11  and  C_30 
REMARK   12  A    between atoms: O_12  and  C_32 
REMARK   13  A    between atoms: C_13  and  C_22 
REMARK   14  A    between atoms: C_25  and  C_26 
REMARK   15  A    between atoms: C_26  and  C_27 
ROOT
HETATM    1  O   UNK     0     -48.475  -5.553  18.465  0.00  0.00    -0.348 OA
HETATM    2  C   UNK     0     -49.072  -5.348  17.183  0.00  0.00     0.180 C 
HETATM    3  C   UNK     0     -50.490  -5.922  17.170  0.00  0.00     0.180 C 
HETATM    4  C   UNK     0     -50.482  -7.400  17.565  0.00  0.00     0.183 C 
HETATM    5  C   UNK     0     -49.682  -7.624  18.847  0.00  0.00     0.204 C 
HETATM    6  C   UNK     0     -48.320  -6.934  18.782  0.00  0.00     0.291 C 
ENDROOT
BRANCH   2   7
HETATM    7  C   UNK     0     -49.066  -3.848  16.907  0.00  0.00     0.205 C 
BRANCH   7   8
HETATM    8  O   UNK     0     -47.934  -3.266  17.536  0.00  0.00    -0.356 OA
BRANCH   8   9
HETATM    9  C   UNK     0     -46.774  -3.367  16.717  0.00  0.00     0.291 C 
HETATM   10  O   UNK     0     -45.579  -3.001  17.415  0.00  0.00    -0.351 OA
HETATM   11  C   UNK     0     -45.538  -1.631  17.828  0.00  0.00     0.152 C 
HETATM   12  C   UNK     0     -45.651  -0.687  16.623  0.00  0.00     0.178 C 
HETATM   13  C   UNK     0     -44.227  -1.435  18.588  0.00  0.00     0.042 C 
HETATM   14  C   UNK     0     -46.903  -1.021  15.811  0.00  0.00     0.183 C 
HETATM   15  C   UNK     0     -46.951  -2.510  15.465  0.00  0.00     0.204 C 
BRANCH  12  16
HETATM   16  O   UNK     0     -45.754   0.664  17.062  0.00  0.00    -0.390 OA
HETATM   17  H   UNK     0     -44.940   0.887  17.546  0.00  0.00     0.210 HD
ENDBRANCH  12  16
BRANCH  14  18
HETATM   18  O   UNK     0     -46.907  -0.244  14.616  0.00  0.00    -0.390 OA
HETATM   19  H   UNK     0     -47.351  -0.769  13.927  0.00  0.00     0.210 HD
ENDBRANCH  14  18
BRANCH  15  20
HETATM   20  O   UNK     0     -45.892  -2.835  14.563  0.00  0.00    -0.388 OA
HETATM   21  H   UNK     0     -45.594  -2.008  14.148  0.00  0.00     0.210 HD
ENDBRANCH  15  20
ENDBRANCH   8   9
ENDBRANCH   7   8
ENDBRANCH   2   7
BRANCH   6  22
HETATM   22  O   UNK     0     -47.697  -7.069  20.060  0.00  0.00    -0.358 OA
BRANCH  22  23
HETATM   23  C   UNK     0     -46.463  -7.762  19.961  0.00  0.00     0.175 C 
BRANCH  23  24
HETATM   24  C   UNK     0     -46.349  -8.773  21.096  0.00  0.00     0.065 C 
BRANCH  24  25
HETATM   25  C   UNK     0     -46.611 -10.186  20.635  0.00  0.00    -0.053 A 
HETATM   26  C   UNK     0     -47.680 -10.907  21.166  0.00  0.00     0.046 A 
HETATM   27  C   UNK     0     -47.922 -12.213  20.737  0.00  0.00     0.099 A 
HETATM   28  C   UNK     0     -47.094 -12.797  19.779  0.00  0.00     0.098 A 
HETATM   29  C   UNK     0     -46.025 -12.076  19.248  0.00  0.00     0.040 A 
HETATM   30  C   UNK     0     -45.783 -10.770  19.675  0.00  0.00     0.010 A 
BRANCH  27  31
HETATM   31  O   UNK     0     -48.971 -12.906  21.262  0.00  0.00    -0.358 OA
HETATM   32  H   UNK     0     -49.396 -13.420  20.554  0.00  0.00     0.217 HD
ENDBRANCH  27  31
BRANCH  28  33
HETATM   33  O   UNK     0     -47.321 -14.071  19.353  0.00  0.00    -0.358 OA
HETATM   34  H   UNK     0     -47.087 -14.690  20.066  0.00  0.00     0.217 HD
ENDBRANCH  28  33
ENDBRANCH  24  25
ENDBRANCH  23  24
ENDBRANCH  22  23
ENDBRANCH   6  22
BRANCH   3  35
HETATM   35  O   UNK     0     -51.041  -5.786  15.863  0.00  0.00    -0.390 OA
HETATM   36  H   UNK     0     -50.307  -5.651  15.240  0.00  0.00     0.210 HD
ENDBRANCH   3  35
BRANCH   5  37
HETATM   37  O   UNK     0     -49.465  -9.023  19.031  0.00  0.00    -0.388 OA
HETATM   38  H   UNK     0     -49.932  -9.497  18.322  0.00  0.00     0.210 HD
ENDBRANCH   5  37
BRANCH   4  39
HETATM   39  O   UNK     0     -51.835  -7.809  17.770  0.00  0.00    -0.390 OA
HETATM   40  H   UNK     0     -51.993  -7.864  18.728  0.00  0.00     0.210 HD
ENDBRANCH   4  39
TORSDOF 15
ENDMDL
MODEL 5
REMARK VINA RESULT:      -7.3      2.387      3.852
REMARK  15 active torsions:
REMARK  status: ('A' for Active; 'I' for Inactive)
REMARK    1  A    between atoms: O_2  and  C_18 
REMARK    2  A    between atoms: O_2  and  C_22 
REMARK    3  A    between atoms: O_4  and  C_14 
REMARK    4  A    between atoms: O_5  and  C_21 
REMARK    5  A    between atoms: O_5  and  C_25 
REMARK    6  A    between atoms: O_6  and  C_15 
REMARK    7  A    between atoms: O_7  and  C_16 
REMARK    8  A    between atoms: O_8  and  C_17 
REMARK    9  A    between atoms: O_9  and  C_19 
REMARK   10  A    between atoms: O_10  and  C_20 
REMARK   11  A    between atoms: O_11  and  C_30 
REMARK   12  A    between atoms: O_12  and  C_32 
REMARK   13  A    between atoms: C_13  and  C_22 
REMARK   14  A    between atoms: C_25  and  C_26 
REMARK   15  A    between atoms: C_26  and  C_27 
ROOT
HETATM    1  O   UNK     0     -48.538  -5.712  18.976  0.00  0.00    -0.348 OA
HETATM    2  C   UNK     0     -49.134  -5.445  17.705  0.00  0.00     0.180 C 
HETATM    3  C   UNK     0     -50.446  -6.221  17.570  0.00  0.00     0.180 C 
HETATM    4  C   UNK     0     -50.217  -7.717  17.787  0.00  0.00     0.183 C 
HETATM    5  C   UNK     0     -49.417  -7.974  19.064  0.00  0.00     0.204 C 
HETATM    6  C   UNK     0     -48.177  -7.083  19.133  0.00  0.00     0.291 C 
ENDROOT
BRANCH   2   7
HETATM    7  C   UNK     0     -49.356  -3.939  17.608  0.00  0.00     0.205 C 
BRANCH   7   8
HETATM    8  O   UNK     0     -48.144  -3.271  17.932  0.00  0.00    -0.356 OA
BRANCH   8   9
HETATM    9  C   UNK     0     -47.180  -3.410  16.893  0.00  0.00     0.291 C 
HETATM   10  O   UNK     0     -45.854  -3.100  17.334  0.00  0.00    -0.351 OA
HETATM   11  C   UNK     0     -45.673  -1.737  17.734  0.00  0.00     0.152 C 
HETATM   12  C   UNK     0     -45.990  -0.777  16.579  0.00  0.00     0.178 C 
HETATM   13  C   UNK     0     -44.228  -1.602  18.211  0.00  0.00     0.042 C 
HETATM   14  C   UNK     0     -47.393  -1.051  16.039  0.00  0.00     0.183 C 
HETATM   15  C   UNK     0     -47.572  -2.533  15.706  0.00  0.00     0.204 C 
BRANCH  12  16
HETATM   16  O   UNK     0     -45.945   0.573  17.034  0.00  0.00    -0.390 OA
HETATM   17  H   UNK     0     -45.648   0.570  17.960  0.00  0.00     0.210 HD
ENDBRANCH  12  16
BRANCH  14  18
HETATM   18  O   UNK     0     -47.609  -0.262  14.871  0.00  0.00    -0.390 OA
HETATM   19  H   UNK     0     -48.288   0.401  15.086  0.00  0.00     0.210 HD
ENDBRANCH  14  18
BRANCH  15  20
HETATM   20  O   UNK     0     -46.733  -2.890  14.606  0.00  0.00    -0.388 OA
HETATM   21  H   UNK     0     -46.602  -2.093  14.065  0.00  0.00     0.210 HD
ENDBRANCH  15  20
ENDBRANCH   8   9
ENDBRANCH   7   8
ENDBRANCH   2   7
BRANCH   6  22
HETATM   22  O   UNK     0     -47.566  -7.277  20.409  0.00  0.00    -0.358 OA
BRANCH  22  23
HETATM   23  C   UNK     0     -48.288  -6.611  21.433  0.00  0.00     0.175 C 
BRANCH  23  24
HETATM   24  C   UNK     0     -48.584  -7.583  22.569  0.00  0.00     0.065 C 
BRANCH  24  25
HETATM   25  C   UNK     0     -49.913  -7.307  23.230  0.00  0.00    -0.053 A 
HETATM   26  C   UNK     0     -51.060  -7.968  22.793  0.00  0.00     0.046 A 
HETATM   27  C   UNK     0     -52.287  -7.713  23.405  0.00  0.00     0.099 A 
HETATM   28  C   UNK     0     -52.367  -6.797  24.454  0.00  0.00     0.098 A 
HETATM   29  C   UNK     0     -51.219  -6.136  24.890  0.00  0.00     0.040 A 
HETATM   30  C   UNK     0     -49.992  -6.390  24.279  0.00  0.00     0.010 A 
BRANCH  27  31
HETATM   31  O   UNK     0     -53.401  -8.367  22.971  0.00  0.00    -0.358 OA
HETATM   32  H   UNK     0     -53.387  -9.277  23.313  0.00  0.00     0.217 HD
ENDBRANCH  27  31
BRANCH  28  33
HETATM   33  O   UNK     0     -53.560  -6.540  25.060  0.00  0.00    -0.358 OA
HETATM   34  H   UNK     0     -54.274  -6.629  24.404  0.00  0.00     0.217 HD
ENDBRANCH  28  33
ENDBRANCH  24  25
ENDBRANCH  23  24
ENDBRANCH  22  23
ENDBRANCH   6  22
BRANCH   3  35
HETATM   35  O   UNK     0     -50.985  -6.011  16.268  0.00  0.00    -0.390 OA
HETATM   36  H   UNK     0     -50.251  -6.032  15.631  0.00  0.00     0.210 HD
ENDBRANCH   3  35
BRANCH   5  37
HETATM   37  O   UNK     0     -48.990  -9.336  19.089  0.00  0.00    -0.388 OA
HETATM   38  H   UNK     0     -48.347  -9.464  18.371  0.00  0.00     0.210 HD
ENDBRANCH   5  37
BRANCH   4  39
HETATM   39  O   UNK     0     -51.494  -8.349  17.890  0.00  0.00    -0.390 OA
HETATM   40  H   UNK     0     -52.095  -7.743  18.357  0.00  0.00     0.210 HD
ENDBRANCH   4  39
TORSDOF 15
ENDMDL
MODEL 6
REMARK VINA RESULT:      -7.3      2.258      3.735
REMARK  15 active torsions:
REMARK  status: ('A' for Active; 'I' for Inactive)
REMARK    1  A    between atoms: O_2  and  C_18 
REMARK    2  A    between atoms: O_2  and  C_22 
REMARK    3  A    between atoms: O_4  and  C_14 
REMARK    4  A    between atoms: O_5  and  C_21 
REMARK    5  A    between atoms: O_5  and  C_25 
REMARK    6  A    between atoms: O_6  and  C_15 
REMARK    7  A    between atoms: O_7  and  C_16 
REMARK    8  A    between atoms: O_8  and  C_17 
REMARK    9  A    between atoms: O_9  and  C_19 
REMARK   10  A    between atoms: O_10  and  C_20 
REMARK   11  A    between atoms: O_11  and  C_30 
REMARK   12  A    between atoms: O_12  and  C_32 
REMARK   13  A    between atoms: C_13  and  C_22 
REMARK   14  A    between atoms: C_25  and  C_26 
REMARK   15  A    between atoms: C_26  and  C_27 
ROOT
HETATM    1  O   UNK     0     -49.581  -2.623  17.188  0.00  0.00    -0.348 OA
HETATM    2  C   UNK     0     -48.597  -1.733  16.656  0.00  0.00     0.180 C 
HETATM    3  C   UNK     0     -48.993  -1.304  15.241  0.00  0.00     0.180 C 
HETATM    4  C   UNK     0     -49.204  -2.522  14.342  0.00  0.00     0.183 C 
HETATM    5  C   UNK     0     -50.118  -3.549  15.009  0.00  0.00     0.204 C 
HETATM    6  C   UNK     0     -49.680  -3.836  16.445  0.00  0.00     0.291 C 
ENDROOT
BRANCH   2   7
HETATM    7  C   UNK     0     -48.495  -0.541  17.601  0.00  0.00     0.205 C 
BRANCH   7   8
HETATM    8  O   UNK     0     -47.274  -0.625  18.321  0.00  0.00    -0.356 OA
BRANCH   8   9
HETATM    9  C   UNK     0     -46.333   0.341  17.864  0.00  0.00     0.291 C 
HETATM   10  O   UNK     0     -45.778   0.002  16.589  0.00  0.00    -0.351 OA
HETATM   11  C   UNK     0     -45.001  -1.200  16.589  0.00  0.00     0.152 C 
HETATM   12  C   UNK     0     -43.823  -1.096  17.569  0.00  0.00     0.178 C 
HETATM   13  C   UNK     0     -44.532  -1.427  15.154  0.00  0.00     0.042 C 
HETATM   14  C   UNK     0     -44.331  -0.722  18.961  0.00  0.00     0.183 C 
HETATM   15  C   UNK     0     -45.228   0.516  18.904  0.00  0.00     0.204 C 
BRANCH  12  16
HETATM   16  O   UNK     0     -43.148  -2.347  17.663  0.00  0.00    -0.390 OA
HETATM   17  H   UNK     0     -42.906  -2.628  16.764  0.00  0.00     0.210 HD
ENDBRANCH  12  16
BRANCH  14  18
HETATM   18  O   UNK     0     -43.217  -0.476  19.817  0.00  0.00    -0.390 OA
HETATM   19  H   UNK     0     -42.410  -0.587  19.286  0.00  0.00     0.210 HD
ENDBRANCH  14  18
BRANCH  15  20
HETATM   20  O   UNK     0     -44.456   1.659  18.530  0.00  0.00    -0.388 OA
HETATM   21  H   UNK     0     -44.198   1.548  17.600  0.00  0.00     0.210 HD
ENDBRANCH  15  20
ENDBRANCH   8   9
ENDBRANCH   7   8
ENDBRANCH   2   7
BRANCH   6  22
HETATM   22  O   UNK     0     -50.658  -4.688  17.042  0.00  0.00    -0.358 OA
BRANCH  22  23
HETATM   23  C   UNK     0     -50.062  -5.604  17.946  0.00  0.00     0.175 C 
BRANCH  23  24
HETATM   24  C   UNK     0     -48.861  -6.271  17.284  0.00  0.00     0.065 C 
BRANCH  24  25
HETATM   25  C   UNK     0     -48.383  -7.481  18.049  0.00  0.00    -0.053 A 
HETATM   26  C   UNK     0     -47.123  -7.475  18.647  0.00  0.00     0.046 A 
HETATM   27  C   UNK     0     -46.683  -8.593  19.356  0.00  0.00     0.099 A 
HETATM   28  C   UNK     0     -47.502  -9.717  19.465  0.00  0.00     0.098 A 
HETATM   29  C   UNK     0     -48.761  -9.723  18.867  0.00  0.00     0.040 A 
HETATM   30  C   UNK     0     -49.203  -8.605  18.159  0.00  0.00     0.010 A 
BRANCH  27  31
HETATM   31  O   UNK     0     -45.451  -8.575  19.937  0.00  0.00    -0.358 OA
HETATM   32  H   UNK     0     -44.774  -8.693  19.249  0.00  0.00     0.217 HD
ENDBRANCH  27  31
BRANCH  28  33
HETATM   33  O   UNK     0     -47.082 -10.815  20.154  0.00  0.00    -0.358 OA
HETATM   34  H   UNK     0     -46.606 -10.526  20.952  0.00  0.00     0.217 HD
ENDBRANCH  28  33
ENDBRANCH  24  25
ENDBRANCH  23  24
ENDBRANCH  22  23
ENDBRANCH   6  22
BRANCH   3  35
HETATM   35  O   UNK     0     -47.964  -0.485  14.692  0.00  0.00    -0.390 OA
HETATM   36  H   UNK     0     -48.053   0.405  15.074  0.00  0.00     0.210 HD
ENDBRANCH   3  35
BRANCH   5  37
HETATM   37  O   UNK     0     -50.071  -4.773  14.275  0.00  0.00    -0.388 OA
HETATM   38  H   UNK     0     -50.759  -4.740  13.588  0.00  0.00     0.210 HD
ENDBRANCH   5  37
BRANCH   4  39
HETATM   39  O   UNK     0     -49.800  -2.074  13.123  0.00  0.00    -0.390 OA
HETATM   40  H   UNK     0     -49.929  -2.848  12.548  0.00  0.00     0.210 HD
ENDBRANCH   4  39
TORSDOF 15
ENDMDL
MODEL 7
REMARK VINA RESULT:      -7.3      3.220      5.058
REMARK  15 active torsions:
REMARK  status: ('A' for Active; 'I' for Inactive)
REMARK    1  A    between atoms: O_2  and  C_18 
REMARK    2  A    between atoms: O_2  and  C_22 
REMARK    3  A    between atoms: O_4  and  C_14 
REMARK    4  A    between atoms: O_5  and  C_21 
REMARK    5  A    between atoms: O_5  and  C_25 
REMARK    6  A    between atoms: O_6  and  C_15 
REMARK    7  A    between atoms: O_7  and  C_16 
REMARK    8  A    between atoms: O_8  and  C_17 
REMARK    9  A    between atoms: O_9  and  C_19 
REMARK   10  A    between atoms: O_10  and  C_20 
REMARK   11  A    between atoms: O_11  and  C_30 
REMARK   12  A    between atoms: O_12  and  C_32 
REMARK   13  A    between atoms: C_13  and  C_22 
REMARK   14  A    between atoms: C_25  and  C_26 
REMARK   15  A    between atoms: C_26  and  C_27 
ROOT
HETATM    1  O   UNK     0     -49.151  -2.583  17.125  0.00  0.00    -0.348 OA
HETATM    2  C   UNK     0     -48.395  -1.569  16.461  0.00  0.00     0.180 C 
HETATM    3  C   UNK     0     -49.094  -1.166  15.160  0.00  0.00     0.180 C 
HETATM    4  C   UNK     0     -49.321  -2.384  14.265  0.00  0.00     0.183 C 
HETATM    5  C   UNK     0     -49.968  -3.529  15.044  0.00  0.00     0.204 C 
HETATM    6  C   UNK     0     -49.241  -3.785  16.364  0.00  0.00     0.291 C 
ENDROOT
BRANCH   2   7
HETATM    7  C   UNK     0     -48.263  -0.390  17.420  0.00  0.00     0.205 C 
BRANCH   7   8
HETATM    8  O   UNK     0     -47.165  -0.624  18.290  0.00  0.00    -0.356 OA
BRANCH   8   9
HETATM    9  C   UNK     0     -46.100   0.287  18.040  0.00  0.00     0.291 C 
HETATM   10  O   UNK     0     -45.482   0.069  16.767  0.00  0.00    -0.351 OA
HETATM   11  C   UNK     0     -44.831  -1.200  16.641  0.00  0.00     0.152 C 
HETATM   12  C   UNK     0     -43.730  -1.362  17.698  0.00  0.00     0.178 C 
HETATM   13  C   UNK     0     -44.276  -1.276  15.220  0.00  0.00     0.042 C 
HETATM   14  C   UNK     0     -44.306  -1.131  19.095  0.00  0.00     0.183 C 
HETATM   15  C   UNK     0     -45.067   0.194  19.162  0.00  0.00     0.204 C 
BRANCH  12  16
HETATM   16  O   UNK     0     -43.192  -2.681  17.652  0.00  0.00    -0.390 OA
HETATM   17  H   UNK     0     -43.616  -3.154  16.916  0.00  0.00     0.210 HD
ENDBRANCH  12  16
BRANCH  14  18
HETATM   18  O   UNK     0     -43.244  -1.129  20.046  0.00  0.00    -0.390 OA
HETATM   19  H   UNK     0     -43.127  -0.213  20.353  0.00  0.00     0.210 HD
ENDBRANCH  14  18
BRANCH  15  20
HETATM   20  O   UNK     0     -44.159   1.286  19.009  0.00  0.00    -0.388 OA
HETATM   21  H   UNK     0     -43.597   1.314  19.801  0.00  0.00     0.210 HD
ENDBRANCH  15  20
ENDBRANCH   8   9
ENDBRANCH   7   8
ENDBRANCH   2   7
BRANCH   6  22
HETATM   22  O   UNK     0     -49.984  -4.763  17.093  0.00  0.00    -0.358 OA
BRANCH  22  23
HETATM   23  C   UNK     0     -51.289  -4.297  17.398  0.00  0.00     0.175 C 
BRANCH  23  24
HETATM   24  C   UNK     0     -52.119  -5.436  17.979  0.00  0.00     0.065 C 
BRANCH  24  25
HETATM   25  C   UNK     0     -53.121  -5.979  16.989  0.00  0.00    -0.053 A 
HETATM   26  C   UNK     0     -53.318  -7.355  16.879  0.00  0.00     0.046 A 
HETATM   27  C   UNK     0     -54.246  -7.856  15.966  0.00  0.00     0.099 A 
HETATM   28  C   UNK     0     -54.976  -6.980  15.162  0.00  0.00     0.098 A 
HETATM   29  C   UNK     0     -54.779  -5.604  15.272  0.00  0.00     0.040 A 
HETATM   30  C   UNK     0     -53.852  -5.103  16.186  0.00  0.00     0.010 A 
BRANCH  27  31
HETATM   31  O   UNK     0     -54.431  -9.202  15.869  0.00  0.00    -0.358 OA
HETATM   32  H   UNK     0     -54.435  -9.586  16.762  0.00  0.00     0.217 HD
ENDBRANCH  27  31
BRANCH  28  33
HETATM   33  O   UNK     0     -55.885  -7.458  14.266  0.00  0.00    -0.358 OA
HETATM   34  H   UNK     0     -56.559  -7.972  14.743  0.00  0.00     0.217 HD
ENDBRANCH  28  33
ENDBRANCH  24  25
ENDBRANCH  23  24
ENDBRANCH  22  23
ENDBRANCH   6  22
BRANCH   3  35
HETATM   35  O   UNK     0     -48.289  -0.216  14.468  0.00  0.00    -0.390 OA
HETATM   36  H   UNK     0     -48.252  -0.478  13.532  0.00  0.00     0.210 HD
ENDBRANCH   3  35
BRANCH   5  37
HETATM   37  O   UNK     0     -49.913  -4.724  14.265  0.00  0.00    -0.388 OA
HETATM   38  H   UNK     0     -49.259  -4.592  13.557  0.00  0.00     0.210 HD
ENDBRANCH   5  37
BRANCH   4  39
HETATM   39  O   UNK     0     -50.181  -1.992  13.194  0.00  0.00    -0.390 OA
HETATM   40  H   UNK     0     -50.124  -2.667  12.496  0.00  0.00     0.210 HD
ENDBRANCH   4  39
TORSDOF 15
ENDMDL
MODEL 8
REMARK VINA RESULT:      -7.2      2.298      7.847
REMARK  15 active torsions:
REMARK  status: ('A' for Active; 'I' for Inactive)
REMARK    1  A    between atoms: O_2  and  C_18 
REMARK    2  A    between atoms: O_2  and  C_22 
REMARK    3  A    between atoms: O_4  and  C_14 
REMARK    4  A    between atoms: O_5  and  C_21 
REMARK    5  A    between atoms: O_5  and  C_25 
REMARK    6  A    between atoms: O_6  and  C_15 
REMARK    7  A    between atoms: O_7  and  C_16 
REMARK    8  A    between atoms: O_8  and  C_17 
REMARK    9  A    between atoms: O_9  and  C_19 
REMARK   10  A    between atoms: O_10  and  C_20 
REMARK   11  A    between atoms: O_11  and  C_30 
REMARK   12  A    between atoms: O_12  and  C_32 
REMARK   13  A    between atoms: C_13  and  C_22 
REMARK   14  A    between atoms: C_25  and  C_26 
REMARK   15  A    between atoms: C_26  and  C_27 
ROOT
HETATM    1  O   UNK     0     -48.780  -1.816  16.712  0.00  0.00    -0.348 OA
HETATM    2  C   UNK     0     -50.051  -2.439  16.521  0.00  0.00     0.180 C 
HETATM    3  C   UNK     0     -50.022  -3.308  15.261  0.00  0.00     0.180 C 
HETATM    4  C   UNK     0     -49.603  -2.485  14.043  0.00  0.00     0.183 C 
HETATM    5  C   UNK     0     -48.335  -1.680  14.329  0.00  0.00     0.204 C 
HETATM    6  C   UNK     0     -48.443  -0.923  15.652  0.00  0.00     0.291 C 
ENDROOT
BRANCH   2   7
HETATM    7  C   UNK     0     -50.352  -3.262  17.769  0.00  0.00     0.205 C 
BRANCH   7   8
HETATM    8  O   UNK     0     -49.595  -4.464  17.724  0.00  0.00    -0.356 OA
BRANCH   8   9
HETATM    9  C   UNK     0     -49.730  -5.209  18.930  0.00  0.00     0.291 C 
HETATM   10  O   UNK     0     -48.573  -6.001  19.214  0.00  0.00    -0.351 OA
HETATM   11  C   UNK     0     -48.315  -7.029  18.252  0.00  0.00     0.152 C 
HETATM   12  C   UNK     0     -49.500  -8.000  18.150  0.00  0.00     0.178 C 
HETATM   13  C   UNK     0     -47.033  -7.735  18.687  0.00  0.00     0.042 C 
HETATM   14  C   UNK     0     -50.787  -7.228  17.858  0.00  0.00     0.183 C 
HETATM   15  C   UNK     0     -50.979  -6.085  18.857  0.00  0.00     0.204 C 
BRANCH  12  16
HETATM   16  O   UNK     0     -49.289  -8.927  17.090  0.00  0.00    -0.390 OA
HETATM   17  H   UNK     0     -50.113  -8.992  16.577  0.00  0.00     0.210 HD
ENDBRANCH  12  16
BRANCH  14  18
HETATM   18  O   UNK     0     -51.896  -8.122  17.925  0.00  0.00    -0.390 OA
HETATM   19  H   UNK     0     -52.592  -7.770  17.344  0.00  0.00     0.210 HD
ENDBRANCH  14  18
BRANCH  15  20
HETATM   20  O   UNK     0     -51.215  -6.614  20.163  0.00  0.00    -0.388 OA
HETATM   21  H   UNK     0     -50.961  -5.932  20.807  0.00  0.00     0.210 HD
ENDBRANCH  15  20
ENDBRANCH   8   9
ENDBRANCH   7   8
ENDBRANCH   2   7
BRANCH   6  22
HETATM   22  O   UNK     0     -47.178  -0.317  15.916  0.00  0.00    -0.358 OA
BRANCH  22  23
HETATM   23  C   UNK     0     -46.164  -1.293  16.092  0.00  0.00     0.175 C 
BRANCH  23  24
HETATM   24  C   UNK     0     -44.804  -0.611  16.195  0.00  0.00     0.065 C 
BRANCH  24  25
HETATM   25  C   UNK     0     -44.309  -0.529  17.617  0.00  0.00    -0.053 A 
HETATM   26  C   UNK     0     -44.546   0.618  18.374  0.00  0.00     0.046 A 
HETATM   27  C   UNK     0     -44.089   0.692  19.690  0.00  0.00     0.099 A 
HETATM   28  C   UNK     0     -43.394  -0.381  20.249  0.00  0.00     0.098 A 
HETATM   29  C   UNK     0     -43.157  -1.528  19.492  0.00  0.00     0.040 A 
HETATM   30  C   UNK     0     -43.614  -1.603  18.176  0.00  0.00     0.010 A 
BRANCH  27  31
HETATM   31  O   UNK     0     -44.328   1.817  20.420  0.00  0.00    -0.358 OA
HETATM   32  H   UNK     0     -45.268   2.054  20.337  0.00  0.00     0.217 HD
ENDBRANCH  27  31
BRANCH  28  33
HETATM   33  O   UNK     0     -42.943  -0.320  21.533  0.00  0.00    -0.358 OA
HETATM   34  H   UNK     0     -42.766  -1.222  21.850  0.00  0.00     0.217 HD
ENDBRANCH  28  33
ENDBRANCH  24  25
ENDBRANCH  23  24
ENDBRANCH  22  23
ENDBRANCH   6  22
BRANCH   3  35
HETATM   35  O   UNK     0     -51.318  -3.856  15.037  0.00  0.00    -0.390 OA
HETATM   36  H   UNK     0     -51.847  -3.714  15.841  0.00  0.00     0.210 HD
ENDBRANCH   3  35
BRANCH   5  37
HETATM   37  O   UNK     0     -48.133  -0.728  13.285  0.00  0.00    -0.388 OA
HETATM   38  H   UNK     0     -47.349  -0.197  13.509  0.00  0.00     0.210 HD
ENDBRANCH   5  37
BRANCH   4  39
HETATM   39  O   UNK     0     -49.360  -3.387  12.962  0.00  0.00    -0.390 OA
HETATM   40  H   UNK     0     -49.921  -3.121  12.214  0.00  0.00     0.210 HD
ENDBRANCH   4  39
TORSDOF 15
ENDMDL
MODEL 9
REMARK VINA RESULT:      -7.2      2.222      3.468
REMARK  15 active torsions:
REMARK  status: ('A' for Active; 'I' for Inactive)
REMARK    1  A    between atoms: O_2  and  C_18 
REMARK    2  A    between atoms: O_2  and  C_22 
REMARK    3  A    between atoms: O_4  and  C_14 
REMARK    4  A    between atoms: O_5  and  C_21 
REMARK    5  A    between atoms: O_5  and  C_25 
REMARK    6  A    between atoms: O_6  and  C_15 
REMARK    7  A    between atoms: O_7  and  C_16 
REMARK    8  A    between atoms: O_8  and  C_17 
REMARK    9  A    between atoms: O_9  and  C_19 
REMARK   10  A    between atoms: O_10  and  C_20 
REMARK   11  A    between atoms: O_11  and  C_30 
REMARK   12  A    between atoms: O_12  and  C_32 
REMARK   13  A    between atoms: C_13  and  C_22 
REMARK   14  A    between atoms: C_25  and  C_26 
REMARK   15  A    between atoms: C_26  and  C_27 
ROOT
HETATM    1  O   UNK     0     -49.770  -5.741  17.341  0.00  0.00    -0.348 OA
HETATM    2  C   UNK     0     -51.126  -5.568  16.926  0.00  0.00     0.180 C 
HETATM    3  C   UNK     0     -51.756  -4.394  17.678  0.00  0.00     0.180 C 
HETATM    4  C   UNK     0     -51.645  -4.594  19.190  0.00  0.00     0.183 C 
HETATM    5  C   UNK     0     -50.218  -4.959  19.596  0.00  0.00     0.204 C 
HETATM    6  C   UNK     0     -49.660  -6.081  18.721  0.00  0.00     0.291 C 
ENDROOT
BRANCH   2   7
HETATM    7  C   UNK     0     -51.120  -5.335  15.418  0.00  0.00     0.205 C 
BRANCH   7   8
HETATM    8  O   UNK     0     -51.038  -3.939  15.166  0.00  0.00    -0.356 OA
BRANCH   8   9
HETATM    9  C   UNK     0     -49.741  -3.567  14.714  0.00  0.00     0.291 C 
HETATM   10  O   UNK     0     -48.884  -3.163  15.786  0.00  0.00    -0.351 OA
HETATM   11  C   UNK     0     -49.316  -1.980  16.468  0.00  0.00     0.152 C 
HETATM   12  C   UNK     0     -49.408  -0.789  15.504  0.00  0.00     0.178 C 
HETATM   13  C   UNK     0     -48.319  -1.728  17.596  0.00  0.00     0.042 C 
HETATM   14  C   UNK     0     -50.302  -1.145  14.316  0.00  0.00     0.183 C 
HETATM   15  C   UNK     0     -49.858  -2.458  13.669  0.00  0.00     0.204 C 
BRANCH  12  16
HETATM   16  O   UNK     0     -49.976   0.338  16.165  0.00  0.00    -0.390 OA
HETATM   17  H   UNK     0     -50.637   0.734  15.572  0.00  0.00     0.210 HD
ENDBRANCH  12  16
BRANCH  14  18
HETATM   18  O   UNK     0     -50.248  -0.090  13.357  0.00  0.00    -0.390 OA
HETATM   19  H   UNK     0     -49.346   0.273  13.371  0.00  0.00     0.210 HD
ENDBRANCH  14  18
BRANCH  15  20
HETATM   20  O   UNK     0     -48.574  -2.295  13.064  0.00  0.00    -0.388 OA
HETATM   21  H   UNK     0     -48.237  -1.420  13.321  0.00  0.00     0.210 HD
ENDBRANCH  15  20
ENDBRANCH   8   9
ENDBRANCH   7   8
ENDBRANCH   2   7
BRANCH   6  22
HETATM   22  O   UNK     0     -48.286  -6.265  19.064  0.00  0.00    -0.358 OA
BRANCH  22  23
HETATM   23  C   UNK     0     -47.939  -7.640  19.089  0.00  0.00     0.175 C 
BRANCH  23  24
HETATM   24  C   UNK     0     -49.198  -8.485  19.251  0.00  0.00     0.065 C 
BRANCH  24  25
HETATM   25  C   UNK     0     -48.931  -9.780  19.978  0.00  0.00    -0.053 A 
HETATM   26  C   UNK     0     -48.453 -10.887  19.278  0.00  0.00     0.046 A 
HETATM   27  C   UNK     0     -48.205 -12.084  19.951  0.00  0.00     0.099 A 
HETATM   28  C   UNK     0     -48.435 -12.173  21.324  0.00  0.00     0.098 A 
HETATM   29  C   UNK     0     -48.912 -11.065  22.024  0.00  0.00     0.040 A 
HETATM   30  C   UNK     0     -49.160  -9.868  21.352  0.00  0.00     0.010 A 
BRANCH  27  31
HETATM   31  O   UNK     0     -47.737 -13.158  19.257  0.00  0.00    -0.358 OA
HETATM   32  H   UNK     0     -48.224 -13.230  18.418  0.00  0.00     0.217 HD
ENDBRANCH  27  31
BRANCH  28  33
HETATM   33  O   UNK     0     -48.196 -13.336  21.992  0.00  0.00    -0.358 OA
HETATM   34  H   UNK     0     -49.045 -13.734  22.250  0.00  0.00     0.217 HD
ENDBRANCH  28  33
ENDBRANCH  24  25
ENDBRANCH  23  24
ENDBRANCH  22  23
ENDBRANCH   6  22
BRANCH   3  35
HETATM   35  O   UNK     0     -53.130  -4.285  17.316  0.00  0.00    -0.390 OA
HETATM   36  H   UNK     0     -53.637  -4.079  18.120  0.00  0.00     0.210 HD
ENDBRANCH   3  35
BRANCH   5  37
HETATM   37  O   UNK     0     -50.209  -5.404  20.952  0.00  0.00    -0.388 OA
HETATM   38  H   UNK     0     -50.192  -4.619  21.527  0.00  0.00     0.210 HD
ENDBRANCH   5  37
BRANCH   4  39
HETATM   39  O   UNK     0     -52.024  -3.373  19.827  0.00  0.00    -0.390 OA
HETATM   40  H   UNK     0     -51.384  -2.687  19.571  0.00  0.00     0.210 HD
ENDBRANCH   4  39
TORSDOF 15
ENDMDL
MODEL 10
REMARK VINA RESULT:      -7.2     11.496     14.971
REMARK  15 active torsions:
REMARK  status: ('A' for Active; 'I' for Inactive)
REMARK    1  A    between atoms: O_2  and  C_18 
REMARK    2  A    between atoms: O_2  and  C_22 
REMARK    3  A    between atoms: O_4  and  C_14 
REMARK    4  A    between atoms: O_5  and  C_21 
REMARK    5  A    between atoms: O_5  and  C_25 
REMARK    6  A    between atoms: O_6  and  C_15 
REMARK    7  A    between atoms: O_7  and  C_16 
REMARK    8  A    between atoms: O_8  and  C_17 
REMARK    9  A    between atoms: O_9  and  C_19 
REMARK   10  A    between atoms: O_10  and  C_20 
REMARK   11  A    between atoms: O_11  and  C_30 
REMARK   12  A    between atoms: O_12  and  C_32 
REMARK   13  A    between atoms: C_13  and  C_22 
REMARK   14  A    between atoms: C_25  and  C_26 
REMARK   15  A    between atoms: C_26  and  C_27 
ROOT
HETATM    1  O   UNK     0     -46.533 -17.001  23.000  0.00  0.00    -0.348 OA
HETATM    2  C   UNK     0     -47.156 -17.667  21.901  0.00  0.00     0.180 C 
HETATM    3  C   UNK     0     -46.874 -16.909  20.602  0.00  0.00     0.180 C 
HETATM    4  C   UNK     0     -47.326 -15.452  20.715  0.00  0.00     0.183 C 
HETATM    5  C   UNK     0     -46.796 -14.807  21.995  0.00  0.00     0.204 C 
HETATM    6  C   UNK     0     -47.056 -15.691  23.213  0.00  0.00     0.291 C 
ENDROOT
BRANCH   2   7
HETATM    7  C   UNK     0     -46.608 -19.090  21.855  0.00  0.00     0.205 C 
BRANCH   7   8
HETATM    8  O   UNK     0     -45.665 -19.189  20.797  0.00  0.00    -0.356 OA
BRANCH   8   9
HETATM    9  C   UNK     0     -45.545 -20.528  20.331  0.00  0.00     0.291 C 
HETATM   10  O   UNK     0     -44.185 -20.975  20.298  0.00  0.00    -0.351 OA
HETATM   11  C   UNK     0     -43.354 -20.259  19.378  0.00  0.00     0.152 C 
HETATM   12  C   UNK     0     -43.891 -20.376  17.945  0.00  0.00     0.178 C 
HETATM   13  C   UNK     0     -41.946 -20.834  19.511  0.00  0.00     0.042 C 
HETATM   14  C   UNK     0     -45.351 -19.927  17.893  0.00  0.00     0.183 C 
HETATM   15  C   UNK     0     -46.186 -20.653  18.950  0.00  0.00     0.204 C 
BRANCH  12  16
HETATM   16  O   UNK     0     -43.139 -19.543  17.067  0.00  0.00    -0.390 OA
HETATM   17  H   UNK     0     -43.007 -18.684  17.505  0.00  0.00     0.210 HD
ENDBRANCH  12  16
BRANCH  14  18
HETATM   18  O   UNK     0     -45.877 -20.190  16.594  0.00  0.00    -0.390 OA
HETATM   19  H   UNK     0     -45.265 -19.803  15.945  0.00  0.00     0.210 HD
ENDBRANCH  14  18
BRANCH  15  20
HETATM   20  O   UNK     0     -46.270 -22.044  18.633  0.00  0.00    -0.388 OA
HETATM   21  H   UNK     0     -46.565 -22.118  17.710  0.00  0.00     0.210 HD
ENDBRANCH  15  20
ENDBRANCH   8   9
ENDBRANCH   7   8
ENDBRANCH   2   7
BRANCH   6  22
HETATM   22  O   UNK     0     -46.411 -15.092  24.337  0.00  0.00    -0.358 OA
BRANCH  22  23
HETATM   23  C   UNK     0     -45.518 -15.999  24.964  0.00  0.00     0.175 C 
BRANCH  23  24
HETATM   24  C   UNK     0     -45.727 -15.966  26.474  0.00  0.00     0.065 C 
BRANCH  24  25
HETATM   25  C   UNK     0     -47.187 -16.019  26.853  0.00  0.00    -0.053 A 
HETATM   26  C   UNK     0     -47.837 -14.865  27.289  0.00  0.00     0.046 A 
HETATM   27  C   UNK     0     -49.187 -14.914  27.638  0.00  0.00     0.099 A 
HETATM   28  C   UNK     0     -49.886 -16.118  27.551  0.00  0.00     0.098 A 
HETATM   29  C   UNK     0     -49.235 -17.272  27.116  0.00  0.00     0.040 A 
HETATM   30  C   UNK     0     -47.886 -17.223  26.766  0.00  0.00     0.010 A 
BRANCH  27  31
HETATM   31  O   UNK     0     -49.811 -13.780  28.060  0.00  0.00    -0.358 OA
HETATM   32  H   UNK     0     -49.941 -13.188  27.300  0.00  0.00     0.217 HD
ENDBRANCH  27  31
BRANCH  28  33
HETATM   33  O   UNK     0     -51.205 -16.179  27.889  0.00  0.00    -0.358 OA
HETATM   34  H   UNK     0     -51.691 -15.504  27.386  0.00  0.00     0.217 HD
ENDBRANCH  28  33
ENDBRANCH  24  25
ENDBRANCH  23  24
ENDBRANCH  22  23
ENDBRANCH   6  22
BRANCH   3  35
HETATM   35  O   UNK     0     -47.569 -17.537  19.529  0.00  0.00    -0.390 OA
HETATM   36  H   UNK     0     -48.523 -17.457  19.701  0.00  0.00     0.210 HD
ENDBRANCH   3  35
BRANCH   5  37
HETATM   37  O   UNK     0     -47.454 -13.556  22.202  0.00  0.00    -0.388 OA
HETATM   38  H   UNK     0     -46.773 -12.863  22.254  0.00  0.00     0.210 HD
ENDBRANCH   5  37
BRANCH   4  39
HETATM   39  O   UNK     0     -46.821 -14.745  19.580  0.00  0.00    -0.390 OA
HETATM   40  H   UNK     0     -47.507 -14.122  19.283  0.00  0.00     0.210 HD
ENDBRANCH   4  39
TORSDOF 15
ENDMDL
