MODEL 1
REMARK VINA RESULT:      -8.3      0.000      0.000
REMARK  10 active torsions:
REMARK  status: ('A' for Active; 'I' for Inactive)
REMARK    1  A    between atoms: O_2  and  C_15 
REMARK    2  A    between atoms: O_2  and  C_18 
REMARK    3  A    between atoms: O_3  and  C_12 
REMARK    4  A    between atoms: O_4  and  C_13 
REMARK    5  A    between atoms: O_5  and  C_14 
REMARK    6  A    between atoms: O_6  and  C_17 
REMARK    7  A    between atoms: O_9  and  C_20 
REMARK    8  A    between atoms: O_10  and  C_23 
REMARK    9  A    between atoms: C_16  and  C_17 
REMARK   10  A    between atoms: C_25  and  C_27 
ROOT
HETATM    1  O   UNK     0     -48.500  -8.449  18.498  0.00  0.00    -0.340 OA
HETATM    2  C   UNK     0     -50.198  -8.562  20.814  0.00  0.00     0.183 C 
HETATM    3  C   UNK     0     -50.692  -8.050  19.460  0.00  0.00     0.205 C 
HETATM    4  C   UNK     0     -48.974  -9.463  20.657  0.00  0.00     0.189 C 
HETATM    5  C   UNK     0     -49.540  -7.483  18.630  0.00  0.00     0.299 C 
HETATM    6  C   UNK     0     -47.934  -8.809  19.754  0.00  0.00     0.253 C 
ENDROOT
BRANCH   5   7
HETATM    7  O   UNK     0     -50.051  -7.147  17.339  0.00  0.00    -0.315 OA
BRANCH   7   8
HETATM    8  C   UNK     0     -49.859  -5.863  16.922  0.00  0.00     0.110 A 
HETATM    9  C   UNK     0     -48.718  -5.173  17.335  0.00  0.00     0.078 A 
HETATM   10  C   UNK     0     -48.511  -3.859  16.913  0.00  0.00     0.096 A 
HETATM   11  O   UNK     0     -47.373  -3.232  17.352  0.00  0.00    -0.309 OA
HETATM   12  C   UNK     0     -49.443  -3.240  16.082  0.00  0.00     0.084 A 
HETATM   13  C   UNK     0     -47.138  -1.929  16.944  0.00  0.00     0.090 A 
HETATM   14  C   UNK     0     -47.960  -1.225  16.151  0.00  0.00     0.094 A 
HETATM   15  C   UNK     0     -49.201  -1.853  15.654  0.00  0.00     0.190 A 
HETATM   16  O   UNK     0     -49.977  -1.247  14.928  0.00  0.00    -0.287 OA
HETATM   17  C   UNK     0     -50.586  -3.927  15.666  0.00  0.00     0.118 A 
HETATM   18  C   UNK     0     -50.790  -5.240  16.089  0.00  0.00     0.134 A 
BRANCH  13  19
HETATM   19  C   UNK     0     -45.888  -1.349  17.477  0.00  0.00    -0.002 A 
HETATM   20  C   UNK     0     -45.809   0.020  17.746  0.00  0.00     0.014 A 
HETATM   21  C   UNK     0     -44.629   0.567  18.251  0.00  0.00     0.001 A 
HETATM   22  C   UNK     0     -43.526  -0.252  18.489  0.00  0.00     0.000 A 
HETATM   23  C   UNK     0     -43.601  -1.619  18.222  0.00  0.00     0.001 A 
HETATM   24  C   UNK     0     -44.781  -2.166  17.717  0.00  0.00     0.014 A 
ENDBRANCH  13  19
BRANCH  17  25
HETATM   25  O   UNK     0     -51.518  -3.353  14.854  0.00  0.00    -0.357 OA
HETATM   26  H   UNK     0     -52.332  -3.881  14.836  0.00  0.00     0.217 HD
ENDBRANCH  17  25
BRANCH  18  27
HETATM   27  O   UNK     0     -51.903  -5.922  15.690  0.00  0.00    -0.356 OA
HETATM   28  H   UNK     0     -51.620  -6.745  15.255  0.00  0.00     0.218 HD
ENDBRANCH  18  27
ENDBRANCH   7   8
ENDBRANCH   5   7
BRANCH   6  29
HETATM   29  C   UNK     0     -46.862  -9.781  19.381  0.00  0.00     0.172 C 
HETATM   30  O   UNK     0     -46.842 -10.960  19.700  0.00  0.00    -0.648 OA
BRANCH  29  31
HETATM   31  O   UNK     0     -45.904  -9.175  18.638  0.00  0.00    -0.774 OA
HETATM   32  H   UNK     0     -45.486  -9.794  18.003  0.00  0.00     0.167 HD
ENDBRANCH  29  31
ENDBRANCH   6  29
BRANCH   3  33
HETATM   33  O   UNK     0     -51.648  -7.010  19.667  0.00  0.00    -0.388 OA
HETATM   34  H   UNK     0     -51.235  -6.172  19.400  0.00  0.00     0.210 HD
ENDBRANCH   3  33
BRANCH   4  35
HETATM   35  O   UNK     0     -48.390  -9.686  21.939  0.00  0.00    -0.390 OA
HETATM   36  H   UNK     0     -48.200 -10.636  22.022  0.00  0.00     0.210 HD
ENDBRANCH   4  35
BRANCH   2  37
HETATM   37  O   UNK     0     -51.231  -9.325  21.440  0.00  0.00    -0.390 OA
HETATM   38  H   UNK     0     -51.412  -8.921  22.305  0.00  0.00     0.210 HD
ENDBRANCH   2  37
TORSDOF 10
ENDMDL
MODEL 2
REMARK VINA RESULT:      -8.3      1.419      1.888
REMARK  10 active torsions:
REMARK  status: ('A' for Active; 'I' for Inactive)
REMARK    1  A    between atoms: O_2  and  C_15 
REMARK    2  A    between atoms: O_2  and  C_18 
REMARK    3  A    between atoms: O_3  and  C_12 
REMARK    4  A    between atoms: O_4  and  C_13 
REMARK    5  A    between atoms: O_5  and  C_14 
REMARK    6  A    between atoms: O_6  and  C_17 
REMARK    7  A    between atoms: O_9  and  C_20 
REMARK    8  A    between atoms: O_10  and  C_23 
REMARK    9  A    between atoms: C_16  and  C_17 
REMARK   10  A    between atoms: C_25  and  C_27 
ROOT
HETATM    1  O   UNK     0     -49.860  -8.886  19.066  0.00  0.00    -0.340 OA
HETATM    2  C   UNK     0     -50.729  -8.205  21.718  0.00  0.00     0.183 C 
HETATM    3  C   UNK     0     -51.566  -7.893  20.477  0.00  0.00     0.205 C 
HETATM    4  C   UNK     0     -49.734  -9.334  21.452  0.00  0.00     0.189 C 
HETATM    5  C   UNK     0     -50.681  -7.734  19.240  0.00  0.00     0.299 C 
HETATM    6  C   UNK     0     -48.968  -9.085  20.157  0.00  0.00     0.253 C 
ENDROOT
BRANCH   5   7
HETATM    7  O   UNK     0     -51.535  -7.575  18.106  0.00  0.00    -0.315 OA
BRANCH   7   8
HETATM    8  C   UNK     0     -51.354  -6.449  17.358  0.00  0.00     0.110 A 
HETATM    9  C   UNK     0     -50.129  -5.783  17.412  0.00  0.00     0.078 A 
HETATM   10  C   UNK     0     -49.933  -4.629  16.650  0.00  0.00     0.096 A 
HETATM   11  O   UNK     0     -48.710  -4.017  16.745  0.00  0.00    -0.309 OA
HETATM   12  C   UNK     0     -50.960  -4.147  15.841  0.00  0.00     0.084 A 
HETATM   13  C   UNK     0     -48.484  -2.873  15.994  0.00  0.00     0.090 A 
HETATM   14  C   UNK     0     -49.393  -2.310  15.183  0.00  0.00     0.094 A 
HETATM   15  C   UNK     0     -50.727  -2.929  15.050  0.00  0.00     0.190 A 
HETATM   16  O   UNK     0     -51.584  -2.448  14.320  0.00  0.00    -0.287 OA
HETATM   17  C   UNK     0     -52.187  -4.812  15.784  0.00  0.00     0.118 A 
HETATM   18  C   UNK     0     -52.380  -5.965  16.546  0.00  0.00     0.134 A 
BRANCH  13  19
HETATM   19  C   UNK     0     -47.137  -2.294  16.174  0.00  0.00    -0.002 A 
HETATM   20  C   UNK     0     -46.724  -1.220  15.380  0.00  0.00     0.014 A 
HETATM   21  C   UNK     0     -45.452  -0.673  15.551  0.00  0.00     0.001 A 
HETATM   22  C   UNK     0     -44.591  -1.195  16.515  0.00  0.00     0.000 A 
HETATM   23  C   UNK     0     -45.000  -2.267  17.309  0.00  0.00     0.001 A 
HETATM   24  C   UNK     0     -46.272  -2.814  17.139  0.00  0.00     0.014 A 
ENDBRANCH  13  19
BRANCH  17  25
HETATM   25  O   UNK     0     -53.213  -4.370  15.003  0.00  0.00    -0.357 OA
HETATM   26  H   UNK     0     -53.764  -3.734  15.485  0.00  0.00     0.217 HD
ENDBRANCH  17  25
BRANCH  18  27
HETATM   27  O   UNK     0     -53.575  -6.623  16.500  0.00  0.00    -0.356 OA
HETATM   28  H   UNK     0     -54.255  -6.004  16.182  0.00  0.00     0.218 HD
ENDBRANCH  18  27
ENDBRANCH   7   8
ENDBRANCH   5   7
BRANCH   6  29
HETATM   29  C   UNK     0     -48.194 -10.297  19.752  0.00  0.00     0.172 C 
HETATM   30  O   UNK     0     -47.099 -10.281  19.209  0.00  0.00    -0.648 OA
BRANCH  29  31
HETATM   31  O   UNK     0     -48.874 -11.426  20.066  0.00  0.00    -0.774 OA
HETATM   32  H   UNK     0     -49.402 -11.759  19.309  0.00  0.00     0.167 HD
ENDBRANCH  29  31
ENDBRANCH   6  29
BRANCH   3  33
HETATM   33  O   UNK     0     -52.276  -6.671  20.679  0.00  0.00    -0.388 OA
HETATM   34  H   UNK     0     -53.157  -6.773  20.281  0.00  0.00     0.210 HD
ENDBRANCH   3  33
BRANCH   4  35
HETATM   35  O   UNK     0     -48.802  -9.399  22.529  0.00  0.00    -0.390 OA
HETATM   36  H   UNK     0     -49.068 -10.129  23.114  0.00  0.00     0.210 HD
ENDBRANCH   4  35
BRANCH   2  37
HETATM   37  O   UNK     0     -51.590  -8.616  22.782  0.00  0.00    -0.390 OA
HETATM   38  H   UNK     0     -51.201  -9.409  23.186  0.00  0.00     0.210 HD
ENDBRANCH   2  37
TORSDOF 10
ENDMDL
MODEL 3
REMARK VINA RESULT:      -8.2      7.509     13.519
REMARK  10 active torsions:
REMARK  status: ('A' for Active; 'I' for Inactive)
REMARK    1  A    between atoms: O_2  and  C_15 
REMARK    2  A    between atoms: O_2  and  C_18 
REMARK    3  A    between atoms: O_3  and  C_12 
REMARK    4  A    between atoms: O_4  and  C_13 
REMARK    5  A    between atoms: O_5  and  C_14 
REMARK    6  A    between atoms: O_6  and  C_17 
REMARK    7  A    between atoms: O_9  and  C_20 
REMARK    8  A    between atoms: O_10  and  C_23 
REMARK    9  A    between atoms: C_16  and  C_17 
REMARK   10  A    between atoms: C_25  and  C_27 
ROOT
HETATM    1  O   UNK     0     -48.121 -12.900  21.232  0.00  0.00    -0.340 OA
HETATM    2  C   UNK     0     -45.821 -11.933  19.806  0.00  0.00     0.183 C 
HETATM    3  C   UNK     0     -46.239 -13.404  19.785  0.00  0.00     0.205 C 
HETATM    4  C   UNK     0     -46.994 -11.025  20.172  0.00  0.00     0.189 C 
HETATM    5  C   UNK     0     -47.012 -13.777  21.051  0.00  0.00     0.299 C 
HETATM    6  C   UNK     0     -47.717 -11.546  21.409  0.00  0.00     0.253 C 
ENDROOT
BRANCH   5   7
HETATM    7  O   UNK     0     -47.478 -15.119  20.903  0.00  0.00    -0.315 OA
BRANCH   7   8
HETATM    8  C   UNK     0     -47.525 -15.877  22.035  0.00  0.00     0.110 A 
HETATM    9  C   UNK     0     -47.580 -15.247  23.278  0.00  0.00     0.078 A 
HETATM   10  C   UNK     0     -47.630 -16.014  24.444  0.00  0.00     0.096 A 
HETATM   11  O   UNK     0     -47.681 -15.338  25.636  0.00  0.00    -0.309 OA
HETATM   12  C   UNK     0     -47.623 -17.405  24.361  0.00  0.00     0.084 A 
HETATM   13  C   UNK     0     -47.738 -16.074  26.810  0.00  0.00     0.090 A 
HETATM   14  C   UNK     0     -47.733 -17.415  26.862  0.00  0.00     0.094 A 
HETATM   15  C   UNK     0     -47.674 -18.189  25.605  0.00  0.00     0.190 A 
HETATM   16  O   UNK     0     -47.669 -19.413  25.609  0.00  0.00    -0.287 OA
HETATM   17  C   UNK     0     -47.568 -18.040  23.118  0.00  0.00     0.118 A 
HETATM   18  C   UNK     0     -47.519 -17.271  21.956  0.00  0.00     0.134 A 
BRANCH  13  19
HETATM   19  C   UNK     0     -47.787 -15.249  28.034  0.00  0.00    -0.002 A 
HETATM   20  C   UNK     0     -46.928 -15.525  29.101  0.00  0.00     0.014 A 
HETATM   21  C   UNK     0     -46.973 -14.745  30.256  0.00  0.00     0.001 A 
HETATM   22  C   UNK     0     -47.876 -13.686  30.349  0.00  0.00     0.000 A 
HETATM   23  C   UNK     0     -48.735 -13.407  29.285  0.00  0.00     0.001 A 
HETATM   24  C   UNK     0     -48.690 -14.188  28.130  0.00  0.00     0.014 A 
ENDBRANCH  13  19
BRANCH  17  25
HETATM   25  O   UNK     0     -47.561 -19.398  23.000  0.00  0.00    -0.357 OA
HETATM   26  H   UNK     0     -48.047 -19.678  22.210  0.00  0.00     0.217 HD
ENDBRANCH  17  25
BRANCH  18  27
HETATM   27  O   UNK     0     -47.465 -17.879  20.735  0.00  0.00    -0.356 OA
HETATM   28  H   UNK     0     -46.539 -18.111  20.548  0.00  0.00     0.218 HD
ENDBRANCH  18  27
ENDBRANCH   7   8
ENDBRANCH   5   7
BRANCH   6  29
HETATM   29  C   UNK     0     -49.009 -10.827  21.617  0.00  0.00     0.172 C 
HETATM   30  O   UNK     0     -49.679 -10.868  22.638  0.00  0.00    -0.648 OA
BRANCH  29  31
HETATM   31  O   UNK     0     -49.346 -10.118  20.512  0.00  0.00    -0.774 OA
HETATM   32  H   UNK     0     -49.597  -9.195  20.731  0.00  0.00     0.167 HD
ENDBRANCH  29  31
ENDBRANCH   6  29
BRANCH   3  33
HETATM   33  O   UNK     0     -45.074 -14.227  19.713  0.00  0.00    -0.388 OA
HETATM   34  H   UNK     0     -44.299 -13.648  19.796  0.00  0.00     0.210 HD
ENDBRANCH   3  33
BRANCH   4  35
HETATM   35  O   UNK     0     -46.502  -9.715  20.448  0.00  0.00    -0.390 OA
HETATM   36  H   UNK     0     -47.195  -9.227  20.925  0.00  0.00     0.210 HD
ENDBRANCH   4  35
BRANCH   2  37
HETATM   37  O   UNK     0     -45.354 -11.552  18.511  0.00  0.00    -0.390 OA
HETATM   38  H   UNK     0     -46.077 -11.084  18.062  0.00  0.00     0.210 HD
ENDBRANCH   2  37
TORSDOF 10
ENDMDL
MODEL 4
REMARK VINA RESULT:      -8.1      2.365      7.903
REMARK  10 active torsions:
REMARK  status: ('A' for Active; 'I' for Inactive)
REMARK    1  A    between atoms: O_2  and  C_15 
REMARK    2  A    between atoms: O_2  and  C_18 
REMARK    3  A    between atoms: O_3  and  C_12 
REMARK    4  A    between atoms: O_4  and  C_13 
REMARK    5  A    between atoms: O_5  and  C_14 
REMARK    6  A    between atoms: O_6  and  C_17 
REMARK    7  A    between atoms: O_9  and  C_20 
REMARK    8  A    between atoms: O_10  and  C_23 
REMARK    9  A    between atoms: C_16  and  C_17 
REMARK   10  A    between atoms: C_25  and  C_27 
ROOT
HETATM    1  O   UNK     0     -47.936  -1.206  16.830  0.00  0.00    -0.340 OA
HETATM    2  C   UNK     0     -45.203  -1.462  15.981  0.00  0.00     0.183 C 
HETATM    3  C   UNK     0     -46.376  -1.923  15.115  0.00  0.00     0.205 C 
HETATM    4  C   UNK     0     -45.643  -0.419  17.008  0.00  0.00     0.189 C 
HETATM    5  C   UNK     0     -47.586  -2.291  15.974  0.00  0.00     0.299 C 
HETATM    6  C   UNK     0     -46.896  -0.880  17.744  0.00  0.00     0.253 C 
ENDROOT
BRANCH   5   7
HETATM    7  O   UNK     0     -48.675  -2.584  15.098  0.00  0.00    -0.315 OA
BRANCH   7   8
HETATM    8  C   UNK     0     -49.595  -3.487  15.547  0.00  0.00     0.110 A 
HETATM    9  C   UNK     0     -49.193  -4.490  16.429  0.00  0.00     0.078 A 
HETATM   10  C   UNK     0     -50.126  -5.418  16.896  0.00  0.00     0.096 A 
HETATM   11  O   UNK     0     -49.672  -6.381  17.760  0.00  0.00    -0.309 OA
HETATM   12  C   UNK     0     -51.453  -5.340  16.478  0.00  0.00     0.084 A 
HETATM   13  C   UNK     0     -50.578  -7.312  18.245  0.00  0.00     0.090 A 
HETATM   14  C   UNK     0     -51.878  -7.345  17.914  0.00  0.00     0.094 A 
HETATM   15  C   UNK     0     -52.415  -6.332  16.984  0.00  0.00     0.190 A 
HETATM   16  O   UNK     0     -53.595  -6.325  16.658  0.00  0.00    -0.287 OA
HETATM   17  C   UNK     0     -51.859  -4.336  15.595  0.00  0.00     0.118 A 
HETATM   18  C   UNK     0     -50.925  -3.410  15.131  0.00  0.00     0.134 A 
BRANCH  13  19
HETATM   19  C   UNK     0     -49.984  -8.305  19.163  0.00  0.00    -0.002 A 
HETATM   20  C   UNK     0     -50.368  -8.336  20.507  0.00  0.00     0.014 A 
HETATM   21  C   UNK     0     -49.808  -9.275  21.374  0.00  0.00     0.001 A 
HETATM   22  C   UNK     0     -48.863 -10.185  20.901  0.00  0.00     0.000 A 
HETATM   23  C   UNK     0     -48.477 -10.157  19.560  0.00  0.00     0.001 A 
HETATM   24  C   UNK     0     -49.038  -9.218  18.693  0.00  0.00     0.014 A 
ENDBRANCH  13  19
BRANCH  17  25
HETATM   25  O   UNK     0     -53.148  -4.229  15.166  0.00  0.00    -0.357 OA
HETATM   26  H   UNK     0     -53.359  -3.313  14.931  0.00  0.00     0.217 HD
ENDBRANCH  17  25
BRANCH  18  27
HETATM   27  O   UNK     0     -51.309  -2.426  14.268  0.00  0.00    -0.356 OA
HETATM   28  H   UNK     0     -50.566  -1.807  14.156  0.00  0.00     0.218 HD
ENDBRANCH  18  27
ENDBRANCH   7   8
ENDBRANCH   5   7
BRANCH   6  29
HETATM   29  C   UNK     0     -47.482   0.232  18.551  0.00  0.00     0.172 C 
HETATM   30  O   UNK     0     -48.371   0.105  19.380  0.00  0.00    -0.648 OA
BRANCH  29  31
HETATM   31  O   UNK     0     -46.896   1.413  18.236  0.00  0.00    -0.774 OA
HETATM   32  H   UNK     0     -45.922   1.328  18.152  0.00  0.00     0.167 HD
ENDBRANCH  29  31
ENDBRANCH   6  29
BRANCH   3  33
HETATM   33  O   UNK     0     -45.990  -3.077  14.369  0.00  0.00    -0.388 OA
HETATM   34  H   UNK     0     -46.182  -3.858  14.913  0.00  0.00     0.210 HD
ENDBRANCH   3  33
BRANCH   4  35
HETATM   35  O   UNK     0     -44.597  -0.229  17.958  0.00  0.00    -0.390 OA
HETATM   36  H   UNK     0     -43.874   0.250  17.518  0.00  0.00     0.210 HD
ENDBRANCH   4  35
BRANCH   2  37
HETATM   37  O   UNK     0     -44.202  -0.871  15.151  0.00  0.00    -0.390 OA
HETATM   38  H   UNK     0     -44.100   0.055  15.426  0.00  0.00     0.210 HD
ENDBRANCH   2  37
TORSDOF 10
ENDMDL
MODEL 5
REMARK VINA RESULT:      -8.1      3.196      8.043
REMARK  10 active torsions:
REMARK  status: ('A' for Active; 'I' for Inactive)
REMARK    1  A    between atoms: O_2  and  C_15 
REMARK    2  A    between atoms: O_2  and  C_18 
REMARK    3  A    between atoms: O_3  and  C_12 
REMARK    4  A    between atoms: O_4  and  C_13 
REMARK    5  A    between atoms: O_5  and  C_14 
REMARK    6  A    between atoms: O_6  and  C_17 
REMARK    7  A    between atoms: O_9  and  C_20 
REMARK    8  A    between atoms: O_10  and  C_23 
REMARK    9  A    between atoms: C_16  and  C_17 
REMARK   10  A    between atoms: C_25  and  C_27 
ROOT
HETATM    1  O   UNK     0     -46.916  -0.082  17.216  0.00  0.00    -0.340 OA
HETATM    2  C   UNK     0     -45.107  -1.821  15.816  0.00  0.00     0.183 C 
HETATM    3  C   UNK     0     -46.518  -1.525  15.306  0.00  0.00     0.205 C 
HETATM    4  C   UNK     0     -44.616  -0.729  16.765  0.00  0.00     0.189 C 
HETATM    5  C   UNK     0     -47.456  -1.161  16.457  0.00  0.00     0.299 C 
HETATM    6  C   UNK     0     -45.671  -0.415  17.820  0.00  0.00     0.253 C 
ENDROOT
BRANCH   5   7
HETATM    7  O   UNK     0     -48.712  -0.774  15.897  0.00  0.00    -0.315 OA
BRANCH   7   8
HETATM    8  C   UNK     0     -49.700  -1.715  15.905  0.00  0.00     0.110 A 
HETATM    9  C   UNK     0     -49.784  -2.609  16.972  0.00  0.00     0.078 A 
HETATM   10  C   UNK     0     -50.791  -3.575  16.990  0.00  0.00     0.096 A 
HETATM   11  O   UNK     0     -50.822  -4.426  18.065  0.00  0.00    -0.309 OA
HETATM   12  C   UNK     0     -51.708  -3.643  15.943  0.00  0.00     0.084 A 
HETATM   13  C   UNK     0     -51.817  -5.392  18.113  0.00  0.00     0.090 A 
HETATM   14  C   UNK     0     -52.752  -5.561  17.166  0.00  0.00     0.094 A 
HETATM   15  C   UNK     0     -52.759  -4.672  15.987  0.00  0.00     0.190 A 
HETATM   16  O   UNK     0     -53.595  -4.792  15.102  0.00  0.00    -0.287 OA
HETATM   17  C   UNK     0     -51.628  -2.749  14.873  0.00  0.00     0.118 A 
HETATM   18  C   UNK     0     -50.620  -1.785  14.858  0.00  0.00     0.134 A 
BRANCH  13  19
HETATM   19  C   UNK     0     -51.756  -6.256  19.309  0.00  0.00    -0.002 A 
HETATM   20  C   UNK     0     -51.128  -7.503  19.242  0.00  0.00     0.014 A 
HETATM   21  C   UNK     0     -51.069  -8.319  20.372  0.00  0.00     0.001 A 
HETATM   22  C   UNK     0     -51.637  -7.892  21.572  0.00  0.00     0.000 A 
HETATM   23  C   UNK     0     -52.264  -6.648  21.643  0.00  0.00     0.001 A 
HETATM   24  C   UNK     0     -52.323  -5.832  20.513  0.00  0.00     0.014 A 
ENDBRANCH  13  19
BRANCH  17  25
HETATM   25  O   UNK     0     -52.508  -2.786  13.832  0.00  0.00    -0.357 OA
HETATM   26  H   UNK     0     -52.084  -2.493  13.012  0.00  0.00     0.217 HD
ENDBRANCH  17  25
BRANCH  18  27
HETATM   27  O   UNK     0     -50.531  -0.906  13.817  0.00  0.00    -0.356 OA
HETATM   28  H   UNK     0     -51.324  -0.342  13.822  0.00  0.00     0.218 HD
ENDBRANCH  18  27
ENDBRANCH   7   8
ENDBRANCH   5   7
BRANCH   6  29
HETATM   29  C   UNK     0     -45.316   0.821  18.581  0.00  0.00     0.172 C 
HETATM   30  O   UNK     0     -44.238   1.030  19.117  0.00  0.00    -0.648 OA
BRANCH  29  31
HETATM   31  O   UNK     0     -46.359   1.686  18.601  0.00  0.00    -0.774 OA
HETATM   32  H   UNK     0     -47.221   1.221  18.666  0.00  0.00     0.167 HD
ENDBRANCH  29  31
ENDBRANCH   6  29
BRANCH   3  33
HETATM   33  O   UNK     0     -47.039  -2.684  14.654  0.00  0.00    -0.388 OA
HETATM   34  H   UNK     0     -46.793  -2.630  13.716  0.00  0.00     0.210 HD
ENDBRANCH   3  33
BRANCH   4  35
HETATM   35  O   UNK     0     -43.432  -1.178  17.421  0.00  0.00    -0.390 OA
HETATM   36  H   UNK     0     -42.799  -1.461  16.740  0.00  0.00     0.210 HD
ENDBRANCH   4  35
BRANCH   2  37
HETATM   37  O   UNK     0     -44.205  -1.884  14.710  0.00  0.00    -0.390 OA
HETATM   38  H   UNK     0     -43.440  -1.325  14.922  0.00  0.00     0.210 HD
ENDBRANCH   2  37
TORSDOF 10
ENDMDL
MODEL 6
REMARK VINA RESULT:      -8.0      5.032      8.435
REMARK  10 active torsions:
REMARK  status: ('A' for Active; 'I' for Inactive)
REMARK    1  A    between atoms: O_2  and  C_15 
REMARK    2  A    between atoms: O_2  and  C_18 
REMARK    3  A    between atoms: O_3  and  C_12 
REMARK    4  A    between atoms: O_4  and  C_13 
REMARK    5  A    between atoms: O_5  and  C_14 
REMARK    6  A    between atoms: O_6  and  C_17 
REMARK    7  A    between atoms: O_9  and  C_20 
REMARK    8  A    between atoms: O_10  and  C_23 
REMARK    9  A    between atoms: C_16  and  C_17 
REMARK   10  A    between atoms: C_25  and  C_27 
ROOT
HETATM    1  O   UNK     0     -46.831 -14.072  22.391  0.00  0.00    -0.340 OA
HETATM    2  C   UNK     0     -47.142 -15.682  20.031  0.00  0.00     0.183 C 
HETATM    3  C   UNK     0     -46.346 -14.377  20.033  0.00  0.00     0.205 C 
HETATM    4  C   UNK     0     -47.257 -16.267  21.438  0.00  0.00     0.189 C 
HETATM    5  C   UNK     0     -46.846 -13.425  21.120  0.00  0.00     0.299 C 
HETATM    6  C   UNK     0     -47.698 -15.200  22.433  0.00  0.00     0.253 C 
ENDROOT
BRANCH   5   7
HETATM    7  O   UNK     0     -45.978 -12.291  21.147  0.00  0.00    -0.315 OA
BRANCH   7   8
HETATM    8  C   UNK     0     -46.526 -11.094  20.791  0.00  0.00     0.110 A 
HETATM    9  C   UNK     0     -47.640 -10.620  21.484  0.00  0.00     0.078 A 
HETATM   10  C   UNK     0     -48.209  -9.396  21.129  0.00  0.00     0.096 A 
HETATM   11  O   UNK     0     -49.303  -8.982  21.845  0.00  0.00    -0.309 OA
HETATM   12  C   UNK     0     -47.663  -8.652  20.084  0.00  0.00     0.084 A 
HETATM   13  C   UNK     0     -49.884  -7.766  21.520  0.00  0.00     0.090 A 
HETATM   14  C   UNK     0     -49.456  -6.964  20.533  0.00  0.00     0.094 A 
HETATM   15  C   UNK     0     -48.284  -7.366  19.730  0.00  0.00     0.190 A 
HETATM   16  O   UNK     0     -47.859  -6.663  18.823  0.00  0.00    -0.287 OA
HETATM   17  C   UNK     0     -46.548  -9.123  19.388  0.00  0.00     0.118 A 
HETATM   18  C   UNK     0     -45.982 -10.347  19.746  0.00  0.00     0.134 A 
BRANCH  13  19
HETATM   19  C   UNK     0     -51.056  -7.420  22.350  0.00  0.00    -0.002 A 
HETATM   20  C   UNK     0     -52.345  -7.516  21.818  0.00  0.00     0.014 A 
HETATM   21  C   UNK     0     -53.452  -7.190  22.602  0.00  0.00     0.001 A 
HETATM   22  C   UNK     0     -53.274  -6.768  23.920  0.00  0.00     0.000 A 
HETATM   23  C   UNK     0     -51.989  -6.671  24.454  0.00  0.00     0.001 A 
HETATM   24  C   UNK     0     -50.882  -6.997  23.669  0.00  0.00     0.014 A 
ENDBRANCH  13  19
BRANCH  17  25
HETATM   25  O   UNK     0     -45.987  -8.423  18.362  0.00  0.00    -0.357 OA
HETATM   26  H   UNK     0     -46.331  -8.728  17.508  0.00  0.00     0.217 HD
ENDBRANCH  17  25
BRANCH  18  27
HETATM   27  O   UNK     0     -44.891 -10.819  19.073  0.00  0.00    -0.356 OA
HETATM   28  H   UNK     0     -45.195 -11.228  18.244  0.00  0.00     0.218 HD
ENDBRANCH  18  27
ENDBRANCH   7   8
ENDBRANCH   5   7
BRANCH   6  29
HETATM   29  C   UNK     0     -47.557 -15.688  23.839  0.00  0.00     0.172 C 
HETATM   30  O   UNK     0     -46.680 -15.343  24.617  0.00  0.00    -0.648 OA
BRANCH  29  31
HETATM   31  O   UNK     0     -48.537 -16.575  24.138  0.00  0.00    -0.774 OA
HETATM   32  H   UNK     0     -49.401 -16.132  24.280  0.00  0.00     0.167 HD
ENDBRANCH  29  31
ENDBRANCH   6  29
BRANCH   3  33
HETATM   33  O   UNK     0     -46.495 -13.729  18.769  0.00  0.00    -0.388 OA
HETATM   34  H   UNK     0     -47.383 -13.336  18.742  0.00  0.00     0.210 HD
ENDBRANCH   3  33
BRANCH   4  35
HETATM   35  O   UNK     0     -48.226 -17.314  21.431  0.00  0.00    -0.390 OA
HETATM   36  H   UNK     0     -47.806 -18.115  21.789  0.00  0.00     0.210 HD
ENDBRANCH   4  35
BRANCH   2  37
HETATM   37  O   UNK     0     -46.482 -16.642  19.205  0.00  0.00    -0.390 OA
HETATM   38  H   UNK     0     -46.415 -17.469  19.710  0.00  0.00     0.210 HD
ENDBRANCH   2  37
TORSDOF 10
ENDMDL
MODEL 7
REMARK VINA RESULT:      -7.9      2.136      7.834
REMARK  10 active torsions:
REMARK  status: ('A' for Active; 'I' for Inactive)
REMARK    1  A    between atoms: O_2  and  C_15 
REMARK    2  A    between atoms: O_2  and  C_18 
REMARK    3  A    between atoms: O_3  and  C_12 
REMARK    4  A    between atoms: O_4  and  C_13 
REMARK    5  A    between atoms: O_5  and  C_14 
REMARK    6  A    between atoms: O_6  and  C_17 
REMARK    7  A    between atoms: O_9  and  C_20 
REMARK    8  A    between atoms: O_10  and  C_23 
REMARK    9  A    between atoms: C_16  and  C_17 
REMARK   10  A    between atoms: C_25  and  C_27 
ROOT
HETATM    1  O   UNK     0     -48.094  -1.338  17.418  0.00  0.00    -0.340 OA
HETATM    2  C   UNK     0     -45.734  -1.166  15.787  0.00  0.00     0.183 C 
HETATM    3  C   UNK     0     -47.002  -1.882  15.320  0.00  0.00     0.205 C 
HETATM    4  C   UNK     0     -46.040  -0.151  16.889  0.00  0.00     0.189 C 
HETATM    5  C   UNK     0     -47.815  -2.399  16.507  0.00  0.00     0.299 C 
HETATM    6  C   UNK     0     -46.910  -0.776  17.973  0.00  0.00     0.253 C 
ENDROOT
BRANCH   5   7
HETATM    7  O   UNK     0     -49.038  -2.936  16.003  0.00  0.00    -0.315 OA
BRANCH   7   8
HETATM    8  C   UNK     0     -49.443  -4.129  16.526  0.00  0.00     0.110 A 
HETATM    9  C   UNK     0     -48.489  -5.010  17.038  0.00  0.00     0.078 A 
HETATM   10  C   UNK     0     -48.893  -6.233  17.576  0.00  0.00     0.096 A 
HETATM   11  O   UNK     0     -47.910  -7.057  18.063  0.00  0.00    -0.309 OA
HETATM   12  C   UNK     0     -50.245  -6.571  17.600  0.00  0.00     0.084 A 
HETATM   13  C   UNK     0     -48.282  -8.276  18.610  0.00  0.00     0.090 A 
HETATM   14  C   UNK     0     -49.548  -8.716  18.685  0.00  0.00     0.094 A 
HETATM   15  C   UNK     0     -50.641  -7.867  18.171  0.00  0.00     0.190 A 
HETATM   16  O   UNK     0     -51.809  -8.230  18.222  0.00  0.00    -0.287 OA
HETATM   17  C   UNK     0     -51.202  -5.692  17.089  0.00  0.00     0.118 A 
HETATM   18  C   UNK     0     -50.796  -4.470  16.552  0.00  0.00     0.134 A 
BRANCH  13  19
HETATM   19  C   UNK     0     -47.147  -9.085  19.099  0.00  0.00    -0.002 A 
HETATM   20  C   UNK     0     -45.872  -8.521  19.192  0.00  0.00     0.014 A 
HETATM   21  C   UNK     0     -44.801  -9.285  19.655  0.00  0.00     0.001 A 
HETATM   22  C   UNK     0     -45.001 -10.615  20.028  0.00  0.00     0.000 A 
HETATM   23  C   UNK     0     -46.273 -11.181  19.936  0.00  0.00     0.001 A 
HETATM   24  C   UNK     0     -47.344 -10.416  19.473  0.00  0.00     0.014 A 
ENDBRANCH  13  19
BRANCH  17  25
HETATM   25  O   UNK     0     -52.532  -5.988  17.096  0.00  0.00    -0.357 OA
HETATM   26  H   UNK     0     -52.783  -6.429  17.922  0.00  0.00     0.217 HD
ENDBRANCH  17  25
BRANCH  18  27
HETATM   27  O   UNK     0     -51.722  -3.602  16.049  0.00  0.00    -0.356 OA
HETATM   28  H   UNK     0     -52.598  -4.024  16.101  0.00  0.00     0.218 HD
ENDBRANCH  18  27
ENDBRANCH   7   8
ENDBRANCH   5   7
BRANCH   6  29
HETATM   29  C   UNK     0     -47.431   0.267  18.907  0.00  0.00     0.172 C 
HETATM   30  O   UNK     0     -47.926   0.044  20.002  0.00  0.00    -0.648 OA
BRANCH  29  31
HETATM   31  O   UNK     0     -47.284   1.504  18.374  0.00  0.00    -0.774 OA
HETATM   32  H   UNK     0     -47.569   1.536  17.436  0.00  0.00     0.167 HD
ENDBRANCH  29  31
ENDBRANCH   6  29
BRANCH   3  33
HETATM   33  O   UNK     0     -46.643  -2.997  14.504  0.00  0.00    -0.388 OA
HETATM   34  H   UNK     0     -46.837  -3.805  15.007  0.00  0.00     0.210 HD
ENDBRANCH   3  33
BRANCH   4  35
HETATM   35  O   UNK     0     -44.815   0.282  17.477  0.00  0.00    -0.390 OA
HETATM   36  H   UNK     0     -44.084  -0.147  17.001  0.00  0.00     0.210 HD
ENDBRANCH   4  35
BRANCH   2  37
HETATM   37  O   UNK     0     -45.151  -0.464  14.688  0.00  0.00    -0.390 OA
HETATM   38  H   UNK     0     -44.332  -0.927  14.444  0.00  0.00     0.210 HD
ENDBRANCH   2  37
TORSDOF 10
ENDMDL
MODEL 8
REMARK VINA RESULT:      -7.9      2.559      4.921
REMARK  10 active torsions:
REMARK  status: ('A' for Active; 'I' for Inactive)
REMARK    1  A    between atoms: O_2  and  C_15 
REMARK    2  A    between atoms: O_2  and  C_18 
REMARK    3  A    between atoms: O_3  and  C_12 
REMARK    4  A    between atoms: O_4  and  C_13 
REMARK    5  A    between atoms: O_5  and  C_14 
REMARK    6  A    between atoms: O_6  and  C_17 
REMARK    7  A    between atoms: O_9  and  C_20 
REMARK    8  A    between atoms: O_10  and  C_23 
REMARK    9  A    between atoms: C_16  and  C_17 
REMARK   10  A    between atoms: C_25  and  C_27 
ROOT
HETATM    1  O   UNK     0     -47.462 -10.512  20.341  0.00  0.00    -0.340 OA
HETATM    2  C   UNK     0     -45.027 -11.132  18.948  0.00  0.00     0.183 C 
HETATM    3  C   UNK     0     -45.470  -9.695  19.222  0.00  0.00     0.205 C 
HETATM    4  C   UNK     0     -45.682 -12.114  19.918  0.00  0.00     0.189 C 
HETATM    5  C   UNK     0     -46.991  -9.600  19.352  0.00  0.00     0.299 C 
HETATM    6  C   UNK     0     -47.184 -11.867  20.004  0.00  0.00     0.253 C 
ENDROOT
BRANCH   5   7
HETATM    7  O   UNK     0     -47.318  -8.264  19.734  0.00  0.00    -0.315 OA
BRANCH   7   8
HETATM    8  C   UNK     0     -48.355  -7.676  19.071  0.00  0.00     0.110 A 
HETATM    9  C   UNK     0     -48.121  -6.522  18.323  0.00  0.00     0.078 A 
HETATM   10  C   UNK     0     -49.175  -5.912  17.640  0.00  0.00     0.096 A 
HETATM   11  O   UNK     0     -48.884  -4.780  16.923  0.00  0.00    -0.309 OA
HETATM   12  C   UNK     0     -50.456  -6.457  17.709  0.00  0.00     0.084 A 
HETATM   13  C   UNK     0     -49.910  -4.157  16.228  0.00  0.00     0.090 A 
HETATM   14  C   UNK     0     -51.184  -4.581  16.220  0.00  0.00     0.094 A 
HETATM   15  C   UNK     0     -51.548  -5.793  16.981  0.00  0.00     0.190 A 
HETATM   16  O   UNK     0     -52.697  -6.215  16.998  0.00  0.00    -0.287 OA
HETATM   17  C   UNK     0     -50.694  -7.613  18.456  0.00  0.00     0.118 A 
HETATM   18  C   UNK     0     -49.638  -8.220  19.137  0.00  0.00     0.134 A 
BRANCH  13  19
HETATM   19  C   UNK     0     -49.489  -2.947  15.494  0.00  0.00    -0.002 A 
HETATM   20  C   UNK     0     -48.173  -2.488  15.594  0.00  0.00     0.014 A 
HETATM   21  C   UNK     0     -47.775  -1.345  14.900  0.00  0.00     0.001 A 
HETATM   22  C   UNK     0     -48.691  -0.658  14.103  0.00  0.00     0.000 A 
HETATM   23  C   UNK     0     -50.006  -1.114  14.000  0.00  0.00     0.001 A 
HETATM   24  C   UNK     0     -50.403  -2.257  14.695  0.00  0.00     0.014 A 
ENDBRANCH  13  19
BRANCH  17  25
HETATM   25  O   UNK     0     -51.933  -8.174  18.545  0.00  0.00    -0.357 OA
HETATM   26  H   UNK     0     -52.352  -7.951  19.390  0.00  0.00     0.217 HD
ENDBRANCH  17  25
BRANCH  18  27
HETATM   27  O   UNK     0     -49.858  -9.349  19.872  0.00  0.00    -0.356 OA
HETATM   28  H   UNK     0     -50.487  -9.136  20.583  0.00  0.00     0.218 HD
ENDBRANCH  18  27
ENDBRANCH   7   8
ENDBRANCH   5   7
BRANCH   6  29
HETATM   29  C   UNK     0     -47.789 -12.633  21.136  0.00  0.00     0.172 C 
HETATM   30  O   UNK     0     -47.161 -13.291  21.953  0.00  0.00    -0.648 OA
BRANCH  29  31
HETATM   31  O   UNK     0     -49.138 -12.504  21.134  0.00  0.00    -0.774 OA
HETATM   32  H   UNK     0     -49.432 -11.733  20.604  0.00  0.00     0.167 HD
ENDBRANCH  29  31
ENDBRANCH   6  29
BRANCH   3  33
HETATM   33  O   UNK     0     -45.060  -8.857  18.141  0.00  0.00    -0.388 OA
HETATM   34  H   UNK     0     -44.504  -8.151  18.509  0.00  0.00     0.210 HD
ENDBRANCH   3  33
BRANCH   4  35
HETATM   35  O   UNK     0     -45.463 -13.444  19.456  0.00  0.00    -0.390 OA
HETATM   36  H   UNK     0     -45.776 -14.058  20.143  0.00  0.00     0.210 HD
ENDBRANCH   4  35
BRANCH   2  37
HETATM   37  O   UNK     0     -43.610 -11.232  19.107  0.00  0.00    -0.390 OA
HETATM   38  H   UNK     0     -43.299 -11.948  18.529  0.00  0.00     0.210 HD
ENDBRANCH   2  37
TORSDOF 10
ENDMDL
MODEL 9
REMARK VINA RESULT:      -7.8      1.918      7.751
REMARK  10 active torsions:
REMARK  status: ('A' for Active; 'I' for Inactive)
REMARK    1  A    between atoms: O_2  and  C_15 
REMARK    2  A    between atoms: O_2  and  C_18 
REMARK    3  A    between atoms: O_3  and  C_12 
REMARK    4  A    between atoms: O_4  and  C_13 
REMARK    5  A    between atoms: O_5  and  C_14 
REMARK    6  A    between atoms: O_6  and  C_17 
REMARK    7  A    between atoms: O_9  and  C_20 
REMARK    8  A    between atoms: O_10  and  C_23 
REMARK    9  A    between atoms: C_16  and  C_17 
REMARK   10  A    between atoms: C_25  and  C_27 
ROOT
HETATM    1  O   UNK     0     -47.514  -3.077  17.405  0.00  0.00    -0.340 OA
HETATM    2  C   UNK     0     -47.727  -2.480  14.602  0.00  0.00     0.183 C 
HETATM    3  C   UNK     0     -48.928  -2.924  15.438  0.00  0.00     0.205 C 
HETATM    4  C   UNK     0     -46.623  -1.890  15.480  0.00  0.00     0.189 C 
HETATM    5  C   UNK     0     -48.488  -3.774  16.630  0.00  0.00     0.299 C 
HETATM    6  C   UNK     0     -46.330  -2.803  16.665  0.00  0.00     0.253 C 
ENDROOT
BRANCH   5   7
HETATM    7  O   UNK     0     -49.640  -4.040  17.431  0.00  0.00    -0.315 OA
BRANCH   7   8
HETATM    8  C   UNK     0     -49.621  -5.190  18.165  0.00  0.00     0.110 A 
HETATM    9  C   UNK     0     -48.502  -6.020  18.106  0.00  0.00     0.078 A 
HETATM   10  C   UNK     0     -48.471  -7.198  18.855  0.00  0.00     0.096 A 
HETATM   11  O   UNK     0     -47.345  -7.974  18.755  0.00  0.00    -0.309 OA
HETATM   12  C   UNK     0     -49.558  -7.541  19.657  0.00  0.00     0.084 A 
HETATM   13  C   UNK     0     -47.284  -9.147  19.493  0.00  0.00     0.090 A 
HETATM   14  C   UNK     0     -48.266  -9.587  20.295  0.00  0.00     0.094 A 
HETATM   15  C   UNK     0     -49.501  -8.789  20.433  0.00  0.00     0.190 A 
HETATM   16  O   UNK     0     -50.419  -9.153  21.156  0.00  0.00    -0.287 OA
HETATM   17  C   UNK     0     -50.681  -6.712  19.719  0.00  0.00     0.118 A 
HETATM   18  C   UNK     0     -50.708  -5.535  18.970  0.00  0.00     0.134 A 
BRANCH  13  19
HETATM   19  C   UNK     0     -46.031  -9.907  19.309  0.00  0.00    -0.002 A 
HETATM   20  C   UNK     0     -46.025 -11.296  19.458  0.00  0.00     0.014 A 
HETATM   21  C   UNK     0     -44.842 -12.014  19.283  0.00  0.00     0.001 A 
HETATM   22  C   UNK     0     -43.661 -11.346  18.958  0.00  0.00     0.000 A 
HETATM   23  C   UNK     0     -43.664  -9.959  18.808  0.00  0.00     0.001 A 
HETATM   24  C   UNK     0     -44.847  -9.241  18.983  0.00  0.00     0.014 A 
ENDBRANCH  13  19
BRANCH  17  25
HETATM   25  O   UNK     0     -51.761  -7.015  20.492  0.00  0.00    -0.357 OA
HETATM   26  H   UNK     0     -52.036  -6.247  21.017  0.00  0.00     0.217 HD
ENDBRANCH  17  25
BRANCH  18  27
HETATM   27  O   UNK     0     -51.799  -4.717  19.022  0.00  0.00    -0.356 OA
HETATM   28  H   UNK     0     -52.568  -5.207  18.683  0.00  0.00     0.218 HD
ENDBRANCH  18  27
ENDBRANCH   7   8
ENDBRANCH   5   7
BRANCH   6  29
HETATM   29  C   UNK     0     -45.453  -2.119  17.663  0.00  0.00     0.172 C 
HETATM   30  O   UNK     0     -45.850  -1.498  18.638  0.00  0.00    -0.648 OA
BRANCH  29  31
HETATM   31  O   UNK     0     -44.146  -2.276  17.339  0.00  0.00    -0.774 OA
HETATM   32  H   UNK     0     -43.576  -2.336  18.134  0.00  0.00     0.167 HD
ENDBRANCH  29  31
ENDBRANCH   6  29
BRANCH   3  33
HETATM   33  O   UNK     0     -49.805  -3.707  14.629  0.00  0.00    -0.388 OA
HETATM   34  H   UNK     0     -49.256  -4.242  14.032  0.00  0.00     0.210 HD
ENDBRANCH   3  33
BRANCH   4  35
HETATM   35  O   UNK     0     -45.435  -1.751  14.704  0.00  0.00    -0.390 OA
HETATM   36  H   UNK     0     -45.680  -1.804  13.765  0.00  0.00     0.210 HD
ENDBRANCH   4  35
BRANCH   2  37
HETATM   37  O   UNK     0     -48.139  -1.475  13.674  0.00  0.00    -0.390 OA
HETATM   38  H   UNK     0     -47.890  -1.776  12.784  0.00  0.00     0.210 HD
ENDBRANCH   2  37
TORSDOF 10
ENDMDL
MODEL 10
REMARK VINA RESULT:      -7.7      2.707      7.770
REMARK  10 active torsions:
REMARK  status: ('A' for Active; 'I' for Inactive)
REMARK    1  A    between atoms: O_2  and  C_15 
REMARK    2  A    between atoms: O_2  and  C_18 
REMARK    3  A    between atoms: O_3  and  C_12 
REMARK    4  A    between atoms: O_4  and  C_13 
REMARK    5  A    between atoms: O_5  and  C_14 
REMARK    6  A    between atoms: O_6  and  C_17 
REMARK    7  A    between atoms: O_9  and  C_20 
REMARK    8  A    between atoms: O_10  and  C_23 
REMARK    9  A    between atoms: C_16  and  C_17 
REMARK   10  A    between atoms: C_25  and  C_27 
ROOT
HETATM    1  O   UNK     0     -49.532  -1.248  16.302  0.00  0.00    -0.340 OA
HETATM    2  C   UNK     0     -46.815  -0.335  16.497  0.00  0.00     0.183 C 
HETATM    3  C   UNK     0     -47.592  -0.857  17.706  0.00  0.00     0.205 C 
HETATM    4  C   UNK     0     -47.410  -0.849  15.186  0.00  0.00     0.189 C 
HETATM    5  C   UNK     0     -49.097  -0.658  17.524  0.00  0.00     0.299 C 
HETATM    6  C   UNK     0     -48.921  -0.651  15.164  0.00  0.00     0.253 C 
ENDROOT
BRANCH   5   7
HETATM    7  O   UNK     0     -49.760  -1.282  18.624  0.00  0.00    -0.315 OA
BRANCH   7   8
HETATM    8  C   UNK     0     -50.201  -2.557  18.427  0.00  0.00     0.110 A 
HETATM    9  C   UNK     0     -49.342  -3.625  18.685  0.00  0.00     0.078 A 
HETATM   10  C   UNK     0     -49.783  -4.935  18.488  0.00  0.00     0.096 A 
HETATM   11  O   UNK     0     -48.893  -5.942  18.757  0.00  0.00    -0.309 OA
HETATM   12  C   UNK     0     -51.079  -5.171  18.033  0.00  0.00     0.084 A 
HETATM   13  C   UNK     0     -49.306  -7.254  18.577  0.00  0.00     0.090 A 
HETATM   14  C   UNK     0     -50.524  -7.609  18.140  0.00  0.00     0.094 A 
HETATM   15  C   UNK     0     -51.517  -6.560  17.832  0.00  0.00     0.190 A 
HETATM   16  O   UNK     0     -52.640  -6.842  17.433  0.00  0.00    -0.287 OA
HETATM   17  C   UNK     0     -51.943  -4.104  17.774  0.00  0.00     0.118 A 
HETATM   18  C   UNK     0     -51.499  -2.797  17.973  0.00  0.00     0.134 A 
BRANCH  13  19
HETATM   19  C   UNK     0     -48.270  -8.258  18.891  0.00  0.00    -0.002 A 
HETATM   20  C   UNK     0     -46.920  -7.897  18.891  0.00  0.00     0.014 A 
HETATM   21  C   UNK     0     -45.941  -8.845  19.189  0.00  0.00     0.001 A 
HETATM   22  C   UNK     0     -46.308 -10.157  19.489  0.00  0.00     0.000 A 
HETATM   23  C   UNK     0     -47.655 -10.521  19.490  0.00  0.00     0.001 A 
HETATM   24  C   UNK     0     -48.634  -9.572  19.192  0.00  0.00     0.014 A 
ENDBRANCH  13  19
BRANCH  17  25
HETATM   25  O   UNK     0     -53.217  -4.298  17.329  0.00  0.00    -0.357 OA
HETATM   26  H   UNK     0     -53.519  -5.197  17.529  0.00  0.00     0.217 HD
ENDBRANCH  17  25
BRANCH  18  27
HETATM   27  O   UNK     0     -52.334  -1.746  17.723  0.00  0.00    -0.356 OA
HETATM   28  H   UNK     0     -53.102  -1.816  18.316  0.00  0.00     0.218 HD
ENDBRANCH  18  27
ENDBRANCH   7   8
ENDBRANCH   5   7
BRANCH   6  29
HETATM   29  C   UNK     0     -49.540  -1.382  14.018  0.00  0.00     0.172 C 
HETATM   30  O   UNK     0     -50.702  -1.267  13.657  0.00  0.00    -0.648 OA
BRANCH  29  31
HETATM   31  O   UNK     0     -48.635  -2.200  13.427  0.00  0.00    -0.774 OA
HETATM   32  H   UNK     0     -48.935  -3.134  13.418  0.00  0.00     0.167 HD
ENDBRANCH  29  31
ENDBRANCH   6  29
BRANCH   3  33
HETATM   33  O   UNK     0     -47.184  -0.146  18.875  0.00  0.00    -0.388 OA
HETATM   34  H   UNK     0     -46.796  -0.789  19.491  0.00  0.00     0.210 HD
ENDBRANCH   3  33
BRANCH   4  35
HETATM   35  O   UNK     0     -46.837  -0.126  14.099  0.00  0.00    -0.390 OA
HETATM   36  H   UNK     0     -45.869  -0.167  14.186  0.00  0.00     0.210 HD
ENDBRANCH   4  35
BRANCH   2  37
HETATM   37  O   UNK     0     -45.460  -0.781  16.573  0.00  0.00    -0.390 OA
HETATM   38  H   UNK     0     -45.155  -0.643  17.485  0.00  0.00     0.210 HD
ENDBRANCH   2  37
TORSDOF 10
ENDMDL
