MODEL 1
REMARK VINA RESULT:      -7.8      0.000      0.000
REMARK  10 active torsions:
REMARK  status: ('A' for Active; 'I' for Inactive)
REMARK    1  A    between atoms: O_2  and  C_15 
REMARK    2  A    between atoms: O_2  and  C_18 
REMARK    3  A    between atoms: O_3  and  C_12 
REMARK    4  A    between atoms: O_4  and  C_13 
REMARK    5  A    between atoms: O_5  and  C_14 
REMARK    6  A    between atoms: O_6  and  C_17 
REMARK    7  A    between atoms: O_9  and  C_19 
REMARK    8  A    between atoms: O_10  and  C_23 
REMARK    9  A    between atoms: C_16  and  C_17 
REMARK   10  A    between atoms: C_25  and  C_27 
ROOT
HETATM    1  O   UNK     0     -51.598  -4.084  16.887  0.00  0.00    -0.340 OA
HETATM    2  C   UNK     0     -51.002  -6.391  18.494  0.00  0.00     0.183 C 
HETATM    3  C   UNK     0     -50.393  -5.017  18.775  0.00  0.00     0.205 C 
HETATM    4  C   UNK     0     -52.294  -6.273  17.684  0.00  0.00     0.189 C 
HETATM    5  C   UNK     0     -50.315  -4.174  17.501  0.00  0.00     0.299 C 
HETATM    6  C   UNK     0     -52.096  -5.355  16.484  0.00  0.00     0.253 C 
ENDROOT
BRANCH   5   7
HETATM    7  O   UNK     0     -49.861  -2.871  17.862  0.00  0.00    -0.315 OA
BRANCH   7   8
HETATM    8  C   UNK     0     -48.627  -2.506  17.408  0.00  0.00     0.111 A 
HETATM    9  C   UNK     0     -47.750  -1.800  18.232  0.00  0.00     0.137 A 
HETATM   10  C   UNK     0     -46.491  -1.435  17.753  0.00  0.00     0.129 A 
HETATM   11  O   UNK     0     -45.672  -0.743  18.608  0.00  0.00    -0.306 OA
HETATM   12  C   UNK     0     -46.115  -1.774  16.454  0.00  0.00     0.084 A 
HETATM   13  C   UNK     0     -44.413  -0.372  18.162  0.00  0.00     0.090 A 
HETATM   14  C   UNK     0     -43.939  -0.633  16.933  0.00  0.00     0.094 A 
HETATM   15  C   UNK     0     -44.783  -1.374  15.974  0.00  0.00     0.190 A 
HETATM   16  O   UNK     0     -44.388  -1.637  14.846  0.00  0.00    -0.287 OA
HETATM   17  C   UNK     0     -46.991  -2.480  15.627  0.00  0.00     0.085 A 
HETATM   18  C   UNK     0     -48.248  -2.844  16.109  0.00  0.00     0.077 A 
BRANCH   9  19
HETATM   19  O   UNK     0     -48.124  -1.472  19.502  0.00  0.00    -0.351 OA
HETATM   20  C   UNK     0     -48.822  -0.240  19.673  0.00  0.00     0.210 C 
ENDBRANCH   9  19
BRANCH  13  21
HETATM   21  C   UNK     0     -43.618   0.373  19.158  0.00  0.00    -0.002 A 
HETATM   22  C   UNK     0     -43.142   1.654  18.862  0.00  0.00     0.014 A 
HETATM   23  C   UNK     0     -42.393   2.358  19.804  0.00  0.00     0.001 A 
HETATM   24  C   UNK     0     -42.115   1.785  21.045  0.00  0.00     0.000 A 
HETATM   25  C   UNK     0     -42.587   0.506  21.344  0.00  0.00     0.001 A 
HETATM   26  C   UNK     0     -43.338  -0.198  20.402  0.00  0.00     0.014 A 
ENDBRANCH  13  21
BRANCH  17  27
HETATM   27  O   UNK     0     -46.670  -2.834  14.351  0.00  0.00    -0.360 OA
HETATM   28  H   UNK     0     -46.299  -2.078  13.872  0.00  0.00     0.217 HD
ENDBRANCH  17  27
ENDBRANCH   7   8
ENDBRANCH   5   7
BRANCH   6  29
HETATM   29  C   UNK     0     -53.405  -5.024  15.842  0.00  0.00     0.172 C 
HETATM   30  O   UNK     0     -54.488  -5.477  16.183  0.00  0.00    -0.648 OA
BRANCH  29  31
HETATM   31  O   UNK     0     -53.231  -4.151  14.821  0.00  0.00    -0.774 OA
HETATM   32  H   UNK     0     -52.283  -3.946  14.670  0.00  0.00     0.167 HD
ENDBRANCH  29  31
ENDBRANCH   6  29
BRANCH   3  33
HETATM   33  O   UNK     0     -49.070  -5.181  19.284  0.00  0.00    -0.388 OA
HETATM   34  H   UNK     0     -48.463  -4.718  18.682  0.00  0.00     0.210 HD
ENDBRANCH   3  33
BRANCH   4  35
HETATM   35  O   UNK     0     -52.669  -7.566  17.213  0.00  0.00    -0.390 OA
HETATM   36  H   UNK     0     -53.286  -7.450  16.470  0.00  0.00     0.210 HD
ENDBRANCH   4  35
BRANCH   2  37
HETATM   37  O   UNK     0     -51.313  -7.036  19.730  0.00  0.00    -0.390 OA
HETATM   38  H   UNK     0     -50.474  -7.237  20.177  0.00  0.00     0.210 HD
ENDBRANCH   2  37
TORSDOF 10
ENDMDL
MODEL 2
REMARK VINA RESULT:      -7.8      6.369     10.675
REMARK  10 active torsions:
REMARK  status: ('A' for Active; 'I' for Inactive)
REMARK    1  A    between atoms: O_2  and  C_15 
REMARK    2  A    between atoms: O_2  and  C_18 
REMARK    3  A    between atoms: O_3  and  C_12 
REMARK    4  A    between atoms: O_4  and  C_13 
REMARK    5  A    between atoms: O_5  and  C_14 
REMARK    6  A    between atoms: O_6  and  C_17 
REMARK    7  A    between atoms: O_9  and  C_19 
REMARK    8  A    between atoms: O_10  and  C_23 
REMARK    9  A    between atoms: C_16  and  C_17 
REMARK   10  A    between atoms: C_25  and  C_27 
ROOT
HETATM    1  O   UNK     0     -47.528 -13.418  22.290  0.00  0.00    -0.340 OA
HETATM    2  C   UNK     0     -46.958 -14.543  19.709  0.00  0.00     0.183 C 
HETATM    3  C   UNK     0     -46.783 -13.054  20.010  0.00  0.00     0.205 C 
HETATM    4  C   UNK     0     -46.923 -15.379  20.989  0.00  0.00     0.189 C 
HETATM    5  C   UNK     0     -47.716 -12.604  21.135  0.00  0.00     0.299 C 
HETATM    6  C   UNK     0     -47.843 -14.784  22.048  0.00  0.00     0.253 C 
ENDROOT
BRANCH   5   7
HETATM    7  O   UNK     0     -47.407 -11.246  21.446  0.00  0.00    -0.315 OA
BRANCH   7   8
HETATM    8  C   UNK     0     -48.437 -10.354  21.383  0.00  0.00     0.111 A 
HETATM    9  C   UNK     0     -48.627  -9.571  20.244  0.00  0.00     0.137 A 
HETATM   10  C   UNK     0     -49.686  -8.663  20.194  0.00  0.00     0.129 A 
HETATM   11  O   UNK     0     -49.821  -7.921  19.049  0.00  0.00    -0.306 OA
HETATM   12  C   UNK     0     -50.550  -8.543  21.281  0.00  0.00     0.084 A 
HETATM   13  C   UNK     0     -50.869  -7.017  18.969  0.00  0.00     0.090 A 
HETATM   14  C   UNK     0     -51.762  -6.804  19.949  0.00  0.00     0.094 A 
HETATM   15  C   UNK     0     -51.657  -7.577  21.203  0.00  0.00     0.190 A 
HETATM   16  O   UNK     0     -52.452  -7.418  22.119  0.00  0.00    -0.287 OA
HETATM   17  C   UNK     0     -50.363  -9.325  22.423  0.00  0.00     0.085 A 
HETATM   18  C   UNK     0     -49.304 -10.231  22.470  0.00  0.00     0.077 A 
BRANCH   9  19
HETATM   19  O   UNK     0     -47.777  -9.695  19.183  0.00  0.00    -0.351 OA
HETATM   20  C   UNK     0     -46.596  -8.897  19.204  0.00  0.00     0.210 C 
ENDBRANCH   9  19
BRANCH  13  21
HETATM   21  C   UNK     0     -50.918  -6.267  17.698  0.00  0.00    -0.002 A 
HETATM   22  C   UNK     0     -52.144  -6.017  17.076  0.00  0.00     0.014 A 
HETATM   23  C   UNK     0     -52.191  -5.307  15.876  0.00  0.00     0.001 A 
HETATM   24  C   UNK     0     -51.011  -4.845  15.293  0.00  0.00     0.000 A 
HETATM   25  C   UNK     0     -49.785  -5.093  15.910  0.00  0.00     0.001 A 
HETATM   26  C   UNK     0     -49.738  -5.802  17.111  0.00  0.00     0.014 A 
ENDBRANCH  13  21
BRANCH  17  27
HETATM   27  O   UNK     0     -51.180  -9.243  23.510  0.00  0.00    -0.360 OA
HETATM   28  H   UNK     0     -51.297  -8.319  23.778  0.00  0.00     0.217 HD
ENDBRANCH  17  27
ENDBRANCH   7   8
ENDBRANCH   5   7
BRANCH   6  29
HETATM   29  C   UNK     0     -47.619 -15.430  23.376  0.00  0.00     0.172 C 
HETATM   30  O   UNK     0     -46.887 -14.995  24.254  0.00  0.00    -0.648 OA
BRANCH  29  31
HETATM   31  O   UNK     0     -48.336 -16.575  23.480  0.00  0.00    -0.774 OA
HETATM   32  H   UNK     0     -47.884 -17.332  23.050  0.00  0.00     0.167 HD
ENDBRANCH  29  31
ENDBRANCH   6  29
BRANCH   3  33
HETATM   33  O   UNK     0     -47.093 -12.296  18.842  0.00  0.00    -0.388 OA
HETATM   34  H   UNK     0     -47.747 -11.622  19.093  0.00  0.00     0.210 HD
ENDBRANCH   3  33
BRANCH   4  35
HETATM   35  O   UNK     0     -47.362 -16.704  20.693  0.00  0.00    -0.390 OA
HETATM   36  H   UNK     0     -48.329 -16.685  20.591  0.00  0.00     0.210 HD
ENDBRANCH   4  35
BRANCH   2  37
HETATM   37  O   UNK     0     -45.896 -14.986  18.863  0.00  0.00    -0.390 OA
HETATM   38  H   UNK     0     -45.489 -15.763  19.281  0.00  0.00     0.210 HD
ENDBRANCH   2  37
TORSDOF 10
ENDMDL
MODEL 3
REMARK VINA RESULT:      -7.7      3.141      8.492
REMARK  10 active torsions:
REMARK  status: ('A' for Active; 'I' for Inactive)
REMARK    1  A    between atoms: O_2  and  C_15 
REMARK    2  A    between atoms: O_2  and  C_18 
REMARK    3  A    between atoms: O_3  and  C_12 
REMARK    4  A    between atoms: O_4  and  C_13 
REMARK    5  A    between atoms: O_5  and  C_14 
REMARK    6  A    between atoms: O_6  and  C_17 
REMARK    7  A    between atoms: O_9  and  C_19 
REMARK    8  A    between atoms: O_10  and  C_23 
REMARK    9  A    between atoms: C_16  and  C_17 
REMARK   10  A    between atoms: C_25  and  C_27 
ROOT
HETATM    1  O   UNK     0     -48.519  -2.713  16.460  0.00  0.00    -0.340 OA
HETATM    2  C   UNK     0     -48.181  -1.237  14.019  0.00  0.00     0.183 C 
HETATM    3  C   UNK     0     -49.546  -1.740  14.489  0.00  0.00     0.205 C 
HETATM    4  C   UNK     0     -47.196  -1.124  15.183  0.00  0.00     0.189 C 
HETATM    5  C   UNK     0     -49.405  -2.978  15.375  0.00  0.00     0.299 C 
HETATM    6  C   UNK     0     -47.204  -2.396  16.021  0.00  0.00     0.253 C 
ENDROOT
BRANCH   5   7
HETATM    7  O   UNK     0     -50.698  -3.310  15.878  0.00  0.00    -0.315 OA
BRANCH   7   8
HETATM    8  C   UNK     0     -50.761  -4.339  16.771  0.00  0.00     0.111 A 
HETATM    9  C   UNK     0     -51.428  -4.183  17.986  0.00  0.00     0.137 A 
HETATM   10  C   UNK     0     -51.484  -5.247  18.889  0.00  0.00     0.129 A 
HETATM   11  O   UNK     0     -52.154  -5.034  20.066  0.00  0.00    -0.306 OA
HETATM   12  C   UNK     0     -50.873  -6.459  18.574  0.00  0.00     0.084 A 
HETATM   13  C   UNK     0     -52.232  -6.074  20.979  0.00  0.00     0.090 A 
HETATM   14  C   UNK     0     -51.679  -7.284  20.796  0.00  0.00     0.094 A 
HETATM   15  C   UNK     0     -50.946  -7.562  19.545  0.00  0.00     0.190 A 
HETATM   16  O   UNK     0     -50.431  -8.653  19.335  0.00  0.00    -0.287 OA
HETATM   17  C   UNK     0     -50.204  -6.619  17.359  0.00  0.00     0.085 A 
HETATM   18  C   UNK     0     -50.150  -5.555  16.459  0.00  0.00     0.077 A 
BRANCH   9  19
HETATM   19  O   UNK     0     -52.024  -2.993  18.287  0.00  0.00    -0.351 OA
HETATM   20  C   UNK     0     -51.202  -1.989  18.876  0.00  0.00     0.210 C 
ENDBRANCH   9  19
BRANCH  13  21
HETATM   21  C   UNK     0     -52.968  -5.735  22.214  0.00  0.00    -0.002 A 
HETATM   22  C   UNK     0     -53.790  -4.605  22.254  0.00  0.00     0.014 A 
HETATM   23  C   UNK     0     -54.486  -4.287  23.420  0.00  0.00     0.001 A 
HETATM   24  C   UNK     0     -54.364  -5.095  24.549  0.00  0.00     0.000 A 
HETATM   25  C   UNK     0     -53.544  -6.224  24.513  0.00  0.00     0.001 A 
HETATM   26  C   UNK     0     -52.847  -6.543  23.347  0.00  0.00     0.014 A 
ENDBRANCH  13  21
BRANCH  17  27
HETATM   27  O   UNK     0     -49.591  -7.784  17.007  0.00  0.00    -0.360 OA
HETATM   28  H   UNK     0     -49.210  -8.216  17.785  0.00  0.00     0.217 HD
ENDBRANCH  17  27
ENDBRANCH   7   8
ENDBRANCH   5   7
BRANCH   6  29
HETATM   29  C   UNK     0     -46.452  -2.201  17.298  0.00  0.00     0.172 C 
HETATM   30  O   UNK     0     -46.929  -1.756  18.332  0.00  0.00    -0.648 OA
BRANCH  29  31
HETATM   31  O   UNK     0     -45.159  -2.580  17.156  0.00  0.00    -0.774 OA
HETATM   32  H   UNK     0     -44.631  -1.912  16.670  0.00  0.00     0.167 HD
ENDBRANCH  29  31
ENDBRANCH   6  29
BRANCH   3  33
HETATM   33  O   UNK     0     -50.339  -2.089  13.356  0.00  0.00    -0.388 OA
HETATM   34  H   UNK     0     -51.106  -1.492  13.336  0.00  0.00     0.210 HD
ENDBRANCH   3  33
BRANCH   4  35
HETATM   35  O   UNK     0     -45.882  -0.925  14.665  0.00  0.00    -0.390 OA
HETATM   36  H   UNK     0     -45.247  -1.283  15.308  0.00  0.00     0.210 HD
ENDBRANCH   4  35
BRANCH   2  37
HETATM   37  O   UNK     0     -48.326   0.059  13.435  0.00  0.00    -0.390 OA
HETATM   38  H   UNK     0     -48.744   0.636  14.097  0.00  0.00     0.210 HD
ENDBRANCH   2  37
TORSDOF 10
ENDMDL
MODEL 4
REMARK VINA RESULT:      -7.5      1.104      2.501
REMARK  10 active torsions:
REMARK  status: ('A' for Active; 'I' for Inactive)
REMARK    1  A    between atoms: O_2  and  C_15 
REMARK    2  A    between atoms: O_2  and  C_18 
REMARK    3  A    between atoms: O_3  and  C_12 
REMARK    4  A    between atoms: O_4  and  C_13 
REMARK    5  A    between atoms: O_5  and  C_14 
REMARK    6  A    between atoms: O_6  and  C_17 
REMARK    7  A    between atoms: O_9  and  C_19 
REMARK    8  A    between atoms: O_10  and  C_23 
REMARK    9  A    between atoms: C_16  and  C_17 
REMARK   10  A    between atoms: C_25  and  C_27 
ROOT
HETATM    1  O   UNK     0     -49.483  -4.696  18.257  0.00  0.00    -0.340 OA
HETATM    2  C   UNK     0     -51.940  -5.838  17.299  0.00  0.00     0.183 C 
HETATM    3  C   UNK     0     -51.639  -4.343  17.200  0.00  0.00     0.205 C 
HETATM    4  C   UNK     0     -50.656  -6.658  17.431  0.00  0.00     0.189 C 
HETATM    5  C   UNK     0     -50.666  -3.900  18.293  0.00  0.00     0.299 C 
HETATM    6  C   UNK     0     -49.749  -6.072  18.505  0.00  0.00     0.253 C 
ENDROOT
BRANCH   5   7
HETATM    7  O   UNK     0     -50.333  -2.533  18.060  0.00  0.00    -0.315 OA
BRANCH   7   8
HETATM    8  C   UNK     0     -49.091  -2.283  17.555  0.00  0.00     0.111 A 
HETATM    9  C   UNK     0     -48.125  -1.645  18.334  0.00  0.00     0.137 A 
HETATM   10  C   UNK     0     -46.858  -1.397  17.803  0.00  0.00     0.129 A 
HETATM   11  O   UNK     0     -45.951  -0.767  18.615  0.00  0.00    -0.306 OA
HETATM   12  C   UNK     0     -46.562  -1.788  16.498  0.00  0.00     0.084 A 
HETATM   13  C   UNK     0     -44.682  -0.514  18.117  0.00  0.00     0.090 A 
HETATM   14  C   UNK     0     -44.279  -0.834  16.877  0.00  0.00     0.094 A 
HETATM   15  C   UNK     0     -45.219  -1.513  15.963  0.00  0.00     0.190 A 
HETATM   16  O   UNK     0     -44.892  -1.826  14.826  0.00  0.00    -0.287 OA
HETATM   17  C   UNK     0     -47.526  -2.427  15.716  0.00  0.00     0.085 A 
HETATM   18  C   UNK     0     -48.792  -2.672  16.249  0.00  0.00     0.077 A 
BRANCH   9  19
HETATM   19  O   UNK     0     -48.422  -1.266  19.611  0.00  0.00    -0.351 OA
HETATM   20  C   UNK     0     -49.008   0.022  19.783  0.00  0.00     0.210 C 
ENDBRANCH   9  19
BRANCH  13  21
HETATM   21  C   UNK     0     -43.788   0.173  19.071  0.00  0.00    -0.002 A 
HETATM   22  C   UNK     0     -43.308   1.454  18.785  0.00  0.00     0.014 A 
HETATM   23  C   UNK     0     -42.465   2.104  19.686  0.00  0.00     0.001 A 
HETATM   24  C   UNK     0     -42.099   1.476  20.876  0.00  0.00     0.000 A 
HETATM   25  C   UNK     0     -42.576   0.197  21.165  0.00  0.00     0.001 A 
HETATM   26  C   UNK     0     -43.420  -0.453  20.264  0.00  0.00     0.014 A 
ENDBRANCH  13  21
BRANCH  17  27
HETATM   27  O   UNK     0     -47.286  -2.826  14.435  0.00  0.00    -0.360 OA
HETATM   28  H   UNK     0     -47.673  -3.699  14.273  0.00  0.00     0.217 HD
ENDBRANCH  17  27
ENDBRANCH   7   8
ENDBRANCH   5   7
BRANCH   6  29
HETATM   29  C   UNK     0     -48.392  -6.697  18.461  0.00  0.00     0.172 C 
HETATM   30  O   UNK     0     -47.563  -6.639  19.358  0.00  0.00    -0.648 OA
BRANCH  29  31
HETATM   31  O   UNK     0     -48.198  -7.339  17.284  0.00  0.00    -0.774 OA
HETATM   32  H   UNK     0     -48.923  -7.969  17.085  0.00  0.00     0.167 HD
ENDBRANCH  29  31
ENDBRANCH   6  29
BRANCH   3  33
HETATM   33  O   UNK     0     -52.850  -3.605  17.354  0.00  0.00    -0.388 OA
HETATM   34  H   UNK     0     -52.956  -3.044  16.567  0.00  0.00     0.210 HD
ENDBRANCH   3  33
BRANCH   4  35
HETATM   35  O   UNK     0     -50.991  -7.996  17.795  0.00  0.00    -0.390 OA
HETATM   36  H   UNK     0     -51.873  -8.194  17.437  0.00  0.00     0.210 HD
ENDBRANCH   4  35
BRANCH   2  37
HETATM   37  O   UNK     0     -52.618  -6.267  16.117  0.00  0.00    -0.390 OA
HETATM   38  H   UNK     0     -52.965  -5.475  15.672  0.00  0.00     0.210 HD
ENDBRANCH   2  37
TORSDOF 10
ENDMDL
MODEL 5
REMARK VINA RESULT:      -7.4     13.330     16.837
REMARK  10 active torsions:
REMARK  status: ('A' for Active; 'I' for Inactive)
REMARK    1  A    between atoms: O_2  and  C_15 
REMARK    2  A    between atoms: O_2  and  C_18 
REMARK    3  A    between atoms: O_3  and  C_12 
REMARK    4  A    between atoms: O_4  and  C_13 
REMARK    5  A    between atoms: O_5  and  C_14 
REMARK    6  A    between atoms: O_6  and  C_17 
REMARK    7  A    between atoms: O_9  and  C_19 
REMARK    8  A    between atoms: O_10  and  C_23 
REMARK    9  A    between atoms: C_16  and  C_17 
REMARK   10  A    between atoms: C_25  and  C_27 
ROOT
HETATM    1  O   UNK     0     -46.704 -16.573  22.825  0.00  0.00    -0.340 OA
HETATM    2  C   UNK     0     -46.016 -17.941  20.394  0.00  0.00     0.183 C 
HETATM    3  C   UNK     0     -46.200 -18.675  21.723  0.00  0.00     0.205 C 
HETATM    4  C   UNK     0     -46.741 -16.595  20.395  0.00  0.00     0.189 C 
HETATM    5  C   UNK     0     -45.910 -17.754  22.909  0.00  0.00     0.299 C 
HETATM    6  C   UNK     0     -46.418 -15.809  21.659  0.00  0.00     0.253 C 
ENDROOT
BRANCH   5   7
HETATM    7  O   UNK     0     -46.226 -18.463  24.105  0.00  0.00    -0.315 OA
BRANCH   7   8
HETATM    8  C   UNK     0     -46.941 -17.784  25.048  0.00  0.00     0.111 A 
HETATM    9  C   UNK     0     -46.307 -17.251  26.170  0.00  0.00     0.137 A 
HETATM   10  C   UNK     0     -47.053 -16.559  27.125  0.00  0.00     0.129 A 
HETATM   11  O   UNK     0     -46.375 -16.058  28.207  0.00  0.00    -0.306 OA
HETATM   12  C   UNK     0     -48.427 -16.402  26.955  0.00  0.00     0.084 A 
HETATM   13  C   UNK     0     -47.089 -15.359  29.168  0.00  0.00     0.090 A 
HETATM   14  C   UNK     0     -48.414 -15.148  29.122  0.00  0.00     0.094 A 
HETATM   15  C   UNK     0     -49.189 -15.669  27.978  0.00  0.00     0.190 A 
HETATM   16  O   UNK     0     -50.398 -15.495  27.894  0.00  0.00    -0.287 OA
HETATM   17  C   UNK     0     -49.066 -16.934  25.833  0.00  0.00     0.085 A 
HETATM   18  C   UNK     0     -48.318 -17.626  24.880  0.00  0.00     0.077 A 
BRANCH   9  19
HETATM   19  O   UNK     0     -44.961 -17.408  26.330  0.00  0.00    -0.351 OA
HETATM   20  C   UNK     0     -44.124 -16.371  25.825  0.00  0.00     0.210 C 
ENDBRANCH   9  19
BRANCH  13  21
HETATM   21  C   UNK     0     -46.263 -14.871  30.291  0.00  0.00    -0.002 A 
HETATM   22  C   UNK     0     -46.833 -14.689  31.555  0.00  0.00     0.014 A 
HETATM   23  C   UNK     0     -46.054 -14.229  32.616  0.00  0.00     0.001 A 
HETATM   24  C   UNK     0     -44.702 -13.948  32.418  0.00  0.00     0.000 A 
HETATM   25  C   UNK     0     -44.129 -14.128  31.158  0.00  0.00     0.001 A 
HETATM   26  C   UNK     0     -44.909 -14.588  30.097  0.00  0.00     0.014 A 
ENDBRANCH  13  21
BRANCH  17  27
HETATM   27  O   UNK     0     -50.406 -16.808  25.622  0.00  0.00    -0.360 OA
HETATM   28  H   UNK     0     -50.868 -16.652  26.459  0.00  0.00     0.217 HD
ENDBRANCH  17  27
ENDBRANCH   7   8
ENDBRANCH   5   7
BRANCH   6  29
HETATM   29  C   UNK     0     -47.316 -14.622  21.796  0.00  0.00     0.172 C 
HETATM   30  O   UNK     0     -47.596 -13.846  20.893  0.00  0.00    -0.648 OA
BRANCH  29  31
HETATM   31  O   UNK     0     -47.781 -14.516  23.064  0.00  0.00    -0.774 OA
HETATM   32  H   UNK     0     -47.787 -15.381  23.527  0.00  0.00     0.167 HD
ENDBRANCH  29  31
ENDBRANCH   6  29
BRANCH   3  33
HETATM   33  O   UNK     0     -45.298 -19.778  21.783  0.00  0.00    -0.388 OA
HETATM   34  H   UNK     0     -45.663 -20.488  21.228  0.00  0.00     0.210 HD
ENDBRANCH   3  33
BRANCH   4  35
HETATM   35  O   UNK     0     -46.318 -15.836  19.263  0.00  0.00    -0.390 OA
HETATM   36  H   UNK     0     -45.346 -15.808  19.265  0.00  0.00     0.210 HD
ENDBRANCH   4  35
BRANCH   2  37
HETATM   37  O   UNK     0     -46.555 -18.733  19.334  0.00  0.00    -0.390 OA
HETATM   38  H   UNK     0     -46.105 -18.474  18.513  0.00  0.00     0.210 HD
ENDBRANCH   2  37
TORSDOF 10
ENDMDL
MODEL 6
REMARK VINA RESULT:      -7.4      2.976      8.517
REMARK  10 active torsions:
REMARK  status: ('A' for Active; 'I' for Inactive)
REMARK    1  A    between atoms: O_2  and  C_15 
REMARK    2  A    between atoms: O_2  and  C_18 
REMARK    3  A    between atoms: O_3  and  C_12 
REMARK    4  A    between atoms: O_4  and  C_13 
REMARK    5  A    between atoms: O_5  and  C_14 
REMARK    6  A    between atoms: O_6  and  C_17 
REMARK    7  A    between atoms: O_9  and  C_19 
REMARK    8  A    between atoms: O_10  and  C_23 
REMARK    9  A    between atoms: C_16  and  C_17 
REMARK   10  A    between atoms: C_25  and  C_27 
ROOT
HETATM    1  O   UNK     0     -47.577  -1.981  17.944  0.00  0.00    -0.340 OA
HETATM    2  C   UNK     0     -46.235  -1.197  15.528  0.00  0.00     0.183 C 
HETATM    3  C   UNK     0     -47.554  -1.970  15.518  0.00  0.00     0.205 C 
HETATM    4  C   UNK     0     -46.031  -0.458  16.850  0.00  0.00     0.189 C 
HETATM    5  C   UNK     0     -47.716  -2.805  16.789  0.00  0.00     0.299 C 
HETATM    6  C   UNK     0     -46.288  -1.384  18.032  0.00  0.00     0.253 C 
ENDROOT
BRANCH   5   7
HETATM    7  O   UNK     0     -49.017  -3.391  16.768  0.00  0.00    -0.315 OA
BRANCH   7   8
HETATM    8  C   UNK     0     -49.182  -4.538  17.488  0.00  0.00     0.111 A 
HETATM    9  C   UNK     0     -49.883  -4.524  18.694  0.00  0.00     0.137 A 
HETATM   10  C   UNK     0     -50.044  -5.707  19.417  0.00  0.00     0.129 A 
HETATM   11  O   UNK     0     -50.742  -5.631  20.595  0.00  0.00    -0.306 OA
HETATM   12  C   UNK     0     -49.504  -6.897  18.933  0.00  0.00     0.084 A 
HETATM   13  C   UNK     0     -50.924  -6.791  21.331  0.00  0.00     0.090 A 
HETATM   14  C   UNK     0     -50.447  -7.995  20.976  0.00  0.00     0.094 A 
HETATM   15  C   UNK     0     -49.686  -8.129  19.717  0.00  0.00     0.190 A 
HETATM   16  O   UNK     0     -49.238  -9.208  19.353  0.00  0.00    -0.287 OA
HETATM   17  C   UNK     0     -48.801  -6.915  17.727  0.00  0.00     0.085 A 
HETATM   18  C   UNK     0     -48.642  -5.732  17.006  0.00  0.00     0.077 A 
BRANCH   9  19
HETATM   19  O   UNK     0     -50.410  -3.355  19.161  0.00  0.00    -0.351 OA
HETATM   20  C   UNK     0     -51.716  -3.008  18.708  0.00  0.00     0.210 C 
ENDBRANCH   9  19
BRANCH  13  21
HETATM   21  C   UNK     0     -51.682  -6.595  22.583  0.00  0.00    -0.002 A 
HETATM   22  C   UNK     0     -51.007  -6.446  23.798  0.00  0.00     0.014 A 
HETATM   23  C   UNK     0     -51.723  -6.260  24.980  0.00  0.00     0.001 A 
HETATM   24  C   UNK     0     -53.117  -6.222  24.952  0.00  0.00     0.000 A 
HETATM   25  C   UNK     0     -53.795  -6.371  23.742  0.00  0.00     0.001 A 
HETATM   26  C   UNK     0     -53.079  -6.556  22.559  0.00  0.00     0.014 A 
ENDBRANCH  13  21
BRANCH  17  27
HETATM   27  O   UNK     0     -48.254  -8.053  17.213  0.00  0.00    -0.360 OA
HETATM   28  H   UNK     0     -48.176  -8.732  17.899  0.00  0.00     0.217 HD
ENDBRANCH  17  27
ENDBRANCH   7   8
ENDBRANCH   5   7
BRANCH   6  29
HETATM   29  C   UNK     0     -46.351  -0.616  19.312  0.00  0.00     0.172 C 
HETATM   30  O   UNK     0     -46.207  -1.096  20.427  0.00  0.00    -0.648 OA
BRANCH  29  31
HETATM   31  O   UNK     0     -46.597   0.695  19.072  0.00  0.00    -0.774 OA
HETATM   32  H   UNK     0     -47.117   1.109  19.794  0.00  0.00     0.167 HD
ENDBRANCH  29  31
ENDBRANCH   6  29
BRANCH   3  33
HETATM   33  O   UNK     0     -47.578  -2.853  14.397  0.00  0.00    -0.388 OA
HETATM   34  H   UNK     0     -46.799  -3.431  14.461  0.00  0.00     0.210 HD
ENDBRANCH   3  33
BRANCH   4  35
HETATM   35  O   UNK     0     -44.686   0.011  16.920  0.00  0.00    -0.390 OA
HETATM   36  H   UNK     0     -44.671   0.800  17.488  0.00  0.00     0.210 HD
ENDBRANCH   4  35
BRANCH   2  37
HETATM   37  O   UNK     0     -46.243  -0.230  14.477  0.00  0.00    -0.390 OA
HETATM   38  H   UNK     0     -45.591   0.456  14.701  0.00  0.00     0.210 HD
ENDBRANCH   2  37
TORSDOF 10
ENDMDL
MODEL 7
REMARK VINA RESULT:      -7.3      2.400      4.796
REMARK  10 active torsions:
REMARK  status: ('A' for Active; 'I' for Inactive)
REMARK    1  A    between atoms: O_2  and  C_15 
REMARK    2  A    between atoms: O_2  and  C_18 
REMARK    3  A    between atoms: O_3  and  C_12 
REMARK    4  A    between atoms: O_4  and  C_13 
REMARK    5  A    between atoms: O_5  and  C_14 
REMARK    6  A    between atoms: O_6  and  C_17 
REMARK    7  A    between atoms: O_9  and  C_19 
REMARK    8  A    between atoms: O_10  and  C_23 
REMARK    9  A    between atoms: C_16  and  C_17 
REMARK   10  A    between atoms: C_25  and  C_27 
ROOT
HETATM    1  O   UNK     0     -47.998  -2.561  16.531  0.00  0.00    -0.340 OA
HETATM    2  C   UNK     0     -49.355  -2.665  14.001  0.00  0.00     0.183 C 
HETATM    3  C   UNK     0     -48.137  -1.773  14.240  0.00  0.00     0.205 C 
HETATM    4  C   UNK     0     -49.407  -3.819  15.002  0.00  0.00     0.189 C 
HETATM    5  C   UNK     0     -48.012  -1.391  15.716  0.00  0.00     0.299 C 
HETATM    6  C   UNK     0     -49.202  -3.311  16.423  0.00  0.00     0.253 C 
ENDROOT
BRANCH   5   7
HETATM    7  O   UNK     0     -46.791  -0.673  15.883  0.00  0.00    -0.315 OA
BRANCH   7   8
HETATM    8  C   UNK     0     -46.610  -0.045  17.081  0.00  0.00     0.111 A 
HETATM    9  C   UNK     0     -45.336   0.062  17.639  0.00  0.00     0.137 A 
HETATM   10  C   UNK     0     -45.168   0.708  18.865  0.00  0.00     0.129 A 
HETATM   11  O   UNK     0     -43.892   0.782  19.363  0.00  0.00    -0.306 OA
HETATM   12  C   UNK     0     -46.271   1.242  19.527  0.00  0.00     0.084 A 
HETATM   13  C   UNK     0     -43.693   1.424  20.576  0.00  0.00     0.090 A 
HETATM   14  C   UNK     0     -44.674   1.971  21.312  0.00  0.00     0.094 A 
HETATM   15  C   UNK     0     -46.065   1.916  20.819  0.00  0.00     0.190 A 
HETATM   16  O   UNK     0     -46.988   2.406  21.455  0.00  0.00    -0.287 OA
HETATM   17  C   UNK     0     -47.548   1.136  18.972  0.00  0.00     0.085 A 
HETATM   18  C   UNK     0     -47.713   0.490  17.747  0.00  0.00     0.077 A 
BRANCH   9  19
HETATM   19  O   UNK     0     -44.260  -0.463  16.984  0.00  0.00    -0.351 OA
HETATM   20  C   UNK     0     -43.878  -1.792  17.330  0.00  0.00     0.210 C 
ENDBRANCH   9  19
BRANCH  13  21
HETATM   21  C   UNK     0     -42.286   1.441  21.022  0.00  0.00    -0.002 A 
HETATM   22  C   UNK     0     -41.267   1.766  20.122  0.00  0.00     0.014 A 
HETATM   23  C   UNK     0     -39.938   1.783  20.544  0.00  0.00     0.001 A 
HETATM   24  C   UNK     0     -39.622   1.475  21.867  0.00  0.00     0.000 A 
HETATM   25  C   UNK     0     -40.636   1.149  22.769  0.00  0.00     0.001 A 
HETATM   26  C   UNK     0     -41.966   1.132  22.347  0.00  0.00     0.014 A 
ENDBRANCH  13  21
BRANCH  17  27
HETATM   27  O   UNK     0     -48.657   1.641  19.581  0.00  0.00    -0.360 OA
HETATM   28  H   UNK     0     -49.165   2.189  18.964  0.00  0.00     0.217 HD
ENDBRANCH  17  27
ENDBRANCH   7   8
ENDBRANCH   5   7
BRANCH   6  29
HETATM   29  C   UNK     0     -48.988  -4.445  17.372  0.00  0.00     0.172 C 
HETATM   30  O   UNK     0     -49.038  -4.358  18.591  0.00  0.00    -0.648 OA
BRANCH  29  31
HETATM   31  O   UNK     0     -48.724  -5.590  16.699  0.00  0.00    -0.774 OA
HETATM   32  H   UNK     0     -48.554  -5.426  15.747  0.00  0.00     0.167 HD
ENDBRANCH  29  31
ENDBRANCH   6  29
BRANCH   3  33
HETATM   33  O   UNK     0     -48.271  -0.574  13.478  0.00  0.00    -0.388 OA
HETATM   34  H   UNK     0     -49.156  -0.210  13.654  0.00  0.00     0.210 HD
ENDBRANCH   3  33
BRANCH   4  35
HETATM   35  O   UNK     0     -50.684  -4.451  14.921  0.00  0.00    -0.390 OA
HETATM   36  H   UNK     0     -50.979  -4.417  13.995  0.00  0.00     0.210 HD
ENDBRANCH   4  35
BRANCH   2  37
HETATM   37  O   UNK     0     -49.286  -3.222  12.687  0.00  0.00    -0.390 OA
HETATM   38  H   UNK     0     -49.761  -2.623  12.086  0.00  0.00     0.210 HD
ENDBRANCH   2  37
TORSDOF 10
ENDMDL
MODEL 8
REMARK VINA RESULT:      -7.2     15.227     17.244
REMARK  10 active torsions:
REMARK  status: ('A' for Active; 'I' for Inactive)
REMARK    1  A    between atoms: O_2  and  C_15 
REMARK    2  A    between atoms: O_2  and  C_18 
REMARK    3  A    between atoms: O_3  and  C_12 
REMARK    4  A    between atoms: O_4  and  C_13 
REMARK    5  A    between atoms: O_5  and  C_14 
REMARK    6  A    between atoms: O_6  and  C_17 
REMARK    7  A    between atoms: O_9  and  C_19 
REMARK    8  A    between atoms: O_10  and  C_23 
REMARK    9  A    between atoms: C_16  and  C_17 
REMARK   10  A    between atoms: C_25  and  C_27 
ROOT
HETATM    1  O   UNK     0     -45.433 -18.932  21.776  0.00  0.00    -0.340 OA
HETATM    2  C   UNK     0     -46.832 -17.975  19.456  0.00  0.00     0.183 C 
HETATM    3  C   UNK     0     -46.432 -17.054  20.609  0.00  0.00     0.205 C 
HETATM    4  C   UNK     0     -45.970 -19.238  19.426  0.00  0.00     0.189 C 
HETATM    5  C   UNK     0     -46.322 -17.827  21.924  0.00  0.00     0.299 C 
HETATM    6  C   UNK     0     -45.890 -19.870  20.809  0.00  0.00     0.253 C 
ENDROOT
BRANCH   5   7
HETATM    7  O   UNK     0     -45.823 -16.936  22.919  0.00  0.00    -0.315 OA
BRANCH   7   8
HETATM    8  C   UNK     0     -46.593 -16.769  24.032  0.00  0.00     0.111 A 
HETATM    9  C   UNK     0     -46.027 -16.317  25.224  0.00  0.00     0.137 A 
HETATM   10  C   UNK     0     -46.829 -16.150  26.355  0.00  0.00     0.129 A 
HETATM   11  O   UNK     0     -46.216 -15.704  27.497  0.00  0.00    -0.306 OA
HETATM   12  C   UNK     0     -48.191 -16.436  26.289  0.00  0.00     0.084 A 
HETATM   13  C   UNK     0     -46.989 -15.522  28.633  0.00  0.00     0.090 A 
HETATM   14  C   UNK     0     -48.307 -15.769  28.699  0.00  0.00     0.094 A 
HETATM   15  C   UNK     0     -49.013 -16.254  27.496  0.00  0.00     0.190 A 
HETATM   16  O   UNK     0     -50.214 -16.487  27.510  0.00  0.00    -0.287 OA
HETATM   17  C   UNK     0     -48.762 -16.889  25.098  0.00  0.00     0.085 A 
HETATM   18  C   UNK     0     -47.958 -17.055  23.970  0.00  0.00     0.077 A 
BRANCH   9  19
HETATM   19  O   UNK     0     -44.692 -16.038  25.281  0.00  0.00    -0.351 OA
HETATM   20  C   UNK     0     -43.819 -17.118  25.606  0.00  0.00     0.210 C 
ENDBRANCH   9  19
BRANCH  13  21
HETATM   21  C   UNK     0     -46.229 -15.046  29.806  0.00  0.00    -0.002 A 
HETATM   22  C   UNK     0     -46.833 -15.007  31.066  0.00  0.00     0.014 A 
HETATM   23  C   UNK     0     -46.115 -14.558  32.174  0.00  0.00     0.001 A 
HETATM   24  C   UNK     0     -44.791 -14.146  32.028  0.00  0.00     0.000 A 
HETATM   25  C   UNK     0     -44.184 -14.183  30.772  0.00  0.00     0.001 A 
HETATM   26  C   UNK     0     -44.902 -14.632  29.663  0.00  0.00     0.014 A 
ENDBRANCH  13  21
BRANCH  17  27
HETATM   27  O   UNK     0     -50.087 -17.183  24.984  0.00  0.00    -0.360 OA
HETATM   28  H   UNK     0     -50.211 -18.014  24.502  0.00  0.00     0.217 HD
ENDBRANCH  17  27
ENDBRANCH   7   8
ENDBRANCH   5   7
BRANCH   6  29
HETATM   29  C   UNK     0     -44.848 -20.941  20.849  0.00  0.00     0.172 C 
HETATM   30  O   UNK     0     -44.253 -21.377  19.874  0.00  0.00    -0.648 OA
BRANCH  29  31
HETATM   31  O   UNK     0     -44.653 -21.373  22.118  0.00  0.00    -0.774 OA
HETATM   32  H   UNK     0     -43.745 -21.722  22.252  0.00  0.00     0.167 HD
ENDBRANCH  29  31
ENDBRANCH   6  29
BRANCH   3  33
HETATM   33  O   UNK     0     -47.421 -16.039  20.769  0.00  0.00    -0.388 OA
HETATM   34  H   UNK     0     -47.099 -15.416  21.443  0.00  0.00     0.210 HD
ENDBRANCH   3  33
BRANCH   4  35
HETATM   35  O   UNK     0     -46.552 -20.179  18.525  0.00  0.00    -0.390 OA
HETATM   36  H   UNK     0     -47.516 -20.155  18.645  0.00  0.00     0.210 HD
ENDBRANCH   4  35
BRANCH   2  37
HETATM   37  O   UNK     0     -46.656 -17.290  18.215  0.00  0.00    -0.390 OA
HETATM   38  H   UNK     0     -47.293 -17.659  17.581  0.00  0.00     0.210 HD
ENDBRANCH   2  37
TORSDOF 10
ENDMDL
MODEL 9
REMARK VINA RESULT:      -7.2      3.004      7.777
REMARK  10 active torsions:
REMARK  status: ('A' for Active; 'I' for Inactive)
REMARK    1  A    between atoms: O_2  and  C_15 
REMARK    2  A    between atoms: O_2  and  C_18 
REMARK    3  A    between atoms: O_3  and  C_12 
REMARK    4  A    between atoms: O_4  and  C_13 
REMARK    5  A    between atoms: O_5  and  C_14 
REMARK    6  A    between atoms: O_6  and  C_17 
REMARK    7  A    between atoms: O_9  and  C_19 
REMARK    8  A    between atoms: O_10  and  C_23 
REMARK    9  A    between atoms: C_16  and  C_17 
REMARK   10  A    between atoms: C_25  and  C_27 
ROOT
HETATM    1  O   UNK     0     -49.898  -1.151  16.251  0.00  0.00    -0.340 OA
HETATM    2  C   UNK     0     -47.172  -0.410  16.774  0.00  0.00     0.183 C 
HETATM    3  C   UNK     0     -48.129  -0.846  17.884  0.00  0.00     0.205 C 
HETATM    4  C   UNK     0     -47.630  -0.923  15.408  0.00  0.00     0.189 C 
HETATM    5  C   UNK     0     -49.582  -0.555  17.507  0.00  0.00     0.299 C 
HETATM    6  C   UNK     0     -49.109  -0.628  15.190  0.00  0.00     0.253 C 
ENDROOT
BRANCH   5   7
HETATM    7  O   UNK     0     -50.419  -1.102  18.525  0.00  0.00    -0.315 OA
BRANCH   7   8
HETATM    8  C   UNK     0     -50.861  -2.378  18.332  0.00  0.00     0.111 A 
HETATM    9  C   UNK     0     -50.328  -3.433  19.073  0.00  0.00     0.137 A 
HETATM   10  C   UNK     0     -50.793  -4.733  18.864  0.00  0.00     0.129 A 
HETATM   11  O   UNK     0     -50.231  -5.727  19.622  0.00  0.00    -0.306 OA
HETATM   12  C   UNK     0     -51.786  -4.972  17.916  0.00  0.00     0.084 A 
HETATM   13  C   UNK     0     -50.678  -7.027  19.441  0.00  0.00     0.090 A 
HETATM   14  C   UNK     0     -51.622  -7.387  18.556  0.00  0.00     0.094 A 
HETATM   15  C   UNK     0     -52.256  -6.352  17.714  0.00  0.00     0.190 A 
HETATM   16  O   UNK     0     -53.123  -6.635  16.899  0.00  0.00    -0.287 OA
HETATM   17  C   UNK     0     -52.322  -3.919  17.172  0.00  0.00     0.085 A 
HETATM   18  C   UNK     0     -51.856  -2.621  17.383  0.00  0.00     0.077 A 
BRANCH   9  19
HETATM   19  O   UNK     0     -49.357  -3.190  20.000  0.00  0.00    -0.351 OA
HETATM   20  C   UNK     0     -49.786  -2.761  21.290  0.00  0.00     0.210 C 
ENDBRANCH   9  19
BRANCH  13  21
HETATM   21  C   UNK     0     -50.003  -8.019  20.301  0.00  0.00    -0.002 A 
HETATM   22  C   UNK     0     -48.713  -8.458  19.989  0.00  0.00     0.014 A 
HETATM   23  C   UNK     0     -48.075  -9.394  20.802  0.00  0.00     0.001 A 
HETATM   24  C   UNK     0     -48.723  -9.896  21.931  0.00  0.00     0.000 A 
HETATM   25  C   UNK     0     -50.011  -9.461  22.246  0.00  0.00     0.001 A 
HETATM   26  C   UNK     0     -50.649  -8.524  21.432  0.00  0.00     0.014 A 
ENDBRANCH  13  21
BRANCH  17  27
HETATM   27  O   UNK     0     -53.293  -4.102  16.233  0.00  0.00    -0.360 OA
HETATM   28  H   UNK     0     -53.805  -3.290  16.111  0.00  0.00     0.217 HD
ENDBRANCH  17  27
ENDBRANCH   7   8
ENDBRANCH   5   7
BRANCH   6  29
HETATM   29  C   UNK     0     -49.627  -1.350  13.988  0.00  0.00     0.172 C 
HETATM   30  O   UNK     0     -50.778  -1.295  13.579  0.00  0.00    -0.648 OA
BRANCH  29  31
HETATM   31  O   UNK     0     -48.646  -2.083  13.409  0.00  0.00    -0.774 OA
HETATM   32  H   UNK     0     -47.753  -1.761  13.655  0.00  0.00     0.167 HD
ENDBRANCH  29  31
ENDBRANCH   6  29
BRANCH   3  33
HETATM   33  O   UNK     0     -47.825  -0.130  19.079  0.00  0.00    -0.388 OA
HETATM   34  H   UNK     0     -48.466  -0.402  19.758  0.00  0.00     0.210 HD
ENDBRANCH   3  33
BRANCH   4  35
HETATM   35  O   UNK     0     -46.878  -0.270  14.387  0.00  0.00    -0.390 OA
HETATM   36  H   UNK     0     -46.629  -0.936  13.724  0.00  0.00     0.210 HD
ENDBRANCH   4  35
BRANCH   2  37
HETATM   37  O   UNK     0     -45.871  -0.941  17.031  0.00  0.00    -0.390 OA
HETATM   38  H   UNK     0     -45.342  -0.239  17.445  0.00  0.00     0.210 HD
ENDBRANCH   2  37
TORSDOF 10
ENDMDL
MODEL 10
REMARK VINA RESULT:      -7.1     16.485     17.953
REMARK  10 active torsions:
REMARK  status: ('A' for Active; 'I' for Inactive)
REMARK    1  A    between atoms: O_2  and  C_15 
REMARK    2  A    between atoms: O_2  and  C_18 
REMARK    3  A    between atoms: O_3  and  C_12 
REMARK    4  A    between atoms: O_4  and  C_13 
REMARK    5  A    between atoms: O_5  and  C_14 
REMARK    6  A    between atoms: O_6  and  C_17 
REMARK    7  A    between atoms: O_9  and  C_19 
REMARK    8  A    between atoms: O_10  and  C_23 
REMARK    9  A    between atoms: C_16  and  C_17 
REMARK   10  A    between atoms: C_25  and  C_27 
ROOT
HETATM    1  O   UNK     0     -46.907 -16.377  27.981  0.00  0.00    -0.340 OA
HETATM    2  C   UNK     0     -49.547 -16.225  26.860  0.00  0.00     0.183 C 
HETATM    3  C   UNK     0     -48.566 -17.340  26.495  0.00  0.00     0.205 C 
HETATM    4  C   UNK     0     -49.194 -15.588  28.204  0.00  0.00     0.189 C 
HETATM    5  C   UNK     0     -47.118 -16.879  26.663  0.00  0.00     0.299 C 
HETATM    6  C   UNK     0     -47.712 -15.239  28.263  0.00  0.00     0.253 C 
ENDROOT
BRANCH   5   7
HETATM    7  O   UNK     0     -46.269 -18.002  26.433  0.00  0.00    -0.315 OA
BRANCH   7   8
HETATM    8  C   UNK     0     -45.325 -17.865  25.458  0.00  0.00     0.111 A 
HETATM    9  C   UNK     0     -45.507 -18.458  24.208  0.00  0.00     0.137 A 
HETATM   10  C   UNK     0     -44.531 -18.308  23.220  0.00  0.00     0.129 A 
HETATM   11  O   UNK     0     -44.765 -18.914  22.013  0.00  0.00    -0.306 OA
HETATM   12  C   UNK     0     -43.381 -17.568  23.485  0.00  0.00     0.084 A 
HETATM   13  C   UNK     0     -43.817 -18.777  21.011  0.00  0.00     0.090 A 
HETATM   14  C   UNK     0     -42.667 -18.096  21.145  0.00  0.00     0.094 A 
HETATM   15  C   UNK     0     -42.368 -17.427  22.427  0.00  0.00     0.190 A 
HETATM   16  O   UNK     0     -41.335 -16.793  22.591  0.00  0.00    -0.287 OA
HETATM   17  C   UNK     0     -43.196 -16.973  24.735  0.00  0.00     0.085 A 
HETATM   18  C   UNK     0     -44.172 -17.124  25.720  0.00  0.00     0.077 A 
BRANCH   9  19
HETATM   19  O   UNK     0     -46.636 -19.182  23.956  0.00  0.00    -0.351 OA
HETATM   20  C   UNK     0     -46.597 -20.571  24.271  0.00  0.00     0.210 C 
ENDBRANCH   9  19
BRANCH  13  21
HETATM   21  C   UNK     0     -44.165 -19.473  19.756  0.00  0.00    -0.002 A 
HETATM   22  C   UNK     0     -43.194 -20.206  19.067  0.00  0.00     0.014 A 
HETATM   23  C   UNK     0     -43.523 -20.865  17.882  0.00  0.00     0.001 A 
HETATM   24  C   UNK     0     -44.823 -20.794  17.382  0.00  0.00     0.000 A 
HETATM   25  C   UNK     0     -45.794 -20.063  18.066  0.00  0.00     0.001 A 
HETATM   26  C   UNK     0     -45.466 -19.404  19.251  0.00  0.00     0.014 A 
ENDBRANCH  13  21
BRANCH  17  27
HETATM   27  O   UNK     0     -42.089 -16.240  25.043  0.00  0.00    -0.360 OA
HETATM   28  H   UNK     0     -41.534 -16.118  24.258  0.00  0.00     0.217 HD
ENDBRANCH  17  27
ENDBRANCH   7   8
ENDBRANCH   5   7
BRANCH   6  29
HETATM   29  C   UNK     0     -47.306 -14.865  29.652  0.00  0.00     0.172 C 
HETATM   30  O   UNK     0     -47.705 -13.881  30.259  0.00  0.00    -0.648 OA
BRANCH  29  31
HETATM   31  O   UNK     0     -46.425 -15.765  30.152  0.00  0.00    -0.774 OA
HETATM   32  H   UNK     0     -46.302 -15.659  31.120  0.00  0.00     0.167 HD
ENDBRANCH  29  31
ENDBRANCH   6  29
BRANCH   3  33
HETATM   33  O   UNK     0     -48.761 -17.715  25.133  0.00  0.00    -0.388 OA
HETATM   34  H   UNK     0     -48.324 -18.573  24.998  0.00  0.00     0.210 HD
ENDBRANCH   3  33
BRANCH   4  35
HETATM   35  O   UNK     0     -49.953 -14.391  28.367  0.00  0.00    -0.390 OA
HETATM   36  H   UNK     0     -50.619 -14.547  29.057  0.00  0.00     0.210 HD
ENDBRANCH   4  35
BRANCH   2  37
HETATM   37  O   UNK     0     -50.866 -16.765  26.959  0.00  0.00    -0.390 OA
HETATM   38  H   UNK     0     -51.448 -16.232  26.391  0.00  0.00     0.210 HD
ENDBRANCH   2  37
TORSDOF 10
ENDMDL
