MODEL 1
REMARK VINA RESULT:      -7.2      0.000      0.000
REMARK  13 active torsions:
REMARK  status: ('A' for Active; 'I' for Inactive)
REMARK    1  A    between atoms: C_5  and  N_6 
REMARK    2  A    between atoms: C_9  and  N_10 
REMARK    3  A    between atoms: N_10  and  C_11 
REMARK    4  A    between atoms: C_11  and  C_12 
REMARK    5  A    between atoms: C_12  and  C_13 
REMARK    6  A    between atoms: C_13  and  C_14 
REMARK    7  A    between atoms: C_14  and  C_15 
REMARK    8  A    between atoms: C_15  and  C_16 
REMARK    9  A    between atoms: C_16  and  N_17 
REMARK       I    between atoms: N_17  and  C_18 
REMARK   10  A    between atoms: C_18  and  C_20 
REMARK   11  A    between atoms: C_25  and  N_26 
REMARK       I    between atoms: N_26  and  C_27 
REMARK   12  A    between atoms: C_27  and  C_29 
REMARK   13  A    between atoms: C_29  and  C_30 
ROOT
HETATM    1  O   MOL     1     -50.414   0.469  17.519  1.00 -0.03    -0.273 OA
HETATM    2  C   MOL     1     -50.784  -0.142  18.506  1.00 -0.41     0.224 C 
HETATM    3  C   MOL     1     -52.153  -0.779  18.578  1.00 -0.27     0.106 C 
HETATM    4  C   MOL     1     -52.157  -2.038  19.449  1.00 -0.23     0.044 C 
HETATM    5  C   MOL     1     -51.659  -1.591  20.827  1.00 -0.30     0.180 C 
HETATM    6  C   MOL     1     -50.280  -0.972  20.746  1.00 -0.49     0.247 C 
HETATM    7  O   MOL     1     -49.478  -1.078  21.659  1.00 -0.12    -0.271 OA
HETATM    8  N   MOL     1     -50.008  -0.306  19.602  1.00 -0.04    -0.296 N 
HETATM    9  HN  MOL     1     -49.210   0.065  19.560  1.00 -0.27     0.171 HD
ENDROOT
BRANCH   5  10
HETATM   10  N   MOL     1     -51.691  -2.708  21.782  1.00  0.05    -0.337 N 
HETATM   11  C   MOL     1     -50.985  -3.977  21.536  1.00 -0.25     0.138 C 
HETATM   12  C   MOL     1     -51.963  -4.789  22.405  1.00 -0.27     0.070 C 
HETATM   13  C   MOL     1     -51.785  -6.253  22.744  1.00 -0.20     0.011 C 
HETATM   14  C   MOL     1     -52.141  -3.931  23.661  1.00 -0.40     0.112 C 
HETATM   15  C   MOL     1     -52.437  -6.761  23.802  1.00 -0.28     0.025 C 
HETATM   16  C   MOL     1     -53.301  -5.902  24.614  1.00 -0.47    -0.001 C 
HETATM   17  C   MOL     1     -53.168  -4.578  24.553  1.00 -0.52    -0.012 C 
HETATM   18  C   MOL     1     -52.384  -2.641  22.930  1.00 -0.44     0.229 C 
HETATM   19  O   MOL     1     -53.084  -1.714  23.312  1.00 -0.63    -0.273 OA
BRANCH  13  20
HETATM   20  N   MOL     1     -50.970  -6.924  21.879  1.00  0.04    -0.393 N 
HETATM   21  HN  MOL     1     -50.099  -6.826  21.964  1.00 -0.01     0.159 HD
BRANCH  20  22
HETATM   22  C   MOL     1     -51.460  -8.120  21.181  1.00 -0.24     0.119 C 
BRANCH  22  23
HETATM   23  C   MOL     1     -51.048  -8.198  19.702  1.00 -0.09     0.020 C 
BRANCH  23  24
HETATM   24  C   MOL     1     -49.546  -7.889  19.609  1.00 -0.19     0.002 C 
BRANCH  24  25
HETATM   25  C   MOL     1     -48.972  -8.414  18.285  1.00 -0.35     0.002 C 
BRANCH  25  26
HETATM   26  C   MOL     1     -48.744  -7.220  17.348  1.00 -0.42     0.020 C 
BRANCH  26  27
HETATM   27  C   MOL     1     -48.658  -5.920  18.160  1.00 -0.29     0.123 C 
BRANCH  27  28
HETATM   28  N   MOL     1     -48.078  -4.873  17.306  1.00 -0.04    -0.357 N 
HETATM   29  C   MOL     1     -48.288  -3.571  17.600  1.00 -0.29     0.254 C 
HETATM   30  O   MOL     1     -48.955  -3.206  18.565  1.00 -0.19    -0.268 OA
HETATM   31  HN  MOL     1     -47.579  -5.103  16.620  1.00 -0.09     0.162 HD
BRANCH  29  32
HETATM   32  C   MOL     1     -47.715  -2.504  16.732  1.00 -0.21     0.061 A 
HETATM   33  C   MOL     1     -46.371  -2.190  16.791  1.00 -0.36     0.038 A 
HETATM   34  C   MOL     1     -45.842  -1.226  15.972  1.00 -0.38     0.117 A 
HETATM   35  N   MOL     1     -46.561  -0.528  15.074  1.00 -0.12    -0.271 NA
HETATM   36  C   MOL     1     -47.867  -0.835  15.020  1.00 -0.27     0.146 A 
HETATM   37  C   MOL     1     -48.480  -1.791  15.812  1.00 -0.14     0.068 A 
BRANCH  37  38
HETATM   38  N   MOL     1     -49.856  -2.023  15.691  1.00  0.07    -0.325 N 
HETATM   39  C   MOL     1     -50.445  -2.847  14.801  1.00 -0.29     0.226 C 
HETATM   40  O   MOL     1     -49.847  -3.535  13.987  1.00 -0.10    -0.273 OA
HETATM   41  HN  MOL     1     -50.378  -1.592  16.251  1.00  0.05     0.169 HD
BRANCH  39  42
HETATM   42  C   MOL     1     -51.955  -2.873  14.922  1.00 -0.34     0.141 C 
BRANCH  42  43
HETATM   43  C   MOL     1     -52.407  -4.130  15.642  1.00 -0.21    -0.048 A 
HETATM   44  C   MOL     1     -51.744  -4.557  16.771  1.00 -0.31     0.007 A 
HETATM   45  C   MOL     1     -52.155  -5.697  17.424  1.00 -0.36     0.002 A 
HETATM   46  C   MOL     1     -53.230  -6.414  16.949  1.00 -0.30     0.024 A 
HETATM   47  C   MOL     1     -53.895  -5.989  15.821  1.00 -0.25     0.034 A 
HETATM   48 CL   MOL     1     -55.254  -6.892  15.220  1.00 -0.85    -0.084 Cl
HETATM   49  C   MOL     1     -53.483  -4.847  15.168  1.00 -0.22     0.031 A 
ENDBRANCH  42  43
ENDBRANCH  39  42
ENDBRANCH  37  38
ENDBRANCH  29  32
ENDBRANCH  27  28
ENDBRANCH  26  27
ENDBRANCH  25  26
ENDBRANCH  24  25
ENDBRANCH  23  24
ENDBRANCH  22  23
ENDBRANCH  20  22
ENDBRANCH  13  20
ENDBRANCH   5  10
TORSDOF 13
ENDMDL
MODEL 2
REMARK VINA RESULT:      -7.0      3.076      6.074
REMARK  13 active torsions:
REMARK  status: ('A' for Active; 'I' for Inactive)
REMARK    1  A    between atoms: C_5  and  N_6 
REMARK    2  A    between atoms: C_9  and  N_10 
REMARK    3  A    between atoms: N_10  and  C_11 
REMARK    4  A    between atoms: C_11  and  C_12 
REMARK    5  A    between atoms: C_12  and  C_13 
REMARK    6  A    between atoms: C_13  and  C_14 
REMARK    7  A    between atoms: C_14  and  C_15 
REMARK    8  A    between atoms: C_15  and  C_16 
REMARK    9  A    between atoms: C_16  and  N_17 
REMARK       I    between atoms: N_17  and  C_18 
REMARK   10  A    between atoms: C_18  and  C_20 
REMARK   11  A    between atoms: C_25  and  N_26 
REMARK       I    between atoms: N_26  and  C_27 
REMARK   12  A    between atoms: C_27  and  C_29 
REMARK   13  A    between atoms: C_29  and  C_30 
ROOT
HETATM    1  O   MOL     1     -44.184  -9.626  19.116  1.00 -0.03    -0.273 OA
HETATM    2  C   MOL     1     -45.290  -9.442  19.593  1.00 -0.41     0.224 C 
HETATM    3  C   MOL     1     -45.498  -8.548  20.795  1.00 -0.27     0.106 C 
HETATM    4  C   MOL     1     -46.867  -7.863  20.773  1.00 -0.23     0.044 C 
HETATM    5  C   MOL     1     -47.896  -8.995  20.715  1.00 -0.30     0.180 C 
HETATM    6  C   MOL     1     -47.692  -9.872  19.499  1.00 -0.49     0.247 C 
HETATM    7  O   MOL     1     -48.629 -10.413  18.937  1.00 -0.12    -0.271 OA
HETATM    8  N   MOL     1     -46.411 -10.007  19.088  1.00 -0.04    -0.296 N 
HETATM    9  HN  MOL     1     -46.291 -10.527  18.387  1.00 -0.27     0.171 HD
ENDROOT
BRANCH   5  10
HETATM   10  N   MOL     1     -49.265  -8.460  20.768  1.00  0.05    -0.337 N 
HETATM   11  C   MOL     1     -49.683  -7.285  19.985  1.00 -0.25     0.138 C 
HETATM   12  C   MOL     1     -50.788  -6.903  20.987  1.00 -0.27     0.070 C 
HETATM   13  C   MOL     1     -51.789  -5.790  20.765  1.00 -0.20     0.011 C 
HETATM   14  C   MOL     1     -51.476  -8.234  21.303  1.00 -0.40     0.112 C 
HETATM   15  C   MOL     1     -52.931  -5.790  21.472  1.00 -0.28     0.025 C 
HETATM   16  C   MOL     1     -53.197  -6.858  22.436  1.00 -0.47    -0.001 C 
HETATM   17  C   MOL     1     -52.521  -8.004  22.364  1.00 -0.52    -0.012 C 
HETATM   18  C   MOL     1     -50.211  -9.004  21.550  1.00 -0.44     0.229 C 
HETATM   19  O   MOL     1     -50.075  -9.944  22.322  1.00 -0.63    -0.273 OA
BRANCH  13  20
HETATM   20  N   MOL     1     -51.384  -4.858  19.854  1.00  0.04    -0.393 N 
HETATM   21  HN  MOL     1     -50.532  -4.635  19.836  1.00 -0.01     0.159 HD
BRANCH  20  22
HETATM   22  C   MOL     1     -52.185  -4.608  18.648  1.00 -0.24     0.119 C 
BRANCH  22  23
HETATM   23  C   MOL     1     -52.412  -5.853  17.775  1.00 -0.09     0.020 C 
BRANCH  23  24
HETATM   24  C   MOL     1     -52.513  -5.398  16.312  1.00 -0.19     0.002 C 
BRANCH  24  25
HETATM   25  C   MOL     1     -52.293  -3.882  16.207  1.00 -0.35     0.002 C 
BRANCH  25  26
HETATM   26  C   MOL     1     -51.170  -3.625  15.192  1.00 -0.42     0.020 C 
BRANCH  26  27
HETATM   27  C   MOL     1     -49.931  -4.455  15.555  1.00 -0.29     0.123 C 
BRANCH  27  28
HETATM   28  N   MOL     1     -48.789  -3.544  15.721  1.00 -0.04    -0.357 N 
HETATM   29  C   MOL     1     -48.397  -3.172  16.960  1.00 -0.29     0.254 C 
HETATM   30  O   MOL     1     -48.958  -3.565  17.980  1.00 -0.19    -0.268 OA
HETATM   31  HN  MOL     1     -48.355  -3.263  15.010  1.00 -0.09     0.162 HD
BRANCH  29  32
HETATM   32  C   MOL     1     -47.250  -2.238  17.135  1.00 -0.21     0.061 A 
HETATM   33  C   MOL     1     -45.950  -2.707  17.133  1.00 -0.36     0.038 A 
HETATM   34  C   MOL     1     -44.895  -1.841  17.269  1.00 -0.38     0.117 A 
HETATM   35  N   MOL     1     -45.032  -0.510  17.411  1.00 -0.12    -0.271 NA
HETATM   36  C   MOL     1     -46.296  -0.058  17.413  1.00 -0.27     0.146 A 
HETATM   37  C   MOL     1     -47.415  -0.864  17.285  1.00 -0.14     0.068 A 
BRANCH  37  38
HETATM   38  N   MOL     1     -48.695  -0.295  17.319  1.00  0.07    -0.325 N 
HETATM   39  C   MOL     1     -49.367   0.078  18.427  1.00 -0.29     0.226 C 
HETATM   40  O   MOL     1     -48.932  -0.004  19.566  1.00 -0.10    -0.273 OA
HETATM   41  HN  MOL     1     -49.090  -0.170  16.545  1.00  0.05     0.169 HD
BRANCH  39  42
HETATM   42  C   MOL     1     -50.735   0.655  18.128  1.00 -0.34     0.141 C 
BRANCH  42  43
HETATM   43  C   MOL     1     -51.651   0.494  19.327  1.00 -0.21    -0.048 A 
HETATM   44  C   MOL     1     -51.849   1.546  20.193  1.00 -0.31     0.007 A 
HETATM   45  C   MOL     1     -52.681   1.400  21.280  1.00 -0.36     0.002 A 
HETATM   46  C   MOL     1     -53.316   0.200  21.505  1.00 -0.30     0.024 A 
HETATM   47  C   MOL     1     -53.120  -0.854  20.641  1.00 -0.25     0.034 A 
HETATM   48 CL   MOL     1     -53.922  -2.371  20.924  1.00 -0.85    -0.084 Cl
HETATM   49  C   MOL     1     -52.288  -0.706  19.553  1.00 -0.22     0.031 A 
ENDBRANCH  42  43
ENDBRANCH  39  42
ENDBRANCH  37  38
ENDBRANCH  29  32
ENDBRANCH  27  28
ENDBRANCH  26  27
ENDBRANCH  25  26
ENDBRANCH  24  25
ENDBRANCH  23  24
ENDBRANCH  22  23
ENDBRANCH  20  22
ENDBRANCH  13  20
ENDBRANCH   5  10
TORSDOF 13
ENDMDL
MODEL 3
REMARK VINA RESULT:      -6.9      3.340      8.488
REMARK  13 active torsions:
REMARK  status: ('A' for Active; 'I' for Inactive)
REMARK    1  A    between atoms: C_5  and  N_6 
REMARK    2  A    between atoms: C_9  and  N_10 
REMARK    3  A    between atoms: N_10  and  C_11 
REMARK    4  A    between atoms: C_11  and  C_12 
REMARK    5  A    between atoms: C_12  and  C_13 
REMARK    6  A    between atoms: C_13  and  C_14 
REMARK    7  A    between atoms: C_14  and  C_15 
REMARK    8  A    between atoms: C_15  and  C_16 
REMARK    9  A    between atoms: C_16  and  N_17 
REMARK       I    between atoms: N_17  and  C_18 
REMARK   10  A    between atoms: C_18  and  C_20 
REMARK   11  A    between atoms: C_25  and  N_26 
REMARK       I    between atoms: N_26  and  C_27 
REMARK   12  A    between atoms: C_27  and  C_29 
REMARK   13  A    between atoms: C_29  and  C_30 
ROOT
HETATM    1  O   MOL     1     -42.400  -0.387  19.213  1.00 -0.03    -0.273 OA
HETATM    2  C   MOL     1     -43.451  -0.830  18.783  1.00 -0.41     0.224 C 
HETATM    3  C   MOL     1     -44.639  -1.072  19.687  1.00 -0.27     0.106 C 
HETATM    4  C   MOL     1     -45.968  -0.885  18.951  1.00 -0.23     0.044 C 
HETATM    5  C   MOL     1     -45.933  -1.866  17.775  1.00 -0.30     0.180 C 
HETATM    6  C   MOL     1     -44.751  -1.603  16.867  1.00 -0.49     0.247 C 
HETATM    7  O   MOL     1     -44.811  -1.807  15.666  1.00 -0.12    -0.271 OA
HETATM    8  N   MOL     1     -43.642  -1.131  17.478  1.00 -0.04    -0.296 N 
HETATM    9  HN  MOL     1     -42.950  -0.990  16.952  1.00 -0.27     0.171 HD
ENDROOT
BRANCH   5  10
HETATM   10  N   MOL     1     -47.200  -1.835  17.030  1.00  0.05    -0.337 N 
HETATM   11  C   MOL     1     -47.933  -3.061  16.669  1.00 -0.25     0.138 C 
HETATM   12  C   MOL     1     -48.589  -2.408  15.438  1.00 -0.27     0.070 C 
HETATM   13  C   MOL     1     -49.646  -3.076  14.584  1.00 -0.20     0.011 C 
HETATM   14  C   MOL     1     -49.050  -1.040  15.948  1.00 -0.40     0.112 C 
HETATM   15  C   MOL     1     -50.432  -2.314  13.807  1.00 -0.28     0.025 C 
HETATM   16  C   MOL     1     -50.268  -0.860  13.797  1.00 -0.47    -0.001 C 
HETATM   17  C   MOL     1     -49.623  -0.257  14.795  1.00 -0.52    -0.012 C 
HETATM   18  C   MOL     1     -47.755  -0.684  16.619  1.00 -0.44     0.229 C 
HETATM   19  O   MOL     1     -47.297   0.442  16.757  1.00 -0.63    -0.273 OA
BRANCH  13  20
HETATM   20  N   MOL     1     -49.656  -4.437  14.684  1.00  0.04    -0.393 N 
HETATM   21  HN  MOL     1     -48.884  -4.863  14.674  1.00 -0.01     0.159 HD
BRANCH  20  22
HETATM   22  C   MOL     1     -50.811  -5.124  15.277  1.00 -0.24     0.119 C 
BRANCH  22  23
HETATM   23  C   MOL     1     -50.735  -5.278  16.805  1.00 -0.09     0.020 C 
BRANCH  23  24
HETATM   24  C   MOL     1     -50.367  -6.735  17.120  1.00 -0.19     0.002 C 
BRANCH  24  25
HETATM   25  C   MOL     1     -49.363  -6.796  18.280  1.00 -0.35     0.002 C 
BRANCH  25  26
HETATM   26  C   MOL     1     -49.650  -8.059  19.104  1.00 -0.42     0.020 C 
BRANCH  26  27
HETATM   27  C   MOL     1     -51.157  -8.183  19.372  1.00 -0.29     0.123 C 
BRANCH  27  28
HETATM   28  N   MOL     1     -51.478  -7.431  20.593  1.00 -0.04    -0.357 N 
HETATM   29  C   MOL     1     -51.560  -8.074  21.779  1.00 -0.29     0.254 C 
HETATM   30  O   MOL     1     -51.376  -9.283  21.894  1.00 -0.19    -0.268 OA
HETATM   31  HN  MOL     1     -51.595  -6.561  20.546  1.00 -0.09     0.162 HD
BRANCH  29  32
HETATM   32  C   MOL     1     -51.899  -7.321  23.019  1.00 -0.21     0.061 A 
HETATM   33  C   MOL     1     -53.190  -6.886  23.252  1.00 -0.36     0.038 A 
HETATM   34  C   MOL     1     -53.504  -6.215  24.406  1.00 -0.38     0.117 A 
HETATM   35  N   MOL     1     -52.614  -5.934  25.375  1.00 -0.12    -0.271 NA
HETATM   36  C   MOL     1     -51.360  -6.358  25.145  1.00 -0.27     0.146 A 
HETATM   37  C   MOL     1     -50.960  -7.037  24.007  1.00 -0.14     0.068 A 
BRANCH  37  38
HETATM   38  N   MOL     1     -49.622  -7.419  23.855  1.00  0.07    -0.325 N 
HETATM   39  C   MOL     1     -48.744  -6.897  22.974  1.00 -0.29     0.226 C 
HETATM   40  O   MOL     1     -48.994  -5.987  22.198  1.00 -0.10    -0.273 OA
HETATM   41  HN  MOL     1     -49.332  -8.056  24.385  1.00  0.05     0.169 HD
BRANCH  39  42
HETATM   42  C   MOL     1     -47.371  -7.534  23.052  1.00 -0.34     0.141 C 
BRANCH  42  43
HETATM   43  C   MOL     1     -47.172  -8.505  21.903  1.00 -0.21    -0.048 A 
HETATM   44  C   MOL     1     -47.835  -9.712  21.894  1.00 -0.31     0.007 A 
HETATM   45  C   MOL     1     -47.654 -10.591  20.851  1.00 -0.36     0.002 A 
HETATM   46  C   MOL     1     -46.811 -10.266  19.813  1.00 -0.30     0.024 A 
HETATM   47  C   MOL     1     -46.148  -9.059  19.819  1.00 -0.25     0.034 A 
HETATM   48 CL   MOL     1     -45.081  -8.646  18.508  1.00 -0.85    -0.084 Cl
HETATM   49  C   MOL     1     -46.329  -8.179  20.864  1.00 -0.22     0.031 A 
ENDBRANCH  42  43
ENDBRANCH  39  42
ENDBRANCH  37  38
ENDBRANCH  29  32
ENDBRANCH  27  28
ENDBRANCH  26  27
ENDBRANCH  25  26
ENDBRANCH  24  25
ENDBRANCH  23  24
ENDBRANCH  22  23
ENDBRANCH  20  22
ENDBRANCH  13  20
ENDBRANCH   5  10
TORSDOF 13
ENDMDL
MODEL 4
REMARK VINA RESULT:      -6.8      3.807      7.054
REMARK  13 active torsions:
REMARK  status: ('A' for Active; 'I' for Inactive)
REMARK    1  A    between atoms: C_5  and  N_6 
REMARK    2  A    between atoms: C_9  and  N_10 
REMARK    3  A    between atoms: N_10  and  C_11 
REMARK    4  A    between atoms: C_11  and  C_12 
REMARK    5  A    between atoms: C_12  and  C_13 
REMARK    6  A    between atoms: C_13  and  C_14 
REMARK    7  A    between atoms: C_14  and  C_15 
REMARK    8  A    between atoms: C_15  and  C_16 
REMARK    9  A    between atoms: C_16  and  N_17 
REMARK       I    between atoms: N_17  and  C_18 
REMARK   10  A    between atoms: C_18  and  C_20 
REMARK   11  A    between atoms: C_25  and  N_26 
REMARK       I    between atoms: N_26  and  C_27 
REMARK   12  A    between atoms: C_27  and  C_29 
REMARK   13  A    between atoms: C_29  and  C_30 
ROOT
HETATM    1  O   MOL     1     -43.234 -10.982  18.921  1.00 -0.03    -0.273 OA
HETATM    2  C   MOL     1     -44.326 -10.539  19.233  1.00 -0.41     0.224 C 
HETATM    3  C   MOL     1     -44.496  -9.115  19.712  1.00 -0.27     0.106 C 
HETATM    4  C   MOL     1     -45.865  -8.541  19.335  1.00 -0.23     0.044 C 
HETATM    5  C   MOL     1     -46.896  -9.484  19.962  1.00 -0.30     0.180 C 
HETATM    6  C   MOL     1     -46.729 -10.902  19.462  1.00 -0.49     0.247 C 
HETATM    7  O   MOL     1     -47.683 -11.651  19.333  1.00 -0.12    -0.271 OA
HETATM    8  N   MOL     1     -45.462 -11.271  19.171  1.00 -0.04    -0.296 N 
HETATM    9  HN  MOL     1     -45.363 -12.100  18.891  1.00 -0.27     0.171 HD
ENDROOT
BRANCH   5  10
HETATM   10  N   MOL     1     -48.263  -8.991  19.733  1.00  0.05    -0.337 N 
HETATM   11  C   MOL     1     -48.698  -8.450  18.434  1.00 -0.25     0.138 C 
HETATM   12  C   MOL     1     -49.777  -7.556  19.071  1.00 -0.27     0.070 C 
HETATM   13  C   MOL     1     -50.782  -6.743  18.284  1.00 -0.20     0.011 C 
HETATM   14  C   MOL     1     -50.460  -8.471  20.092  1.00 -0.40     0.112 C 
HETATM   15  C   MOL     1     -51.906  -6.330  18.891  1.00 -0.28     0.025 C 
HETATM   16  C   MOL     1     -52.150  -6.671  20.293  1.00 -0.47    -0.001 C 
HETATM   17  C   MOL     1     -51.478  -7.670  20.862  1.00 -0.52    -0.012 C 
HETATM   18  C   MOL     1     -49.190  -8.989  20.704  1.00 -0.44     0.229 C 
HETATM   19  O   MOL     1     -49.036  -9.337  21.866  1.00 -0.63    -0.273 OA
BRANCH  13  20
HETATM   20  N   MOL     1     -50.398  -6.487  16.999  1.00  0.04    -0.393 N 
HETATM   21  HN  MOL     1     -49.928  -7.099  16.574  1.00 -0.01     0.159 HD
BRANCH  20  22
HETATM   22  C   MOL     1     -51.131  -5.502  16.192  1.00 -0.24     0.119 C 
BRANCH  22  23
HETATM   23  C   MOL     1     -50.250  -4.717  15.207  1.00 -0.09     0.020 C 
BRANCH  23  24
HETATM   24  C   MOL     1     -49.972  -3.334  15.813  1.00 -0.19     0.002 C 
BRANCH  24  25
HETATM   25  C   MOL     1     -49.778  -2.291  14.702  1.00 -0.35     0.002 C 
BRANCH  25  26
HETATM   26  C   MOL     1     -48.562  -1.423  15.059  1.00 -0.42     0.020 C 
BRANCH  26  27
HETATM   27  C   MOL     1     -47.285  -2.274  15.048  1.00 -0.29     0.123 C 
BRANCH  27  28
HETATM   28  N   MOL     1     -46.317  -1.676  15.979  1.00 -0.04    -0.357 N 
HETATM   29  C   MOL     1     -46.084  -2.258  17.176  1.00 -0.29     0.254 C 
HETATM   30  O   MOL     1     -46.652  -3.286  17.538  1.00 -0.19    -0.268 OA
HETATM   31  HN  MOL     1     -45.880  -0.952  15.740  1.00 -0.09     0.162 HD
BRANCH  29  32
HETATM   32  C   MOL     1     -45.115  -1.650  18.131  1.00 -0.21     0.061 A 
HETATM   33  C   MOL     1     -43.757  -1.864  17.992  1.00 -0.36     0.038 A 
HETATM   34  C   MOL     1     -42.865  -1.282  18.856  1.00 -0.38     0.117 A 
HETATM   35  N   MOL     1     -43.225  -0.482  19.877  1.00 -0.12    -0.271 NA
HETATM   36  C   MOL     1     -44.546  -0.277  20.009  1.00 -0.27     0.146 A 
HETATM   37  C   MOL     1     -45.510  -0.829  19.183  1.00 -0.14     0.068 A 
BRANCH  37  38
HETATM   38  N   MOL     1     -46.866  -0.567  19.418  1.00  0.07    -0.325 N 
HETATM   39  C   MOL     1     -47.660   0.227  18.672  1.00 -0.29     0.226 C 
HETATM   40  O   MOL     1     -47.307   0.812  17.658  1.00 -0.10    -0.273 OA
HETATM   41  HN  MOL     1     -47.227  -0.961  20.115  1.00  0.05     0.169 HD
BRANCH  39  42
HETATM   42  C   MOL     1     -49.080   0.309  19.195  1.00 -0.34     0.141 C 
BRANCH  42  43
HETATM   43  C   MOL     1     -49.504  -1.022  19.787  1.00 -0.21    -0.048 A 
HETATM   44  C   MOL     1     -49.608  -2.135  18.984  1.00 -0.31     0.007 A 
HETATM   45  C   MOL     1     -49.991  -3.343  19.522  1.00 -0.36     0.002 A 
HETATM   46  C   MOL     1     -50.271  -3.440  20.867  1.00 -0.30     0.024 A 
HETATM   47  C   MOL     1     -50.166  -2.329  21.673  1.00 -0.25     0.034 A 
HETATM   48 CL   MOL     1     -50.518  -2.450  23.371  1.00 -0.85    -0.084 Cl
HETATM   49  C   MOL     1     -49.782  -1.121  21.133  1.00 -0.22     0.031 A 
ENDBRANCH  42  43
ENDBRANCH  39  42
ENDBRANCH  37  38
ENDBRANCH  29  32
ENDBRANCH  27  28
ENDBRANCH  26  27
ENDBRANCH  25  26
ENDBRANCH  24  25
ENDBRANCH  23  24
ENDBRANCH  22  23
ENDBRANCH  20  22
ENDBRANCH  13  20
ENDBRANCH   5  10
TORSDOF 13
ENDMDL
MODEL 5
REMARK VINA RESULT:      -6.8      2.849      7.844
REMARK  13 active torsions:
REMARK  status: ('A' for Active; 'I' for Inactive)
REMARK    1  A    between atoms: C_5  and  N_6 
REMARK    2  A    between atoms: C_9  and  N_10 
REMARK    3  A    between atoms: N_10  and  C_11 
REMARK    4  A    between atoms: C_11  and  C_12 
REMARK    5  A    between atoms: C_12  and  C_13 
REMARK    6  A    between atoms: C_13  and  C_14 
REMARK    7  A    between atoms: C_14  and  C_15 
REMARK    8  A    between atoms: C_15  and  C_16 
REMARK    9  A    between atoms: C_16  and  N_17 
REMARK       I    between atoms: N_17  and  C_18 
REMARK   10  A    between atoms: C_18  and  C_20 
REMARK   11  A    between atoms: C_25  and  N_26 
REMARK       I    between atoms: N_26  and  C_27 
REMARK   12  A    between atoms: C_27  and  C_29 
REMARK   13  A    between atoms: C_29  and  C_30 
ROOT
HETATM    1  O   MOL     1     -43.861   0.938  18.207  1.00 -0.03    -0.273 OA
HETATM    2  C   MOL     1     -44.864   0.418  17.749  1.00 -0.41     0.224 C 
HETATM    3  C   MOL     1     -44.794  -0.569  16.605  1.00 -0.27     0.106 C 
HETATM    4  C   MOL     1     -45.912  -1.612  16.676  1.00 -0.23     0.044 C 
HETATM    5  C   MOL     1     -47.221  -0.818  16.669  1.00 -0.30     0.180 C 
HETATM    6  C   MOL     1     -47.290   0.152  17.828  1.00 -0.49     0.247 C 
HETATM    7  O   MOL     1     -48.349   0.437  18.361  1.00 -0.12    -0.271 OA
HETATM    8  N   MOL     1     -46.105   0.670  18.224  1.00 -0.04    -0.296 N 
HETATM    9  HN  MOL     1     -46.147   1.244  18.890  1.00 -0.27     0.171 HD
ENDROOT
BRANCH   5  10
HETATM   10  N   MOL     1     -48.381  -1.722  16.656  1.00  0.05    -0.337 N 
HETATM   11  C   MOL     1     -48.343  -3.062  17.268  1.00 -0.25     0.138 C 
HETATM   12  C   MOL     1     -49.425  -3.617  16.324  1.00 -0.27     0.070 C 
HETATM   13  C   MOL     1     -50.037  -4.996  16.450  1.00 -0.20     0.011 C 
HETATM   14  C   MOL     1     -50.493  -2.520  16.301  1.00 -0.40     0.112 C 
HETATM   15  C   MOL     1     -51.220  -5.240  15.863  1.00 -0.28     0.025 C 
HETATM   16  C   MOL     1     -51.903  -4.181  15.120  1.00 -0.47    -0.001 C 
HETATM   17  C   MOL     1     -51.569  -2.907  15.319  1.00 -0.52    -0.012 C 
HETATM   18  C   MOL     1     -49.539  -1.384  16.067  1.00 -0.44     0.229 C 
HETATM   19  O   MOL     1     -49.777  -0.353  15.454  1.00 -0.63    -0.273 OA
BRANCH  13  20
HETATM   20  N   MOL     1     -49.267  -5.878  17.151  1.00  0.04    -0.393 N 
HETATM   21  HN  MOL     1     -48.645  -5.557  17.686  1.00 -0.01     0.159 HD
BRANCH  20  22
HETATM   22  C   MOL     1     -49.752  -7.242  17.404  1.00 -0.24     0.119 C 
BRANCH  22  23
HETATM   23  C   MOL     1     -50.318  -7.455  18.817  1.00 -0.09     0.020 C 
BRANCH  23  24
HETATM   24  C   MOL     1     -49.660  -6.432  19.754  1.00 -0.19     0.002 C 
BRANCH  24  25
HETATM   25  C   MOL     1     -50.709  -5.454  20.302  1.00 -0.35     0.002 C 
BRANCH  25  26
HETATM   26  C   MOL     1     -50.076  -4.057  20.377  1.00 -0.42     0.020 C 
BRANCH  26  27
HETATM   27  C   MOL     1     -50.569  -3.320  21.630  1.00 -0.29     0.123 C 
BRANCH  27  28
HETATM   28  N   MOL     1     -52.038  -3.366  21.653  1.00 -0.04    -0.357 N 
HETATM   29  C   MOL     1     -52.695  -3.339  22.833  1.00 -0.29     0.254 C 
HETATM   30  O   MOL     1     -52.117  -3.277  23.916  1.00 -0.19    -0.268 OA
HETATM   31  HN  MOL     1     -52.480  -3.391  20.893  1.00 -0.09     0.162 HD
BRANCH  29  32
HETATM   32  C   MOL     1     -54.184  -3.400  22.865  1.00 -0.21     0.061 A 
HETATM   33  C   MOL     1     -54.935  -2.252  23.033  1.00 -0.36     0.038 A 
HETATM   34  C   MOL     1     -56.305  -2.307  23.036  1.00 -0.38     0.117 A 
HETATM   35  N   MOL     1     -57.009  -3.444  22.880  1.00 -0.12    -0.271 NA
HETATM   36  C   MOL     1     -56.276  -4.557  22.717  1.00 -0.27     0.146 A 
HETATM   37  C   MOL     1     -54.892  -4.588  22.706  1.00 -0.14     0.068 A 
BRANCH  37  38
HETATM   38  N   MOL     1     -54.220  -5.807  22.548  1.00  0.07    -0.325 N 
HETATM   39  C   MOL     1     -53.706  -6.562  23.540  1.00 -0.29     0.226 C 
HETATM   40  O   MOL     1     -53.782  -6.295  24.730  1.00 -0.10    -0.273 OA
HETATM   41  HN  MOL     1     -54.131  -6.103  21.726  1.00  0.05     0.169 HD
BRANCH  39  42
HETATM   42  C   MOL     1     -53.032  -7.823  23.040  1.00 -0.34     0.141 C 
BRANCH  42  43
HETATM   43  C   MOL     1     -51.523  -7.693  23.142  1.00 -0.21    -0.048 A 
HETATM   44  C   MOL     1     -50.965  -6.634  23.821  1.00 -0.31     0.007 A 
HETATM   45  C   MOL     1     -49.596  -6.517  23.914  1.00 -0.36     0.002 A 
HETATM   46  C   MOL     1     -48.782  -7.460  23.328  1.00 -0.30     0.024 A 
HETATM   47  C   MOL     1     -49.339  -8.521  22.650  1.00 -0.25     0.034 A 
HETATM   48 CL   MOL     1     -48.312  -9.714  21.909  1.00 -0.85    -0.084 Cl
HETATM   49  C   MOL     1     -50.708  -8.637  22.557  1.00 -0.22     0.031 A 
ENDBRANCH  42  43
ENDBRANCH  39  42
ENDBRANCH  37  38
ENDBRANCH  29  32
ENDBRANCH  27  28
ENDBRANCH  26  27
ENDBRANCH  25  26
ENDBRANCH  24  25
ENDBRANCH  23  24
ENDBRANCH  22  23
ENDBRANCH  20  22
ENDBRANCH  13  20
ENDBRANCH   5  10
TORSDOF 13
ENDMDL
MODEL 6
REMARK VINA RESULT:      -6.8      4.151      8.562
REMARK  13 active torsions:
REMARK  status: ('A' for Active; 'I' for Inactive)
REMARK    1  A    between atoms: C_5  and  N_6 
REMARK    2  A    between atoms: C_9  and  N_10 
REMARK    3  A    between atoms: N_10  and  C_11 
REMARK    4  A    between atoms: C_11  and  C_12 
REMARK    5  A    between atoms: C_12  and  C_13 
REMARK    6  A    between atoms: C_13  and  C_14 
REMARK    7  A    between atoms: C_14  and  C_15 
REMARK    8  A    between atoms: C_15  and  C_16 
REMARK    9  A    between atoms: C_16  and  N_17 
REMARK       I    between atoms: N_17  and  C_18 
REMARK   10  A    between atoms: C_18  and  C_20 
REMARK   11  A    between atoms: C_25  and  N_26 
REMARK       I    between atoms: N_26  and  C_27 
REMARK   12  A    between atoms: C_27  and  C_29 
REMARK   13  A    between atoms: C_29  and  C_30 
ROOT
HETATM    1  O   MOL     1     -42.439  -0.099  19.728  1.00 -0.03    -0.273 OA
HETATM    2  C   MOL     1     -43.327  -0.334  18.927  1.00 -0.41     0.224 C 
HETATM    3  C   MOL     1     -43.201  -1.439  17.903  1.00 -0.27     0.106 C 
HETATM    4  C   MOL     1     -44.558  -2.056  17.553  1.00 -0.23     0.044 C 
HETATM    5  C   MOL     1     -45.421  -0.898  17.044  1.00 -0.30     0.180 C 
HETATM    6  C   MOL     1     -45.557   0.193  18.083  1.00 -0.49     0.247 C 
HETATM    7  O   MOL     1     -46.569   0.867  18.173  1.00 -0.12    -0.271 OA
HETATM    8  N   MOL     1     -44.488   0.360  18.894  1.00 -0.04    -0.296 N 
HETATM    9  HN  MOL     1     -44.563   1.003  19.491  1.00 -0.27     0.171 HD
ENDROOT
BRANCH   5  10
HETATM   10  N   MOL     1     -46.737  -1.383  16.599  1.00  0.05    -0.337 N 
HETATM   11  C   MOL     1     -47.504  -2.387  17.357  1.00 -0.25     0.138 C 
HETATM   12  C   MOL     1     -48.237  -2.898  16.102  1.00 -0.27     0.070 C 
HETATM   13  C   MOL     1     -49.356  -3.917  16.127  1.00 -0.20     0.011 C 
HETATM   14  C   MOL     1     -48.648  -1.618  15.368  1.00 -0.40     0.112 C 
HETATM   15  C   MOL     1     -50.186  -3.999  15.076  1.00 -0.28     0.025 C 
HETATM   16  C   MOL     1     -50.009  -3.107  13.929  1.00 -0.47    -0.001 C 
HETATM   17  C   MOL     1     -49.291  -1.992  14.058  1.00 -0.52    -0.012 C 
HETATM   18  C   MOL     1     -47.307  -0.951  15.463  1.00 -0.44     0.229 C 
HETATM   19  O   MOL     1     -46.829  -0.167  14.655  1.00 -0.63    -0.273 OA
BRANCH  13  20
HETATM   20  N   MOL     1     -49.372  -4.689  17.253  1.00  0.04    -0.393 N 
HETATM   21  HN  MOL     1     -49.957  -4.497  17.883  1.00 -0.01     0.159 HD
BRANCH  20  22
HETATM   22  C   MOL     1     -48.820  -6.050  17.221  1.00 -0.24     0.119 C 
BRANCH  22  23
HETATM   23  C   MOL     1     -49.172  -6.900  18.453  1.00 -0.09     0.020 C 
BRANCH  23  24
HETATM   24  C   MOL     1     -50.109  -8.029  18.002  1.00 -0.19     0.002 C 
BRANCH  24  25
HETATM   25  C   MOL     1     -51.352  -8.086  18.902  1.00 -0.35     0.002 C 
BRANCH  25  26
HETATM   26  C   MOL     1     -51.660  -6.663  19.392  1.00 -0.42     0.020 C 
BRANCH  26  27
HETATM   27  C   MOL     1     -51.983  -6.681  20.893  1.00 -0.29     0.123 C 
BRANCH  27  28
HETATM   28  N   MOL     1     -50.727  -6.533  21.643  1.00 -0.04    -0.357 N 
HETATM   29  C   MOL     1     -50.265  -7.558  22.394  1.00 -0.29     0.254 C 
HETATM   30  O   MOL     1     -50.852  -8.633  22.485  1.00 -0.19    -0.268 OA
HETATM   31  HN  MOL     1     -50.274  -5.782  21.581  1.00 -0.09     0.162 HD
BRANCH  29  32
HETATM   32  C   MOL     1     -49.000  -7.411  23.167  1.00 -0.21     0.061 A 
HETATM   33  C   MOL     1     -48.992  -6.777  24.395  1.00 -0.36     0.038 A 
HETATM   34  C   MOL     1     -47.831  -6.666  25.117  1.00 -0.38     0.117 A 
HETATM   35  N   MOL     1     -46.644  -7.147  24.704  1.00 -0.12    -0.271 NA
HETATM   36  C   MOL     1     -46.655  -7.761  23.511  1.00 -0.27     0.146 A 
HETATM   37  C   MOL     1     -47.781  -7.913  22.719  1.00 -0.14     0.068 A 
BRANCH  37  38
HETATM   38  N   MOL     1     -47.683  -8.554  21.478  1.00  0.07    -0.325 N 
HETATM   39  C   MOL     1     -47.753  -9.884  21.265  1.00 -0.29     0.226 C 
HETATM   40  O   MOL     1     -47.942 -10.719  22.137  1.00 -0.10    -0.273 OA
HETATM   41  HN  MOL     1     -47.569  -8.038  20.776  1.00  0.05     0.169 HD
BRANCH  39  42
HETATM   42  C   MOL     1     -47.604 -10.263  19.806  1.00 -0.34     0.141 C 
BRANCH  42  43
HETATM   43  C   MOL     1     -46.138 -10.294  19.415  1.00 -0.21    -0.048 A 
HETATM   44  C   MOL     1     -45.563  -9.206  18.796  1.00 -0.31     0.007 A 
HETATM   45  C   MOL     1     -44.233  -9.235  18.442  1.00 -0.36     0.002 A 
HETATM   46  C   MOL     1     -43.473 -10.351  18.708  1.00 -0.30     0.024 A 
HETATM   47  C   MOL     1     -44.044 -11.439  19.328  1.00 -0.25     0.034 A 
HETATM   48 CL   MOL     1     -43.086 -12.851  19.665  1.00 -0.85    -0.084 Cl
HETATM   49  C   MOL     1     -45.376 -11.410  19.682  1.00 -0.22     0.031 A 
ENDBRANCH  42  43
ENDBRANCH  39  42
ENDBRANCH  37  38
ENDBRANCH  29  32
ENDBRANCH  27  28
ENDBRANCH  26  27
ENDBRANCH  25  26
ENDBRANCH  24  25
ENDBRANCH  23  24
ENDBRANCH  22  23
ENDBRANCH  20  22
ENDBRANCH  13  20
ENDBRANCH   5  10
TORSDOF 13
ENDMDL
MODEL 7
REMARK VINA RESULT:      -6.7      3.452      8.030
REMARK  13 active torsions:
REMARK  status: ('A' for Active; 'I' for Inactive)
REMARK    1  A    between atoms: C_5  and  N_6 
REMARK    2  A    between atoms: C_9  and  N_10 
REMARK    3  A    between atoms: N_10  and  C_11 
REMARK    4  A    between atoms: C_11  and  C_12 
REMARK    5  A    between atoms: C_12  and  C_13 
REMARK    6  A    between atoms: C_13  and  C_14 
REMARK    7  A    between atoms: C_14  and  C_15 
REMARK    8  A    between atoms: C_15  and  C_16 
REMARK    9  A    between atoms: C_16  and  N_17 
REMARK       I    between atoms: N_17  and  C_18 
REMARK   10  A    between atoms: C_18  and  C_20 
REMARK   11  A    between atoms: C_25  and  N_26 
REMARK       I    between atoms: N_26  and  C_27 
REMARK   12  A    between atoms: C_27  and  C_29 
REMARK   13  A    between atoms: C_29  and  C_30 
ROOT
HETATM    1  O   MOL     1     -43.077  -0.910  20.395  1.00 -0.03    -0.273 OA
HETATM    2  C   MOL     1     -43.942  -0.976  19.538  1.00 -0.41     0.224 C 
HETATM    3  C   MOL     1     -43.663  -1.564  18.174  1.00 -0.27     0.106 C 
HETATM    4  C   MOL     1     -44.902  -2.233  17.572  1.00 -0.23     0.044 C 
HETATM    5  C   MOL     1     -45.976  -1.143  17.518  1.00 -0.30     0.180 C 
HETATM    6  C   MOL     1     -46.262  -0.575  18.891  1.00 -0.49     0.247 C 
HETATM    7  O   MOL     1     -47.373  -0.179  19.201  1.00 -0.12    -0.271 OA
HETATM    8  N   MOL     1     -45.208  -0.542  19.737  1.00 -0.04    -0.296 N 
HETATM    9  HN  MOL     1     -45.371  -0.200  20.532  1.00 -0.27     0.171 HD
ENDROOT
BRANCH   5  10
HETATM   10  N   MOL     1     -47.202  -1.649  16.881  1.00  0.05    -0.337 N 
HETATM   11  C   MOL     1     -48.008  -2.731  17.471  1.00 -0.25     0.138 C 
HETATM   12  C   MOL     1     -48.555  -3.184  16.105  1.00 -0.27     0.070 C 
HETATM   13  C   MOL     1     -49.618  -4.246  15.924  1.00 -0.20     0.011 C 
HETATM   14  C   MOL     1     -48.933  -1.876  15.405  1.00 -0.40     0.112 C 
HETATM   15  C   MOL     1     -50.307  -4.290  14.773  1.00 -0.28     0.025 C 
HETATM   16  C   MOL     1     -50.032  -3.316  13.715  1.00 -0.47    -0.001 C 
HETATM   17  C   MOL     1     -49.390  -2.185  14.003  1.00 -0.52    -0.012 C 
HETATM   18  C   MOL     1     -47.647  -1.163  15.711  1.00 -0.44     0.229 C 
HETATM   19  O   MOL     1     -47.111  -0.308  15.020  1.00 -0.63    -0.273 OA
BRANCH  13  20
HETATM   20  N   MOL     1     -49.737  -5.093  16.988  1.00  0.04    -0.393 N 
HETATM   21  HN  MOL     1     -49.036  -5.213  17.507  1.00 -0.01     0.159 HD
BRANCH  20  22
HETATM   22  C   MOL     1     -51.063  -5.395  17.546  1.00 -0.24     0.119 C 
BRANCH  22  23
HETATM   23  C   MOL     1     -51.553  -4.375  18.587  1.00 -0.09     0.020 C 
BRANCH  23  24
HETATM   24  C   MOL     1     -51.337  -4.978  19.983  1.00 -0.19     0.002 C 
BRANCH  24  25
HETATM   25  C   MOL     1     -51.385  -6.512  19.918  1.00 -0.35     0.002 C 
BRANCH  25  26
HETATM   26  C   MOL     1     -51.976  -7.034  21.236  1.00 -0.42     0.020 C 
BRANCH  26  27
HETATM   27  C   MOL     1     -51.815  -8.558  21.320  1.00 -0.29     0.123 C 
BRANCH  27  28
HETATM   28  N   MOL     1     -50.487  -8.917  20.802  1.00 -0.04    -0.357 N 
HETATM   29  C   MOL     1     -49.694  -9.756  21.505  1.00 -0.29     0.254 C 
HETATM   30  O   MOL     1     -50.031 -10.247  22.580  1.00 -0.19    -0.268 OA
HETATM   31  HN  MOL     1     -50.226  -8.598  20.026  1.00 -0.09     0.162 HD
BRANCH  29  32
HETATM   32  C   MOL     1     -48.341 -10.114  20.994  1.00 -0.21     0.061 A 
HETATM   33  C   MOL     1     -48.169 -11.181  20.133  1.00 -0.36     0.038 A 
HETATM   34  C   MOL     1     -46.927 -11.492  19.644  1.00 -0.38     0.117 A 
HETATM   35  N   MOL     1     -45.808 -10.808  19.950  1.00 -0.12    -0.271 NA
HETATM   36  C   MOL     1     -45.979  -9.772  20.787  1.00 -0.27     0.146 A 
HETATM   37  C   MOL     1     -47.196  -9.395  21.328  1.00 -0.14     0.068 A 
BRANCH  37  38
HETATM   38  N   MOL     1     -47.264  -8.308  22.209  1.00  0.07    -0.325 N 
HETATM   39  C   MOL     1     -47.657  -7.057  21.894  1.00 -0.29     0.226 C 
HETATM   40  O   MOL     1     -48.040  -6.704  20.788  1.00 -0.10    -0.273 OA
HETATM   41  HN  MOL     1     -47.031  -8.462  23.041  1.00  0.05     0.169 HD
BRANCH  39  42
HETATM   42  C   MOL     1     -47.613  -6.105  23.072  1.00 -0.34     0.141 C 
BRANCH  42  43
HETATM   43  C   MOL     1     -49.017  -5.799  23.558  1.00 -0.21    -0.048 A 
HETATM   44  C   MOL     1     -49.709  -6.727  24.304  1.00 -0.31     0.007 A 
HETATM   45  C   MOL     1     -50.983  -6.448  24.746  1.00 -0.36     0.002 A 
HETATM   46  C   MOL     1     -51.568  -5.240  24.442  1.00 -0.30     0.024 A 
HETATM   47  C   MOL     1     -50.878  -4.309  23.698  1.00 -0.25     0.034 A 
HETATM   48 CL   MOL     1     -51.616  -2.782  23.313  1.00 -0.85    -0.084 Cl
HETATM   49  C   MOL     1     -49.603  -4.590  23.256  1.00 -0.22     0.031 A 
ENDBRANCH  42  43
ENDBRANCH  39  42
ENDBRANCH  37  38
ENDBRANCH  29  32
ENDBRANCH  27  28
ENDBRANCH  26  27
ENDBRANCH  25  26
ENDBRANCH  24  25
ENDBRANCH  23  24
ENDBRANCH  22  23
ENDBRANCH  20  22
ENDBRANCH  13  20
ENDBRANCH   5  10
TORSDOF 13
ENDMDL
MODEL 8
REMARK VINA RESULT:      -6.6      2.657      6.654
REMARK  13 active torsions:
REMARK  status: ('A' for Active; 'I' for Inactive)
REMARK    1  A    between atoms: C_5  and  N_6 
REMARK    2  A    between atoms: C_9  and  N_10 
REMARK    3  A    between atoms: N_10  and  C_11 
REMARK    4  A    between atoms: C_11  and  C_12 
REMARK    5  A    between atoms: C_12  and  C_13 
REMARK    6  A    between atoms: C_13  and  C_14 
REMARK    7  A    between atoms: C_14  and  C_15 
REMARK    8  A    between atoms: C_15  and  C_16 
REMARK    9  A    between atoms: C_16  and  N_17 
REMARK       I    between atoms: N_17  and  C_18 
REMARK   10  A    between atoms: C_18  and  C_20 
REMARK   11  A    between atoms: C_25  and  N_26 
REMARK       I    between atoms: N_26  and  C_27 
REMARK   12  A    between atoms: C_27  and  C_29 
REMARK   13  A    between atoms: C_29  and  C_30 
ROOT
HETATM    1  O   MOL     1     -44.107  -1.398  14.876  1.00 -0.03    -0.273 OA
HETATM    2  C   MOL     1     -45.099  -1.475  15.580  1.00 -0.41     0.224 C 
HETATM    3  C   MOL     1     -45.010  -1.865  17.038  1.00 -0.27     0.106 C 
HETATM    4  C   MOL     1     -46.109  -1.208  17.878  1.00 -0.23     0.044 C 
HETATM    5  C   MOL     1     -47.432  -1.650  17.246  1.00 -0.30     0.180 C 
HETATM    6  C   MOL     1     -47.520  -1.238  15.793  1.00 -0.49     0.247 C 
HETATM    7  O   MOL     1     -48.585  -0.948  15.274  1.00 -0.12    -0.271 OA
HETATM    8  N   MOL     1     -46.346  -1.213  15.124  1.00 -0.04    -0.296 N 
HETATM    9  HN  MOL     1     -46.399  -0.985  14.275  1.00 -0.27     0.171 HD
ENDROOT
BRANCH   5  10
HETATM   10  N   MOL     1     -48.576  -1.141  18.019  1.00  0.05    -0.337 N 
HETATM   11  C   MOL     1     -49.660  -2.017  18.493  1.00 -0.25     0.138 C 
HETATM   12  C   MOL     1     -50.694  -0.877  18.501  1.00 -0.27     0.070 C 
HETATM   13  C   MOL     1     -52.105  -1.011  19.033  1.00 -0.20     0.011 C 
HETATM   14  C   MOL     1     -49.950   0.292  19.152  1.00 -0.40     0.112 C 
HETATM   15  C   MOL     1     -52.784   0.097  19.369  1.00 -0.28     0.025 C 
HETATM   16  C   MOL     1     -52.159   1.413  19.224  1.00 -0.47    -0.001 C 
HETATM   17  C   MOL     1     -50.834   1.512  19.123  1.00 -0.52    -0.012 C 
HETATM   18  C   MOL     1     -48.705   0.161  18.322  1.00 -0.44     0.229 C 
HETATM   19  O   MOL     1     -47.960   1.071  17.986  1.00 -0.63    -0.273 OA
BRANCH  13  20
HETATM   20  N   MOL     1     -52.554  -2.299  19.084  1.00  0.04    -0.393 N 
HETATM   21  HN  MOL     1     -52.303  -2.855  18.447  1.00 -0.01     0.159 HD
BRANCH  20  22
HETATM   22  C   MOL     1     -53.001  -2.876  20.359  1.00 -0.24     0.119 C 
BRANCH  22  23
HETATM   23  C   MOL     1     -52.594  -4.344  20.562  1.00 -0.09     0.020 C 
BRANCH  23  24
HETATM   24  C   MOL     1     -51.709  -4.425  21.815  1.00 -0.19     0.002 C 
BRANCH  24  25
HETATM   25  C   MOL     1     -51.361  -5.887  22.131  1.00 -0.35     0.002 C 
BRANCH  25  26
HETATM   26  C   MOL     1     -52.461  -6.784  21.546  1.00 -0.42     0.020 C 
BRANCH  26  27
HETATM   27  C   MOL     1     -52.297  -8.222  22.058  1.00 -0.29     0.123 C 
BRANCH  27  28
HETATM   28  N   MOL     1     -51.238  -8.878  21.278  1.00 -0.04    -0.357 N 
HETATM   29  C   MOL     1     -50.069  -9.208  21.873  1.00 -0.29     0.254 C 
HETATM   30  O   MOL     1     -49.839  -8.984  23.059  1.00 -0.19    -0.268 OA
HETATM   31  HN  MOL     1     -51.380  -9.070  20.433  1.00 -0.09     0.162 HD
BRANCH  29  32
HETATM   32  C   MOL     1     -48.985  -9.861  21.086  1.00 -0.21     0.061 A 
HETATM   33  C   MOL     1     -48.628 -11.173  21.327  1.00 -0.36     0.038 A 
HETATM   34  C   MOL     1     -47.648 -11.779  20.584  1.00 -0.38     0.117 A 
HETATM   35  N   MOL     1     -46.974 -11.167  19.591  1.00 -0.12    -0.271 NA
HETATM   36  C   MOL     1     -47.324  -9.892  19.360  1.00 -0.27     0.146 A 
HETATM   37  C   MOL     1     -48.298  -9.207  20.066  1.00 -0.14     0.068 A 
BRANCH  37  38
HETATM   38  N   MOL     1     -48.575  -7.869  19.759  1.00  0.07    -0.325 N 
HETATM   39  C   MOL     1     -49.492  -7.433  18.871  1.00 -0.29     0.226 C 
HETATM   40  O   MOL     1     -50.236  -8.157  18.226  1.00 -0.10    -0.273 OA
HETATM   41  HN  MOL     1     -48.108  -7.262  20.188  1.00  0.05     0.169 HD
BRANCH  39  42
HETATM   42  C   MOL     1     -49.544  -5.923  18.761  1.00 -0.34     0.141 C 
BRANCH  42  43
HETATM   43  C   MOL     1     -50.260  -5.510  17.489  1.00 -0.21    -0.048 A 
HETATM   44  C   MOL     1     -49.538  -5.189  16.361  1.00 -0.31     0.007 A 
HETATM   45  C   MOL     1     -50.188  -4.815  15.207  1.00 -0.36     0.002 A 
HETATM   46  C   MOL     1     -51.563  -4.761  15.176  1.00 -0.30     0.024 A 
HETATM   47  C   MOL     1     -52.288  -5.083  16.302  1.00 -0.25     0.034 A 
HETATM   48 CL   MOL     1     -54.025  -5.017  16.266  1.00 -0.85    -0.084 Cl
HETATM   49  C   MOL     1     -51.636  -5.457  17.457  1.00 -0.22     0.031 A 
ENDBRANCH  42  43
ENDBRANCH  39  42
ENDBRANCH  37  38
ENDBRANCH  29  32
ENDBRANCH  27  28
ENDBRANCH  26  27
ENDBRANCH  25  26
ENDBRANCH  24  25
ENDBRANCH  23  24
ENDBRANCH  22  23
ENDBRANCH  20  22
ENDBRANCH  13  20
ENDBRANCH   5  10
TORSDOF 13
ENDMDL
MODEL 9
REMARK VINA RESULT:      -6.5      2.725      7.127
REMARK  13 active torsions:
REMARK  status: ('A' for Active; 'I' for Inactive)
REMARK    1  A    between atoms: C_5  and  N_6 
REMARK    2  A    between atoms: C_9  and  N_10 
REMARK    3  A    between atoms: N_10  and  C_11 
REMARK    4  A    between atoms: C_11  and  C_12 
REMARK    5  A    between atoms: C_12  and  C_13 
REMARK    6  A    between atoms: C_13  and  C_14 
REMARK    7  A    between atoms: C_14  and  C_15 
REMARK    8  A    between atoms: C_15  and  C_16 
REMARK    9  A    between atoms: C_16  and  N_17 
REMARK       I    between atoms: N_17  and  C_18 
REMARK   10  A    between atoms: C_18  and  C_20 
REMARK   11  A    between atoms: C_25  and  N_26 
REMARK       I    between atoms: N_26  and  C_27 
REMARK   12  A    between atoms: C_27  and  C_29 
REMARK   13  A    between atoms: C_29  and  C_30 
ROOT
HETATM    1  O   MOL     1     -49.334  -0.102  23.732  1.00 -0.03    -0.273 OA
HETATM    2  C   MOL     1     -49.180  -0.265  22.534  1.00 -0.41     0.224 C 
HETATM    3  C   MOL     1     -48.799  -1.609  21.958  1.00 -0.27     0.106 C 
HETATM    4  C   MOL     1     -49.367  -1.815  20.551  1.00 -0.23     0.044 C 
HETATM    5  C   MOL     1     -48.822  -0.656  19.711  1.00 -0.30     0.180 C 
HETATM    6  C   MOL     1     -49.225   0.685  20.285  1.00 -0.49     0.247 C 
HETATM    7  O   MOL     1     -49.430   1.651  19.569  1.00 -0.12    -0.271 OA
HETATM    8  N   MOL     1     -49.342   0.730  21.631  1.00 -0.04    -0.296 N 
HETATM    9  HN  MOL     1     -49.565   1.514  21.966  1.00 -0.27     0.171 HD
ENDROOT
BRANCH   5  10
HETATM   10  N   MOL     1     -49.240  -0.786  18.307  1.00  0.05    -0.337 N 
HETATM   11  C   MOL     1     -50.550  -1.340  17.923  1.00 -0.25     0.138 C 
HETATM   12  C   MOL     1     -50.038  -1.829  16.555  1.00 -0.27     0.070 C 
HETATM   13  C   MOL     1     -50.921  -2.428  15.482  1.00 -0.20     0.011 C 
HETATM   14  C   MOL     1     -49.217  -0.650  16.025  1.00 -0.40     0.112 C 
HETATM   15  C   MOL     1     -50.481  -2.449  14.213  1.00 -0.28     0.025 C 
HETATM   16  C   MOL     1     -49.169  -1.892  13.882  1.00 -0.47    -0.001 C 
HETATM   17  C   MOL     1     -48.572  -1.050  14.724  1.00 -0.52    -0.012 C 
HETATM   18  C   MOL     1     -48.441  -0.424  17.291  1.00 -0.44     0.229 C 
HETATM   19  O   MOL     1     -47.299   0.005  17.373  1.00 -0.63    -0.273 OA
BRANCH  13  20
HETATM   20  N   MOL     1     -52.100  -2.928  15.953  1.00  0.04    -0.393 N 
HETATM   21  HN  MOL     1     -52.607  -2.405  16.448  1.00 -0.01     0.159 HD
BRANCH  20  22
HETATM   22  C   MOL     1     -52.739  -4.068  15.283  1.00 -0.24     0.119 C 
BRANCH  22  23
HETATM   23  C   MOL     1     -52.096  -5.427  15.604  1.00 -0.09     0.020 C 
BRANCH  23  24
HETATM   24  C   MOL     1     -52.313  -5.716  17.097  1.00 -0.19     0.002 C 
BRANCH  24  25
HETATM   25  C   MOL     1     -50.963  -5.850  17.818  1.00 -0.35     0.002 C 
BRANCH  25  26
HETATM   26  C   MOL     1     -49.843  -5.729  16.775  1.00 -0.42     0.020 C 
BRANCH  26  27
HETATM   27  C   MOL     1     -48.474  -5.719  17.470  1.00 -0.29     0.123 C 
BRANCH  27  28
HETATM   28  N   MOL     1     -48.142  -7.094  17.870  1.00 -0.04    -0.357 N 
HETATM   29  C   MOL     1     -47.967  -7.392  19.176  1.00 -0.29     0.254 C 
HETATM   30  O   MOL     1     -48.073  -6.555  20.070  1.00 -0.19    -0.268 OA
HETATM   31  HN  MOL     1     -48.080  -7.719  17.255  1.00 -0.09     0.162 HD
BRANCH  29  32
HETATM   32  C   MOL     1     -47.617  -8.780  19.589  1.00 -0.21     0.061 A 
HETATM   33  C   MOL     1     -46.335  -9.266  19.420  1.00 -0.36     0.038 A 
HETATM   34  C   MOL     1     -46.009 -10.536  19.823  1.00 -0.38     0.117 A 
HETATM   35  N   MOL     1     -46.881 -11.386  20.398  1.00 -0.12    -0.271 NA
HETATM   36  C   MOL     1     -48.126 -10.910  20.561  1.00 -0.27     0.146 A 
HETATM   37  C   MOL     1     -48.537  -9.644  20.178  1.00 -0.14     0.068 A 
BRANCH  37  38
HETATM   38  N   MOL     1     -49.866  -9.251  20.374  1.00  0.07    -0.325 N 
HETATM   39  C   MOL     1     -50.396  -8.796  21.528  1.00 -0.29     0.226 C 
HETATM   40  O   MOL     1     -49.771  -8.638  22.567  1.00 -0.10    -0.273 OA
HETATM   41  HN  MOL     1     -50.399  -9.304  19.678  1.00  0.05     0.169 HD
BRANCH  39  42
HETATM   42  C   MOL     1     -51.869  -8.459  21.416  1.00 -0.34     0.141 C 
BRANCH  42  43
HETATM   43  C   MOL     1     -52.108  -7.006  21.781  1.00 -0.21    -0.048 A 
HETATM   44  C   MOL     1     -51.332  -6.015  21.222  1.00 -0.31     0.007 A 
HETATM   45  C   MOL     1     -51.550  -4.697  21.553  1.00 -0.36     0.002 A 
HETATM   46  C   MOL     1     -52.546  -4.366  22.444  1.00 -0.30     0.024 A 
HETATM   47  C   MOL     1     -53.324  -5.354  23.003  1.00 -0.25     0.034 A 
HETATM   48 CL   MOL     1     -54.584  -4.938  24.129  1.00 -0.85    -0.084 Cl
HETATM   49  C   MOL     1     -53.105  -6.673  22.671  1.00 -0.22     0.031 A 
ENDBRANCH  42  43
ENDBRANCH  39  42
ENDBRANCH  37  38
ENDBRANCH  29  32
ENDBRANCH  27  28
ENDBRANCH  26  27
ENDBRANCH  25  26
ENDBRANCH  24  25
ENDBRANCH  23  24
ENDBRANCH  22  23
ENDBRANCH  20  22
ENDBRANCH  13  20
ENDBRANCH   5  10
TORSDOF 13
ENDMDL
MODEL 10
REMARK VINA RESULT:      -6.4     10.638     14.308
REMARK  13 active torsions:
REMARK  status: ('A' for Active; 'I' for Inactive)
REMARK    1  A    between atoms: C_5  and  N_6 
REMARK    2  A    between atoms: C_9  and  N_10 
REMARK    3  A    between atoms: N_10  and  C_11 
REMARK    4  A    between atoms: C_11  and  C_12 
REMARK    5  A    between atoms: C_12  and  C_13 
REMARK    6  A    between atoms: C_13  and  C_14 
REMARK    7  A    between atoms: C_14  and  C_15 
REMARK    8  A    between atoms: C_15  and  C_16 
REMARK    9  A    between atoms: C_16  and  N_17 
REMARK       I    between atoms: N_17  and  C_18 
REMARK   10  A    between atoms: C_18  and  C_20 
REMARK   11  A    between atoms: C_25  and  N_26 
REMARK       I    between atoms: N_26  and  C_27 
REMARK   12  A    between atoms: C_27  and  C_29 
REMARK   13  A    between atoms: C_29  and  C_30 
ROOT
HETATM    1  O   MOL     1     -49.648 -14.564  28.643  1.00 -0.03    -0.273 OA
HETATM    2  C   MOL     1     -49.054 -15.169  27.767  1.00 -0.41     0.224 C 
HETATM    3  C   MOL     1     -49.657 -16.377  27.088  1.00 -0.27     0.106 C 
HETATM    4  C   MOL     1     -49.191 -16.514  25.636  1.00 -0.23     0.044 C 
HETATM    5  C   MOL     1     -47.663 -16.593  25.697  1.00 -0.30     0.180 C 
HETATM    6  C   MOL     1     -47.068 -15.370  26.360  1.00 -0.49     0.247 C 
HETATM    7  O   MOL     1     -45.979 -14.930  26.031  1.00 -0.12    -0.271 OA
HETATM    8  N   MOL     1     -47.825 -14.809  27.330  1.00 -0.04    -0.296 N 
HETATM    9  HN  MOL     1     -47.474 -14.104  27.724  1.00 -0.27     0.171 HD
ENDROOT
BRANCH   5  10
HETATM   10  N   MOL     1     -47.097 -16.805  24.356  1.00  0.05    -0.337 N 
HETATM   11  C   MOL     1     -47.085 -15.749  23.329  1.00 -0.25     0.138 C 
HETATM   12  C   MOL     1     -47.089 -16.759  22.168  1.00 -0.27     0.070 C 
HETATM   13  C   MOL     1     -46.947 -16.379  20.709  1.00 -0.20     0.011 C 
HETATM   14  C   MOL     1     -46.054 -17.808  22.586  1.00 -0.40     0.112 C 
HETATM   15  C   MOL     1     -46.563 -17.314  19.826  1.00 -0.28     0.025 C 
HETATM   16  C   MOL     1     -46.281 -18.678  20.277  1.00 -0.47    -0.001 C 
HETATM   17  C   MOL     1     -46.042 -18.917  21.566  1.00 -0.52    -0.012 C 
HETATM   18  C   MOL     1     -46.574 -17.984  23.984  1.00 -0.44     0.229 C 
HETATM   19  O   MOL     1     -46.528 -19.010  24.649  1.00 -0.63    -0.273 OA
BRANCH  13  20
HETATM   20  N   MOL     1     -47.270 -15.080  20.445  1.00  0.04    -0.393 N 
HETATM   21  HN  MOL     1     -47.892 -14.695  20.937  1.00 -0.01     0.159 HD
BRANCH  20  22
HETATM   22  C   MOL     1     -46.316 -14.210  19.743  1.00 -0.24     0.119 C 
BRANCH  22  23
HETATM   23  C   MOL     1     -46.903 -12.859  19.304  1.00 -0.09     0.020 C 
BRANCH  23  24
HETATM   24  C   MOL     1     -45.836 -11.778  19.537  1.00 -0.19     0.002 C 
BRANCH  24  25
HETATM   25  C   MOL     1     -46.420 -10.383  19.269  1.00 -0.35     0.002 C 
BRANCH  25  26
HETATM   26  C   MOL     1     -45.360  -9.336  19.640  1.00 -0.42     0.020 C 
BRANCH  26  27
HETATM   27  C   MOL     1     -44.079  -9.570  18.827  1.00 -0.29     0.123 C 
BRANCH  27  28
HETATM   28  N   MOL     1     -42.964  -9.780  19.762  1.00 -0.04    -0.357 N 
HETATM   29  C   MOL     1     -42.107 -10.808  19.570  1.00 -0.29     0.254 C 
HETATM   30  O   MOL     1     -42.212 -11.595  18.632  1.00 -0.19    -0.268 OA
HETATM   31  HN  MOL     1     -42.851  -9.221  20.431  1.00 -0.09     0.162 HD
BRANCH  29  32
HETATM   32  C   MOL     1     -40.983 -11.035  20.521  1.00 -0.21     0.061 A 
HETATM   33  C   MOL     1     -39.949 -10.125  20.624  1.00 -0.36     0.038 A 
HETATM   34  C   MOL     1     -38.929 -10.324  21.519  1.00 -0.38     0.117 A 
HETATM   35  N   MOL     1     -38.851 -11.386  22.342  1.00 -0.12    -0.271 NA
HETATM   36  C   MOL     1     -39.857 -12.269  22.238  1.00 -0.27     0.146 A 
HETATM   37  C   MOL     1     -40.921 -12.144  21.360  1.00 -0.14     0.068 A 
BRANCH  37  38
HETATM   38  N   MOL     1     -41.912 -13.133  21.316  1.00  0.07    -0.325 N 
HETATM   39  C   MOL     1     -41.782 -14.360  20.772  1.00 -0.29     0.226 C 
HETATM   40  O   MOL     1     -40.759 -14.792  20.262  1.00 -0.10    -0.273 OA
HETATM   41  HN  MOL     1     -42.685 -12.931  21.679  1.00  0.05     0.169 HD
BRANCH  39  42
HETATM   42  C   MOL     1     -43.043 -15.195  20.878  1.00 -0.34     0.141 C 
BRANCH  42  43
HETATM   43  C   MOL     1     -42.740 -16.528  21.536  1.00 -0.21    -0.048 A 
HETATM   44  C   MOL     1     -42.563 -16.604  22.899  1.00 -0.31     0.007 A 
HETATM   45  C   MOL     1     -42.289 -17.814  23.495  1.00 -0.36     0.002 A 
HETATM   46  C   MOL     1     -42.192 -18.953  22.729  1.00 -0.30     0.024 A 
HETATM   47  C   MOL     1     -42.370 -18.881  21.365  1.00 -0.25     0.034 A 
HETATM   48 CL   MOL     1     -42.248 -20.319  20.395  1.00 -0.85    -0.084 Cl
HETATM   49  C   MOL     1     -42.644 -17.669  20.770  1.00 -0.22     0.031 A 
ENDBRANCH  42  43
ENDBRANCH  39  42
ENDBRANCH  37  38
ENDBRANCH  29  32
ENDBRANCH  27  28
ENDBRANCH  26  27
ENDBRANCH  25  26
ENDBRANCH  24  25
ENDBRANCH  23  24
ENDBRANCH  22  23
ENDBRANCH  20  22
ENDBRANCH  13  20
ENDBRANCH   5  10
TORSDOF 13
ENDMDL
