MODEL 1
REMARK VINA RESULT:      -7.4      0.000      0.000
REMARK  15 active torsions:
REMARK  status: ('A' for Active; 'I' for Inactive)
REMARK    1  A    between atoms: O_2  and  C_18 
REMARK    2  A    between atoms: O_2  and  C_22 
REMARK    3  A    between atoms: O_4  and  C_14 
REMARK    4  A    between atoms: O_5  and  C_21 
REMARK    5  A    between atoms: O_5  and  C_25 
REMARK    6  A    between atoms: O_6  and  C_15 
REMARK    7  A    between atoms: O_7  and  C_16 
REMARK    8  A    between atoms: O_8  and  C_17 
REMARK    9  A    between atoms: O_9  and  C_19 
REMARK   10  A    between atoms: O_10  and  C_20 
REMARK   11  A    between atoms: O_11  and  C_30 
REMARK   12  A    between atoms: O_12  and  C_32 
REMARK   13  A    between atoms: C_13  and  C_22 
REMARK   14  A    between atoms: C_25  and  C_26 
REMARK   15  A    between atoms: C_26  and  C_27 
ROOT
HETATM    1  O   UNK     0     -50.293  -2.189  16.829  0.00  0.00    -0.348 OA
HETATM    2  C   UNK     0     -50.705  -3.385  16.166  0.00  0.00     0.180 C 
HETATM    3  C   UNK     0     -49.695  -3.752  15.077  0.00  0.00     0.180 C 
HETATM    4  C   UNK     0     -49.508  -2.594  14.096  0.00  0.00     0.183 C 
HETATM    5  C   UNK     0     -49.248  -1.282  14.834  0.00  0.00     0.204 C 
HETATM    6  C   UNK     0     -50.263  -1.062  15.955  0.00  0.00     0.291 C 
ENDROOT
BRANCH   2   7
HETATM    7  C   UNK     0     -50.821  -4.480  17.222  0.00  0.00     0.205 C 
BRANCH   7   8
HETATM    8  O   UNK     0     -49.682  -5.325  17.138  0.00  0.00    -0.356 OA
BRANCH   8   9
HETATM    9  C   UNK     0     -50.014  -6.676  17.439  0.00  0.00     0.291 C 
HETATM   10  O   UNK     0     -50.597  -6.819  18.738  0.00  0.00    -0.351 OA
HETATM   11  C   UNK     0     -49.719  -6.477  19.816  0.00  0.00     0.152 C 
HETATM   12  C   UNK     0     -48.458  -7.353  19.800  0.00  0.00     0.178 C 
HETATM   13  C   UNK     0     -50.515  -6.643  21.109  0.00  0.00     0.042 C 
HETATM   14  C   UNK     0     -47.777  -7.266  18.435  0.00  0.00     0.183 C 
HETATM   15  C   UNK     0     -48.770  -7.554  17.307  0.00  0.00     0.204 C 
BRANCH  12  16
HETATM   16  O   UNK     0     -47.534  -6.904  20.787  0.00  0.00    -0.390 OA
HETATM   17  H   UNK     0     -46.668  -6.787  20.358  0.00  0.00     0.210 HD
ENDBRANCH  12  16
BRANCH  14  18
HETATM   18  O   UNK     0     -46.703  -8.203  18.386  0.00  0.00    -0.390 OA
HETATM   19  H   UNK     0     -45.890  -7.731  18.634  0.00  0.00     0.210 HD
ENDBRANCH  14  18
BRANCH  15  20
HETATM   20  O   UNK     0     -49.193  -8.918  17.366  0.00  0.00    -0.388 OA
HETATM   21  H   UNK     0     -48.648  -9.366  18.035  0.00  0.00     0.210 HD
ENDBRANCH  15  20
ENDBRANCH   8   9
ENDBRANCH   7   8
ENDBRANCH   2   7
BRANCH   6  22
HETATM   22  O   UNK     0     -49.870   0.102  16.683  0.00  0.00    -0.358 OA
BRANCH  22  23
HETATM   23  C   UNK     0     -49.061  -0.236  17.799  0.00  0.00     0.175 C 
BRANCH  23  24
HETATM   24  C   UNK     0     -47.796   0.614  17.794  0.00  0.00     0.065 C 
BRANCH  24  25
HETATM   25  C   UNK     0     -46.548  -0.214  17.616  0.00  0.00    -0.053 A 
HETATM   26  C   UNK     0     -46.145  -0.604  16.339  0.00  0.00     0.046 A 
HETATM   27  C   UNK     0     -44.990  -1.368  16.175  0.00  0.00     0.099 A 
HETATM   28  C   UNK     0     -44.238  -1.743  17.288  0.00  0.00     0.098 A 
HETATM   29  C   UNK     0     -44.640  -1.353  18.565  0.00  0.00     0.040 A 
HETATM   30  C   UNK     0     -45.795  -0.589  18.730  0.00  0.00     0.010 A 
BRANCH  27  31
HETATM   31  O   UNK     0     -44.606  -1.741  14.922  0.00  0.00    -0.358 OA
HETATM   32  H   UNK     0     -45.217  -2.423  14.593  0.00  0.00     0.217 HD
ENDBRANCH  27  31
BRANCH  28  33
HETATM   33  O   UNK     0     -43.107  -2.490  17.140  0.00  0.00    -0.358 OA
HETATM   34  H   UNK     0     -42.683  -2.597  18.008  0.00  0.00     0.217 HD
ENDBRANCH  28  33
ENDBRANCH  24  25
ENDBRANCH  23  24
ENDBRANCH  22  23
ENDBRANCH   6  22
BRANCH   3  35
HETATM   35  O   UNK     0     -50.160  -4.899  14.370  0.00  0.00    -0.390 OA
HETATM   36  H   UNK     0     -51.037  -4.690  14.002  0.00  0.00     0.210 HD
ENDBRANCH   3  35
BRANCH   5  37
HETATM   37  O   UNK     0     -49.353  -0.193  13.917  0.00  0.00    -0.388 OA
HETATM   38  H   UNK     0     -48.528   0.322  13.964  0.00  0.00     0.210 HD
ENDBRANCH   5  37
BRANCH   4  39
HETATM   39  O   UNK     0     -48.392  -2.899  13.259  0.00  0.00    -0.390 OA
HETATM   40  H   UNK     0     -48.709  -2.964  12.342  0.00  0.00     0.210 HD
ENDBRANCH   4  39
TORSDOF 15
ENDMDL
MODEL 2
REMARK VINA RESULT:      -7.4      0.962      1.902
REMARK  15 active torsions:
REMARK  status: ('A' for Active; 'I' for Inactive)
REMARK    1  A    between atoms: O_2  and  C_18 
REMARK    2  A    between atoms: O_2  and  C_22 
REMARK    3  A    between atoms: O_4  and  C_14 
REMARK    4  A    between atoms: O_5  and  C_21 
REMARK    5  A    between atoms: O_5  and  C_25 
REMARK    6  A    between atoms: O_6  and  C_15 
REMARK    7  A    between atoms: O_7  and  C_16 
REMARK    8  A    between atoms: O_8  and  C_17 
REMARK    9  A    between atoms: O_9  and  C_19 
REMARK   10  A    between atoms: O_10  and  C_20 
REMARK   11  A    between atoms: O_11  and  C_30 
REMARK   12  A    between atoms: O_12  and  C_32 
REMARK   13  A    between atoms: C_13  and  C_22 
REMARK   14  A    between atoms: C_25  and  C_26 
REMARK   15  A    between atoms: C_26  and  C_27 
ROOT
HETATM    1  O   UNK     0     -50.397  -2.324  16.745  0.00  0.00    -0.348 OA
HETATM    2  C   UNK     0     -50.771  -3.489  16.007  0.00  0.00     0.180 C 
HETATM    3  C   UNK     0     -49.708  -3.800  14.951  0.00  0.00     0.180 C 
HETATM    4  C   UNK     0     -49.480  -2.596  14.037  0.00  0.00     0.183 C 
HETATM    5  C   UNK     0     -49.262  -1.319  14.849  0.00  0.00     0.204 C 
HETATM    6  C   UNK     0     -50.330  -1.157  15.929  0.00  0.00     0.291 C 
ENDROOT
BRANCH   2   7
HETATM    7  C   UNK     0     -50.931  -4.633  17.002  0.00  0.00     0.205 C 
BRANCH   7   8
HETATM    8  O   UNK     0     -49.671  -5.261  17.192  0.00  0.00    -0.356 OA
BRANCH   8   9
HETATM    9  C   UNK     0     -49.382  -5.439  18.575  0.00  0.00     0.291 C 
HETATM   10  O   UNK     0     -48.097  -6.031  18.792  0.00  0.00    -0.351 OA
HETATM   11  C   UNK     0     -47.972  -7.363  18.283  0.00  0.00     0.152 C 
HETATM   12  C   UNK     0     -49.003  -8.299  18.929  0.00  0.00     0.178 C 
HETATM   13  C   UNK     0     -46.539  -7.812  18.561  0.00  0.00     0.042 C 
HETATM   14  C   UNK     0     -50.411  -7.731  18.751  0.00  0.00     0.183 C 
HETATM   15  C   UNK     0     -50.480  -6.278  19.227  0.00  0.00     0.204 C 
BRANCH  12  16
HETATM   16  O   UNK     0     -48.961  -9.582  18.309  0.00  0.00    -0.390 OA
HETATM   17  H   UNK     0     -49.740  -9.663  17.732  0.00  0.00     0.210 HD
ENDBRANCH  12  16
BRANCH  14  18
HETATM   18  O   UNK     0     -51.335  -8.527  19.490  0.00  0.00    -0.390 OA
HETATM   19  H   UNK     0     -50.844  -8.951  20.214  0.00  0.00     0.210 HD
ENDBRANCH  14  18
BRANCH  15  20
HETATM   20  O   UNK     0     -50.289  -6.219  20.641  0.00  0.00    -0.388 OA
HETATM   21  H   UNK     0     -51.163  -6.107  21.051  0.00  0.00     0.210 HD
ENDBRANCH  15  20
ENDBRANCH   8   9
ENDBRANCH   7   8
ENDBRANCH   2   7
BRANCH   6  22
HETATM   22  O   UNK     0     -49.978  -0.028  16.730  0.00  0.00    -0.358 OA
BRANCH  22  23
HETATM   23  C   UNK     0     -49.163  -0.408  17.827  0.00  0.00     0.175 C 
BRANCH  23  24
HETATM   24  C   UNK     0     -47.942   0.501  17.900  0.00  0.00     0.065 C 
BRANCH  24  25
HETATM   25  C   UNK     0     -46.655  -0.243  17.640  0.00  0.00    -0.053 A 
HETATM   26  C   UNK     0     -46.185  -0.390  16.336  0.00  0.00     0.046 A 
HETATM   27  C   UNK     0     -44.994  -1.076  16.097  0.00  0.00     0.099 A 
HETATM   28  C   UNK     0     -44.275  -1.617  17.162  0.00  0.00     0.098 A 
HETATM   29  C   UNK     0     -44.746  -1.471  18.467  0.00  0.00     0.040 A 
HETATM   30  C   UNK     0     -45.935  -0.784  18.707  0.00  0.00     0.010 A 
BRANCH  27  31
HETATM   31  O   UNK     0     -44.544  -1.210  14.818  0.00  0.00    -0.358 OA
HETATM   32  H   UNK     0     -44.052  -0.409  14.570  0.00  0.00     0.217 HD
ENDBRANCH  27  31
BRANCH  28  33
HETATM   33  O   UNK     0     -43.111  -2.290  16.941  0.00  0.00    -0.358 OA
HETATM   34  H   UNK     0     -43.166  -2.744  16.083  0.00  0.00     0.217 HD
ENDBRANCH  28  33
ENDBRANCH  24  25
ENDBRANCH  23  24
ENDBRANCH  22  23
ENDBRANCH   6  22
BRANCH   3  35
HETATM   35  O   UNK     0     -50.133  -4.912  14.168  0.00  0.00    -0.390 OA
HETATM   36  H   UNK     0     -49.559  -5.667  14.382  0.00  0.00     0.210 HD
ENDBRANCH   3  35
BRANCH   5  37
HETATM   37  O   UNK     0     -49.328  -0.188  13.981  0.00  0.00    -0.388 OA
HETATM   38  H   UNK     0     -48.910  -0.431  13.136  0.00  0.00     0.210 HD
ENDBRANCH   5  37
BRANCH   4  39
HETATM   39  O   UNK     0     -48.323  -2.857  13.240  0.00  0.00    -0.390 OA
HETATM   40  H   UNK     0     -47.766  -2.060  13.245  0.00  0.00     0.210 HD
ENDBRANCH   4  39
TORSDOF 15
ENDMDL
MODEL 3
REMARK VINA RESULT:      -7.4      3.304      6.252
REMARK  15 active torsions:
REMARK  status: ('A' for Active; 'I' for Inactive)
REMARK    1  A    between atoms: O_2  and  C_18 
REMARK    2  A    between atoms: O_2  and  C_22 
REMARK    3  A    between atoms: O_4  and  C_14 
REMARK    4  A    between atoms: O_5  and  C_21 
REMARK    5  A    between atoms: O_5  and  C_25 
REMARK    6  A    between atoms: O_6  and  C_15 
REMARK    7  A    between atoms: O_7  and  C_16 
REMARK    8  A    between atoms: O_8  and  C_17 
REMARK    9  A    between atoms: O_9  and  C_19 
REMARK   10  A    between atoms: O_10  and  C_20 
REMARK   11  A    between atoms: O_11  and  C_30 
REMARK   12  A    between atoms: O_12  and  C_32 
REMARK   13  A    between atoms: C_13  and  C_22 
REMARK   14  A    between atoms: C_25  and  C_26 
REMARK   15  A    between atoms: C_26  and  C_27 
ROOT
HETATM    1  O   UNK     0     -46.315  -0.740  18.332  0.00  0.00    -0.348 OA
HETATM    2  C   UNK     0     -46.652  -0.116  17.092  0.00  0.00     0.180 C 
HETATM    3  C   UNK     0     -46.098  -0.939  15.927  0.00  0.00     0.180 C 
HETATM    4  C   UNK     0     -44.590  -1.141  16.072  0.00  0.00     0.183 C 
HETATM    5  C   UNK     0     -44.231  -1.639  17.471  0.00  0.00     0.204 C 
HETATM    6  C   UNK     0     -44.907  -0.797  18.552  0.00  0.00     0.291 C 
ENDROOT
BRANCH   2   7
HETATM    7  C   UNK     0     -48.171  -0.001  17.032  0.00  0.00     0.205 C 
BRANCH   7   8
HETATM    8  O   UNK     0     -48.709  -1.226  16.556  0.00  0.00    -0.356 OA
BRANCH   8   9
HETATM    9  C   UNK     0     -49.820  -1.006  15.693  0.00  0.00     0.291 C 
HETATM   10  O   UNK     0     -50.981  -1.738  16.100  0.00  0.00    -0.351 OA
HETATM   11  C   UNK     0     -50.829  -3.160  16.039  0.00  0.00     0.152 C 
HETATM   12  C   UNK     0     -50.497  -3.619  14.613  0.00  0.00     0.178 C 
HETATM   13  C   UNK     0     -52.134  -3.769  16.547  0.00  0.00     0.042 C 
HETATM   14  C   UNK     0     -49.268  -2.871  14.094  0.00  0.00     0.183 C 
HETATM   15  C   UNK     0     -49.436  -1.360  14.257  0.00  0.00     0.204 C 
BRANCH  12  16
HETATM   16  O   UNK     0     -50.207  -5.013  14.598  0.00  0.00    -0.390 OA
HETATM   17  H   UNK     0     -50.023  -5.293  15.511  0.00  0.00     0.210 HD
ENDBRANCH  12  16
BRANCH  14  18
HETATM   18  O   UNK     0     -49.069  -3.192  12.719  0.00  0.00    -0.390 OA
HETATM   19  H   UNK     0     -48.384  -3.881  12.674  0.00  0.00     0.210 HD
ENDBRANCH  14  18
BRANCH  15  20
HETATM   20  O   UNK     0     -50.478  -0.890  13.400  0.00  0.00    -0.388 OA
HETATM   21  H   UNK     0     -51.223  -1.511  13.475  0.00  0.00     0.210 HD
ENDBRANCH  15  20
ENDBRANCH   8   9
ENDBRANCH   7   8
ENDBRANCH   2   7
BRANCH   6  22
HETATM   22  O   UNK     0     -44.641  -1.406  19.816  0.00  0.00    -0.358 OA
BRANCH  22  23
HETATM   23  C   UNK     0     -43.832  -0.573  20.630  0.00  0.00     0.175 C 
BRANCH  23  24
HETATM   24  C   UNK     0     -44.270   0.879  20.476  0.00  0.00     0.065 C 
BRANCH  24  25
HETATM   25  C   UNK     0     -43.110   1.804  20.204  0.00  0.00    -0.053 A 
HETATM   26  C   UNK     0     -42.319   2.260  21.259  0.00  0.00     0.046 A 
HETATM   27  C   UNK     0     -41.245   3.114  21.006  0.00  0.00     0.099 A 
HETATM   28  C   UNK     0     -40.963   3.512  19.700  0.00  0.00     0.098 A 
HETATM   29  C   UNK     0     -41.753   3.056  18.646  0.00  0.00     0.040 A 
HETATM   30  C   UNK     0     -42.827   2.202  18.897  0.00  0.00     0.010 A 
BRANCH  27  31
HETATM   31  O   UNK     0     -40.479   3.551  22.044  0.00  0.00    -0.358 OA
HETATM   32  H   UNK     0     -39.958   2.806  22.389  0.00  0.00     0.217 HD
ENDBRANCH  27  31
BRANCH  28  33
HETATM   33  O   UNK     0     -39.916   4.346  19.441  0.00  0.00    -0.358 OA
HETATM   34  H   UNK     0     -39.281   4.295  20.176  0.00  0.00     0.217 HD
ENDBRANCH  28  33
ENDBRANCH  24  25
ENDBRANCH  23  24
ENDBRANCH  22  23
ENDBRANCH   6  22
BRANCH   3  35
HETATM   35  O   UNK     0     -46.369  -0.263  14.702  0.00  0.00    -0.390 OA
HETATM   36  H   UNK     0     -46.766   0.599  14.916  0.00  0.00     0.210 HD
ENDBRANCH   3  35
BRANCH   5  37
HETATM   37  O   UNK     0     -42.818  -1.552  17.657  0.00  0.00    -0.388 OA
HETATM   38  H   UNK     0     -42.491  -2.436  17.899  0.00  0.00     0.210 HD
ENDBRANCH   5  37
BRANCH   4  39
HETATM   39  O   UNK     0     -44.178  -2.107  15.103  0.00  0.00    -0.390 OA
HETATM   40  H   UNK     0     -44.960  -2.373  14.589  0.00  0.00     0.210 HD
ENDBRANCH   4  39
TORSDOF 15
ENDMDL
MODEL 4
REMARK VINA RESULT:      -7.4      2.174      7.078
REMARK  15 active torsions:
REMARK  status: ('A' for Active; 'I' for Inactive)
REMARK    1  A    between atoms: O_2  and  C_18 
REMARK    2  A    between atoms: O_2  and  C_22 
REMARK    3  A    between atoms: O_4  and  C_14 
REMARK    4  A    between atoms: O_5  and  C_21 
REMARK    5  A    between atoms: O_5  and  C_25 
REMARK    6  A    between atoms: O_6  and  C_15 
REMARK    7  A    between atoms: O_7  and  C_16 
REMARK    8  A    between atoms: O_8  and  C_17 
REMARK    9  A    between atoms: O_9  and  C_19 
REMARK   10  A    between atoms: O_10  and  C_20 
REMARK   11  A    between atoms: O_11  and  C_30 
REMARK   12  A    between atoms: O_12  and  C_32 
REMARK   13  A    between atoms: C_13  and  C_22 
REMARK   14  A    between atoms: C_25  and  C_26 
REMARK   15  A    between atoms: C_26  and  C_27 
ROOT
HETATM    1  O   UNK     0     -50.576  -5.051  18.011  0.00  0.00    -0.348 OA
HETATM    2  C   UNK     0     -49.866  -5.166  16.776  0.00  0.00     0.180 C 
HETATM    3  C   UNK     0     -50.380  -4.124  15.780  0.00  0.00     0.180 C 
HETATM    4  C   UNK     0     -51.890  -4.259  15.583  0.00  0.00     0.183 C 
HETATM    5  C   UNK     0     -52.619  -4.318  16.924  0.00  0.00     0.204 C 
HETATM    6  C   UNK     0     -51.968  -5.327  17.869  0.00  0.00     0.291 C 
ENDROOT
BRANCH   2   7
HETATM    7  C   UNK     0     -48.383  -4.976  17.078  0.00  0.00     0.205 C 
BRANCH   7   8
HETATM    8  O   UNK     0     -48.084  -3.587  17.071  0.00  0.00    -0.356 OA
BRANCH   8   9
HETATM    9  C   UNK     0     -46.761  -3.342  16.605  0.00  0.00     0.291 C 
HETATM   10  O   UNK     0     -45.931  -2.744  17.606  0.00  0.00    -0.351 OA
HETATM   11  C   UNK     0     -46.354  -1.439  18.015  0.00  0.00     0.152 C 
HETATM   12  C   UNK     0     -46.378  -0.469  16.826  0.00  0.00     0.178 C 
HETATM   13  C   UNK     0     -45.389  -0.981  19.107  0.00  0.00     0.042 C 
HETATM   14  C   UNK     0     -47.239  -1.041  15.700  0.00  0.00     0.183 C 
HETATM   15  C   UNK     0     -46.810  -2.468  15.353  0.00  0.00     0.204 C 
BRANCH  12  16
HETATM   16  O   UNK     0     -46.936   0.781  17.220  0.00  0.00    -0.390 OA
HETATM   17  H   UNK     0     -47.135   0.736  18.171  0.00  0.00     0.210 HD
ENDBRANCH  12  16
BRANCH  14  18
HETATM   18  O   UNK     0     -47.122  -0.207  14.549  0.00  0.00    -0.390 OA
HETATM   19  H   UNK     0     -46.232   0.187  14.562  0.00  0.00     0.210 HD
ENDBRANCH  14  18
BRANCH  15  20
HETATM   20  O   UNK     0     -45.502  -2.458  14.779  0.00  0.00    -0.388 OA
HETATM   21  H   UNK     0     -45.391  -3.288  14.284  0.00  0.00     0.210 HD
ENDBRANCH  15  20
ENDBRANCH   8   9
ENDBRANCH   7   8
ENDBRANCH   2   7
BRANCH   6  22
HETATM   22  O   UNK     0     -52.612  -5.221  19.139  0.00  0.00    -0.358 OA
BRANCH  22  23
HETATM   23  C   UNK     0     -51.737  -5.589  20.193  0.00  0.00     0.175 C 
BRANCH  23  24
HETATM   24  C   UNK     0     -52.164  -6.933  20.771  0.00  0.00     0.065 C 
BRANCH  24  25
HETATM   25  C   UNK     0     -51.052  -7.952  20.738  0.00  0.00    -0.053 A 
HETATM   26  C   UNK     0     -50.392  -8.227  19.541  0.00  0.00     0.046 A 
HETATM   27  C   UNK     0     -49.362  -9.167  19.512  0.00  0.00     0.099 A 
HETATM   28  C   UNK     0     -48.994  -9.835  20.680  0.00  0.00     0.098 A 
HETATM   29  C   UNK     0     -49.654  -9.561  21.877  0.00  0.00     0.040 A 
HETATM   30  C   UNK     0     -50.683  -8.619  21.908  0.00  0.00     0.010 A 
BRANCH  27  31
HETATM   31  O   UNK     0     -48.724  -9.425  18.337  0.00  0.00    -0.358 OA
HETATM   32  H   UNK     0     -48.355 -10.325  18.367  0.00  0.00     0.217 HD
ENDBRANCH  27  31
BRANCH  28  33
HETATM   33  O   UNK     0     -47.990 -10.756  20.664  0.00  0.00    -0.358 OA
HETATM   34  H   UNK     0     -47.567 -10.779  21.539  0.00  0.00     0.217 HD
ENDBRANCH  28  33
ENDBRANCH  24  25
ENDBRANCH  23  24
ENDBRANCH  22  23
ENDBRANCH   6  22
BRANCH   3  35
HETATM   35  O   UNK     0     -49.722  -4.304  14.529  0.00  0.00    -0.390 OA
HETATM   36  H   UNK     0     -48.820  -4.619  14.706  0.00  0.00     0.210 HD
ENDBRANCH   3  35
BRANCH   5  37
HETATM   37  O   UNK     0     -53.974  -4.717  16.710  0.00  0.00    -0.388 OA
HETATM   38  H   UNK     0     -54.495  -4.441  17.484  0.00  0.00     0.210 HD
ENDBRANCH   5  37
BRANCH   4  39
HETATM   39  O   UNK     0     -52.343  -3.123  14.844  0.00  0.00    -0.390 OA
HETATM   40  H   UNK     0     -51.656  -2.436  14.894  0.00  0.00     0.210 HD
ENDBRANCH   4  39
TORSDOF 15
ENDMDL
MODEL 5
REMARK VINA RESULT:      -7.3      2.162      7.708
REMARK  15 active torsions:
REMARK  status: ('A' for Active; 'I' for Inactive)
REMARK    1  A    between atoms: O_2  and  C_18 
REMARK    2  A    between atoms: O_2  and  C_22 
REMARK    3  A    between atoms: O_4  and  C_14 
REMARK    4  A    between atoms: O_5  and  C_21 
REMARK    5  A    between atoms: O_5  and  C_25 
REMARK    6  A    between atoms: O_6  and  C_15 
REMARK    7  A    between atoms: O_7  and  C_16 
REMARK    8  A    between atoms: O_8  and  C_17 
REMARK    9  A    between atoms: O_9  and  C_19 
REMARK   10  A    between atoms: O_10  and  C_20 
REMARK   11  A    between atoms: O_11  and  C_30 
REMARK   12  A    between atoms: O_12  and  C_32 
REMARK   13  A    between atoms: C_13  and  C_22 
REMARK   14  A    between atoms: C_25  and  C_26 
REMARK   15  A    between atoms: C_26  and  C_27 
ROOT
HETATM    1  O   UNK     0     -49.649  -2.417  17.158  0.00  0.00    -0.348 OA
HETATM    2  C   UNK     0     -48.589  -1.657  16.575  0.00  0.00     0.180 C 
HETATM    3  C   UNK     0     -48.905  -1.362  15.107  0.00  0.00     0.180 C 
HETATM    4  C   UNK     0     -49.166  -2.657  14.337  0.00  0.00     0.183 C 
HETATM    5  C   UNK     0     -50.171  -3.543  15.071  0.00  0.00     0.204 C 
HETATM    6  C   UNK     0     -49.804  -3.696  16.547  0.00  0.00     0.291 C 
ENDROOT
BRANCH   2   7
HETATM    7  C   UNK     0     -48.440  -0.376  17.389  0.00  0.00     0.205 C 
BRANCH   7   8
HETATM    8  O   UNK     0     -47.283  -0.480  18.207  0.00  0.00    -0.356 OA
BRANCH   8   9
HETATM    9  C   UNK     0     -46.270   0.431  17.793  0.00  0.00     0.291 C 
HETATM   10  O   UNK     0     -45.677   0.057  16.545  0.00  0.00    -0.351 OA
HETATM   11  C   UNK     0     -44.969  -1.187  16.581  0.00  0.00     0.152 C 
HETATM   12  C   UNK     0     -43.833  -1.145  17.613  0.00  0.00     0.178 C 
HETATM   13  C   UNK     0     -44.449  -1.444  15.168  0.00  0.00     0.042 C 
HETATM   14  C   UNK     0     -44.383  -0.740  18.981  0.00  0.00     0.183 C 
HETATM   15  C   UNK     0     -45.205   0.547  18.882  0.00  0.00     0.204 C 
BRANCH  12  16
HETATM   16  O   UNK     0     -43.234  -2.432  17.739  0.00  0.00    -0.390 OA
HETATM   17  H   UNK     0     -43.670  -2.897  18.474  0.00  0.00     0.210 HD
ENDBRANCH  12  16
BRANCH  14  18
HETATM   18  O   UNK     0     -43.297  -0.553  19.886  0.00  0.00    -0.390 OA
HETATM   19  H   UNK     0     -43.064  -1.425  20.248  0.00  0.00     0.210 HD
ENDBRANCH  14  18
BRANCH  15  20
HETATM   20  O   UNK     0     -44.354   1.644  18.543  0.00  0.00    -0.388 OA
HETATM   21  H   UNK     0     -44.891   2.453  18.577  0.00  0.00     0.210 HD
ENDBRANCH  15  20
ENDBRANCH   8   9
ENDBRANCH   7   8
ENDBRANCH   2   7
BRANCH   6  22
HETATM   22  O   UNK     0     -50.858  -4.413  17.190  0.00  0.00    -0.358 OA
BRANCH  22  23
HETATM   23  C   UNK     0     -50.389  -5.099  18.340  0.00  0.00     0.175 C 
BRANCH  23  24
HETATM   24  C   UNK     0     -50.877  -6.543  18.312  0.00  0.00     0.065 C 
BRANCH  24  25
HETATM   25  C   UNK     0     -51.313  -7.028  19.673  0.00  0.00    -0.053 A 
HETATM   26  C   UNK     0     -50.840  -8.244  20.165  0.00  0.00     0.046 A 
HETATM   27  C   UNK     0     -51.242  -8.691  21.424  0.00  0.00     0.099 A 
HETATM   28  C   UNK     0     -52.118  -7.922  22.190  0.00  0.00     0.098 A 
HETATM   29  C   UNK     0     -52.591  -6.706  21.698  0.00  0.00     0.040 A 
HETATM   30  C   UNK     0     -52.189  -6.258  20.440  0.00  0.00     0.010 A 
BRANCH  27  31
HETATM   31  O   UNK     0     -50.771  -9.879  21.895  0.00  0.00    -0.358 OA
HETATM   32  H   UNK     0     -50.957 -10.575  21.241  0.00  0.00     0.217 HD
ENDBRANCH  27  31
BRANCH  28  33
HETATM   33  O   UNK     0     -52.518  -8.348  23.421  0.00  0.00    -0.358 OA
HETATM   34  H   UNK     0     -52.472  -7.603  24.045  0.00  0.00     0.217 HD
ENDBRANCH  28  33
ENDBRANCH  24  25
ENDBRANCH  23  24
ENDBRANCH  22  23
ENDBRANCH   6  22
BRANCH   3  35
HETATM   35  O   UNK     0     -47.804  -0.676  14.517  0.00  0.00    -0.390 OA
HETATM   36  H   UNK     0     -48.156  -0.047  13.864  0.00  0.00     0.210 HD
ENDBRANCH   3  35
BRANCH   5  37
HETATM   37  O   UNK     0     -50.181  -4.841  14.477  0.00  0.00    -0.388 OA
HETATM   38  H   UNK     0     -49.501  -4.860  13.781  0.00  0.00     0.210 HD
ENDBRANCH   5  37
BRANCH   4  39
HETATM   39  O   UNK     0     -49.687  -2.309  13.053  0.00  0.00    -0.390 OA
HETATM   40  H   UNK     0     -50.436  -2.899  12.860  0.00  0.00     0.210 HD
ENDBRANCH   4  39
TORSDOF 15
ENDMDL
MODEL 6
REMARK VINA RESULT:      -7.3      2.928      8.132
REMARK  15 active torsions:
REMARK  status: ('A' for Active; 'I' for Inactive)
REMARK    1  A    between atoms: O_2  and  C_18 
REMARK    2  A    between atoms: O_2  and  C_22 
REMARK    3  A    between atoms: O_4  and  C_14 
REMARK    4  A    between atoms: O_5  and  C_21 
REMARK    5  A    between atoms: O_5  and  C_25 
REMARK    6  A    between atoms: O_6  and  C_15 
REMARK    7  A    between atoms: O_7  and  C_16 
REMARK    8  A    between atoms: O_8  and  C_17 
REMARK    9  A    between atoms: O_9  and  C_19 
REMARK   10  A    between atoms: O_10  and  C_20 
REMARK   11  A    between atoms: O_11  and  C_30 
REMARK   12  A    between atoms: O_12  and  C_32 
REMARK   13  A    between atoms: C_13  and  C_22 
REMARK   14  A    between atoms: C_25  and  C_26 
REMARK   15  A    between atoms: C_26  and  C_27 
ROOT
HETATM    1  O   UNK     0     -51.442  -5.378  17.713  0.00  0.00    -0.348 OA
HETATM    2  C   UNK     0     -51.342  -4.412  16.665  0.00  0.00     0.180 C 
HETATM    3  C   UNK     0     -52.736  -4.070  16.135  0.00  0.00     0.180 C 
HETATM    4  C   UNK     0     -53.468  -5.332  15.677  0.00  0.00     0.183 C 
HETATM    5  C   UNK     0     -53.408  -6.424  16.744  0.00  0.00     0.204 C 
HETATM    6  C   UNK     0     -51.984  -6.618  17.263  0.00  0.00     0.291 C 
ENDROOT
BRANCH   2   7
HETATM    7  C   UNK     0     -50.637  -3.186  17.237  0.00  0.00     0.205 C 
BRANCH   7   8
HETATM    8  O   UNK     0     -50.260  -2.330  16.168  0.00  0.00    -0.356 OA
BRANCH   8   9
HETATM    9  C   UNK     0     -49.333  -2.966  15.294  0.00  0.00     0.291 C 
HETATM   10  O   UNK     0     -48.102  -3.293  15.948  0.00  0.00    -0.351 OA
HETATM   11  C   UNK     0     -47.359  -2.156  16.402  0.00  0.00     0.152 C 
HETATM   12  C   UNK     0     -47.003  -1.228  15.233  0.00  0.00     0.178 C 
HETATM   13  C   UNK     0     -46.114  -2.691  17.107  0.00  0.00     0.042 C 
HETATM   14  C   UNK     0     -48.268  -0.838  14.468  0.00  0.00     0.183 C 
HETATM   15  C   UNK     0     -49.077  -2.077  14.078  0.00  0.00     0.204 C 
BRANCH  12  16
HETATM   16  O   UNK     0     -46.393  -0.035  15.718  0.00  0.00    -0.390 OA
HETATM   17  H   UNK     0     -45.632   0.168  15.147  0.00  0.00     0.210 HD
ENDBRANCH  12  16
BRANCH  14  18
HETATM   18  O   UNK     0     -47.904  -0.109  13.298  0.00  0.00    -0.390 OA
HETATM   19  H   UNK     0     -48.726   0.150  12.846  0.00  0.00     0.210 HD
ENDBRANCH  14  18
BRANCH  15  20
HETATM   20  O   UNK     0     -48.352  -2.850  13.120  0.00  0.00    -0.388 OA
HETATM   21  H   UNK     0     -48.548  -2.486  12.240  0.00  0.00     0.210 HD
ENDBRANCH  15  20
ENDBRANCH   8   9
ENDBRANCH   7   8
ENDBRANCH   2   7
BRANCH   6  22
HETATM   22  O   UNK     0     -52.033  -7.545  18.348  0.00  0.00    -0.358 OA
BRANCH  22  23
HETATM   23  C   UNK     0     -51.380  -7.029  19.497  0.00  0.00     0.175 C 
BRANCH  23  24
HETATM   24  C   UNK     0     -51.450  -8.048  20.629  0.00  0.00     0.065 C 
BRANCH  24  25
HETATM   25  C   UNK     0     -51.999  -7.454  21.903  0.00  0.00    -0.053 A 
HETATM   26  C   UNK     0     -53.184  -6.720  21.877  0.00  0.00     0.046 A 
HETATM   27  C   UNK     0     -53.692  -6.173  23.056  0.00  0.00     0.099 A 
HETATM   28  C   UNK     0     -53.013  -6.360  24.260  0.00  0.00     0.098 A 
HETATM   29  C   UNK     0     -51.828  -7.093  24.286  0.00  0.00     0.040 A 
HETATM   30  C   UNK     0     -51.320  -7.641  23.108  0.00  0.00     0.010 A 
BRANCH  27  31
HETATM   31  O   UNK     0     -54.852  -5.460  23.018  0.00  0.00    -0.358 OA
HETATM   32  H   UNK     0     -55.604  -6.077  23.033  0.00  0.00     0.217 HD
ENDBRANCH  27  31
BRANCH  28  33
HETATM   33  O   UNK     0     -53.500  -5.830  25.418  0.00  0.00    -0.358 OA
HETATM   34  H   UNK     0     -52.754  -5.541  25.971  0.00  0.00     0.217 HD
ENDBRANCH  28  33
ENDBRANCH  24  25
ENDBRANCH  23  24
ENDBRANCH  22  23
ENDBRANCH   6  22
BRANCH   3  35
HETATM   35  O   UNK     0     -52.615  -3.170  15.037  0.00  0.00    -0.390 OA
HETATM   36  H   UNK     0     -52.105  -2.398  15.337  0.00  0.00     0.210 HD
ENDBRANCH   3  35
BRANCH   5  37
HETATM   37  O   UNK     0     -53.852  -7.659  16.184  0.00  0.00    -0.388 OA
HETATM   38  H   UNK     0     -54.825  -7.647  16.158  0.00  0.00     0.210 HD
ENDBRANCH   5  37
BRANCH   4  39
HETATM   39  O   UNK     0     -54.831  -4.985  15.426  0.00  0.00    -0.390 OA
HETATM   40  H   UNK     0     -55.094  -4.304  16.069  0.00  0.00     0.210 HD
ENDBRANCH   4  39
TORSDOF 15
ENDMDL
MODEL 7
REMARK VINA RESULT:      -7.3      2.523      6.862
REMARK  15 active torsions:
REMARK  status: ('A' for Active; 'I' for Inactive)
REMARK    1  A    between atoms: O_2  and  C_18 
REMARK    2  A    between atoms: O_2  and  C_22 
REMARK    3  A    between atoms: O_4  and  C_14 
REMARK    4  A    between atoms: O_5  and  C_21 
REMARK    5  A    between atoms: O_5  and  C_25 
REMARK    6  A    between atoms: O_6  and  C_15 
REMARK    7  A    between atoms: O_7  and  C_16 
REMARK    8  A    between atoms: O_8  and  C_17 
REMARK    9  A    between atoms: O_9  and  C_19 
REMARK   10  A    between atoms: O_10  and  C_20 
REMARK   11  A    between atoms: O_11  and  C_30 
REMARK   12  A    between atoms: O_12  and  C_32 
REMARK   13  A    between atoms: C_13  and  C_22 
REMARK   14  A    between atoms: C_25  and  C_26 
REMARK   15  A    between atoms: C_26  and  C_27 
ROOT
HETATM    1  O   UNK     0     -50.261  -5.637  17.616  0.00  0.00    -0.348 OA
HETATM    2  C   UNK     0     -51.570  -5.572  17.046  0.00  0.00     0.180 C 
HETATM    3  C   UNK     0     -52.331  -4.376  17.621  0.00  0.00     0.180 C 
HETATM    4  C   UNK     0     -52.378  -4.444  19.147  0.00  0.00     0.183 C 
HETATM    5  C   UNK     0     -50.989  -4.695  19.732  0.00  0.00     0.204 C 
HETATM    6  C   UNK     0     -50.289  -5.855  19.025  0.00  0.00     0.291 C 
ENDROOT
BRANCH   2   7
HETATM    7  C   UNK     0     -51.409  -5.466  15.533  0.00  0.00     0.205 C 
BRANCH   7   8
HETATM    8  O   UNK     0     -51.283  -4.097  15.176  0.00  0.00    -0.356 OA
BRANCH   8   9
HETATM    9  C   UNK     0     -49.964  -3.793  14.736  0.00  0.00     0.291 C 
HETATM   10  O   UNK     0     -49.105  -3.400  15.812  0.00  0.00    -0.351 OA
HETATM   11  C   UNK     0     -49.495  -2.184  16.459  0.00  0.00     0.152 C 
HETATM   12  C   UNK     0     -49.520  -1.014  15.465  0.00  0.00     0.178 C 
HETATM   13  C   UNK     0     -48.504  -1.948  17.596  0.00  0.00     0.042 C 
HETATM   14  C   UNK     0     -50.410  -1.359  14.271  0.00  0.00     0.183 C 
HETATM   15  C   UNK     0     -50.015  -2.706  13.664  0.00  0.00     0.204 C 
BRANCH  12  16
HETATM   16  O   UNK     0     -50.047   0.153  16.090  0.00  0.00    -0.390 OA
HETATM   17  H   UNK     0     -51.016   0.123  16.015  0.00  0.00     0.210 HD
ENDBRANCH  12  16
BRANCH  14  18
HETATM   18  O   UNK     0     -50.296  -0.332  13.289  0.00  0.00    -0.390 OA
HETATM   19  H   UNK     0     -50.590  -0.704  12.439  0.00  0.00     0.210 HD
ENDBRANCH  14  18
BRANCH  15  20
HETATM   20  O   UNK     0     -48.717  -2.614  13.075  0.00  0.00    -0.388 OA
HETATM   21  H   UNK     0     -48.091  -2.378  13.780  0.00  0.00     0.210 HD
ENDBRANCH  15  20
ENDBRANCH   8   9
ENDBRANCH   7   8
ENDBRANCH   2   7
BRANCH   6  22
HETATM   22  O   UNK     0     -48.954  -5.934  19.526  0.00  0.00    -0.358 OA
BRANCH  22  23
HETATM   23  C   UNK     0     -48.439  -7.252  19.415  0.00  0.00     0.175 C 
BRANCH  23  24
HETATM   24  C   UNK     0     -47.589  -7.576  20.638  0.00  0.00     0.065 C 
BRANCH  24  25
HETATM   25  C   UNK     0     -46.263  -8.194  20.268  0.00  0.00    -0.053 A 
HETATM   26  C   UNK     0     -45.924  -8.369  18.927  0.00  0.00     0.046 A 
HETATM   27  C   UNK     0     -44.697  -8.938  18.586  0.00  0.00     0.099 A 
HETATM   28  C   UNK     0     -43.809  -9.333  19.586  0.00  0.00     0.098 A 
HETATM   29  C   UNK     0     -44.148  -9.158  20.928  0.00  0.00     0.040 A 
HETATM   30  C   UNK     0     -45.374  -8.589  21.270  0.00  0.00     0.010 A 
BRANCH  27  31
HETATM   31  O   UNK     0     -44.377  -9.102  17.272  0.00  0.00    -0.358 OA
HETATM   32  H   UNK     0     -45.145  -9.470  16.802  0.00  0.00     0.217 HD
ENDBRANCH  27  31
BRANCH  28  33
HETATM   33  O   UNK     0     -42.608  -9.891  19.265  0.00  0.00    -0.358 OA
HETATM   34  H   UNK     0     -42.536 -10.759  19.697  0.00  0.00     0.217 HD
ENDBRANCH  28  33
ENDBRANCH  24  25
ENDBRANCH  23  24
ENDBRANCH  22  23
ENDBRANCH   6  22
BRANCH   3  35
HETATM   35  O   UNK     0     -53.660  -4.372  17.107  0.00  0.00    -0.390 OA
HETATM   36  H   UNK     0     -54.189  -4.993  17.638  0.00  0.00     0.210 HD
ENDBRANCH   3  35
BRANCH   5  37
HETATM   37  O   UNK     0     -51.110  -5.024  21.116  0.00  0.00    -0.388 OA
HETATM   38  H   UNK     0     -51.925  -4.614  21.454  0.00  0.00     0.210 HD
ENDBRANCH   5  37
BRANCH   4  39
HETATM   39  O   UNK     0     -52.879  -3.196  19.630  0.00  0.00    -0.390 OA
HETATM   40  H   UNK     0     -53.035  -3.281  20.586  0.00  0.00     0.210 HD
ENDBRANCH   4  39
TORSDOF 15
ENDMDL
MODEL 8
REMARK VINA RESULT:      -7.2      3.145      5.194
REMARK  15 active torsions:
REMARK  status: ('A' for Active; 'I' for Inactive)
REMARK    1  A    between atoms: O_2  and  C_18 
REMARK    2  A    between atoms: O_2  and  C_22 
REMARK    3  A    between atoms: O_4  and  C_14 
REMARK    4  A    between atoms: O_5  and  C_21 
REMARK    5  A    between atoms: O_5  and  C_25 
REMARK    6  A    between atoms: O_6  and  C_15 
REMARK    7  A    between atoms: O_7  and  C_16 
REMARK    8  A    between atoms: O_8  and  C_17 
REMARK    9  A    between atoms: O_9  and  C_19 
REMARK   10  A    between atoms: O_10  and  C_20 
REMARK   11  A    between atoms: O_11  and  C_30 
REMARK   12  A    between atoms: O_12  and  C_32 
REMARK   13  A    between atoms: C_13  and  C_22 
REMARK   14  A    between atoms: C_25  and  C_26 
REMARK   15  A    between atoms: C_26  and  C_27 
ROOT
HETATM    1  O   UNK     0     -47.259  -1.031  17.640  0.00  0.00    -0.348 OA
HETATM    2  C   UNK     0     -47.786  -0.610  16.380  0.00  0.00     0.180 C 
HETATM    3  C   UNK     0     -47.404  -1.616  15.293  0.00  0.00     0.180 C 
HETATM    4  C   UNK     0     -45.889  -1.809  15.239  0.00  0.00     0.183 C 
HETATM    5  C   UNK     0     -45.316  -2.080  16.630  0.00  0.00     0.204 C 
HETATM    6  C   UNK     0     -45.834  -1.068  17.651  0.00  0.00     0.291 C 
ENDROOT
BRANCH   2   7
HETATM    7  C   UNK     0     -49.299  -0.489  16.532  0.00  0.00     0.205 C 
BRANCH   7   8
HETATM    8  O   UNK     0     -49.903  -1.716  16.148  0.00  0.00    -0.356 OA
BRANCH   8   9
HETATM    9  C   UNK     0     -50.458  -2.396  17.268  0.00  0.00     0.291 C 
HETATM   10  O   UNK     0     -49.732  -3.584  17.601  0.00  0.00    -0.351 OA
HETATM   11  C   UNK     0     -49.765  -4.595  16.588  0.00  0.00     0.152 C 
HETATM   12  C   UNK     0     -51.207  -5.029  16.289  0.00  0.00     0.178 C 
HETATM   13  C   UNK     0     -48.910  -5.756  17.090  0.00  0.00     0.042 C 
HETATM   14  C   UNK     0     -52.059  -3.810  15.934  0.00  0.00     0.183 C 
HETATM   15  C   UNK     0     -51.926  -2.720  16.999  0.00  0.00     0.204 C 
BRANCH  12  16
HETATM   16  O   UNK     0     -51.233  -5.925  15.182  0.00  0.00    -0.390 OA
HETATM   17  H   UNK     0     -50.893  -5.453  14.403  0.00  0.00     0.210 HD
ENDBRANCH  12  16
BRANCH  14  18
HETATM   18  O   UNK     0     -53.422  -4.209  15.815  0.00  0.00    -0.390 OA
HETATM   19  H   UNK     0     -53.518  -4.678  14.968  0.00  0.00     0.210 HD
ENDBRANCH  14  18
BRANCH  15  20
HETATM   20  O   UNK     0     -52.505  -3.165  18.227  0.00  0.00    -0.388 OA
HETATM   21  H   UNK     0     -51.849  -3.725  18.676  0.00  0.00     0.210 HD
ENDBRANCH  15  20
ENDBRANCH   8   9
ENDBRANCH   7   8
ENDBRANCH   2   7
BRANCH   6  22
HETATM   22  O   UNK     0     -45.373  -1.470  18.942  0.00  0.00    -0.358 OA
BRANCH  22  23
HETATM   23  C   UNK     0     -45.065  -0.347  19.752  0.00  0.00     0.175 C 
BRANCH  23  24
HETATM   24  C   UNK     0     -44.401   0.733  18.905  0.00  0.00     0.065 C 
BRANCH  24  25
HETATM   25  C   UNK     0     -43.140   1.267  19.540  0.00  0.00    -0.053 A 
HETATM   26  C   UNK     0     -42.496   2.373  18.989  0.00  0.00     0.046 A 
HETATM   27  C   UNK     0     -41.332   2.867  19.578  0.00  0.00     0.099 A 
HETATM   28  C   UNK     0     -40.812   2.254  20.717  0.00  0.00     0.098 A 
HETATM   29  C   UNK     0     -41.457   1.148  21.269  0.00  0.00     0.040 A 
HETATM   30  C   UNK     0     -42.621   0.653  20.682  0.00  0.00     0.010 A 
BRANCH  27  31
HETATM   31  O   UNK     0     -40.712   3.950  19.031  0.00  0.00    -0.358 OA
HETATM   32  H   UNK     0     -40.329   4.489  19.744  0.00  0.00     0.217 HD
ENDBRANCH  27  31
BRANCH  28  33
HETATM   33  O   UNK     0     -39.676   2.728  21.302  0.00  0.00    -0.358 OA
HETATM   34  H   UNK     0     -39.625   2.393  22.213  0.00  0.00     0.217 HD
ENDBRANCH  28  33
ENDBRANCH  24  25
ENDBRANCH  23  24
ENDBRANCH  22  23
ENDBRANCH   6  22
BRANCH   3  35
HETATM   35  O   UNK     0     -47.864  -1.142  14.030  0.00  0.00    -0.390 OA
HETATM   36  H   UNK     0     -48.596  -1.714  13.743  0.00  0.00     0.210 HD
ENDBRANCH   3  35
BRANCH   5  37
HETATM   37  O   UNK     0     -43.893  -1.981  16.585  0.00  0.00    -0.388 OA
HETATM   38  H   UNK     0     -43.535  -2.425  17.373  0.00  0.00     0.210 HD
ENDBRANCH   5  37
BRANCH   4  39
HETATM   39  O   UNK     0     -45.615  -2.923  14.387  0.00  0.00    -0.390 OA
HETATM   40  H   UNK     0     -44.676  -3.157  14.486  0.00  0.00     0.210 HD
ENDBRANCH   4  39
TORSDOF 15
ENDMDL
MODEL 9
REMARK VINA RESULT:      -7.1      2.874      8.076
REMARK  15 active torsions:
REMARK  status: ('A' for Active; 'I' for Inactive)
REMARK    1  A    between atoms: O_2  and  C_18 
REMARK    2  A    between atoms: O_2  and  C_22 
REMARK    3  A    between atoms: O_4  and  C_14 
REMARK    4  A    between atoms: O_5  and  C_21 
REMARK    5  A    between atoms: O_5  and  C_25 
REMARK    6  A    between atoms: O_6  and  C_15 
REMARK    7  A    between atoms: O_7  and  C_16 
REMARK    8  A    between atoms: O_8  and  C_17 
REMARK    9  A    between atoms: O_9  and  C_19 
REMARK   10  A    between atoms: O_10  and  C_20 
REMARK   11  A    between atoms: O_11  and  C_30 
REMARK   12  A    between atoms: O_12  and  C_32 
REMARK   13  A    between atoms: C_13  and  C_22 
REMARK   14  A    between atoms: C_25  and  C_26 
REMARK   15  A    between atoms: C_26  and  C_27 
ROOT
HETATM    1  O   UNK     0     -49.289  -2.682  17.157  0.00  0.00    -0.348 OA
HETATM    2  C   UNK     0     -48.481  -1.650  16.589  0.00  0.00     0.180 C 
HETATM    3  C   UNK     0     -49.075  -1.197  15.253  0.00  0.00     0.180 C 
HETATM    4  C   UNK     0     -49.237  -2.382  14.301  0.00  0.00     0.183 C 
HETATM    5  C   UNK     0     -49.946  -3.549  14.986  0.00  0.00     0.204 C 
HETATM    6  C   UNK     0     -49.325  -3.856  16.348  0.00  0.00     0.291 C 
ENDROOT
BRANCH   2   7
HETATM    7  C   UNK     0     -48.419  -0.507  17.597  0.00  0.00     0.205 C 
BRANCH   7   8
HETATM    8  O   UNK     0     -47.193  -0.585  18.310  0.00  0.00    -0.356 OA
BRANCH   8   9
HETATM    9  C   UNK     0     -46.261   0.389  17.852  0.00  0.00     0.291 C 
HETATM   10  O   UNK     0     -45.745   0.083  16.553  0.00  0.00    -0.351 OA
HETATM   11  C   UNK     0     -44.974  -1.122  16.497  0.00  0.00     0.152 C 
HETATM   12  C   UNK     0     -43.768  -1.049  17.444  0.00  0.00     0.178 C 
HETATM   13  C   UNK     0     -44.548  -1.311  15.043  0.00  0.00     0.042 C 
HETATM   14  C   UNK     0     -44.233  -0.711  18.861  0.00  0.00     0.183 C 
HETATM   15  C   UNK     0     -45.125   0.532  18.863  0.00  0.00     0.204 C 
BRANCH  12  16
HETATM   16  O   UNK     0     -43.096  -2.304  17.485  0.00  0.00    -0.390 OA
HETATM   17  H   UNK     0     -43.451  -2.813  18.234  0.00  0.00     0.210 HD
ENDBRANCH  12  16
BRANCH  14  18
HETATM   18  O   UNK     0     -43.094  -0.492  19.689  0.00  0.00    -0.390 OA
HETATM   19  H   UNK     0     -42.790  -1.360  20.006  0.00  0.00     0.210 HD
ENDBRANCH  14  18
BRANCH  15  20
HETATM   20  O   UNK     0     -44.360   1.681  18.498  0.00  0.00    -0.388 OA
HETATM   21  H   UNK     0     -44.933   2.460  18.597  0.00  0.00     0.210 HD
ENDBRANCH  15  20
ENDBRANCH   8   9
ENDBRANCH   7   8
ENDBRANCH   2   7
BRANCH   6  22
HETATM   22  O   UNK     0     -50.126  -4.854  16.982  0.00  0.00    -0.358 OA
BRANCH  22  23
HETATM   23  C   UNK     0     -51.474  -4.430  17.108  0.00  0.00     0.175 C 
BRANCH  23  24
HETATM   24  C   UNK     0     -52.315  -5.559  17.693  0.00  0.00     0.065 C 
BRANCH  24  25
HETATM   25  C   UNK     0     -53.333  -6.086  16.712  0.00  0.00    -0.053 A 
HETATM   26  C   UNK     0     -53.666  -7.440  16.710  0.00  0.00     0.046 A 
HETATM   27  C   UNK     0     -54.608  -7.925  15.804  0.00  0.00     0.099 A 
HETATM   28  C   UNK     0     -55.217  -7.057  14.898  0.00  0.00     0.098 A 
HETATM   29  C   UNK     0     -54.884  -5.703  14.900  0.00  0.00     0.040 A 
HETATM   30  C   UNK     0     -53.943  -5.216  15.806  0.00  0.00     0.010 A 
BRANCH  27  31
HETATM   31  O   UNK     0     -54.926  -9.250  15.813  0.00  0.00    -0.358 OA
HETATM   32  H   UNK     0     -54.110  -9.772  15.727  0.00  0.00     0.217 HD
ENDBRANCH  27  31
BRANCH  28  33
HETATM   33  O   UNK     0     -56.139  -7.520  14.008  0.00  0.00    -0.358 OA
HETATM   34  H   UNK     0     -56.613  -8.270  14.405  0.00  0.00     0.217 HD
ENDBRANCH  28  33
ENDBRANCH  24  25
ENDBRANCH  23  24
ENDBRANCH  22  23
ENDBRANCH   6  22
BRANCH   3  35
HETATM   35  O   UNK     0     -48.215  -0.228  14.660  0.00  0.00    -0.390 OA
HETATM   36  H   UNK     0     -48.769   0.415  14.185  0.00  0.00     0.210 HD
ENDBRANCH   3  35
BRANCH   5  37
HETATM   37  O   UNK     0     -49.835  -4.716  14.171  0.00  0.00    -0.388 OA
HETATM   38  H   UNK     0     -49.283  -4.494  13.401  0.00  0.00     0.210 HD
ENDBRANCH   5  37
BRANCH   4  39
HETATM   39  O   UNK     0     -50.010  -1.946  13.181  0.00  0.00    -0.390 OA
HETATM   40  H   UNK     0     -50.671  -2.632  12.984  0.00  0.00     0.210 HD
ENDBRANCH   4  39
TORSDOF 15
ENDMDL
MODEL 10
REMARK VINA RESULT:      -7.1      2.799      8.159
REMARK  15 active torsions:
REMARK  status: ('A' for Active; 'I' for Inactive)
REMARK    1  A    between atoms: O_2  and  C_18 
REMARK    2  A    between atoms: O_2  and  C_22 
REMARK    3  A    between atoms: O_4  and  C_14 
REMARK    4  A    between atoms: O_5  and  C_21 
REMARK    5  A    between atoms: O_5  and  C_25 
REMARK    6  A    between atoms: O_6  and  C_15 
REMARK    7  A    between atoms: O_7  and  C_16 
REMARK    8  A    between atoms: O_8  and  C_17 
REMARK    9  A    between atoms: O_9  and  C_19 
REMARK   10  A    between atoms: O_10  and  C_20 
REMARK   11  A    between atoms: O_11  and  C_30 
REMARK   12  A    between atoms: O_12  and  C_32 
REMARK   13  A    between atoms: C_13  and  C_22 
REMARK   14  A    between atoms: C_25  and  C_26 
REMARK   15  A    between atoms: C_26  and  C_27 
ROOT
HETATM    1  O   UNK     0     -49.169  -5.591  19.352  0.00  0.00    -0.348 OA
HETATM    2  C   UNK     0     -49.391  -5.384  17.956  0.00  0.00     0.180 C 
HETATM    3  C   UNK     0     -50.687  -6.075  17.526  0.00  0.00     0.180 C 
HETATM    4  C   UNK     0     -50.655  -7.561  17.883  0.00  0.00     0.183 C 
HETATM    5  C   UNK     0     -50.237  -7.771  19.338  0.00  0.00     0.204 C 
HETATM    6  C   UNK     0     -48.983  -6.966  19.679  0.00  0.00     0.291 C 
ENDROOT
BRANCH   2   7
HETATM    7  C   UNK     0     -49.446  -3.879  17.717  0.00  0.00     0.205 C 
BRANCH   7   8
HETATM    8  O   UNK     0     -48.181  -3.314  18.031  0.00  0.00    -0.356 OA
BRANCH   8   9
HETATM    9  C   UNK     0     -47.274  -3.431  16.940  0.00  0.00     0.291 C 
HETATM   10  O   UNK     0     -45.930  -3.109  17.311  0.00  0.00    -0.351 OA
HETATM   11  C   UNK     0     -45.743  -1.748  17.714  0.00  0.00     0.152 C 
HETATM   12  C   UNK     0     -46.133  -0.780  16.588  0.00  0.00     0.178 C 
HETATM   13  C   UNK     0     -44.276  -1.599  18.113  0.00  0.00     0.042 C 
HETATM   14  C   UNK     0     -47.561  -1.067  16.122  0.00  0.00     0.183 C 
HETATM   15  C   UNK     0     -47.741  -2.548  15.784  0.00  0.00     0.204 C 
BRANCH  12  16
HETATM   16  O   UNK     0     -46.079   0.565  17.053  0.00  0.00    -0.390 OA
HETATM   17  H   UNK     0     -45.669   1.108  16.358  0.00  0.00     0.210 HD
ENDBRANCH  12  16
BRANCH  14  18
HETATM   18  O   UNK     0     -47.849  -0.269  14.975  0.00  0.00    -0.390 OA
HETATM   19  H   UNK     0     -47.172  -0.464  14.305  0.00  0.00     0.210 HD
ENDBRANCH  14  18
BRANCH  15  20
HETATM   20  O   UNK     0     -46.959  -2.884  14.637  0.00  0.00    -0.388 OA
HETATM   21  H   UNK     0     -47.444  -2.582  13.851  0.00  0.00     0.210 HD
ENDBRANCH  15  20
ENDBRANCH   8   9
ENDBRANCH   7   8
ENDBRANCH   2   7
BRANCH   6  22
HETATM   22  O   UNK     0     -48.741  -7.101  21.080  0.00  0.00    -0.358 OA
BRANCH  22  23
HETATM   23  C   UNK     0     -47.427  -7.570  21.333  0.00  0.00     0.175 C 
BRANCH  23  24
HETATM   24  C   UNK     0     -47.484  -8.799  22.234  0.00  0.00     0.065 C 
BRANCH  24  25
HETATM   25  C   UNK     0     -47.489 -10.087  21.448  0.00  0.00    -0.053 A 
HETATM   26  C   UNK     0     -46.599 -10.263  20.390  0.00  0.00     0.046 A 
HETATM   27  C   UNK     0     -46.603 -11.455  19.665  0.00  0.00     0.099 A 
HETATM   28  C   UNK     0     -47.498 -12.471  19.999  0.00  0.00     0.098 A 
HETATM   29  C   UNK     0     -48.389 -12.295  21.057  0.00  0.00     0.040 A 
HETATM   30  C   UNK     0     -48.385 -11.104  21.783  0.00  0.00     0.010 A 
BRANCH  27  31
HETATM   31  O   UNK     0     -45.726 -11.615  18.634  0.00  0.00    -0.358 OA
HETATM   32  H   UNK     0     -45.835 -10.878  18.009  0.00  0.00     0.217 HD
ENDBRANCH  27  31
BRANCH  28  33
HETATM   33  O   UNK     0     -47.511 -13.640  19.298  0.00  0.00    -0.358 OA
HETATM   34  H   UNK     0     -46.604 -13.851  19.018  0.00  0.00     0.217 HD
ENDBRANCH  28  33
ENDBRANCH  24  25
ENDBRANCH  23  24
ENDBRANCH  22  23
ENDBRANCH   6  22
BRANCH   3  35
HETATM   35  O   UNK     0     -50.852  -5.931  16.118  0.00  0.00    -0.390 OA
HETATM   36  H   UNK     0     -51.794  -5.768  15.941  0.00  0.00     0.210 HD
ENDBRANCH   3  35
BRANCH   5  37
HETATM   37  O   UNK     0     -49.953  -9.153  19.555  0.00  0.00    -0.388 OA
HETATM   38  H   UNK     0     -49.003  -9.294  19.399  0.00  0.00     0.210 HD
ENDBRANCH   5  37
BRANCH   4  39
HETATM   39  O   UNK     0     -51.966  -8.092  17.683  0.00  0.00    -0.390 OA
HETATM   40  H   UNK     0     -52.610  -7.395  17.893  0.00  0.00     0.210 HD
ENDBRANCH   4  39
TORSDOF 15
ENDMDL
