MODEL 1
REMARK VINA RESULT:      -8.5      0.000      0.000
REMARK  20 active torsions:
REMARK  status: ('A' for Active; 'I' for Inactive)
REMARK    1  A    between atoms: C_3  and  C_7 
REMARK    2  A    between atoms: C_7  and  C_8 
REMARK    3  A    between atoms: C_8  and  N_9 
REMARK    4  A    between atoms: C_8  and  C_10 
REMARK    5  A    between atoms: C_10  and  O_11 
REMARK    6  A    between atoms: C_10  and  C_12 
REMARK    7  A    between atoms: C_12  and  C_13 
REMARK    8  A    between atoms: C_13  and  C_14 
REMARK    9  A    between atoms: C_13  and  N_21 
REMARK   10  A    between atoms: C_14  and  C_15 
REMARK   11  A    between atoms: N_21  and  P_22 
REMARK   12  A    between atoms: P_22  and  O_23 
REMARK   13  A    between atoms: P_22  and  O_24 
REMARK   14  A    between atoms: O_23  and  C_26 
REMARK   15  A    between atoms: O_24  and  C_27 
REMARK   16  A    between atoms: C_26  and  C_33 
REMARK   17  A    between atoms: C_35  and  C_40 
REMARK   18  A    between atoms: C_36  and  O_39 
REMARK   19  A    between atoms: C_37  and  O_38 
REMARK   20  A    between atoms: C_50  and  N_51 
ROOT
HETATM    1  C   MOL     1     -43.178   1.440  19.271  1.00 -0.25     0.001 A 
HETATM    2  C   MOL     1     -43.978   1.199  18.177  1.00 -0.30     0.007 A 
HETATM    3  C   MOL     1     -44.261  -0.093  17.792  1.00 -0.25    -0.056 A 
HETATM    4  C   MOL     1     -43.735  -1.144  18.513  1.00 -0.33     0.007 A 
HETATM    5  C   MOL     1     -42.934  -0.905  19.606  1.00 -0.34     0.001 A 
HETATM    6  C   MOL     1     -42.655   0.388  19.985  1.00 -0.27     0.000 A 
ENDROOT
BRANCH   3   7
HETATM    7  C   MOL     1     -45.148  -0.358  16.585  1.00 -0.43     0.074 C 
BRANCH   7   8
HETATM    8  C   MOL     1     -45.072  -1.793  16.018  1.00 -0.43     0.216 C 
BRANCH   8   9
HETATM    9  N   MOL     1     -44.256  -1.779  14.753  1.00  0.05    -0.072 N 
HETATM   10  H   MOL     1     -44.694  -2.180  14.064  1.00 -0.64     0.274 HD
HETATM   11  H   MOL     1     -44.064  -0.930  14.487  1.00 -0.76     0.274 HD
HETATM   12  H   MOL     1     -43.458  -2.202  14.850  1.00 -0.15     0.274 HD
ENDBRANCH   8   9
BRANCH   8  13
HETATM   13  C   MOL     1     -46.496  -2.337  15.762  1.00 -0.29     0.150 C 
BRANCH  13  14
HETATM   14  O   MOL     1     -46.581  -2.889  14.436  1.00  0.06    -0.393 OA
HETATM   15  H   MOL     1     -47.164  -3.708  14.419  1.00 -0.27     0.210 HD
ENDBRANCH  13  14
BRANCH  13  16
HETATM   16  C   MOL     1     -47.557  -1.227  15.919  1.00 -0.14     0.054 C 
BRANCH  16  17
HETATM   17  C   MOL     1     -48.375  -1.397  17.218  1.00 -0.12     0.073 C 
BRANCH  17  18
HETATM   18  C   MOL     1     -48.739  -0.006  17.784  1.00 -0.13     0.058 C 
BRANCH  18  19
HETATM   19  C   MOL     1     -47.882   0.476  18.944  1.00 -0.16    -0.057 A 
HETATM   20  C   MOL     1     -47.284  -0.432  19.790  1.00 -0.21     0.007 A 
HETATM   21  C   MOL     1     -46.510   0.003  20.843  1.00 -0.25     0.001 A 
HETATM   22  C   MOL     1     -46.333   1.350  21.055  1.00 -0.37     0.000 A 
HETATM   23  C   MOL     1     -46.929   2.262  20.213  1.00 -0.40     0.001 A 
HETATM   24  C   MOL     1     -47.701   1.825  19.161  1.00 -0.21     0.007 A 
ENDBRANCH  18  19
ENDBRANCH  17  18
BRANCH  17  25
HETATM   25  N   MOL     1     -49.606  -2.147  16.933  1.00  0.15    -0.221 NA
HETATM   26  H   MOL     1     -49.645  -2.399  15.937  1.00  0.32     0.134 HD
BRANCH  25  27
HETATM   27  P   MOL     1     -49.798  -3.367  17.799  1.00  0.09     0.413 P 
HETATM   28  O   MOL     1     -49.031  -3.251  19.090  1.00  0.07    -0.239 OA
BRANCH  27  29
HETATM   29  O   MOL     1     -49.374  -4.709  17.022  1.00  0.12    -0.299 OA
BRANCH  29  30
HETATM   30  C   MOL     1     -48.250  -5.462  17.501  1.00 -0.20     0.214 C 
BRANCH  30  31
HETATM   31  C   MOL     1     -48.708  -6.440  18.595  1.00 -0.04     0.180 C 
HETATM   32  O   MOL     1     -47.627  -6.785  19.477  1.00  0.26    -0.347 OA
HETATM   33  C   MOL     1     -47.767  -8.144  19.931  1.00 -0.04     0.222 C 
HETATM   34  C   MOL     1     -49.028  -8.702  19.230  1.00 -0.10     0.205 C 
HETATM   35  C   MOL     1     -47.961  -8.127  21.386  1.00 -0.21     0.107 C 
HETATM   36  C   MOL     1     -49.233  -7.768  18.031  1.00 -0.06     0.182 C 
HETATM   37  N   MOL     1     -48.112  -8.114  22.513  1.00  0.07    -0.193 NA
BRANCH  33  38
HETATM   38  C   MOL     1     -46.450  -8.825  19.573  1.00 -0.19     0.088 A 
HETATM   39  N   MOL     1     -46.157 -10.064  20.033  1.00 -0.03    -0.229 N 
HETATM   40  C   MOL     1     -44.927 -10.351  19.530  1.00 -0.22     0.104 A 
HETATM   41  N   MOL     1     -46.819 -10.957  20.827  1.00  0.23    -0.160 NA
HETATM   42  C   MOL     1     -44.453  -9.326  18.776  1.00 -0.37     0.038 A 
HETATM   43  C   MOL     1     -44.360 -11.610  19.854  1.00 -0.44     0.151 A 
HETATM   44  C   MOL     1     -45.444  -8.341  18.811  1.00 -0.17     0.034 A 
HETATM   45  N   MOL     1     -44.997 -12.497  20.631  1.00 -0.19    -0.221 NA
HETATM   46  C   MOL     1     -46.229 -12.100  21.085  1.00 -0.33     0.258 A 
BRANCH  43  47
HETATM   47  N   MOL     1     -43.121 -11.971  19.378  1.00 -0.25    -0.382 N 
HETATM   48  H   MOL     1     -42.454 -11.398  19.416  1.00 -0.27     0.157 HD
HETATM   49  H   MOL     1     -42.991 -12.772  19.036  1.00 -0.19     0.157 HD
ENDBRANCH  43  47
ENDBRANCH  33  38
BRANCH  34  50
HETATM   50  O   MOL     1     -48.897 -10.074  18.823  1.00  0.41    -0.388 OA
HETATM   51  H   MOL     1     -48.342 -10.156  17.989  1.00 -0.42     0.210 HD
ENDBRANCH  34  50
BRANCH  36  52
HETATM   52  O   MOL     1     -48.445  -8.227  16.922  1.00  0.07    -0.390 OA
HETATM   53  H   MOL     1     -48.280  -7.487  16.260  1.00 -0.09     0.210 HD
ENDBRANCH  36  52
ENDBRANCH  30  31
ENDBRANCH  29  30
ENDBRANCH  27  29
BRANCH  27  54
HETATM   54  O   MOL     1     -51.367  -3.599  18.093  1.00  0.13    -0.260 OA
BRANCH  54  55
HETATM   55  C   MOL     1     -52.145  -4.404  17.308  1.00 -0.29     0.080 A 
HETATM   56  C   MOL     1     -52.675  -3.961  16.110  1.00 -0.28     0.037 A 
HETATM   57  C   MOL     1     -53.451  -4.797  15.341  1.00 -0.40     0.003 A 
HETATM   58  C   MOL     1     -53.703  -6.083  15.761  1.00 -0.35     0.000 A 
HETATM   59  C   MOL     1     -53.179  -6.531  16.952  1.00 -0.47     0.003 A 
HETATM   60  C   MOL     1     -52.406  -5.696  17.722  1.00 -0.37     0.037 A 
ENDBRANCH  54  55
ENDBRANCH  27  54
ENDBRANCH  25  27
ENDBRANCH  17  25
ENDBRANCH  16  17
ENDBRANCH  13  16
ENDBRANCH   8  13
ENDBRANCH   7   8
ENDBRANCH   3   7
TORSDOF 20
ENDMDL
MODEL 2
REMARK VINA RESULT:      -8.2      3.781      5.963
REMARK  20 active torsions:
REMARK  status: ('A' for Active; 'I' for Inactive)
REMARK    1  A    between atoms: C_3  and  C_7 
REMARK    2  A    between atoms: C_7  and  C_8 
REMARK    3  A    between atoms: C_8  and  N_9 
REMARK    4  A    between atoms: C_8  and  C_10 
REMARK    5  A    between atoms: C_10  and  O_11 
REMARK    6  A    between atoms: C_10  and  C_12 
REMARK    7  A    between atoms: C_12  and  C_13 
REMARK    8  A    between atoms: C_13  and  C_14 
REMARK    9  A    between atoms: C_13  and  N_21 
REMARK   10  A    between atoms: C_14  and  C_15 
REMARK   11  A    between atoms: N_21  and  P_22 
REMARK   12  A    between atoms: P_22  and  O_23 
REMARK   13  A    between atoms: P_22  and  O_24 
REMARK   14  A    between atoms: O_23  and  C_26 
REMARK   15  A    between atoms: O_24  and  C_27 
REMARK   16  A    between atoms: C_26  and  C_33 
REMARK   17  A    between atoms: C_35  and  C_40 
REMARK   18  A    between atoms: C_36  and  O_39 
REMARK   19  A    between atoms: C_37  and  O_38 
REMARK   20  A    between atoms: C_50  and  N_51 
ROOT
HETATM    1  C   MOL     1     -42.287   2.521  20.170  1.00 -0.25     0.001 A 
HETATM    2  C   MOL     1     -42.793   1.883  19.060  1.00 -0.30     0.007 A 
HETATM    3  C   MOL     1     -43.107   0.542  19.111  1.00 -0.25    -0.056 A 
HETATM    4  C   MOL     1     -42.910  -0.156  20.283  1.00 -0.33     0.007 A 
HETATM    5  C   MOL     1     -42.403   0.481  21.394  1.00 -0.34     0.001 A 
HETATM    6  C   MOL     1     -42.091   1.819  21.336  1.00 -0.27     0.000 A 
ENDROOT
BRANCH   3   7
HETATM    7  C   MOL     1     -43.670  -0.161  17.884  1.00 -0.43     0.074 C 
BRANCH   7   8
HETATM    8  C   MOL     1     -44.211  -1.585  18.137  1.00 -0.43     0.216 C 
BRANCH   8   9
HETATM    9  N   MOL     1     -43.313  -2.582  17.453  1.00  0.05    -0.072 N 
HETATM   10  H   MOL     1     -42.945  -2.240  16.695  1.00 -0.64     0.274 HD
HETATM   11  H   MOL     1     -42.624  -2.836  17.991  1.00 -0.76     0.274 HD
HETATM   12  H   MOL     1     -43.752  -3.343  17.224  1.00 -0.15     0.274 HD
ENDBRANCH   8   9
BRANCH   8  13
HETATM   13  C   MOL     1     -45.666  -1.696  17.624  1.00 -0.29     0.150 C 
BRANCH  13  14
HETATM   14  O   MOL     1     -45.721  -2.577  16.488  1.00  0.06    -0.393 OA
HETATM   15  H   MOL     1     -46.359  -3.338  16.647  1.00 -0.27     0.210 HD
ENDBRANCH  13  14
BRANCH  13  16
HETATM   16  C   MOL     1     -46.227  -0.314  17.224  1.00 -0.14     0.054 C 
BRANCH  16  17
HETATM   17  C   MOL     1     -47.242   0.212  18.262  1.00 -0.12     0.073 C 
BRANCH  17  18
HETATM   18  C   MOL     1     -46.648   1.443  18.984  1.00 -0.13     0.058 C 
BRANCH  18  19
HETATM   19  C   MOL     1     -46.323   1.245  20.457  1.00 -0.16    -0.057 A 
HETATM   20  C   MOL     1     -46.449   0.001  21.035  1.00 -0.21     0.007 A 
HETATM   21  C   MOL     1     -46.158  -0.179  22.369  1.00 -0.25     0.001 A 
HETATM   22  C   MOL     1     -45.740   0.888  23.131  1.00 -0.37     0.000 A 
HETATM   23  C   MOL     1     -45.613   2.133  22.558  1.00 -0.40     0.001 A 
HETATM   24  C   MOL     1     -45.904   2.310  21.225  1.00 -0.21     0.007 A 
ENDBRANCH  18  19
ENDBRANCH  17  18
BRANCH  17  25
HETATM   25  N   MOL     1     -48.488   0.597  17.583  1.00  0.15    -0.221 NA
HETATM   26  H   MOL     1     -48.394   0.466  16.568  1.00  0.32     0.134 HD
BRANCH  25  27
HETATM   27  P   MOL     1     -49.714  -0.111  18.101  1.00  0.09     0.413 P 
HETATM   28  O   MOL     1     -49.346  -1.304  18.944  1.00  0.07    -0.239 OA
BRANCH  27  29
HETATM   29  O   MOL     1     -50.680  -0.563  16.898  1.00  0.12    -0.299 OA
BRANCH  29  30
HETATM   30  C   MOL     1     -50.096  -0.931  15.640  1.00 -0.20     0.214 C 
BRANCH  30  31
HETATM   31  C   MOL     1     -50.532  -2.356  15.262  1.00 -0.04     0.180 C 
HETATM   32  O   MOL     1     -51.640  -2.796  16.066  1.00  0.26    -0.347 OA
HETATM   33  C   MOL     1     -51.552  -4.213  16.306  1.00 -0.04     0.222 C 
HETATM   34  C   MOL     1     -50.246  -4.683  15.622  1.00 -0.10     0.205 C 
HETATM   35  C   MOL     1     -52.713  -4.860  15.680  1.00 -0.21     0.107 C 
HETATM   36  C   MOL     1     -49.423  -3.398  15.467  1.00 -0.06     0.182 C 
HETATM   37  N   MOL     1     -53.611  -5.360  15.195  1.00  0.07    -0.193 NA
BRANCH  33  38
HETATM   38  C   MOL     1     -51.604  -4.367  17.822  1.00 -0.19     0.088 A 
HETATM   39  N   MOL     1     -51.592  -5.592  18.399  1.00 -0.03    -0.229 N 
HETATM   40  C   MOL     1     -51.651  -5.357  19.737  1.00 -0.22     0.104 A 
HETATM   41  N   MOL     1     -51.540  -6.866  17.909  1.00  0.23    -0.160 NA
HETATM   42  C   MOL     1     -51.701  -4.026  20.000  1.00 -0.37     0.038 A 
HETATM   43  C   MOL     1     -51.652  -6.481  20.604  1.00 -0.44     0.151 A 
HETATM   44  C   MOL     1     -51.672  -3.393  18.755  1.00 -0.17     0.034 A 
HETATM   45  N   MOL     1     -51.601  -7.736  20.138  1.00 -0.19    -0.221 NA
HETATM   46  C   MOL     1     -51.547  -7.854  18.772  1.00 -0.33     0.258 A 
BRANCH  43  47
HETATM   47  N   MOL     1     -51.705  -6.320  21.968  1.00 -0.25    -0.382 N 
HETATM   48  H   MOL     1     -50.959  -6.245  22.429  1.00 -0.27     0.157 HD
HETATM   49  H   MOL     1     -52.481  -6.291  22.384  1.00 -0.19     0.157 HD
ENDBRANCH  43  47
ENDBRANCH  33  38
BRANCH  34  50
HETATM   50  O   MOL     1     -49.538  -5.685  16.369  1.00  0.41    -0.388 OA
HETATM   51  H   MOL     1     -49.230  -5.329  17.258  1.00 -0.42     0.210 HD
ENDBRANCH  34  50
BRANCH  36  52
HETATM   52  O   MOL     1     -48.677  -3.155  16.670  1.00  0.07    -0.390 OA
HETATM   53  H   MOL     1     -48.958  -2.293  17.107  1.00 -0.09     0.210 HD
ENDBRANCH  36  52
ENDBRANCH  30  31
ENDBRANCH  29  30
ENDBRANCH  27  29
BRANCH  27  54
HETATM   54  O   MOL     1     -50.635   0.912  18.942  1.00  0.13    -0.260 OA
BRANCH  54  55
HETATM   55  C   MOL     1     -50.198   1.512  20.090  1.00 -0.29     0.080 A 
HETATM   56  C   MOL     1     -50.056   0.808  21.272  1.00 -0.28     0.037 A 
HETATM   57  C   MOL     1     -49.610   1.440  22.409  1.00 -0.40     0.003 A 
HETATM   58  C   MOL     1     -49.300   2.781  22.375  1.00 -0.35     0.000 A 
HETATM   59  C   MOL     1     -49.439   3.489  21.203  1.00 -0.47     0.003 A 
HETATM   60  C   MOL     1     -49.887   2.858  20.067  1.00 -0.37     0.037 A 
ENDBRANCH  54  55
ENDBRANCH  27  54
ENDBRANCH  25  27
ENDBRANCH  17  25
ENDBRANCH  16  17
ENDBRANCH  13  16
ENDBRANCH   8  13
ENDBRANCH   7   8
ENDBRANCH   3   7
TORSDOF 20
ENDMDL
MODEL 3
REMARK VINA RESULT:      -8.1      2.004      3.986
REMARK  20 active torsions:
REMARK  status: ('A' for Active; 'I' for Inactive)
REMARK    1  A    between atoms: C_3  and  C_7 
REMARK    2  A    between atoms: C_7  and  C_8 
REMARK    3  A    between atoms: C_8  and  N_9 
REMARK    4  A    between atoms: C_8  and  C_10 
REMARK    5  A    between atoms: C_10  and  O_11 
REMARK    6  A    between atoms: C_10  and  C_12 
REMARK    7  A    between atoms: C_12  and  C_13 
REMARK    8  A    between atoms: C_13  and  C_14 
REMARK    9  A    between atoms: C_13  and  N_21 
REMARK   10  A    between atoms: C_14  and  C_15 
REMARK   11  A    between atoms: N_21  and  P_22 
REMARK   12  A    between atoms: P_22  and  O_23 
REMARK   13  A    between atoms: P_22  and  O_24 
REMARK   14  A    between atoms: O_23  and  C_26 
REMARK   15  A    between atoms: O_24  and  C_27 
REMARK   16  A    between atoms: C_26  and  C_33 
REMARK   17  A    between atoms: C_35  and  C_40 
REMARK   18  A    between atoms: C_36  and  O_39 
REMARK   19  A    between atoms: C_37  and  O_38 
REMARK   20  A    between atoms: C_50  and  N_51 
ROOT
HETATM    1  C   MOL     1     -43.451   0.929  19.239  1.00 -0.25     0.001 A 
HETATM    2  C   MOL     1     -44.197   0.761  18.094  1.00 -0.30     0.007 A 
HETATM    3  C   MOL     1     -44.435  -0.502  17.597  1.00 -0.25    -0.056 A 
HETATM    4  C   MOL     1     -43.918  -1.597  18.255  1.00 -0.33     0.007 A 
HETATM    5  C   MOL     1     -43.171  -1.431  19.399  1.00 -0.34     0.001 A 
HETATM    6  C   MOL     1     -42.938  -0.168  19.891  1.00 -0.27     0.000 A 
ENDROOT
BRANCH   3   7
HETATM    7  C   MOL     1     -45.262  -0.686  16.332  1.00 -0.43     0.074 C 
BRANCH   7   8
HETATM    8  C   MOL     1     -45.808  -2.113  16.110  1.00 -0.43     0.216 C 
BRANCH   8   9
HETATM    9  N   MOL     1     -45.474  -2.555  14.710  1.00  0.05    -0.072 N 
HETATM   10  H   MOL     1     -45.888  -3.335  14.493  1.00 -0.64     0.274 HD
HETATM   11  H   MOL     1     -45.731  -1.937  14.093  1.00 -0.76     0.274 HD
HETATM   12  H   MOL     1     -44.582  -2.679  14.590  1.00 -0.15     0.274 HD
ENDBRANCH   8   9
BRANCH   8  13
HETATM   13  C   MOL     1     -47.334  -2.140  16.358  1.00 -0.29     0.150 C 
BRANCH  13  14
HETATM   14  O   MOL     1     -47.983  -2.936  15.350  1.00  0.06    -0.393 OA
HETATM   15  H   MOL     1     -47.955  -3.914  15.584  1.00 -0.27     0.210 HD
ENDBRANCH  13  14
BRANCH  13  16
HETATM   16  C   MOL     1     -47.930  -0.716  16.341  1.00 -0.14     0.054 C 
BRANCH  16  17
HETATM   17  C   MOL     1     -48.606  -0.364  17.685  1.00 -0.12     0.073 C 
BRANCH  17  18
HETATM   18  C   MOL     1     -48.135   1.034  18.146  1.00 -0.13     0.058 C 
BRANCH  18  19
HETATM   19  C   MOL     1     -47.397   1.073  19.475  1.00 -0.16    -0.057 A 
HETATM   20  C   MOL     1     -46.991   2.277  20.009  1.00 -0.21     0.007 A 
HETATM   21  C   MOL     1     -46.319   2.313  21.211  1.00 -0.25     0.001 A 
HETATM   22  C   MOL     1     -46.050   1.144  21.884  1.00 -0.37     0.000 A 
HETATM   23  C   MOL     1     -46.454  -0.061  21.355  1.00 -0.40     0.001 A 
HETATM   24  C   MOL     1     -47.126  -0.095  20.154  1.00 -0.21     0.007 A 
ENDBRANCH  18  19
ENDBRANCH  17  18
BRANCH  17  25
HETATM   25  N   MOL     1     -50.065  -0.358  17.518  1.00  0.15    -0.221 NA
HETATM   26  H   MOL     1     -50.313  -0.618  16.555  1.00  0.32     0.134 HD
BRANCH  25  27
HETATM   27  P   MOL     1     -50.801  -1.225  18.509  1.00  0.09     0.413 P 
HETATM   28  O   MOL     1     -49.850  -2.085  19.300  1.00  0.07    -0.239 OA
BRANCH  27  29
HETATM   29  O   MOL     1     -51.900  -2.144  17.780  1.00  0.12    -0.299 OA
BRANCH  29  30
HETATM   30  C   MOL     1     -51.485  -3.382  17.184  1.00 -0.20     0.214 C 
BRANCH  30  31
HETATM   31  C   MOL     1     -51.926  -4.558  18.071  1.00 -0.04     0.180 C 
HETATM   32  O   MOL     1     -50.903  -4.915  19.016  1.00  0.26    -0.347 OA
HETATM   33  C   MOL     1     -50.918  -6.334  19.257  1.00 -0.04     0.222 C 
HETATM   34  C   MOL     1     -52.025  -6.912  18.344  1.00 -0.10     0.205 C 
HETATM   35  C   MOL     1     -51.257  -6.559  20.669  1.00 -0.21     0.107 C 
HETATM   36  C   MOL     1     -52.224  -5.834  17.271  1.00 -0.06     0.182 C 
HETATM   37  N   MOL     1     -51.520  -6.732  21.761  1.00  0.07    -0.193 NA
BRANCH  33  38
HETATM   38  C   MOL     1     -49.498  -6.806  18.964  1.00 -0.19     0.088 A 
HETATM   39  N   MOL     1     -49.063  -8.016  19.390  1.00 -0.03    -0.229 N 
HETATM   40  C   MOL     1     -47.776  -8.103  18.963  1.00 -0.22     0.104 A 
HETATM   41  N   MOL     1     -49.642  -9.032  20.096  1.00  0.23    -0.160 NA
HETATM   42  C   MOL     1     -47.404  -6.985  18.289  1.00 -0.37     0.038 A 
HETATM   43  C   MOL     1     -47.058  -9.288  19.272  1.00 -0.44     0.151 A 
HETATM   44  C   MOL     1     -48.525  -6.149  18.296  1.00 -0.17     0.034 A 
HETATM   45  N   MOL     1     -47.612 -10.293  19.964  1.00 -0.19    -0.221 NA
HETATM   46  C   MOL     1     -48.914 -10.094  20.346  1.00 -0.33     0.258 A 
BRANCH  43  47
HETATM   47  N   MOL     1     -45.753  -9.449  18.869  1.00 -0.25    -0.382 N 
HETATM   48  H   MOL     1     -45.572  -9.579  18.018  1.00 -0.27     0.157 HD
HETATM   49  H   MOL     1     -45.098  -9.421  19.457  1.00 -0.19     0.157 HD
ENDBRANCH  43  47
ENDBRANCH  33  38
BRANCH  34  50
HETATM   50  O   MOL     1     -51.686  -8.183  17.768  1.00  0.41    -0.388 OA
HETATM   51  H   MOL     1     -52.506  -8.674  17.455  1.00 -0.42     0.210 HD
ENDBRANCH  34  50
BRANCH  36  52
HETATM   52  O   MOL     1     -51.279  -6.032  16.208  1.00  0.07    -0.390 OA
HETATM   53  H   MOL     1     -50.913  -6.969  16.214  1.00 -0.09     0.210 HD
ENDBRANCH  36  52
ENDBRANCH  30  31
ENDBRANCH  29  30
ENDBRANCH  27  29
BRANCH  27  54
HETATM   54  O   MOL     1     -51.689  -0.311  19.497  1.00  0.13    -0.260 OA
BRANCH  54  55
HETATM   55  C   MOL     1     -51.135   0.648  20.299  1.00 -0.29     0.080 A 
HETATM   56  C   MOL     1     -51.157   1.987  19.956  1.00 -0.28     0.037 A 
HETATM   57  C   MOL     1     -50.594   2.928  20.786  1.00 -0.40     0.003 A 
HETATM   58  C   MOL     1     -50.005   2.540  21.967  1.00 -0.35     0.000 A 
HETATM   59  C   MOL     1     -49.979   1.209  22.317  1.00 -0.47     0.003 A 
HETATM   60  C   MOL     1     -50.539   0.268  21.486  1.00 -0.37     0.037 A 
ENDBRANCH  54  55
ENDBRANCH  27  54
ENDBRANCH  25  27
ENDBRANCH  17  25
ENDBRANCH  16  17
ENDBRANCH  13  16
ENDBRANCH   8  13
ENDBRANCH   7   8
ENDBRANCH   3   7
TORSDOF 20
ENDMDL
MODEL 4
REMARK VINA RESULT:      -8.0      2.794      4.613
REMARK  20 active torsions:
REMARK  status: ('A' for Active; 'I' for Inactive)
REMARK    1  A    between atoms: C_3  and  C_7 
REMARK    2  A    between atoms: C_7  and  C_8 
REMARK    3  A    between atoms: C_8  and  N_9 
REMARK    4  A    between atoms: C_8  and  C_10 
REMARK    5  A    between atoms: C_10  and  O_11 
REMARK    6  A    between atoms: C_10  and  C_12 
REMARK    7  A    between atoms: C_12  and  C_13 
REMARK    8  A    between atoms: C_13  and  C_14 
REMARK    9  A    between atoms: C_13  and  N_21 
REMARK   10  A    between atoms: C_14  and  C_15 
REMARK   11  A    between atoms: N_21  and  P_22 
REMARK   12  A    between atoms: P_22  and  O_23 
REMARK   13  A    between atoms: P_22  and  O_24 
REMARK   14  A    between atoms: O_23  and  C_26 
REMARK   15  A    between atoms: O_24  and  C_27 
REMARK   16  A    between atoms: C_26  and  C_33 
REMARK   17  A    between atoms: C_35  and  C_40 
REMARK   18  A    between atoms: C_36  and  O_39 
REMARK   19  A    between atoms: C_37  and  O_38 
REMARK   20  A    between atoms: C_50  and  N_51 
ROOT
HETATM    1  C   MOL     1     -43.167   1.213  19.809  1.00 -0.25     0.001 A 
HETATM    2  C   MOL     1     -43.666   1.088  18.532  1.00 -0.30     0.007 A 
HETATM    3  C   MOL     1     -43.947  -0.157  18.014  1.00 -0.25    -0.056 A 
HETATM    4  C   MOL     1     -43.725  -1.278  18.785  1.00 -0.33     0.007 A 
HETATM    5  C   MOL     1     -43.225  -1.155  20.062  1.00 -0.34     0.001 A 
HETATM    6  C   MOL     1     -42.946   0.092  20.573  1.00 -0.27     0.000 A 
ENDROOT
BRANCH   3   7
HETATM    7  C   MOL     1     -44.502  -0.293  16.603  1.00 -0.43     0.074 C 
BRANCH   7   8
HETATM    8  C   MOL     1     -44.885  -1.731  16.187  1.00 -0.43     0.216 C 
BRANCH   8   9
HETATM    9  N   MOL     1     -44.556  -1.925  14.730  1.00  0.05    -0.072 N 
HETATM   10  H   MOL     1     -45.246  -2.304  14.276  1.00 -0.64     0.274 HD
HETATM   11  H   MOL     1     -44.371  -1.134  14.320  1.00 -0.76     0.274 HD
HETATM   12  H   MOL     1     -43.827  -2.452  14.607  1.00 -0.15     0.274 HD
ENDBRANCH   8   9
BRANCH   8  13
HETATM   13  C   MOL     1     -46.386  -1.978  16.461  1.00 -0.29     0.150 C 
BRANCH  13  14
HETATM   14  O   MOL     1     -46.932  -2.852  15.457  1.00  0.06    -0.393 OA
HETATM   15  H   MOL     1     -46.973  -3.802  15.784  1.00 -0.27     0.210 HD
ENDBRANCH  13  14
BRANCH  13  16
HETATM   16  C   MOL     1     -47.181  -0.654  16.468  1.00 -0.14     0.054 C 
BRANCH  16  17
HETATM   17  C   MOL     1     -47.854  -0.400  17.835  1.00 -0.12     0.073 C 
BRANCH  17  18
HETATM   18  C   MOL     1     -47.482   1.014  18.337  1.00 -0.13     0.058 C 
BRANCH  18  19
HETATM   19  C   MOL     1     -46.987   1.092  19.772  1.00 -0.16    -0.057 A 
HETATM   20  C   MOL     1     -46.798  -0.059  20.506  1.00 -0.21     0.007 A 
HETATM   21  C   MOL     1     -46.352   0.010  21.807  1.00 -0.25     0.001 A 
HETATM   22  C   MOL     1     -46.095   1.233  22.381  1.00 -0.37     0.000 A 
HETATM   23  C   MOL     1     -46.282   2.386  21.653  1.00 -0.40     0.001 A 
HETATM   24  C   MOL     1     -46.726   2.315  20.352  1.00 -0.21     0.007 A 
ENDBRANCH  18  19
ENDBRANCH  17  18
BRANCH  17  25
HETATM   25  N   MOL     1     -49.313  -0.501  17.694  1.00  0.15    -0.221 NA
HETATM   26  H   MOL     1     -49.562  -0.685  16.714  1.00  0.32     0.134 HD
BRANCH  25  27
HETATM   27  P   MOL     1     -49.950  -1.520  18.606  1.00  0.09     0.413 P 
HETATM   28  O   MOL     1     -48.915  -2.256  19.416  1.00  0.07    -0.239 OA
BRANCH  27  29
HETATM   29  O   MOL     1     -50.849  -2.565  17.778  1.00  0.12    -0.299 OA
BRANCH  29  30
HETATM   30  C   MOL     1     -50.331  -3.108  16.554  1.00 -0.20     0.214 C 
BRANCH  30  31
HETATM   31  C   MOL     1     -50.379  -4.643  16.607  1.00 -0.04     0.180 C 
HETATM   32  O   MOL     1     -51.207  -5.106  17.687  1.00  0.26    -0.347 OA
HETATM   33  C   MOL     1     -50.684  -6.335  18.226  1.00 -0.04     0.222 C 
HETATM   34  C   MOL     1     -49.391  -6.635  17.432  1.00 -0.10     0.205 C 
HETATM   35  C   MOL     1     -51.675  -7.396  18.001  1.00 -0.21     0.107 C 
HETATM   36  C   MOL     1     -48.999  -5.280  16.829  1.00 -0.06     0.182 C 
HETATM   37  N   MOL     1     -52.442  -8.217  17.826  1.00  0.07    -0.193 NA
BRANCH  33  38
HETATM   38  C   MOL     1     -50.505  -6.075  19.718  1.00 -0.19     0.088 A 
HETATM   39  N   MOL     1     -50.230  -7.087  20.574  1.00 -0.03    -0.229 N 
HETATM   40  C   MOL     1     -50.141  -6.504  21.799  1.00 -0.22     0.104 A 
HETATM   41  N   MOL     1     -50.054  -8.433  20.420  1.00  0.23    -0.160 NA
HETATM   42  C   MOL     1     -50.354  -5.165  21.723  1.00 -0.37     0.038 A 
HETATM   43  C   MOL     1     -49.854  -7.342  22.908  1.00 -0.44     0.151 A 
HETATM   44  C   MOL     1     -50.591  -4.896  20.372  1.00 -0.17     0.034 A 
HETATM   45  N   MOL     1     -49.679  -8.663  22.773  1.00 -0.19    -0.221 NA
HETATM   46  C   MOL     1     -49.795  -9.142  21.492  1.00 -0.33     0.258 A 
BRANCH  43  47
HETATM   47  N   MOL     1     -49.745  -6.822  24.177  1.00 -0.25    -0.382 N 
HETATM   48  H   MOL     1     -48.968  -6.520  24.460  1.00 -0.27     0.157 HD
HETATM   49  H   MOL     1     -50.448  -6.788  24.707  1.00 -0.19     0.157 HD
ENDBRANCH  43  47
ENDBRANCH  33  38
BRANCH  34  50
HETATM   50  O   MOL     1     -48.338  -7.185  18.240  1.00  0.41    -0.388 OA
HETATM   51  H   MOL     1     -47.681  -6.476  18.517  1.00 -0.42     0.210 HD
ENDBRANCH  34  50
BRANCH  36  52
HETATM   52  O   MOL     1     -48.216  -4.539  17.777  1.00  0.07    -0.390 OA
HETATM   53  H   MOL     1     -47.250  -4.821  17.753  1.00 -0.09     0.210 HD
ENDBRANCH  36  52
ENDBRANCH  30  31
ENDBRANCH  29  30
ENDBRANCH  27  29
BRANCH  27  54
HETATM   54  O   MOL     1     -51.024  -0.806  19.575  1.00  0.13    -0.260 OA
BRANCH  54  55
HETATM   55  C   MOL     1     -50.682   0.222  20.409  1.00 -0.29     0.080 A 
HETATM   56  C   MOL     1     -50.783   1.544  20.015  1.00 -0.28     0.037 A 
HETATM   57  C   MOL     1     -50.435   2.556  20.879  1.00 -0.40     0.003 A 
HETATM   58  C   MOL     1     -49.986   2.257  22.145  1.00 -0.35     0.000 A 
HETATM   59  C   MOL     1     -49.882   0.944  22.544  1.00 -0.47     0.003 A 
HETATM   60  C   MOL     1     -50.227  -0.067  21.680  1.00 -0.37     0.037 A 
ENDBRANCH  54  55
ENDBRANCH  27  54
ENDBRANCH  25  27
ENDBRANCH  17  25
ENDBRANCH  16  17
ENDBRANCH  13  16
ENDBRANCH   8  13
ENDBRANCH   7   8
ENDBRANCH   3   7
TORSDOF 20
ENDMDL
MODEL 5
REMARK VINA RESULT:      -8.0      2.601      3.810
REMARK  20 active torsions:
REMARK  status: ('A' for Active; 'I' for Inactive)
REMARK    1  A    between atoms: C_3  and  C_7 
REMARK    2  A    between atoms: C_7  and  C_8 
REMARK    3  A    between atoms: C_8  and  N_9 
REMARK    4  A    between atoms: C_8  and  C_10 
REMARK    5  A    between atoms: C_10  and  O_11 
REMARK    6  A    between atoms: C_10  and  C_12 
REMARK    7  A    between atoms: C_12  and  C_13 
REMARK    8  A    between atoms: C_13  and  C_14 
REMARK    9  A    between atoms: C_13  and  N_21 
REMARK   10  A    between atoms: C_14  and  C_15 
REMARK   11  A    between atoms: N_21  and  P_22 
REMARK   12  A    between atoms: P_22  and  O_23 
REMARK   13  A    between atoms: P_22  and  O_24 
REMARK   14  A    between atoms: O_23  and  C_26 
REMARK   15  A    between atoms: O_24  and  C_27 
REMARK   16  A    between atoms: C_26  and  C_33 
REMARK   17  A    between atoms: C_35  and  C_40 
REMARK   18  A    between atoms: C_36  and  O_39 
REMARK   19  A    between atoms: C_37  and  O_38 
REMARK   20  A    between atoms: C_50  and  N_51 
ROOT
HETATM    1  C   MOL     1     -42.910  -1.244  19.167  1.00 -0.25     0.001 A 
HETATM    2  C   MOL     1     -43.808  -1.517  18.160  1.00 -0.30     0.007 A 
HETATM    3  C   MOL     1     -44.486  -0.494  17.535  1.00 -0.25    -0.056 A 
HETATM    4  C   MOL     1     -44.258   0.808  17.927  1.00 -0.33     0.007 A 
HETATM    5  C   MOL     1     -43.361   1.084  18.934  1.00 -0.34     0.001 A 
HETATM    6  C   MOL     1     -42.687   0.057  19.554  1.00 -0.27     0.000 A 
ENDROOT
BRANCH   3   7
HETATM    7  C   MOL     1     -45.477  -0.798  16.420  1.00 -0.43     0.074 C 
BRANCH   7   8
HETATM    8  C   MOL     1     -45.807  -2.295  16.230  1.00 -0.43     0.216 C 
BRANCH   8   9
HETATM    9  N   MOL     1     -45.872  -2.600  14.757  1.00  0.05    -0.072 N 
HETATM   10  H   MOL     1     -46.439  -3.288  14.579  1.00 -0.64     0.274 HD
HETATM   11  H   MOL     1     -46.166  -1.884  14.278  1.00 -0.76     0.274 HD
HETATM   12  H   MOL     1     -45.061  -2.821  14.413  1.00 -0.15     0.274 HD
ENDBRANCH   8   9
BRANCH   8  13
HETATM   13  C   MOL     1     -47.142  -2.636  16.933  1.00 -0.29     0.150 C 
BRANCH  13  14
HETATM   14  O   MOL     1     -47.793  -3.724  16.253  1.00  0.06    -0.393 OA
HETATM   15  H   MOL     1     -48.717  -3.466  15.954  1.00 -0.27     0.210 HD
ENDBRANCH  13  14
BRANCH  13  16
HETATM   16  C   MOL     1     -48.088  -1.416  16.961  1.00 -0.14     0.054 C 
BRANCH  16  17
HETATM   17  C   MOL     1     -48.596  -1.120  18.389  1.00 -0.12     0.073 C 
BRANCH  17  18
HETATM   18  C   MOL     1     -48.258   0.341  18.763  1.00 -0.13     0.058 C 
BRANCH  18  19
HETATM   19  C   MOL     1     -47.267   0.513  19.904  1.00 -0.16    -0.057 A 
HETATM   20  C   MOL     1     -46.934   1.774  20.351  1.00 -0.21     0.007 A 
HETATM   21  C   MOL     1     -46.035   1.932  21.382  1.00 -0.25     0.001 A 
HETATM   22  C   MOL     1     -45.462   0.828  21.969  1.00 -0.37     0.000 A 
HETATM   23  C   MOL     1     -45.790  -0.434  21.526  1.00 -0.40     0.001 A 
HETATM   24  C   MOL     1     -46.690  -0.589  20.497  1.00 -0.21     0.007 A 
ENDBRANCH  18  19
ENDBRANCH  17  18
BRANCH  17  25
HETATM   25  N   MOL     1     -50.052  -1.315  18.447  1.00  0.15    -0.221 NA
HETATM   26  H   MOL     1     -50.462  -1.197  17.511  1.00  0.32     0.134 HD
BRANCH  25  27
HETATM   27  P   MOL     1     -50.472  -2.630  19.052  1.00  0.09     0.413 P 
HETATM   28  O   MOL     1     -51.896  -2.580  19.541  1.00  0.07    -0.239 OA
BRANCH  27  29
HETATM   29  O   MOL     1     -49.491  -3.064  20.250  1.00  0.12    -0.299 OA
BRANCH  29  30
HETATM   30  C   MOL     1     -49.725  -2.535  21.563  1.00 -0.20     0.214 C 
BRANCH  30  31
HETATM   31  C   MOL     1     -49.671  -3.672  22.597  1.00 -0.04     0.180 C 
HETATM   32  O   MOL     1     -49.047  -4.847  22.053  1.00  0.26    -0.347 OA
HETATM   33  C   MOL     1     -49.646  -6.033  22.609  1.00 -0.04     0.222 C 
HETATM   34  C   MOL     1     -50.771  -5.545  23.551  1.00 -0.10     0.205 C 
HETATM   35  C   MOL     1     -48.619  -6.752  23.375  1.00 -0.21     0.107 C 
HETATM   36  C   MOL     1     -51.061  -4.115  23.075  1.00 -0.06     0.182 C 
HETATM   37  N   MOL     1     -47.825  -7.308  23.969  1.00  0.07    -0.193 NA
BRANCH  33  38
HETATM   38  C   MOL     1     -50.094  -6.858  21.406  1.00 -0.19     0.088 A 
HETATM   39  N   MOL     1     -49.265  -7.067  20.356  1.00 -0.03    -0.229 N 
HETATM   40  C   MOL     1     -49.980  -7.824  19.482  1.00 -0.22     0.104 A 
HETATM   41  N   MOL     1     -47.986  -6.680  20.071  1.00  0.23    -0.160 NA
HETATM   42  C   MOL     1     -51.223  -8.087  19.962  1.00 -0.37     0.038 A 
HETATM   43  C   MOL     1     -49.349  -8.203  18.269  1.00 -0.44     0.151 A 
HETATM   44  C   MOL     1     -51.289  -7.456  21.207  1.00 -0.17     0.034 A 
HETATM   45  N   MOL     1     -48.095  -7.831  17.975  1.00 -0.19    -0.221 NA
HETATM   46  C   MOL     1     -47.472  -7.066  18.928  1.00 -0.33     0.258 A 
BRANCH  43  47
HETATM   47  N   MOL     1     -50.008  -8.972  17.340  1.00 -0.25    -0.382 N 
HETATM   48  H   MOL     1     -49.782  -8.922  16.490  1.00 -0.27     0.157 HD
HETATM   49  H   MOL     1     -50.655  -9.516  17.588  1.00 -0.19     0.157 HD
ENDBRANCH  43  47
ENDBRANCH  33  38
BRANCH  34  50
HETATM   50  O   MOL     1     -51.946  -6.369  23.514  1.00  0.41    -0.388 OA
HETATM   51  H   MOL     1     -51.936  -7.055  24.250  1.00 -0.42     0.210 HD
ENDBRANCH  34  50
BRANCH  36  52
HETATM   52  O   MOL     1     -52.011  -4.149  21.999  1.00  0.07    -0.390 OA
HETATM   53  H   MOL     1     -52.372  -5.078  21.858  1.00 -0.09     0.210 HD
ENDBRANCH  36  52
ENDBRANCH  30  31
ENDBRANCH  29  30
ENDBRANCH  27  29
BRANCH  27  54
HETATM   54  O   MOL     1     -50.285  -3.822  17.981  1.00  0.13    -0.260 OA
BRANCH  54  55
HETATM   55  C   MOL     1     -51.318  -4.279  17.211  1.00 -0.29     0.080 A 
HETATM   56  C   MOL     1     -52.027  -5.419  17.544  1.00 -0.28     0.037 A 
HETATM   57  C   MOL     1     -53.064  -5.851  16.751  1.00 -0.40     0.003 A 
HETATM   58  C   MOL     1     -53.403  -5.147  15.618  1.00 -0.35     0.000 A 
HETATM   59  C   MOL     1     -52.703  -4.013  15.278  1.00 -0.47     0.003 A 
HETATM   60  C   MOL     1     -51.665  -3.582  16.069  1.00 -0.37     0.037 A 
ENDBRANCH  54  55
ENDBRANCH  27  54
ENDBRANCH  25  27
ENDBRANCH  17  25
ENDBRANCH  16  17
ENDBRANCH  13  16
ENDBRANCH   8  13
ENDBRANCH   7   8
ENDBRANCH   3   7
TORSDOF 20
ENDMDL
MODEL 6
REMARK VINA RESULT:      -7.9      1.914      2.731
REMARK  20 active torsions:
REMARK  status: ('A' for Active; 'I' for Inactive)
REMARK    1  A    between atoms: C_3  and  C_7 
REMARK    2  A    between atoms: C_7  and  C_8 
REMARK    3  A    between atoms: C_8  and  N_9 
REMARK    4  A    between atoms: C_8  and  C_10 
REMARK    5  A    between atoms: C_10  and  O_11 
REMARK    6  A    between atoms: C_10  and  C_12 
REMARK    7  A    between atoms: C_12  and  C_13 
REMARK    8  A    between atoms: C_13  and  C_14 
REMARK    9  A    between atoms: C_13  and  N_21 
REMARK   10  A    between atoms: C_14  and  C_15 
REMARK   11  A    between atoms: N_21  and  P_22 
REMARK   12  A    between atoms: P_22  and  O_23 
REMARK   13  A    between atoms: P_22  and  O_24 
REMARK   14  A    between atoms: O_23  and  C_26 
REMARK   15  A    between atoms: O_24  and  C_27 
REMARK   16  A    between atoms: C_26  and  C_33 
REMARK   17  A    between atoms: C_35  and  C_40 
REMARK   18  A    between atoms: C_36  and  O_39 
REMARK   19  A    between atoms: C_37  and  O_38 
REMARK   20  A    between atoms: C_50  and  N_51 
ROOT
HETATM    1  C   MOL     1     -43.207   1.260  19.368  1.00 -0.25     0.001 A 
HETATM    2  C   MOL     1     -43.951   1.080  18.224  1.00 -0.30     0.007 A 
HETATM    3  C   MOL     1     -44.356  -0.182  17.848  1.00 -0.25    -0.056 A 
HETATM    4  C   MOL     1     -44.009  -1.264  18.628  1.00 -0.33     0.007 A 
HETATM    5  C   MOL     1     -43.265  -1.087  19.772  1.00 -0.34     0.001 A 
HETATM    6  C   MOL     1     -42.863   0.176  20.141  1.00 -0.27     0.000 A 
ENDROOT
BRANCH   3   7
HETATM    7  C   MOL     1     -45.181  -0.378  16.584  1.00 -0.43     0.074 C 
BRANCH   7   8
HETATM    8  C   MOL     1     -45.156  -1.810  16.003  1.00 -0.43     0.216 C 
BRANCH   8   9
HETATM    9  N   MOL     1     -44.360  -1.808  14.725  1.00  0.05    -0.072 N 
HETATM   10  H   MOL     1     -43.854  -2.558  14.641  1.00 -0.64     0.274 HD
HETATM   11  H   MOL     1     -44.900  -1.769  13.993  1.00 -0.76     0.274 HD
HETATM   12  H   MOL     1     -43.801  -1.095  14.667  1.00 -0.15     0.274 HD
ENDBRANCH   8   9
BRANCH   8  13
HETATM   13  C   MOL     1     -46.601  -2.308  15.764  1.00 -0.29     0.150 C 
BRANCH  13  14
HETATM   14  O   MOL     1     -46.720  -2.853  14.438  1.00  0.06    -0.393 OA
HETATM   15  H   MOL     1     -47.132  -2.188  13.806  1.00 -0.27     0.210 HD
ENDBRANCH  13  14
BRANCH  13  16
HETATM   16  C   MOL     1     -47.624  -1.165  15.937  1.00 -0.14     0.054 C 
BRANCH  16  17
HETATM   17  C   MOL     1     -48.453  -1.331  17.230  1.00 -0.12     0.073 C 
BRANCH  17  18
HETATM   18  C   MOL     1     -48.824   0.062  17.786  1.00 -0.13     0.058 C 
BRANCH  18  19
HETATM   19  C   MOL     1     -47.963   0.561  18.937  1.00 -0.16    -0.057 A 
HETATM   20  C   MOL     1     -47.686   1.904  19.067  1.00 -0.21     0.007 A 
HETATM   21  C   MOL     1     -46.904   2.357  20.106  1.00 -0.25     0.001 A 
HETATM   22  C   MOL     1     -46.394   1.465  21.021  1.00 -0.37     0.000 A 
HETATM   23  C   MOL     1     -46.668   0.121  20.896  1.00 -0.40     0.001 A 
HETATM   24  C   MOL     1     -47.450  -0.328  19.857  1.00 -0.21     0.007 A 
ENDBRANCH  18  19
ENDBRANCH  17  18
BRANCH  17  25
HETATM   25  N   MOL     1     -49.680  -2.084  16.938  1.00  0.15    -0.221 NA
HETATM   26  H   MOL     1     -49.747  -2.275  15.930  1.00  0.32     0.134 HD
BRANCH  25  27
HETATM   27  P   MOL     1     -49.824  -3.358  17.732  1.00  0.09     0.413 P 
HETATM   28  O   MOL     1     -49.025  -3.305  19.007  1.00  0.07    -0.239 OA
BRANCH  27  29
HETATM   29  O   MOL     1     -49.392  -4.640  16.863  1.00  0.12    -0.299 OA
BRANCH  29  30
HETATM   30  C   MOL     1     -48.453  -5.572  17.420  1.00 -0.20     0.214 C 
BRANCH  30  31
HETATM   31  C   MOL     1     -49.202  -6.789  17.986  1.00 -0.04     0.180 C 
HETATM   32  O   MOL     1     -49.236  -6.763  19.423  1.00  0.26    -0.347 OA
HETATM   33  C   MOL     1     -49.186  -8.102  19.948  1.00 -0.04     0.222 C 
HETATM   34  C   MOL     1     -49.067  -9.039  18.723  1.00 -0.10     0.205 C 
HETATM   35  C   MOL     1     -50.440  -8.364  20.666  1.00 -0.21     0.107 C 
HETATM   36  C   MOL     1     -48.551  -8.126  17.604  1.00 -0.06     0.182 C 
HETATM   37  N   MOL     1     -51.411  -8.567  21.221  1.00  0.07    -0.193 NA
BRANCH  33  38
HETATM   38  C   MOL     1     -48.004  -8.111  20.911  1.00 -0.19     0.088 A 
HETATM   39  N   MOL     1     -47.873  -7.157  21.864  1.00 -0.03    -0.229 N 
HETATM   40  C   MOL     1     -46.726  -7.467  22.525  1.00 -0.22     0.104 A 
HETATM   41  N   MOL     1     -48.617  -6.067  22.216  1.00  0.23    -0.160 NA
HETATM   42  C   MOL     1     -46.147  -8.581  22.009  1.00 -0.37     0.038 A 
HETATM   43  C   MOL     1     -46.334  -6.622  23.596  1.00 -0.44     0.151 A 
HETATM   44  C   MOL     1     -46.980  -8.990  20.963  1.00 -0.17     0.034 A 
HETATM   45  N   MOL     1     -47.053  -5.550  23.953  1.00 -0.19    -0.221 NA
HETATM   46  C   MOL     1     -48.188  -5.331  23.214  1.00 -0.33     0.258 A 
BRANCH  43  47
HETATM   47  N   MOL     1     -45.189  -6.877  24.313  1.00 -0.25    -0.382 N 
HETATM   48  H   MOL     1     -44.714  -7.596  24.137  1.00 -0.27     0.157 HD
HETATM   49  H   MOL     1     -44.927  -6.323  24.946  1.00 -0.19     0.157 HD
ENDBRANCH  43  47
ENDBRANCH  33  38
BRANCH  34  50
HETATM   50  O   MOL     1     -48.195 -10.160  18.942  1.00  0.41    -0.388 OA
HETATM   51  H   MOL     1     -48.157 -10.758  18.134  1.00 -0.42     0.210 HD
ENDBRANCH  34  50
BRANCH  36  52
HETATM   52  O   MOL     1     -47.117  -8.057  17.659  1.00  0.07    -0.390 OA
HETATM   53  H   MOL     1     -46.784  -7.151  17.376  1.00 -0.09     0.210 HD
ENDBRANCH  36  52
ENDBRANCH  30  31
ENDBRANCH  29  30
ENDBRANCH  27  29
BRANCH  27  54
HETATM   54  O   MOL     1     -51.379  -3.643  18.050  1.00  0.13    -0.260 OA
BRANCH  54  55
HETATM   55  C   MOL     1     -52.161  -4.415  17.237  1.00 -0.29     0.080 A 
HETATM   56  C   MOL     1     -52.550  -5.692  17.597  1.00 -0.28     0.037 A 
HETATM   57  C   MOL     1     -53.340  -6.442  16.758  1.00 -0.40     0.003 A 
HETATM   58  C   MOL     1     -53.750  -5.923  15.551  1.00 -0.35     0.000 A 
HETATM   59  C   MOL     1     -53.367  -4.653  15.185  1.00 -0.47     0.003 A 
HETATM   60  C   MOL     1     -52.575  -3.904  16.022  1.00 -0.37     0.037 A 
ENDBRANCH  54  55
ENDBRANCH  27  54
ENDBRANCH  25  27
ENDBRANCH  17  25
ENDBRANCH  16  17
ENDBRANCH  13  16
ENDBRANCH   8  13
ENDBRANCH   7   8
ENDBRANCH   3   7
TORSDOF 20
ENDMDL
MODEL 7
REMARK VINA RESULT:      -7.8      6.809     14.741
REMARK  20 active torsions:
REMARK  status: ('A' for Active; 'I' for Inactive)
REMARK    1  A    between atoms: C_3  and  C_7 
REMARK    2  A    between atoms: C_7  and  C_8 
REMARK    3  A    between atoms: C_8  and  N_9 
REMARK    4  A    between atoms: C_8  and  C_10 
REMARK    5  A    between atoms: C_10  and  O_11 
REMARK    6  A    between atoms: C_10  and  C_12 
REMARK    7  A    between atoms: C_12  and  C_13 
REMARK    8  A    between atoms: C_13  and  C_14 
REMARK    9  A    between atoms: C_13  and  N_21 
REMARK   10  A    between atoms: C_14  and  C_15 
REMARK   11  A    between atoms: N_21  and  P_22 
REMARK   12  A    between atoms: P_22  and  O_23 
REMARK   13  A    between atoms: P_22  and  O_24 
REMARK   14  A    between atoms: O_23  and  C_26 
REMARK   15  A    between atoms: O_24  and  C_27 
REMARK   16  A    between atoms: C_26  and  C_33 
REMARK   17  A    between atoms: C_35  and  C_40 
REMARK   18  A    between atoms: C_36  and  O_39 
REMARK   19  A    between atoms: C_37  and  O_38 
REMARK   20  A    between atoms: C_50  and  N_51 
ROOT
HETATM    1  C   MOL     1     -46.868 -14.583  31.019  1.00 -0.25     0.001 A 
HETATM    2  C   MOL     1     -47.056 -15.525  30.033  1.00 -0.30     0.007 A 
HETATM    3  C   MOL     1     -47.832 -15.236  28.932  1.00 -0.25    -0.056 A 
HETATM    4  C   MOL     1     -48.420 -13.993  28.826  1.00 -0.33     0.007 A 
HETATM    5  C   MOL     1     -48.234 -13.050  29.812  1.00 -0.34     0.001 A 
HETATM    6  C   MOL     1     -47.458 -13.346  30.908  1.00 -0.27     0.000 A 
ENDROOT
BRANCH   3   7
HETATM    7  C   MOL     1     -48.036 -16.278  27.842  1.00 -0.43     0.074 C 
BRANCH   7   8
HETATM    8  C   MOL     1     -49.216 -16.000  26.884  1.00 -0.43     0.216 C 
BRANCH   8   9
HETATM    9  N   MOL     1     -50.467 -16.612  27.456  1.00  0.05    -0.072 N 
HETATM   10  H   MOL     1     -50.644 -17.425  27.090  1.00 -0.64     0.274 HD
HETATM   11  H   MOL     1     -50.400 -16.735  28.355  1.00 -0.76     0.274 HD
HETATM   12  H   MOL     1     -51.199 -16.090  27.324  1.00 -0.15     0.274 HD
ENDBRANCH   8   9
BRANCH   8  13
HETATM   13  C   MOL     1     -48.903 -16.569  25.481  1.00 -0.29     0.150 C 
BRANCH  13  14
HETATM   14  O   MOL     1     -50.079 -17.186  24.927  1.00  0.06    -0.393 OA
HETATM   15  H   MOL     1     -50.530 -17.781  25.601  1.00 -0.27     0.210 HD
ENDBRANCH  13  14
BRANCH  13  16
HETATM   16  C   MOL     1     -47.763 -17.608  25.538  1.00 -0.14     0.054 C 
BRANCH  16  17
HETATM   17  C   MOL     1     -47.120 -17.827  24.151  1.00 -0.12     0.073 C 
BRANCH  17  18
HETATM   18  C   MOL     1     -47.333 -19.293  23.710  1.00 -0.13     0.058 C 
BRANCH  18  19
HETATM   19  C   MOL     1     -46.164 -20.232  23.963  1.00 -0.16    -0.057 A 
HETATM   20  C   MOL     1     -46.374 -21.589  24.080  1.00 -0.21     0.007 A 
HETATM   21  C   MOL     1     -45.316 -22.439  24.311  1.00 -0.25     0.001 A 
HETATM   22  C   MOL     1     -44.042 -21.935  24.429  1.00 -0.37     0.000 A 
HETATM   23  C   MOL     1     -43.826 -20.580  24.313  1.00 -0.40     0.001 A 
HETATM   24  C   MOL     1     -44.885 -19.732  24.081  1.00 -0.21     0.007 A 
ENDBRANCH  18  19
ENDBRANCH  17  18
BRANCH  17  25
HETATM   25  N   MOL     1     -47.740 -16.926  23.170  1.00  0.15    -0.221 NA
HETATM   26  H   MOL     1     -48.495 -16.386  23.613  1.00  0.32     0.134 HD
BRANCH  25  27
HETATM   27  P   MOL     1     -46.765 -16.008  22.476  1.00  0.09     0.413 P 
HETATM   28  O   MOL     1     -45.360 -16.217  22.978  1.00  0.07    -0.239 OA
BRANCH  27  29
HETATM   29  O   MOL     1     -47.190 -14.467  22.648  1.00  0.12    -0.299 OA
BRANCH  29  30
HETATM   30  C   MOL     1     -47.893 -13.818  21.579  1.00 -0.20     0.214 C 
BRANCH  30  31
HETATM   31  C   MOL     1     -47.092 -12.598  21.094  1.00 -0.04     0.180 C 
HETATM   32  O   MOL     1     -47.349 -11.444  21.912  1.00  0.26    -0.347 OA
HETATM   33  C   MOL     1     -47.295 -10.246  21.116  1.00 -0.04     0.222 C 
HETATM   34  C   MOL     1     -47.022 -10.707  19.665  1.00 -0.10     0.205 C 
HETATM   35  C   MOL     1     -46.183  -9.418  21.602  1.00 -0.21     0.107 C 
HETATM   36  C   MOL     1     -47.440 -12.183  19.658  1.00 -0.06     0.182 C 
HETATM   37  N   MOL     1     -45.322  -8.778  21.978  1.00  0.07    -0.193 NA
BRANCH  33  38
HETATM   38  C   MOL     1     -48.629  -9.546  21.353  1.00 -0.19     0.088 A 
HETATM   39  N   MOL     1     -48.895  -8.343  20.792  1.00 -0.03    -0.229 N 
HETATM   40  C   MOL     1     -50.148  -8.023  21.211  1.00 -0.22     0.104 A 
HETATM   41  N   MOL     1     -48.189  -7.505  19.977  1.00  0.23    -0.160 NA
HETATM   42  C   MOL     1     -50.660  -8.990  22.014  1.00 -0.37     0.038 A 
HETATM   43  C   MOL     1     -50.697  -6.791  20.768  1.00 -0.44     0.151 A 
HETATM   44  C   MOL     1     -49.669  -9.972  22.103  1.00 -0.17     0.034 A 
HETATM   45  N   MOL     1     -50.017  -5.958  19.968  1.00 -0.19    -0.221 NA
HETATM   46  C   MOL     1     -48.762  -6.383  19.611  1.00 -0.33     0.258 A 
BRANCH  43  47
HETATM   47  N   MOL     1     -51.960  -6.403  21.148  1.00 -0.25    -0.382 N 
HETATM   48  H   MOL     1     -52.281  -6.663  21.925  1.00 -0.27     0.157 HD
HETATM   49  H   MOL     1     -52.448  -5.895  20.620  1.00 -0.19     0.157 HD
ENDBRANCH  43  47
ENDBRANCH  33  38
BRANCH  34  50
HETATM   50  O   MOL     1     -47.736  -9.945  18.678  1.00  0.41    -0.388 OA
HETATM   51  H   MOL     1     -48.711  -9.868  18.911  1.00 -0.42     0.210 HD
ENDBRANCH  34  50
BRANCH  36  52
HETATM   52  O   MOL     1     -48.849 -12.284  19.399  1.00  0.07    -0.390 OA
HETATM   53  H   MOL     1     -49.051 -13.036  18.761  1.00 -0.09     0.210 HD
ENDBRANCH  36  52
ENDBRANCH  30  31
ENDBRANCH  29  30
ENDBRANCH  27  29
BRANCH  27  54
HETATM   54  O   MOL     1     -46.834 -16.227  20.880  1.00  0.13    -0.260 OA
BRANCH  54  55
HETATM   55  C   MOL     1     -46.454 -17.400  20.288  1.00 -0.29     0.080 A 
HETATM   56  C   MOL     1     -47.071 -17.872  19.144  1.00 -0.28     0.037 A 
HETATM   57  C   MOL     1     -46.663 -19.054  18.571  1.00 -0.40     0.003 A 
HETATM   58  C   MOL     1     -45.634 -19.774  19.134  1.00 -0.35     0.000 A 
HETATM   59  C   MOL     1     -45.015 -19.311  20.272  1.00 -0.47     0.003 A 
HETATM   60  C   MOL     1     -45.424 -18.131  20.847  1.00 -0.37     0.037 A 
ENDBRANCH  54  55
ENDBRANCH  27  54
ENDBRANCH  25  27
ENDBRANCH  17  25
ENDBRANCH  16  17
ENDBRANCH  13  16
ENDBRANCH   8  13
ENDBRANCH   7   8
ENDBRANCH   3   7
TORSDOF 20
ENDMDL
MODEL 8
REMARK VINA RESULT:      -7.7      2.451      3.620
REMARK  20 active torsions:
REMARK  status: ('A' for Active; 'I' for Inactive)
REMARK    1  A    between atoms: C_3  and  C_7 
REMARK    2  A    between atoms: C_7  and  C_8 
REMARK    3  A    between atoms: C_8  and  N_9 
REMARK    4  A    between atoms: C_8  and  C_10 
REMARK    5  A    between atoms: C_10  and  O_11 
REMARK    6  A    between atoms: C_10  and  C_12 
REMARK    7  A    between atoms: C_12  and  C_13 
REMARK    8  A    between atoms: C_13  and  C_14 
REMARK    9  A    between atoms: C_13  and  N_21 
REMARK   10  A    between atoms: C_14  and  C_15 
REMARK   11  A    between atoms: N_21  and  P_22 
REMARK   12  A    between atoms: P_22  and  O_23 
REMARK   13  A    between atoms: P_22  and  O_24 
REMARK   14  A    between atoms: O_23  and  C_26 
REMARK   15  A    between atoms: O_24  and  C_27 
REMARK   16  A    between atoms: C_26  and  C_33 
REMARK   17  A    between atoms: C_35  and  C_40 
REMARK   18  A    between atoms: C_36  and  O_39 
REMARK   19  A    between atoms: C_37  and  O_38 
REMARK   20  A    between atoms: C_50  and  N_51 
ROOT
HETATM    1  C   MOL     1     -43.324   1.424  19.410  1.00 -0.25     0.001 A 
HETATM    2  C   MOL     1     -44.037   1.194  18.255  1.00 -0.30     0.007 A 
HETATM    3  C   MOL     1     -44.217  -0.092  17.793  1.00 -0.25    -0.056 A 
HETATM    4  C   MOL     1     -43.677  -1.147  18.497  1.00 -0.33     0.007 A 
HETATM    5  C   MOL     1     -42.963  -0.918  19.651  1.00 -0.34     0.001 A 
HETATM    6  C   MOL     1     -42.786   0.367  20.107  1.00 -0.27     0.000 A 
ENDROOT
BRANCH   3   7
HETATM    7  C   MOL     1     -45.008  -0.345  16.517  1.00 -0.43     0.074 C 
BRANCH   7   8
HETATM    8  C   MOL     1     -44.920  -1.786  15.968  1.00 -0.43     0.216 C 
BRANCH   8   9
HETATM    9  N   MOL     1     -44.065  -1.788  14.729  1.00  0.05    -0.072 N 
HETATM   10  H   MOL     1     -44.556  -1.939  13.979  1.00 -0.64     0.274 HD
HETATM   11  H   MOL     1     -43.641  -0.991  14.613  1.00 -0.76     0.274 HD
HETATM   12  H   MOL     1     -43.414  -2.421  14.759  1.00 -0.15     0.274 HD
ENDBRANCH   8   9
BRANCH   8  13
HETATM   13  C   MOL     1     -46.339  -2.326  15.672  1.00 -0.29     0.150 C 
BRANCH  13  14
HETATM   14  O   MOL     1     -46.375  -2.921  14.362  1.00  0.06    -0.393 OA
HETATM   15  H   MOL     1     -45.568  -2.662  13.822  1.00 -0.27     0.210 HD
ENDBRANCH  13  14
BRANCH  13  16
HETATM   16  C   MOL     1     -47.394  -1.202  15.748  1.00 -0.14     0.054 C 
BRANCH  16  17
HETATM   17  C   MOL     1     -48.275  -1.331  17.011  1.00 -0.12     0.073 C 
BRANCH  17  18
HETATM   18  C   MOL     1     -48.656   0.079  17.518  1.00 -0.13     0.058 C 
BRANCH  18  19
HETATM   19  C   MOL     1     -47.920   0.549  18.763  1.00 -0.16    -0.057 A 
HETATM   20  C   MOL     1     -47.852   1.893  19.063  1.00 -0.21     0.007 A 
HETATM   21  C   MOL     1     -47.183   2.321  20.189  1.00 -0.25     0.001 A 
HETATM   22  C   MOL     1     -46.579   1.406  21.019  1.00 -0.37     0.000 A 
HETATM   23  C   MOL     1     -46.644   0.062  20.723  1.00 -0.40     0.001 A 
HETATM   24  C   MOL     1     -47.314  -0.363  19.598  1.00 -0.21     0.007 A 
ENDBRANCH  18  19
ENDBRANCH  17  18
BRANCH  17  25
HETATM   25  N   MOL     1     -49.496  -2.081  16.688  1.00  0.15    -0.221 NA
HETATM   26  H   MOL     1     -49.413  -2.510  15.757  1.00  0.32     0.134 HD
BRANCH  25  27
HETATM   27  P   MOL     1     -49.874  -3.114  17.719  1.00  0.09     0.413 P 
HETATM   28  O   MOL     1     -48.765  -3.329  18.715  1.00  0.07    -0.239 OA
BRANCH  27  29
HETATM   29  O   MOL     1     -50.275  -4.510  17.029  1.00  0.12    -0.299 OA
BRANCH  29  30
HETATM   30  C   MOL     1     -49.333  -5.593  17.056  1.00 -0.20     0.214 C 
BRANCH  30  31
HETATM   31  C   MOL     1     -49.954  -6.803  17.773  1.00 -0.04     0.180 C 
HETATM   32  O   MOL     1     -49.896  -6.652  19.202  1.00  0.26    -0.347 OA
HETATM   33  C   MOL     1     -49.715  -7.934  19.832  1.00 -0.04     0.222 C 
HETATM   34  C   MOL     1     -49.608  -8.965  18.684  1.00 -0.10     0.205 C 
HETATM   35  C   MOL     1     -50.897  -8.215  20.657  1.00 -0.21     0.107 C 
HETATM   36  C   MOL     1     -49.234  -8.122  17.458  1.00 -0.06     0.182 C 
HETATM   37  N   MOL     1     -51.813  -8.432  21.294  1.00  0.07    -0.193 NA
BRANCH  33  38
HETATM   38  C   MOL     1     -48.475  -7.779  20.706  1.00 -0.19     0.088 A 
HETATM   39  N   MOL     1     -48.467  -6.931  21.762  1.00 -0.03    -0.229 N 
HETATM   40  C   MOL     1     -47.224  -7.043  22.301  1.00 -0.22     0.104 A 
HETATM   41  N   MOL     1     -49.395  -6.084  22.299  1.00  0.23    -0.160 NA
HETATM   42  C   MOL     1     -46.467  -7.932  21.609  1.00 -0.37     0.038 A 
HETATM   43  C   MOL     1     -46.928  -6.254  23.443  1.00 -0.44     0.151 A 
HETATM   44  C   MOL     1     -47.283  -8.403  20.577  1.00 -0.17     0.034 A 
HETATM   45  N   MOL     1     -47.827  -5.419  23.981  1.00 -0.19    -0.221 NA
HETATM   46  C   MOL     1     -49.046  -5.385  23.353  1.00 -0.33     0.258 A 
BRANCH  43  47
HETATM   47  N   MOL     1     -45.693  -6.318  24.044  1.00 -0.25    -0.382 N 
HETATM   48  H   MOL     1     -45.637  -6.400  24.919  1.00 -0.27     0.157 HD
HETATM   49  H   MOL     1     -44.958  -6.278  23.560  1.00 -0.19     0.157 HD
ENDBRANCH  43  47
ENDBRANCH  33  38
BRANCH  34  50
HETATM   50  O   MOL     1     -48.645 -10.002  18.933  1.00  0.41    -0.388 OA
HETATM   51  H   MOL     1     -48.176  -9.862  19.812  1.00 -0.42     0.210 HD
ENDBRANCH  34  50
BRANCH  36  52
HETATM   52  O   MOL     1     -47.808  -7.953  17.406  1.00  0.07    -0.390 OA
HETATM   53  H   MOL     1     -47.530  -7.450  16.580  1.00 -0.09     0.210 HD
ENDBRANCH  36  52
ENDBRANCH  30  31
ENDBRANCH  29  30
ENDBRANCH  27  29
BRANCH  27  54
HETATM   54  O   MOL     1     -51.233  -2.679  18.472  1.00  0.13    -0.260 OA
BRANCH  54  55
HETATM   55  C   MOL     1     -51.340  -1.501  19.158  1.00 -0.29     0.080 A 
HETATM   56  C   MOL     1     -50.732  -1.314  20.386  1.00 -0.28     0.037 A 
HETATM   57  C   MOL     1     -50.856  -0.116  21.049  1.00 -0.40     0.003 A 
HETATM   58  C   MOL     1     -51.588   0.907  20.492  1.00 -0.35     0.000 A 
HETATM   59  C   MOL     1     -52.197   0.730  19.271  1.00 -0.47     0.003 A 
HETATM   60  C   MOL     1     -52.076  -0.469  18.609  1.00 -0.37     0.037 A 
ENDBRANCH  54  55
ENDBRANCH  27  54
ENDBRANCH  25  27
ENDBRANCH  17  25
ENDBRANCH  16  17
ENDBRANCH  13  16
ENDBRANCH   8  13
ENDBRANCH   7   8
ENDBRANCH   3   7
TORSDOF 20
ENDMDL
MODEL 9
REMARK VINA RESULT:      -7.7      3.649      8.833
REMARK  20 active torsions:
REMARK  status: ('A' for Active; 'I' for Inactive)
REMARK    1  A    between atoms: C_3  and  C_7 
REMARK    2  A    between atoms: C_7  and  C_8 
REMARK    3  A    between atoms: C_8  and  N_9 
REMARK    4  A    between atoms: C_8  and  C_10 
REMARK    5  A    between atoms: C_10  and  O_11 
REMARK    6  A    between atoms: C_10  and  C_12 
REMARK    7  A    between atoms: C_12  and  C_13 
REMARK    8  A    between atoms: C_13  and  C_14 
REMARK    9  A    between atoms: C_13  and  N_21 
REMARK   10  A    between atoms: C_14  and  C_15 
REMARK   11  A    between atoms: N_21  and  P_22 
REMARK   12  A    between atoms: P_22  and  O_23 
REMARK   13  A    between atoms: P_22  and  O_24 
REMARK   14  A    between atoms: O_23  and  C_26 
REMARK   15  A    between atoms: O_24  and  C_27 
REMARK   16  A    between atoms: C_26  and  C_33 
REMARK   17  A    between atoms: C_35  and  C_40 
REMARK   18  A    between atoms: C_36  and  O_39 
REMARK   19  A    between atoms: C_37  and  O_38 
REMARK   20  A    between atoms: C_50  and  N_51 
ROOT
HETATM    1  C   MOL     1     -47.673  -9.273  21.824  1.00 -0.25     0.001 A 
HETATM    2  C   MOL     1     -47.812  -8.126  22.573  1.00 -0.30     0.007 A 
HETATM    3  C   MOL     1     -49.059  -7.718  22.995  1.00 -0.25    -0.056 A 
HETATM    4  C   MOL     1     -50.166  -8.467  22.660  1.00 -0.33     0.007 A 
HETATM    5  C   MOL     1     -50.029  -9.614  21.911  1.00 -0.34     0.001 A 
HETATM    6  C   MOL     1     -48.781 -10.016  21.492  1.00 -0.27     0.000 A 
ENDROOT
BRANCH   3   7
HETATM    7  C   MOL     1     -49.211  -6.452  23.825  1.00 -0.43     0.074 C 
BRANCH   7   8
HETATM    8  C   MOL     1     -49.653  -5.200  23.035  1.00 -0.43     0.216 C 
BRANCH   8   9
HETATM    9  N   MOL     1     -48.712  -4.066  23.343  1.00  0.05    -0.072 N 
HETATM   10  H   MOL     1     -47.842  -4.316  23.257  1.00 -0.64     0.274 HD
HETATM   11  H   MOL     1     -48.842  -3.360  22.783  1.00 -0.76     0.274 HD
HETATM   12  H   MOL     1     -48.820  -3.745  24.186  1.00 -0.15     0.274 HD
ENDBRANCH   8   9
BRANCH   8  13
HETATM   13  C   MOL     1     -51.111  -4.834  23.397  1.00 -0.29     0.150 C 
BRANCH  13  14
HETATM   14  O   MOL     1     -51.512  -5.533  24.590  1.00  0.06    -0.393 OA
HETATM   15  H   MOL     1     -52.101  -6.318  24.372  1.00 -0.27     0.210 HD
ENDBRANCH  13  14
BRANCH  13  16
HETATM   16  C   MOL     1     -52.081  -5.191  22.250  1.00 -0.14     0.054 C 
BRANCH  16  17
HETATM   17  C   MOL     1     -51.425  -4.992  20.866  1.00 -0.12     0.073 C 
BRANCH  17  18
HETATM   18  C   MOL     1     -51.772  -6.191  19.955  1.00 -0.13     0.058 C 
BRANCH  18  19
HETATM   19  C   MOL     1     -50.586  -6.878  19.294  1.00 -0.16    -0.057 A 
HETATM   20  C   MOL     1     -50.787  -7.927  18.423  1.00 -0.21     0.007 A 
HETATM   21  C   MOL     1     -49.715  -8.552  17.827  1.00 -0.25     0.001 A 
HETATM   22  C   MOL     1     -48.435  -8.131  18.101  1.00 -0.37     0.000 A 
HETATM   23  C   MOL     1     -48.227  -7.083  18.971  1.00 -0.40     0.001 A 
HETATM   24  C   MOL     1     -49.301  -6.460  19.564  1.00 -0.21     0.007 A 
ENDBRANCH  18  19
ENDBRANCH  17  18
BRANCH  17  25
HETATM   25  N   MOL     1     -51.926  -3.753  20.255  1.00  0.15    -0.221 NA
HETATM   26  H   MOL     1     -52.588  -3.288  20.889  1.00  0.32     0.134 HD
BRANCH  25  27
HETATM   27  P   MOL     1     -50.841  -2.798  19.824  1.00  0.09     0.413 P 
HETATM   28  O   MOL     1     -49.474  -3.326  20.169  1.00  0.07    -0.239 OA
BRANCH  27  29
HETATM   29  O   MOL     1     -51.052  -1.342  20.473  1.00  0.12    -0.299 OA
BRANCH  29  30
HETATM   30  C   MOL     1     -50.443  -1.054  21.741  1.00 -0.20     0.214 C 
BRANCH  30  31
HETATM   31  C   MOL     1     -49.402   0.066  21.574  1.00 -0.04     0.180 C 
HETATM   32  O   MOL     1     -49.185   0.378  20.187  1.00  0.26    -0.347 OA
HETATM   33  C   MOL     1     -47.813   0.760  19.971  1.00 -0.04     0.222 C 
HETATM   34  C   MOL     1     -47.111   0.631  21.343  1.00 -0.10     0.205 C 
HETATM   35  C   MOL     1     -47.790   2.157  19.518  1.00 -0.21     0.107 C 
HETATM   36  C   MOL     1     -48.026  -0.304  22.145  1.00 -0.06     0.182 C 
HETATM   37  N   MOL     1     -47.771   3.239  19.169  1.00  0.07    -0.193 NA
BRANCH  33  38
HETATM   38  C   MOL     1     -47.307  -0.169  18.872  1.00 -0.19     0.088 A 
HETATM   39  N   MOL     1     -48.023  -0.364  17.739  1.00 -0.03    -0.229 N 
HETATM   40  C   MOL     1     -47.288  -1.237  16.999  1.00 -0.22     0.104 A 
HETATM   41  N   MOL     1     -49.217   0.115  17.283  1.00  0.23    -0.160 NA
HETATM   42  C   MOL     1     -46.145  -1.586  17.642  1.00 -0.37     0.038 A 
HETATM   43  C   MOL     1     -47.805  -1.627  15.736  1.00 -0.44     0.151 A 
HETATM   44  C   MOL     1     -46.166  -0.891  18.855  1.00 -0.17     0.034 A 
HETATM   45  N   MOL     1     -48.975  -1.165  15.275  1.00 -0.19    -0.221 NA
HETATM   46  C   MOL     1     -49.631  -0.293  16.107  1.00 -0.33     0.258 A 
BRANCH  43  47
HETATM   47  N   MOL     1     -47.116  -2.502  14.931  1.00 -0.25    -0.382 N 
HETATM   48  H   MOL     1     -47.082  -3.356  15.142  1.00 -0.27     0.157 HD
HETATM   49  H   MOL     1     -46.709  -2.215  14.205  1.00 -0.19     0.157 HD
ENDBRANCH  43  47
ENDBRANCH  33  38
BRANCH  34  50
HETATM   50  O   MOL     1     -45.771   0.120  21.254  1.00  0.41    -0.388 OA
HETATM   51  H   MOL     1     -45.092   0.841  21.428  1.00 -0.42     0.210 HD
ENDBRANCH  34  50
BRANCH  36  52
HETATM   52  O   MOL     1     -47.682  -1.670  21.868  1.00  0.07    -0.390 OA
HETATM   53  H   MOL     1     -48.433  -2.148  21.398  1.00 -0.09     0.210 HD
ENDBRANCH  36  52
ENDBRANCH  30  31
ENDBRANCH  29  30
ENDBRANCH  27  29
BRANCH  27  54
HETATM   54  O   MOL     1     -50.952  -2.508  18.241  1.00  0.13    -0.260 OA
BRANCH  54  55
HETATM   55  C   MOL     1     -51.076  -3.513  17.323  1.00 -0.29     0.080 A 
HETATM   56  C   MOL     1     -52.304  -3.882  16.806  1.00 -0.28     0.037 A 
HETATM   57  C   MOL     1     -52.395  -4.895  15.880  1.00 -0.40     0.003 A 
HETATM   58  C   MOL     1     -51.258  -5.548  15.461  1.00 -0.35     0.000 A 
HETATM   59  C   MOL     1     -50.031  -5.188  15.970  1.00 -0.47     0.003 A 
HETATM   60  C   MOL     1     -49.941  -4.177  16.897  1.00 -0.37     0.037 A 
ENDBRANCH  54  55
ENDBRANCH  27  54
ENDBRANCH  25  27
ENDBRANCH  17  25
ENDBRANCH  16  17
ENDBRANCH  13  16
ENDBRANCH   8  13
ENDBRANCH   7   8
ENDBRANCH   3   7
TORSDOF 20
ENDMDL
MODEL 10
REMARK VINA RESULT:      -7.6      4.262      9.350
REMARK  20 active torsions:
REMARK  status: ('A' for Active; 'I' for Inactive)
REMARK    1  A    between atoms: C_3  and  C_7 
REMARK    2  A    between atoms: C_7  and  C_8 
REMARK    3  A    between atoms: C_8  and  N_9 
REMARK    4  A    between atoms: C_8  and  C_10 
REMARK    5  A    between atoms: C_10  and  O_11 
REMARK    6  A    between atoms: C_10  and  C_12 
REMARK    7  A    between atoms: C_12  and  C_13 
REMARK    8  A    between atoms: C_13  and  C_14 
REMARK    9  A    between atoms: C_13  and  N_21 
REMARK   10  A    between atoms: C_14  and  C_15 
REMARK   11  A    between atoms: N_21  and  P_22 
REMARK   12  A    between atoms: P_22  and  O_23 
REMARK   13  A    between atoms: P_22  and  O_24 
REMARK   14  A    between atoms: O_23  and  C_26 
REMARK   15  A    between atoms: O_24  and  C_27 
REMARK   16  A    between atoms: C_26  and  C_33 
REMARK   17  A    between atoms: C_35  and  C_40 
REMARK   18  A    between atoms: C_36  and  O_39 
REMARK   19  A    between atoms: C_37  and  O_38 
REMARK   20  A    between atoms: C_50  and  N_51 
ROOT
HETATM    1  C   MOL     1     -47.942  -2.472  15.569  1.00 -0.25     0.001 A 
HETATM    2  C   MOL     1     -48.098  -3.346  16.621  1.00 -0.30     0.007 A 
HETATM    3  C   MOL     1     -49.153  -4.232  16.639  1.00 -0.25    -0.056 A 
HETATM    4  C   MOL     1     -50.052  -4.236  15.595  1.00 -0.33     0.007 A 
HETATM    5  C   MOL     1     -49.899  -3.362  14.543  1.00 -0.34     0.001 A 
HETATM    6  C   MOL     1     -48.843  -2.479  14.531  1.00 -0.27     0.000 A 
ENDROOT
BRANCH   3   7
HETATM    7  C   MOL     1     -49.322  -5.201  17.801  1.00 -0.43     0.074 C 
BRANCH   7   8
HETATM    8  C   MOL     1     -49.733  -6.636  17.403  1.00 -0.43     0.216 C 
BRANCH   8   9
HETATM    9  N   MOL     1     -50.913  -7.058  18.237  1.00  0.05    -0.072 N 
HETATM   10  H   MOL     1     -50.694  -7.138  19.116  1.00 -0.64     0.274 HD
HETATM   11  H   MOL     1     -51.593  -6.455  18.187  1.00 -0.76     0.274 HD
HETATM   12  H   MOL     1     -51.259  -7.854  17.970  1.00 -0.15     0.274 HD
ENDBRANCH   8   9
BRANCH   8  13
HETATM   13  C   MOL     1     -48.538  -7.599  17.590  1.00 -0.29     0.150 C 
BRANCH  13  14
HETATM   14  O   MOL     1     -49.000  -8.962  17.585  1.00  0.06    -0.393 OA
HETATM   15  H   MOL     1     -48.764  -9.430  18.443  1.00 -0.27     0.210 HD
ENDBRANCH  13  14
BRANCH  13  16
HETATM   16  C   MOL     1     -47.795  -7.320  18.914  1.00 -0.14     0.054 C 
BRANCH  16  17
HETATM   17  C   MOL     1     -46.884  -8.501  19.317  1.00 -0.12     0.073 C 
BRANCH  17  18
HETATM   18  C   MOL     1     -45.437  -8.216  18.854  1.00 -0.13     0.058 C 
BRANCH  18  19
HETATM   19  C   MOL     1     -44.405  -9.264  19.242  1.00 -0.16    -0.057 A 
HETATM   20  C   MOL     1     -43.856  -9.263  20.506  1.00 -0.21     0.007 A 
HETATM   21  C   MOL     1     -42.919 -10.209  20.858  1.00 -0.25     0.001 A 
HETATM   22  C   MOL     1     -42.526 -11.160  19.945  1.00 -0.37     0.000 A 
HETATM   23  C   MOL     1     -43.072 -11.166  18.681  1.00 -0.40     0.001 A 
HETATM   24  C   MOL     1     -44.009 -10.220  18.332  1.00 -0.21     0.007 A 
ENDBRANCH  18  19
ENDBRANCH  17  18
BRANCH  17  25
HETATM   25  N   MOL     1     -46.907  -8.668  20.777  1.00  0.15    -0.221 NA
HETATM   26  H   MOL     1     -47.170  -7.783  21.230  1.00  0.32     0.134 HD
BRANCH  25  27
HETATM   27  P   MOL     1     -47.790  -9.794  21.253  1.00  0.09     0.413 P 
HETATM   28  O   MOL     1     -48.663 -10.316  20.143  1.00  0.07    -0.239 OA
BRANCH  27  29
HETATM   29  O   MOL     1     -48.695  -9.339  22.502  1.00  0.12    -0.299 OA
BRANCH  29  30
HETATM   30  C   MOL     1     -48.899  -7.938  22.736  1.00 -0.20     0.214 C 
BRANCH  30  31
HETATM   31  C   MOL     1     -50.094  -7.441  21.906  1.00 -0.04     0.180 C 
HETATM   32  O   MOL     1     -50.504  -6.124  22.313  1.00  0.26    -0.347 OA
HETATM   33  C   MOL     1     -51.930  -5.980  22.175  1.00 -0.04     0.222 C 
HETATM   34  C   MOL     1     -52.453  -7.348  21.677  1.00 -0.10     0.205 C 
HETATM   35  C   MOL     1     -52.193  -4.941  21.171  1.00 -0.21     0.107 C 
HETATM   36  C   MOL     1     -51.336  -8.332  22.048  1.00 -0.06     0.182 C 
HETATM   37  N   MOL     1     -52.397  -4.137  20.393  1.00  0.07    -0.193 NA
BRANCH  33  38
HETATM   38  C   MOL     1     -52.423  -5.538  23.548  1.00 -0.19     0.088 A 
HETATM   39  N   MOL     1     -53.686  -5.082  23.722  1.00 -0.03    -0.229 N 
HETATM   40  C   MOL     1     -53.778  -4.780  25.044  1.00 -0.22     0.104 A 
HETATM   41  N   MOL     1     -54.747  -4.897  22.882  1.00  0.23    -0.160 NA
HETATM   42  C   MOL     1     -52.610  -5.034  25.689  1.00 -0.37     0.038 A 
HETATM   43  C   MOL     1     -55.015  -4.272  25.520  1.00 -0.44     0.151 A 
HETATM   44  C   MOL     1     -51.738  -5.523  24.713  1.00 -0.17     0.034 A 
HETATM   45  N   MOL     1     -56.065  -4.086  24.708  1.00 -0.19    -0.221 NA
HETATM   46  C   MOL     1     -55.857  -4.421  23.394  1.00 -0.33     0.258 A 
BRANCH  43  47
HETATM   47  N   MOL     1     -55.183  -3.949  26.846  1.00 -0.25    -0.382 N 
HETATM   48  H   MOL     1     -55.945  -3.603  27.118  1.00 -0.27     0.157 HD
HETATM   49  H   MOL     1     -54.534  -4.086  27.424  1.00 -0.19     0.157 HD
ENDBRANCH  43  47
ENDBRANCH  33  38
BRANCH  34  50
HETATM   50  O   MOL     1     -53.711  -7.725  22.257  1.00  0.41    -0.388 OA
HETATM   51  H   MOL     1     -53.901  -7.200  23.093  1.00 -0.42     0.210 HD
ENDBRANCH  34  50
BRANCH  36  52
HETATM   52  O   MOL     1     -51.519  -8.782  23.400  1.00  0.07    -0.390 OA
HETATM   53  H   MOL     1     -51.273  -9.753  23.498  1.00 -0.09     0.210 HD
ENDBRANCH  36  52
ENDBRANCH  30  31
ENDBRANCH  29  30
ENDBRANCH  27  29
BRANCH  27  54
HETATM   54  O   MOL     1     -46.891 -10.983  21.871  1.00  0.13    -0.260 OA
BRANCH  54  55
HETATM   55  C   MOL     1     -46.372 -11.982  21.096  1.00 -0.29     0.080 A 
HETATM   56  C   MOL     1     -45.425 -12.866  21.583  1.00 -0.28     0.037 A 
HETATM   57  C   MOL     1     -44.926 -13.863  20.779  1.00 -0.40     0.003 A 
HETATM   58  C   MOL     1     -45.369 -13.989  19.482  1.00 -0.35     0.000 A 
HETATM   59  C   MOL     1     -46.310 -13.115  18.990  1.00 -0.47     0.003 A 
HETATM   60  C   MOL     1     -46.808 -12.116  19.792  1.00 -0.37     0.037 A 
ENDBRANCH  54  55
ENDBRANCH  27  54
ENDBRANCH  25  27
ENDBRANCH  17  25
ENDBRANCH  16  17
ENDBRANCH  13  16
ENDBRANCH   8  13
ENDBRANCH   7   8
ENDBRANCH   3   7
TORSDOF 20
ENDMDL
