MODEL 1
REMARK VINA RESULT:      -7.6      0.000      0.000
REMARK  13 active torsions:
REMARK  status: ('A' for Active; 'I' for Inactive)
REMARK    1  A    between atoms: C_5  and  N_6 
REMARK    2  A    between atoms: C_9  and  N_10 
REMARK    3  A    between atoms: N_10  and  C_11 
REMARK    4  A    between atoms: C_11  and  C_12 
REMARK    5  A    between atoms: C_12  and  C_13 
REMARK    6  A    between atoms: C_13  and  C_14 
REMARK    7  A    between atoms: C_14  and  C_15 
REMARK    8  A    between atoms: C_15  and  C_16 
REMARK    9  A    between atoms: C_16  and  N_17 
REMARK       I    between atoms: N_17  and  C_18 
REMARK   10  A    between atoms: C_18  and  C_20 
REMARK   11  A    between atoms: C_25  and  N_26 
REMARK       I    between atoms: N_26  and  C_27 
REMARK   12  A    between atoms: C_27  and  C_29 
REMARK   13  A    between atoms: C_29  and  C_30 
ROOT
HETATM    1  O   MOL     1     -53.706  -4.910  25.909  1.00 -0.03    -0.273 OA
HETATM    2  C   MOL     1     -53.059  -5.650  25.188  1.00 -0.41     0.224 C 
HETATM    3  C   MOL     1     -53.700  -6.402  24.044  1.00 -0.27     0.106 C 
HETATM    4  C   MOL     1     -52.725  -6.624  22.884  1.00 -0.23     0.044 C 
HETATM    5  C   MOL     1     -51.539  -7.388  23.480  1.00 -0.30     0.180 C 
HETATM    6  C   MOL     1     -50.893  -6.618  24.612  1.00 -0.49     0.247 C 
HETATM    7  O   MOL     1     -49.697  -6.693  24.835  1.00 -0.12    -0.271 OA
HETATM    8  N   MOL     1     -51.731  -5.851  25.345  1.00 -0.04    -0.296 N 
HETATM    9  HN  MOL     1     -51.357  -5.412  26.011  1.00 -0.27     0.171 HD
ENDROOT
BRANCH   5  10
HETATM   10  N   MOL     1     -50.560  -7.731  22.437  1.00  0.05    -0.337 N 
HETATM   11  C   MOL     1     -50.098  -6.752  21.438  1.00 -0.25     0.138 C 
HETATM   12  C   MOL     1     -49.784  -7.840  20.394  1.00 -0.27     0.070 C 
HETATM   13  C   MOL     1     -49.108  -7.573  19.065  1.00 -0.20     0.011 C 
HETATM   14  C   MOL     1     -49.056  -8.922  21.195  1.00 -0.40     0.112 C 
HETATM   15  C   MOL     1     -48.522  -8.591  18.416  1.00 -0.28     0.025 C 
HETATM   16  C   MOL     1     -48.536  -9.936  18.995  1.00 -0.47    -0.001 C 
HETATM   17  C   MOL     1     -48.784 -10.099  20.293  1.00 -0.52    -0.012 C 
HETATM   18  C   MOL     1     -50.045  -8.965  22.325  1.00 -0.44     0.229 C 
HETATM   19  O   MOL     1     -50.324  -9.942  23.005  1.00 -0.63    -0.273 OA
BRANCH  13  20
HETATM   20  N   MOL     1     -49.204  -6.277  18.649  1.00  0.04    -0.393 N 
HETATM   21  HN  MOL     1     -48.813  -5.653  19.132  1.00 -0.01     0.159 HD
BRANCH  20  22
HETATM   22  C   MOL     1     -49.493  -5.974  17.241  1.00 -0.24     0.119 C 
BRANCH  22  23
HETATM   23  C   MOL     1     -50.985  -6.038  16.877  1.00 -0.09     0.020 C 
BRANCH  23  24
HETATM   24  C   MOL     1     -51.213  -5.154  15.642  1.00 -0.19     0.002 C 
BRANCH  24  25
HETATM   25  C   MOL     1     -49.961  -4.315  15.344  1.00 -0.35     0.002 C 
BRANCH  25  26
HETATM   26  C   MOL     1     -50.347  -3.200  14.362  1.00 -0.42     0.020 C 
BRANCH  26  27
HETATM   27  C   MOL     1     -49.119  -2.763  13.551  1.00 -0.29     0.123 C 
BRANCH  27  28
HETATM   28  N   MOL     1     -48.025  -2.460  14.485  1.00 -0.04    -0.357 N 
HETATM   29  C   MOL     1     -47.792  -1.183  14.860  1.00 -0.29     0.254 C 
HETATM   30  O   MOL     1     -48.462  -0.237  14.451  1.00 -0.19    -0.268 OA
HETATM   31  HN  MOL     1     -47.541  -3.118  14.810  1.00 -0.09     0.162 HD
BRANCH  29  32
HETATM   32  C   MOL     1     -46.677  -0.866  15.795  1.00 -0.21     0.061 A 
HETATM   33  C   MOL     1     -45.361  -1.000  15.397  1.00 -0.36     0.038 A 
HETATM   34  C   MOL     1     -44.336  -0.684  16.252  1.00 -0.38     0.117 A 
HETATM   35  N   MOL     1     -44.520  -0.232  17.507  1.00 -0.12    -0.271 NA
HETATM   36  C   MOL     1     -45.800  -0.104  17.890  1.00 -0.27     0.146 A 
HETATM   37  C   MOL     1     -46.890  -0.405  17.091  1.00 -0.14     0.068 A 
BRANCH  37  38
HETATM   38  N   MOL     1     -48.189  -0.254  17.594  1.00  0.07    -0.325 N 
HETATM   39  C   MOL     1     -48.911  -1.204  18.221  1.00 -0.29     0.226 C 
HETATM   40  O   MOL     1     -48.512  -2.334  18.465  1.00 -0.10    -0.273 OA
HETATM   41  HN  MOL     1     -48.562   0.534  17.490  1.00  0.05     0.169 HD
BRANCH  39  42
HETATM   42  C   MOL     1     -50.287  -0.729  18.638  1.00 -0.34     0.141 C 
BRANCH  42  43
HETATM   43  C   MOL     1     -51.057  -1.855  19.303  1.00 -0.21    -0.048 A 
HETATM   44  C   MOL     1     -51.732  -2.779  18.537  1.00 -0.31     0.007 A 
HETATM   45  C   MOL     1     -52.429  -3.801  19.141  1.00 -0.36     0.002 A 
HETATM   46  C   MOL     1     -52.452  -3.903  20.513  1.00 -0.30     0.024 A 
HETATM   47  C   MOL     1     -51.777  -2.981  21.282  1.00 -0.25     0.034 A 
HETATM   48 CL   MOL     1     -51.805  -3.108  23.016  1.00 -0.85    -0.084 Cl
HETATM   49  C   MOL     1     -51.080  -1.959  20.677  1.00 -0.22     0.031 A 
ENDBRANCH  42  43
ENDBRANCH  39  42
ENDBRANCH  37  38
ENDBRANCH  29  32
ENDBRANCH  27  28
ENDBRANCH  26  27
ENDBRANCH  25  26
ENDBRANCH  24  25
ENDBRANCH  23  24
ENDBRANCH  22  23
ENDBRANCH  20  22
ENDBRANCH  13  20
ENDBRANCH   5  10
TORSDOF 13
ENDMDL
MODEL 2
REMARK VINA RESULT:      -7.5      3.512      6.501
REMARK  13 active torsions:
REMARK  status: ('A' for Active; 'I' for Inactive)
REMARK    1  A    between atoms: C_5  and  N_6 
REMARK    2  A    between atoms: C_9  and  N_10 
REMARK    3  A    between atoms: N_10  and  C_11 
REMARK    4  A    between atoms: C_11  and  C_12 
REMARK    5  A    between atoms: C_12  and  C_13 
REMARK    6  A    between atoms: C_13  and  C_14 
REMARK    7  A    between atoms: C_14  and  C_15 
REMARK    8  A    between atoms: C_15  and  C_16 
REMARK    9  A    between atoms: C_16  and  N_17 
REMARK       I    between atoms: N_17  and  C_18 
REMARK   10  A    between atoms: C_18  and  C_20 
REMARK   11  A    between atoms: C_25  and  N_26 
REMARK       I    between atoms: N_26  and  C_27 
REMARK   12  A    between atoms: C_27  and  C_29 
REMARK   13  A    between atoms: C_29  and  C_30 
ROOT
HETATM    1  O   MOL     1     -43.368 -11.246  18.557  1.00 -0.03    -0.273 OA
HETATM    2  C   MOL     1     -44.422 -10.796  18.974  1.00 -0.41     0.224 C 
HETATM    3  C   MOL     1     -44.526  -9.388  19.513  1.00 -0.27     0.106 C 
HETATM    4  C   MOL     1     -45.910  -8.780  19.271  1.00 -0.23     0.044 C 
HETATM    5  C   MOL     1     -46.903  -9.728  19.949  1.00 -0.30     0.180 C 
HETATM    6  C   MOL     1     -46.805 -11.130  19.388  1.00 -0.49     0.247 C 
HETATM    7  O   MOL     1     -47.780 -11.859  19.314  1.00 -0.12    -0.271 OA
HETATM    8  N   MOL     1     -45.573 -11.508  18.980  1.00 -0.04    -0.296 N 
HETATM    9  HN  MOL     1     -45.513 -12.328  18.665  1.00 -0.27     0.171 HD
ENDROOT
BRANCH   5  10
HETATM   10  N   MOL     1     -48.275  -9.206  19.851  1.00  0.05    -0.337 N 
HETATM   11  C   MOL     1     -48.819  -8.650  18.600  1.00 -0.25     0.138 C 
HETATM   12  C   MOL     1     -49.814  -7.736  19.339  1.00 -0.27     0.070 C 
HETATM   13  C   MOL     1     -50.871  -6.899  18.652  1.00 -0.20     0.011 C 
HETATM   14  C   MOL     1     -50.416  -8.642  20.417  1.00 -0.40     0.112 C 
HETATM   15  C   MOL     1     -51.924  -6.466  19.364  1.00 -0.28     0.025 C 
HETATM   16  C   MOL     1     -52.042  -6.808  20.782  1.00 -0.47    -0.001 C 
HETATM   17  C   MOL     1     -51.341  -7.824  21.282  1.00 -0.52    -0.012 C 
HETATM   18  C   MOL     1     -49.106  -9.189  20.905  1.00 -0.44     0.229 C 
HETATM   19  O   MOL     1     -48.851  -9.546  22.047  1.00 -0.63    -0.273 OA
BRANCH  13  20
HETATM   20  N   MOL     1     -50.605  -6.645  17.338  1.00  0.04    -0.393 N 
HETATM   21  HN  MOL     1     -50.689  -7.304  16.759  1.00 -0.01     0.159 HD
BRANCH  20  22
HETATM   22  C   MOL     1     -50.668  -5.270  16.825  1.00 -0.24     0.119 C 
BRANCH  22  23
HETATM   23  C   MOL     1     -51.931  -4.962  16.005  1.00 -0.09     0.020 C 
BRANCH  23  24
HETATM   24  C   MOL     1     -51.630  -3.762  15.096  1.00 -0.19     0.002 C 
BRANCH  24  25
HETATM   25  C   MOL     1     -50.254  -3.924  14.432  1.00 -0.35     0.002 C 
BRANCH  25  26
HETATM   26  C   MOL     1     -49.834  -2.567  13.850  1.00 -0.42     0.020 C 
BRANCH  26  27
HETATM   27  C   MOL     1     -48.495  -2.124  14.458  1.00 -0.29     0.123 C 
BRANCH  27  28
HETATM   28  N   MOL     1     -48.556  -2.318  15.914  1.00 -0.04    -0.357 N 
HETATM   29  C   MOL     1     -48.949  -1.301  16.713  1.00 -0.29     0.254 C 
HETATM   30  O   MOL     1     -49.267  -0.197  16.277  1.00 -0.19    -0.268 OA
HETATM   31  HN  MOL     1     -48.354  -3.103  16.253  1.00 -0.09     0.162 HD
BRANCH  29  32
HETATM   32  C   MOL     1     -49.000  -1.485  18.191  1.00 -0.21     0.061 A 
HETATM   33  C   MOL     1     -50.014  -2.217  18.778  1.00 -0.36     0.038 A 
HETATM   34  C   MOL     1     -50.044  -2.406  20.136  1.00 -0.38     0.117 A 
HETATM   35  N   MOL     1     -49.121  -1.912  20.981  1.00 -0.12    -0.271 NA
HETATM   36  C   MOL     1     -48.137  -1.200  20.407  1.00 -0.27     0.146 A 
HETATM   37  C   MOL     1     -48.036  -0.960  19.047  1.00 -0.14     0.068 A 
BRANCH  37  38
HETATM   38  N   MOL     1     -46.979  -0.187  18.550  1.00  0.07    -0.325 N 
HETATM   39  C   MOL     1     -45.694  -0.579  18.441  1.00 -0.29     0.226 C 
HETATM   40  O   MOL     1     -45.276  -1.689  18.741  1.00 -0.10    -0.273 OA
HETATM   41  HN  MOL     1     -47.178   0.625  18.283  1.00  0.05     0.169 HD
BRANCH  39  42
HETATM   42  C   MOL     1     -44.790   0.494  17.870  1.00 -0.34     0.141 C 
BRANCH  42  43
HETATM   43  C   MOL     1     -43.902   1.071  18.957  1.00 -0.21    -0.048 A 
HETATM   44  C   MOL     1     -44.060   0.670  20.265  1.00 -0.31     0.007 A 
HETATM   45  C   MOL     1     -43.253   1.193  21.250  1.00 -0.36     0.002 A 
HETATM   46  C   MOL     1     -42.286   2.119  20.930  1.00 -0.30     0.024 A 
HETATM   47  C   MOL     1     -42.126   2.521  19.623  1.00 -0.25     0.034 A 
HETATM   48 CL   MOL     1     -40.904   3.691  19.216  1.00 -0.85    -0.084 Cl
HETATM   49  C   MOL     1     -42.933   1.997  18.637  1.00 -0.22     0.031 A 
ENDBRANCH  42  43
ENDBRANCH  39  42
ENDBRANCH  37  38
ENDBRANCH  29  32
ENDBRANCH  27  28
ENDBRANCH  26  27
ENDBRANCH  25  26
ENDBRANCH  24  25
ENDBRANCH  23  24
ENDBRANCH  22  23
ENDBRANCH  20  22
ENDBRANCH  13  20
ENDBRANCH   5  10
TORSDOF 13
ENDMDL
MODEL 3
REMARK VINA RESULT:      -7.4      2.371      4.584
REMARK  13 active torsions:
REMARK  status: ('A' for Active; 'I' for Inactive)
REMARK    1  A    between atoms: C_5  and  N_6 
REMARK    2  A    between atoms: C_9  and  N_10 
REMARK    3  A    between atoms: N_10  and  C_11 
REMARK    4  A    between atoms: C_11  and  C_12 
REMARK    5  A    between atoms: C_12  and  C_13 
REMARK    6  A    between atoms: C_13  and  C_14 
REMARK    7  A    between atoms: C_14  and  C_15 
REMARK    8  A    between atoms: C_15  and  C_16 
REMARK    9  A    between atoms: C_16  and  N_17 
REMARK       I    between atoms: N_17  and  C_18 
REMARK   10  A    between atoms: C_18  and  C_20 
REMARK   11  A    between atoms: C_25  and  N_26 
REMARK       I    between atoms: N_26  and  C_27 
REMARK   12  A    between atoms: C_27  and  C_29 
REMARK   13  A    between atoms: C_29  and  C_30 
ROOT
HETATM    1  O   MOL     1     -44.086 -10.430  18.804  1.00 -0.03    -0.273 OA
HETATM    2  C   MOL     1     -45.144 -10.141  19.337  1.00 -0.41     0.224 C 
HETATM    3  C   MOL     1     -45.251  -8.993  20.315  1.00 -0.27     0.106 C 
HETATM    4  C   MOL     1     -46.632  -8.332  20.277  1.00 -0.23     0.044 C 
HETATM    5  C   MOL     1     -47.634  -9.448  20.590  1.00 -0.30     0.180 C 
HETATM    6  C   MOL     1     -47.531 -10.583  19.594  1.00 -0.49     0.247 C 
HETATM    7  O   MOL     1     -48.506 -11.240  19.272  1.00 -0.12    -0.271 OA
HETATM    8  N   MOL     1     -46.295 -10.809  19.095  1.00 -0.04    -0.296 N 
HETATM    9  HN  MOL     1     -46.233 -11.477  18.525  1.00 -0.27     0.171 HD
ENDROOT
BRANCH   5  10
HETATM   10  N   MOL     1     -49.004  -8.917  20.659  1.00  0.05    -0.337 N 
HETATM   11  C   MOL     1     -49.525  -7.951  19.676  1.00 -0.25     0.138 C 
HETATM   12  C   MOL     1     -50.534  -7.352  20.673  1.00 -0.27     0.070 C 
HETATM   13  C   MOL     1     -51.580  -6.320  20.308  1.00 -0.20     0.011 C 
HETATM   14  C   MOL     1     -51.156  -8.577  21.350  1.00 -0.40     0.112 C 
HETATM   15  C   MOL     1     -52.645  -6.160  21.108  1.00 -0.28     0.025 C 
HETATM   16  C   MOL     1     -52.789  -6.981  22.312  1.00 -0.47    -0.001 C 
HETATM   17  C   MOL     1     -52.096  -8.112  22.432  1.00 -0.52    -0.012 C 
HETATM   18  C   MOL     1     -49.854  -9.269  21.636  1.00 -0.44     0.229 C 
HETATM   19  O   MOL     1     -49.620 -10.008  22.582  1.00 -0.63    -0.273 OA
BRANCH  13  20
HETATM   20  N   MOL     1     -51.289  -5.620  19.173  1.00  0.04    -0.393 N 
HETATM   21  HN  MOL     1     -50.464  -5.647  18.865  1.00 -0.01     0.159 HD
BRANCH  20  22
HETATM   22  C   MOL     1     -52.360  -5.257  18.235  1.00 -0.24     0.119 C 
BRANCH  22  23
HETATM   23  C   MOL     1     -52.001  -5.475  16.756  1.00 -0.09     0.020 C 
BRANCH  23  24
HETATM   24  C   MOL     1     -50.500  -5.791  16.672  1.00 -0.19     0.002 C 
BRANCH  24  25
HETATM   25  C   MOL     1     -49.750  -4.645  15.978  1.00 -0.35     0.002 C 
BRANCH  25  26
HETATM   26  C   MOL     1     -50.716  -3.951  15.007  1.00 -0.42     0.020 C 
BRANCH  26  27
HETATM   27  C   MOL     1     -50.546  -2.428  15.092  1.00 -0.29     0.123 C 
BRANCH  27  28
HETATM   28  N   MOL     1     -49.385  -2.134  15.943  1.00 -0.04    -0.357 N 
HETATM   29  C   MOL     1     -49.254  -0.912  16.507  1.00 -0.29     0.254 C 
HETATM   30  O   MOL     1     -50.074  -0.012  16.343  1.00 -0.19    -0.268 OA
HETATM   31  HN  MOL     1     -48.791  -2.764  16.096  1.00 -0.09     0.162 HD
BRANCH  29  32
HETATM   32  C   MOL     1     -48.072  -0.602  17.360  1.00 -0.21     0.061 A 
HETATM   33  C   MOL     1     -46.855  -0.281  16.791  1.00 -0.36     0.038 A 
HETATM   34  C   MOL     1     -45.775   0.029  17.578  1.00 -0.38     0.117 A 
HETATM   35  N   MOL     1     -45.809   0.046  18.924  1.00 -0.12    -0.271 NA
HETATM   36  C   MOL     1     -46.994  -0.267  19.473  1.00 -0.27     0.146 A 
HETATM   37  C   MOL     1     -48.129  -0.595  18.751  1.00 -0.14     0.068 A 
BRANCH  37  38
HETATM   38  N   MOL     1     -49.314  -0.926  19.421  1.00  0.07    -0.325 N 
HETATM   39  C   MOL     1     -49.833  -2.164  19.548  1.00 -0.29     0.226 C 
HETATM   40  O   MOL     1     -49.316  -3.184  19.114  1.00 -0.10    -0.273 OA
HETATM   41  HN  MOL     1     -49.754  -0.263  19.793  1.00  0.05     0.169 HD
BRANCH  39  42
HETATM   42  C   MOL     1     -51.133  -2.189  20.326  1.00 -0.34     0.141 C 
BRANCH  42  43
HETATM   43  C   MOL     1     -50.957  -2.952  21.626  1.00 -0.21    -0.048 A 
HETATM   44  C   MOL     1     -51.952  -2.936  22.578  1.00 -0.31     0.007 A 
HETATM   45  C   MOL     1     -51.792  -3.629  23.756  1.00 -0.36     0.002 A 
HETATM   46  C   MOL     1     -50.637  -4.341  23.986  1.00 -0.30     0.024 A 
HETATM   47  C   MOL     1     -49.641  -4.360  23.035  1.00 -0.25     0.034 A 
HETATM   48 CL   MOL     1     -48.180  -5.260  23.323  1.00 -0.85    -0.084 Cl
HETATM   49  C   MOL     1     -49.802  -3.666  21.856  1.00 -0.22     0.031 A 
ENDBRANCH  42  43
ENDBRANCH  39  42
ENDBRANCH  37  38
ENDBRANCH  29  32
ENDBRANCH  27  28
ENDBRANCH  26  27
ENDBRANCH  25  26
ENDBRANCH  24  25
ENDBRANCH  23  24
ENDBRANCH  22  23
ENDBRANCH  20  22
ENDBRANCH  13  20
ENDBRANCH   5  10
TORSDOF 13
ENDMDL
MODEL 4
REMARK VINA RESULT:      -7.4      2.622      8.905
REMARK  13 active torsions:
REMARK  status: ('A' for Active; 'I' for Inactive)
REMARK    1  A    between atoms: C_5  and  N_6 
REMARK    2  A    between atoms: C_9  and  N_10 
REMARK    3  A    between atoms: N_10  and  C_11 
REMARK    4  A    between atoms: C_11  and  C_12 
REMARK    5  A    between atoms: C_12  and  C_13 
REMARK    6  A    between atoms: C_13  and  C_14 
REMARK    7  A    between atoms: C_14  and  C_15 
REMARK    8  A    between atoms: C_15  and  C_16 
REMARK    9  A    between atoms: C_16  and  N_17 
REMARK       I    between atoms: N_17  and  C_18 
REMARK   10  A    between atoms: C_18  and  C_20 
REMARK   11  A    between atoms: C_25  and  N_26 
REMARK       I    between atoms: N_26  and  C_27 
REMARK   12  A    between atoms: C_27  and  C_29 
REMARK   13  A    between atoms: C_29  and  C_30 
ROOT
HETATM    1  O   MOL     1     -43.791   0.686  18.066  1.00 -0.03    -0.273 OA
HETATM    2  C   MOL     1     -44.841   0.212  17.669  1.00 -0.41     0.224 C 
HETATM    3  C   MOL     1     -44.903  -0.654  16.431  1.00 -0.27     0.106 C 
HETATM    4  C   MOL     1     -46.016  -1.702  16.517  1.00 -0.23     0.044 C 
HETATM    5  C   MOL     1     -47.311  -0.914  16.732  1.00 -0.30     0.180 C 
HETATM    6  C   MOL     1     -47.246  -0.066  17.983  1.00 -0.49     0.247 C 
HETATM    7  O   MOL     1     -48.239   0.160  18.654  1.00 -0.12    -0.271 OA
HETATM    8  N   MOL     1     -46.022   0.412  18.298  1.00 -0.04    -0.296 N 
HETATM    9  HN  MOL     1     -45.986   0.916  19.020  1.00 -0.27     0.171 HD
ENDROOT
BRANCH   5  10
HETATM   10  N   MOL     1     -48.473  -1.816  16.754  1.00  0.05    -0.337 N 
HETATM   11  C   MOL     1     -48.403  -3.179  17.308  1.00 -0.25     0.138 C 
HETATM   12  C   MOL     1     -49.543  -3.694  16.410  1.00 -0.27     0.070 C 
HETATM   13  C   MOL     1     -50.152  -5.076  16.517  1.00 -0.20     0.011 C 
HETATM   14  C   MOL     1     -50.607  -2.596  16.497  1.00 -0.40     0.112 C 
HETATM   15  C   MOL     1     -51.369  -5.295  15.995  1.00 -0.28     0.025 C 
HETATM   16  C   MOL     1     -52.093  -4.205  15.338  1.00 -0.47    -0.001 C 
HETATM   17  C   MOL     1     -51.742  -2.940  15.568  1.00 -0.52    -0.012 C 
HETATM   18  C   MOL     1     -49.664  -1.452  16.252  1.00 -0.44     0.229 C 
HETATM   19  O   MOL     1     -49.936  -0.397  15.697  1.00 -0.63    -0.273 OA
BRANCH  13  20
HETATM   20  N   MOL     1     -49.344  -5.987  17.133  1.00  0.04    -0.393 N 
HETATM   21  HN  MOL     1     -48.541  -6.128  16.798  1.00 -0.01     0.159 HD
BRANCH  20  22
HETATM   22  C   MOL     1     -49.572  -6.344  18.540  1.00 -0.24     0.119 C 
BRANCH  22  23
HETATM   23  C   MOL     1     -49.999  -7.804  18.757  1.00 -0.09     0.020 C 
BRANCH  23  24
HETATM   24  C   MOL     1     -51.503  -7.820  19.069  1.00 -0.19     0.002 C 
BRANCH  24  25
HETATM   25  C   MOL     1     -51.783  -7.091  20.392  1.00 -0.35     0.002 C 
BRANCH  25  26
HETATM   26  C   MOL     1     -51.686  -8.110  21.537  1.00 -0.42     0.020 C 
BRANCH  26  27
HETATM   27  C   MOL     1     -52.928  -8.016  22.434  1.00 -0.29     0.123 C 
BRANCH  27  28
HETATM   28  N   MOL     1     -53.600  -6.736  22.169  1.00 -0.04    -0.357 N 
HETATM   29  C   MOL     1     -54.008  -5.963  23.200  1.00 -0.29     0.254 C 
HETATM   30  O   MOL     1     -53.844  -6.281  24.375  1.00 -0.19    -0.268 OA
HETATM   31  HN  MOL     1     -53.714  -6.472  21.338  1.00 -0.09     0.162 HD
BRANCH  29  32
HETATM   32  C   MOL     1     -54.703  -4.671  22.940  1.00 -0.21     0.061 A 
HETATM   33  C   MOL     1     -56.067  -4.632  22.725  1.00 -0.36     0.038 A 
HETATM   34  C   MOL     1     -56.708  -3.438  22.512  1.00 -0.38     0.117 A 
HETATM   35  N   MOL     1     -56.083  -2.246  22.493  1.00 -0.12    -0.271 NA
HETATM   36  C   MOL     1     -54.758  -2.288  22.702  1.00 -0.27     0.146 A 
HETATM   37  C   MOL     1     -54.036  -3.448  22.921  1.00 -0.14     0.068 A 
BRANCH  37  38
HETATM   38  N   MOL     1     -52.650  -3.386  23.109  1.00  0.07    -0.325 N 
HETATM   39  C   MOL     1     -51.714  -3.484  22.143  1.00 -0.29     0.226 C 
HETATM   40  O   MOL     1     -51.954  -3.614  20.951  1.00 -0.10    -0.273 OA
HETATM   41  HN  MOL     1     -52.369  -3.270  23.933  1.00  0.05     0.169 HD
BRANCH  39  42
HETATM   42  C   MOL     1     -50.298  -3.385  22.673  1.00 -0.34     0.141 C 
BRANCH  42  43
HETATM   43  C   MOL     1     -49.754  -4.766  22.991  1.00 -0.21    -0.048 A 
HETATM   44  C   MOL     1     -50.106  -5.394  24.165  1.00 -0.31     0.007 A 
HETATM   45  C   MOL     1     -49.613  -6.646  24.453  1.00 -0.36     0.002 A 
HETATM   46  C   MOL     1     -48.768  -7.275  23.567  1.00 -0.30     0.024 A 
HETATM   47  C   MOL     1     -48.416  -6.650  22.392  1.00 -0.25     0.034 A 
HETATM   48 CL   MOL     1     -47.348  -7.443  21.271  1.00 -0.85    -0.084 Cl
HETATM   49  C   MOL     1     -48.910  -5.396  22.105  1.00 -0.22     0.031 A 
ENDBRANCH  42  43
ENDBRANCH  39  42
ENDBRANCH  37  38
ENDBRANCH  29  32
ENDBRANCH  27  28
ENDBRANCH  26  27
ENDBRANCH  25  26
ENDBRANCH  24  25
ENDBRANCH  23  24
ENDBRANCH  22  23
ENDBRANCH  20  22
ENDBRANCH  13  20
ENDBRANCH   5  10
TORSDOF 13
ENDMDL
MODEL 5
REMARK VINA RESULT:      -7.4      2.573      9.338
REMARK  13 active torsions:
REMARK  status: ('A' for Active; 'I' for Inactive)
REMARK    1  A    between atoms: C_5  and  N_6 
REMARK    2  A    between atoms: C_9  and  N_10 
REMARK    3  A    between atoms: N_10  and  C_11 
REMARK    4  A    between atoms: C_11  and  C_12 
REMARK    5  A    between atoms: C_12  and  C_13 
REMARK    6  A    between atoms: C_13  and  C_14 
REMARK    7  A    between atoms: C_14  and  C_15 
REMARK    8  A    between atoms: C_15  and  C_16 
REMARK    9  A    between atoms: C_16  and  N_17 
REMARK       I    between atoms: N_17  and  C_18 
REMARK   10  A    between atoms: C_18  and  C_20 
REMARK   11  A    between atoms: C_25  and  N_26 
REMARK       I    between atoms: N_26  and  C_27 
REMARK   12  A    between atoms: C_27  and  C_29 
REMARK   13  A    between atoms: C_29  and  C_30 
ROOT
HETATM    1  O   MOL     1     -42.652  -0.610  18.913  1.00 -0.03    -0.273 OA
HETATM    2  C   MOL     1     -43.845  -0.728  18.691  1.00 -0.41     0.224 C 
HETATM    3  C   MOL     1     -44.825   0.376  19.012  1.00 -0.27     0.106 C 
HETATM    4  C   MOL     1     -46.014   0.389  18.048  1.00 -0.23     0.044 C 
HETATM    5  C   MOL     1     -46.655  -0.997  18.161  1.00 -0.30     0.180 C 
HETATM    6  C   MOL     1     -45.671  -2.095  17.819  1.00 -0.49     0.247 C 
HETATM    7  O   MOL     1     -46.030  -3.133  17.289  1.00 -0.12    -0.271 OA
HETATM    8  N   MOL     1     -44.382  -1.840  18.138  1.00 -0.04    -0.296 N 
HETATM    9  HN  MOL     1     -43.811  -2.484  17.949  1.00 -0.27     0.171 HD
ENDROOT
BRANCH   5  10
HETATM   10  N   MOL     1     -47.866  -1.083  17.331  1.00  0.05    -0.337 N 
HETATM   11  C   MOL     1     -49.149  -1.577  17.857  1.00 -0.25     0.138 C 
HETATM   12  C   MOL     1     -49.628  -2.058  16.475  1.00 -0.27     0.070 C 
HETATM   13  C   MOL     1     -51.014  -2.601  16.197  1.00 -0.20     0.011 C 
HETATM   14  C   MOL     1     -49.271  -0.902  15.537  1.00 -0.40     0.112 C 
HETATM   15  C   MOL     1     -51.468  -2.613  14.933  1.00 -0.28     0.025 C 
HETATM   16  C   MOL     1     -50.630  -2.101  13.848  1.00 -0.47    -0.001 C 
HETATM   17  C   MOL     1     -49.601  -1.301  14.122  1.00 -0.52    -0.012 C 
HETATM   18  C   MOL     1     -47.864  -0.732  16.035  1.00 -0.44     0.229 C 
HETATM   19  O   MOL     1     -46.905  -0.350  15.378  1.00 -0.63    -0.273 OA
BRANCH  13  20
HETATM   20  N   MOL     1     -51.658  -3.063  17.308  1.00  0.04    -0.393 N 
HETATM   21  HN  MOL     1     -52.017  -2.476  17.858  1.00 -0.01     0.159 HD
BRANCH  20  22
HETATM   22  C   MOL     1     -52.170  -4.440  17.344  1.00 -0.24     0.119 C 
BRANCH  22  23
HETATM   23  C   MOL     1     -51.115  -5.493  17.719  1.00 -0.09     0.020 C 
BRANCH  23  24
HETATM   24  C   MOL     1     -51.837  -6.829  17.948  1.00 -0.19     0.002 C 
BRANCH  24  25
HETATM   25  C   MOL     1     -50.818  -7.954  18.189  1.00 -0.35     0.002 C 
BRANCH  25  26
HETATM   26  C   MOL     1     -50.357  -7.885  19.652  1.00 -0.42     0.020 C 
BRANCH  26  27
HETATM   27  C   MOL     1     -51.551  -8.101  20.592  1.00 -0.29     0.123 C 
BRANCH  27  28
HETATM   28  N   MOL     1     -51.400  -7.209  21.751  1.00 -0.04    -0.357 N 
HETATM   29  C   MOL     1     -51.152  -7.729  22.974  1.00 -0.29     0.254 C 
HETATM   30  O   MOL     1     -51.043  -8.936  23.174  1.00 -0.19    -0.268 OA
HETATM   31  HN  MOL     1     -51.452  -6.339  21.636  1.00 -0.09     0.162 HD
BRANCH  29  32
HETATM   32  C   MOL     1     -51.012  -6.833  24.156  1.00 -0.21     0.061 A 
HETATM   33  C   MOL     1     -52.126  -6.313  24.785  1.00 -0.36     0.038 A 
HETATM   34  C   MOL     1     -51.995  -5.509  25.889  1.00 -0.38     0.117 A 
HETATM   35  N   MOL     1     -50.811  -5.170  26.432  1.00 -0.12    -0.271 NA
HETATM   36  C   MOL     1     -49.730  -5.677  25.817  1.00 -0.27     0.146 A 
HETATM   37  C   MOL     1     -49.775  -6.492  24.699  1.00 -0.14     0.068 A 
BRANCH  37  38
HETATM   38  N   MOL     1     -48.587  -6.953  24.120  1.00  0.07    -0.325 N 
HETATM   39  C   MOL     1     -48.041  -6.510  22.970  1.00 -0.29     0.226 C 
HETATM   40  O   MOL     1     -48.502  -5.611  22.281  1.00 -0.10    -0.273 OA
HETATM   41  HN  MOL     1     -48.160  -7.589  24.552  1.00  0.05     0.169 HD
BRANCH  39  42
HETATM   42  C   MOL     1     -46.752  -7.219  22.609  1.00 -0.34     0.141 C 
BRANCH  42  43
HETATM   43  C   MOL     1     -47.009  -8.276  21.551  1.00 -0.21    -0.048 A 
HETATM   44  C   MOL     1     -46.637  -8.052  20.244  1.00 -0.31     0.007 A 
HETATM   45  C   MOL     1     -46.869  -9.012  19.285  1.00 -0.36     0.002 A 
HETATM   46  C   MOL     1     -47.474 -10.199  19.630  1.00 -0.30     0.024 A 
HETATM   47  C   MOL     1     -47.846 -10.426  20.936  1.00 -0.25     0.034 A 
HETATM   48 CL   MOL     1     -48.610 -11.926  21.374  1.00 -0.85    -0.084 Cl
HETATM   49  C   MOL     1     -47.613  -9.465  21.895  1.00 -0.22     0.031 A 
ENDBRANCH  42  43
ENDBRANCH  39  42
ENDBRANCH  37  38
ENDBRANCH  29  32
ENDBRANCH  27  28
ENDBRANCH  26  27
ENDBRANCH  25  26
ENDBRANCH  24  25
ENDBRANCH  23  24
ENDBRANCH  22  23
ENDBRANCH  20  22
ENDBRANCH  13  20
ENDBRANCH   5  10
TORSDOF 13
ENDMDL
MODEL 6
REMARK VINA RESULT:      -7.3      4.327     10.711
REMARK  13 active torsions:
REMARK  status: ('A' for Active; 'I' for Inactive)
REMARK    1  A    between atoms: C_5  and  N_6 
REMARK    2  A    between atoms: C_9  and  N_10 
REMARK    3  A    between atoms: N_10  and  C_11 
REMARK    4  A    between atoms: C_11  and  C_12 
REMARK    5  A    between atoms: C_12  and  C_13 
REMARK    6  A    between atoms: C_13  and  C_14 
REMARK    7  A    between atoms: C_14  and  C_15 
REMARK    8  A    between atoms: C_15  and  C_16 
REMARK    9  A    between atoms: C_16  and  N_17 
REMARK       I    between atoms: N_17  and  C_18 
REMARK   10  A    between atoms: C_18  and  C_20 
REMARK   11  A    between atoms: C_25  and  N_26 
REMARK       I    between atoms: N_26  and  C_27 
REMARK   12  A    between atoms: C_27  and  C_29 
REMARK   13  A    between atoms: C_29  and  C_30 
ROOT
HETATM    1  O   MOL     1     -43.270   0.377  20.040  1.00 -0.03    -0.273 OA
HETATM    2  C   MOL     1     -44.061   0.061  19.168  1.00 -0.41     0.224 C 
HETATM    3  C   MOL     1     -43.763  -1.057  18.195  1.00 -0.27     0.106 C 
HETATM    4  C   MOL     1     -45.036  -1.776  17.738  1.00 -0.23     0.044 C 
HETATM    5  C   MOL     1     -45.922  -0.694  17.115  1.00 -0.30     0.180 C 
HETATM    6  C   MOL     1     -46.230   0.410  18.102  1.00 -0.49     0.247 C 
HETATM    7  O   MOL     1     -47.288   1.015  18.075  1.00 -0.12    -0.271 OA
HETATM    8  N   MOL     1     -45.257   0.671  19.004  1.00 -0.04    -0.296 N 
HETATM    9  HN  MOL     1     -45.431   1.322  19.571  1.00 -0.27     0.171 HD
ENDROOT
BRANCH   5  10
HETATM   10  N   MOL     1     -47.153  -1.281  16.564  1.00  0.05    -0.337 N 
HETATM   11  C   MOL     1     -47.959  -2.263  17.308  1.00 -0.25     0.138 C 
HETATM   12  C   MOL     1     -48.516  -2.905  16.024  1.00 -0.27     0.070 C 
HETATM   13  C   MOL     1     -49.585  -3.978  16.004  1.00 -0.20     0.011 C 
HETATM   14  C   MOL     1     -48.895  -1.709  15.147  1.00 -0.40     0.112 C 
HETATM   15  C   MOL     1     -50.282  -4.183  14.875  1.00 -0.28     0.025 C 
HETATM   16  C   MOL     1     -50.010  -3.372  13.687  1.00 -0.47    -0.001 C 
HETATM   17  C   MOL     1     -49.362  -2.214  13.806  1.00 -0.52    -0.012 C 
HETATM   18  C   MOL     1     -47.604  -0.965  15.339  1.00 -0.44     0.229 C 
HETATM   19  O   MOL     1     -47.070  -0.220  14.529  1.00 -0.63    -0.273 OA
BRANCH  13  20
HETATM   20  N   MOL     1     -49.699  -4.663  17.179  1.00  0.04    -0.393 N 
HETATM   21  HN  MOL     1     -50.327  -4.417  17.746  1.00 -0.01     0.159 HD
BRANCH  20  22
HETATM   22  C   MOL     1     -49.170  -6.029  17.291  1.00 -0.24     0.119 C 
BRANCH  22  23
HETATM   23  C   MOL     1     -49.143  -6.576  18.727  1.00 -0.09     0.020 C 
BRANCH  23  24
HETATM   24  C   MOL     1     -50.593  -6.705  19.215  1.00 -0.19     0.002 C 
BRANCH  24  25
HETATM   25  C   MOL     1     -50.885  -8.148  19.652  1.00 -0.35     0.002 C 
BRANCH  25  26
HETATM   26  C   MOL     1     -51.014  -8.175  21.182  1.00 -0.42     0.020 C 
BRANCH  26  27
HETATM   27  C   MOL     1     -50.187  -9.331  21.762  1.00 -0.29     0.123 C 
BRANCH  27  28
HETATM   28  N   MOL     1     -49.072  -9.613  20.846  1.00 -0.04    -0.357 N 
HETATM   29  C   MOL     1     -47.810  -9.284  21.200  1.00 -0.29     0.254 C 
HETATM   30  O   MOL     1     -47.538  -8.749  22.272  1.00 -0.19    -0.268 OA
HETATM   31  HN  MOL     1     -49.233 -10.014  20.081  1.00 -0.09     0.162 HD
BRANCH  29  32
HETATM   32  C   MOL     1     -46.676  -9.554  20.272  1.00 -0.21     0.061 A 
HETATM   33  C   MOL     1     -46.131  -8.540  19.508  1.00 -0.36     0.038 A 
HETATM   34  C   MOL     1     -45.071  -8.786  18.673  1.00 -0.38     0.117 A 
HETATM   35  N   MOL     1     -44.492  -9.993  18.534  1.00 -0.12    -0.271 NA
HETATM   36  C   MOL     1     -45.024 -10.975  19.278  1.00 -0.27     0.146 A 
HETATM   37  C   MOL     1     -46.095 -10.812  20.140  1.00 -0.14     0.068 A 
BRANCH  37  38
HETATM   38  N   MOL     1     -46.588 -11.908  20.859  1.00  0.07    -0.325 N 
HETATM   39  C   MOL     1     -47.485 -12.810  20.411  1.00 -0.29     0.226 C 
HETATM   40  O   MOL     1     -47.973 -12.810  19.290  1.00 -0.10    -0.273 OA
HETATM   41  HN  MOL     1     -46.281 -12.014  21.675  1.00  0.05     0.169 HD
BRANCH  39  42
HETATM   42  C   MOL     1     -47.822 -13.875  21.435  1.00 -0.34     0.141 C 
BRANCH  42  43
HETATM   43  C   MOL     1     -46.900 -15.071  21.277  1.00 -0.21    -0.048 A 
HETATM   44  C   MOL     1     -45.746 -15.157  22.023  1.00 -0.31     0.007 A 
HETATM   45  C   MOL     1     -44.911 -16.242  21.880  1.00 -0.36     0.002 A 
HETATM   46  C   MOL     1     -45.228 -17.244  20.991  1.00 -0.30     0.024 A 
HETATM   47  C   MOL     1     -46.382 -17.161  20.245  1.00 -0.25     0.034 A 
HETATM   48 CL   MOL     1     -46.785 -18.426  19.122  1.00 -0.85    -0.084 Cl
HETATM   49  C   MOL     1     -47.217 -16.074  20.389  1.00 -0.22     0.031 A 
ENDBRANCH  42  43
ENDBRANCH  39  42
ENDBRANCH  37  38
ENDBRANCH  29  32
ENDBRANCH  27  28
ENDBRANCH  26  27
ENDBRANCH  25  26
ENDBRANCH  24  25
ENDBRANCH  23  24
ENDBRANCH  22  23
ENDBRANCH  20  22
ENDBRANCH  13  20
ENDBRANCH   5  10
TORSDOF 13
ENDMDL
MODEL 7
REMARK VINA RESULT:      -7.2      2.426      4.420
REMARK  13 active torsions:
REMARK  status: ('A' for Active; 'I' for Inactive)
REMARK    1  A    between atoms: C_5  and  N_6 
REMARK    2  A    between atoms: C_9  and  N_10 
REMARK    3  A    between atoms: N_10  and  C_11 
REMARK    4  A    between atoms: C_11  and  C_12 
REMARK    5  A    between atoms: C_12  and  C_13 
REMARK    6  A    between atoms: C_13  and  C_14 
REMARK    7  A    between atoms: C_14  and  C_15 
REMARK    8  A    between atoms: C_15  and  C_16 
REMARK    9  A    between atoms: C_16  and  N_17 
REMARK       I    between atoms: N_17  and  C_18 
REMARK   10  A    between atoms: C_18  and  C_20 
REMARK   11  A    between atoms: C_25  and  N_26 
REMARK       I    between atoms: N_26  and  C_27 
REMARK   12  A    between atoms: C_27  and  C_29 
REMARK   13  A    between atoms: C_29  and  C_30 
ROOT
HETATM    1  O   MOL     1     -43.783 -11.827  20.423  1.00 -0.03    -0.273 OA
HETATM    2  C   MOL     1     -44.840 -11.335  20.067  1.00 -0.41     0.224 C 
HETATM    3  C   MOL     1     -45.992 -12.191  19.592  1.00 -0.27     0.106 C 
HETATM    4  C   MOL     1     -47.349 -11.558  19.913  1.00 -0.23     0.044 C 
HETATM    5  C   MOL     1     -47.337 -10.185  19.236  1.00 -0.30     0.180 C 
HETATM    6  C   MOL     1     -46.191  -9.330  19.732  1.00 -0.49     0.247 C 
HETATM    7  O   MOL     1     -46.288  -8.117  19.814  1.00 -0.12    -0.271 OA
HETATM    8  N   MOL     1     -45.070 -10.002  20.075  1.00 -0.04    -0.296 N 
HETATM    9  HN  MOL     1     -44.399  -9.503  20.353  1.00 -0.27     0.171 HD
ENDROOT
BRANCH   5  10
HETATM   10  N   MOL     1     -48.629  -9.505  19.409  1.00  0.05    -0.337 N 
HETATM   11  C   MOL     1     -49.379  -8.935  18.276  1.00 -0.25     0.138 C 
HETATM   12  C   MOL     1     -50.075  -7.881  19.156  1.00 -0.27     0.070 C 
HETATM   13  C   MOL     1     -51.163  -6.949  18.667  1.00 -0.20     0.011 C 
HETATM   14  C   MOL     1     -50.512  -8.665  20.397  1.00 -0.40     0.112 C 
HETATM   15  C   MOL     1     -51.973  -6.364  19.564  1.00 -0.28     0.025 C 
HETATM   16  C   MOL     1     -51.803  -6.635  20.992  1.00 -0.47    -0.001 C 
HETATM   17  C   MOL     1     -51.121  -7.709  21.389  1.00 -0.52    -0.012 C 
HETATM   18  C   MOL     1     -49.193  -9.347  20.618  1.00 -0.44     0.229 C 
HETATM   19  O   MOL     1     -48.726  -9.688  21.695  1.00 -0.63    -0.273 OA
BRANCH  13  20
HETATM   20  N   MOL     1     -51.175  -6.780  17.313  1.00  0.04    -0.393 N 
HETATM   21  HN  MOL     1     -51.852  -7.111  16.856  1.00 -0.01     0.159 HD
BRANCH  20  22
HETATM   22  C   MOL     1     -50.398  -5.695  16.698  1.00 -0.24     0.119 C 
BRANCH  22  23
HETATM   23  C   MOL     1     -51.124  -4.975  15.550  1.00 -0.09     0.020 C 
BRANCH  23  24
HETATM   24  C   MOL     1     -51.443  -3.545  16.010  1.00 -0.19     0.002 C 
BRANCH  24  25
HETATM   25  C   MOL     1     -50.744  -2.522  15.103  1.00 -0.35     0.002 C 
BRANCH  25  26
HETATM   26  C   MOL     1     -49.843  -3.282  14.119  1.00 -0.42     0.020 C 
BRANCH  26  27
HETATM   27  C   MOL     1     -48.648  -2.408  13.714  1.00 -0.29     0.123 C 
BRANCH  27  28
HETATM   28  N   MOL     1     -47.646  -2.458  14.788  1.00 -0.04    -0.357 N 
HETATM   29  C   MOL     1     -47.146  -1.309  15.297  1.00 -0.29     0.254 C 
HETATM   30  O   MOL     1     -47.493  -0.199  14.901  1.00 -0.19    -0.268 OA
HETATM   31  HN  MOL     1     -47.393  -3.237  15.107  1.00 -0.09     0.162 HD
BRANCH  29  32
HETATM   32  C   MOL     1     -46.120  -1.352  16.377  1.00 -0.21     0.061 A 
HETATM   33  C   MOL     1     -44.792  -1.592  16.082  1.00 -0.36     0.038 A 
HETATM   34  C   MOL     1     -43.846  -1.604  17.074  1.00 -0.38     0.117 A 
HETATM   35  N   MOL     1     -44.122  -1.392  18.375  1.00 -0.12    -0.271 NA
HETATM   36  C   MOL     1     -45.414  -1.159  18.658  1.00 -0.27     0.146 A 
HETATM   37  C   MOL     1     -46.429  -1.133  17.717  1.00 -0.14     0.068 A 
BRANCH  37  38
HETATM   38  N   MOL     1     -47.750  -0.901  18.119  1.00  0.07    -0.325 N 
HETATM   39  C   MOL     1     -48.718  -1.832  18.237  1.00 -0.29     0.226 C 
HETATM   40  O   MOL     1     -48.563  -3.028  18.034  1.00 -0.10    -0.273 OA
HETATM   41  HN  MOL     1     -47.962  -0.071  18.314  1.00  0.05     0.169 HD
BRANCH  39  42
HETATM   42  C   MOL     1     -50.046  -1.258  18.688  1.00 -0.34     0.141 C 
BRANCH  42  43
HETATM   43  C   MOL     1     -50.505  -1.930  19.969  1.00 -0.21    -0.048 A 
HETATM   44  C   MOL     1     -49.636  -2.069  21.027  1.00 -0.31     0.007 A 
HETATM   45  C   MOL     1     -50.053  -2.678  22.189  1.00 -0.36     0.002 A 
HETATM   46  C   MOL     1     -51.342  -3.148  22.296  1.00 -0.30     0.024 A 
HETATM   47  C   MOL     1     -52.215  -3.009  21.240  1.00 -0.25     0.034 A 
HETATM   48 CL   MOL     1     -53.844  -3.602  21.373  1.00 -0.85    -0.084 Cl
HETATM   49  C   MOL     1     -51.796  -2.400  20.077  1.00 -0.22     0.031 A 
ENDBRANCH  42  43
ENDBRANCH  39  42
ENDBRANCH  37  38
ENDBRANCH  29  32
ENDBRANCH  27  28
ENDBRANCH  26  27
ENDBRANCH  25  26
ENDBRANCH  24  25
ENDBRANCH  23  24
ENDBRANCH  22  23
ENDBRANCH  20  22
ENDBRANCH  13  20
ENDBRANCH   5  10
TORSDOF 13
ENDMDL
MODEL 8
REMARK VINA RESULT:      -7.2      4.111      9.946
REMARK  13 active torsions:
REMARK  status: ('A' for Active; 'I' for Inactive)
REMARK    1  A    between atoms: C_5  and  N_6 
REMARK    2  A    between atoms: C_9  and  N_10 
REMARK    3  A    between atoms: N_10  and  C_11 
REMARK    4  A    between atoms: C_11  and  C_12 
REMARK    5  A    between atoms: C_12  and  C_13 
REMARK    6  A    between atoms: C_13  and  C_14 
REMARK    7  A    between atoms: C_14  and  C_15 
REMARK    8  A    between atoms: C_15  and  C_16 
REMARK    9  A    between atoms: C_16  and  N_17 
REMARK       I    between atoms: N_17  and  C_18 
REMARK   10  A    between atoms: C_18  and  C_20 
REMARK   11  A    between atoms: C_25  and  N_26 
REMARK       I    between atoms: N_26  and  C_27 
REMARK   12  A    between atoms: C_27  and  C_29 
REMARK   13  A    between atoms: C_29  and  C_30 
ROOT
HETATM    1  O   MOL     1     -42.934   0.167  19.914  1.00 -0.03    -0.273 OA
HETATM    2  C   MOL     1     -43.770  -0.145  19.084  1.00 -0.41     0.224 C 
HETATM    3  C   MOL     1     -43.548  -1.296  18.130  1.00 -0.27     0.106 C 
HETATM    4  C   MOL     1     -44.860  -1.986  17.745  1.00 -0.23     0.044 C 
HETATM    5  C   MOL     1     -45.739  -0.892  17.130  1.00 -0.30     0.180 C 
HETATM    6  C   MOL     1     -45.970   0.246  18.100  1.00 -0.49     0.247 C 
HETATM    7  O   MOL     1     -47.010   0.883  18.101  1.00 -0.12    -0.271 OA
HETATM    8  N   MOL     1     -44.953   0.499  18.954  1.00 -0.04    -0.296 N 
HETATM    9  HN  MOL     1     -45.083   1.169  19.510  1.00 -0.27     0.171 HD
ENDROOT
BRANCH   5  10
HETATM   10  N   MOL     1     -47.009  -1.453  16.647  1.00  0.05    -0.337 N 
HETATM   11  C   MOL     1     -47.748  -2.488  17.391  1.00 -0.25     0.138 C 
HETATM   12  C   MOL     1     -48.408  -3.052  16.119  1.00 -0.27     0.070 C 
HETATM   13  C   MOL     1     -49.471  -4.130  16.119  1.00 -0.20     0.011 C 
HETATM   14  C   MOL     1     -48.861  -1.805  15.354  1.00 -0.40     0.112 C 
HETATM   15  C   MOL     1     -50.258  -4.269  15.040  1.00 -0.28     0.025 C 
HETATM   16  C   MOL     1     -50.088  -3.382  13.888  1.00 -0.47    -0.001 C 
HETATM   17  C   MOL     1     -49.436  -2.229  14.027  1.00 -0.52    -0.012 C 
HETATM   18  C   MOL     1     -47.561  -1.065  15.486  1.00 -0.44     0.229 C 
HETATM   19  O   MOL     1     -47.098  -0.266  14.684  1.00 -0.63    -0.273 OA
BRANCH  13  20
HETATM   20  N   MOL     1     -49.486  -4.888  17.253  1.00  0.04    -0.393 N 
HETATM   21  HN  MOL     1     -48.718  -5.064  17.649  1.00 -0.01     0.159 HD
BRANCH  20  22
HETATM   22  C   MOL     1     -50.711  -4.987  18.059  1.00 -0.24     0.119 C 
BRANCH  22  23
HETATM   23  C   MOL     1     -51.626  -6.158  17.668  1.00 -0.09     0.020 C 
BRANCH  23  24
HETATM   24  C   MOL     1     -51.516  -7.234  18.759  1.00 -0.19     0.002 C 
BRANCH  24  25
HETATM   25  C   MOL     1     -51.978  -6.674  20.112  1.00 -0.35     0.002 C 
BRANCH  25  26
HETATM   26  C   MOL     1     -51.656  -7.709  21.200  1.00 -0.42     0.020 C 
BRANCH  26  27
HETATM   27  C   MOL     1     -50.519  -8.629  20.734  1.00 -0.29     0.123 C 
BRANCH  27  28
HETATM   28  N   MOL     1     -49.351  -8.403  21.597  1.00 -0.04    -0.357 N 
HETATM   29  C   MOL     1     -48.298  -7.693  21.133  1.00 -0.29     0.254 C 
HETATM   30  O   MOL     1     -48.263  -7.216  20.002  1.00 -0.19    -0.268 OA
HETATM   31  HN  MOL     1     -49.355  -8.715  22.419  1.00 -0.09     0.162 HD
BRANCH  29  32
HETATM   32  C   MOL     1     -47.104  -7.472  21.997  1.00 -0.21     0.061 A 
HETATM   33  C   MOL     1     -47.167  -6.625  23.087  1.00 -0.36     0.038 A 
HETATM   34  C   MOL     1     -46.075  -6.442  23.895  1.00 -0.38     0.117 A 
HETATM   35  N   MOL     1     -44.890  -7.052  23.702  1.00 -0.12    -0.271 NA
HETATM   36  C   MOL     1     -44.832  -7.874  22.642  1.00 -0.27     0.146 A 
HETATM   37  C   MOL     1     -45.886  -8.110  21.776  1.00 -0.14     0.068 A 
BRANCH  37  38
HETATM   38  N   MOL     1     -45.717  -8.972  20.686  1.00  0.07    -0.325 N 
HETATM   39  C   MOL     1     -45.888 -10.310  20.700  1.00 -0.29     0.226 C 
HETATM   40  O   MOL     1     -46.246 -10.956  21.674  1.00 -0.10    -0.273 OA
HETATM   41  HN  MOL     1     -45.481  -8.603  19.925  1.00  0.05     0.169 HD
BRANCH  39  42
HETATM   42  C   MOL     1     -45.620 -10.959  19.358  1.00 -0.34     0.141 C 
BRANCH  42  43
HETATM   43  C   MOL     1     -44.203 -11.501  19.305  1.00 -0.21    -0.048 A 
HETATM   44  C   MOL     1     -43.243 -10.856  18.558  1.00 -0.31     0.007 A 
HETATM   45  C   MOL     1     -41.958 -11.346  18.512  1.00 -0.36     0.002 A 
HETATM   46  C   MOL     1     -41.629 -12.484  19.213  1.00 -0.30     0.024 A 
HETATM   47  C   MOL     1     -42.586 -13.130  19.963  1.00 -0.25     0.034 A 
HETATM   48 CL   MOL     1     -42.173 -14.567  20.850  1.00 -0.85    -0.084 Cl
HETATM   49  C   MOL     1     -43.872 -12.638  20.008  1.00 -0.22     0.031 A 
ENDBRANCH  42  43
ENDBRANCH  39  42
ENDBRANCH  37  38
ENDBRANCH  29  32
ENDBRANCH  27  28
ENDBRANCH  26  27
ENDBRANCH  25  26
ENDBRANCH  24  25
ENDBRANCH  23  24
ENDBRANCH  22  23
ENDBRANCH  20  22
ENDBRANCH  13  20
ENDBRANCH   5  10
TORSDOF 13
ENDMDL
MODEL 9
REMARK VINA RESULT:      -7.2      6.730     10.420
REMARK  13 active torsions:
REMARK  status: ('A' for Active; 'I' for Inactive)
REMARK    1  A    between atoms: C_5  and  N_6 
REMARK    2  A    between atoms: C_9  and  N_10 
REMARK    3  A    between atoms: N_10  and  C_11 
REMARK    4  A    between atoms: C_11  and  C_12 
REMARK    5  A    between atoms: C_12  and  C_13 
REMARK    6  A    between atoms: C_13  and  C_14 
REMARK    7  A    between atoms: C_14  and  C_15 
REMARK    8  A    between atoms: C_15  and  C_16 
REMARK    9  A    between atoms: C_16  and  N_17 
REMARK       I    between atoms: N_17  and  C_18 
REMARK   10  A    between atoms: C_18  and  C_20 
REMARK   11  A    between atoms: C_25  and  N_26 
REMARK       I    between atoms: N_26  and  C_27 
REMARK   12  A    between atoms: C_27  and  C_29 
REMARK   13  A    between atoms: C_29  and  C_30 
ROOT
HETATM    1  O   MOL     1     -48.888 -13.916  29.631  1.00 -0.03    -0.273 OA
HETATM    2  C   MOL     1     -48.510 -14.702  28.779  1.00 -0.41     0.224 C 
HETATM    3  C   MOL     1     -49.472 -15.325  27.793  1.00 -0.27     0.106 C 
HETATM    4  C   MOL     1     -48.804 -15.621  26.447  1.00 -0.23     0.044 C 
HETATM    5  C   MOL     1     -47.626 -16.548  26.764  1.00 -0.30     0.180 C 
HETATM    6  C   MOL     1     -46.660 -15.907  27.736  1.00 -0.49     0.247 C 
HETATM    7  O   MOL     1     -45.464 -16.138  27.694  1.00 -0.12    -0.271 OA
HETATM    8  N   MOL     1     -47.216 -15.071  28.642  1.00 -0.04    -0.296 N 
HETATM    9  HN  MOL     1     -46.655 -14.707  29.216  1.00 -0.27     0.171 HD
ENDROOT
BRANCH   5  10
HETATM   10  N   MOL     1     -46.946 -16.968  25.529  1.00  0.05    -0.337 N 
HETATM   11  C   MOL     1     -46.256 -16.014  24.645  1.00 -0.25     0.138 C 
HETATM   12  C   MOL     1     -46.463 -16.891  23.396  1.00 -0.27     0.070 C 
HETATM   13  C   MOL     1     -45.868 -16.589  22.037  1.00 -0.20     0.011 C 
HETATM   14  C   MOL     1     -46.108 -18.302  23.873  1.00 -0.40     0.112 C 
HETATM   15  C   MOL     1     -45.760 -17.580  21.138  1.00 -0.28     0.025 C 
HETATM   16  C   MOL     1     -46.208 -18.932  21.478  1.00 -0.47    -0.001 C 
HETATM   17  C   MOL     1     -46.373 -19.276  22.754  1.00 -0.52    -0.012 C 
HETATM   18  C   MOL     1     -46.930 -18.249  25.128  1.00 -0.44     0.229 C 
HETATM   19  O   MOL     1     -47.481 -19.196  25.673  1.00 -0.63    -0.273 OA
BRANCH  13  20
HETATM   20  N   MOL     1     -45.523 -15.280  21.866  1.00  0.04    -0.393 N 
HETATM   21  HN  MOL     1     -45.807 -14.692  22.457  1.00 -0.01     0.159 HD
BRANCH  20  22
HETATM   22  C   MOL     1     -44.349 -14.926  21.056  1.00 -0.24     0.119 C 
BRANCH  22  23
HETATM   23  C   MOL     1     -44.531 -13.661  20.203  1.00 -0.09     0.020 C 
BRANCH  23  24
HETATM   24  C   MOL     1     -45.956 -13.134  20.430  1.00 -0.19     0.002 C 
BRANCH  24  25
HETATM   25  C   MOL     1     -46.736 -13.110  19.108  1.00 -0.35     0.002 C 
BRANCH  25  26
HETATM   26  C   MOL     1     -48.175 -12.663  19.402  1.00 -0.42     0.020 C 
BRANCH  26  27
HETATM   27  C   MOL     1     -48.290 -12.176  20.853  1.00 -0.29     0.123 C 
BRANCH  27  28
HETATM   28  N   MOL     1     -48.781 -10.790  20.844  1.00 -0.04    -0.357 N 
HETATM   29  C   MOL     1     -49.510 -10.326  21.883  1.00 -0.29     0.254 C 
HETATM   30  O   MOL     1     -49.792 -11.017  22.859  1.00 -0.19    -0.268 OA
HETATM   31  HN  MOL     1     -48.578 -10.265  20.168  1.00 -0.09     0.162 HD
BRANCH  29  32
HETATM   32  C   MOL     1     -50.023  -8.927  21.875  1.00 -0.21     0.061 A 
HETATM   33  C   MOL     1     -51.369  -8.669  21.709  1.00 -0.36     0.038 A 
HETATM   34  C   MOL     1     -51.842  -7.381  21.727  1.00 -0.38     0.117 A 
HETATM   35  N   MOL     1     -51.060  -6.299  21.902  1.00 -0.12    -0.271 NA
HETATM   36  C   MOL     1     -49.752  -6.554  22.063  1.00 -0.27     0.146 A 
HETATM   37  C   MOL     1     -49.195  -7.822  22.053  1.00 -0.14     0.068 A 
BRANCH  37  38
HETATM   38  N   MOL     1     -47.812  -7.980  22.210  1.00  0.07    -0.325 N 
HETATM   39  C   MOL     1     -46.874  -7.724  21.275  1.00 -0.29     0.226 C 
HETATM   40  O   MOL     1     -47.106  -7.286  20.158  1.00 -0.10    -0.273 OA
HETATM   41  HN  MOL     1     -47.536  -8.270  22.991  1.00  0.05     0.169 HD
BRANCH  39  42
HETATM   42  C   MOL     1     -45.464  -8.005  21.753  1.00 -0.34     0.141 C 
BRANCH  42  43
HETATM   43  C   MOL     1     -44.724  -8.861  20.743  1.00 -0.21    -0.048 A 
HETATM   44  C   MOL     1     -45.359  -9.283  19.596  1.00 -0.31     0.007 A 
HETATM   45  C   MOL     1     -44.686 -10.060  18.680  1.00 -0.36     0.002 A 
HETATM   46  C   MOL     1     -43.376 -10.416  18.907  1.00 -0.30     0.024 A 
HETATM   47  C   MOL     1     -42.738  -9.994  20.052  1.00 -0.25     0.034 A 
HETATM   48 CL   MOL     1     -41.083 -10.442  20.342  1.00 -0.85    -0.084 Cl
HETATM   49  C   MOL     1     -43.413  -9.217  20.969  1.00 -0.22     0.031 A 
ENDBRANCH  42  43
ENDBRANCH  39  42
ENDBRANCH  37  38
ENDBRANCH  29  32
ENDBRANCH  27  28
ENDBRANCH  26  27
ENDBRANCH  25  26
ENDBRANCH  24  25
ENDBRANCH  23  24
ENDBRANCH  22  23
ENDBRANCH  20  22
ENDBRANCH  13  20
ENDBRANCH   5  10
TORSDOF 13
ENDMDL
MODEL 10
REMARK VINA RESULT:      -7.2      2.532      8.692
REMARK  13 active torsions:
REMARK  status: ('A' for Active; 'I' for Inactive)
REMARK    1  A    between atoms: C_5  and  N_6 
REMARK    2  A    between atoms: C_9  and  N_10 
REMARK    3  A    between atoms: N_10  and  C_11 
REMARK    4  A    between atoms: C_11  and  C_12 
REMARK    5  A    between atoms: C_12  and  C_13 
REMARK    6  A    between atoms: C_13  and  C_14 
REMARK    7  A    between atoms: C_14  and  C_15 
REMARK    8  A    between atoms: C_15  and  C_16 
REMARK    9  A    between atoms: C_16  and  N_17 
REMARK       I    between atoms: N_17  and  C_18 
REMARK   10  A    between atoms: C_18  and  C_20 
REMARK   11  A    between atoms: C_25  and  N_26 
REMARK       I    between atoms: N_26  and  C_27 
REMARK   12  A    between atoms: C_27  and  C_29 
REMARK   13  A    between atoms: C_29  and  C_30 
ROOT
HETATM    1  O   MOL     1     -42.902   0.430  19.224  1.00 -0.03    -0.273 OA
HETATM    2  C   MOL     1     -43.813   0.004  18.536  1.00 -0.41     0.224 C 
HETATM    3  C   MOL     1     -43.630  -1.189  17.626  1.00 -0.27     0.106 C 
HETATM    4  C   MOL     1     -44.922  -1.995  17.466  1.00 -0.23     0.044 C 
HETATM    5  C   MOL     1     -45.960  -1.010  16.919  1.00 -0.30     0.180 C 
HETATM    6  C   MOL     1     -46.150   0.170  17.847  1.00 -0.49     0.247 C 
HETATM    7  O   MOL     1     -47.228   0.729  17.957  1.00 -0.12    -0.271 OA
HETATM    8  N   MOL     1     -45.051   0.551  18.536  1.00 -0.04    -0.296 N 
HETATM    9  HN  MOL     1     -45.158   1.245  19.067  1.00 -0.27     0.171 HD
ENDROOT
BRANCH   5  10
HETATM   10  N   MOL     1     -47.235  -1.692  16.649  1.00  0.05    -0.337 N 
HETATM   11  C   MOL     1     -47.721  -2.811  17.473  1.00 -0.25     0.138 C 
HETATM   12  C   MOL     1     -48.539  -3.418  16.319  1.00 -0.27     0.070 C 
HETATM   13  C   MOL     1     -49.472  -4.600  16.468  1.00 -0.20     0.011 C 
HETATM   14  C   MOL     1     -49.245  -2.212  15.692  1.00 -0.40     0.112 C 
HETATM   15  C   MOL     1     -50.423  -4.801  15.542  1.00 -0.28     0.025 C 
HETATM   16  C   MOL     1     -50.552  -3.881  14.411  1.00 -0.47    -0.001 C 
HETATM   17  C   MOL     1     -50.004  -2.669  14.473  1.00 -0.52    -0.012 C 
HETATM   18  C   MOL     1     -48.022  -1.342  15.619  1.00 -0.44     0.229 C 
HETATM   19  O   MOL     1     -47.793  -0.485  14.777  1.00 -0.63    -0.273 OA
BRANCH  13  20
HETATM   20  N   MOL     1     -49.207  -5.377  17.558  1.00  0.04    -0.393 N 
HETATM   21  HN  MOL     1     -48.597  -5.100  18.130  1.00 -0.01     0.159 HD
BRANCH  20  22
HETATM   22  C   MOL     1     -50.205  -6.344  18.035  1.00 -0.24     0.119 C 
BRANCH  22  23
HETATM   23  C   MOL     1     -49.767  -7.812  17.910  1.00 -0.09     0.020 C 
BRANCH  23  24
HETATM   24  C   MOL     1     -49.882  -8.464  19.296  1.00 -0.19     0.002 C 
BRANCH  24  25
HETATM   25  C   MOL     1     -50.845  -7.665  20.186  1.00 -0.35     0.002 C 
BRANCH  25  26
HETATM   26  C   MOL     1     -51.436  -8.616  21.237  1.00 -0.42     0.020 C 
BRANCH  26  27
HETATM   27  C   MOL     1     -51.802  -7.836  22.508  1.00 -0.29     0.123 C 
BRANCH  27  28
HETATM   28  N   MOL     1     -52.895  -6.906  22.186  1.00 -0.04    -0.357 N 
HETATM   29  C   MOL     1     -52.887  -5.654  22.697  1.00 -0.29     0.254 C 
HETATM   30  O   MOL     1     -51.994  -5.242  23.434  1.00 -0.19    -0.268 OA
HETATM   31  HN  MOL     1     -53.537  -7.165  21.645  1.00 -0.09     0.162 HD
BRANCH  29  32
HETATM   32  C   MOL     1     -53.997  -4.710  22.387  1.00 -0.21     0.061 A 
HETATM   33  C   MOL     1     -55.280  -4.957  22.835  1.00 -0.36     0.038 A 
HETATM   34  C   MOL     1     -56.295  -4.073  22.570  1.00 -0.38     0.117 A 
HETATM   35  N   MOL     1     -56.132  -2.932  21.876  1.00 -0.12    -0.271 NA
HETATM   36  C   MOL     1     -54.884  -2.696  21.442  1.00 -0.27     0.146 A 
HETATM   37  C   MOL     1     -53.806  -3.536  21.663  1.00 -0.14     0.068 A 
BRANCH  37  38
HETATM   38  N   MOL     1     -52.545  -3.208  21.150  1.00  0.07    -0.325 N 
HETATM   39  C   MOL     1     -52.078  -3.533  19.927  1.00 -0.29     0.226 C 
HETATM   40  O   MOL     1     -52.712  -4.143  19.079  1.00 -0.10    -0.273 OA
HETATM   41  HN  MOL     1     -52.015  -2.745  21.676  1.00  0.05     0.169 HD
BRANCH  39  42
HETATM   42  C   MOL     1     -50.669  -3.035  19.676  1.00 -0.34     0.141 C 
BRANCH  42  43
HETATM   43  C   MOL     1     -50.665  -1.529  19.490  1.00 -0.21    -0.048 A 
HETATM   44  C   MOL     1     -51.356  -0.960  18.443  1.00 -0.31     0.007 A 
HETATM   45  C   MOL     1     -51.353   0.406  18.275  1.00 -0.36     0.002 A 
HETATM   46  C   MOL     1     -50.659   1.207  19.154  1.00 -0.30     0.024 A 
HETATM   47  C   MOL     1     -49.969   0.641  20.202  1.00 -0.25     0.034 A 
HETATM   48 CL   MOL     1     -49.092   1.651  21.313  1.00 -0.85    -0.084 Cl
HETATM   49  C   MOL     1     -49.972  -0.727  20.369  1.00 -0.22     0.031 A 
ENDBRANCH  42  43
ENDBRANCH  39  42
ENDBRANCH  37  38
ENDBRANCH  29  32
ENDBRANCH  27  28
ENDBRANCH  26  27
ENDBRANCH  25  26
ENDBRANCH  24  25
ENDBRANCH  23  24
ENDBRANCH  22  23
ENDBRANCH  20  22
ENDBRANCH  13  20
ENDBRANCH   5  10
TORSDOF 13
ENDMDL
