MODEL 1
REMARK VINA RESULT:      -8.5      0.000      0.000
REMARK  16 active torsions:
REMARK  status: ('A' for Active; 'I' for Inactive)
REMARK    1  A    between atoms: N_3  and  C_13 
REMARK    2  A    between atoms: C_6  and  C_37 
REMARK    3  A    between atoms: C_13  and  C_14 
REMARK    4  A    between atoms: C_13  and  C_17 
REMARK       I    between atoms: C_14  and  N_15 
REMARK    5  A    between atoms: N_15  and  C_16 
REMARK    6  A    between atoms: C_16  and  C_27 
REMARK    7  A    between atoms: C_16  and  C_28 
REMARK    8  A    between atoms: C_25  and  C_27 
REMARK    9  A    between atoms: C_28  and  C_29 
REMARK   10  A    between atoms: C_29  and  C_30 
REMARK   11  A    between atoms: C_29  and  O_36 
REMARK   12  A    between atoms: C_30  and  N_31 
REMARK   13  A    between atoms: C_30  and  C_37 
REMARK       I    between atoms: N_31  and  C_32 
REMARK   14  A    between atoms: C_32  and  C_33 
REMARK   15  A    between atoms: C_33  and  O_34 
REMARK   16  A    between atoms: O_34  and  C_35 
ROOT
HETATM    1  C   UNK     0     -50.046  -9.277  21.749  0.00  0.00     0.126 C 
HETATM    2  C   UNK     0     -47.769 -10.326  21.639  0.00  0.00     0.130 C 
HETATM    3  N   UNK     0     -47.795 -10.126  20.144  0.00  0.00    -0.320 N 
HETATM    4  C   UNK     0     -48.884  -9.541  19.513  0.00  0.00     0.319 C 
HETATM    5  N   UNK     0     -49.937  -9.143  20.283  0.00  0.00    -0.343 N 
HETATM    6  O   UNK     0     -48.922  -9.376  18.306  0.00  0.00    -0.247 OA
HETATM    7  C   UNK     0     -48.668  -9.344  22.419  0.00  0.00     0.040 C 
HETATM    8  H   UNK     0     -50.685  -8.723  19.731  0.00  0.00     0.164 HD
ENDROOT
BRANCH   3   9
HETATM    9  C   UNK     0     -46.626 -10.574  19.308  0.00  0.00     0.184 C 
BRANCH   9  10
HETATM   10  C   UNK     0     -46.477 -12.115  19.423  0.00  0.00     0.241 C 
HETATM   11  N   UNK     0     -45.311 -12.490  20.036  0.00  0.00    -0.354 N 
HETATM   12  H   UNK     0     -44.729 -11.700  20.316  0.00  0.00     0.162 HD
HETATM   13  O   UNK     0     -47.338 -12.884  18.993  0.00  0.00    -0.271 OA
BRANCH  11  14
HETATM   14  C   UNK     0     -44.900 -13.889  20.285  0.00  0.00     0.091 C 
BRANCH  14  15
HETATM   15  C   UNK     0     -43.364 -13.990  20.436  0.00  0.00     0.063 C 
BRANCH  15  16
HETATM   16  C   UNK     0     -42.577 -12.711  20.472  0.00  0.00    -0.056 A 
HETATM   17  C   UNK     0     -41.772 -12.334  19.363  0.00  0.00     0.007 A 
HETATM   18  C   UNK     0     -41.027 -11.133  19.385  0.00  0.00     0.001 A 
HETATM   19  C   UNK     0     -41.082 -10.292  20.521  0.00  0.00     0.000 A 
HETATM   20  C   UNK     0     -41.882 -10.659  21.629  0.00  0.00     0.001 A 
HETATM   21  C   UNK     0     -42.626 -11.863  21.603  0.00  0.00     0.007 A 
ENDBRANCH  15  16
ENDBRANCH  14  15
BRANCH  14  22
HETATM   22  C   UNK     0     -45.501 -14.429  21.601  0.00  0.00     0.059 C 
BRANCH  22  23
HETATM   23  C   UNK     0     -46.925 -15.016  21.610  0.00  0.00     0.143 C 
BRANCH  23  24
HETATM   24  C   UNK     0     -47.060 -16.535  21.886  0.00  0.00     0.117 C 
BRANCH  24  25
HETATM   25  N   UNK     0     -47.882 -16.713  23.106  0.00  0.00    -0.352 N 
HETATM   26  C   UNK     0     -47.473 -17.410  24.213  0.00  0.00     0.242 C 
HETATM   27  O   UNK     0     -46.376 -17.966  24.335  0.00  0.00    -0.271 OA
HETATM   28  H   UNK     0     -48.819 -16.319  23.190  0.00  0.00     0.163 HD
BRANCH  26  29
HETATM   29  C   UNK     0     -48.515 -17.478  25.347  0.00  0.00     0.278 C 
BRANCH  29  30
HETATM   30  O   UNK     0     -47.894 -17.530  26.644  0.00  0.00    -0.341 OA
BRANCH  30  31
HETATM   31  C   UNK     0     -47.978 -16.324  27.366  0.00  0.00     0.081 A 
HETATM   32  C   UNK     0     -49.236 -15.804  27.831  0.00  0.00    -0.028 A 
HETATM   33  C   UNK     0     -49.255 -14.583  28.556  0.00  0.00     0.009 A 
HETATM   34  C   UNK     0     -50.546 -16.512  27.577  0.00  0.00     0.051 C 
HETATM   35  C   UNK     0     -48.060 -13.882  28.826  0.00  0.00     0.001 A 
HETATM   36  C   UNK     0     -46.822 -14.384  28.377  0.00  0.00     0.009 A 
HETATM   37  C   UNK     0     -46.766 -15.598  27.651  0.00  0.00    -0.028 A 
HETATM   38  C   UNK     0     -45.439 -16.102  27.194  0.00  0.00     0.051 C 
ENDBRANCH  30  31
ENDBRANCH  29  30
ENDBRANCH  26  29
ENDBRANCH  24  25
BRANCH  24  39
HETATM   39  C   UNK     0     -47.764 -17.252  20.696  0.00  0.00     0.066 C 
BRANCH  39  40
HETATM   40  C   UNK     0     -46.873 -18.191  19.906  0.00  0.00    -0.056 A 
HETATM   41  C   UNK     0     -47.074 -18.349  18.513  0.00  0.00     0.007 A 
HETATM   42  C   UNK     0     -46.257 -19.225  17.755  0.00  0.00     0.001 A 
HETATM   43  C   UNK     0     -45.229 -19.952  18.384  0.00  0.00     0.000 A 
HETATM   44  C   UNK     0     -45.020 -19.802  19.773  0.00  0.00     0.001 A 
HETATM   45  C   UNK     0     -45.835 -18.928  20.530  0.00  0.00     0.007 A 
ENDBRANCH  39  40
ENDBRANCH  24  39
ENDBRANCH  23  24
BRANCH  23  46
HETATM   46  O   UNK     0     -47.611 -14.343  22.639  0.00  0.00    -0.393 OA
HETATM   47  H   UNK     0     -47.408 -14.816  23.438  0.00  0.00     0.210 HD
ENDBRANCH  23  46
ENDBRANCH  22  23
ENDBRANCH  14  22
ENDBRANCH  11  14
ENDBRANCH   9  10
BRANCH   9  48
HETATM   48  C   UNK     0     -45.297  -9.813  19.698  0.00  0.00     0.010 C 
HETATM   49  C   UNK     0     -44.313  -9.656  18.523  0.00  0.00     0.012 C 
HETATM   50  C   UNK     0     -45.613  -8.409  20.263  0.00  0.00     0.012 C 
ENDBRANCH   9  48
ENDBRANCH   3   9
TORSDOF 16
ENDMDL
MODEL 2
REMARK VINA RESULT:      -8.0      6.901     13.914
REMARK  16 active torsions:
REMARK  status: ('A' for Active; 'I' for Inactive)
REMARK    1  A    between atoms: N_3  and  C_13 
REMARK    2  A    between atoms: C_6  and  C_37 
REMARK    3  A    between atoms: C_13  and  C_14 
REMARK    4  A    between atoms: C_13  and  C_17 
REMARK       I    between atoms: C_14  and  N_15 
REMARK    5  A    between atoms: N_15  and  C_16 
REMARK    6  A    between atoms: C_16  and  C_27 
REMARK    7  A    between atoms: C_16  and  C_28 
REMARK    8  A    between atoms: C_25  and  C_27 
REMARK    9  A    between atoms: C_28  and  C_29 
REMARK   10  A    between atoms: C_29  and  C_30 
REMARK   11  A    between atoms: C_29  and  O_36 
REMARK   12  A    between atoms: C_30  and  N_31 
REMARK   13  A    between atoms: C_30  and  C_37 
REMARK       I    between atoms: N_31  and  C_32 
REMARK   14  A    between atoms: C_32  and  C_33 
REMARK   15  A    between atoms: C_33  and  O_34 
REMARK   16  A    between atoms: O_34  and  C_35 
ROOT
HETATM    1  C   UNK     0     -44.899  -9.897  19.320  0.00  0.00     0.126 C 
HETATM    2  C   UNK     0     -46.800  -8.272  19.520  0.00  0.00     0.130 C 
HETATM    3  N   UNK     0     -47.746  -9.448  19.564  0.00  0.00    -0.320 N 
HETATM    4  C   UNK     0     -47.277 -10.753  19.487  0.00  0.00     0.319 C 
HETATM    5  N   UNK     0     -45.933 -10.949  19.374  0.00  0.00    -0.343 N 
HETATM    6  O   UNK     0     -48.028 -11.713  19.516  0.00  0.00    -0.247 OA
HETATM    7  C   UNK     0     -45.368  -8.602  19.992  0.00  0.00     0.040 C 
HETATM    8  H   UNK     0     -45.687 -11.938  19.328  0.00  0.00     0.164 HD
ENDROOT
BRANCH   3   9
HETATM    9  C   UNK     0     -49.227  -9.214  19.685  0.00  0.00     0.184 C 
BRANCH   9  10
HETATM   10  C   UNK     0     -49.731  -8.467  18.420  0.00  0.00     0.241 C 
HETATM   11  N   UNK     0     -50.260  -7.238  18.707  0.00  0.00    -0.354 N 
HETATM   12  H   UNK     0     -50.241  -7.011  19.702  0.00  0.00     0.162 HD
HETATM   13  O   UNK     0     -49.646  -8.965  17.296  0.00  0.00    -0.271 OA
BRANCH  11  14
HETATM   14  C   UNK     0     -50.815  -6.302  17.704  0.00  0.00     0.091 C 
BRANCH  14  15
HETATM   15  C   UNK     0     -51.639  -5.188  18.391  0.00  0.00     0.063 C 
BRANCH  15  16
HETATM   16  C   UNK     0     -51.410  -4.950  19.857  0.00  0.00    -0.056 A 
HETATM   17  C   UNK     0     -52.364  -5.395  20.813  0.00  0.00     0.007 A 
HETATM   18  C   UNK     0     -52.159  -5.176  22.194  0.00  0.00     0.001 A 
HETATM   19  C   UNK     0     -50.994  -4.508  22.636  0.00  0.00     0.000 A 
HETATM   20  C   UNK     0     -50.039  -4.062  21.691  0.00  0.00     0.001 A 
HETATM   21  C   UNK     0     -50.248  -4.283  20.308  0.00  0.00     0.007 A 
ENDBRANCH  15  16
ENDBRANCH  14  15
BRANCH  14  22
HETATM   22  C   UNK     0     -49.696  -5.589  16.915  0.00  0.00     0.059 C 
BRANCH  22  23
HETATM   23  C   UNK     0     -50.025  -4.342  16.075  0.00  0.00     0.143 C 
BRANCH  23  24
HETATM   24  C   UNK     0     -49.065  -3.131  16.204  0.00  0.00     0.117 C 
BRANCH  24  25
HETATM   25  N   UNK     0     -49.700  -2.129  17.091  0.00  0.00    -0.352 N 
HETATM   26  C   UNK     0     -50.062  -0.868  16.691  0.00  0.00     0.242 C 
HETATM   27  O   UNK     0     -49.911  -0.416  15.551  0.00  0.00    -0.271 OA
HETATM   28  H   UNK     0     -49.908  -2.325  18.070  0.00  0.00     0.163 HD
BRANCH  26  29
HETATM   29  C   UNK     0     -50.682   0.002  17.802  0.00  0.00     0.278 C 
BRANCH  29  30
HETATM   30  O   UNK     0     -49.926  -0.070  19.024  0.00  0.00    -0.341 OA
BRANCH  30  31
HETATM   31  C   UNK     0     -49.402   1.166  19.447  0.00  0.00     0.081 A 
HETATM   32  C   UNK     0     -48.078   1.593  19.079  0.00  0.00    -0.028 A 
HETATM   33  C   UNK     0     -47.606   2.852  19.535  0.00  0.00     0.009 A 
HETATM   34  C   UNK     0     -47.166   0.748  18.221  0.00  0.00     0.051 C 
HETATM   35  C   UNK     0     -48.416   3.684  20.336  0.00  0.00     0.001 A 
HETATM   36  C   UNK     0     -49.716   3.276  20.700  0.00  0.00     0.009 A 
HETATM   37  C   UNK     0     -50.219   2.027  20.264  0.00  0.00    -0.028 A 
HETATM   38  C   UNK     0     -51.599   1.627  20.664  0.00  0.00     0.051 C 
ENDBRANCH  30  31
ENDBRANCH  29  30
ENDBRANCH  26  29
ENDBRANCH  24  25
BRANCH  24  39
HETATM   39  C   UNK     0     -47.708  -3.568  16.830  0.00  0.00     0.066 C 
BRANCH  39  40
HETATM   40  C   UNK     0     -46.559  -2.608  16.585  0.00  0.00    -0.056 A 
HETATM   41  C   UNK     0     -45.452  -2.591  17.467  0.00  0.00     0.007 A 
HETATM   42  C   UNK     0     -44.370  -1.700  17.261  0.00  0.00     0.001 A 
HETATM   43  C   UNK     0     -44.384  -0.815  16.166  0.00  0.00     0.000 A 
HETATM   44  C   UNK     0     -45.483  -0.824  15.279  0.00  0.00     0.001 A 
HETATM   45  C   UNK     0     -46.563  -1.713  15.485  0.00  0.00     0.007 A 
ENDBRANCH  39  40
ENDBRANCH  24  39
ENDBRANCH  23  24
BRANCH  23  46
HETATM   46  O   UNK     0     -49.987  -4.761  14.732  0.00  0.00    -0.393 OA
HETATM   47  H   UNK     0     -50.410  -4.071  14.233  0.00  0.00     0.210 HD
ENDBRANCH  23  46
ENDBRANCH  22  23
ENDBRANCH  14  22
ENDBRANCH  11  14
ENDBRANCH   9  10
BRANCH   9  48
HETATM   48  C   UNK     0     -49.596  -8.450  21.018  0.00  0.00     0.010 C 
HETATM   49  C   UNK     0     -51.036  -8.716  21.498  0.00  0.00     0.012 C 
HETATM   50  C   UNK     0     -48.622  -8.830  22.157  0.00  0.00     0.012 C 
ENDBRANCH   9  48
ENDBRANCH   3   9
TORSDOF 16
ENDMDL
MODEL 3
REMARK VINA RESULT:      -8.0      2.379      8.896
REMARK  16 active torsions:
REMARK  status: ('A' for Active; 'I' for Inactive)
REMARK    1  A    between atoms: N_3  and  C_13 
REMARK    2  A    between atoms: C_6  and  C_37 
REMARK    3  A    between atoms: C_13  and  C_14 
REMARK    4  A    between atoms: C_13  and  C_17 
REMARK       I    between atoms: C_14  and  N_15 
REMARK    5  A    between atoms: N_15  and  C_16 
REMARK    6  A    between atoms: C_16  and  C_27 
REMARK    7  A    between atoms: C_16  and  C_28 
REMARK    8  A    between atoms: C_25  and  C_27 
REMARK    9  A    between atoms: C_28  and  C_29 
REMARK   10  A    between atoms: C_29  and  C_30 
REMARK   11  A    between atoms: C_29  and  O_36 
REMARK   12  A    between atoms: C_30  and  N_31 
REMARK   13  A    between atoms: C_30  and  C_37 
REMARK       I    between atoms: N_31  and  C_32 
REMARK   14  A    between atoms: C_32  and  C_33 
REMARK   15  A    between atoms: C_33  and  O_34 
REMARK   16  A    between atoms: O_34  and  C_35 
ROOT
HETATM    1  C   UNK     0     -48.030 -15.989  27.995  0.00  0.00     0.126 C 
HETATM    2  C   UNK     0     -48.211 -15.750  25.504  0.00  0.00     0.130 C 
HETATM    3  N   UNK     0     -46.908 -16.501  25.379  0.00  0.00    -0.320 N 
HETATM    4  C   UNK     0     -46.227 -16.954  26.500  0.00  0.00     0.319 C 
HETATM    5  N   UNK     0     -46.768 -16.707  27.727  0.00  0.00    -0.343 N 
HETATM    6  O   UNK     0     -45.171 -17.558  26.416  0.00  0.00    -0.247 OA
HETATM    7  C   UNK     0     -48.989 -16.057  26.801  0.00  0.00     0.040 C 
HETATM    8  H   UNK     0     -46.199 -17.081  28.486  0.00  0.00     0.164 HD
ENDROOT
BRANCH   3   9
HETATM    9  C   UNK     0     -46.322 -16.762  24.018  0.00  0.00     0.184 C 
BRANCH   9  10
HETATM   10  C   UNK     0     -45.898 -15.412  23.376  0.00  0.00     0.241 C 
HETATM   11  N   UNK     0     -46.707 -15.045  22.334  0.00  0.00    -0.354 N 
HETATM   12  H   UNK     0     -47.453 -15.715  22.145  0.00  0.00     0.162 HD
HETATM   13  O   UNK     0     -44.930 -14.772  23.791  0.00  0.00    -0.271 OA
BRANCH  11  14
HETATM   14  C   UNK     0     -46.547 -13.809  21.537  0.00  0.00     0.091 C 
BRANCH  14  15
HETATM   15  C   UNK     0     -45.817 -14.107  20.207  0.00  0.00     0.063 C 
BRANCH  15  16
HETATM   16  C   UNK     0     -44.761 -13.138  19.754  0.00  0.00    -0.056 A 
HETATM   17  C   UNK     0     -43.387 -13.417  19.987  0.00  0.00     0.007 A 
HETATM   18  C   UNK     0     -42.384 -12.513  19.566  0.00  0.00     0.001 A 
HETATM   19  C   UNK     0     -42.748 -11.318  18.904  0.00  0.00     0.000 A 
HETATM   20  C   UNK     0     -44.114 -11.033  18.667  0.00  0.00     0.001 A 
HETATM   21  C   UNK     0     -45.115 -11.941  19.091  0.00  0.00     0.007 A 
ENDBRANCH  15  16
ENDBRANCH  14  15
BRANCH  14  22
HETATM   22  C   UNK     0     -47.914 -13.202  21.154  0.00  0.00     0.059 C 
BRANCH  22  23
HETATM   23  C   UNK     0     -48.300 -11.801  21.662  0.00  0.00     0.143 C 
BRANCH  23  24
HETATM   24  C   UNK     0     -47.729 -10.587  20.886  0.00  0.00     0.117 C 
BRANCH  24  25
HETATM   25  N   UNK     0     -48.846  -9.930  20.166  0.00  0.00    -0.352 N 
HETATM   26  C   UNK     0     -48.678  -8.976  19.195  0.00  0.00     0.242 C 
HETATM   27  O   UNK     0     -47.587  -8.553  18.798  0.00  0.00    -0.271 OA
HETATM   28  H   UNK     0     -49.822 -10.156  20.358  0.00  0.00     0.163 HD
BRANCH  26  29
HETATM   29  C   UNK     0     -49.992  -8.422  18.611  0.00  0.00     0.278 C 
BRANCH  29  30
HETATM   30  O   UNK     0     -51.083  -8.532  19.544  0.00  0.00    -0.341 OA
BRANCH  30  31
HETATM   31  C   UNK     0     -51.441  -7.313  20.152  0.00  0.00     0.081 A 
HETATM   32  C   UNK     0     -51.949  -6.206  19.387  0.00  0.00    -0.028 A 
HETATM   33  C   UNK     0     -52.295  -5.002  20.059  0.00  0.00     0.009 A 
HETATM   34  C   UNK     0     -52.130  -6.273  17.889  0.00  0.00     0.051 C 
HETATM   35  C   UNK     0     -52.149  -4.885  21.457  0.00  0.00     0.001 A 
HETATM   36  C   UNK     0     -51.655  -5.966  22.215  0.00  0.00     0.009 A 
HETATM   37  C   UNK     0     -51.300  -7.180  21.580  0.00  0.00    -0.028 A 
HETATM   38  C   UNK     0     -50.783  -8.304  22.412  0.00  0.00     0.051 C 
ENDBRANCH  30  31
ENDBRANCH  29  30
ENDBRANCH  26  29
ENDBRANCH  24  25
BRANCH  24  39
HETATM   39  C   UNK     0     -47.087  -9.558  21.863  0.00  0.00     0.066 C 
BRANCH  39  40
HETATM   40  C   UNK     0     -45.574  -9.615  21.938  0.00  0.00    -0.056 A 
HETATM   41  C   UNK     0     -44.938 -10.717  22.561  0.00  0.00     0.007 A 
HETATM   42  C   UNK     0     -43.526 -10.789  22.647  0.00  0.00     0.001 A 
HETATM   43  C   UNK     0     -42.733  -9.758  22.109  0.00  0.00     0.000 A 
HETATM   44  C   UNK     0     -43.356  -8.655  21.484  0.00  0.00     0.001 A 
HETATM   45  C   UNK     0     -44.766  -8.582  21.399  0.00  0.00     0.007 A 
ENDBRANCH  39  40
ENDBRANCH  24  39
ENDBRANCH  23  24
BRANCH  23  46
HETATM   46  O   UNK     0     -49.703 -11.731  21.569  0.00  0.00    -0.393 OA
HETATM   47  H   UNK     0     -49.947 -12.327  20.870  0.00  0.00     0.210 HD
ENDBRANCH  23  46
ENDBRANCH  22  23
ENDBRANCH  14  22
ENDBRANCH  11  14
ENDBRANCH   9  10
BRANCH   9  48
HETATM   48  C   UNK     0     -47.312 -17.578  23.096  0.00  0.00     0.010 C 
HETATM   49  C   UNK     0     -46.650 -18.124  21.816  0.00  0.00     0.012 C 
HETATM   50  C   UNK     0     -47.932 -18.764  23.870  0.00  0.00     0.012 C 
ENDBRANCH   9  48
ENDBRANCH   3   9
TORSDOF 16
ENDMDL
MODEL 4
REMARK VINA RESULT:      -7.9      6.245     11.066
REMARK  16 active torsions:
REMARK  status: ('A' for Active; 'I' for Inactive)
REMARK    1  A    between atoms: N_3  and  C_13 
REMARK    2  A    between atoms: C_6  and  C_37 
REMARK    3  A    between atoms: C_13  and  C_14 
REMARK    4  A    between atoms: C_13  and  C_17 
REMARK       I    between atoms: C_14  and  N_15 
REMARK    5  A    between atoms: N_15  and  C_16 
REMARK    6  A    between atoms: C_16  and  C_27 
REMARK    7  A    between atoms: C_16  and  C_28 
REMARK    8  A    between atoms: C_25  and  C_27 
REMARK    9  A    between atoms: C_28  and  C_29 
REMARK   10  A    between atoms: C_29  and  C_30 
REMARK   11  A    between atoms: C_29  and  O_36 
REMARK   12  A    between atoms: C_30  and  N_31 
REMARK   13  A    between atoms: C_30  and  C_37 
REMARK       I    between atoms: N_31  and  C_32 
REMARK   14  A    between atoms: C_32  and  C_33 
REMARK   15  A    between atoms: C_33  and  O_34 
REMARK   16  A    between atoms: O_34  and  C_35 
ROOT
HETATM    1  C   UNK     0     -45.003  -1.625  16.550  0.00  0.00     0.126 C 
HETATM    2  C   UNK     0     -47.296  -0.621  16.384  0.00  0.00     0.130 C 
HETATM    3  N   UNK     0     -47.864  -1.948  16.827  0.00  0.00    -0.320 N 
HETATM    4  C   UNK     0     -47.038  -3.028  17.105  0.00  0.00     0.319 C 
HETATM    5  N   UNK     0     -45.691  -2.861  16.972  0.00  0.00    -0.343 N 
HETATM    6  O   UNK     0     -47.480  -4.107  17.460  0.00  0.00    -0.247 OA
HETATM    7  C   UNK     0     -45.843  -0.376  16.842  0.00  0.00     0.040 C 
HETATM    8  H   UNK     0     -45.170  -3.707  17.201  0.00  0.00     0.164 HD
ENDROOT
BRANCH   3   9
HETATM    9  C   UNK     0     -49.352  -2.117  16.965  0.00  0.00     0.184 C 
BRANCH   9  10
HETATM   10  C   UNK     0     -49.680  -2.595  18.406  0.00  0.00     0.241 C 
HETATM   11  N   UNK     0     -50.135  -3.886  18.444  0.00  0.00    -0.354 N 
HETATM   12  H   UNK     0     -50.187  -4.324  17.525  0.00  0.00     0.162 HD
HETATM   13  O   UNK     0     -49.534  -1.859  19.383  0.00  0.00    -0.271 OA
BRANCH  11  14
HETATM   14  C   UNK     0     -50.522  -4.609  19.676  0.00  0.00     0.091 C 
BRANCH  14  15
HETATM   15  C   UNK     0     -52.037  -4.459  19.945  0.00  0.00     0.063 C 
BRANCH  15  16
HETATM   16  C   UNK     0     -52.464  -3.981  21.304  0.00  0.00    -0.056 A 
HETATM   17  C   UNK     0     -51.490  -3.650  22.286  0.00  0.00     0.007 A 
HETATM   18  C   UNK     0     -51.880  -3.200  23.568  0.00  0.00     0.001 A 
HETATM   19  C   UNK     0     -53.253  -3.073  23.882  0.00  0.00     0.000 A 
HETATM   20  C   UNK     0     -54.229  -3.400  22.910  0.00  0.00     0.001 A 
HETATM   21  C   UNK     0     -53.834  -3.851  21.628  0.00  0.00     0.007 A 
ENDBRANCH  15  16
ENDBRANCH  14  15
BRANCH  14  22
HETATM   22  C   UNK     0     -50.252  -6.124  19.552  0.00  0.00     0.059 C 
BRANCH  22  23
HETATM   23  C   UNK     0     -49.100  -6.766  20.346  0.00  0.00     0.143 C 
BRANCH  23  24
HETATM   24  C   UNK     0     -49.150  -8.302  20.546  0.00  0.00     0.117 C 
BRANCH  24  25
HETATM   25  N   UNK     0     -47.820  -8.858  20.206  0.00  0.00    -0.352 N 
HETATM   26  C   UNK     0     -47.619 -10.118  19.703  0.00  0.00     0.242 C 
HETATM   27  O   UNK     0     -48.514 -10.937  19.468  0.00  0.00    -0.271 OA
HETATM   28  H   UNK     0     -46.961  -8.322  20.329  0.00  0.00     0.163 HD
BRANCH  26  29
HETATM   29  C   UNK     0     -46.142 -10.478  19.452  0.00  0.00     0.278 C 
BRANCH  29  30
HETATM   30  O   UNK     0     -45.310  -9.306  19.374  0.00  0.00    -0.341 OA
BRANCH  30  31
HETATM   31  C   UNK     0     -44.134  -9.387  20.145  0.00  0.00     0.081 A 
HETATM   32  C   UNK     0     -42.970 -10.093  19.679  0.00  0.00    -0.028 A 
HETATM   33  C   UNK     0     -41.813 -10.138  20.503  0.00  0.00     0.009 A 
HETATM   34  C   UNK     0     -42.930 -10.791  18.341  0.00  0.00     0.051 C 
HETATM   35  C   UNK     0     -41.794  -9.500  21.761  0.00  0.00     0.001 A 
HETATM   36  C   UNK     0     -42.928  -8.804  22.225  0.00  0.00     0.009 A 
HETATM   37  C   UNK     0     -44.099  -8.739  21.432  0.00  0.00    -0.028 A 
HETATM   38  C   UNK     0     -45.280  -7.992  21.951  0.00  0.00     0.051 C 
ENDBRANCH  30  31
ENDBRANCH  29  30
ENDBRANCH  26  29
ENDBRANCH  24  25
BRANCH  24  39
HETATM   39  C   UNK     0     -49.478  -8.656  22.027  0.00  0.00     0.066 C 
BRANCH  39  40
HETATM   40  C   UNK     0     -50.773  -8.062  22.548  0.00  0.00    -0.056 A 
HETATM   41  C   UNK     0     -50.776  -7.332  23.762  0.00  0.00     0.007 A 
HETATM   42  C   UNK     0     -51.974  -6.772  24.271  0.00  0.00     0.001 A 
HETATM   43  C   UNK     0     -53.183  -6.936  23.569  0.00  0.00     0.000 A 
HETATM   44  C   UNK     0     -53.191  -7.661  22.357  0.00  0.00     0.001 A 
HETATM   45  C   UNK     0     -51.996  -8.220  21.849  0.00  0.00     0.007 A 
ENDBRANCH  39  40
ENDBRANCH  24  39
ENDBRANCH  23  24
BRANCH  23  46
HETATM   46  O   UNK     0     -47.927  -6.479  19.622  0.00  0.00    -0.393 OA
HETATM   47  H   UNK     0     -47.258  -7.056  19.973  0.00  0.00     0.210 HD
ENDBRANCH  23  46
ENDBRANCH  22  23
ENDBRANCH  14  22
ENDBRANCH  11  14
ENDBRANCH   9  10
BRANCH   9  48
HETATM   48  C   UNK     0     -49.941  -3.085  15.865  0.00  0.00     0.010 C 
HETATM   49  C   UNK     0     -51.478  -3.047  15.772  0.00  0.00     0.012 C 
HETATM   50  C   UNK     0     -49.358  -2.754  14.471  0.00  0.00     0.012 C 
ENDBRANCH   9  48
ENDBRANCH   3   9
TORSDOF 16
ENDMDL
MODEL 5
REMARK VINA RESULT:      -7.9      1.967      8.274
REMARK  16 active torsions:
REMARK  status: ('A' for Active; 'I' for Inactive)
REMARK    1  A    between atoms: N_3  and  C_13 
REMARK    2  A    between atoms: C_6  and  C_37 
REMARK    3  A    between atoms: C_13  and  C_14 
REMARK    4  A    between atoms: C_13  and  C_17 
REMARK       I    between atoms: C_14  and  N_15 
REMARK    5  A    between atoms: N_15  and  C_16 
REMARK    6  A    between atoms: C_16  and  C_27 
REMARK    7  A    between atoms: C_16  and  C_28 
REMARK    8  A    between atoms: C_25  and  C_27 
REMARK    9  A    between atoms: C_28  and  C_29 
REMARK   10  A    between atoms: C_29  and  C_30 
REMARK   11  A    between atoms: C_29  and  O_36 
REMARK   12  A    between atoms: C_30  and  N_31 
REMARK   13  A    between atoms: C_30  and  C_37 
REMARK       I    between atoms: N_31  and  C_32 
REMARK   14  A    between atoms: C_32  and  C_33 
REMARK   15  A    between atoms: C_33  and  O_34 
REMARK   16  A    between atoms: O_34  and  C_35 
ROOT
HETATM    1  C   UNK     0     -48.071 -16.322  27.896  0.00  0.00     0.126 C 
HETATM    2  C   UNK     0     -48.549 -16.433  25.435  0.00  0.00     0.130 C 
HETATM    3  N   UNK     0     -47.118 -16.863  25.219  0.00  0.00    -0.320 N 
HETATM    4  C   UNK     0     -46.239 -17.005  26.284  0.00  0.00     0.319 C 
HETATM    5  N   UNK     0     -46.703 -16.748  27.540  0.00  0.00    -0.343 N 
HETATM    6  O   UNK     0     -45.080 -17.348  26.126  0.00  0.00    -0.247 OA
HETATM    7  C   UNK     0     -49.096 -16.757  26.841  0.00  0.00     0.040 C 
HETATM    8  H   UNK     0     -45.987 -16.883  28.254  0.00  0.00     0.164 HD
ENDROOT
BRANCH   3   9
HETATM    9  C   UNK     0     -46.621 -17.139  23.826  0.00  0.00     0.184 C 
BRANCH   9  10
HETATM   10  C   UNK     0     -46.206 -15.800  23.157  0.00  0.00     0.241 C 
HETATM   11  N   UNK     0     -45.173 -15.949  22.271  0.00  0.00    -0.354 N 
HETATM   12  H   UNK     0     -44.842 -16.911  22.194  0.00  0.00     0.162 HD
HETATM   13  O   UNK     0     -46.771 -14.738  23.425  0.00  0.00    -0.271 OA
BRANCH  11  14
HETATM   14  C   UNK     0     -44.569 -14.851  21.485  0.00  0.00     0.091 C 
BRANCH  14  15
HETATM   15  C   UNK     0     -43.173 -15.257  20.960  0.00  0.00     0.063 C 
BRANCH  15  16
HETATM   16  C   UNK     0     -41.973 -14.579  21.559  0.00  0.00    -0.056 A 
HETATM   17  C   UNK     0     -40.729 -14.585  20.872  0.00  0.00     0.007 A 
HETATM   18  C   UNK     0     -39.594 -13.951  21.427  0.00  0.00     0.001 A 
HETATM   19  C   UNK     0     -39.692 -13.301  22.679  0.00  0.00     0.000 A 
HETATM   20  C   UNK     0     -40.928 -13.290  23.369  0.00  0.00     0.001 A 
HETATM   21  C   UNK     0     -42.062 -13.927  22.810  0.00  0.00     0.007 A 
ENDBRANCH  15  16
ENDBRANCH  14  15
BRANCH  14  22
HETATM   22  C   UNK     0     -45.419 -14.512  20.241  0.00  0.00     0.059 C 
BRANCH  22  23
HETATM   23  C   UNK     0     -46.311 -13.257  20.240  0.00  0.00     0.143 C 
BRANCH  23  24
HETATM   24  C   UNK     0     -45.621 -11.901  19.942  0.00  0.00     0.117 C 
BRANCH  24  25
HETATM   25  N   UNK     0     -46.672 -10.865  19.814  0.00  0.00    -0.352 N 
HETATM   26  C   UNK     0     -46.463  -9.620  19.279  0.00  0.00     0.242 C 
HETATM   27  O   UNK     0     -45.384  -9.212  18.835  0.00  0.00    -0.271 OA
HETATM   28  H   UNK     0     -47.631 -11.024  20.124  0.00  0.00     0.163 HD
BRANCH  26  29
HETATM   29  C   UNK     0     -47.705  -8.707  19.278  0.00  0.00     0.278 C 
BRANCH  29  30
HETATM   30  O   UNK     0     -48.927  -9.464  19.345  0.00  0.00    -0.341 OA
BRANCH  30  31
HETATM   31  C   UNK     0     -49.929  -8.865  20.132  0.00  0.00     0.081 A 
HETATM   32  C   UNK     0     -50.062  -9.150  21.536  0.00  0.00    -0.028 A 
HETATM   33  C   UNK     0     -51.093  -8.512  22.277  0.00  0.00     0.009 A 
HETATM   34  C   UNK     0     -49.142 -10.106  22.257  0.00  0.00     0.051 C 
HETATM   35  C   UNK     0     -51.978  -7.607  21.655  0.00  0.00     0.001 A 
HETATM   36  C   UNK     0     -51.855  -7.319  20.281  0.00  0.00     0.009 A 
HETATM   37  C   UNK     0     -50.840  -7.937  19.511  0.00  0.00    -0.028 A 
HETATM   38  C   UNK     0     -50.736  -7.608  18.060  0.00  0.00     0.051 C 
ENDBRANCH  30  31
ENDBRANCH  29  30
ENDBRANCH  26  29
ENDBRANCH  24  25
BRANCH  24  39
HETATM   39  C   UNK     0     -44.661 -11.503  21.101  0.00  0.00     0.066 C 
BRANCH  39  40
HETATM   40  C   UNK     0     -43.232 -11.229  20.674  0.00  0.00    -0.056 A 
HETATM   41  C   UNK     0     -42.740 -11.774  19.463  0.00  0.00     0.007 A 
HETATM   42  C   UNK     0     -41.407 -11.536  19.046  0.00  0.00     0.001 A 
HETATM   43  C   UNK     0     -40.551 -10.748  19.838  0.00  0.00     0.000 A 
HETATM   44  C   UNK     0     -41.030 -10.199  21.047  0.00  0.00     0.001 A 
HETATM   45  C   UNK     0     -42.361 -10.437  21.464  0.00  0.00     0.007 A 
ENDBRANCH  39  40
ENDBRANCH  24  39
ENDBRANCH  23  24
BRANCH  23  46
HETATM   46  O   UNK     0     -47.269 -13.467  19.231  0.00  0.00    -0.393 OA
HETATM   47  H   UNK     0     -47.700 -14.287  19.449  0.00  0.00     0.210 HD
ENDBRANCH  23  46
ENDBRANCH  22  23
ENDBRANCH  14  22
ENDBRANCH  11  14
ENDBRANCH   9  10
BRANCH   9  48
HETATM   48  C   UNK     0     -47.684 -17.932  22.967  0.00  0.00     0.010 C 
HETATM   49  C   UNK     0     -47.698 -17.526  21.480  0.00  0.00     0.012 C 
HETATM   50  C   UNK     0     -47.436 -19.456  23.056  0.00  0.00     0.012 C 
ENDBRANCH   9  48
ENDBRANCH   3   9
TORSDOF 16
ENDMDL
MODEL 6
REMARK VINA RESULT:      -7.9      5.087     10.266
REMARK  16 active torsions:
REMARK  status: ('A' for Active; 'I' for Inactive)
REMARK    1  A    between atoms: N_3  and  C_13 
REMARK    2  A    between atoms: C_6  and  C_37 
REMARK    3  A    between atoms: C_13  and  C_14 
REMARK    4  A    between atoms: C_13  and  C_17 
REMARK       I    between atoms: C_14  and  N_15 
REMARK    5  A    between atoms: N_15  and  C_16 
REMARK    6  A    between atoms: C_16  and  C_27 
REMARK    7  A    between atoms: C_16  and  C_28 
REMARK    8  A    between atoms: C_25  and  C_27 
REMARK    9  A    between atoms: C_28  and  C_29 
REMARK   10  A    between atoms: C_29  and  C_30 
REMARK   11  A    between atoms: C_29  and  O_36 
REMARK   12  A    between atoms: C_30  and  N_31 
REMARK   13  A    between atoms: C_30  and  C_37 
REMARK       I    between atoms: N_31  and  C_32 
REMARK   14  A    between atoms: C_32  and  C_33 
REMARK   15  A    between atoms: C_33  and  O_34 
REMARK   16  A    between atoms: O_34  and  C_35 
ROOT
HETATM    1  C   UNK     0     -46.435   0.019  17.142  0.00  0.00     0.126 C 
HETATM    2  C   UNK     0     -47.217  -2.048  15.953  0.00  0.00     0.130 C 
HETATM    3  N   UNK     0     -48.522  -1.935  16.703  0.00  0.00    -0.320 N 
HETATM    4  C   UNK     0     -48.747  -0.907  17.609  0.00  0.00     0.319 C 
HETATM    5  N   UNK     0     -47.755   0.008  17.804  0.00  0.00    -0.343 N 
HETATM    6  O   UNK     0     -49.794  -0.804  18.225  0.00  0.00    -0.247 OA
HETATM    7  C   UNK     0     -46.468  -0.708  15.793  0.00  0.00     0.040 C 
HETATM    8  H   UNK     0     -48.014   0.723  18.483  0.00  0.00     0.164 HD
ENDROOT
BRANCH   3   9
HETATM    9  C   UNK     0     -49.605  -2.955  16.478  0.00  0.00     0.184 C 
BRANCH   9  10
HETATM   10  C   UNK     0     -49.370  -4.166  17.421  0.00  0.00     0.241 C 
HETATM   11  N   UNK     0     -50.535  -4.674  17.930  0.00  0.00    -0.354 N 
HETATM   12  H   UNK     0     -51.367  -4.176  17.612  0.00  0.00     0.162 HD
HETATM   13  O   UNK     0     -48.239  -4.593  17.659  0.00  0.00    -0.271 OA
BRANCH  11  14
HETATM   14  C   UNK     0     -50.621  -5.828  18.853  0.00  0.00     0.091 C 
BRANCH  14  15
HETATM   15  C   UNK     0     -51.971  -5.827  19.606  0.00  0.00     0.063 C 
BRANCH  15  16
HETATM   16  C   UNK     0     -52.015  -5.189  20.966  0.00  0.00    -0.056 A 
HETATM   17  C   UNK     0     -51.006  -4.268  21.358  0.00  0.00     0.007 A 
HETATM   18  C   UNK     0     -51.037  -3.661  22.634  0.00  0.00     0.001 A 
HETATM   19  C   UNK     0     -52.083  -3.970  23.535  0.00  0.00     0.000 A 
HETATM   20  C   UNK     0     -53.092  -4.885  23.151  0.00  0.00     0.001 A 
HETATM   21  C   UNK     0     -53.057  -5.491  21.873  0.00  0.00     0.007 A 
ENDBRANCH  15  16
ENDBRANCH  14  15
BRANCH  14  22
HETATM   22  C   UNK     0     -50.551  -7.169  18.090  0.00  0.00     0.059 C 
BRANCH  22  23
HETATM   23  C   UNK     0     -49.245  -7.983  18.088  0.00  0.00     0.143 C 
BRANCH  23  24
HETATM   24  C   UNK     0     -48.843  -8.675  19.416  0.00  0.00     0.117 C 
BRANCH  24  25
HETATM   25  N   UNK     0     -47.816  -9.699  19.113  0.00  0.00    -0.352 N 
HETATM   26  C   UNK     0     -47.735 -10.915  19.741  0.00  0.00     0.242 C 
HETATM   27  O   UNK     0     -48.503 -11.307  20.627  0.00  0.00    -0.271 OA
HETATM   28  H   UNK     0     -47.097  -9.553  18.404  0.00  0.00     0.163 HD
BRANCH  26  29
HETATM   29  C   UNK     0     -46.564 -11.800  19.272  0.00  0.00     0.278 C 
BRANCH  29  30
HETATM   30  O   UNK     0     -45.314 -11.087  19.284  0.00  0.00    -0.341 OA
BRANCH  30  31
HETATM   31  C   UNK     0     -44.588 -11.225  20.483  0.00  0.00     0.081 A 
HETATM   32  C   UNK     0     -44.062 -12.495  20.908  0.00  0.00    -0.028 A 
HETATM   33  C   UNK     0     -43.336 -12.570  22.127  0.00  0.00     0.009 A 
HETATM   34  C   UNK     0     -44.252 -13.759  20.103  0.00  0.00     0.051 C 
HETATM   35  C   UNK     0     -43.125 -11.420  22.916  0.00  0.00     0.001 A 
HETATM   36  C   UNK     0     -43.634 -10.171  22.507  0.00  0.00     0.009 A 
HETATM   37  C   UNK     0     -44.363 -10.059  21.299  0.00  0.00    -0.028 A 
HETATM   38  C   UNK     0     -44.885  -8.722  20.894  0.00  0.00     0.051 C 
ENDBRANCH  30  31
ENDBRANCH  29  30
ENDBRANCH  26  29
ENDBRANCH  24  25
BRANCH  24  39
HETATM   39  C   UNK     0     -48.244  -7.643  20.416  0.00  0.00     0.066 C 
BRANCH  39  40
HETATM   40  C   UNK     0     -49.002  -7.513  21.723  0.00  0.00    -0.056 A 
HETATM   41  C   UNK     0     -50.184  -8.266  21.931  0.00  0.00     0.007 A 
HETATM   42  C   UNK     0     -50.912  -8.157  23.142  0.00  0.00     0.001 A 
HETATM   43  C   UNK     0     -50.464  -7.293  24.159  0.00  0.00     0.000 A 
HETATM   44  C   UNK     0     -49.287  -6.538  23.963  0.00  0.00     0.001 A 
HETATM   45  C   UNK     0     -48.560  -6.646  22.754  0.00  0.00     0.007 A 
ENDBRANCH  39  40
ENDBRANCH  24  39
ENDBRANCH  23  24
BRANCH  23  46
HETATM   46  O   UNK     0     -49.425  -8.997  17.129  0.00  0.00    -0.393 OA
HETATM   47  H   UNK     0     -48.768  -9.657  17.322  0.00  0.00     0.210 HD
ENDBRANCH  23  46
ENDBRANCH  22  23
ENDBRANCH  14  22
ENDBRANCH  11  14
ENDBRANCH   9  10
BRANCH   9  48
HETATM   48  C   UNK     0     -49.704  -3.386  14.962  0.00  0.00     0.010 C 
HETATM   49  C   UNK     0     -50.419  -4.735  14.752  0.00  0.00     0.012 C 
HETATM   50  C   UNK     0     -50.436  -2.309  14.129  0.00  0.00     0.012 C 
ENDBRANCH   9  48
ENDBRANCH   3   9
TORSDOF 16
ENDMDL
MODEL 7
REMARK VINA RESULT:      -7.9      2.145      5.127
REMARK  16 active torsions:
REMARK  status: ('A' for Active; 'I' for Inactive)
REMARK    1  A    between atoms: N_3  and  C_13 
REMARK    2  A    between atoms: C_6  and  C_37 
REMARK    3  A    between atoms: C_13  and  C_14 
REMARK    4  A    between atoms: C_13  and  C_17 
REMARK       I    between atoms: C_14  and  N_15 
REMARK    5  A    between atoms: N_15  and  C_16 
REMARK    6  A    between atoms: C_16  and  C_27 
REMARK    7  A    between atoms: C_16  and  C_28 
REMARK    8  A    between atoms: C_25  and  C_27 
REMARK    9  A    between atoms: C_28  and  C_29 
REMARK   10  A    between atoms: C_29  and  C_30 
REMARK   11  A    between atoms: C_29  and  O_36 
REMARK   12  A    between atoms: C_30  and  N_31 
REMARK   13  A    between atoms: C_30  and  C_37 
REMARK       I    between atoms: N_31  and  C_32 
REMARK   14  A    between atoms: C_32  and  C_33 
REMARK   15  A    between atoms: C_33  and  O_34 
REMARK   16  A    between atoms: O_34  and  C_35 
ROOT
HETATM    1  C   UNK     0     -39.375 -11.751  20.817  0.00  0.00     0.126 C 
HETATM    2  C   UNK     0     -41.306 -12.256  22.338  0.00  0.00     0.130 C 
HETATM    3  N   UNK     0     -41.405 -13.616  21.692  0.00  0.00    -0.320 N 
HETATM    4  C   UNK     0     -40.538 -13.998  20.676  0.00  0.00     0.319 C 
HETATM    5  N   UNK     0     -39.585 -13.109  20.275  0.00  0.00    -0.343 N 
HETATM    6  O   UNK     0     -40.608 -15.091  20.142  0.00  0.00    -0.247 OA
HETATM    7  C   UNK     0     -39.902 -11.622  22.251  0.00  0.00     0.040 C 
HETATM    8  H   UNK     0     -38.997 -13.480  19.530  0.00  0.00     0.164 HD
ENDROOT
BRANCH   3   9
HETATM    9  C   UNK     0     -42.465 -14.584  22.144  0.00  0.00     0.184 C 
BRANCH   9  10
HETATM   10  C   UNK     0     -43.853 -13.890  22.076  0.00  0.00     0.241 C 
HETATM   11  N   UNK     0     -44.284 -13.696  20.791  0.00  0.00    -0.354 N 
HETATM   12  H   UNK     0     -43.628 -14.034  20.088  0.00  0.00     0.162 HD
HETATM   13  O   UNK     0     -44.466 -13.564  23.094  0.00  0.00    -0.271 OA
BRANCH  11  14
HETATM   14  C   UNK     0     -45.569 -13.062  20.419  0.00  0.00     0.091 C 
BRANCH  14  15
HETATM   15  C   UNK     0     -45.410 -12.218  19.133  0.00  0.00     0.063 C 
BRANCH  15  16
HETATM   16  C   UNK     0     -45.847 -10.781  19.178  0.00  0.00    -0.056 A 
HETATM   17  C   UNK     0     -44.918  -9.741  18.900  0.00  0.00     0.007 A 
HETATM   18  C   UNK     0     -45.317  -8.386  18.939  0.00  0.00     0.001 A 
HETATM   19  C   UNK     0     -46.655  -8.055  19.257  0.00  0.00     0.000 A 
HETATM   20  C   UNK     0     -47.586  -9.085  19.534  0.00  0.00     0.001 A 
HETATM   21  C   UNK     0     -47.182 -10.441  19.494  0.00  0.00     0.007 A 
ENDBRANCH  15  16
ENDBRANCH  14  15
BRANCH  14  22
HETATM   22  C   UNK     0     -46.654 -14.117  20.114  0.00  0.00     0.059 C 
BRANCH  22  23
HETATM   23  C   UNK     0     -47.507 -14.693  21.259  0.00  0.00     0.143 C 
BRANCH  23  24
HETATM   24  C   UNK     0     -47.253 -16.170  21.654  0.00  0.00     0.117 C 
BRANCH  24  25
HETATM   25  N   UNK     0     -48.018 -16.458  22.890  0.00  0.00    -0.352 N 
HETATM   26  C   UNK     0     -47.491 -17.082  23.991  0.00  0.00     0.242 C 
HETATM   27  O   UNK     0     -46.324 -17.475  24.092  0.00  0.00    -0.271 OA
HETATM   28  H   UNK     0     -48.999 -16.201  22.992  0.00  0.00     0.163 HD
BRANCH  26  29
HETATM   29  C   UNK     0     -48.490 -17.293  25.145  0.00  0.00     0.278 C 
BRANCH  29  30
HETATM   30  O   UNK     0     -47.834 -17.314  26.426  0.00  0.00    -0.341 OA
BRANCH  30  31
HETATM   31  C   UNK     0     -47.951 -16.112  27.149  0.00  0.00     0.081 A 
HETATM   32  C   UNK     0     -46.837 -15.217  27.317  0.00  0.00    -0.028 A 
HETATM   33  C   UNK     0     -47.018 -14.018  28.056  0.00  0.00     0.009 A 
HETATM   34  C   UNK     0     -45.473 -15.506  26.734  0.00  0.00     0.051 C 
HETATM   35  C   UNK     0     -48.271 -13.696  28.620  0.00  0.00     0.001 A 
HETATM   36  C   UNK     0     -49.369 -14.565  28.458  0.00  0.00     0.009 A 
HETATM   37  C   UNK     0     -49.225 -15.769  27.729  0.00  0.00    -0.028 A 
HETATM   38  C   UNK     0     -50.408 -16.664  27.575  0.00  0.00     0.051 C 
ENDBRANCH  30  31
ENDBRANCH  29  30
ENDBRANCH  26  29
ENDBRANCH  24  25
BRANCH  24  39
HETATM   39  C   UNK     0     -47.736 -17.133  20.529  0.00  0.00     0.066 C 
BRANCH  39  40
HETATM   40  C   UNK     0     -46.680 -18.096  20.022  0.00  0.00    -0.056 A 
HETATM   41  C   UNK     0     -45.527 -18.354  20.802  0.00  0.00     0.007 A 
HETATM   42  C   UNK     0     -44.525 -19.246  20.347  0.00  0.00     0.001 A 
HETATM   43  C   UNK     0     -44.666 -19.890  19.103  0.00  0.00     0.000 A 
HETATM   44  C   UNK     0     -45.812 -19.640  18.316  0.00  0.00     0.001 A 
HETATM   45  C   UNK     0     -46.813 -18.750  18.771  0.00  0.00     0.007 A 
ENDBRANCH  39  40
ENDBRANCH  24  39
ENDBRANCH  23  24
BRANCH  23  46
HETATM   46  O   UNK     0     -47.216 -13.905  22.388  0.00  0.00    -0.393 OA
HETATM   47  H   UNK     0     -46.960 -14.515  23.071  0.00  0.00     0.210 HD
ENDBRANCH  23  46
ENDBRANCH  22  23
ENDBRANCH  14  22
ENDBRANCH  11  14
ENDBRANCH   9  10
BRANCH   9  48
HETATM   48  C   UNK     0     -42.157 -15.168  23.579  0.00  0.00     0.010 C 
HETATM   49  C   UNK     0     -42.943 -16.454  23.900  0.00  0.00     0.012 C 
HETATM   50  C   UNK     0     -40.648 -15.463  23.741  0.00  0.00     0.012 C 
ENDBRANCH   9  48
ENDBRANCH   3   9
TORSDOF 16
ENDMDL
MODEL 8
REMARK VINA RESULT:      -7.9      2.615      8.637
REMARK  16 active torsions:
REMARK  status: ('A' for Active; 'I' for Inactive)
REMARK    1  A    between atoms: N_3  and  C_13 
REMARK    2  A    between atoms: C_6  and  C_37 
REMARK    3  A    between atoms: C_13  and  C_14 
REMARK    4  A    between atoms: C_13  and  C_17 
REMARK       I    between atoms: C_14  and  N_15 
REMARK    5  A    between atoms: N_15  and  C_16 
REMARK    6  A    between atoms: C_16  and  C_27 
REMARK    7  A    between atoms: C_16  and  C_28 
REMARK    8  A    between atoms: C_25  and  C_27 
REMARK    9  A    between atoms: C_28  and  C_29 
REMARK   10  A    between atoms: C_29  and  C_30 
REMARK   11  A    between atoms: C_29  and  O_36 
REMARK   12  A    between atoms: C_30  and  N_31 
REMARK   13  A    between atoms: C_30  and  C_37 
REMARK       I    between atoms: N_31  and  C_32 
REMARK   14  A    between atoms: C_32  and  C_33 
REMARK   15  A    between atoms: C_33  and  O_34 
REMARK   16  A    between atoms: O_34  and  C_35 
ROOT
HETATM    1  C   UNK     0     -44.809 -12.755  29.810  0.00  0.00     0.126 C 
HETATM    2  C   UNK     0     -45.905 -13.805  27.812  0.00  0.00     0.130 C 
HETATM    3  N   UNK     0     -46.459 -14.870  28.727  0.00  0.00    -0.320 N 
HETATM    4  C   UNK     0     -46.192 -14.860  30.090  0.00  0.00     0.319 C 
HETATM    5  N   UNK     0     -45.414 -13.856  30.586  0.00  0.00    -0.343 N 
HETATM    6  O   UNK     0     -46.628 -15.714  30.842  0.00  0.00    -0.247 OA
HETATM    7  C   UNK     0     -45.589 -12.472  28.520  0.00  0.00     0.040 C 
HETATM    8  H   UNK     0     -45.278 -13.932  31.594  0.00  0.00     0.164 HD
ENDROOT
BRANCH   3   9
HETATM    9  C   UNK     0     -47.312 -15.973  28.163  0.00  0.00     0.184 C 
BRANCH   9  10
HETATM   10  C   UNK     0     -46.550 -16.664  27.000  0.00  0.00     0.241 C 
HETATM   11  N   UNK     0     -47.247 -16.638  25.821  0.00  0.00    -0.354 N 
HETATM   12  H   UNK     0     -48.151 -16.173  25.896  0.00  0.00     0.162 HD
HETATM   13  O   UNK     0     -45.439 -17.172  27.163  0.00  0.00    -0.271 OA
BRANCH  11  14
HETATM   14  C   UNK     0     -46.769 -17.216  24.545  0.00  0.00     0.091 C 
BRANCH  14  15
HETATM   15  C   UNK     0     -47.001 -18.744  24.516  0.00  0.00     0.063 C 
BRANCH  15  16
HETATM   16  C   UNK     0     -45.832 -19.625  24.179  0.00  0.00    -0.056 A 
HETATM   17  C   UNK     0     -46.042 -20.896  23.577  0.00  0.00     0.007 A 
HETATM   18  C   UNK     0     -44.950 -21.733  23.255  0.00  0.00     0.001 A 
HETATM   19  C   UNK     0     -43.630 -21.306  23.532  0.00  0.00     0.000 A 
HETATM   20  C   UNK     0     -43.412 -20.042  24.131  0.00  0.00     0.001 A 
HETATM   21  C   UNK     0     -44.509 -19.207  24.452  0.00  0.00     0.007 A 
ENDBRANCH  15  16
ENDBRANCH  14  15
BRANCH  14  22
HETATM   22  C   UNK     0     -47.540 -16.638  23.339  0.00  0.00     0.059 C 
BRANCH  22  23
HETATM   23  C   UNK     0     -47.004 -15.390  22.613  0.00  0.00     0.143 C 
BRANCH  23  24
HETATM   24  C   UNK     0     -46.111 -15.627  21.368  0.00  0.00     0.117 C 
BRANCH  24  25
HETATM   25  N   UNK     0     -45.794 -14.310  20.767  0.00  0.00    -0.352 N 
HETATM   26  C   UNK     0     -45.676 -14.089  19.419  0.00  0.00     0.242 C 
HETATM   27  O   UNK     0     -45.822 -14.950  18.545  0.00  0.00    -0.271 OA
HETATM   28  H   UNK     0     -45.644 -13.477  21.336  0.00  0.00     0.163 HD
BRANCH  26  29
HETATM   29  C   UNK     0     -45.315 -12.640  19.038  0.00  0.00     0.278 C 
BRANCH  29  30
HETATM   30  O   UNK     0     -45.650 -11.711  20.086  0.00  0.00    -0.341 OA
BRANCH  30  31
HETATM   31  C   UNK     0     -46.420 -10.614  19.653  0.00  0.00     0.081 A 
HETATM   32  C   UNK     0     -47.842 -10.717  19.460  0.00  0.00    -0.028 A 
HETATM   33  C   UNK     0     -48.565  -9.574  19.024  0.00  0.00     0.009 A 
HETATM   34  C   UNK     0     -48.601 -12.000  19.706  0.00  0.00     0.051 C 
HETATM   35  C   UNK     0     -47.908  -8.349  18.783  0.00  0.00     0.001 A 
HETATM   36  C   UNK     0     -46.516  -8.238  18.972  0.00  0.00     0.009 A 
HETATM   37  C   UNK     0     -45.763  -9.356  19.405  0.00  0.00    -0.028 A 
HETATM   38  C   UNK     0     -44.292  -9.203  19.598  0.00  0.00     0.051 C 
ENDBRANCH  30  31
ENDBRANCH  29  30
ENDBRANCH  26  29
ENDBRANCH  24  25
BRANCH  24  39
HETATM   39  C   UNK     0     -44.780 -16.330  21.768  0.00  0.00     0.066 C 
BRANCH  39  40
HETATM   40  C   UNK     0     -44.565 -17.689  21.130  0.00  0.00    -0.056 A 
HETATM   41  C   UNK     0     -43.252 -18.195  20.973  0.00  0.00     0.007 A 
HETATM   42  C   UNK     0     -43.025 -19.459  20.375  0.00  0.00     0.001 A 
HETATM   43  C   UNK     0     -44.114 -20.232  19.928  0.00  0.00     0.000 A 
HETATM   44  C   UNK     0     -45.428 -19.738  20.080  0.00  0.00     0.001 A 
HETATM   45  C   UNK     0     -45.654 -18.476  20.677  0.00  0.00     0.007 A 
ENDBRANCH  39  40
ENDBRANCH  24  39
ENDBRANCH  23  24
BRANCH  23  46
HETATM   46  O   UNK     0     -48.139 -14.678  22.182  0.00  0.00    -0.393 OA
HETATM   47  H   UNK     0     -48.081 -13.823  22.594  0.00  0.00     0.210 HD
ENDBRANCH  23  46
ENDBRANCH  22  23
ENDBRANCH  14  22
ENDBRANCH  11  14
ENDBRANCH   9  10
BRANCH   9  48
HETATM   48  C   UNK     0     -48.735 -15.449  27.718  0.00  0.00     0.010 C 
HETATM   49  C   UNK     0     -49.831 -16.531  27.770  0.00  0.00     0.012 C 
HETATM   50  C   UNK     0     -49.182 -14.258  28.596  0.00  0.00     0.012 C 
ENDBRANCH   9  48
ENDBRANCH   3   9
TORSDOF 16
ENDMDL
MODEL 9
REMARK VINA RESULT:      -7.7      6.582     11.438
REMARK  16 active torsions:
REMARK  status: ('A' for Active; 'I' for Inactive)
REMARK    1  A    between atoms: N_3  and  C_13 
REMARK    2  A    between atoms: C_6  and  C_37 
REMARK    3  A    between atoms: C_13  and  C_14 
REMARK    4  A    between atoms: C_13  and  C_17 
REMARK       I    between atoms: C_14  and  N_15 
REMARK    5  A    between atoms: N_15  and  C_16 
REMARK    6  A    between atoms: C_16  and  C_27 
REMARK    7  A    between atoms: C_16  and  C_28 
REMARK    8  A    between atoms: C_25  and  C_27 
REMARK    9  A    between atoms: C_28  and  C_29 
REMARK   10  A    between atoms: C_29  and  C_30 
REMARK   11  A    between atoms: C_29  and  O_36 
REMARK   12  A    between atoms: C_30  and  N_31 
REMARK   13  A    between atoms: C_30  and  C_37 
REMARK       I    between atoms: N_31  and  C_32 
REMARK   14  A    between atoms: C_32  and  C_33 
REMARK   15  A    between atoms: C_33  and  O_34 
REMARK   16  A    between atoms: O_34  and  C_35 
ROOT
HETATM    1  C   UNK     0     -45.014  -0.309  16.727  0.00  0.00     0.126 C 
HETATM    2  C   UNK     0     -46.519  -2.031  15.694  0.00  0.00     0.130 C 
HETATM    3  N   UNK     0     -47.673  -1.412  16.444  0.00  0.00    -0.320 N 
HETATM    4  C   UNK     0     -47.488  -0.317  17.276  0.00  0.00     0.319 C 
HETATM    5  N   UNK     0     -46.229   0.194  17.398  0.00  0.00    -0.343 N 
HETATM    6  O   UNK     0     -48.408   0.192  17.891  0.00  0.00    -0.247 OA
HETATM    7  C   UNK     0     -45.348  -1.060  15.433  0.00  0.00     0.040 C 
HETATM    8  H   UNK     0     -46.195   0.996  18.027  0.00  0.00     0.164 HD
ENDROOT
BRANCH   3   9
HETATM    9  C   UNK     0     -49.055  -1.990  16.300  0.00  0.00     0.184 C 
BRANCH   9  10
HETATM   10  C   UNK     0     -49.272  -3.073  17.392  0.00  0.00     0.241 C 
HETATM   11  N   UNK     0     -50.575  -3.155  17.804  0.00  0.00    -0.354 N 
HETATM   12  H   UNK     0     -51.191  -2.494  17.332  0.00  0.00     0.162 HD
HETATM   13  O   UNK     0     -48.342  -3.762  17.815  0.00  0.00    -0.271 OA
BRANCH  11  14
HETATM   14  C   UNK     0     -51.078  -4.096  18.829  0.00  0.00     0.091 C 
BRANCH  14  15
HETATM   15  C   UNK     0     -52.425  -3.604  19.409  0.00  0.00     0.063 C 
BRANCH  15  16
HETATM   16  C   UNK     0     -52.543  -3.486  20.902  0.00  0.00    -0.056 A 
HETATM   17  C   UNK     0     -51.402  -3.172  21.689  0.00  0.00     0.007 A 
HETATM   18  C   UNK     0     -51.502  -3.057  23.094  0.00  0.00     0.001 A 
HETATM   19  C   UNK     0     -52.749  -3.256  23.730  0.00  0.00     0.000 A 
HETATM   20  C   UNK     0     -53.891  -3.568  22.954  0.00  0.00     0.001 A 
HETATM   21  C   UNK     0     -53.787  -3.682  21.547  0.00  0.00     0.007 A 
ENDBRANCH  15  16
ENDBRANCH  14  15
BRANCH  14  22
HETATM   22  C   UNK     0     -51.350  -5.493  18.230  0.00  0.00     0.059 C 
BRANCH  22  23
HETATM   23  C   UNK     0     -50.236  -6.556  18.229  0.00  0.00     0.143 C 
BRANCH  23  24
HETATM   24  C   UNK     0     -50.130  -7.468  19.479  0.00  0.00     0.117 C 
BRANCH  24  25
HETATM   25  N   UNK     0     -48.941  -8.338  19.319  0.00  0.00    -0.352 N 
HETATM   26  C   UNK     0     -47.682  -7.874  19.042  0.00  0.00     0.242 C 
HETATM   27  O   UNK     0     -47.381  -6.684  18.897  0.00  0.00    -0.271 OA
HETATM   28  H   UNK     0     -48.996  -9.353  19.408  0.00  0.00     0.163 HD
BRANCH  26  29
HETATM   29  C   UNK     0     -46.613  -8.974  18.896  0.00  0.00     0.278 C 
BRANCH  29  30
HETATM   30  O   UNK     0     -46.406  -9.688  20.128  0.00  0.00    -0.341 OA
BRANCH  30  31
HETATM   31  C   UNK     0     -45.249  -9.297  20.829  0.00  0.00     0.081 A 
HETATM   32  C   UNK     0     -45.312  -8.403  21.955  0.00  0.00    -0.028 A 
HETATM   33  C   UNK     0     -44.109  -8.047  22.623  0.00  0.00     0.009 A 
HETATM   34  C   UNK     0     -46.614  -7.827  22.458  0.00  0.00     0.051 C 
HETATM   35  C   UNK     0     -42.865  -8.558  22.197  0.00  0.00     0.001 A 
HETATM   36  C   UNK     0     -42.794  -9.436  21.097  0.00  0.00     0.009 A 
HETATM   37  C   UNK     0     -43.971  -9.813  20.408  0.00  0.00    -0.028 A 
HETATM   38  C   UNK     0     -43.860 -10.745  19.250  0.00  0.00     0.051 C 
ENDBRANCH  30  31
ENDBRANCH  29  30
ENDBRANCH  26  29
ENDBRANCH  24  25
BRANCH  24  39
HETATM   39  C   UNK     0     -49.959  -6.616  20.771  0.00  0.00     0.066 C 
BRANCH  39  40
HETATM   40  C   UNK     0     -51.065  -6.787  21.794  0.00  0.00    -0.056 A 
HETATM   41  C   UNK     0     -50.783  -6.628  23.173  0.00  0.00     0.007 A 
HETATM   42  C   UNK     0     -51.799  -6.788  24.147  0.00  0.00     0.001 A 
HETATM   43  C   UNK     0     -53.111  -7.109  23.751  0.00  0.00     0.000 A 
HETATM   44  C   UNK     0     -53.405  -7.269  22.379  0.00  0.00     0.001 A 
HETATM   45  C   UNK     0     -52.390  -7.110  21.406  0.00  0.00     0.007 A 
ENDBRANCH  39  40
ENDBRANCH  24  39
ENDBRANCH  23  24
BRANCH  23  46
HETATM   46  O   UNK     0     -50.501  -7.391  17.127  0.00  0.00    -0.393 OA
HETATM   47  H   UNK     0     -50.755  -6.811  16.418  0.00  0.00     0.210 HD
ENDBRANCH  23  46
ENDBRANCH  22  23
ENDBRANCH  14  22
ENDBRANCH  11  14
ENDBRANCH   9  10
BRANCH   9  48
HETATM   48  C   UNK     0     -49.313  -2.547  14.845  0.00  0.00     0.010 C 
HETATM   49  C   UNK     0     -50.032  -3.910  14.827  0.00  0.00     0.012 C 
HETATM   50  C   UNK     0     -50.146  -1.545  14.012  0.00  0.00     0.012 C 
ENDBRANCH   9  48
ENDBRANCH   3   9
TORSDOF 16
ENDMDL
MODEL 10
REMARK VINA RESULT:      -7.7      7.841     12.389
REMARK  16 active torsions:
REMARK  status: ('A' for Active; 'I' for Inactive)
REMARK    1  A    between atoms: N_3  and  C_13 
REMARK    2  A    between atoms: C_6  and  C_37 
REMARK    3  A    between atoms: C_13  and  C_14 
REMARK    4  A    between atoms: C_13  and  C_17 
REMARK       I    between atoms: C_14  and  N_15 
REMARK    5  A    between atoms: N_15  and  C_16 
REMARK    6  A    between atoms: C_16  and  C_27 
REMARK    7  A    between atoms: C_16  and  C_28 
REMARK    8  A    between atoms: C_25  and  C_27 
REMARK    9  A    between atoms: C_28  and  C_29 
REMARK   10  A    between atoms: C_29  and  C_30 
REMARK   11  A    between atoms: C_29  and  O_36 
REMARK   12  A    between atoms: C_30  and  N_31 
REMARK   13  A    between atoms: C_30  and  C_37 
REMARK       I    between atoms: N_31  and  C_32 
REMARK   14  A    between atoms: C_32  and  C_33 
REMARK   15  A    between atoms: C_33  and  O_34 
REMARK   16  A    between atoms: O_34  and  C_35 
ROOT
HETATM    1  C   UNK     0     -43.866   0.561  21.864  0.00  0.00     0.126 C 
HETATM    2  C   UNK     0     -45.429  -0.665  20.331  0.00  0.00     0.130 C 
HETATM    3  N   UNK     0     -44.978   0.243  19.212  0.00  0.00    -0.320 N 
HETATM    4  C   UNK     0     -44.034   1.238  19.428  0.00  0.00     0.319 C 
HETATM    5  N   UNK     0     -43.517   1.375  20.682  0.00  0.00    -0.343 N 
HETATM    6  O   UNK     0     -43.662   1.982  18.537  0.00  0.00    -0.247 OA
HETATM    7  C   UNK     0     -44.396  -0.821  21.467  0.00  0.00     0.040 C 
HETATM    8  H   UNK     0     -42.832   2.128  20.740  0.00  0.00     0.164 HD
ENDROOT
BRANCH   3   9
HETATM    9  C   UNK     0     -45.560   0.081  17.835  0.00  0.00     0.184 C 
BRANCH   9  10
HETATM   10  C   UNK     0     -47.110   0.053  17.936  0.00  0.00     0.241 C 
HETATM   11  N   UNK     0     -47.640  -1.167  17.610  0.00  0.00    -0.354 N 
HETATM   12  H   UNK     0     -46.935  -1.858  17.353  0.00  0.00     0.162 HD
HETATM   13  O   UNK     0     -47.756   1.046  18.275  0.00  0.00    -0.271 OA
BRANCH  11  14
HETATM   14  C   UNK     0     -49.084  -1.490  17.618  0.00  0.00     0.091 C 
BRANCH  14  15
HETATM   15  C   UNK     0     -49.608  -1.690  16.177  0.00  0.00     0.063 C 
BRANCH  15  16
HETATM   16  C   UNK     0     -50.473  -2.888  15.906  0.00  0.00    -0.056 A 
HETATM   17  C   UNK     0     -51.844  -2.882  16.281  0.00  0.00     0.007 A 
HETATM   18  C   UNK     0     -52.667  -4.004  16.031  0.00  0.00     0.001 A 
HETATM   19  C   UNK     0     -52.125  -5.147  15.398  0.00  0.00     0.000 A 
HETATM   20  C   UNK     0     -50.761  -5.161  15.021  0.00  0.00     0.001 A 
HETATM   21  C   UNK     0     -49.940  -4.036  15.274  0.00  0.00     0.007 A 
ENDBRANCH  15  16
ENDBRANCH  14  15
BRANCH  14  22
HETATM   22  C   UNK     0     -49.364  -2.810  18.369  0.00  0.00     0.059 C 
BRANCH  22  23
HETATM   23  C   UNK     0     -50.091  -2.781  19.726  0.00  0.00     0.143 C 
BRANCH  23  24
HETATM   24  C   UNK     0     -50.685  -4.118  20.237  0.00  0.00     0.117 C 
BRANCH  24  25
HETATM   25  N   UNK     0     -50.033  -5.226  19.500  0.00  0.00    -0.352 N 
HETATM   26  C   UNK     0     -50.714  -6.189  18.801  0.00  0.00     0.242 C 
HETATM   27  O   UNK     0     -51.944  -6.250  18.693  0.00  0.00    -0.271 OA
HETATM   28  H   UNK     0     -49.020  -5.336  19.472  0.00  0.00     0.163 HD
BRANCH  26  29
HETATM   29  C   UNK     0     -49.817  -7.253  18.139  0.00  0.00     0.278 C 
BRANCH  29  30
HETATM   30  O   UNK     0     -49.764  -8.466  18.912  0.00  0.00    -0.341 OA
BRANCH  30  31
HETATM   31  C   UNK     0     -49.026  -8.353  20.105  0.00  0.00     0.081 A 
HETATM   32  C   UNK     0     -47.608  -8.111  20.098  0.00  0.00    -0.028 A 
HETATM   33  C   UNK     0     -46.919  -8.004  21.336  0.00  0.00     0.009 A 
HETATM   34  C   UNK     0     -46.819  -7.963  18.819  0.00  0.00     0.051 C 
HETATM   35  C   UNK     0     -47.606  -8.131  22.562  0.00  0.00     0.001 A 
HETATM   36  C   UNK     0     -48.996  -8.366  22.579  0.00  0.00     0.009 A 
HETATM   37  C   UNK     0     -49.715  -8.478  21.365  0.00  0.00    -0.028 A 
HETATM   38  C   UNK     0     -51.185  -8.724  21.419  0.00  0.00     0.051 C 
ENDBRANCH  30  31
ENDBRANCH  29  30
ENDBRANCH  26  29
ENDBRANCH  24  25
BRANCH  24  39
HETATM   39  C   UNK     0     -50.412  -4.298  21.759  0.00  0.00     0.066 C 
BRANCH  39  40
HETATM   40  C   UNK     0     -51.432  -5.150  22.490  0.00  0.00    -0.056 A 
HETATM   41  C   UNK     0     -52.717  -5.349  21.929  0.00  0.00     0.007 A 
HETATM   42  C   UNK     0     -53.687  -6.138  22.596  0.00  0.00     0.001 A 
HETATM   43  C   UNK     0     -53.380  -6.738  23.832  0.00  0.00     0.000 A 
HETATM   44  C   UNK     0     -52.102  -6.547  24.400  0.00  0.00     0.001 A 
HETATM   45  C   UNK     0     -51.133  -5.759  23.735  0.00  0.00     0.007 A 
ENDBRANCH  39  40
ENDBRANCH  24  39
ENDBRANCH  23  24
BRANCH  23  46
HETATM   46  O   UNK     0     -49.131  -2.366  20.667  0.00  0.00    -0.393 OA
HETATM   47  H   UNK     0     -48.707  -1.604  20.287  0.00  0.00     0.210 HD
ENDBRANCH  23  46
ENDBRANCH  22  23
ENDBRANCH  14  22
ENDBRANCH  11  14
ENDBRANCH   9  10
BRANCH   9  48
HETATM   48  C   UNK     0     -44.986  -1.193  17.098  0.00  0.00     0.010 C 
HETATM   49  C   UNK     0     -44.760  -0.979  15.589  0.00  0.00     0.012 C 
HETATM   50  C   UNK     0     -43.650  -1.641  17.734  0.00  0.00     0.012 C 
ENDBRANCH   9  48
ENDBRANCH   3   9
TORSDOF 16
ENDMDL
