MODEL 1
REMARK VINA RESULT:      -8.6      0.000      0.000
REMARK  20 active torsions:
REMARK  status: ('A' for Active; 'I' for Inactive)
REMARK    1  A    between atoms: C_3  and  C_7 
REMARK    2  A    between atoms: C_7  and  C_8 
REMARK    3  A    between atoms: C_8  and  N_9 
REMARK    4  A    between atoms: C_8  and  C_10 
REMARK    5  A    between atoms: C_10  and  O_11 
REMARK    6  A    between atoms: C_10  and  C_12 
REMARK    7  A    between atoms: C_12  and  C_13 
REMARK    8  A    between atoms: C_13  and  C_14 
REMARK    9  A    between atoms: C_13  and  N_21 
REMARK   10  A    between atoms: C_14  and  C_15 
REMARK   11  A    between atoms: N_21  and  P_22 
REMARK   12  A    between atoms: P_22  and  O_23 
REMARK   13  A    between atoms: P_22  and  O_24 
REMARK   14  A    between atoms: O_23  and  C_26 
REMARK   15  A    between atoms: O_24  and  C_27 
REMARK   16  A    between atoms: C_26  and  C_33 
REMARK   17  A    between atoms: C_35  and  C_40 
REMARK   18  A    between atoms: C_36  and  O_39 
REMARK   19  A    between atoms: C_37  and  O_38 
REMARK   20  A    between atoms: C_50  and  N_51 
ROOT
HETATM    1  C   MOL     1     -42.906  -0.948  19.563  1.00 -0.25     0.001 A 
HETATM    2  C   MOL     1     -43.687  -1.165  18.450  1.00 -0.30     0.007 A 
HETATM    3  C   MOL     1     -44.213  -0.101  17.750  1.00 -0.25    -0.056 A 
HETATM    4  C   MOL     1     -43.951   1.185  18.174  1.00 -0.33     0.007 A 
HETATM    5  C   MOL     1     -43.172   1.403  19.288  1.00 -0.34     0.001 A 
HETATM    6  C   MOL     1     -42.650   0.336  19.982  1.00 -0.27     0.000 A 
ENDROOT
BRANCH   3   7
HETATM    7  C   MOL     1     -45.073  -0.342  16.518  1.00 -0.43     0.074 C 
BRANCH   7   8
HETATM    8  C   MOL     1     -45.019  -1.780  15.954  1.00 -0.43     0.216 C 
BRANCH   8   9
HETATM    9  N   MOL     1     -44.259  -1.769  14.654  1.00  0.05    -0.072 N 
HETATM   10  H   MOL     1     -44.813  -1.672  13.939  1.00 -0.64     0.274 HD
HETATM   11  H   MOL     1     -43.661  -1.083  14.620  1.00 -0.76     0.274 HD
HETATM   12  H   MOL     1     -43.781  -2.530  14.526  1.00 -0.15     0.274 HD
ENDBRANCH   8   9
BRANCH   8  13
HETATM   13  C   MOL     1     -46.452  -2.327  15.762  1.00 -0.29     0.150 C 
BRANCH  13  14
HETATM   14  O   MOL     1     -46.593  -2.888  14.445  1.00  0.06    -0.393 OA
HETATM   15  H   MOL     1     -45.751  -2.772  13.908  1.00 -0.27     0.210 HD
ENDBRANCH  13  14
BRANCH  13  16
HETATM   16  C   MOL     1     -47.507  -1.216  15.956  1.00 -0.14     0.054 C 
BRANCH  16  17
HETATM   17  C   MOL     1     -48.472  -1.541  17.118  1.00 -0.12     0.073 C 
BRANCH  17  18
HETATM   18  C   MOL     1     -48.962  -0.225  17.763  1.00 -0.13     0.058 C 
BRANCH  18  19
HETATM   19  C   MOL     1     -48.057   0.356  18.838  1.00 -0.16    -0.057 A 
HETATM   20  C   MOL     1     -47.897   1.720  18.949  1.00 -0.21     0.007 A 
HETATM   21  C   MOL     1     -47.075   2.248  19.920  1.00 -0.25     0.001 A 
HETATM   22  C   MOL     1     -46.408   1.412  20.784  1.00 -0.37     0.000 A 
HETATM   23  C   MOL     1     -46.564   0.048  20.678  1.00 -0.40     0.001 A 
HETATM   24  C   MOL     1     -47.387  -0.477  19.708  1.00 -0.21     0.007 A 
ENDBRANCH  18  19
ENDBRANCH  17  18
BRANCH  17  25
HETATM   25  N   MOL     1     -49.625  -2.295  16.608  1.00  0.15    -0.221 NA
HETATM   26  H   MOL     1     -49.514  -2.473  15.601  1.00  0.32     0.134 HD
BRANCH  25  27
HETATM   27  P   MOL     1     -49.896  -3.581  17.348  1.00  0.09     0.413 P 
HETATM   28  O   MOL     1     -50.953  -3.393  18.405  1.00  0.07    -0.239 OA
BRANCH  27  29
HETATM   29  O   MOL     1     -48.554  -4.170  18.008  1.00  0.12    -0.299 OA
BRANCH  29  30
HETATM   30  C   MOL     1     -48.136  -5.498  17.659  1.00 -0.20     0.214 C 
BRANCH  30  31
HETATM   31  C   MOL     1     -48.580  -6.486  18.750  1.00 -0.04     0.180 C 
HETATM   32  O   MOL     1     -47.479  -6.867  19.592  1.00  0.26    -0.347 OA
HETATM   33  C   MOL     1     -47.632  -8.231  20.028  1.00 -0.04     0.222 C 
HETATM   34  C   MOL     1     -48.925  -8.753  19.358  1.00 -0.10     0.205 C 
HETATM   35  C   MOL     1     -47.781  -8.235  21.489  1.00 -0.21     0.107 C 
HETATM   36  C   MOL     1     -49.148  -7.794  18.181  1.00 -0.06     0.182 C 
HETATM   37  N   MOL     1     -47.898  -8.237  22.620  1.00  0.07    -0.193 NA
BRANCH  33  38
HETATM   38  C   MOL     1     -46.340  -8.930  19.619  1.00 -0.19     0.088 A 
HETATM   39  N   MOL     1     -46.055 -10.180  20.054  1.00 -0.03    -0.229 N 
HETATM   40  C   MOL     1     -44.848 -10.482  19.507  1.00 -0.22     0.104 A 
HETATM   41  N   MOL     1     -46.707 -11.070  20.859  1.00  0.23    -0.160 NA
HETATM   42  C   MOL     1     -44.380  -9.457  18.750  1.00 -0.37     0.038 A 
HETATM   43  C   MOL     1     -44.293 -11.756  19.798  1.00 -0.44     0.151 A 
HETATM   44  C   MOL     1     -45.352  -8.455  18.829  1.00 -0.17     0.034 A 
HETATM   45  N   MOL     1     -44.920 -12.640  20.586  1.00 -0.19    -0.221 NA
HETATM   46  C   MOL     1     -46.129 -12.226  21.085  1.00 -0.33     0.258 A 
BRANCH  43  47
HETATM   47  N   MOL     1     -43.077 -12.132  19.277  1.00 -0.25    -0.382 N 
HETATM   48  H   MOL     1     -42.479 -11.519  19.075  1.00 -0.27     0.157 HD
HETATM   49  H   MOL     1     -42.893 -12.983  19.145  1.00 -0.19     0.157 HD
ENDBRANCH  43  47
ENDBRANCH  33  38
BRANCH  34  50
HETATM   50  O   MOL     1     -48.833 -10.119  18.924  1.00  0.41    -0.388 OA
HETATM   51  H   MOL     1     -49.205 -10.234  17.997  1.00 -0.42     0.210 HD
ENDBRANCH  34  50
BRANCH  36  52
HETATM   52  O   MOL     1     -48.403  -8.249  17.040  1.00  0.07    -0.390 OA
HETATM   53  H   MOL     1     -47.457  -7.904  17.060  1.00 -0.09     0.210 HD
ENDBRANCH  36  52
ENDBRANCH  30  31
ENDBRANCH  29  30
ENDBRANCH  27  29
BRANCH  27  54
HETATM   54  O   MOL     1     -50.331  -4.739  16.313  1.00  0.13    -0.260 OA
BRANCH  54  55
HETATM   55  C   MOL     1     -51.624  -5.167  16.200  1.00 -0.29     0.080 A 
HETATM   56  C   MOL     1     -52.102  -6.245  16.923  1.00 -0.28     0.037 A 
HETATM   57  C   MOL     1     -53.409  -6.649  16.790  1.00 -0.40     0.003 A 
HETATM   58  C   MOL     1     -54.253  -5.979  15.933  1.00 -0.35     0.000 A 
HETATM   59  C   MOL     1     -53.786  -4.906  15.209  1.00 -0.47     0.003 A 
HETATM   60  C   MOL     1     -52.478  -4.504  15.340  1.00 -0.37     0.037 A 
ENDBRANCH  54  55
ENDBRANCH  27  54
ENDBRANCH  25  27
ENDBRANCH  17  25
ENDBRANCH  16  17
ENDBRANCH  13  16
ENDBRANCH   8  13
ENDBRANCH   7   8
ENDBRANCH   3   7
TORSDOF 20
ENDMDL
MODEL 2
REMARK VINA RESULT:      -8.2      3.854      6.242
REMARK  20 active torsions:
REMARK  status: ('A' for Active; 'I' for Inactive)
REMARK    1  A    between atoms: C_3  and  C_7 
REMARK    2  A    between atoms: C_7  and  C_8 
REMARK    3  A    between atoms: C_8  and  N_9 
REMARK    4  A    between atoms: C_8  and  C_10 
REMARK    5  A    between atoms: C_10  and  O_11 
REMARK    6  A    between atoms: C_10  and  C_12 
REMARK    7  A    between atoms: C_12  and  C_13 
REMARK    8  A    between atoms: C_13  and  C_14 
REMARK    9  A    between atoms: C_13  and  N_21 
REMARK   10  A    between atoms: C_14  and  C_15 
REMARK   11  A    between atoms: N_21  and  P_22 
REMARK   12  A    between atoms: P_22  and  O_23 
REMARK   13  A    between atoms: P_22  and  O_24 
REMARK   14  A    between atoms: O_23  and  C_26 
REMARK   15  A    between atoms: O_24  and  C_27 
REMARK   16  A    between atoms: C_26  and  C_33 
REMARK   17  A    between atoms: C_35  and  C_40 
REMARK   18  A    between atoms: C_36  and  O_39 
REMARK   19  A    between atoms: C_37  and  O_38 
REMARK   20  A    between atoms: C_50  and  N_51 
ROOT
HETATM    1  C   MOL     1     -42.106   0.696  21.225  1.00 -0.25     0.001 A 
HETATM    2  C   MOL     1     -42.663   0.006  20.172  1.00 -0.30     0.007 A 
HETATM    3  C   MOL     1     -42.988   0.662  19.005  1.00 -0.25    -0.056 A 
HETATM    4  C   MOL     1     -42.750   2.015  18.899  1.00 -0.33     0.007 A 
HETATM    5  C   MOL     1     -42.193   2.707  19.951  1.00 -0.34     0.001 A 
HETATM    6  C   MOL     1     -41.871   2.047  21.114  1.00 -0.27     0.000 A 
ENDROOT
BRANCH   3   7
HETATM    7  C   MOL     1     -43.602  -0.103  17.841  1.00 -0.43     0.074 C 
BRANCH   7   8
HETATM    8  C   MOL     1     -44.154  -1.502  18.195  1.00 -0.43     0.216 C 
BRANCH   8   9
HETATM    9  N   MOL     1     -43.275  -2.551  17.569  1.00  0.05    -0.072 N 
HETATM   10  H   MOL     1     -42.854  -3.057  18.195  1.00 -0.64     0.274 HD
HETATM   11  H   MOL     1     -43.754  -3.121  17.045  1.00 -0.76     0.274 HD
HETATM   12  H   MOL     1     -42.635  -2.192  17.034  1.00 -0.15     0.274 HD
ENDBRANCH   8   9
BRANCH   8  13
HETATM   13  C   MOL     1     -45.617  -1.631  17.710  1.00 -0.29     0.150 C 
BRANCH  13  14
HETATM   14  O   MOL     1     -45.683  -2.517  16.579  1.00  0.06    -0.393 OA
HETATM   15  H   MOL     1     -45.928  -2.020  15.740  1.00 -0.27     0.210 HD
ENDBRANCH  13  14
BRANCH  13  16
HETATM   16  C   MOL     1     -46.200  -0.258  17.314  1.00 -0.14     0.054 C 
BRANCH  16  17
HETATM   17  C   MOL     1     -47.158   0.290  18.395  1.00 -0.12     0.073 C 
BRANCH  17  18
HETATM   18  C   MOL     1     -46.516   1.520  19.076  1.00 -0.13     0.058 C 
BRANCH  18  19
HETATM   19  C   MOL     1     -46.118   1.331  20.532  1.00 -0.16    -0.057 A 
HETATM   20  C   MOL     1     -46.207   0.088  21.121  1.00 -0.21     0.007 A 
HETATM   21  C   MOL     1     -45.851  -0.084  22.440  1.00 -0.25     0.001 A 
HETATM   22  C   MOL     1     -45.404   0.988  23.177  1.00 -0.37     0.000 A 
HETATM   23  C   MOL     1     -45.312   2.232  22.593  1.00 -0.40     0.001 A 
HETATM   24  C   MOL     1     -45.668   2.401  21.274  1.00 -0.21     0.007 A 
ENDBRANCH  18  19
ENDBRANCH  17  18
BRANCH  17  25
HETATM   25  N   MOL     1     -48.431   0.682  17.776  1.00  0.15    -0.221 NA
HETATM   26  H   MOL     1     -48.368   0.597  16.753  1.00  0.32     0.134 HD
BRANCH  25  27
HETATM   27  P   MOL     1     -49.628  -0.069  18.301  1.00  0.09     0.413 P 
HETATM   28  O   MOL     1     -49.213  -1.282  19.091  1.00  0.07    -0.239 OA
BRANCH  27  29
HETATM   29  O   MOL     1     -50.619  -0.497  17.109  1.00  0.12    -0.299 OA
BRANCH  29  30
HETATM   30  C   MOL     1     -50.067  -0.764  15.812  1.00 -0.20     0.214 C 
BRANCH  30  31
HETATM   31  C   MOL     1     -50.485  -2.169  15.348  1.00 -0.04     0.180 C 
HETATM   32  O   MOL     1     -51.584  -2.673  16.128  1.00  0.26    -0.347 OA
HETATM   33  C   MOL     1     -51.476  -4.101  16.279  1.00 -0.04     0.222 C 
HETATM   34  C   MOL     1     -50.167  -4.510  15.563  1.00 -0.10     0.205 C 
HETATM   35  C   MOL     1     -52.630  -4.724  15.619  1.00 -0.21     0.107 C 
HETATM   36  C   MOL     1     -49.361  -3.206  15.484  1.00 -0.06     0.182 C 
HETATM   37  N   MOL     1     -53.524  -5.206  15.108  1.00  0.07    -0.193 NA
BRANCH  33  38
HETATM   38  C   MOL     1     -51.518  -4.349  17.783  1.00 -0.19     0.088 A 
HETATM   39  N   MOL     1     -51.494  -5.608  18.283  1.00 -0.03    -0.229 N 
HETATM   40  C   MOL     1     -51.547  -5.456  19.633  1.00 -0.22     0.104 A 
HETATM   41  N   MOL     1     -51.437  -6.848  17.715  1.00  0.23    -0.160 NA
HETATM   42  C   MOL     1     -51.604  -4.144  19.979  1.00 -0.37     0.038 A 
HETATM   43  C   MOL     1     -51.536  -6.631  20.429  1.00 -0.44     0.151 A 
HETATM   44  C   MOL     1     -51.587  -3.435  18.775  1.00 -0.17     0.034 A 
HETATM   45  N   MOL     1     -51.480  -7.855  19.886  1.00 -0.19    -0.221 NA
HETATM   46  C   MOL     1     -51.433  -7.887  18.515  1.00 -0.33     0.258 A 
BRANCH  43  47
HETATM   47  N   MOL     1     -51.583  -6.556  21.801  1.00 -0.25    -0.382 N 
HETATM   48  H   MOL     1     -51.792  -7.270  22.271  1.00 -0.27     0.157 HD
HETATM   49  H   MOL     1     -51.405  -5.798  22.212  1.00 -0.19     0.157 HD
ENDBRANCH  43  47
ENDBRANCH  33  38
BRANCH  34  50
HETATM   50  O   MOL     1     -49.441  -5.546  16.244  1.00  0.41    -0.388 OA
HETATM   51  H   MOL     1     -48.582  -5.763  15.769  1.00 -0.42     0.210 HD
ENDBRANCH  34  50
BRANCH  36  52
HETATM   52  O   MOL     1     -48.613  -3.028  16.696  1.00  0.07    -0.390 OA
HETATM   53  H   MOL     1     -47.751  -3.547  16.674  1.00 -0.09     0.210 HD
ENDBRANCH  36  52
ENDBRANCH  30  31
ENDBRANCH  29  30
ENDBRANCH  27  29
BRANCH  27  54
HETATM   54  O   MOL     1     -50.545   0.905  19.202  1.00  0.13    -0.260 OA
BRANCH  54  55
HETATM   55  C   MOL     1     -50.031   1.645  20.230  1.00 -0.29     0.080 A 
HETATM   56  C   MOL     1     -49.792   1.095  21.477  1.00 -0.28     0.037 A 
HETATM   57  C   MOL     1     -49.270   1.866  22.489  1.00 -0.40     0.003 A 
HETATM   58  C   MOL     1     -48.981   3.193  22.266  1.00 -0.35     0.000 A 
HETATM   59  C   MOL     1     -49.216   3.748  21.029  1.00 -0.47     0.003 A 
HETATM   60  C   MOL     1     -49.740   2.979  20.017  1.00 -0.37     0.037 A 
ENDBRANCH  54  55
ENDBRANCH  27  54
ENDBRANCH  25  27
ENDBRANCH  17  25
ENDBRANCH  16  17
ENDBRANCH  13  16
ENDBRANCH   8  13
ENDBRANCH   7   8
ENDBRANCH   3   7
TORSDOF 20
ENDMDL
MODEL 3
REMARK VINA RESULT:      -8.2      2.013      4.232
REMARK  20 active torsions:
REMARK  status: ('A' for Active; 'I' for Inactive)
REMARK    1  A    between atoms: C_3  and  C_7 
REMARK    2  A    between atoms: C_7  and  C_8 
REMARK    3  A    between atoms: C_8  and  N_9 
REMARK    4  A    between atoms: C_8  and  C_10 
REMARK    5  A    between atoms: C_10  and  O_11 
REMARK    6  A    between atoms: C_10  and  C_12 
REMARK    7  A    between atoms: C_12  and  C_13 
REMARK    8  A    between atoms: C_13  and  C_14 
REMARK    9  A    between atoms: C_13  and  N_21 
REMARK   10  A    between atoms: C_14  and  C_15 
REMARK   11  A    between atoms: N_21  and  P_22 
REMARK   12  A    between atoms: P_22  and  O_23 
REMARK   13  A    between atoms: P_22  and  O_24 
REMARK   14  A    between atoms: O_23  and  C_26 
REMARK   15  A    between atoms: O_24  and  C_27 
REMARK   16  A    between atoms: C_26  and  C_33 
REMARK   17  A    between atoms: C_35  and  C_40 
REMARK   18  A    between atoms: C_36  and  O_39 
REMARK   19  A    between atoms: C_37  and  O_38 
REMARK   20  A    between atoms: C_50  and  N_51 
ROOT
HETATM    1  C   MOL     1     -43.135   1.243  19.272  1.00 -0.25     0.001 A 
HETATM    2  C   MOL     1     -43.918   1.058  18.155  1.00 -0.30     0.007 A 
HETATM    3  C   MOL     1     -44.258  -0.212  17.744  1.00 -0.25    -0.056 A 
HETATM    4  C   MOL     1     -43.807  -1.299  18.463  1.00 -0.33     0.007 A 
HETATM    5  C   MOL     1     -43.023  -1.117  19.579  1.00 -0.34     0.001 A 
HETATM    6  C   MOL     1     -42.687   0.155  19.983  1.00 -0.27     0.000 A 
ENDROOT
BRANCH   3   7
HETATM    7  C   MOL     1     -45.126  -0.414  16.511  1.00 -0.43     0.074 C 
BRANCH   7   8
HETATM    8  C   MOL     1     -45.478  -1.884  16.191  1.00 -0.43     0.216 C 
BRANCH   8   9
HETATM    9  N   MOL     1     -45.094  -2.183  14.767  1.00  0.05    -0.072 N 
HETATM   10  H   MOL     1     -45.817  -2.188  14.215  1.00 -0.64     0.274 HD
HETATM   11  H   MOL     1     -44.514  -1.562  14.438  1.00 -0.76     0.274 HD
HETATM   12  H   MOL     1     -44.681  -2.987  14.681  1.00 -0.15     0.274 HD
ENDBRANCH   8   9
BRANCH   8  13
HETATM   13  C   MOL     1     -46.985  -2.132  16.431  1.00 -0.29     0.150 C 
BRANCH  13  14
HETATM   14  O   MOL     1     -47.487  -3.076  15.469  1.00  0.06    -0.393 OA
HETATM   15  H   MOL     1     -47.613  -2.648  14.568  1.00 -0.27     0.210 HD
ENDBRANCH  13  14
BRANCH  13  16
HETATM   16  C   MOL     1     -47.793  -0.820  16.322  1.00 -0.14     0.054 C 
BRANCH  16  17
HETATM   17  C   MOL     1     -48.529  -0.492  17.641  1.00 -0.12     0.073 C 
BRANCH  17  18
HETATM   18  C   MOL     1     -48.085   0.899  18.145  1.00 -0.13     0.058 C 
BRANCH  18  19
HETATM   19  C   MOL     1     -47.308   0.906  19.453  1.00 -0.16    -0.057 A 
HETATM   20  C   MOL     1     -46.875   2.096  19.998  1.00 -0.21     0.007 A 
HETATM   21  C   MOL     1     -46.168   2.103  21.180  1.00 -0.25     0.001 A 
HETATM   22  C   MOL     1     -45.889   0.919  21.821  1.00 -0.37     0.000 A 
HETATM   23  C   MOL     1     -46.319  -0.272  21.281  1.00 -0.40     0.001 A 
HETATM   24  C   MOL     1     -47.026  -0.277  20.100  1.00 -0.21     0.007 A 
ENDBRANCH  18  19
ENDBRANCH  17  18
BRANCH  17  25
HETATM   25  N   MOL     1     -49.980  -0.489  17.409  1.00  0.15    -0.221 NA
HETATM   26  H   MOL     1     -50.191  -0.871  16.478  1.00  0.32     0.134 HD
BRANCH  25  27
HETATM   27  P   MOL     1     -50.774  -1.206  18.472  1.00  0.09     0.413 P 
HETATM   28  O   MOL     1     -49.880  -2.021  19.370  1.00  0.07    -0.239 OA
BRANCH  27  29
HETATM   29  O   MOL     1     -51.907  -2.143  17.822  1.00  0.12    -0.299 OA
BRANCH  29  30
HETATM   30  C   MOL     1     -51.516  -3.377  17.203  1.00 -0.20     0.214 C 
BRANCH  30  31
HETATM   31  C   MOL     1     -51.950  -4.561  18.083  1.00 -0.04     0.180 C 
HETATM   32  O   MOL     1     -50.927  -4.912  19.031  1.00  0.26    -0.347 OA
HETATM   33  C   MOL     1     -50.931  -6.332  19.267  1.00 -0.04     0.222 C 
HETATM   34  C   MOL     1     -52.029  -6.916  18.347  1.00 -0.10     0.205 C 
HETATM   35  C   MOL     1     -51.273  -6.565  20.676  1.00 -0.21     0.107 C 
HETATM   36  C   MOL     1     -52.233  -5.836  17.277  1.00 -0.06     0.182 C 
HETATM   37  N   MOL     1     -51.539  -6.745  21.766  1.00  0.07    -0.193 NA
BRANCH  33  38
HETATM   38  C   MOL     1     -49.506  -6.791  18.977  1.00 -0.19     0.088 A 
HETATM   39  N   MOL     1     -49.065  -8.003  19.390  1.00 -0.03    -0.229 N 
HETATM   40  C   MOL     1     -47.774  -8.076  18.971  1.00 -0.22     0.104 A 
HETATM   41  N   MOL     1     -49.642  -9.031  20.079  1.00  0.23    -0.160 NA
HETATM   42  C   MOL     1     -47.406  -6.946  18.314  1.00 -0.37     0.038 A 
HETATM   43  C   MOL     1     -47.050  -9.259  19.270  1.00 -0.44     0.151 A 
HETATM   44  C   MOL     1     -48.533  -6.118  18.324  1.00 -0.17     0.034 A 
HETATM   45  N   MOL     1     -47.602 -10.277  19.944  1.00 -0.19    -0.221 NA
HETATM   46  C   MOL     1     -48.908 -10.092  20.321  1.00 -0.33     0.258 A 
BRANCH  43  47
HETATM   47  N   MOL     1     -45.742  -9.406  18.874  1.00 -0.25    -0.382 N 
HETATM   48  H   MOL     1     -45.240 -10.026  19.245  1.00 -0.27     0.157 HD
HETATM   49  H   MOL     1     -45.403  -8.884  18.250  1.00 -0.19     0.157 HD
ENDBRANCH  43  47
ENDBRANCH  33  38
BRANCH  34  50
HETATM   50  O   MOL     1     -51.677  -8.182  17.767  1.00  0.41    -0.388 OA
HETATM   51  H   MOL     1     -52.476  -8.789  17.700  1.00 -0.42     0.210 HD
ENDBRANCH  34  50
BRANCH  36  52
HETATM   52  O   MOL     1     -51.282  -6.021  16.217  1.00  0.07    -0.390 OA
HETATM   53  H   MOL     1     -51.726  -6.374  15.385  1.00 -0.09     0.210 HD
ENDBRANCH  36  52
ENDBRANCH  30  31
ENDBRANCH  29  30
ENDBRANCH  27  29
BRANCH  27  54
HETATM   54  O   MOL     1     -51.630  -0.147  19.337  1.00  0.13    -0.260 OA
BRANCH  54  55
HETATM   55  C   MOL     1     -51.044   0.716  20.220  1.00 -0.29     0.080 A 
HETATM   56  C   MOL     1     -50.482   0.277  21.405  1.00 -0.28     0.037 A 
HETATM   57  C   MOL     1     -49.896   1.171  22.270  1.00 -0.40     0.003 A 
HETATM   58  C   MOL     1     -49.865   2.511  21.960  1.00 -0.35     0.000 A 
HETATM   59  C   MOL     1     -50.422   2.957  20.783  1.00 -0.47     0.003 A 
HETATM   60  C   MOL     1     -51.010   2.064  19.919  1.00 -0.37     0.037 A 
ENDBRANCH  54  55
ENDBRANCH  27  54
ENDBRANCH  25  27
ENDBRANCH  17  25
ENDBRANCH  16  17
ENDBRANCH  13  16
ENDBRANCH   8  13
ENDBRANCH   7   8
ENDBRANCH   3   7
TORSDOF 20
ENDMDL
MODEL 4
REMARK VINA RESULT:      -8.1      1.647      2.240
REMARK  20 active torsions:
REMARK  status: ('A' for Active; 'I' for Inactive)
REMARK    1  A    between atoms: C_3  and  C_7 
REMARK    2  A    between atoms: C_7  and  C_8 
REMARK    3  A    between atoms: C_8  and  N_9 
REMARK    4  A    between atoms: C_8  and  C_10 
REMARK    5  A    between atoms: C_10  and  O_11 
REMARK    6  A    between atoms: C_10  and  C_12 
REMARK    7  A    between atoms: C_12  and  C_13 
REMARK    8  A    between atoms: C_13  and  C_14 
REMARK    9  A    between atoms: C_13  and  N_21 
REMARK   10  A    between atoms: C_14  and  C_15 
REMARK   11  A    between atoms: N_21  and  P_22 
REMARK   12  A    between atoms: P_22  and  O_23 
REMARK   13  A    between atoms: P_22  and  O_24 
REMARK   14  A    between atoms: O_23  and  C_26 
REMARK   15  A    between atoms: O_24  and  C_27 
REMARK   16  A    between atoms: C_26  and  C_33 
REMARK   17  A    between atoms: C_35  and  C_40 
REMARK   18  A    between atoms: C_36  and  O_39 
REMARK   19  A    between atoms: C_37  and  O_38 
REMARK   20  A    between atoms: C_50  and  N_51 
ROOT
HETATM    1  C   MOL     1     -44.247  -1.131  16.590  1.00 -0.25     0.001 A 
HETATM    2  C   MOL     1     -45.301  -1.328  15.727  1.00 -0.30     0.007 A 
HETATM    3  C   MOL     1     -46.522  -0.738  15.972  1.00 -0.25    -0.056 A 
HETATM    4  C   MOL     1     -46.679   0.053  17.091  1.00 -0.33     0.007 A 
HETATM    5  C   MOL     1     -45.626   0.250  17.955  1.00 -0.34     0.001 A 
HETATM    6  C   MOL     1     -44.410  -0.342  17.705  1.00 -0.27     0.000 A 
ENDROOT
BRANCH   3   7
HETATM    7  C   MOL     1     -47.685  -0.955  15.015  1.00 -0.43     0.074 C 
BRANCH   7   8
HETATM    8  C   MOL     1     -47.980  -2.431  14.668  1.00 -0.43     0.216 C 
BRANCH   8   9
HETATM    9  N   MOL     1     -48.463  -2.514  13.244  1.00  0.05    -0.072 N 
HETATM   10  H   MOL     1     -49.328  -2.790  13.196  1.00 -0.64     0.274 HD
HETATM   11  H   MOL     1     -48.419  -1.705  12.828  1.00 -0.76     0.274 HD
HETATM   12  H   MOL     1     -47.967  -3.086  12.743  1.00 -0.15     0.274 HD
ENDBRANCH   8   9
BRANCH   8  13
HETATM   13  C   MOL     1     -49.026  -3.006  15.650  1.00 -0.29     0.150 C 
BRANCH  13  14
HETATM   14  O   MOL     1     -49.659  -4.163  15.074  1.00  0.06    -0.393 OA
HETATM   15  H   MOL     1     -49.760  -4.899  15.751  1.00 -0.27     0.210 HD
ENDBRANCH  13  14
BRANCH  13  16
HETATM   16  C   MOL     1     -50.105  -1.958  15.998  1.00 -0.14     0.054 C 
BRANCH  16  17
HETATM   17  C   MOL     1     -50.851  -2.317  17.302  1.00 -0.12     0.073 C 
BRANCH  17  18
HETATM   18  C   MOL     1     -51.386  -1.026  17.961  1.00 -0.13     0.058 C 
BRANCH  18  19
HETATM   19  C   MOL     1     -50.351  -0.183  18.689  1.00 -0.16    -0.057 A 
HETATM   20  C   MOL     1     -50.239   1.165  18.421  1.00 -0.21     0.007 A 
HETATM   21  C   MOL     1     -49.300   1.929  19.077  1.00 -0.25     0.001 A 
HETATM   22  C   MOL     1     -48.465   1.348  20.003  1.00 -0.37     0.000 A 
HETATM   23  C   MOL     1     -48.572   0.002  20.274  1.00 -0.40     0.001 A 
HETATM   24  C   MOL     1     -49.513  -0.760  19.619  1.00 -0.21     0.007 A 
ENDBRANCH  18  19
ENDBRANCH  17  18
BRANCH  17  25
HETATM   25  N   MOL     1     -51.975  -3.214  16.999  1.00  0.15    -0.221 NA
HETATM   26  H   MOL     1     -52.075  -3.324  15.981  1.00  0.32     0.134 HD
BRANCH  25  27
HETATM   27  P   MOL     1     -51.889  -4.559  17.674  1.00  0.09     0.413 P 
HETATM   28  O   MOL     1     -52.865  -4.664  18.817  1.00  0.07    -0.239 OA
BRANCH  27  29
HETATM   29  O   MOL     1     -50.397  -4.859  18.192  1.00  0.12    -0.299 OA
BRANCH  29  30
HETATM   30  C   MOL     1     -49.775  -6.102  17.833  1.00 -0.20     0.214 C 
BRANCH  30  31
HETATM   31  C   MOL     1     -49.759  -7.044  19.047  1.00 -0.04     0.180 C 
HETATM   32  O   MOL     1     -48.485  -7.019  19.713  1.00  0.26    -0.347 OA
HETATM   33  C   MOL     1     -48.181  -8.317  20.259  1.00 -0.04     0.222 C 
HETATM   34  C   MOL     1     -49.357  -9.238  19.855  1.00 -0.10     0.205 C 
HETATM   35  C   MOL     1     -48.110  -8.198  21.721  1.00 -0.21     0.107 C 
HETATM   36  C   MOL     1     -50.010  -8.512  18.672  1.00 -0.06     0.182 C 
HETATM   37  N   MOL     1     -48.056  -8.105  22.853  1.00  0.07    -0.193 NA
BRANCH  33  38
HETATM   38  C   MOL     1     -46.818  -8.685  19.683  1.00 -0.19     0.088 A 
HETATM   39  N   MOL     1     -46.132  -9.758  20.145  1.00 -0.03    -0.229 N 
HETATM   40  C   MOL     1     -44.981  -9.783  19.422  1.00 -0.22     0.104 A 
HETATM   41  N   MOL     1     -46.383 -10.696  21.104  1.00  0.23    -0.160 NA
HETATM   42  C   MOL     1     -44.936  -8.759  18.532  1.00 -0.37     0.038 A 
HETATM   43  C   MOL     1     -44.054 -10.822  19.697  1.00 -0.44     0.151 A 
HETATM   44  C   MOL     1     -46.129  -8.052  18.709  1.00 -0.17     0.034 A 
HETATM   45  N   MOL     1     -44.286 -11.750  20.635  1.00 -0.19    -0.221 NA
HETATM   46  C   MOL     1     -45.477 -11.624  21.304  1.00 -0.33     0.258 A 
BRANCH  43  47
HETATM   47  N   MOL     1     -42.870 -10.914  19.003  1.00 -0.25    -0.382 N 
HETATM   48  H   MOL     1     -42.538 -11.706  18.809  1.00 -0.27     0.157 HD
HETATM   49  H   MOL     1     -42.443 -10.187  18.751  1.00 -0.19     0.157 HD
ENDBRANCH  43  47
ENDBRANCH  33  38
BRANCH  34  50
HETATM   50  O   MOL     1     -48.947 -10.569  19.505  1.00  0.41    -0.388 OA
HETATM   51  H   MOL     1     -49.445 -11.259  20.041  1.00 -0.42     0.210 HD
ENDBRANCH  34  50
BRANCH  36  52
HETATM   52  O   MOL     1     -49.340  -8.874  17.454  1.00  0.07    -0.390 OA
HETATM   53  H   MOL     1     -48.993  -9.818  17.495  1.00 -0.09     0.210 HD
ENDBRANCH  36  52
ENDBRANCH  30  31
ENDBRANCH  29  30
ENDBRANCH  27  29
BRANCH  27  54
HETATM   54  O   MOL     1     -52.145  -5.738  16.603  1.00  0.13    -0.260 OA
BRANCH  54  55
HETATM   55  C   MOL     1     -53.403  -6.119  16.226  1.00 -0.29     0.080 A 
HETATM   56  C   MOL     1     -54.357  -5.199  15.834  1.00 -0.28     0.037 A 
HETATM   57  C   MOL     1     -55.612  -5.615  15.456  1.00 -0.40     0.003 A 
HETATM   58  C   MOL     1     -55.925  -6.955  15.465  1.00 -0.35     0.000 A 
HETATM   59  C   MOL     1     -54.981  -7.878  15.853  1.00 -0.47     0.003 A 
HETATM   60  C   MOL     1     -53.727  -7.462  16.234  1.00 -0.37     0.037 A 
ENDBRANCH  54  55
ENDBRANCH  27  54
ENDBRANCH  25  27
ENDBRANCH  17  25
ENDBRANCH  16  17
ENDBRANCH  13  16
ENDBRANCH   8  13
ENDBRANCH   7   8
ENDBRANCH   3   7
TORSDOF 20
ENDMDL
MODEL 5
REMARK VINA RESULT:      -8.0      2.620      3.615
REMARK  20 active torsions:
REMARK  status: ('A' for Active; 'I' for Inactive)
REMARK    1  A    between atoms: C_3  and  C_7 
REMARK    2  A    between atoms: C_7  and  C_8 
REMARK    3  A    between atoms: C_8  and  N_9 
REMARK    4  A    between atoms: C_8  and  C_10 
REMARK    5  A    between atoms: C_10  and  O_11 
REMARK    6  A    between atoms: C_10  and  C_12 
REMARK    7  A    between atoms: C_12  and  C_13 
REMARK    8  A    between atoms: C_13  and  C_14 
REMARK    9  A    between atoms: C_13  and  N_21 
REMARK   10  A    between atoms: C_14  and  C_15 
REMARK   11  A    between atoms: N_21  and  P_22 
REMARK   12  A    between atoms: P_22  and  O_23 
REMARK   13  A    between atoms: P_22  and  O_24 
REMARK   14  A    between atoms: O_23  and  C_26 
REMARK   15  A    between atoms: O_24  and  C_27 
REMARK   16  A    between atoms: C_26  and  C_33 
REMARK   17  A    between atoms: C_35  and  C_40 
REMARK   18  A    between atoms: C_36  and  O_39 
REMARK   19  A    between atoms: C_37  and  O_38 
REMARK   20  A    between atoms: C_50  and  N_51 
ROOT
HETATM    1  C   MOL     1     -42.937  -1.292  19.184  1.00 -0.25     0.001 A 
HETATM    2  C   MOL     1     -43.848  -1.563  18.188  1.00 -0.30     0.007 A 
HETATM    3  C   MOL     1     -44.515  -0.536  17.557  1.00 -0.25    -0.056 A 
HETATM    4  C   MOL     1     -44.262   0.767  17.930  1.00 -0.33     0.007 A 
HETATM    5  C   MOL     1     -43.353   1.040  18.927  1.00 -0.34     0.001 A 
HETATM    6  C   MOL     1     -42.690   0.010  19.554  1.00 -0.27     0.000 A 
ENDROOT
BRANCH   3   7
HETATM    7  C   MOL     1     -45.520  -0.837  16.454  1.00 -0.43     0.074 C 
BRANCH   7   8
HETATM    8  C   MOL     1     -45.852  -2.334  16.262  1.00 -0.43     0.216 C 
BRANCH   8   9
HETATM    9  N   MOL     1     -45.916  -2.639  14.790  1.00  0.05    -0.072 N 
HETATM   10  H   MOL     1     -46.754  -2.877  14.530  1.00 -0.64     0.274 HD
HETATM   11  H   MOL     1     -45.677  -1.918  14.287  1.00 -0.76     0.274 HD
HETATM   12  H   MOL     1     -45.355  -3.312  14.551  1.00 -0.15     0.274 HD
ENDBRANCH   8   9
BRANCH   8  13
HETATM   13  C   MOL     1     -47.187  -2.673  16.965  1.00 -0.29     0.150 C 
BRANCH  13  14
HETATM   14  O   MOL     1     -47.838  -3.762  16.286  1.00  0.06    -0.393 OA
HETATM   15  H   MOL     1     -47.194  -4.259  15.694  1.00 -0.27     0.210 HD
ENDBRANCH  13  14
BRANCH  13  16
HETATM   16  C   MOL     1     -48.133  -1.453  16.989  1.00 -0.14     0.054 C 
BRANCH  16  17
HETATM   17  C   MOL     1     -48.704  -1.202  18.403  1.00 -0.12     0.073 C 
BRANCH  17  18
HETATM   18  C   MOL     1     -48.443   0.266  18.810  1.00 -0.13     0.058 C 
BRANCH  18  19
HETATM   19  C   MOL     1     -47.400   0.470  19.898  1.00 -0.16    -0.057 A 
HETATM   20  C   MOL     1     -46.812  -0.617  20.509  1.00 -0.21     0.007 A 
HETATM   21  C   MOL     1     -45.870  -0.434  21.497  1.00 -0.25     0.001 A 
HETATM   22  C   MOL     1     -45.513   0.838  21.879  1.00 -0.37     0.000 A 
HETATM   23  C   MOL     1     -46.097   1.927  21.273  1.00 -0.40     0.001 A 
HETATM   24  C   MOL     1     -47.038   1.742  20.285  1.00 -0.21     0.007 A 
ENDBRANCH  18  19
ENDBRANCH  17  18
BRANCH  17  25
HETATM   25  N   MOL     1     -50.151  -1.460  18.405  1.00  0.15    -0.221 NA
HETATM   26  H   MOL     1     -50.518  -1.424  17.445  1.00  0.32     0.134 HD
BRANCH  25  27
HETATM   27  P   MOL     1     -50.544  -2.750  19.079  1.00  0.09     0.413 P 
HETATM   28  O   MOL     1     -51.958  -2.692  19.595  1.00  0.07    -0.239 OA
BRANCH  27  29
HETATM   29  O   MOL     1     -49.533  -3.118  20.274  1.00  0.12    -0.299 OA
BRANCH  29  30
HETATM   30  C   MOL     1     -49.840  -2.672  21.603  1.00 -0.20     0.214 C 
BRANCH  30  31
HETATM   31  C   MOL     1     -49.708  -3.845  22.588  1.00 -0.04     0.180 C 
HETATM   32  O   MOL     1     -49.013  -4.954  21.993  1.00  0.26    -0.347 OA
HETATM   33  C   MOL     1     -49.531  -6.198  22.499  1.00 -0.04     0.222 C 
HETATM   34  C   MOL     1     -50.680  -5.823  23.464  1.00 -0.10     0.205 C 
HETATM   35  C   MOL     1     -48.457  -6.881  23.232  1.00 -0.21     0.107 C 
HETATM   36  C   MOL     1     -51.064  -4.396  23.050  1.00 -0.06     0.182 C 
HETATM   37  N   MOL     1     -47.625  -7.409  23.800  1.00  0.07    -0.193 NA
BRANCH  33  38
HETATM   38  C   MOL     1     -49.931  -6.998  21.265  1.00 -0.19     0.088 A 
HETATM   39  N   MOL     1     -49.069  -7.169  20.234  1.00 -0.03    -0.229 N 
HETATM   40  C   MOL     1     -49.746  -7.915  19.321  1.00 -0.22     0.104 A 
HETATM   41  N   MOL     1     -47.789  -6.757  19.997  1.00  0.23    -0.160 NA
HETATM   42  C   MOL     1     -50.999  -8.207  19.757  1.00 -0.37     0.038 A 
HETATM   43  C   MOL     1     -49.075  -8.254  18.118  1.00 -0.44     0.151 A 
HETATM   44  C   MOL     1     -51.111  -7.608  21.015  1.00 -0.17     0.034 A 
HETATM   45  N   MOL     1     -47.819  -7.857  17.871  1.00 -0.19    -0.221 NA
HETATM   46  C   MOL     1     -47.235  -7.107  18.860  1.00 -0.33     0.258 A 
BRANCH  43  47
HETATM   47  N   MOL     1     -49.695  -9.009  17.151  1.00 -0.25    -0.382 N 
HETATM   48  H   MOL     1     -49.467  -8.911  16.307  1.00 -0.27     0.157 HD
HETATM   49  H   MOL     1     -50.319  -9.590  17.371  1.00 -0.19     0.157 HD
ENDBRANCH  43  47
ENDBRANCH  33  38
BRANCH  34  50
HETATM   50  O   MOL     1     -51.801  -6.719  23.395  1.00  0.41    -0.388 OA
HETATM   51  H   MOL     1     -51.742  -7.433  24.102  1.00 -0.42     0.210 HD
ENDBRANCH  34  50
BRANCH  36  52
HETATM   52  O   MOL     1     -52.016  -4.446  21.975  1.00  0.07    -0.390 OA
HETATM   53  H   MOL     1     -51.886  -5.268  21.410  1.00 -0.09     0.210 HD
ENDBRANCH  36  52
ENDBRANCH  30  31
ENDBRANCH  29  30
ENDBRANCH  27  29
BRANCH  27  54
HETATM   54  O   MOL     1     -50.366  -3.988  18.060  1.00  0.13    -0.260 OA
BRANCH  54  55
HETATM   55  C   MOL     1     -51.383  -4.423  17.257  1.00 -0.29     0.080 A 
HETATM   56  C   MOL     1     -52.143  -5.533  17.579  1.00 -0.28     0.037 A 
HETATM   57  C   MOL     1     -53.162  -5.943  16.752  1.00 -0.40     0.003 A 
HETATM   58  C   MOL     1     -53.433  -5.248  15.596  1.00 -0.35     0.000 A 
HETATM   59  C   MOL     1     -52.682  -4.143  15.267  1.00 -0.47     0.003 A 
HETATM   60  C   MOL     1     -51.661  -3.734  16.092  1.00 -0.37     0.037 A 
ENDBRANCH  54  55
ENDBRANCH  27  54
ENDBRANCH  25  27
ENDBRANCH  17  25
ENDBRANCH  16  17
ENDBRANCH  13  16
ENDBRANCH   8  13
ENDBRANCH   7   8
ENDBRANCH   3   7
TORSDOF 20
ENDMDL
MODEL 6
REMARK VINA RESULT:      -7.9      2.060      2.462
REMARK  20 active torsions:
REMARK  status: ('A' for Active; 'I' for Inactive)
REMARK    1  A    between atoms: C_3  and  C_7 
REMARK    2  A    between atoms: C_7  and  C_8 
REMARK    3  A    between atoms: C_8  and  N_9 
REMARK    4  A    between atoms: C_8  and  C_10 
REMARK    5  A    between atoms: C_10  and  O_11 
REMARK    6  A    between atoms: C_10  and  C_12 
REMARK    7  A    between atoms: C_12  and  C_13 
REMARK    8  A    between atoms: C_13  and  C_14 
REMARK    9  A    between atoms: C_13  and  N_21 
REMARK   10  A    between atoms: C_14  and  C_15 
REMARK   11  A    between atoms: N_21  and  P_22 
REMARK   12  A    between atoms: P_22  and  O_23 
REMARK   13  A    between atoms: P_22  and  O_24 
REMARK   14  A    between atoms: O_23  and  C_26 
REMARK   15  A    between atoms: O_24  and  C_27 
REMARK   16  A    between atoms: C_26  and  C_33 
REMARK   17  A    between atoms: C_35  and  C_40 
REMARK   18  A    between atoms: C_36  and  O_39 
REMARK   19  A    between atoms: C_37  and  O_38 
REMARK   20  A    between atoms: C_50  and  N_51 
ROOT
HETATM    1  C   MOL     1     -43.446   1.057  18.894  1.00 -0.25     0.001 A 
HETATM    2  C   MOL     1     -44.407   0.761  17.953  1.00 -0.30     0.007 A 
HETATM    3  C   MOL     1     -44.694  -0.550  17.640  1.00 -0.25    -0.056 A 
HETATM    4  C   MOL     1     -44.011  -1.564  18.277  1.00 -0.33     0.007 A 
HETATM    5  C   MOL     1     -43.049  -1.270  19.217  1.00 -0.34     0.001 A 
HETATM    6  C   MOL     1     -42.767   0.041  19.525  1.00 -0.27     0.000 A 
ENDROOT
BRANCH   3   7
HETATM    7  C   MOL     1     -45.758  -0.876  16.601  1.00 -0.43     0.074 C 
BRANCH   7   8
HETATM    8  C   MOL     1     -45.919  -2.378  16.278  1.00 -0.43     0.216 C 
BRANCH   8   9
HETATM    9  N   MOL     1     -46.021  -2.551  14.787  1.00  0.05    -0.072 N 
HETATM   10  H   MOL     1     -46.039  -3.429  14.549  1.00 -0.64     0.274 HD
HETATM   11  H   MOL     1     -46.780  -2.172  14.456  1.00 -0.76     0.274 HD
HETATM   12  H   MOL     1     -45.329  -2.164  14.344  1.00 -0.15     0.274 HD
ENDBRANCH   8   9
BRANCH   8  13
HETATM   13  C   MOL     1     -47.166  -2.942  16.997  1.00 -0.29     0.150 C 
BRANCH  13  14
HETATM   14  O   MOL     1     -47.716  -4.036  16.241  1.00  0.06    -0.393 OA
HETATM   15  H   MOL     1     -48.545  -4.401  16.678  1.00 -0.27     0.210 HD
ENDBRANCH  13  14
BRANCH  13  16
HETATM   16  C   MOL     1     -48.249  -1.856  17.178  1.00 -0.14     0.054 C 
BRANCH  16  17
HETATM   17  C   MOL     1     -48.826  -1.859  18.611  1.00 -0.12     0.073 C 
BRANCH  17  18
HETATM   18  C   MOL     1     -49.020  -0.402  19.090  1.00 -0.13     0.058 C 
BRANCH  18  19
HETATM   19  C   MOL     1     -47.882   0.173  19.919  1.00 -0.16    -0.057 A 
HETATM   20  C   MOL     1     -47.671   1.534  19.962  1.00 -0.21     0.007 A 
HETATM   21  C   MOL     1     -46.639   2.055  20.710  1.00 -0.25     0.001 A 
HETATM   22  C   MOL     1     -45.811   1.216  21.418  1.00 -0.37     0.000 A 
HETATM   23  C   MOL     1     -46.017  -0.145  21.379  1.00 -0.40     0.001 A 
HETATM   24  C   MOL     1     -47.050  -0.664  20.632  1.00 -0.21     0.007 A 
ENDBRANCH  18  19
ENDBRANCH  17  18
BRANCH  17  25
HETATM   25  N   MOL     1     -50.121  -2.553  18.621  1.00  0.15    -0.221 NA
HETATM   26  H   MOL     1     -50.450  -2.703  17.658  1.00  0.32     0.134 HD
BRANCH  25  27
HETATM   27  P   MOL     1     -50.117  -3.850  19.390  1.00  0.09     0.413 P 
HETATM   28  O   MOL     1     -49.717  -3.636  20.826  1.00  0.07    -0.239 OA
BRANCH  27  29
HETATM   29  O   MOL     1     -49.151  -4.935  18.703  1.00  0.12    -0.299 OA
BRANCH  29  30
HETATM   30  C   MOL     1     -49.714  -6.172  18.241  1.00 -0.20     0.214 C 
BRANCH  30  31
HETATM   31  C   MOL     1     -49.568  -7.248  19.330  1.00 -0.04     0.180 C 
HETATM   32  O   MOL     1     -48.241  -7.258  19.882  1.00  0.26    -0.347 OA
HETATM   33  C   MOL     1     -47.861  -8.600  20.242  1.00 -0.04     0.222 C 
HETATM   34  C   MOL     1     -49.047  -9.505  19.835  1.00 -0.10     0.205 C 
HETATM   35  C   MOL     1     -47.661  -8.648  21.696  1.00 -0.21     0.107 C 
HETATM   36  C   MOL     1     -49.820  -8.669  18.807  1.00 -0.06     0.182 C 
HETATM   37  N   MOL     1     -47.508  -8.686  22.822  1.00  0.07    -0.193 NA
BRANCH  33  38
HETATM   38  C   MOL     1     -46.547  -8.854  19.511  1.00 -0.19     0.088 A 
HETATM   39  N   MOL     1     -45.803  -9.955  19.776  1.00 -0.03    -0.229 N 
HETATM   40  C   MOL     1     -44.720  -9.858  18.960  1.00 -0.22     0.104 A 
HETATM   41  N   MOL     1     -45.951 -11.011  20.629  1.00  0.23    -0.160 NA
HETATM   42  C   MOL     1     -44.773  -8.732  18.204  1.00 -0.37     0.038 A 
HETATM   43  C   MOL     1     -43.753 -10.895  19.024  1.00 -0.44     0.151 A 
HETATM   44  C   MOL     1     -45.958  -8.087  18.568  1.00 -0.17     0.034 A 
HETATM   45  N   MOL     1     -43.884 -11.937  19.855  1.00 -0.19    -0.221 NA
HETATM   46  C   MOL     1     -45.014 -11.929  20.633  1.00 -0.33     0.258 A 
BRANCH  43  47
HETATM   47  N   MOL     1     -42.633 -10.866  18.226  1.00 -0.25    -0.382 N 
HETATM   48  H   MOL     1     -42.719 -10.751  17.357  1.00 -0.27     0.157 HD
HETATM   49  H   MOL     1     -41.832 -10.961  18.578  1.00 -0.19     0.157 HD
ENDBRANCH  43  47
ENDBRANCH  33  38
BRANCH  34  50
HETATM   50  O   MOL     1     -48.641 -10.773  19.296  1.00  0.41    -0.388 OA
HETATM   51  H   MOL     1     -49.107 -10.967  18.426  1.00 -0.42     0.210 HD
ENDBRANCH  34  50
BRANCH  36  52
HETATM   52  O   MOL     1     -49.254  -8.866  17.502  1.00  0.07    -0.390 OA
HETATM   53  H   MOL     1     -49.276  -9.837  17.237  1.00 -0.09     0.210 HD
ENDBRANCH  36  52
ENDBRANCH  30  31
ENDBRANCH  29  30
ENDBRANCH  27  29
BRANCH  27  54
HETATM   54  O   MOL     1     -51.568  -4.551  19.307  1.00  0.13    -0.260 OA
BRANCH  54  55
HETATM   55  C   MOL     1     -52.384  -4.670  20.397  1.00 -0.29     0.080 A 
HETATM   56  C   MOL     1     -53.206  -3.636  20.808  1.00 -0.28     0.037 A 
HETATM   57  C   MOL     1     -54.019  -3.788  21.906  1.00 -0.40     0.003 A 
HETATM   58  C   MOL     1     -54.020  -4.975  22.604  1.00 -0.35     0.000 A 
HETATM   59  C   MOL     1     -53.205  -6.008  22.202  1.00 -0.47     0.003 A 
HETATM   60  C   MOL     1     -52.390  -5.855  21.105  1.00 -0.37     0.037 A 
ENDBRANCH  54  55
ENDBRANCH  27  54
ENDBRANCH  25  27
ENDBRANCH  17  25
ENDBRANCH  16  17
ENDBRANCH  13  16
ENDBRANCH   8  13
ENDBRANCH   7   8
ENDBRANCH   3   7
TORSDOF 20
ENDMDL
MODEL 7
REMARK VINA RESULT:      -7.8      6.748     14.765
REMARK  20 active torsions:
REMARK  status: ('A' for Active; 'I' for Inactive)
REMARK    1  A    between atoms: C_3  and  C_7 
REMARK    2  A    between atoms: C_7  and  C_8 
REMARK    3  A    between atoms: C_8  and  N_9 
REMARK    4  A    between atoms: C_8  and  C_10 
REMARK    5  A    between atoms: C_10  and  O_11 
REMARK    6  A    between atoms: C_10  and  C_12 
REMARK    7  A    between atoms: C_12  and  C_13 
REMARK    8  A    between atoms: C_13  and  C_14 
REMARK    9  A    between atoms: C_13  and  N_21 
REMARK   10  A    between atoms: C_14  and  C_15 
REMARK   11  A    between atoms: N_21  and  P_22 
REMARK   12  A    between atoms: P_22  and  O_23 
REMARK   13  A    between atoms: P_22  and  O_24 
REMARK   14  A    between atoms: O_23  and  C_26 
REMARK   15  A    between atoms: O_24  and  C_27 
REMARK   16  A    between atoms: C_26  and  C_33 
REMARK   17  A    between atoms: C_35  and  C_40 
REMARK   18  A    between atoms: C_36  and  O_39 
REMARK   19  A    between atoms: C_37  and  O_38 
REMARK   20  A    between atoms: C_50  and  N_51 
ROOT
HETATM    1  C   MOL     1     -48.510 -13.233  29.542  1.00 -0.25     0.001 A 
HETATM    2  C   MOL     1     -48.625 -14.195  28.564  1.00 -0.30     0.007 A 
HETATM    3  C   MOL     1     -47.884 -15.354  28.637  1.00 -0.25    -0.056 A 
HETATM    4  C   MOL     1     -47.025 -15.542  29.699  1.00 -0.33     0.007 A 
HETATM    5  C   MOL     1     -46.908 -14.581  30.677  1.00 -0.34     0.001 A 
HETATM    6  C   MOL     1     -47.651 -13.425  30.597  1.00 -0.27     0.000 A 
ENDROOT
BRANCH   3   7
HETATM    7  C   MOL     1     -48.015 -16.418  27.557  1.00 -0.43     0.074 C 
BRANCH   7   8
HETATM    8  C   MOL     1     -49.151 -16.180  26.538  1.00 -0.43     0.216 C 
BRANCH   8   9
HETATM    9  N   MOL     1     -50.422 -16.787  27.069  1.00  0.05    -0.072 N 
HETATM   10  H   MOL     1     -50.519 -16.642  27.961  1.00 -0.64     0.274 HD
HETATM   11  H   MOL     1     -51.157 -16.436  26.662  1.00 -0.76     0.274 HD
HETATM   12  H   MOL     1     -50.461 -17.684  26.933  1.00 -0.15     0.274 HD
ENDBRANCH   8   9
BRANCH   8  13
HETATM   13  C   MOL     1     -48.768 -16.786  25.168  1.00 -0.29     0.150 C 
BRANCH  13  14
HETATM   14  O   MOL     1     -49.893 -17.489  24.610  1.00  0.06    -0.393 OA
HETATM   15  H   MOL     1     -50.573 -16.849  24.236  1.00 -0.27     0.210 HD
ENDBRANCH  13  14
BRANCH  13  16
HETATM   16  C   MOL     1     -47.576 -17.758  25.299  1.00 -0.14     0.054 C 
BRANCH  16  17
HETATM   17  C   MOL     1     -46.874 -17.986  23.941  1.00 -0.12     0.073 C 
BRANCH  17  18
HETATM   18  C   MOL     1     -47.159 -19.423  23.450  1.00 -0.13     0.058 C 
BRANCH  18  19
HETATM   19  C   MOL     1     -46.144 -20.475  23.870  1.00 -0.16    -0.057 A 
HETATM   20  C   MOL     1     -44.795 -20.239  23.716  1.00 -0.21     0.007 A 
HETATM   21  C   MOL     1     -43.875 -21.192  24.093  1.00 -0.25     0.001 A 
HETATM   22  C   MOL     1     -44.301 -22.386  24.625  1.00 -0.37     0.000 A 
HETATM   23  C   MOL     1     -45.648 -22.627  24.782  1.00 -0.40     0.001 A 
HETATM   24  C   MOL     1     -46.565 -21.673  24.405  1.00 -0.21     0.007 A 
ENDBRANCH  18  19
ENDBRANCH  17  18
BRANCH  17  25
HETATM   25  N   MOL     1     -47.379 -17.022  22.955  1.00  0.15    -0.221 NA
HETATM   26  H   MOL     1     -48.265 -16.613  23.280  1.00  0.32     0.134 HD
BRANCH  25  27
HETATM   27  P   MOL     1     -46.394 -15.939  22.593  1.00  0.09     0.413 P 
HETATM   28  O   MOL     1     -45.169 -15.995  23.467  1.00  0.07    -0.239 OA
BRANCH  27  29
HETATM   29  O   MOL     1     -47.069 -14.482  22.678  1.00  0.12    -0.299 OA
BRANCH  29  30
HETATM   30  C   MOL     1     -47.724 -13.952  21.517  1.00 -0.20     0.214 C 
BRANCH  30  31
HETATM   31  C   MOL     1     -46.966 -12.714  21.012  1.00 -0.04     0.180 C 
HETATM   32  O   MOL     1     -47.171 -11.585  21.878  1.00  0.26    -0.347 OA
HETATM   33  C   MOL     1     -47.179 -10.364  21.114  1.00 -0.04     0.222 C 
HETATM   34  C   MOL     1     -47.007 -10.784  19.635  1.00 -0.10     0.205 C 
HETATM   35  C   MOL     1     -46.041  -9.542  21.543  1.00 -0.21     0.107 C 
HETATM   36  C   MOL     1     -47.417 -12.262  19.616  1.00 -0.06     0.182 C 
HETATM   37  N   MOL     1     -45.159  -8.907  21.876  1.00  0.07    -0.193 NA
BRANCH  33  38
HETATM   38  C   MOL     1     -48.497  -9.682  21.464  1.00 -0.19     0.088 A 
HETATM   39  N   MOL     1     -48.808  -8.465  20.958  1.00 -0.03    -0.229 N 
HETATM   40  C   MOL     1     -50.030  -8.165  21.473  1.00 -0.22     0.104 A 
HETATM   41  N   MOL     1     -48.166  -7.599  20.119  1.00  0.23    -0.160 NA
HETATM   42  C   MOL     1     -50.480  -9.159  22.282  1.00 -0.37     0.038 A 
HETATM   43  C   MOL     1     -50.615  -6.926  21.105  1.00 -0.44     0.151 A 
HETATM   44  C   MOL     1     -49.480 -10.136  22.272  1.00 -0.17     0.034 A 
HETATM   45  N   MOL     1     -49.997  -6.066  20.283  1.00 -0.19    -0.221 NA
HETATM   46  C   MOL     1     -48.768  -6.471  19.827  1.00 -0.33     0.258 A 
BRANCH  43  47
HETATM   47  N   MOL     1     -51.850  -6.557  21.583  1.00 -0.25    -0.382 N 
HETATM   48  H   MOL     1     -52.054  -5.704  21.655  1.00 -0.27     0.157 HD
HETATM   49  H   MOL     1     -52.438  -7.169  21.817  1.00 -0.19     0.157 HD
ENDBRANCH  43  47
ENDBRANCH  33  38
BRANCH  34  50
HETATM   50  O   MOL     1     -47.792 -10.000  18.723  1.00  0.41    -0.388 OA
HETATM   51  H   MOL     1     -47.281  -9.795  17.881  1.00 -0.42     0.210 HD
ENDBRANCH  34  50
BRANCH  36  52
HETATM   52  O   MOL     1     -48.840 -12.366  19.454  1.00  0.07    -0.390 OA
HETATM   53  H   MOL     1     -49.132 -13.327  19.392  1.00 -0.09     0.210 HD
ENDBRANCH  36  52
ENDBRANCH  30  31
ENDBRANCH  29  30
ENDBRANCH  27  29
BRANCH  27  54
HETATM   54  O   MOL     1     -45.984 -16.058  21.037  1.00  0.13    -0.260 OA
BRANCH  54  55
HETATM   55  C   MOL     1     -45.979 -17.253  20.374  1.00 -0.29     0.080 A 
HETATM   56  C   MOL     1     -45.062 -18.246  20.667  1.00 -0.28     0.037 A 
HETATM   57  C   MOL     1     -45.085 -19.439  19.983  1.00 -0.40     0.003 A 
HETATM   58  C   MOL     1     -46.026 -19.652  19.002  1.00 -0.35     0.000 A 
HETATM   59  C   MOL     1     -46.942 -18.670  18.704  1.00 -0.47     0.003 A 
HETATM   60  C   MOL     1     -46.917 -17.476  19.384  1.00 -0.37     0.037 A 
ENDBRANCH  54  55
ENDBRANCH  27  54
ENDBRANCH  25  27
ENDBRANCH  17  25
ENDBRANCH  16  17
ENDBRANCH  13  16
ENDBRANCH   8  13
ENDBRANCH   7   8
ENDBRANCH   3   7
TORSDOF 20
ENDMDL
MODEL 8
REMARK VINA RESULT:      -7.8      6.423     13.912
REMARK  20 active torsions:
REMARK  status: ('A' for Active; 'I' for Inactive)
REMARK    1  A    between atoms: C_3  and  C_7 
REMARK    2  A    between atoms: C_7  and  C_8 
REMARK    3  A    between atoms: C_8  and  N_9 
REMARK    4  A    between atoms: C_8  and  C_10 
REMARK    5  A    between atoms: C_10  and  O_11 
REMARK    6  A    between atoms: C_10  and  C_12 
REMARK    7  A    between atoms: C_12  and  C_13 
REMARK    8  A    between atoms: C_13  and  C_14 
REMARK    9  A    between atoms: C_13  and  N_21 
REMARK   10  A    between atoms: C_14  and  C_15 
REMARK   11  A    between atoms: N_21  and  P_22 
REMARK   12  A    between atoms: P_22  and  O_23 
REMARK   13  A    between atoms: P_22  and  O_24 
REMARK   14  A    between atoms: O_23  and  C_26 
REMARK   15  A    between atoms: O_24  and  C_27 
REMARK   16  A    between atoms: C_26  and  C_33 
REMARK   17  A    between atoms: C_35  and  C_40 
REMARK   18  A    between atoms: C_36  and  O_39 
REMARK   19  A    between atoms: C_37  and  O_38 
REMARK   20  A    between atoms: C_50  and  N_51 
ROOT
HETATM    1  C   MOL     1     -48.038 -13.064  29.858  1.00 -0.25     0.001 A 
HETATM    2  C   MOL     1     -48.266 -14.010  28.884  1.00 -0.30     0.007 A 
HETATM    3  C   MOL     1     -47.794 -15.295  29.039  1.00 -0.25    -0.056 A 
HETATM    4  C   MOL     1     -47.091 -15.626  30.178  1.00 -0.33     0.007 A 
HETATM    5  C   MOL     1     -46.861 -14.681  31.151  1.00 -0.34     0.001 A 
HETATM    6  C   MOL     1     -47.335 -13.400  30.991  1.00 -0.27     0.000 A 
ENDROOT
BRANCH   3   7
HETATM    7  C   MOL     1     -48.050 -16.341  27.963  1.00 -0.43     0.074 C 
BRANCH   7   8
HETATM    8  C   MOL     1     -49.075 -15.931  26.882  1.00 -0.43     0.216 C 
BRANCH   8   9
HETATM    9  N   MOL     1     -50.417 -16.519  27.230  1.00  0.05    -0.072 N 
HETATM   10  H   MOL     1     -50.403 -16.940  28.035  1.00 -0.64     0.274 HD
HETATM   11  H   MOL     1     -51.062 -15.878  27.277  1.00 -0.76     0.274 HD
HETATM   12  H   MOL     1     -50.701 -17.121  26.613  1.00 -0.15     0.274 HD
ENDBRANCH   8   9
BRANCH   8  13
HETATM   13  C   MOL     1     -48.596 -16.407  25.491  1.00 -0.29     0.150 C 
BRANCH  13  14
HETATM   14  O   MOL     1     -49.580 -17.277  24.904  1.00  0.06    -0.393 OA
HETATM   15  H   MOL     1     -49.163 -17.897  24.230  1.00 -0.27     0.210 HD
ENDBRANCH  13  14
BRANCH  13  16
HETATM   16  C   MOL     1     -47.250 -17.156  25.588  1.00 -0.14     0.054 C 
BRANCH  16  17
HETATM   17  C   MOL     1     -46.163 -16.493  24.712  1.00 -0.12     0.073 C 
BRANCH  17  18
HETATM   18  C   MOL     1     -44.786 -16.650  25.395  1.00 -0.13     0.058 C 
BRANCH  18  19
HETATM   19  C   MOL     1     -44.544 -15.753  26.599  1.00 -0.16    -0.057 A 
HETATM   20  C   MOL     1     -43.943 -16.257  27.732  1.00 -0.21     0.007 A 
HETATM   21  C   MOL     1     -43.726 -15.447  28.824  1.00 -0.25     0.001 A 
HETATM   22  C   MOL     1     -44.112 -14.128  28.788  1.00 -0.37     0.000 A 
HETATM   23  C   MOL     1     -44.714 -13.618  27.659  1.00 -0.40     0.001 A 
HETATM   24  C   MOL     1     -44.928 -14.430  26.568  1.00 -0.21     0.007 A 
ENDBRANCH  18  19
ENDBRANCH  17  18
BRANCH  17  25
HETATM   25  N   MOL     1     -46.132 -17.138  23.392  1.00  0.15    -0.221 NA
HETATM   26  H   MOL     1     -46.871 -17.849  23.327  1.00  0.32     0.134 HD
BRANCH  25  27
HETATM   27  P   MOL     1     -46.216 -16.174  22.235  1.00  0.09     0.413 P 
HETATM   28  O   MOL     1     -44.854 -15.876  21.667  1.00  0.07    -0.239 OA
BRANCH  27  29
HETATM   29  O   MOL     1     -46.947 -14.808  22.665  1.00  0.12    -0.299 OA
BRANCH  29  30
HETATM   30  C   MOL     1     -47.757 -14.121  21.699  1.00 -0.20     0.214 C 
BRANCH  30  31
HETATM   31  C   MOL     1     -46.973 -12.936  21.112  1.00 -0.04     0.180 C 
HETATM   32  O   MOL     1     -47.078 -11.772  21.950  1.00  0.26    -0.347 OA
HETATM   33  C   MOL     1     -47.074 -10.577  21.147  1.00 -0.04     0.222 C 
HETATM   34  C   MOL     1     -47.004 -11.049  19.675  1.00 -0.10     0.205 C 
HETATM   35  C   MOL     1     -45.878  -9.796  21.486  1.00 -0.21     0.107 C 
HETATM   36  C   MOL     1     -47.480 -12.507  19.728  1.00 -0.06     0.182 C 
HETATM   37  N   MOL     1     -44.951  -9.192  21.748  1.00  0.07    -0.193 NA
BRANCH  33  38
HETATM   38  C   MOL     1     -48.338  -9.823  21.545  1.00 -0.19     0.088 A 
HETATM   39  N   MOL     1     -48.611  -8.599  21.033  1.00 -0.03    -0.229 N 
HETATM   40  C   MOL     1     -49.791  -8.230  21.599  1.00 -0.22     0.104 A 
HETATM   41  N   MOL     1     -47.965  -7.779  20.153  1.00  0.23    -0.160 NA
HETATM   42  C   MOL     1     -50.252  -9.188  22.444  1.00 -0.37     0.038 A 
HETATM   43  C   MOL     1     -50.329  -6.968  21.237  1.00 -0.44     0.151 A 
HETATM   44  C   MOL     1     -49.304 -10.214  22.405  1.00 -0.17     0.034 A 
HETATM   45  N   MOL     1     -49.707  -6.152  20.374  1.00 -0.19    -0.221 NA
HETATM   46  C   MOL     1     -48.523  -6.626  19.869  1.00 -0.33     0.258 A 
BRANCH  43  47
HETATM   47  N   MOL     1     -51.520  -6.530  21.765  1.00 -0.25    -0.382 N 
HETATM   48  H   MOL     1     -52.022  -5.970  21.307  1.00 -0.27     0.157 HD
HETATM   49  H   MOL     1     -51.785  -6.807  22.558  1.00 -0.19     0.157 HD
ENDBRANCH  43  47
ENDBRANCH  33  38
BRANCH  34  50
HETATM   50  O   MOL     1     -47.803 -10.258  18.782  1.00  0.41    -0.388 OA
HETATM   51  H   MOL     1     -48.067 -10.782  17.965  1.00 -0.42     0.210 HD
ENDBRANCH  34  50
BRANCH  36  52
HETATM   52  O   MOL     1     -48.914 -12.549  19.647  1.00  0.07    -0.390 OA
HETATM   53  H   MOL     1     -49.233 -13.422  19.263  1.00 -0.09     0.210 HD
ENDBRANCH  36  52
ENDBRANCH  30  31
ENDBRANCH  29  30
ENDBRANCH  27  29
BRANCH  27  54
HETATM   54  O   MOL     1     -47.190 -16.762  21.091  1.00  0.13    -0.260 OA
BRANCH  54  55
HETATM   55  C   MOL     1     -46.805 -17.772  20.254  1.00 -0.29     0.080 A 
HETATM   56  C   MOL     1     -46.035 -18.832  20.697  1.00 -0.28     0.037 A 
HETATM   57  C   MOL     1     -45.667 -19.835  19.831  1.00 -0.40     0.003 A 
HETATM   58  C   MOL     1     -46.066 -19.789  18.515  1.00 -0.35     0.000 A 
HETATM   59  C   MOL     1     -46.831 -18.737  18.065  1.00 -0.47     0.003 A 
HETATM   60  C   MOL     1     -47.197 -17.733  18.930  1.00 -0.37     0.037 A 
ENDBRANCH  54  55
ENDBRANCH  27  54
ENDBRANCH  25  27
ENDBRANCH  17  25
ENDBRANCH  16  17
ENDBRANCH  13  16
ENDBRANCH   8  13
ENDBRANCH   7   8
ENDBRANCH   3   7
TORSDOF 20
ENDMDL
MODEL 9
REMARK VINA RESULT:      -7.7      4.114      9.095
REMARK  20 active torsions:
REMARK  status: ('A' for Active; 'I' for Inactive)
REMARK    1  A    between atoms: C_3  and  C_7 
REMARK    2  A    between atoms: C_7  and  C_8 
REMARK    3  A    between atoms: C_8  and  N_9 
REMARK    4  A    between atoms: C_8  and  C_10 
REMARK    5  A    between atoms: C_10  and  O_11 
REMARK    6  A    between atoms: C_10  and  C_12 
REMARK    7  A    between atoms: C_12  and  C_13 
REMARK    8  A    between atoms: C_13  and  C_14 
REMARK    9  A    between atoms: C_13  and  N_21 
REMARK   10  A    between atoms: C_14  and  C_15 
REMARK   11  A    between atoms: N_21  and  P_22 
REMARK   12  A    between atoms: P_22  and  O_23 
REMARK   13  A    between atoms: P_22  and  O_24 
REMARK   14  A    between atoms: O_23  and  C_26 
REMARK   15  A    between atoms: O_24  and  C_27 
REMARK   16  A    between atoms: C_26  and  C_33 
REMARK   17  A    between atoms: C_35  and  C_40 
REMARK   18  A    between atoms: C_36  and  O_39 
REMARK   19  A    between atoms: C_37  and  O_38 
REMARK   20  A    between atoms: C_50  and  N_51 
ROOT
HETATM    1  C   MOL     1     -48.101  -7.658  19.401  1.00 -0.25     0.001 A 
HETATM    2  C   MOL     1     -49.138  -7.393  20.266  1.00 -0.30     0.007 A 
HETATM    3  C   MOL     1     -50.442  -7.612  19.878  1.00 -0.25    -0.056 A 
HETATM    4  C   MOL     1     -50.700  -8.098  18.614  1.00 -0.33     0.007 A 
HETATM    5  C   MOL     1     -49.664  -8.363  17.747  1.00 -0.34     0.001 A 
HETATM    6  C   MOL     1     -48.364  -8.142  18.141  1.00 -0.27     0.000 A 
ENDROOT
BRANCH   3   7
HETATM    7  C   MOL     1     -51.587  -7.321  20.838  1.00 -0.43     0.074 C 
BRANCH   7   8
HETATM    8  C   MOL     1     -51.186  -6.573  22.128  1.00 -0.43     0.216 C 
BRANCH   8   9
HETATM    9  N   MOL     1     -52.026  -7.078  23.271  1.00  0.05    -0.072 N 
HETATM   10  H   MOL     1     -52.008  -7.985  23.328  1.00 -0.64     0.274 HD
HETATM   11  H   MOL     1     -51.734  -6.755  24.070  1.00 -0.76     0.274 HD
HETATM   12  H   MOL     1     -52.896  -6.827  23.198  1.00 -0.15     0.274 HD
ENDBRANCH   8   9
BRANCH   8  13
HETATM   13  C   MOL     1     -51.362  -5.049  21.932  1.00 -0.29     0.150 C 
BRANCH  13  14
HETATM   14  O   MOL     1     -51.362  -4.385  23.208  1.00  0.06    -0.393 OA
HETATM   15  H   MOL     1     -50.798  -3.553  23.186  1.00 -0.27     0.210 HD
ENDBRANCH  13  14
BRANCH  13  16
HETATM   16  C   MOL     1     -52.679  -4.727  21.193  1.00 -0.14     0.054 C 
BRANCH  16  17
HETATM   17  C   MOL     1     -52.471  -3.665  20.091  1.00 -0.12     0.073 C 
BRANCH  17  18
HETATM   18  C   MOL     1     -52.561  -4.339  18.703  1.00 -0.13     0.058 C 
BRANCH  18  19
HETATM   19  C   MOL     1     -51.242  -4.500  17.964  1.00 -0.16    -0.057 A 
HETATM   20  C   MOL     1     -50.052  -4.212  18.596  1.00 -0.21     0.007 A 
HETATM   21  C   MOL     1     -48.856  -4.355  17.928  1.00 -0.25     0.001 A 
HETATM   22  C   MOL     1     -48.846  -4.785  16.622  1.00 -0.37     0.000 A 
HETATM   23  C   MOL     1     -50.033  -5.075  15.985  1.00 -0.40     0.001 A 
HETATM   24  C   MOL     1     -51.226  -4.932  16.656  1.00 -0.21     0.007 A 
ENDBRANCH  18  19
ENDBRANCH  17  18
BRANCH  17  25
HETATM   25  N   MOL     1     -53.506  -2.629  20.201  1.00  0.15    -0.221 NA
HETATM   26  H   MOL     1     -54.288  -2.969  20.775  1.00  0.32     0.134 HD
BRANCH  25  27
HETATM   27  P   MOL     1     -53.001  -1.305  20.718  1.00  0.09     0.413 P 
HETATM   28  O   MOL     1     -53.244  -0.198  19.727  1.00  0.07    -0.239 OA
BRANCH  27  29
HETATM   29  O   MOL     1     -51.438  -1.381  21.090  1.00  0.12    -0.299 OA
BRANCH  29  30
HETATM   30  C   MOL     1     -50.939  -0.563  22.158  1.00 -0.20     0.214 C 
BRANCH  30  31
HETATM   31  C   MOL     1     -49.635   0.124  21.719  1.00 -0.04     0.180 C 
HETATM   32  O   MOL     1     -49.765   0.711  20.413  1.00  0.26    -0.347 OA
HETATM   33  C   MOL     1     -48.513   0.636  19.706  1.00 -0.04     0.222 C 
HETATM   34  C   MOL     1     -47.532  -0.103  20.646  1.00 -0.10     0.205 C 
HETATM   35  C   MOL     1     -48.042   2.004  19.456  1.00 -0.21     0.107 C 
HETATM   36  C   MOL     1     -48.447  -0.844  21.631  1.00 -0.06     0.182 C 
HETATM   37  N   MOL     1     -47.676   3.064  19.264  1.00  0.07    -0.193 NA
BRANCH  33  38
HETATM   38  C   MOL     1     -48.836  -0.068  18.392  1.00 -0.19     0.088 A 
HETATM   39  N   MOL     1     -47.883  -0.259  17.450  1.00 -0.03    -0.229 N 
HETATM   40  C   MOL     1     -48.512  -0.903  16.431  1.00 -0.22     0.104 A 
HETATM   41  N   MOL     1     -46.557   0.058  17.372  1.00  0.23    -0.160 NA
HETATM   42  C   MOL     1     -49.823  -1.112  16.716  1.00 -0.37     0.038 A 
HETATM   43  C   MOL     1     -47.741  -1.237  15.287  1.00 -0.44     0.151 A 
HETATM   44  C   MOL     1     -50.025  -0.567  17.987  1.00 -0.17     0.034 A 
HETATM   45  N   MOL     1     -46.439  -0.933  15.196  1.00 -0.19    -0.221 NA
HETATM   46  C   MOL     1     -45.911  -0.281  16.281  1.00 -0.33     0.258 A 
BRANCH  43  47
HETATM   47  N   MOL     1     -48.308  -1.892  14.220  1.00 -0.25    -0.382 N 
HETATM   48  H   MOL     1     -48.918  -1.486  13.732  1.00 -0.27     0.157 HD
HETATM   49  H   MOL     1     -48.064  -2.714  14.020  1.00 -0.19     0.157 HD
ENDBRANCH  43  47
ENDBRANCH  33  38
BRANCH  34  50
HETATM   50  O   MOL     1     -46.648  -1.003  19.958  1.00  0.41    -0.388 OA
HETATM   51  H   MOL     1     -45.693  -0.866  20.243  1.00 -0.42     0.210 HD
ENDBRANCH  34  50
BRANCH  36  52
HETATM   52  O   MOL     1     -48.829  -2.111  21.074  1.00  0.07    -0.390 OA
HETATM   53  H   MOL     1     -49.737  -2.396  21.404  1.00 -0.09     0.210 HD
ENDBRANCH  36  52
ENDBRANCH  30  31
ENDBRANCH  29  30
ENDBRANCH  27  29
BRANCH  27  54
HETATM   54  O   MOL     1     -53.693  -0.960  22.133  1.00  0.13    -0.260 OA
BRANCH  54  55
HETATM   55  C   MOL     1     -54.585  -1.804  22.734  1.00 -0.29     0.080 A 
HETATM   56  C   MOL     1     -55.891  -1.919  22.294  1.00 -0.28     0.037 A 
HETATM   57  C   MOL     1     -56.762  -2.781  22.918  1.00 -0.40     0.003 A 
HETATM   58  C   MOL     1     -56.337  -3.537  23.986  1.00 -0.35     0.000 A 
HETATM   59  C   MOL     1     -55.039  -3.429  24.431  1.00 -0.47     0.003 A 
HETATM   60  C   MOL     1     -54.168  -2.565  23.810  1.00 -0.37     0.037 A 
ENDBRANCH  54  55
ENDBRANCH  27  54
ENDBRANCH  25  27
ENDBRANCH  17  25
ENDBRANCH  16  17
ENDBRANCH  13  16
ENDBRANCH   8  13
ENDBRANCH   7   8
ENDBRANCH   3   7
TORSDOF 20
ENDMDL
MODEL 10
REMARK VINA RESULT:      -7.7      3.918      9.180
REMARK  20 active torsions:
REMARK  status: ('A' for Active; 'I' for Inactive)
REMARK    1  A    between atoms: C_3  and  C_7 
REMARK    2  A    between atoms: C_7  and  C_8 
REMARK    3  A    between atoms: C_8  and  N_9 
REMARK    4  A    between atoms: C_8  and  C_10 
REMARK    5  A    between atoms: C_10  and  O_11 
REMARK    6  A    between atoms: C_10  and  C_12 
REMARK    7  A    between atoms: C_12  and  C_13 
REMARK    8  A    between atoms: C_13  and  C_14 
REMARK    9  A    between atoms: C_13  and  N_21 
REMARK   10  A    between atoms: C_14  and  C_15 
REMARK   11  A    between atoms: N_21  and  P_22 
REMARK   12  A    between atoms: P_22  and  O_23 
REMARK   13  A    between atoms: P_22  and  O_24 
REMARK   14  A    between atoms: O_23  and  C_26 
REMARK   15  A    between atoms: O_24  and  C_27 
REMARK   16  A    between atoms: C_26  and  C_33 
REMARK   17  A    between atoms: C_35  and  C_40 
REMARK   18  A    between atoms: C_36  and  O_39 
REMARK   19  A    between atoms: C_37  and  O_38 
REMARK   20  A    between atoms: C_50  and  N_51 
ROOT
HETATM    1  C   MOL     1     -56.238  -2.732  24.966  1.00 -0.25     0.001 A 
HETATM    2  C   MOL     1     -55.899  -2.425  23.668  1.00 -0.30     0.007 A 
HETATM    3  C   MOL     1     -55.117  -3.287  22.930  1.00 -0.25    -0.056 A 
HETATM    4  C   MOL     1     -54.678  -4.462  23.503  1.00 -0.33     0.007 A 
HETATM    5  C   MOL     1     -55.016  -4.770  24.802  1.00 -0.34     0.001 A 
HETATM    6  C   MOL     1     -55.796  -3.904  25.533  1.00 -0.27     0.000 A 
ENDROOT
BRANCH   3   7
HETATM    7  C   MOL     1     -54.745  -2.948  21.494  1.00 -0.43     0.074 C 
BRANCH   7   8
HETATM    8  C   MOL     1     -53.297  -2.448  21.294  1.00 -0.43     0.216 C 
BRANCH   8   9
HETATM    9  N   MOL     1     -53.231  -1.623  20.036  1.00  0.05    -0.072 N 
HETATM   10  H   MOL     1     -54.023  -1.213  19.859  1.00 -0.64     0.274 HD
HETATM   11  H   MOL     1     -52.601  -0.969  20.096  1.00 -0.76     0.274 HD
HETATM   12  H   MOL     1     -53.014  -2.120  19.307  1.00 -0.15     0.274 HD
ENDBRANCH   8   9
BRANCH   8  13
HETATM   13  C   MOL     1     -52.327  -3.650  21.230  1.00 -0.29     0.150 C 
BRANCH  13  14
HETATM   14  O   MOL     1     -51.003  -3.196  20.893  1.00  0.06    -0.393 OA
HETATM   15  H   MOL     1     -50.399  -3.206  21.697  1.00 -0.27     0.210 HD
ENDBRANCH  13  14
BRANCH  13  16
HETATM   16  C   MOL     1     -52.788  -4.688  20.184  1.00 -0.14     0.054 C 
BRANCH  16  17
HETATM   17  C   MOL     1     -51.671  -5.703  19.855  1.00 -0.12     0.073 C 
BRANCH  17  18
HETATM   18  C   MOL     1     -51.922  -7.014  20.635  1.00 -0.13     0.058 C 
BRANCH  18  19
HETATM   19  C   MOL     1     -50.721  -7.574  21.381  1.00 -0.16    -0.057 A 
HETATM   20  C   MOL     1     -50.745  -8.863  21.868  1.00 -0.21     0.007 A 
HETATM   21  C   MOL     1     -49.660  -9.371  22.547  1.00 -0.25     0.001 A 
HETATM   22  C   MOL     1     -48.544  -8.590  22.742  1.00 -0.37     0.000 A 
HETATM   23  C   MOL     1     -48.514  -7.302  22.257  1.00 -0.40     0.001 A 
HETATM   24  C   MOL     1     -49.600  -6.797  21.578  1.00 -0.21     0.007 A 
ENDBRANCH  18  19
ENDBRANCH  17  18
BRANCH  17  25
HETATM   25  N   MOL     1     -51.666  -5.984  18.413  1.00  0.15    -0.221 NA
HETATM   26  H   MOL     1     -52.540  -5.652  17.985  1.00  0.32     0.134 HD
BRANCH  25  27
HETATM   27  P   MOL     1     -50.470  -5.429  17.682  1.00  0.09     0.413 P 
HETATM   28  O   MOL     1     -49.603  -4.601  18.594  1.00  0.07    -0.239 OA
BRANCH  27  29
HETATM   29  O   MOL     1     -50.916  -4.561  16.405  1.00  0.12    -0.299 OA
BRANCH  29  30
HETATM   30  C   MOL     1     -51.866  -3.500  16.585  1.00 -0.20     0.214 C 
BRANCH  30  31
HETATM   31  C   MOL     1     -51.228  -2.158  16.194  1.00 -0.04     0.180 C 
HETATM   32  O   MOL     1     -49.978  -2.352  15.509  1.00  0.26    -0.347 OA
HETATM   33  C   MOL     1     -49.064  -1.286  15.827  1.00 -0.04     0.222 C 
HETATM   34  C   MOL     1     -49.803  -0.373  16.834  1.00 -0.10     0.205 C 
HETATM   35  C   MOL     1     -48.770  -0.546  14.593  1.00 -0.21     0.107 C 
HETATM   36  C   MOL     1     -50.912  -1.267  17.404  1.00 -0.06     0.182 C 
HETATM   37  N   MOL     1     -48.544   0.028  13.638  1.00  0.07    -0.193 NA
BRANCH  33  38
HETATM   38  C   MOL     1     -47.809  -1.976  16.351  1.00 -0.19     0.088 A 
HETATM   39  N   MOL     1     -46.721  -1.260  16.722  1.00 -0.03    -0.229 N 
HETATM   40  C   MOL     1     -45.807  -2.181  17.126  1.00 -0.22     0.104 A 
HETATM   41  N   MOL     1     -46.435   0.075  16.746  1.00  0.23    -0.160 NA
HETATM   42  C   MOL     1     -46.298  -3.442  17.013  1.00 -0.37     0.038 A 
HETATM   43  C   MOL     1     -44.549  -1.706  17.577  1.00 -0.44     0.151 A 
HETATM   44  C   MOL     1     -47.593  -3.301  16.509  1.00 -0.17     0.034 A 
HETATM   45  N   MOL     1     -44.252  -0.400  17.607  1.00 -0.19    -0.221 NA
HETATM   46  C   MOL     1     -45.248   0.438  17.174  1.00 -0.33     0.258 A 
BRANCH  43  47
HETATM   47  N   MOL     1     -43.576  -2.579  18.005  1.00 -0.25    -0.382 N 
HETATM   48  H   MOL     1     -43.672  -2.998  18.774  1.00 -0.27     0.157 HD
HETATM   49  H   MOL     1     -42.859  -2.724  17.515  1.00 -0.19     0.157 HD
ENDBRANCH  43  47
ENDBRANCH  33  38
BRANCH  34  50
HETATM   50  O   MOL     1     -48.952   0.146  17.868  1.00  0.41    -0.388 OA
HETATM   51  H   MOL     1     -48.237  -0.516  18.120  1.00 -0.42     0.210 HD
ENDBRANCH  34  50
BRANCH  36  52
HETATM   52  O   MOL     1     -50.399  -2.028  18.508  1.00  0.07    -0.390 OA
HETATM   53  H   MOL     1     -49.520  -1.659  18.829  1.00 -0.09     0.210 HD
ENDBRANCH  36  52
ENDBRANCH  30  31
ENDBRANCH  29  30
ENDBRANCH  27  29
BRANCH  27  54
HETATM   54  O   MOL     1     -49.614  -6.628  17.025  1.00  0.13    -0.260 OA
BRANCH  54  55
HETATM   55  C   MOL     1     -48.943  -7.546  17.783  1.00 -0.29     0.080 A 
HETATM   56  C   MOL     1     -49.492  -8.776  18.095  1.00 -0.28     0.037 A 
HETATM   57  C   MOL     1     -48.789  -9.679  18.858  1.00 -0.40     0.003 A 
HETATM   58  C   MOL     1     -47.530  -9.363  19.314  1.00 -0.35     0.000 A 
HETATM   59  C   MOL     1     -46.976  -8.141  19.009  1.00 -0.47     0.003 A 
HETATM   60  C   MOL     1     -47.679  -7.236  18.249  1.00 -0.37     0.037 A 
ENDBRANCH  54  55
ENDBRANCH  27  54
ENDBRANCH  25  27
ENDBRANCH  17  25
ENDBRANCH  16  17
ENDBRANCH  13  16
ENDBRANCH   8  13
ENDBRANCH   7   8
ENDBRANCH   3   7
TORSDOF 20
ENDMDL
