MODEL 1
REMARK VINA RESULT:      -6.4      0.000      0.000
REMARK  7 active torsions:
REMARK  status: ('A' for Active; 'I' for Inactive)
REMARK    1  A    between atoms: O_2  and  C_10 
REMARK    2  A    between atoms: O_3  and  C_11 
REMARK    3  A    between atoms: O_4  and  C_14 
REMARK    4  A    between atoms: O_6  and  N_9 
REMARK    5  A    between atoms: N_7  and  C_12 
REMARK    6  A    between atoms: N_9  and  C_18 
REMARK    7  A    between atoms: C_13  and  C_14 
ROOT
HETATM    1  O   UNK     0     -46.169  -1.843  18.003  0.00  0.00    -0.353 OA
HETATM    2  C   UNK     0     -44.718  -1.393  16.186  0.00  0.00     0.198 C 
HETATM    3  C   UNK     0     -43.947  -1.215  17.477  0.00  0.00     0.182 C 
HETATM    4  C   UNK     0     -45.909  -2.218  16.641  0.00  0.00     0.264 C 
HETATM    5  C   UNK     0     -45.066  -1.053  18.496  0.00  0.00     0.179 C 
ENDROOT
BRANCH   4   6
HETATM    6  N   UNK     0     -47.083  -1.965  15.855  0.00  0.00    -0.278 N 
HETATM    7  C   UNK     0     -47.130  -0.818  15.078  0.00  0.00     0.102 A 
HETATM    8  C   UNK     0     -48.177  -0.505  14.318  0.00  0.00     0.070 A 
HETATM    9  C   UNK     0     -49.317  -1.458  14.340  0.00  0.00     0.153 A 
HETATM   10  N   UNK     0     -49.289  -2.543  15.067  0.00  0.00    -0.174 NA
HETATM   11  C   UNK     0     -48.189  -2.852  15.850  0.00  0.00     0.352 A 
HETATM   12  O   UNK     0     -48.179  -3.881  16.527  0.00  0.00    -0.244 OA
BRANCH   9  13
HETATM   13  N   UNK     0     -50.420  -1.171  13.570  0.00  0.00    -0.251 N 
HETATM   14  H   UNK     0     -51.230  -1.762  13.424  0.00  0.00     0.196 HD
BRANCH  13  15
HETATM   15  O   UNK     0     -50.409   0.092  13.053  0.00  0.00    -0.288 OA
HETATM   16  H   UNK     0     -51.352   0.325  13.071  0.00  0.00     0.244 HD
ENDBRANCH  13  15
ENDBRANCH   9  13
ENDBRANCH   4   6
BRANCH   5  17
HETATM   17  C   UNK     0     -45.542   0.387  18.643  0.00  0.00     0.198 C 
BRANCH  17  18
HETATM   18  O   UNK     0     -44.480   1.253  18.288  0.00  0.00    -0.398 OA
HETATM   19  H   UNK     0     -44.870   1.999  17.801  0.00  0.00     0.209 HD
ENDBRANCH  17  18
ENDBRANCH   5  17
BRANCH   2  20
HETATM   20  O   UNK     0     -43.954  -2.044  15.191  0.00  0.00    -0.388 OA
HETATM   21  H   UNK     0     -43.049  -1.693  15.240  0.00  0.00     0.210 HD
ENDBRANCH   2  20
BRANCH   3  22
HETATM   22  O   UNK     0     -43.232  -2.410  17.795  0.00  0.00    -0.390 OA
HETATM   23  H   UNK     0     -43.864  -3.142  17.889  0.00  0.00     0.210 HD
ENDBRANCH   3  22
TORSDOF 7
ENDMDL
MODEL 2
REMARK VINA RESULT:      -6.3      3.355      5.907
REMARK  7 active torsions:
REMARK  status: ('A' for Active; 'I' for Inactive)
REMARK    1  A    between atoms: O_2  and  C_10 
REMARK    2  A    between atoms: O_3  and  C_11 
REMARK    3  A    between atoms: O_4  and  C_14 
REMARK    4  A    between atoms: O_6  and  N_9 
REMARK    5  A    between atoms: N_7  and  C_12 
REMARK    6  A    between atoms: N_9  and  C_18 
REMARK    7  A    between atoms: C_13  and  C_14 
ROOT
HETATM    1  O   UNK     0     -51.072  -5.178  15.569  0.00  0.00    -0.353 OA
HETATM    2  C   UNK     0     -50.367  -4.173  17.595  0.00  0.00     0.198 C 
HETATM    3  C   UNK     0     -51.245  -5.361  17.924  0.00  0.00     0.182 C 
HETATM    4  C   UNK     0     -49.976  -4.459  16.157  0.00  0.00     0.264 C 
HETATM    5  C   UNK     0     -51.984  -5.585  16.612  0.00  0.00     0.179 C 
ENDROOT
BRANCH   4   6
HETATM    6  N   UNK     0     -49.747  -3.260  15.402  0.00  0.00    -0.278 N 
HETATM    7  C   UNK     0     -50.786  -2.744  14.642  0.00  0.00     0.102 A 
HETATM    8  C   UNK     0     -50.663  -1.636  13.913  0.00  0.00     0.070 A 
HETATM    9  C   UNK     0     -49.338  -0.965  13.949  0.00  0.00     0.153 A 
HETATM   10  N   UNK     0     -48.349  -1.439  14.659  0.00  0.00    -0.174 NA
HETATM   11  C   UNK     0     -48.496  -2.591  15.413  0.00  0.00     0.352 A 
HETATM   12  O   UNK     0     -47.554  -3.022  16.078  0.00  0.00    -0.244 OA
BRANCH   9  13
HETATM   13  N   UNK     0     -49.169   0.182  13.207  0.00  0.00    -0.251 N 
HETATM   14  H   UNK     0     -49.867   0.892  13.020  0.00  0.00     0.196 HD
BRANCH  13  15
HETATM   15  O   UNK     0     -47.885   0.375  12.788  0.00  0.00    -0.288 OA
HETATM   16  H   UNK     0     -47.417   0.511  13.628  0.00  0.00     0.244 HD
ENDBRANCH  13  15
ENDBRANCH   9  13
ENDBRANCH   4   6
BRANCH   5  17
HETATM   17  C   UNK     0     -53.252  -4.749  16.486  0.00  0.00     0.198 C 
BRANCH  17  18
HETATM   18  O   UNK     0     -53.667  -4.759  15.132  0.00  0.00    -0.398 OA
HETATM   19  H   UNK     0     -54.622  -4.945  15.127  0.00  0.00     0.209 HD
ENDBRANCH  17  18
ENDBRANCH   5  17
BRANCH   2  20
HETATM   20  O   UNK     0     -49.249  -4.078  18.455  0.00  0.00    -0.388 OA
HETATM   21  H   UNK     0     -49.521  -3.562  19.232  0.00  0.00     0.210 HD
ENDBRANCH   2  20
BRANCH   3  22
HETATM   22  O   UNK     0     -50.442  -6.514  18.179  0.00  0.00    -0.390 OA
HETATM   23  H   UNK     0     -50.873  -7.057  18.859  0.00  0.00     0.210 HD
ENDBRANCH   3  22
TORSDOF 7
ENDMDL
MODEL 3
REMARK VINA RESULT:      -6.2      3.000      5.217
REMARK  7 active torsions:
REMARK  status: ('A' for Active; 'I' for Inactive)
REMARK    1  A    between atoms: O_2  and  C_10 
REMARK    2  A    between atoms: O_3  and  C_11 
REMARK    3  A    between atoms: O_4  and  C_14 
REMARK    4  A    between atoms: O_6  and  N_9 
REMARK    5  A    between atoms: N_7  and  C_12 
REMARK    6  A    between atoms: N_9  and  C_18 
REMARK    7  A    between atoms: C_13  and  C_14 
ROOT
HETATM    1  O   UNK     0     -49.543  -1.465  16.244  0.00  0.00    -0.353 OA
HETATM    2  C   UNK     0     -47.722  -2.496  15.134  0.00  0.00     0.198 C 
HETATM    3  C   UNK     0     -47.804  -1.051  14.690  0.00  0.00     0.182 C 
HETATM    4  C   UNK     0     -48.540  -2.481  16.412  0.00  0.00     0.264 C 
HETATM    5  C   UNK     0     -49.230  -0.681  15.073  0.00  0.00     0.179 C 
ENDROOT
BRANCH   4   6
HETATM    6  N   UNK     0     -49.187  -3.737  16.665  0.00  0.00    -0.278 N 
HETATM    7  C   UNK     0     -50.490  -3.914  16.226  0.00  0.00     0.102 A 
HETATM    8  C   UNK     0     -51.166  -5.046  16.415  0.00  0.00     0.070 A 
HETATM    9  C   UNK     0     -50.448  -6.131  17.134  0.00  0.00     0.153 A 
HETATM   10  N   UNK     0     -49.221  -5.979  17.555  0.00  0.00    -0.174 NA
HETATM   11  C   UNK     0     -48.534  -4.795  17.346  0.00  0.00     0.352 A 
HETATM   12  O   UNK     0     -47.376  -4.671  17.748  0.00  0.00    -0.244 OA
BRANCH   9  13
HETATM   13  N   UNK     0     -51.112  -7.316  17.352  0.00  0.00    -0.251 N 
HETATM   14  H   UNK     0     -52.115  -7.457  17.363  0.00  0.00     0.196 HD
BRANCH  13  15
HETATM   15  O   UNK     0     -50.281  -8.394  17.462  0.00  0.00    -0.288 OA
HETATM   16  H   UNK     0     -50.249  -8.717  16.547  0.00  0.00     0.244 HD
ENDBRANCH  13  15
ENDBRANCH   9  13
ENDBRANCH   4   6
BRANCH   5  17
HETATM   17  C   UNK     0     -50.250  -1.017  13.992  0.00  0.00     0.198 C 
BRANCH  17  18
HETATM   18  O   UNK     0     -50.328   0.073  13.090  0.00  0.00    -0.398 OA
HETATM   19  H   UNK     0     -50.918  -0.198  12.365  0.00  0.00     0.209 HD
ENDBRANCH  17  18
ENDBRANCH   5  17
BRANCH   2  20
HETATM   20  O   UNK     0     -46.389  -2.917  15.346  0.00  0.00    -0.388 OA
HETATM   21  H   UNK     0     -46.260  -3.004  16.305  0.00  0.00     0.210 HD
ENDBRANCH   2  20
BRANCH   3  22
HETATM   22  O   UNK     0     -46.917  -0.244  15.466  0.00  0.00    -0.390 OA
HETATM   23  H   UNK     0     -47.406   0.520  15.814  0.00  0.00     0.210 HD
ENDBRANCH   3  22
TORSDOF 7
ENDMDL
MODEL 4
REMARK VINA RESULT:      -6.1      2.293      2.756
REMARK  7 active torsions:
REMARK  status: ('A' for Active; 'I' for Inactive)
REMARK    1  A    between atoms: O_2  and  C_10 
REMARK    2  A    between atoms: O_3  and  C_11 
REMARK    3  A    between atoms: O_4  and  C_14 
REMARK    4  A    between atoms: O_6  and  N_9 
REMARK    5  A    between atoms: N_7  and  C_12 
REMARK    6  A    between atoms: N_9  and  C_18 
REMARK    7  A    between atoms: C_13  and  C_14 
ROOT
HETATM    1  O   UNK     0     -46.579  -2.270  17.769  0.00  0.00    -0.353 OA
HETATM    2  C   UNK     0     -46.148  -2.185  15.441  0.00  0.00     0.198 C 
HETATM    3  C   UNK     0     -45.142  -1.306  16.152  0.00  0.00     0.182 C 
HETATM    4  C   UNK     0     -46.656  -3.061  16.572  0.00  0.00     0.264 C 
HETATM    5  C   UNK     0     -45.814  -1.076  17.498  0.00  0.00     0.179 C 
ENDROOT
BRANCH   4   6
HETATM    6  N   UNK     0     -48.015  -3.478  16.375  0.00  0.00    -0.278 N 
HETATM    7  C   UNK     0     -48.823  -2.734  15.530  0.00  0.00     0.102 A 
HETATM    8  C   UNK     0     -50.095  -3.048  15.288  0.00  0.00     0.070 A 
HETATM    9  C   UNK     0     -50.620  -4.254  15.979  0.00  0.00     0.153 A 
HETATM   10  N   UNK     0     -49.872  -4.965  16.780  0.00  0.00    -0.174 NA
HETATM   11  C   UNK     0     -48.551  -4.624  17.017  0.00  0.00     0.352 A 
HETATM   12  O   UNK     0     -47.860  -5.307  17.773  0.00  0.00    -0.244 OA
BRANCH   9  13
HETATM   13  N   UNK     0     -51.930  -4.611  15.758  0.00  0.00    -0.251 N 
HETATM   14  H   UNK     0     -52.732  -3.992  15.728  0.00  0.00     0.196 HD
BRANCH  13  15
HETATM   15  O   UNK     0     -52.091  -5.933  15.459  0.00  0.00    -0.288 OA
HETATM   16  H   UNK     0     -51.725  -5.982  14.561  0.00  0.00     0.244 HD
ENDBRANCH  13  15
ENDBRANCH   9  13
ENDBRANCH   4   6
BRANCH   5  17
HETATM   17  C   UNK     0     -46.772   0.109  17.498  0.00  0.00     0.198 C 
BRANCH  17  18
HETATM   18  O   UNK     0     -46.147   1.196  18.157  0.00  0.00    -0.398 OA
HETATM   19  H   UNK     0     -45.633   1.679  17.488  0.00  0.00     0.209 HD
ENDBRANCH  17  18
ENDBRANCH   5  17
BRANCH   2  20
HETATM   20  O   UNK     0     -45.563  -2.933  14.394  0.00  0.00    -0.388 OA
HETATM   21  H   UNK     0     -45.893  -2.570  13.556  0.00  0.00     0.210 HD
ENDBRANCH   2  20
BRANCH   3  22
HETATM   22  O   UNK     0     -43.931  -2.026  16.383  0.00  0.00    -0.390 OA
HETATM   23  H   UNK     0     -43.945  -2.390  17.283  0.00  0.00     0.210 HD
ENDBRANCH   3  22
TORSDOF 7
ENDMDL
MODEL 5
REMARK VINA RESULT:      -6.0      3.639      5.593
REMARK  7 active torsions:
REMARK  status: ('A' for Active; 'I' for Inactive)
REMARK    1  A    between atoms: O_2  and  C_10 
REMARK    2  A    between atoms: O_3  and  C_11 
REMARK    3  A    between atoms: O_4  and  C_14 
REMARK    4  A    between atoms: O_6  and  N_9 
REMARK    5  A    between atoms: N_7  and  C_12 
REMARK    6  A    between atoms: N_9  and  C_18 
REMARK    7  A    between atoms: C_13  and  C_14 
ROOT
HETATM    1  O   UNK     0     -50.627  -1.544  16.141  0.00  0.00    -0.353 OA
HETATM    2  C   UNK     0     -48.861  -3.049  15.664  0.00  0.00     0.198 C 
HETATM    3  C   UNK     0     -48.404  -1.645  15.330  0.00  0.00     0.182 C 
HETATM    4  C   UNK     0     -50.049  -2.786  16.572  0.00  0.00     0.264 C 
HETATM    5  C   UNK     0     -49.726  -0.898  15.216  0.00  0.00     0.179 C 
ENDROOT
BRANCH   4   6
HETATM    6  N   UNK     0     -51.043  -3.818  16.487  0.00  0.00    -0.278 N 
HETATM    7  C   UNK     0     -52.081  -3.669  15.581  0.00  0.00     0.102 A 
HETATM    8  C   UNK     0     -53.045  -4.576  15.434  0.00  0.00     0.070 A 
HETATM    9  C   UNK     0     -52.958  -5.778  16.302  0.00  0.00     0.153 A 
HETATM   10  N   UNK     0     -51.986  -5.934  17.162  0.00  0.00    -0.174 NA
HETATM   11  C   UNK     0     -50.992  -4.980  17.299  0.00  0.00     0.352 A 
HETATM   12  O   UNK     0     -50.082  -5.145  18.113  0.00  0.00    -0.244 OA
BRANCH   9  13
HETATM   13  N   UNK     0     -53.936  -6.739  16.183  0.00  0.00    -0.251 N 
HETATM   14  H   UNK     0     -54.506  -7.120  16.929  0.00  0.00     0.196 HD
BRANCH  13  15
HETATM   15  O   UNK     0     -54.185  -7.106  14.892  0.00  0.00    -0.288 OA
HETATM   16  H   UNK     0     -53.294  -7.323  14.570  0.00  0.00     0.244 HD
ENDBRANCH  13  15
ENDBRANCH   9  13
ENDBRANCH   4   6
BRANCH   5  17
HETATM   17  C   UNK     0     -50.342  -0.974  13.824  0.00  0.00     0.198 C 
BRANCH  17  18
HETATM   18  O   UNK     0     -50.124   0.261  13.166  0.00  0.00    -0.398 OA
HETATM   19  H   UNK     0     -49.170   0.326  12.989  0.00  0.00     0.209 HD
ENDBRANCH  17  18
ENDBRANCH   5  17
BRANCH   2  20
HETATM   20  O   UNK     0     -47.849  -3.806  16.297  0.00  0.00    -0.388 OA
HETATM   21  H   UNK     0     -47.144  -3.190  16.560  0.00  0.00     0.210 HD
ENDBRANCH   2  20
BRANCH   3  22
HETATM   22  O   UNK     0     -47.678  -1.087  16.426  0.00  0.00    -0.390 OA
HETATM   23  H   UNK     0     -48.216  -0.394  16.843  0.00  0.00     0.210 HD
ENDBRANCH   3  22
TORSDOF 7
ENDMDL
MODEL 6
REMARK VINA RESULT:      -5.9      2.124      5.847
REMARK  7 active torsions:
REMARK  status: ('A' for Active; 'I' for Inactive)
REMARK    1  A    between atoms: O_2  and  C_10 
REMARK    2  A    between atoms: O_3  and  C_11 
REMARK    3  A    between atoms: O_4  and  C_14 
REMARK    4  A    between atoms: O_6  and  N_9 
REMARK    5  A    between atoms: N_7  and  C_12 
REMARK    6  A    between atoms: N_9  and  C_18 
REMARK    7  A    between atoms: C_13  and  C_14 
ROOT
HETATM    1  O   UNK     0     -49.392  -1.420  16.208  0.00  0.00    -0.353 OA
HETATM    2  C   UNK     0     -48.379  -1.032  14.103  0.00  0.00     0.198 C 
HETATM    3  C   UNK     0     -49.768  -1.590  13.876  0.00  0.00     0.182 C 
HETATM    4  C   UNK     0     -48.463  -0.552  15.540  0.00  0.00     0.264 C 
HETATM    5  C   UNK     0     -50.081  -2.222  15.225  0.00  0.00     0.179 C 
ENDROOT
BRANCH   4   6
HETATM    6  N   UNK     0     -47.197  -0.616  16.215  0.00  0.00    -0.278 N 
HETATM    7  C   UNK     0     -46.184  -1.381  15.658  0.00  0.00     0.102 A 
HETATM    8  C   UNK     0     -44.980  -1.497  16.214  0.00  0.00     0.070 A 
HETATM    9  C   UNK     0     -44.765  -0.755  17.484  0.00  0.00     0.153 A 
HETATM   10  N   UNK     0     -45.710  -0.030  18.022  0.00  0.00    -0.174 NA
HETATM   11  C   UNK     0     -46.955   0.079  17.427  0.00  0.00     0.352 A 
HETATM   12  O   UNK     0     -47.833   0.769  17.948  0.00  0.00    -0.244 OA
BRANCH   9  13
HETATM   13  N   UNK     0     -43.535  -0.849  18.092  0.00  0.00    -0.251 N 
HETATM   14  H   UNK     0     -42.988  -0.088  18.477  0.00  0.00     0.196 HD
BRANCH  13  15
HETATM   15  O   UNK     0     -43.102  -2.134  18.250  0.00  0.00    -0.288 OA
HETATM   16  H   UNK     0     -43.933  -2.634  18.192  0.00  0.00     0.244 HD
ENDBRANCH  13  15
ENDBRANCH   9  13
ENDBRANCH   4   6
BRANCH   5  17
HETATM   17  C   UNK     0     -49.581  -3.656  15.349  0.00  0.00     0.198 C 
BRANCH  17  18
HETATM   18  O   UNK     0     -49.837  -4.331  14.131  0.00  0.00    -0.398 OA
HETATM   19  H   UNK     0     -48.996  -4.371  13.644  0.00  0.00     0.209 HD
ENDBRANCH  17  18
ENDBRANCH   5  17
BRANCH   2  20
HETATM   20  O   UNK     0     -48.065   0.008  13.199  0.00  0.00    -0.388 OA
HETATM   21  H   UNK     0     -48.739   0.700  13.305  0.00  0.00     0.210 HD
ENDBRANCH   2  20
BRANCH   3  22
HETATM   22  O   UNK     0     -50.698  -0.529  13.661  0.00  0.00    -0.390 OA
HETATM   23  H   UNK     0     -50.219   0.254  13.344  0.00  0.00     0.210 HD
ENDBRANCH   3  22
TORSDOF 7
ENDMDL
MODEL 7
REMARK VINA RESULT:      -5.8      2.731      6.033
REMARK  7 active torsions:
REMARK  status: ('A' for Active; 'I' for Inactive)
REMARK    1  A    between atoms: O_2  and  C_10 
REMARK    2  A    between atoms: O_3  and  C_11 
REMARK    3  A    between atoms: O_4  and  C_14 
REMARK    4  A    between atoms: O_6  and  N_9 
REMARK    5  A    between atoms: N_7  and  C_12 
REMARK    6  A    between atoms: N_9  and  C_18 
REMARK    7  A    between atoms: C_13  and  C_14 
ROOT
HETATM    1  O   UNK     0     -50.059  -3.531  17.821  0.00  0.00    -0.353 OA
HETATM    2  C   UNK     0     -50.976  -3.545  15.637  0.00  0.00     0.198 C 
HETATM    3  C   UNK     0     -51.780  -4.488  16.506  0.00  0.00     0.182 C 
HETATM    4  C   UNK     0     -50.263  -2.693  16.671  0.00  0.00     0.264 C 
HETATM    5  C   UNK     0     -50.828  -4.743  17.667  0.00  0.00     0.179 C 
ENDROOT
BRANCH   4   6
HETATM    6  N   UNK     0     -48.990  -2.218  16.209  0.00  0.00    -0.278 N 
HETATM    7  C   UNK     0     -47.861  -2.976  16.474  0.00  0.00     0.102 A 
HETATM    8  C   UNK     0     -46.641  -2.614  16.081  0.00  0.00     0.070 A 
HETATM    9  C   UNK     0     -46.542  -1.334  15.333  0.00  0.00     0.153 A 
HETATM   10  N   UNK     0     -47.597  -0.607  15.075  0.00  0.00    -0.174 NA
HETATM   11  C   UNK     0     -48.857  -1.003  15.490  0.00  0.00     0.352 A 
HETATM   12  O   UNK     0     -49.841  -0.306  15.236  0.00  0.00    -0.244 OA
BRANCH   9  13
HETATM   13  N   UNK     0     -45.299  -0.921  14.911  0.00  0.00    -0.251 N 
HETATM   14  H   UNK     0     -44.938   0.025  14.919  0.00  0.00     0.196 HD
BRANCH  13  15
HETATM   15  O   UNK     0     -44.478  -1.950  14.548  0.00  0.00    -0.288 OA
HETATM   16  H   UNK     0     -44.035  -1.586  13.764  0.00  0.00     0.244 HD
ENDBRANCH  13  15
ENDBRANCH   9  13
ENDBRANCH   4   6
BRANCH   5  17
HETATM   17  C   UNK     0     -49.859  -5.889  17.409  0.00  0.00     0.198 C 
BRANCH  17  18
HETATM   18  O   UNK     0     -50.603  -7.035  17.036  0.00  0.00    -0.398 OA
HETATM   19  H   UNK     0     -51.531  -6.758  16.948  0.00  0.00     0.209 HD
ENDBRANCH  17  18
ENDBRANCH   5  17
BRANCH   2  20
HETATM   20  O   UNK     0     -51.794  -2.782  14.773  0.00  0.00    -0.388 OA
HETATM   21  H   UNK     0     -51.848  -1.884  15.141  0.00  0.00     0.210 HD
ENDBRANCH   2  20
BRANCH   3  22
HETATM   22  O   UNK     0     -52.934  -3.823  17.021  0.00  0.00    -0.390 OA
HETATM   23  H   UNK     0     -53.238  -4.288  17.818  0.00  0.00     0.210 HD
ENDBRANCH   3  22
TORSDOF 7
ENDMDL
MODEL 8
REMARK VINA RESULT:      -5.8      8.044     10.239
REMARK  7 active torsions:
REMARK  status: ('A' for Active; 'I' for Inactive)
REMARK    1  A    between atoms: O_2  and  C_10 
REMARK    2  A    between atoms: O_3  and  C_11 
REMARK    3  A    between atoms: O_4  and  C_14 
REMARK    4  A    between atoms: O_6  and  N_9 
REMARK    5  A    between atoms: N_7  and  C_12 
REMARK    6  A    between atoms: N_9  and  C_18 
REMARK    7  A    between atoms: C_13  and  C_14 
ROOT
HETATM    1  O   UNK     0     -48.788  -9.815  18.730  0.00  0.00    -0.353 OA
HETATM    2  C   UNK     0     -48.266  -8.879  20.843  0.00  0.00     0.198 C 
HETATM    3  C   UNK     0     -49.675  -8.471  20.467  0.00  0.00     0.182 C 
HETATM    4  C   UNK     0     -48.024 -10.061  19.922  0.00  0.00     0.264 C 
HETATM    5  C   UNK     0     -49.685  -8.708  18.963  0.00  0.00     0.179 C 
ENDROOT
BRANCH   4   6
HETATM    6  N   UNK     0     -46.641 -10.205  19.567  0.00  0.00    -0.278 N 
HETATM    7  C   UNK     0     -45.842  -9.073  19.529  0.00  0.00     0.102 A 
HETATM    8  C   UNK     0     -44.549  -9.114  19.212  0.00  0.00     0.070 A 
HETATM    9  C   UNK     0     -43.990 -10.453  18.892  0.00  0.00     0.153 A 
HETATM   10  N   UNK     0     -44.729 -11.530  18.923  0.00  0.00    -0.174 NA
HETATM   11  C   UNK     0     -46.071 -11.467  19.257  0.00  0.00     0.352 A 
HETATM   12  O   UNK     0     -46.753 -12.493  19.283  0.00  0.00    -0.244 OA
BRANCH   9  13
HETATM   13  N   UNK     0     -42.658 -10.539  18.557  0.00  0.00    -0.251 N 
HETATM   14  H   UNK     0     -41.890 -10.767  19.177  0.00  0.00     0.196 HD
BRANCH  13  15
HETATM   15  O   UNK     0     -42.421 -10.386  17.222  0.00  0.00    -0.288 OA
HETATM   16  H   UNK     0     -43.099 -10.962  16.830  0.00  0.00     0.244 HD
ENDBRANCH  13  15
ENDBRANCH   9  13
ENDBRANCH   4   6
BRANCH   5  17
HETATM   17  C   UNK     0     -49.182  -7.514  18.163  0.00  0.00     0.198 C 
BRANCH  17  18
HETATM   18  O   UNK     0     -48.187  -7.961  17.259  0.00  0.00    -0.398 OA
HETATM   19  H   UNK     0     -47.762  -7.170  16.886  0.00  0.00     0.209 HD
ENDBRANCH  17  18
ENDBRANCH   5  17
BRANCH   2  20
HETATM   20  O   UNK     0     -48.153  -9.221  22.209  0.00  0.00    -0.388 OA
HETATM   21  H   UNK     0     -48.470 -10.135  22.308  0.00  0.00     0.210 HD
ENDBRANCH   2  20
BRANCH   3  22
HETATM   22  O   UNK     0     -50.622  -9.361  21.059  0.00  0.00    -0.390 OA
HETATM   23  H   UNK     0     -51.518  -9.079  20.814  0.00  0.00     0.210 HD
ENDBRANCH   3  22
TORSDOF 7
ENDMDL
MODEL 9
REMARK VINA RESULT:      -5.8     17.229     18.806
REMARK  7 active torsions:
REMARK  status: ('A' for Active; 'I' for Inactive)
REMARK    1  A    between atoms: O_2  and  C_10 
REMARK    2  A    between atoms: O_3  and  C_11 
REMARK    3  A    between atoms: O_4  and  C_14 
REMARK    4  A    between atoms: O_6  and  N_9 
REMARK    5  A    between atoms: N_7  and  C_12 
REMARK    6  A    between atoms: N_9  and  C_18 
REMARK    7  A    between atoms: C_13  and  C_14 
ROOT
HETATM    1  O   UNK     0     -47.496 -15.123  26.566  0.00  0.00    -0.353 OA
HETATM    2  C   UNK     0     -49.387 -16.388  27.226  0.00  0.00     0.198 C 
HETATM    3  C   UNK     0     -49.158 -15.293  28.245  0.00  0.00     0.182 C 
HETATM    4  C   UNK     0     -48.595 -15.881  26.034  0.00  0.00     0.264 C 
HETATM    5  C   UNK     0     -47.710 -14.906  27.977  0.00  0.00     0.179 C 
ENDROOT
BRANCH   4   6
HETATM    6  N   UNK     0     -48.077 -16.947  25.225  0.00  0.00    -0.278 N 
HETATM    7  C   UNK     0     -47.929 -18.202  25.795  0.00  0.00     0.102 A 
HETATM    8  C   UNK     0     -47.459 -19.249  25.119  0.00  0.00     0.070 A 
HETATM    9  C   UNK     0     -47.091 -19.007  23.699  0.00  0.00     0.153 A 
HETATM   10  N   UNK     0     -47.224 -17.830  23.148  0.00  0.00    -0.174 NA
HETATM   11  C   UNK     0     -47.717 -16.754  23.867  0.00  0.00     0.352 A 
HETATM   12  O   UNK     0     -47.838 -15.652  23.331  0.00  0.00    -0.244 OA
BRANCH   9  13
HETATM   13  N   UNK     0     -46.598 -20.062  22.966  0.00  0.00    -0.251 N 
HETATM   14  H   UNK     0     -46.094 -20.008  22.089  0.00  0.00     0.196 HD
BRANCH  13  15
HETATM   15  O   UNK     0     -46.750 -21.270  23.581  0.00  0.00    -0.288 OA
HETATM   16  H   UNK     0     -45.836 -21.485  23.832  0.00  0.00     0.244 HD
ENDBRANCH  13  15
ENDBRANCH   9  13
ENDBRANCH   4   6
BRANCH   5  17
HETATM   17  C   UNK     0     -46.708 -15.759  28.745  0.00  0.00     0.198 C 
BRANCH  17  18
HETATM   18  O   UNK     0     -45.805 -16.338  27.820  0.00  0.00    -0.398 OA
HETATM   19  H   UNK     0     -45.133 -15.665  27.617  0.00  0.00     0.209 HD
ENDBRANCH  17  18
ENDBRANCH   5  17
BRANCH   2  20
HETATM   20  O   UNK     0     -50.758 -16.568  26.931  0.00  0.00    -0.388 OA
HETATM   21  H   UNK     0     -50.855 -17.442  26.516  0.00  0.00     0.210 HD
ENDBRANCH   2  20
BRANCH   3  22
HETATM   22  O   UNK     0     -49.977 -14.161  27.949  0.00  0.00    -0.390 OA
HETATM   23  H   UNK     0     -50.220 -13.719  28.779  0.00  0.00     0.210 HD
ENDBRANCH   3  22
TORSDOF 7
ENDMDL
MODEL 10
REMARK VINA RESULT:      -5.8      3.127      4.057
REMARK  7 active torsions:
REMARK  status: ('A' for Active; 'I' for Inactive)
REMARK    1  A    between atoms: O_2  and  C_10 
REMARK    2  A    between atoms: O_3  and  C_11 
REMARK    3  A    between atoms: O_4  and  C_14 
REMARK    4  A    between atoms: O_6  and  N_9 
REMARK    5  A    between atoms: N_7  and  C_12 
REMARK    6  A    between atoms: N_9  and  C_18 
REMARK    7  A    between atoms: C_13  and  C_14 
ROOT
HETATM    1  O   UNK     0     -47.025  -2.213  17.288  0.00  0.00    -0.353 OA
HETATM    2  C   UNK     0     -46.514  -0.723  15.519  0.00  0.00     0.198 C 
HETATM    3  C   UNK     0     -45.547  -1.887  15.467  0.00  0.00     0.182 C 
HETATM    4  C   UNK     0     -47.633  -1.282  16.379  0.00  0.00     0.264 C 
HETATM    5  C   UNK     0     -45.666  -2.463  16.871  0.00  0.00     0.179 C 
ENDROOT
BRANCH   4   6
HETATM    6  N   UNK     0     -48.305  -0.264  17.135  0.00  0.00    -0.278 N 
HETATM    7  C   UNK     0     -47.566   0.502  18.024  0.00  0.00     0.102 A 
HETATM    8  C   UNK     0     -48.106   1.468  18.763  0.00  0.00     0.070 A 
HETATM    9  C   UNK     0     -49.565   1.694  18.593  0.00  0.00     0.153 A 
HETATM   10  N   UNK     0     -50.276   0.981  17.760  0.00  0.00    -0.174 NA
HETATM   11  C   UNK     0     -49.695  -0.018  16.997  0.00  0.00     0.352 A 
HETATM   12  O   UNK     0     -50.380  -0.679  16.216  0.00  0.00    -0.244 OA
BRANCH   9  13
HETATM   13  N   UNK     0     -50.162   2.682  19.341  0.00  0.00    -0.251 N 
HETATM   14  H   UNK     0     -51.127   2.712  19.647  0.00  0.00     0.196 HD
BRANCH  13  15
HETATM   15  O   UNK     0     -49.293   3.645  19.765  0.00  0.00    -0.288 OA
HETATM   16  H   UNK     0     -48.825   3.191  20.485  0.00  0.00     0.244 HD
ENDBRANCH  13  15
ENDBRANCH   9  13
ENDBRANCH   4   6
BRANCH   5  17
HETATM   17  C   UNK     0     -44.732  -1.799  17.875  0.00  0.00     0.198 C 
BRANCH  17  18
HETATM   18  O   UNK     0     -43.439  -2.358  17.728  0.00  0.00    -0.398 OA
HETATM   19  H   UNK     0     -43.256  -2.411  16.775  0.00  0.00     0.209 HD
ENDBRANCH  17  18
ENDBRANCH   5  17
BRANCH   2  20
HETATM   20  O   UNK     0     -46.957  -0.336  14.234  0.00  0.00    -0.388 OA
HETATM   21  H   UNK     0     -47.253  -1.139  13.773  0.00  0.00     0.210 HD
ENDBRANCH   2  20
BRANCH   3  22
HETATM   22  O   UNK     0     -46.010  -2.875  14.546  0.00  0.00    -0.390 OA
HETATM   23  H   UNK     0     -45.837  -3.757  14.913  0.00  0.00     0.210 HD
ENDBRANCH   3  22
TORSDOF 7
ENDMDL
