MODEL 1
REMARK VINA RESULT:      -6.3      0.000      0.000
REMARK  7 active torsions:
REMARK  status: ('A' for Active; 'I' for Inactive)
REMARK    1  A    between atoms: O_2  and  C_10 
REMARK    2  A    between atoms: O_3  and  C_11 
REMARK    3  A    between atoms: O_4  and  C_14 
REMARK    4  A    between atoms: O_6  and  N_9 
REMARK    5  A    between atoms: N_7  and  C_12 
REMARK    6  A    between atoms: N_9  and  C_18 
REMARK    7  A    between atoms: C_13  and  C_14 
ROOT
HETATM    1  O   UNK     0     -46.171  -2.008  17.994  0.00  0.00    -0.353 OA
HETATM    2  C   UNK     0     -44.721  -1.454  16.204  0.00  0.00     0.198 C 
HETATM    3  C   UNK     0     -43.952  -1.339  17.503  0.00  0.00     0.182 C 
HETATM    4  C   UNK     0     -45.907  -2.308  16.614  0.00  0.00     0.264 C 
HETATM    5  C   UNK     0     -45.073  -1.238  18.529  0.00  0.00     0.179 C 
ENDROOT
BRANCH   4   6
HETATM    6  N   UNK     0     -47.083  -2.022  15.842  0.00  0.00    -0.278 N 
HETATM    7  C   UNK     0     -47.120  -0.855  15.094  0.00  0.00     0.102 A 
HETATM    8  C   UNK     0     -48.167  -0.511  14.348  0.00  0.00     0.070 A 
HETATM    9  C   UNK     0     -49.319  -1.450  14.354  0.00  0.00     0.153 A 
HETATM   10  N   UNK     0     -49.301  -2.553  15.054  0.00  0.00    -0.174 NA
HETATM   11  C   UNK     0     -48.201  -2.895  15.822  0.00  0.00     0.352 A 
HETATM   12  O   UNK     0     -48.199  -3.940  16.473  0.00  0.00    -0.244 OA
BRANCH   9  13
HETATM   13  N   UNK     0     -50.423  -1.130  13.597  0.00  0.00    -0.251 N 
HETATM   14  H   UNK     0     -51.256  -1.692  13.471  0.00  0.00     0.196 HD
BRANCH  13  15
HETATM   15  O   UNK     0     -50.374   0.126  13.066  0.00  0.00    -0.288 OA
HETATM   16  H   UNK     0     -49.985  -0.040  12.192  0.00  0.00     0.244 HD
ENDBRANCH  13  15
ENDBRANCH   9  13
ENDBRANCH   4   6
BRANCH   5  17
HETATM   17  C   UNK     0     -45.558   0.189  18.751  0.00  0.00     0.198 C 
BRANCH  17  18
HETATM   18  O   UNK     0     -46.974   0.198  18.703  0.00  0.00    -0.398 OA
HETATM   19  H   UNK     0     -47.250  -0.617  18.249  0.00  0.00     0.209 HD
ENDBRANCH  17  18
ENDBRANCH   5  17
BRANCH   2  20
HETATM   20  O   UNK     0     -43.953  -2.046  15.177  0.00  0.00    -0.388 OA
HETATM   21  H   UNK     0     -43.359  -1.363  14.825  0.00  0.00     0.210 HD
ENDBRANCH   2  20
BRANCH   3  22
HETATM   22  O   UNK     0     -43.230  -2.545  17.759  0.00  0.00    -0.390 OA
HETATM   23  H   UNK     0     -42.378  -2.508  17.295  0.00  0.00     0.210 HD
ENDBRANCH   3  22
TORSDOF 7
ENDMDL
MODEL 2
REMARK VINA RESULT:      -6.3      3.209      5.640
REMARK  7 active torsions:
REMARK  status: ('A' for Active; 'I' for Inactive)
REMARK    1  A    between atoms: O_2  and  C_10 
REMARK    2  A    between atoms: O_3  and  C_11 
REMARK    3  A    between atoms: O_4  and  C_14 
REMARK    4  A    between atoms: O_6  and  N_9 
REMARK    5  A    between atoms: N_7  and  C_12 
REMARK    6  A    between atoms: N_9  and  C_18 
REMARK    7  A    between atoms: C_13  and  C_14 
ROOT
HETATM    1  O   UNK     0     -51.075  -5.184  15.564  0.00  0.00    -0.353 OA
HETATM    2  C   UNK     0     -50.366  -4.188  17.593  0.00  0.00     0.198 C 
HETATM    3  C   UNK     0     -51.245  -5.376  17.919  0.00  0.00     0.182 C 
HETATM    4  C   UNK     0     -49.977  -4.469  16.153  0.00  0.00     0.264 C 
HETATM    5  C   UNK     0     -51.986  -5.593  16.607  0.00  0.00     0.179 C 
ENDROOT
BRANCH   4   6
HETATM    6  N   UNK     0     -49.747  -3.267  15.402  0.00  0.00    -0.278 N 
HETATM    7  C   UNK     0     -50.785  -2.748  14.643  0.00  0.00     0.102 A 
HETATM    8  C   UNK     0     -50.662  -1.638  13.918  0.00  0.00     0.070 A 
HETATM    9  C   UNK     0     -49.336  -0.968  13.957  0.00  0.00     0.153 A 
HETATM   10  N   UNK     0     -48.347  -1.445  14.666  0.00  0.00    -0.174 NA
HETATM   11  C   UNK     0     -48.496  -2.599  15.416  0.00  0.00     0.352 A 
HETATM   12  O   UNK     0     -47.554  -3.033  16.081  0.00  0.00    -0.244 OA
BRANCH   9  13
HETATM   13  N   UNK     0     -49.166   0.181  13.219  0.00  0.00    -0.251 N 
HETATM   14  H   UNK     0     -49.863   0.893  13.035  0.00  0.00     0.196 HD
BRANCH  13  15
HETATM   15  O   UNK     0     -47.882   0.374  12.800  0.00  0.00    -0.288 OA
HETATM   16  H   UNK     0     -47.654   1.215  13.231  0.00  0.00     0.244 HD
ENDBRANCH  13  15
ENDBRANCH   9  13
ENDBRANCH   4   6
BRANCH   5  17
HETATM   17  C   UNK     0     -53.252  -4.755  16.485  0.00  0.00     0.198 C 
BRANCH  17  18
HETATM   18  O   UNK     0     -53.662  -4.748  15.129  0.00  0.00    -0.398 OA
HETATM   19  H   UNK     0     -54.573  -5.089  15.103  0.00  0.00     0.209 HD
ENDBRANCH  17  18
ENDBRANCH   5  17
BRANCH   2  20
HETATM   20  O   UNK     0     -49.246  -4.097  18.451  0.00  0.00    -0.388 OA
HETATM   21  H   UNK     0     -48.520  -4.592  18.037  0.00  0.00     0.210 HD
ENDBRANCH   2  20
BRANCH   3  22
HETATM   22  O   UNK     0     -50.444  -6.531  18.168  0.00  0.00    -0.390 OA
HETATM   23  H   UNK     0     -49.594  -6.252  18.546  0.00  0.00     0.210 HD
ENDBRANCH   3  22
TORSDOF 7
ENDMDL
MODEL 3
REMARK VINA RESULT:      -6.1      2.954      5.051
REMARK  7 active torsions:
REMARK  status: ('A' for Active; 'I' for Inactive)
REMARK    1  A    between atoms: O_2  and  C_10 
REMARK    2  A    between atoms: O_3  and  C_11 
REMARK    3  A    between atoms: O_4  and  C_14 
REMARK    4  A    between atoms: O_6  and  N_9 
REMARK    5  A    between atoms: N_7  and  C_12 
REMARK    6  A    between atoms: N_9  and  C_18 
REMARK    7  A    between atoms: C_13  and  C_14 
ROOT
HETATM    1  O   UNK     0     -49.566  -1.489  16.261  0.00  0.00    -0.353 OA
HETATM    2  C   UNK     0     -47.730  -2.468  15.128  0.00  0.00     0.198 C 
HETATM    3  C   UNK     0     -47.847  -1.020  14.700  0.00  0.00     0.182 C 
HETATM    4  C   UNK     0     -48.541  -2.484  16.411  0.00  0.00     0.264 C 
HETATM    5  C   UNK     0     -49.279  -0.685  15.096  0.00  0.00     0.179 C 
ENDROOT
BRANCH   4   6
HETATM    6  N   UNK     0     -49.158  -3.757  16.655  0.00  0.00    -0.278 N 
HETATM    7  C   UNK     0     -50.458  -3.960  16.218  0.00  0.00     0.102 A 
HETATM    8  C   UNK     0     -51.107  -5.108  16.399  0.00  0.00     0.070 A 
HETATM    9  C   UNK     0     -50.363  -6.183  17.105  0.00  0.00     0.153 A 
HETATM   10  N   UNK     0     -49.138  -6.007  17.524  0.00  0.00    -0.174 NA
HETATM   11  C   UNK     0     -48.479  -4.806  17.324  0.00  0.00     0.352 A 
HETATM   12  O   UNK     0     -47.323  -4.659  17.724  0.00  0.00    -0.244 OA
BRANCH   9  13
HETATM   13  N   UNK     0     -51.000  -7.385  17.315  0.00  0.00    -0.251 N 
HETATM   14  H   UNK     0     -50.561  -8.280  17.495  0.00  0.00     0.196 HD
BRANCH  13  15
HETATM   15  O   UNK     0     -52.359  -7.279  17.370  0.00  0.00    -0.288 OA
HETATM   16  H   UNK     0     -52.566  -6.891  16.503  0.00  0.00     0.244 HD
ENDBRANCH  13  15
ENDBRANCH   9  13
ENDBRANCH   4   6
BRANCH   5  17
HETATM   17  C   UNK     0     -50.298  -1.032  14.018  0.00  0.00     0.198 C 
BRANCH  17  18
HETATM   18  O   UNK     0     -50.348   0.032  13.085  0.00  0.00    -0.398 OA
HETATM   19  H   UNK     0     -51.260   0.073  12.748  0.00  0.00     0.209 HD
ENDBRANCH  17  18
ENDBRANCH   5  17
BRANCH   2  20
HETATM   20  O   UNK     0     -46.388  -2.862  15.327  0.00  0.00    -0.388 OA
HETATM   21  H   UNK     0     -46.353  -3.830  15.248  0.00  0.00     0.210 HD
ENDBRANCH   2  20
BRANCH   3  22
HETATM   22  O   UNK     0     -46.973  -0.202  15.479  0.00  0.00    -0.390 OA
HETATM   23  H   UNK     0     -47.183   0.732  15.316  0.00  0.00     0.210 HD
ENDBRANCH   3  22
TORSDOF 7
ENDMDL
MODEL 4
REMARK VINA RESULT:      -6.0      2.395      3.184
REMARK  7 active torsions:
REMARK  status: ('A' for Active; 'I' for Inactive)
REMARK    1  A    between atoms: O_2  and  C_10 
REMARK    2  A    between atoms: O_3  and  C_11 
REMARK    3  A    between atoms: O_4  and  C_14 
REMARK    4  A    between atoms: O_6  and  N_9 
REMARK    5  A    between atoms: N_7  and  C_12 
REMARK    6  A    between atoms: N_9  and  C_18 
REMARK    7  A    between atoms: C_13  and  C_14 
ROOT
HETATM    1  O   UNK     0     -46.894  -2.350  17.796  0.00  0.00    -0.353 OA
HETATM    2  C   UNK     0     -46.443  -2.287  15.470  0.00  0.00     0.198 C 
HETATM    3  C   UNK     0     -45.578  -1.253  16.160  0.00  0.00     0.182 C 
HETATM    4  C   UNK     0     -46.843  -3.185  16.627  0.00  0.00     0.264 C 
HETATM    5  C   UNK     0     -46.297  -1.071  17.489  0.00  0.00     0.179 C 
ENDROOT
BRANCH   4   6
HETATM    6  N   UNK     0     -48.129  -3.792  16.432  0.00  0.00    -0.278 N 
HETATM    7  C   UNK     0     -49.011  -3.208  15.536  0.00  0.00     0.102 A 
HETATM    8  C   UNK     0     -50.222  -3.704  15.291  0.00  0.00     0.070 A 
HETATM    9  C   UNK     0     -50.595  -4.934  16.037  0.00  0.00     0.153 A 
HETATM   10  N   UNK     0     -49.776  -5.496  16.885  0.00  0.00    -0.174 NA
HETATM   11  C   UNK     0     -48.519  -4.967  17.124  0.00  0.00     0.352 A 
HETATM   12  O   UNK     0     -47.759  -5.511  17.926  0.00  0.00    -0.244 OA
BRANCH   9  13
HETATM   13  N   UNK     0     -51.840  -5.477  15.815  0.00  0.00    -0.251 N 
HETATM   14  H   UNK     0     -52.451  -5.293  15.028  0.00  0.00     0.196 HD
BRANCH  13  15
HETATM   15  O   UNK     0     -52.191  -6.426  16.730  0.00  0.00    -0.288 OA
HETATM   16  H   UNK     0     -51.373  -6.522  17.245  0.00  0.00     0.244 HD
ENDBRANCH  13  15
ENDBRANCH   9  13
ENDBRANCH   4   6
BRANCH   5  17
HETATM   17  C   UNK     0     -47.409  -0.031  17.436  0.00  0.00     0.198 C 
BRANCH  17  18
HETATM   18  O   UNK     0     -46.954   1.151  18.071  0.00  0.00    -0.398 OA
HETATM   19  H   UNK     0     -46.911   1.843  17.389  0.00  0.00     0.209 HD
ENDBRANCH  17  18
ENDBRANCH   5  17
BRANCH   2  20
HETATM   20  O   UNK     0     -45.744  -2.983  14.458  0.00  0.00    -0.388 OA
HETATM   21  H   UNK     0     -44.799  -2.956  14.685  0.00  0.00     0.210 HD
ENDBRANCH   2  20
BRANCH   3  22
HETATM   22  O   UNK     0     -44.284  -1.791  16.429  0.00  0.00    -0.390 OA
HETATM   23  H   UNK     0     -43.611  -1.132  16.191  0.00  0.00     0.210 HD
ENDBRANCH   3  22
TORSDOF 7
ENDMDL
MODEL 5
REMARK VINA RESULT:      -5.9      1.951      5.724
REMARK  7 active torsions:
REMARK  status: ('A' for Active; 'I' for Inactive)
REMARK    1  A    between atoms: O_2  and  C_10 
REMARK    2  A    between atoms: O_3  and  C_11 
REMARK    3  A    between atoms: O_4  and  C_14 
REMARK    4  A    between atoms: O_6  and  N_9 
REMARK    5  A    between atoms: N_7  and  C_12 
REMARK    6  A    between atoms: N_9  and  C_18 
REMARK    7  A    between atoms: C_13  and  C_14 
ROOT
HETATM    1  O   UNK     0     -49.497  -1.468  16.143  0.00  0.00    -0.353 OA
HETATM    2  C   UNK     0     -48.478  -1.048  14.046  0.00  0.00     0.198 C 
HETATM    3  C   UNK     0     -49.888  -1.545  13.808  0.00  0.00     0.182 C 
HETATM    4  C   UNK     0     -48.538  -0.613  15.500  0.00  0.00     0.264 C 
HETATM    5  C   UNK     0     -50.220  -2.210  15.137  0.00  0.00     0.179 C 
ENDROOT
BRANCH   4   6
HETATM    6  N   UNK     0     -47.273  -0.748  16.165  0.00  0.00    -0.278 N 
HETATM    7  C   UNK     0     -46.321  -1.595  15.619  0.00  0.00     0.102 A 
HETATM    8  C   UNK     0     -45.122  -1.780  16.167  0.00  0.00     0.070 A 
HETATM    9  C   UNK     0     -44.844  -1.023  17.416  0.00  0.00     0.153 A 
HETATM   10  N   UNK     0     -45.730  -0.221  17.944  0.00  0.00    -0.174 NA
HETATM   11  C   UNK     0     -46.971  -0.041  17.357  0.00  0.00     0.352 A 
HETATM   12  O   UNK     0     -47.794   0.721  17.866  0.00  0.00    -0.244 OA
BRANCH   9  13
HETATM   13  N   UNK     0     -43.616  -1.187  18.016  0.00  0.00    -0.251 N 
HETATM   14  H   UNK     0     -43.137  -0.521  18.611  0.00  0.00     0.196 HD
BRANCH  13  15
HETATM   15  O   UNK     0     -43.083  -2.430  17.834  0.00  0.00    -0.288 OA
HETATM   16  H   UNK     0     -42.882  -2.698  18.746  0.00  0.00     0.244 HD
ENDBRANCH  13  15
ENDBRANCH   9  13
ENDBRANCH   4   6
BRANCH   5  17
HETATM   17  C   UNK     0     -49.774  -3.665  15.210  0.00  0.00     0.198 C 
BRANCH  17  18
HETATM   18  O   UNK     0     -49.776  -4.205  13.901  0.00  0.00    -0.398 OA
HETATM   19  H   UNK     0     -49.939  -3.467  13.288  0.00  0.00     0.209 HD
ENDBRANCH  17  18
ENDBRANCH   5  17
BRANCH   2  20
HETATM   20  O   UNK     0     -48.128   0.010  13.176  0.00  0.00    -0.388 OA
HETATM   21  H   UNK     0     -48.950   0.458  12.916  0.00  0.00     0.210 HD
ENDBRANCH   2  20
BRANCH   3  22
HETATM   22  O   UNK     0     -50.778  -0.443  13.634  0.00  0.00    -0.390 OA
HETATM   23  H   UNK     0     -50.665   0.176  14.374  0.00  0.00     0.210 HD
ENDBRANCH   3  22
TORSDOF 7
ENDMDL
MODEL 6
REMARK VINA RESULT:      -5.9      3.990      5.612
REMARK  7 active torsions:
REMARK  status: ('A' for Active; 'I' for Inactive)
REMARK    1  A    between atoms: O_2  and  C_10 
REMARK    2  A    between atoms: O_3  and  C_11 
REMARK    3  A    between atoms: O_4  and  C_14 
REMARK    4  A    between atoms: O_6  and  N_9 
REMARK    5  A    between atoms: N_7  and  C_12 
REMARK    6  A    between atoms: N_9  and  C_18 
REMARK    7  A    between atoms: C_13  and  C_14 
ROOT
HETATM    1  O   UNK     0     -49.818  -3.789  17.996  0.00  0.00    -0.353 OA
HETATM    2  C   UNK     0     -51.906  -4.373  17.042  0.00  0.00     0.198 C 
HETATM    3  C   UNK     0     -51.514  -5.441  18.041  0.00  0.00     0.182 C 
HETATM    4  C   UNK     0     -51.019  -3.213  17.456  0.00  0.00     0.264 C 
HETATM    5  C   UNK     0     -50.017  -5.205  18.189  0.00  0.00     0.179 C 
ENDROOT
BRANCH   4   6
HETATM    6  N   UNK     0     -50.673  -2.365  16.350  0.00  0.00    -0.278 N 
HETATM    7  C   UNK     0     -50.727  -2.889  15.068  0.00  0.00     0.102 A 
HETATM    8  C   UNK     0     -50.426  -2.175  13.985  0.00  0.00     0.070 A 
HETATM    9  C   UNK     0     -50.019  -0.765  14.217  0.00  0.00     0.153 A 
HETATM   10  N   UNK     0     -49.963  -0.256  15.419  0.00  0.00    -0.174 NA
HETATM   11  C   UNK     0     -50.282  -1.014  16.532  0.00  0.00     0.352 A 
HETATM   12  O   UNK     0     -50.226  -0.518  17.658  0.00  0.00    -0.244 OA
BRANCH   9  13
HETATM   13  N   UNK     0     -49.697   0.007  13.124  0.00  0.00    -0.251 N 
HETATM   14  H   UNK     0     -50.342   0.497  12.515  0.00  0.00     0.196 HD
BRANCH  13  15
HETATM   15  O   UNK     0     -48.354   0.172  12.951  0.00  0.00    -0.288 OA
HETATM   16  H   UNK     0     -47.999  -0.648  13.333  0.00  0.00     0.244 HD
ENDBRANCH  13  15
ENDBRANCH   9  13
ENDBRANCH   4   6
BRANCH   5  17
HETATM   17  C   UNK     0     -49.186  -5.947  17.149  0.00  0.00     0.198 C 
BRANCH  17  18
HETATM   18  O   UNK     0     -48.286  -5.031  16.552  0.00  0.00    -0.398 OA
HETATM   19  H   UNK     0     -48.451  -5.050  15.594  0.00  0.00     0.209 HD
ENDBRANCH  17  18
ENDBRANCH   5  17
BRANCH   2  20
HETATM   20  O   UNK     0     -53.282  -4.056  17.108  0.00  0.00    -0.388 OA
HETATM   21  H   UNK     0     -53.533  -3.668  16.253  0.00  0.00     0.210 HD
ENDBRANCH   2  20
BRANCH   3  22
HETATM   22  O   UNK     0     -52.126  -5.184  19.306  0.00  0.00    -0.390 OA
HETATM   23  H   UNK     0     -52.538  -6.001  19.630  0.00  0.00     0.210 HD
ENDBRANCH   3  22
TORSDOF 7
ENDMDL
MODEL 7
REMARK VINA RESULT:      -5.9      2.086      5.631
REMARK  7 active torsions:
REMARK  status: ('A' for Active; 'I' for Inactive)
REMARK    1  A    between atoms: O_2  and  C_10 
REMARK    2  A    between atoms: O_3  and  C_11 
REMARK    3  A    between atoms: O_4  and  C_14 
REMARK    4  A    between atoms: O_6  and  N_9 
REMARK    5  A    between atoms: N_7  and  C_12 
REMARK    6  A    between atoms: N_9  and  C_18 
REMARK    7  A    between atoms: C_13  and  C_14 
ROOT
HETATM    1  O   UNK     0     -48.857  -2.248  13.993  0.00  0.00    -0.353 OA
HETATM    2  C   UNK     0     -49.981  -2.072  16.071  0.00  0.00     0.198 C 
HETATM    3  C   UNK     0     -50.989  -1.882  14.958  0.00  0.00     0.182 C 
HETATM    4  C   UNK     0     -48.829  -2.740  15.343  0.00  0.00     0.264 C 
HETATM    5  C   UNK     0     -50.096  -1.539  13.774  0.00  0.00     0.179 C 
ENDROOT
BRANCH   4   6
HETATM    6  N   UNK     0     -47.556  -2.428  15.926  0.00  0.00    -0.278 N 
HETATM    7  C   UNK     0     -46.826  -1.371  15.405  0.00  0.00     0.102 A 
HETATM    8  C   UNK     0     -45.637  -1.011  15.884  0.00  0.00     0.070 A 
HETATM    9  C   UNK     0     -45.117  -1.808  17.025  0.00  0.00     0.153 A 
HETATM   10  N   UNK     0     -45.792  -2.807  17.528  0.00  0.00    -0.174 NA
HETATM   11  C   UNK     0     -47.027  -3.165  17.017  0.00  0.00     0.352 A 
HETATM   12  O   UNK     0     -47.651  -4.109  17.505  0.00  0.00    -0.244 OA
BRANCH   9  13
HETATM   13  N   UNK     0     -43.890  -1.469  17.550  0.00  0.00    -0.251 N 
HETATM   14  H   UNK     0     -43.583  -0.544  17.825  0.00  0.00     0.196 HD
BRANCH  13  15
HETATM   15  O   UNK     0     -43.085  -2.544  17.790  0.00  0.00    -0.288 OA
HETATM   16  H   UNK     0     -42.845  -2.411  18.722  0.00  0.00     0.244 HD
ENDBRANCH  13  15
ENDBRANCH   9  13
ENDBRANCH   4   6
BRANCH   5  17
HETATM   17  C   UNK     0     -49.778  -0.052  13.670  0.00  0.00     0.198 C 
BRANCH  17  18
HETATM   18  O   UNK     0     -48.532   0.100  13.015  0.00  0.00    -0.398 OA
HETATM   19  H   UNK     0     -47.839  -0.009  13.690  0.00  0.00     0.209 HD
ENDBRANCH  17  18
ENDBRANCH   5  17
BRANCH   2  20
HETATM   20  O   UNK     0     -50.490  -2.863  17.126  0.00  0.00    -0.388 OA
HETATM   21  H   UNK     0     -50.614  -2.281  17.894  0.00  0.00     0.210 HD
ENDBRANCH   2  20
BRANCH   3  22
HETATM   22  O   UNK     0     -51.647  -3.116  14.669  0.00  0.00    -0.390 OA
HETATM   23  H   UNK     0     -51.631  -3.677  15.462  0.00  0.00     0.210 HD
ENDBRANCH   3  22
TORSDOF 7
ENDMDL
MODEL 8
REMARK VINA RESULT:      -5.9      2.075      5.230
REMARK  7 active torsions:
REMARK  status: ('A' for Active; 'I' for Inactive)
REMARK    1  A    between atoms: O_2  and  C_10 
REMARK    2  A    between atoms: O_3  and  C_11 
REMARK    3  A    between atoms: O_4  and  C_14 
REMARK    4  A    between atoms: O_6  and  N_9 
REMARK    5  A    between atoms: N_7  and  C_12 
REMARK    6  A    between atoms: N_9  and  C_18 
REMARK    7  A    between atoms: C_13  and  C_14 
ROOT
HETATM    1  O   UNK     0     -48.731  -0.256  15.768  0.00  0.00    -0.353 OA
HETATM    2  C   UNK     0     -48.670  -2.224  14.451  0.00  0.00     0.198 C 
HETATM    3  C   UNK     0     -50.075  -1.661  14.415  0.00  0.00     0.182 C 
HETATM    4  C   UNK     0     -47.863  -1.028  14.923  0.00  0.00     0.264 C 
HETATM    5  C   UNK     0     -50.083  -0.746  15.632  0.00  0.00     0.179 C 
ENDROOT
BRANCH   4   6
HETATM    6  N   UNK     0     -46.702  -1.412  15.675  0.00  0.00    -0.278 N 
HETATM    7  C   UNK     0     -45.509  -0.744  15.443  0.00  0.00     0.102 A 
HETATM    8  C   UNK     0     -44.384  -1.033  16.095  0.00  0.00     0.070 A 
HETATM    9  C   UNK     0     -44.464  -2.124  17.100  0.00  0.00     0.153 A 
HETATM   10  N   UNK     0     -45.580  -2.764  17.329  0.00  0.00    -0.174 NA
HETATM   11  C   UNK     0     -46.740  -2.448  16.643  0.00  0.00     0.352 A 
HETATM   12  O   UNK     0     -47.784  -3.060  16.874  0.00  0.00    -0.244 OA
BRANCH   9  13
HETATM   13  N   UNK     0     -43.323  -2.455  17.794  0.00  0.00    -0.251 N 
HETATM   14  H   UNK     0     -42.796  -3.317  17.719  0.00  0.00     0.196 HD
BRANCH  13  15
HETATM   15  O   UNK     0     -42.847  -1.441  18.573  0.00  0.00    -0.288 OA
HETATM   16  H   UNK     0     -42.759  -1.876  19.437  0.00  0.00     0.244 HD
ENDBRANCH  13  15
ENDBRANCH   9  13
ENDBRANCH   4   6
BRANCH   5  17
HETATM   17  C   UNK     0     -50.459  -1.464  16.922  0.00  0.00     0.198 C 
BRANCH  17  18
HETATM   18  O   UNK     0     -49.641  -0.972  17.968  0.00  0.00    -0.398 OA
HETATM   19  H   UNK     0     -49.581  -0.008  17.855  0.00  0.00     0.209 HD
ENDBRANCH  17  18
ENDBRANCH   5  17
BRANCH   2  20
HETATM   20  O   UNK     0     -48.249  -2.699  13.188  0.00  0.00    -0.388 OA
HETATM   21  H   UNK     0     -47.469  -3.261  13.332  0.00  0.00     0.210 HD
ENDBRANCH   2  20
BRANCH   3  22
HETATM   22  O   UNK     0     -50.253  -0.850  13.254  0.00  0.00    -0.390 OA
HETATM   23  H   UNK     0     -50.778  -1.341  12.601  0.00  0.00     0.210 HD
ENDBRANCH   3  22
TORSDOF 7
ENDMDL
MODEL 9
REMARK VINA RESULT:      -5.8      2.536      5.420
REMARK  7 active torsions:
REMARK  status: ('A' for Active; 'I' for Inactive)
REMARK    1  A    between atoms: O_2  and  C_10 
REMARK    2  A    between atoms: O_3  and  C_11 
REMARK    3  A    between atoms: O_4  and  C_14 
REMARK    4  A    between atoms: O_6  and  N_9 
REMARK    5  A    between atoms: N_7  and  C_12 
REMARK    6  A    between atoms: N_9  and  C_18 
REMARK    7  A    between atoms: C_13  and  C_14 
ROOT
HETATM    1  O   UNK     0     -48.348  -0.153  15.315  0.00  0.00    -0.353 OA
HETATM    2  C   UNK     0     -47.316  -2.282  15.188  0.00  0.00     0.198 C 
HETATM    3  C   UNK     0     -48.653  -2.349  14.481  0.00  0.00     0.182 C 
HETATM    4  C   UNK     0     -47.060  -0.786  15.238  0.00  0.00     0.264 C 
HETATM    5  C   UNK     0     -49.374  -1.133  15.046  0.00  0.00     0.179 C 
ENDROOT
BRANCH   4   6
HETATM    6  N   UNK     0     -46.282  -0.400  16.380  0.00  0.00    -0.278 N 
HETATM    7  C   UNK     0     -46.931   0.160  17.469  0.00  0.00     0.102 A 
HETATM    8  C   UNK     0     -46.290   0.545  18.570  0.00  0.00     0.070 A 
HETATM    9  C   UNK     0     -44.817   0.346  18.580  0.00  0.00     0.153 A 
HETATM   10  N   UNK     0     -44.189  -0.179  17.561  0.00  0.00    -0.174 NA
HETATM   11  C   UNK     0     -44.875  -0.576  16.426  0.00  0.00     0.352 A 
HETATM   12  O   UNK     0     -44.268  -1.071  15.475  0.00  0.00    -0.244 OA
BRANCH   9  13
HETATM   13  N   UNK     0     -44.115   0.733  19.699  0.00  0.00    -0.251 N 
HETATM   14  H   UNK     0     -44.421   1.385  20.412  0.00  0.00     0.196 HD
BRANCH  13  15
HETATM   15  O   UNK     0     -42.937   0.064  19.861  0.00  0.00    -0.288 OA
HETATM   16  H   UNK     0     -43.144  -0.531  20.600  0.00  0.00     0.244 HD
ENDBRANCH  13  15
ENDBRANCH   9  13
ENDBRANCH   4   6
BRANCH   5  17
HETATM   17  C   UNK     0     -50.107  -1.421  16.351  0.00  0.00     0.198 C 
BRANCH  17  18
HETATM   18  O   UNK     0     -50.469  -0.188  16.947  0.00  0.00    -0.398 OA
HETATM   19  H   UNK     0     -49.783   0.024  17.604  0.00  0.00     0.209 HD
ENDBRANCH  17  18
ENDBRANCH   5  17
BRANCH   2  20
HETATM   20  O   UNK     0     -46.305  -2.983  14.492  0.00  0.00    -0.388 OA
HETATM   21  H   UNK     0     -46.668  -3.851  14.246  0.00  0.00     0.210 HD
ENDBRANCH   2  20
BRANCH   3  22
HETATM   22  O   UNK     0     -48.482  -2.146  13.078  0.00  0.00    -0.390 OA
HETATM   23  H   UNK     0     -47.559  -1.896  12.904  0.00  0.00     0.210 HD
ENDBRANCH   3  22
TORSDOF 7
ENDMDL
MODEL 10
REMARK VINA RESULT:      -5.8     17.202     18.698
REMARK  7 active torsions:
REMARK  status: ('A' for Active; 'I' for Inactive)
REMARK    1  A    between atoms: O_2  and  C_10 
REMARK    2  A    between atoms: O_3  and  C_11 
REMARK    3  A    between atoms: O_4  and  C_14 
REMARK    4  A    between atoms: O_6  and  N_9 
REMARK    5  A    between atoms: N_7  and  C_12 
REMARK    6  A    between atoms: N_9  and  C_18 
REMARK    7  A    between atoms: C_13  and  C_14 
ROOT
HETATM    1  O   UNK     0     -47.489 -15.129  26.574  0.00  0.00    -0.353 OA
HETATM    2  C   UNK     0     -49.386 -16.391  27.224  0.00  0.00     0.198 C 
HETATM    3  C   UNK     0     -49.159 -15.297  28.246  0.00  0.00     0.182 C 
HETATM    4  C   UNK     0     -48.587 -15.884  26.036  0.00  0.00     0.264 C 
HETATM    5  C   UNK     0     -47.708 -14.914  27.985  0.00  0.00     0.179 C 
ENDROOT
BRANCH   4   6
HETATM    6  N   UNK     0     -48.069 -16.951  25.228  0.00  0.00    -0.278 N 
HETATM    7  C   UNK     0     -47.917 -18.205  25.800  0.00  0.00     0.102 A 
HETATM    8  C   UNK     0     -47.445 -19.251  25.125  0.00  0.00     0.070 A 
HETATM    9  C   UNK     0     -47.080 -19.011  23.704  0.00  0.00     0.153 A 
HETATM   10  N   UNK     0     -47.216 -17.835  23.151  0.00  0.00    -0.174 NA
HETATM   11  C   UNK     0     -47.711 -16.759  23.869  0.00  0.00     0.352 A 
HETATM   12  O   UNK     0     -47.835 -15.658  23.331  0.00  0.00    -0.244 OA
BRANCH   9  13
HETATM   13  N   UNK     0     -46.586 -20.066  22.972  0.00  0.00    -0.251 N 
HETATM   14  H   UNK     0     -46.069 -20.012  22.103  0.00  0.00     0.196 HD
BRANCH  13  15
HETATM   15  O   UNK     0     -46.757 -21.277  23.578  0.00  0.00    -0.288 OA
HETATM   16  H   UNK     0     -46.408 -21.106  24.469  0.00  0.00     0.244 HD
ENDBRANCH  13  15
ENDBRANCH   9  13
ENDBRANCH   4   6
BRANCH   5  17
HETATM   17  C   UNK     0     -46.711 -15.770  28.755  0.00  0.00     0.198 C 
BRANCH  17  18
HETATM   18  O   UNK     0     -45.784 -16.321  27.838  0.00  0.00    -0.398 OA
HETATM   19  H   UNK     0     -45.694 -15.686  27.106  0.00  0.00     0.209 HD
ENDBRANCH  17  18
ENDBRANCH   5  17
BRANCH   2  20
HETATM   20  O   UNK     0     -50.756 -16.567  26.922  0.00  0.00    -0.388 OA
HETATM   21  H   UNK     0     -51.220 -16.733  27.760  0.00  0.00     0.210 HD
ENDBRANCH   2  20
BRANCH   3  22
HETATM   22  O   UNK     0     -49.974 -14.164  27.947  0.00  0.00    -0.390 OA
HETATM   23  H   UNK     0     -49.470 -13.549  27.389  0.00  0.00     0.210 HD
ENDBRANCH   3  22
TORSDOF 7
ENDMDL
