MODEL 1
REMARK VINA RESULT:     -12.4      0.000      0.000
REMARK  8 active torsions:
REMARK  status: ('A' for Active; 'I' for Inactive)
REMARK    1  A    between atoms: O_1  and  C_33 
REMARK    2  A    between atoms: O_1  and  C_49 
REMARK    3  A    between atoms: O_8  and  C_53 
REMARK    4  A    between atoms: O_12  and  C_56 
REMARK    5  A    between atoms: O_13  and  C_57 
REMARK    6  A    between atoms: O_14  and  C_59 
REMARK    7  A    between atoms: C_52  and  C_55 
REMARK    8  A    between atoms: C_58  and  C_60 
ROOT
HETATM    1  O   MOL     1     -48.346  -9.659  20.744  1.00  0.00     0.000 OA
ENDROOT
BRANCH   1   2
HETATM    2  C   MOL     1     -48.684  -8.992  20.078  1.00  0.00     0.007 C 
HETATM    3  C   MOL     1     -49.704  -8.624  20.149  1.00  0.00    -0.058 C 
HETATM    4  C   MOL     1     -49.919  -7.507  19.785  1.00  0.00    -0.007 C 
HETATM    5  C   MOL     1     -50.618  -8.672  20.552  1.00  0.00     0.027 C 
HETATM    6  C   MOL     1     -49.885  -9.257  20.902  1.00  0.00    -0.005 C 
HETATM    7  C   MOL     1     -49.409  -7.481  18.724  1.00  0.00    -0.037 A 
HETATM    8  C   MOL     1     -51.037  -7.542  19.493  1.00  0.00     0.006 C 
HETATM    9  C   MOL     1     -49.621  -6.359  18.430  1.00  0.00     0.013 A 
HETATM   10  C   MOL     1     -48.361  -7.762  18.700  1.00  0.00     0.014 C 
HETATM   11  C   MOL     1     -49.026  -7.755  17.427  1.00  0.00     0.081 C 
HETATM   12  C   MOL     1     -49.119  -6.319  17.432  1.00  0.00    -0.024 A 
HETATM   13  C   MOL     1     -50.711  -6.443  18.104  1.00  0.00    -0.033 A 
HETATM   14  C   MOL     1     -51.008  -5.670  17.535  1.00  0.00    -0.030 A 
HETATM   15  C   MOL     1     -51.365  -6.810  18.828  1.00  0.00     0.011 C 
HETATM   16  C   MOL     1     -51.906  -7.046  17.769  1.00  0.00     0.044 C 
HETATM   17  C   MOL     1     -50.392  -5.310  16.832  1.00  0.00    -0.018 A 
HETATM   18  C   MOL     1     -50.839  -4.933  15.836  1.00  0.00    -0.002 C 
HETATM   19  C   MOL     1     -49.441  -5.616  16.797  1.00  0.00    -0.036 C 
HETATM   20  C   MOL     1     -52.014  -5.396  17.549  1.00  0.00     0.041 A 
HETATM   21  C   MOL     1     -51.715  -4.288  16.161  1.00  0.00    -0.059 C 
HETATM   22  C   MOL     1     -50.012  -4.163  15.447  1.00  0.00     0.003 C 
HETATM   23  C   MOL     1     -52.357  -4.665  16.892  1.00  0.00     0.009 C 
HETATM   24  C   MOL     1     -52.059  -3.491  15.509  1.00  0.00     0.014 C 
HETATM   25  C   MOL     1     -52.905  -4.651  15.566  1.00  0.00     0.028 C 
HETATM   26  C   MOL     1     -51.377  -3.062  14.782  1.00  0.00     0.253 A 
HETATM   27  C   MOL     1     -50.334  -3.365  14.785  1.00  0.00     0.003 A 
HETATM   28  O   MOL     1     -50.886  -2.183  13.644  1.00  0.00    -0.382 OA
HETATM   29  C   MOL     1     -49.177  -2.647  15.010  1.00  0.00     0.044 C 
HETATM   30  C   MOL     1     -50.158  -2.770  13.999  1.00  0.00     0.080 A 
HETATM   31  O   MOL     1     -49.242  -2.727  13.599  1.00  0.00     0.000 OA
HETATM   32  C   MOL     1     -51.610  -5.168  18.669  1.00  0.00     0.025 C 
HETATM   33  C   MOL     1     -47.996  -8.523  19.382  1.00  0.00    -0.012 C 
HETATM   34  O   MOL     1     -48.167  -6.626  17.398  1.00  0.00     0.000 OA
ENDBRANCH   1   2
BRANCH   1  35
HETATM   35  C   MOL     1     -47.621 -10.300  20.489  1.00  0.00    -0.027 A 
HETATM   36  O   MOL     1     -47.828 -11.067  19.878  1.00  0.00     0.000 OA
HETATM   37  C   MOL     1     -47.135 -11.766  19.698  1.00  0.00     0.096 A 
HETATM   38  C   MOL     1     -46.203 -11.642  20.053  1.00  0.00     0.133 A 
HETATM   39  C   MOL     1     -46.043 -10.962  20.776  1.00  0.00     0.055 A 
HETATM   40  O   MOL     1     -45.443 -11.444  21.920  1.00  0.00     0.000 OA
HETATM   41  C   MOL     1     -46.721 -10.233  20.919  1.00  0.00     0.007 A 
HETATM   42  H   MOL     1     -44.687 -11.281  21.033  1.00  0.00     0.000 HD
HETATM   43  O   MOL     1     -44.936 -10.128  21.816  1.00  0.00     0.000 OA
HETATM   44  C   MOL     1     -45.661  -9.486  22.072  1.00  0.00     0.057 A 
HETATM   45  C   MOL     1     -44.051 -10.089  22.284  1.00  0.00     0.071 C 
HETATM   46  O   MOL     1     -46.545  -9.525  21.604  1.00  0.00     0.000 OA
HETATM   47  C   MOL     1     -45.438  -8.691  22.644  1.00  0.00     0.154 A 
HETATM   48  C   MOL     1     -44.569  -8.681  23.149  1.00  0.00     0.211 A 
HETATM   49  C   MOL     1     -43.828  -9.294  22.856  1.00  0.00     0.146 C 
BRANCH  37  50
HETATM   50  C   MOL     1     -47.626 -13.053  19.765  1.00  0.00     0.297 C 
HETATM   51  O   MOL     1     -46.958 -13.024  18.519  1.00  0.00    -0.188 OA
HETATM   52  O   MOL     1     -48.531 -12.404  18.894  1.00  0.00    -0.188 OA
ENDBRANCH  37  50
BRANCH  38  53
HETATM   53  O   MOL     1     -45.193 -11.762  19.121  1.00  0.00    -0.395 OA
HETATM   54  H   MOL     1     -45.027 -10.872  19.872  1.00  0.00     0.210 HD
ENDBRANCH  38  53
BRANCH  47  55
HETATM   55  O   MOL     1     -45.847  -7.471  22.147  1.00  0.00    -0.393 OA
HETATM   56  H   MOL     1     -45.343  -7.395  23.208  1.00  0.00     0.210 HD
ENDBRANCH  47  55
BRANCH  48  57
HETATM   57  O   MOL     1     -44.678  -8.494  24.511  1.00  0.00    -0.392 OA
HETATM   58  H   MOL     1     -44.712  -9.626  24.195  1.00  0.00     0.210 HD
ENDBRANCH  48  57
BRANCH  49  59
HETATM   59  O   MOL     1     -42.628  -8.678  22.571  1.00  0.00    -0.399 OA
HETATM   60  H   MOL     1     -43.526  -8.259  21.938  1.00  0.00     0.209 HD
ENDBRANCH  49  59
BRANCH  45  61
HETATM   61  C   MOL     1     -43.642 -11.310  22.780  1.00  0.00     0.292 C 
HETATM   62  O   MOL     1     -42.597 -10.437  23.160  1.00  0.00    -0.188 OA
HETATM   63  O   MOL     1     -42.864 -11.158  21.608  1.00  0.00    -0.188 OA
ENDBRANCH  45  61
ENDBRANCH   1  35
TORSDOF 8
ENDMDL
MODEL 2
REMARK VINA RESULT:     -12.2     11.169     13.916
REMARK  8 active torsions:
REMARK  status: ('A' for Active; 'I' for Inactive)
REMARK    1  A    between atoms: O_1  and  C_33 
REMARK    2  A    between atoms: O_1  and  C_49 
REMARK    3  A    between atoms: O_8  and  C_53 
REMARK    4  A    between atoms: O_12  and  C_56 
REMARK    5  A    between atoms: O_13  and  C_57 
REMARK    6  A    between atoms: O_14  and  C_59 
REMARK    7  A    between atoms: C_52  and  C_55 
REMARK    8  A    between atoms: C_58  and  C_60 
ROOT
HETATM    1  O   MOL     1     -46.571 -19.346  23.385  1.00  0.00     0.000 OA
ENDROOT
BRANCH   1   2
HETATM    2  C   MOL     1     -46.679 -18.692  24.136  1.00  0.00     0.007 C 
HETATM    3  C   MOL     1     -47.626 -18.177  24.275  1.00  0.00    -0.058 C 
HETATM    4  C   MOL     1     -47.944 -17.888  25.390  1.00  0.00    -0.007 C 
HETATM    5  C   MOL     1     -48.542 -17.942  23.949  1.00  0.00     0.027 C 
HETATM    6  C   MOL     1     -47.980 -18.592  23.437  1.00  0.00    -0.005 C 
HETATM    7  C   MOL     1     -46.977 -17.358  25.802  1.00  0.00    -0.037 A 
HETATM    8  C   MOL     1     -48.643 -16.981  25.230  1.00  0.00     0.006 C 
HETATM    9  C   MOL     1     -47.332 -17.127  26.902  1.00  0.00     0.013 A 
HETATM   10  C   MOL     1     -46.061 -17.937  25.737  1.00  0.00     0.014 C 
HETATM   11  C   MOL     1     -45.886 -16.530  25.973  1.00  0.00     0.081 C 
HETATM   12  C   MOL     1     -46.410 -16.643  27.309  1.00  0.00    -0.024 A 
HETATM   13  C   MOL     1     -47.976 -16.204  26.711  1.00  0.00    -0.033 A 
HETATM   14  C   MOL     1     -48.138 -15.664  27.543  1.00  0.00    -0.030 A 
HETATM   15  C   MOL     1     -48.764 -16.342  26.045  1.00  0.00     0.011 C 
HETATM   16  C   MOL     1     -48.534 -15.152  26.015  1.00  0.00     0.044 C 
HETATM   17  C   MOL     1     -47.388 -15.519  28.191  1.00  0.00    -0.018 A 
HETATM   18  C   MOL     1     -47.310 -14.506  28.740  1.00  0.00    -0.002 C 
HETATM   19  C   MOL     1     -46.533 -16.028  28.088  1.00  0.00    -0.036 C 
HETATM   20  C   MOL     1     -49.014 -15.102  27.612  1.00  0.00     0.041 A 
HETATM   21  C   MOL     1     -48.370 -14.311  29.096  1.00  0.00    -0.059 C 
HETATM   22  C   MOL     1     -46.695 -14.783  29.726  1.00  0.00     0.003 C 
HETATM   23  C   MOL     1     -49.150 -14.460  28.420  1.00  0.00     0.009 C 
HETATM   24  C   MOL     1     -48.531 -13.679  29.965  1.00  0.00     0.014 C 
HETATM   25  C   MOL     1     -48.857 -13.083  28.699  1.00  0.00     0.028 C 
HETATM   26  C   MOL     1     -47.738 -13.563  30.696  1.00  0.00     0.253 A 
HETATM   27  C   MOL     1     -46.833 -14.157  30.603  1.00  0.00     0.003 A 
HETATM   28  O   MOL     1     -47.010 -13.058  31.931  1.00  0.00    -0.382 OA
HETATM   29  C   MOL     1     -46.281 -15.112  31.431  1.00  0.00     0.044 C 
HETATM   30  C   MOL     1     -46.454 -13.708  31.413  1.00  0.00     0.080 A 
HETATM   31  O   MOL     1     -45.537 -13.948  31.734  1.00  0.00     0.000 OA
HETATM   32  C   MOL     1     -49.381 -16.257  27.592  1.00  0.00     0.025 C 
HETATM   33  C   MOL     1     -45.911 -18.608  24.898  1.00  0.00    -0.012 C 
HETATM   34  O   MOL     1     -45.554 -17.153  27.205  1.00  0.00     0.000 OA
ENDBRANCH   1   2
BRANCH   1  35
HETATM   35  C   MOL     1     -45.664 -19.528  23.006  1.00  0.00    -0.027 A 
HETATM   36  O   MOL     1     -45.223 -18.845  22.420  1.00  0.00     0.000 OA
HETATM   37  C   MOL     1     -44.362 -19.060  21.958  1.00  0.00     0.096 A 
HETATM   38  C   MOL     1     -43.894 -19.926  22.163  1.00  0.00     0.133 A 
HETATM   39  C   MOL     1     -44.403 -20.658  22.625  1.00  0.00     0.055 A 
HETATM   40  O   MOL     1     -44.424 -21.871  21.967  1.00  0.00     0.000 OA
HETATM   41  C   MOL     1     -45.243 -20.427  23.129  1.00  0.00     0.007 A 
HETATM   42  H   MOL     1     -43.411 -21.664  22.528  1.00  0.00     0.000 HD
HETATM   43  O   MOL     1     -44.423 -22.240  23.333  1.00  0.00     0.000 OA
HETATM   44  C   MOL     1     -45.331 -22.058  23.713  1.00  0.00     0.057 A 
HETATM   45  C   MOL     1     -44.025 -23.155  23.415  1.00  0.00     0.071 C 
HETATM   46  O   MOL     1     -45.728 -21.142  23.631  1.00  0.00     0.000 OA
HETATM   47  C   MOL     1     -45.748 -22.724  24.339  1.00  0.00     0.154 A 
HETATM   48  C   MOL     1     -45.373 -23.656  24.380  1.00  0.00     0.211 A 
HETATM   49  C   MOL     1     -44.441 -23.822  24.041  1.00  0.00     0.146 C 
BRANCH  37  50
HETATM   50  C   MOL     1     -44.340 -18.675  20.634  1.00  0.00     0.297 C 
HETATM   51  O   MOL     1     -43.299 -17.913  21.212  1.00  0.00    -0.188 OA
HETATM   52  O   MOL     1     -45.002 -17.602  21.275  1.00  0.00    -0.188 OA
ENDBRANCH  37  50
BRANCH  38  53
HETATM   53  O   MOL     1     -42.567 -19.811  22.522  1.00  0.00    -0.395 OA
HETATM   54  H   MOL     1     -43.286 -19.162  23.189  1.00  0.00     0.210 HD
ENDBRANCH  38  53
BRANCH  47  55
HETATM   55  O   MOL     1     -46.190 -22.211  25.541  1.00  0.00    -0.393 OA
HETATM   56  H   MOL     1     -47.004 -22.173  24.692  1.00  0.00     0.210 HD
ENDBRANCH  47  55
BRANCH  48  57
HETATM   57  O   MOL     1     -46.278 -24.669  24.144  1.00  0.00    -0.392 OA
HETATM   58  H   MOL     1     -45.320 -25.029  24.726  1.00  0.00     0.210 HD
ENDBRANCH  48  57
BRANCH  49  59
HETATM   59  O   MOL     1     -43.578 -24.406  24.944  1.00  0.00    -0.399 OA
HETATM   60  H   MOL     1     -43.027 -23.786  24.110  1.00  0.00     0.209 HD
ENDBRANCH  49  59
BRANCH  45  61
HETATM   61  C   MOL     1     -43.581 -23.668  22.213  1.00  0.00     0.292 C 
HETATM   62  O   MOL     1     -43.253 -24.683  23.141  1.00  0.00    -0.188 OA
HETATM   63  O   MOL     1     -42.393 -23.212  22.830  1.00  0.00    -0.188 OA
ENDBRANCH  45  61
ENDBRANCH   1  35
TORSDOF 8
ENDMDL
MODEL 3
REMARK VINA RESULT:     -11.6      1.049      2.965
REMARK  8 active torsions:
REMARK  status: ('A' for Active; 'I' for Inactive)
REMARK    1  A    between atoms: O_1  and  C_33 
REMARK    2  A    between atoms: O_1  and  C_49 
REMARK    3  A    between atoms: O_8  and  C_53 
REMARK    4  A    between atoms: O_12  and  C_56 
REMARK    5  A    between atoms: O_13  and  C_57 
REMARK    6  A    between atoms: O_14  and  C_59 
REMARK    7  A    between atoms: C_52  and  C_55 
REMARK    8  A    between atoms: C_58  and  C_60 
ROOT
HETATM    1  O   MOL     1     -48.719  -9.755  20.781  1.00  0.00     0.000 OA
ENDROOT
BRANCH   1   2
HETATM    2  C   MOL     1     -49.005  -9.064  20.116  1.00  0.00     0.007 C 
HETATM    3  C   MOL     1     -49.980  -8.593  20.207  1.00  0.00    -0.058 C 
HETATM    4  C   MOL     1     -50.090  -7.463  19.834  1.00  0.00    -0.007 C 
HETATM    5  C   MOL     1     -50.883  -8.544  20.634  1.00  0.00     0.027 C 
HETATM    6  C   MOL     1     -50.205  -9.196  20.972  1.00  0.00    -0.005 C 
HETATM    7  C   MOL     1     -49.608  -7.500  18.761  1.00  0.00    -0.037 A 
HETATM    8  C   MOL     1     -51.213  -7.388  19.571  1.00  0.00     0.006 C 
HETATM    9  C   MOL     1     -49.712  -6.366  18.459  1.00  0.00     0.013 A 
HETATM   10  C   MOL     1     -48.595  -7.886  18.715  1.00  0.00     0.014 C 
HETATM   11  C   MOL     1     -49.289  -7.824  17.458  1.00  0.00     0.081 C 
HETATM   12  C   MOL     1     -49.235  -6.386  17.448  1.00  0.00    -0.024 A 
HETATM   13  C   MOL     1     -50.813  -6.341  18.160  1.00  0.00    -0.033 A 
HETATM   14  C   MOL     1     -51.045  -5.548  17.589  1.00  0.00    -0.030 A 
HETATM   15  C   MOL     1     -51.482  -6.633  18.905  1.00  0.00     0.011 C 
HETATM   16  C   MOL     1     -52.071  -6.823  17.863  1.00  0.00     0.044 C 
HETATM   17  C   MOL     1     -50.414  -5.259  16.867  1.00  0.00    -0.018 A 
HETATM   18  C   MOL     1     -50.846  -4.848  15.878  1.00  0.00    -0.002 C 
HETATM   19  C   MOL     1     -49.500  -5.661  16.813  1.00  0.00    -0.036 C 
HETATM   20  C   MOL     1     -52.017  -5.172  17.625  1.00  0.00     0.041 A 
HETATM   21  C   MOL     1     -51.643  -4.115  16.217  1.00  0.00    -0.059 C 
HETATM   22  C   MOL     1     -49.956  -4.171  15.459  1.00  0.00     0.003 C 
HETATM   23  C   MOL     1     -52.301  -4.417  16.967  1.00  0.00     0.009 C 
HETATM   24  C   MOL     1     -51.922  -3.293  15.563  1.00  0.00     0.014 C 
HETATM   25  C   MOL     1     -52.879  -4.361  15.655  1.00  0.00     0.028 C 
HETATM   26  C   MOL     1     -51.218  -2.943  14.814  1.00  0.00     0.253 A 
HETATM   27  C   MOL     1     -50.212  -3.351  14.794  1.00  0.00     0.003 A 
HETATM   28  O   MOL     1     -50.670  -2.130  13.653  1.00  0.00    -0.382 OA
HETATM   29  C   MOL     1     -48.983  -2.752  14.982  1.00  0.00     0.044 C 
HETATM   30  C   MOL     1     -49.997  -2.785  13.997  1.00  0.00     0.080 A 
HETATM   31  O   MOL     1     -49.092  -2.839  13.575  1.00  0.00     0.000 OA
HETATM   32  C   MOL     1     -51.563  -4.976  18.732  1.00  0.00     0.025 C 
HETATM   33  C   MOL     1     -48.291  -8.674  19.397  1.00  0.00    -0.012 C 
HETATM   34  O   MOL     1     -48.320  -6.789  17.394  1.00  0.00     0.000 OA
ENDBRANCH   1   2
BRANCH   1  35
HETATM   35  C   MOL     1     -47.795  -9.730  21.164  1.00  0.00    -0.027 A 
HETATM   36  O   MOL     1     -47.480  -8.914  21.652  1.00  0.00     0.000 OA
HETATM   37  C   MOL     1     -46.527  -8.843  21.950  1.00  0.00     0.096 A 
HETATM   38  C   MOL     1     -45.917  -9.635  21.847  1.00  0.00     0.133 A 
HETATM   39  C   MOL     1     -46.189 -10.383  21.233  1.00  0.00     0.055 A 
HETATM   40  O   MOL     1     -45.281 -10.697  20.243  1.00  0.00     0.000 OA
HETATM   41  C   MOL     1     -47.157 -10.477  20.976  1.00  0.00     0.007 A 
HETATM   42  H   MOL     1     -44.983 -11.123  21.298  1.00  0.00     0.000 HD
HETATM   43  O   MOL     1     -45.865 -11.946  20.557  1.00  0.00     0.000 OA
HETATM   44  C   MOL     1     -46.790 -11.971  20.174  1.00  0.00     0.057 A 
HETATM   45  C   MOL     1     -45.212 -12.670  20.327  1.00  0.00     0.071 C 
HETATM   46  O   MOL     1     -47.442 -11.247  20.405  1.00  0.00     0.000 OA
HETATM   47  C   MOL     1     -47.118 -12.810  19.729  1.00  0.00     0.154 A 
HETATM   48  C   MOL     1     -46.451 -13.511  19.457  1.00  0.00     0.211 A 
HETATM   49  C   MOL     1     -45.541 -13.509  19.882  1.00  0.00     0.146 C 
BRANCH  37  50
HETATM   50  C   MOL     1     -45.957  -7.617  21.678  1.00  0.00     0.297 C 
HETATM   51  O   MOL     1     -45.719  -7.787  23.061  1.00  0.00    -0.188 OA
HETATM   52  O   MOL     1     -47.185  -7.277  22.293  1.00  0.00    -0.188 OA
ENDBRANCH  37  50
BRANCH  38  53
HETATM   53  O   MOL     1     -45.247 -10.020  22.989  1.00  0.00    -0.395 OA
HETATM   54  H   MOL     1     -46.094  -9.229  23.192  1.00  0.00     0.210 HD
ENDBRANCH  38  53
BRANCH  47  55
HETATM   55  O   MOL     1     -48.327 -13.290  20.190  1.00  0.00    -0.393 OA
HETATM   56  H   MOL     1     -47.747 -14.061  19.516  1.00  0.00     0.210 HD
ENDBRANCH  47  55
BRANCH  48  57
HETATM   57  O   MOL     1     -46.482 -13.872  18.126  1.00  0.00    -0.392 OA
HETATM   58  H   MOL     1     -46.303 -14.782  18.850  1.00  0.00     0.210 HD
ENDBRANCH  48  57
BRANCH  49  59
HETATM   59  O   MOL     1     -45.172 -14.688  20.496  1.00  0.00    -0.399 OA
HETATM   60  H   MOL     1     -44.439 -14.364  19.634  1.00  0.00     0.209 HD
ENDBRANCH  49  59
BRANCH  45  61
HETATM   61  C   MOL     1     -44.003 -12.189  19.867  1.00  0.00     0.292 C 
HETATM   62  O   MOL     1     -43.833 -13.592  19.828  1.00  0.00    -0.188 OA
HETATM   63  O   MOL     1     -43.722 -12.549  21.205  1.00  0.00    -0.188 OA
ENDBRANCH  45  61
ENDBRANCH   1  35
TORSDOF 8
ENDMDL
MODEL 4
REMARK VINA RESULT:     -11.3      2.466      9.015
REMARK  8 active torsions:
REMARK  status: ('A' for Active; 'I' for Inactive)
REMARK    1  A    between atoms: O_1  and  C_33 
REMARK    2  A    between atoms: O_1  and  C_49 
REMARK    3  A    between atoms: O_8  and  C_53 
REMARK    4  A    between atoms: O_12  and  C_56 
REMARK    5  A    between atoms: O_13  and  C_57 
REMARK    6  A    between atoms: O_14  and  C_59 
REMARK    7  A    between atoms: C_52  and  C_55 
REMARK    8  A    between atoms: C_58  and  C_60 
ROOT
HETATM    1  O   MOL     1     -50.273  -6.745  19.902  1.00  0.00     0.000 OA
ENDROOT
BRANCH   1   2
HETATM    2  C   MOL     1     -49.475  -7.350  19.937  1.00  0.00     0.007 C 
HETATM    3  C   MOL     1     -49.592  -8.385  20.246  1.00  0.00    -0.058 C 
HETATM    4  C   MOL     1     -48.857  -9.196  19.767  1.00  0.00    -0.007 C 
HETATM    5  C   MOL     1     -50.153  -9.117  20.633  1.00  0.00     0.027 C 
HETATM    6  C   MOL     1     -50.556  -8.219  20.453  1.00  0.00    -0.005 C 
HETATM    7  C   MOL     1     -47.798  -8.703  19.921  1.00  0.00    -0.037 A 
HETATM    8  C   MOL     1     -48.833 -10.027  20.570  1.00  0.00     0.006 C 
HETATM    9  C   MOL     1     -47.124  -9.521  19.406  1.00  0.00     0.013 A 
HETATM   10  C   MOL     1     -47.683  -7.704  19.514  1.00  0.00     0.014 C 
HETATM   11  C   MOL     1     -46.676  -8.106  20.457  1.00  0.00     0.081 C 
HETATM   12  C   MOL     1     -46.117  -9.050  19.526  1.00  0.00    -0.024 A 
HETATM   13  C   MOL     1     -47.083 -10.298  20.241  1.00  0.00    -0.033 A 
HETATM   14  C   MOL     1     -46.321 -10.944  20.135  1.00  0.00    -0.030 A 
HETATM   15  C   MOL     1     -48.008 -10.663  20.553  1.00  0.00     0.011 C 
HETATM   16  C   MOL     1     -47.267 -10.842  21.495  1.00  0.00     0.044 C 
HETATM   17  C   MOL     1     -45.426 -10.606  19.840  1.00  0.00    -0.018 A 
HETATM   18  C   MOL     1     -44.473 -11.089  20.281  1.00  0.00    -0.002 C 
HETATM   19  C   MOL     1     -45.330  -9.667  19.512  1.00  0.00    -0.036 C 
HETATM   20  C   MOL     1     -46.423 -11.906  20.526  1.00  0.00     0.041 A 
HETATM   21  C   MOL     1     -44.676 -12.203  20.206  1.00  0.00    -0.059 C 
HETATM   22  C   MOL     1     -43.650 -10.864  19.445  1.00  0.00     0.003 C 
HETATM   23  C   MOL     1     -45.608 -12.554  20.515  1.00  0.00     0.009 C 
HETATM   24  C   MOL     1     -43.839 -12.893  20.148  1.00  0.00     0.014 C 
HETATM   25  C   MOL     1     -44.528 -12.862  21.408  1.00  0.00     0.028 C 
HETATM   26  C   MOL     1     -42.881 -12.542  19.778  1.00  0.00     0.253 A 
HETATM   27  C   MOL     1     -42.799 -11.536  19.378  1.00  0.00     0.003 A 
HETATM   28  O   MOL     1     -41.411 -12.574  19.393  1.00  0.00    -0.382 OA
HETATM   29  C   MOL     1     -42.478 -11.081  18.115  1.00  0.00     0.044 C 
HETATM   30  C   MOL     1     -41.821 -11.679  19.215  1.00  0.00     0.080 A 
HETATM   31  O   MOL     1     -41.265 -10.943  18.829  1.00  0.00     0.000 OA
HETATM   32  C   MOL     1     -47.249 -11.837  19.642  1.00  0.00     0.025 C 
HETATM   33  C   MOL     1     -48.527  -7.022  19.522  1.00  0.00    -0.012 C 
HETATM   34  O   MOL     1     -46.021  -8.109  19.197  1.00  0.00     0.000 OA
ENDBRANCH   1   2
BRANCH   1  35
HETATM   35  C   MOL     1     -50.150  -5.753  19.898  1.00  0.00    -0.027 A 
HETATM   36  O   MOL     1     -49.914  -5.277  20.748  1.00  0.00     0.000 OA
HETATM   37  C   MOL     1     -49.886  -4.276  20.772  1.00  0.00     0.096 A 
HETATM   38  C   MOL     1     -49.999  -3.758  19.919  1.00  0.00     0.133 A 
HETATM   39  C   MOL     1     -50.378  -4.222  19.112  1.00  0.00     0.055 A 
HETATM   40  O   MOL     1     -51.494  -3.631  18.559  1.00  0.00     0.000 OA
HETATM   41  C   MOL     1     -50.358  -5.227  19.073  1.00  0.00     0.007 A 
HETATM   42  H   MOL     1     -50.492  -3.083  18.279  1.00  0.00     0.000 HD
HETATM   43  O   MOL     1     -50.822  -4.172  17.438  1.00  0.00     0.000 OA
HETATM   44  C   MOL     1     -50.945  -5.166  17.442  1.00  0.00     0.057 A 
HETATM   45  C   MOL     1     -51.078  -3.643  16.627  1.00  0.00     0.071 C 
HETATM   46  O   MOL     1     -50.689  -5.694  18.253  1.00  0.00     0.000 OA
HETATM   47  C   MOL     1     -51.133  -5.644  16.578  1.00  0.00     0.154 A 
HETATM   48  C   MOL     1     -51.437  -5.112  15.782  1.00  0.00     0.211 A 
HETATM   49  C   MOL     1     -51.266  -4.122  15.763  1.00  0.00     0.146 C 
BRANCH  37  50
HETATM   50  C   MOL     1     -50.511  -3.739  21.878  1.00  0.00     0.297 C 
HETATM   51  O   MOL     1     -49.171  -3.308  22.018  1.00  0.00    -0.188 OA
HETATM   52  O   MOL     1     -49.830  -4.863  22.402  1.00  0.00    -0.188 OA
ENDBRANCH  37  50
BRANCH  38  53
HETATM   53  O   MOL     1     -49.015  -2.826  19.658  1.00  0.00    -0.395 OA
HETATM   54  H   MOL     1     -48.612  -3.786  20.206  1.00  0.00     0.210 HD
ENDBRANCH  38  53
BRANCH  47  55
HETATM   55  O   MOL     1     -50.300  -6.707  16.297  1.00  0.00    -0.393 OA
HETATM   56  H   MOL     1     -49.840  -5.950  17.071  1.00  0.00     0.210 HD
ENDBRANCH  47  55
BRANCH  48  57
HETATM   57  O   MOL     1     -52.628  -5.517  15.218  1.00  0.00    -0.392 OA
HETATM   58  H   MOL     1     -52.610  -5.622  16.390  1.00  0.00     0.210 HD
ENDBRANCH  48  57
BRANCH  49  59
HETATM   59  O   MOL     1     -50.566  -3.662  14.667  1.00  0.00    -0.399 OA
HETATM   60  H   MOL     1     -51.729  -3.514  14.571  1.00  0.00     0.209 HD
ENDBRANCH  49  59
BRANCH  45  61
HETATM   61  C   MOL     1     -51.910  -2.579  16.909  1.00  0.00     0.292 C 
HETATM   62  O   MOL     1     -51.800  -2.542  15.499  1.00  0.00    -0.188 OA
HETATM   63  O   MOL     1     -50.662  -1.961  16.669  1.00  0.00    -0.188 OA
ENDBRANCH  45  61
ENDBRANCH   1  35
TORSDOF 8
ENDMDL
MODEL 5
REMARK VINA RESULT:     -11.2      9.284     12.812
REMARK  8 active torsions:
REMARK  status: ('A' for Active; 'I' for Inactive)
REMARK    1  A    between atoms: O_1  and  C_33 
REMARK    2  A    between atoms: O_1  and  C_49 
REMARK    3  A    between atoms: O_8  and  C_53 
REMARK    4  A    between atoms: O_12  and  C_56 
REMARK    5  A    between atoms: O_13  and  C_57 
REMARK    6  A    between atoms: O_14  and  C_59 
REMARK    7  A    between atoms: C_52  and  C_55 
REMARK    8  A    between atoms: C_58  and  C_60 
ROOT
HETATM    1  O   MOL     1     -45.037  -0.675  18.876  1.00  0.00     0.000 OA
ENDROOT
BRANCH   1   2
HETATM    2  C   MOL     1     -44.370   0.015  19.162  1.00  0.00     0.007 C 
HETATM    3  C   MOL     1     -43.632  -0.226  19.922  1.00  0.00    -0.058 C 
HETATM    4  C   MOL     1     -42.566   0.309  19.853  1.00  0.00    -0.007 C 
HETATM    5  C   MOL     1     -43.280  -0.845  20.623  1.00  0.00     0.027 C 
HETATM    6  C   MOL     1     -44.058  -1.120  20.059  1.00  0.00    -0.005 C 
HETATM    7  C   MOL     1     -42.857   1.443  19.724  1.00  0.00    -0.037 A 
HETATM    8  C   MOL     1     -42.201   0.297  20.949  1.00  0.00     0.006 C 
HETATM    9  C   MOL     1     -41.781   1.913  19.628  1.00  0.00     0.013 A 
HETATM   10  C   MOL     1     -43.521   1.665  18.894  1.00  0.00     0.014 C 
HETATM   11  C   MOL     1     -43.400   2.701  19.882  1.00  0.00     0.081 C 
HETATM   12  C   MOL     1     -42.048   2.989  19.481  1.00  0.00    -0.024 A 
HETATM   13  C   MOL     1     -41.474   1.930  20.727  1.00  0.00    -0.033 A 
HETATM   14  C   MOL     1     -40.715   2.563  20.910  1.00  0.00    -0.030 A 
HETATM   15  C   MOL     1     -41.478   1.004  21.203  1.00  0.00     0.011 C 
HETATM   16  C   MOL     1     -41.604   1.815  22.095  1.00  0.00     0.044 C 
HETATM   17  C   MOL     1     -40.701   3.458  20.462  1.00  0.00    -0.018 A 
HETATM   18  C   MOL     1     -40.294   4.368  21.045  1.00  0.00    -0.002 C 
HETATM   19  C   MOL     1     -41.351   3.661  19.731  1.00  0.00    -0.036 C 
HETATM   20  C   MOL     1     -40.075   2.357  21.707  1.00  0.00     0.041 A 
HETATM   21  C   MOL     1     -39.330   3.984  21.505  1.00  0.00    -0.059 C 
HETATM   22  C   MOL     1     -39.951   5.111  20.174  1.00  0.00     0.003 C 
HETATM   23  C   MOL     1     -39.346   3.052  21.973  1.00  0.00     0.009 C 
HETATM   24  C   MOL     1     -38.540   4.689  21.748  1.00  0.00     0.014 C 
HETATM   25  C   MOL     1     -39.270   4.169  22.870  1.00  0.00     0.028 C 
HETATM   26  C   MOL     1     -38.490   5.639  21.226  1.00  0.00     0.253 A 
HETATM   27  C   MOL     1     -39.169   5.831  20.400  1.00  0.00     0.003 A 
HETATM   28  O   MOL     1     -38.001   7.028  20.852  1.00  0.00    -0.382 OA
HETATM   29  C   MOL     1     -38.932   6.065  19.062  1.00  0.00     0.044 C 
HETATM   30  C   MOL     1     -38.780   6.746  20.291  1.00  0.00     0.080 A 
HETATM   31  O   MOL     1     -39.137   7.361  19.588  1.00  0.00     0.000 OA
HETATM   32  C   MOL     1     -39.897   1.452  20.920  1.00  0.00     0.025 C 
HETATM   33  C   MOL     1     -44.283   0.946  18.611  1.00  0.00    -0.012 C 
HETATM   34  O   MOL     1     -42.700   3.192  18.749  1.00  0.00     0.000 OA
ENDBRANCH   1   2
BRANCH   1  35
HETATM   35  C   MOL     1     -46.014  -0.459  18.874  1.00  0.00    -0.027 A 
HETATM   36  O   MOL     1     -46.461  -0.174  19.724  1.00  0.00     0.000 OA
HETATM   37  C   MOL     1     -47.455  -0.052  19.752  1.00  0.00     0.096 A 
HETATM   38  C   MOL     1     -47.985  -0.120  18.902  1.00  0.00     0.133 A 
HETATM   39  C   MOL     1     -47.562  -0.546  18.096  1.00  0.00     0.055 A 
HETATM   40  O   MOL     1     -48.259  -1.605  17.552  1.00  0.00     0.000 OA
HETATM   41  C   MOL     1     -46.560  -0.622  18.053  1.00  0.00     0.007 A 
HETATM   42  H   MOL     1     -48.711  -0.557  17.268  1.00  0.00     0.000 HD
HETATM   43  O   MOL     1     -47.661  -0.994  16.424  1.00  0.00     0.000 OA
HETATM   44  C   MOL     1     -46.684  -1.210  16.425  1.00  0.00     0.057 A 
HETATM   45  C   MOL     1     -48.216  -1.204  15.617  1.00  0.00     0.071 C 
HETATM   46  O   MOL     1     -46.130  -1.000  17.233  1.00  0.00     0.000 OA
HETATM   47  C   MOL     1     -46.229  -1.448  15.561  1.00  0.00     0.154 A 
HETATM   48  C   MOL     1     -46.791  -1.705  14.769  1.00  0.00     0.211 A 
HETATM   49  C   MOL     1     -47.761  -1.441  14.753  1.00  0.00     0.146 C 
BRANCH  37  50
HETATM   50  C   MOL     1     -48.044  -0.616  20.864  1.00  0.00     0.297 C 
HETATM   51  O   MOL     1     -48.498   0.723  20.898  1.00  0.00    -0.188 OA
HETATM   52  O   MOL     1     -46.958   0.112  21.404  1.00  0.00    -0.188 OA
ENDBRANCH  37  50
BRANCH  38  53
HETATM   53  O   MOL     1     -48.821   0.946  18.638  1.00  0.00    -0.395 OA
HETATM   54  H   MOL     1     -49.206  -0.069  18.184  1.00  0.00     0.210 HD
ENDBRANCH  38  53
BRANCH  47  55
HETATM   55  O   MOL     1     -45.093  -0.721  15.271  1.00  0.00    -0.393 OA
HETATM   56  H   MOL     1     -45.424  -0.635  16.397  1.00  0.00     0.210 HD
ENDBRANCH  47  55
BRANCH  48  57
HETATM   57  O   MOL     1     -46.503  -2.933  14.211  1.00  0.00    -0.392 OA
HETATM   58  H   MOL     1     -45.554  -2.382  14.636  1.00  0.00     0.210 HD
ENDBRANCH  48  57
BRANCH  49  59
HETATM   59  O   MOL     1     -48.157  -0.708  13.654  1.00  0.00    -0.399 OA
HETATM   60  H   MOL     1     -47.583  -0.068  14.457  1.00  0.00     0.209 HD
ENDBRANCH  49  59
BRANCH  45  61
HETATM   61  C   MOL     1     -49.352  -1.930  15.909  1.00  0.00     0.292 C 
HETATM   62  O   MOL     1     -49.401  -1.798  14.501  1.00  0.00    -0.188 OA
HETATM   63  O   MOL     1     -49.847  -0.623  15.694  1.00  0.00    -0.188 OA
ENDBRANCH  45  61
ENDBRANCH   1  35
TORSDOF 8
ENDMDL
MODEL 6
REMARK VINA RESULT:     -11.2      3.790      6.526
REMARK  8 active torsions:
REMARK  status: ('A' for Active; 'I' for Inactive)
REMARK    1  A    between atoms: O_1  and  C_33 
REMARK    2  A    between atoms: O_1  and  C_49 
REMARK    3  A    between atoms: O_8  and  C_53 
REMARK    4  A    between atoms: O_12  and  C_56 
REMARK    5  A    between atoms: O_13  and  C_57 
REMARK    6  A    between atoms: O_14  and  C_59 
REMARK    7  A    between atoms: C_52  and  C_55 
REMARK    8  A    between atoms: C_58  and  C_60 
ROOT
HETATM    1  O   MOL     1     -46.333 -13.128  20.552  1.00  0.00     0.000 OA
ENDROOT
BRANCH   1   2
HETATM    2  C   MOL     1     -46.955 -12.358  20.703  1.00  0.00     0.007 C 
HETATM    3  C   MOL     1     -47.003 -11.549  19.979  1.00  0.00    -0.058 C 
HETATM    4  C   MOL     1     -48.049 -10.990  19.838  1.00  0.00    -0.007 C 
HETATM    5  C   MOL     1     -46.643 -11.089  19.168  1.00  0.00     0.027 C 
HETATM    6  C   MOL     1     -46.253 -11.962  19.462  1.00  0.00    -0.005 C 
HETATM    7  C   MOL     1     -48.357 -10.740  20.947  1.00  0.00    -0.037 A 
HETATM    8  C   MOL     1     -47.732  -9.946  19.455  1.00  0.00     0.006 C 
HETATM    9  C   MOL     1     -49.398 -10.224  20.751  1.00  0.00     0.013 A 
HETATM   10  C   MOL     1     -48.393 -11.586  21.626  1.00  0.00     0.014 C 
HETATM   11  C   MOL     1     -48.373 -10.293  22.252  1.00  0.00     0.081 C 
HETATM   12  C   MOL     1     -49.709 -10.004  21.802  1.00  0.00    -0.024 A 
HETATM   13  C   MOL     1     -49.048  -9.189  20.424  1.00  0.00    -0.033 A 
HETATM   14  C   MOL     1     -49.770  -8.494  20.493  1.00  0.00    -0.030 A 
HETATM   15  C   MOL     1     -48.419  -9.175  19.593  1.00  0.00     0.011 C 
HETATM   16  C   MOL     1     -48.176  -8.146  20.187  1.00  0.00     0.044 C 
HETATM   17  C   MOL     1     -50.379  -8.493  21.288  1.00  0.00    -0.018 A 
HETATM   18  C   MOL     1     -50.737  -7.482  21.717  1.00  0.00    -0.002 C 
HETATM   19  C   MOL     1     -50.366  -9.260  21.928  1.00  0.00    -0.036 C 
HETATM   20  C   MOL     1     -49.740  -7.676  19.846  1.00  0.00     0.041 A 
HETATM   21  C   MOL     1     -51.056  -6.897  20.797  1.00  0.00    -0.059 C 
HETATM   22  C   MOL     1     -51.755  -7.773  22.270  1.00  0.00     0.003 C 
HETATM   23  C   MOL     1     -50.420  -6.897  19.971  1.00  0.00     0.009 C 
HETATM   24  C   MOL     1     -51.798  -6.111  20.899  1.00  0.00     0.014 C 
HETATM   25  C   MOL     1     -50.448  -5.663  20.702  1.00  0.00     0.028 C 
HETATM   26  C   MOL     1     -52.495  -6.136  21.730  1.00  0.00     0.253 A 
HETATM   27  C   MOL     1     -52.506  -6.998  22.392  1.00  0.00     0.003 A 
HETATM   28  O   MOL     1     -53.617  -5.694  22.655  1.00  0.00    -0.382 OA
HETATM   29  C   MOL     1     -53.490  -7.926  22.662  1.00  0.00     0.044 C 
HETATM   30  C   MOL     1     -53.222  -6.566  22.943  1.00  0.00     0.080 A 
HETATM   31  O   MOL     1     -53.578  -7.032  23.754  1.00  0.00     0.000 OA
HETATM   32  C   MOL     1     -49.928  -8.636  19.130  1.00  0.00     0.025 C 
HETATM   33  C   MOL     1     -47.688 -12.401  21.503  1.00  0.00    -0.012 C 
HETATM   34  O   MOL     1     -49.695 -10.773  22.443  1.00  0.00     0.000 OA
ENDBRANCH   1   2
BRANCH   1  35
HETATM   35  C   MOL     1     -45.794 -13.494  21.311  1.00  0.00    -0.027 A 
HETATM   36  O   MOL     1     -45.305 -12.867  21.921  1.00  0.00     0.000 OA
HETATM   37  C   MOL     1     -44.686 -13.228  22.620  1.00  0.00     0.096 A 
HETATM   38  C   MOL     1     -44.633 -14.220  22.770  1.00  0.00     0.133 A 
HETATM   39  C   MOL     1     -45.001 -14.839  22.069  1.00  0.00     0.055 A 
HETATM   40  O   MOL     1     -44.115 -15.777  21.583  1.00  0.00     0.000 OA
HETATM   41  C   MOL     1     -45.661 -14.481  21.400  1.00  0.00     0.007 A 
HETATM   42  H   MOL     1     -44.550 -16.054  22.640  1.00  0.00     0.000 HD
HETATM   43  O   MOL     1     -45.358 -16.453  21.548  1.00  0.00     0.000 OA
HETATM   44  C   MOL     1     -45.898 -16.088  20.789  1.00  0.00     0.057 A 
HETATM   45  C   MOL     1     -45.186 -17.438  21.607  1.00  0.00     0.071 C 
HETATM   46  O   MOL     1     -46.069 -15.103  20.730  1.00  0.00     0.000 OA
HETATM   47  C   MOL     1     -46.425 -16.717  20.209  1.00  0.00     0.154 A 
HETATM   48  C   MOL     1     -46.214 -17.699  20.238  1.00  0.00     0.211 A 
HETATM   49  C   MOL     1     -45.713 -18.067  21.028  1.00  0.00     0.146 C 
BRANCH  37  50
HETATM   50  C   MOL     1     -43.483 -12.555  22.685  1.00  0.00     0.297 C 
HETATM   51  O   MOL     1     -43.951 -12.515  24.019  1.00  0.00    -0.188 OA
HETATM   52  O   MOL     1     -44.441 -11.514  22.693  1.00  0.00    -0.188 OA
ENDBRANCH  37  50
BRANCH  38  53
HETATM   53  O   MOL     1     -44.807 -14.632  24.075  1.00  0.00    -0.395 OA
HETATM   54  H   MOL     1     -44.318 -13.565  23.986  1.00  0.00     0.210 HD
ENDBRANCH  38  53
BRANCH  47  55
HETATM   55  O   MOL     1     -47.760 -16.403  20.055  1.00  0.00    -0.393 OA
HETATM   56  H   MOL     1     -47.509 -17.517  19.770  1.00  0.00     0.210 HD
ENDBRANCH  47  55
BRANCH  48  57
HETATM   57  O   MOL     1     -45.908 -18.275  19.022  1.00  0.00    -0.392 OA
HETATM   58  H   MOL     1     -45.082 -17.528  19.403  1.00  0.00     0.210 HD
ENDBRANCH  48  57
BRANCH  49  59
HETATM   59  O   MOL     1     -46.335 -19.103  21.692  1.00  0.00    -0.399 OA
HETATM   60  H   MOL     1     -45.681 -18.426  22.397  1.00  0.00     0.209 HD
ENDBRANCH  49  59
BRANCH  45  61
HETATM   61  C   MOL     1     -43.851 -17.752  21.761  1.00  0.00     0.292 C 
HETATM   62  O   MOL     1     -44.481 -19.017  21.716  1.00  0.00    -0.188 OA
HETATM   63  O   MOL     1     -44.380 -17.930  23.061  1.00  0.00    -0.188 OA
ENDBRANCH  45  61
ENDBRANCH   1  35
TORSDOF 8
ENDMDL
MODEL 7
REMARK VINA RESULT:     -11.1      4.990      8.371
REMARK  8 active torsions:
REMARK  status: ('A' for Active; 'I' for Inactive)
REMARK    1  A    between atoms: O_1  and  C_33 
REMARK    2  A    between atoms: O_1  and  C_49 
REMARK    3  A    between atoms: O_8  and  C_53 
REMARK    4  A    between atoms: O_12  and  C_56 
REMARK    5  A    between atoms: O_13  and  C_57 
REMARK    6  A    between atoms: O_14  and  C_59 
REMARK    7  A    between atoms: C_52  and  C_55 
REMARK    8  A    between atoms: C_58  and  C_60 
ROOT
HETATM    1  O   MOL     1     -44.921 -16.191  20.603  1.00  0.00     0.000 OA
ENDROOT
BRANCH   1   2
HETATM    2  C   MOL     1     -45.289 -15.270  20.462  1.00  0.00     0.007 C 
HETATM    3  C   MOL     1     -44.621 -14.414  20.461  1.00  0.00    -0.058 C 
HETATM    4  C   MOL     1     -44.909 -13.483  19.770  1.00  0.00    -0.007 C 
HETATM    5  C   MOL     1     -43.716 -14.019  20.621  1.00  0.00     0.027 C 
HETATM    6  C   MOL     1     -43.853 -15.006  20.706  1.00  0.00    -0.005 C 
HETATM    7  C   MOL     1     -46.034 -13.289  20.058  1.00  0.00    -0.037 A 
HETATM    8  C   MOL     1     -44.388 -12.598  20.300  1.00  0.00     0.006 C 
HETATM    9  C   MOL     1     -46.272 -12.393  19.331  1.00  0.00     0.013 A 
HETATM   10  C   MOL     1     -46.698 -14.141  19.956  1.00  0.00     0.014 C 
HETATM   11  C   MOL     1     -47.208 -13.053  20.744  1.00  0.00     0.081 C 
HETATM   12  C   MOL     1     -47.348 -12.217  19.581  1.00  0.00    -0.024 A 
HETATM   13  C   MOL     1     -45.788 -11.536  19.907  1.00  0.00    -0.033 A 
HETATM   14  C   MOL     1     -46.126 -10.634  19.621  1.00  0.00    -0.030 A 
HETATM   15  C   MOL     1     -44.771 -11.649  20.101  1.00  0.00     0.011 C 
HETATM   16  C   MOL     1     -45.168 -10.884  20.953  1.00  0.00     0.044 C 
HETATM   17  C   MOL     1     -47.103 -10.509  19.435  1.00  0.00    -0.018 A 
HETATM   18  C   MOL     1     -47.602  -9.507  19.719  1.00  0.00    -0.002 C 
HETATM   19  C   MOL     1     -47.708 -11.304  19.391  1.00  0.00    -0.036 C 
HETATM   20  C   MOL     1     -45.495  -9.809  19.719  1.00  0.00     0.041 A 
HETATM   21  C   MOL     1     -46.879  -8.725  19.327  1.00  0.00    -0.059 C 
HETATM   22  C   MOL     1     -48.542  -9.460  18.984  1.00  0.00     0.003 C 
HETATM   23  C   MOL     1     -45.862  -8.855  19.523  1.00  0.00     0.009 C 
HETATM   24  C   MOL     1     -47.251  -7.737  19.074  1.00  0.00     0.014 C 
HETATM   25  C   MOL     1     -46.489  -7.817  20.290  1.00  0.00     0.028 C 
HETATM   26  C   MOL     1     -48.298  -7.608  18.821  1.00  0.00     0.253 A 
HETATM   27  C   MOL     1     -48.937  -8.482  18.727  1.00  0.00     0.003 A 
HETATM   28  O   MOL     1     -49.590  -6.901  18.443  1.00  0.00    -0.382 OA
HETATM   29  C   MOL     1     -49.630  -8.991  17.648  1.00  0.00     0.044 C 
HETATM   30  C   MOL     1     -49.719  -7.889  18.530  1.00  0.00     0.080 A 
HETATM   31  O   MOL     1     -50.622  -8.290  18.372  1.00  0.00     0.000 OA
HETATM   32  C   MOL     1     -44.962 -10.517  18.891  1.00  0.00     0.025 C 
HETATM   33  C   MOL     1     -46.323 -15.139  20.159  1.00  0.00    -0.012 C 
HETATM   34  O   MOL     1     -47.954 -13.013  19.537  1.00  0.00     0.000 OA
ENDBRANCH   1   2
BRANCH   1  35
HETATM   35  C   MOL     1     -45.282 -16.769  21.335  1.00  0.00    -0.027 A 
HETATM   36  O   MOL     1     -45.761 -16.349  22.110  1.00  0.00     0.000 OA
HETATM   37  C   MOL     1     -46.037 -16.909  22.892  1.00  0.00     0.096 A 
HETATM   38  C   MOL     1     -45.920 -17.907  22.853  1.00  0.00     0.133 A 
HETATM   39  C   MOL     1     -45.315 -18.299  22.153  1.00  0.00     0.055 A 
HETATM   40  O   MOL     1     -44.304 -19.107  22.631  1.00  0.00     0.000 OA
HETATM   41  C   MOL     1     -45.081 -17.748  21.345  1.00  0.00     0.007 A 
HETATM   42  H   MOL     1     -45.353 -19.640  22.607  1.00  0.00     0.000 HD
HETATM   43  O   MOL     1     -44.635 -19.698  21.388  1.00  0.00     0.000 OA
HETATM   44  C   MOL     1     -44.273 -19.120  20.655  1.00  0.00     0.057 A 
HETATM   45  C   MOL     1     -44.390 -20.668  21.422  1.00  0.00     0.071 C 
HETATM   46  O   MOL     1     -44.518 -18.150  20.622  1.00  0.00     0.000 OA
HETATM   47  C   MOL     1     -43.838 -19.549  19.857  1.00  0.00     0.154 A 
HETATM   48  C   MOL     1     -43.551 -20.510  19.915  1.00  0.00     0.211 A 
HETATM   49  C   MOL     1     -43.955 -21.097  20.624  1.00  0.00     0.146 C 
BRANCH  37  50
HETATM   50  C   MOL     1     -45.748 -16.327  24.109  1.00  0.00     0.297 C 
HETATM   51  O   MOL     1     -47.055 -16.835  24.292  1.00  0.00    -0.188 OA
HETATM   52  O   MOL     1     -46.588 -15.377  23.484  1.00  0.00    -0.188 OA
ENDBRANCH  37  50
BRANCH  38  53
HETATM   53  O   MOL     1     -47.047 -18.646  23.143  1.00  0.00    -0.395 OA
HETATM   54  H   MOL     1     -46.631 -18.053  24.069  1.00  0.00     0.210 HD
ENDBRANCH  38  53
BRANCH  47  55
HETATM   55  O   MOL     1     -44.328 -19.151  18.630  1.00  0.00    -0.393 OA
HETATM   56  H   MOL     1     -44.515 -18.362  19.483  1.00  0.00     0.210 HD
ENDBRANCH  47  55
BRANCH  48  57
HETATM   57  O   MOL     1     -42.222 -20.750  19.635  1.00  0.00    -0.392 OA
HETATM   58  H   MOL     1     -42.956 -21.440  19.028  1.00  0.00     0.210 HD
ENDBRANCH  48  57
BRANCH  49  59
HETATM   59  O   MOL     1     -44.562 -22.247  20.166  1.00  0.00    -0.399 OA
HETATM   60  H   MOL     1     -43.398 -22.238  19.996  1.00  0.00     0.209 HD
ENDBRANCH  49  59
BRANCH  45  61
HETATM   61  C   MOL     1     -43.901 -21.066  22.650  1.00  0.00     0.292 C 
HETATM   62  O   MOL     1     -43.884 -22.259  21.890  1.00  0.00    -0.188 OA
HETATM   63  O   MOL     1     -45.241 -21.519  22.671  1.00  0.00    -0.188 OA
ENDBRANCH  45  61
ENDBRANCH   1  35
TORSDOF 8
ENDMDL
MODEL 8
REMARK VINA RESULT:     -11.0      1.467      2.188
REMARK  8 active torsions:
REMARK  status: ('A' for Active; 'I' for Inactive)
REMARK    1  A    between atoms: O_1  and  C_33 
REMARK    2  A    between atoms: O_1  and  C_49 
REMARK    3  A    between atoms: O_8  and  C_53 
REMARK    4  A    between atoms: O_12  and  C_56 
REMARK    5  A    between atoms: O_13  and  C_57 
REMARK    6  A    between atoms: O_14  and  C_59 
REMARK    7  A    between atoms: C_52  and  C_55 
REMARK    8  A    between atoms: C_58  and  C_60 
ROOT
HETATM    1  O   MOL     1     -46.953 -10.471  21.518  1.00  0.00     0.000 OA
ENDROOT
BRANCH   1   2
HETATM    2  C   MOL     1     -47.493  -9.860  20.936  1.00  0.00     0.007 C 
HETATM    3  C   MOL     1     -48.400  -9.405  21.323  1.00  0.00    -0.058 C 
HETATM    4  C   MOL     1     -48.699  -8.323  20.913  1.00  0.00    -0.007 C 
HETATM    5  C   MOL     1     -49.099  -9.331  22.034  1.00  0.00     0.027 C 
HETATM    6  C   MOL     1     -48.309  -9.929  22.169  1.00  0.00    -0.005 C 
HETATM    7  C   MOL     1     -48.620  -8.461  19.746  1.00  0.00    -0.037 A 
HETATM    8  C   MOL     1     -49.845  -8.301  21.057  1.00  0.00     0.006 C 
HETATM    9  C   MOL     1     -48.889  -7.367  19.399  1.00  0.00     0.013 A 
HETATM   10  C   MOL     1     -47.666  -8.827  19.381  1.00  0.00     0.014 C 
HETATM   11  C   MOL     1     -48.757  -8.913  18.450  1.00  0.00     0.081 C 
HETATM   12  C   MOL     1     -48.793  -7.483  18.291  1.00  0.00    -0.024 A 
HETATM   13  C   MOL     1     -50.024  -7.399  19.508  1.00  0.00    -0.033 A 
HETATM   14  C   MOL     1     -50.486  -6.675  18.986  1.00  0.00    -0.030 A 
HETATM   15  C   MOL     1     -50.373  -7.626  20.463  1.00  0.00     0.011 C 
HETATM   16  C   MOL     1     -51.277  -7.937  19.718  1.00  0.00     0.044 C 
HETATM   17  C   MOL     1     -50.164  -6.450  18.065  1.00  0.00    -0.018 A 
HETATM   18  C   MOL     1     -50.938  -6.155  17.259  1.00  0.00    -0.002 C 
HETATM   19  C   MOL     1     -49.305  -6.835  17.728  1.00  0.00    -0.036 C 
HETATM   20  C   MOL     1     -51.405  -6.320  19.329  1.00  0.00     0.041 A 
HETATM   21  C   MOL     1     -51.607  -5.408  17.789  1.00  0.00    -0.059 C 
HETATM   22  C   MOL     1     -50.290  -5.505  16.494  1.00  0.00     0.003 C 
HETATM   23  C   MOL     1     -51.943  -5.645  18.748  1.00  0.00     0.009 C 
HETATM   24  C   MOL     1     -52.144  -4.666  17.205  1.00  0.00     0.014 C 
HETATM   25  C   MOL     1     -52.945  -5.739  17.725  1.00  0.00     0.028 C 
HETATM   26  C   MOL     1     -51.767  -4.381  16.228  1.00  0.00     0.253 A 
HETATM   27  C   MOL     1     -50.809  -4.765  15.891  1.00  0.00     0.003 A 
HETATM   28  O   MOL     1     -51.707  -3.682  14.880  1.00  0.00    -0.382 OA
HETATM   29  C   MOL     1     -49.629  -4.123  15.578  1.00  0.00     0.044 C 
HETATM   30  C   MOL     1     -50.919  -4.282  15.022  1.00  0.00     0.080 A 
HETATM   31  O   MOL     1     -50.217  -4.359  14.314  1.00  0.00     0.000 OA
HETATM   32  C   MOL     1     -50.605  -5.998  20.181  1.00  0.00     0.025 C 
HETATM   33  C   MOL     1     -47.098  -9.532  19.980  1.00  0.00    -0.012 C 
HETATM   34  O   MOL     1     -47.933  -7.869  17.954  1.00  0.00     0.000 OA
ENDBRANCH   1   2
BRANCH   1  35
HETATM   35  C   MOL     1     -46.586 -11.324  21.145  1.00  0.00    -0.027 A 
HETATM   36  O   MOL     1     -47.188 -12.118  21.036  1.00  0.00     0.000 OA
HETATM   37  C   MOL     1     -46.807 -13.002  20.758  1.00  0.00     0.096 A 
HETATM   38  C   MOL     1     -45.840 -13.062  20.495  1.00  0.00     0.133 A 
HETATM   39  C   MOL     1     -45.218 -12.314  20.745  1.00  0.00     0.055 A 
HETATM   40  O   MOL     1     -44.107 -12.685  21.474  1.00  0.00     0.000 OA
HETATM   41  C   MOL     1     -45.605 -11.414  20.976  1.00  0.00     0.007 A 
HETATM   42  H   MOL     1     -44.012 -12.927  20.327  1.00  0.00     0.000 HD
HETATM   43  O   MOL     1     -43.635 -11.610  20.685  1.00  0.00     0.000 OA
HETATM   44  C   MOL     1     -44.002 -10.756  21.057  1.00  0.00     0.057 A 
HETATM   45  C   MOL     1     -42.647 -11.715  20.563  1.00  0.00     0.071 C 
HETATM   46  O   MOL     1     -44.990 -10.652  21.179  1.00  0.00     0.000 OA
HETATM   47  C   MOL     1     -43.407  -9.948  21.119  1.00  0.00     0.154 A 
HETATM   48  C   MOL     1     -42.412 -10.068  21.044  1.00  0.00     0.211 A 
HETATM   49  C   MOL     1     -42.052 -10.907  20.624  1.00  0.00     0.146 C 
BRANCH  37  50
HETATM   50  C   MOL     1     -47.286 -14.061  21.501  1.00  0.00     0.297 C 
HETATM   51  O   MOL     1     -47.623 -14.414  20.173  1.00  0.00    -0.188 OA
HETATM   52  O   MOL     1     -48.450 -13.307  21.219  1.00  0.00    -0.188 OA
ENDBRANCH  37  50
BRANCH  38  53
HETATM   53  O   MOL     1     -45.595 -13.650  19.271  1.00  0.00    -0.395 OA
HETATM   54  H   MOL     1     -44.854 -14.006  20.113  1.00  0.00     0.210 HD
ENDBRANCH  38  53
BRANCH  47  55
HETATM   55  O   MOL     1     -43.910  -8.798  20.546  1.00  0.00    -0.393 OA
HETATM   56  H   MOL     1     -42.785  -8.699  20.876  1.00  0.00     0.210 HD
ENDBRANCH  47  55
BRANCH  48  57
HETATM   57  O   MOL     1     -41.675  -9.570  22.099  1.00  0.00    -0.392 OA
HETATM   58  H   MOL     1     -41.894 -10.723  22.188  1.00  0.00     0.210 HD
ENDBRANCH  48  57
BRANCH  49  59
HETATM   59  O   MOL     1     -41.200 -10.716  19.557  1.00  0.00    -0.399 OA
HETATM   60  H   MOL     1     -41.118  -9.873  20.372  1.00  0.00     0.209 HD
ENDBRANCH  49  59
BRANCH  45  61
HETATM   61  C   MOL     1     -42.145 -12.865  21.136  1.00  0.00     0.292 C 
HETATM   62  O   MOL     1     -40.995 -12.240  20.599  1.00  0.00    -0.188 OA
HETATM   63  O   MOL     1     -42.183 -13.178  19.757  1.00  0.00    -0.188 OA
ENDBRANCH  45  61
ENDBRANCH   1  35
TORSDOF 8
ENDMDL
MODEL 9
REMARK VINA RESULT:     -11.0      2.399      9.021
REMARK  8 active torsions:
REMARK  status: ('A' for Active; 'I' for Inactive)
REMARK    1  A    between atoms: O_1  and  C_33 
REMARK    2  A    between atoms: O_1  and  C_49 
REMARK    3  A    between atoms: O_8  and  C_53 
REMARK    4  A    between atoms: O_12  and  C_56 
REMARK    5  A    between atoms: O_13  and  C_57 
REMARK    6  A    between atoms: O_14  and  C_59 
REMARK    7  A    between atoms: C_52  and  C_55 
REMARK    8  A    between atoms: C_58  and  C_60 
ROOT
HETATM    1  O   MOL     1     -49.785  -8.489  19.802  1.00  0.00     0.000 OA
ENDROOT
BRANCH   1   2
HETATM    2  C   MOL     1     -48.846  -8.560  20.142  1.00  0.00     0.007 C 
HETATM    3  C   MOL     1     -48.136  -9.215  19.644  1.00  0.00    -0.058 C 
HETATM    4  C   MOL     1     -46.985  -8.895  19.649  1.00  0.00    -0.007 C 
HETATM    5  C   MOL     1     -47.939  -9.929  18.973  1.00  0.00     0.027 C 
HETATM    6  C   MOL     1     -48.860  -9.546  19.039  1.00  0.00    -0.005 C 
HETATM    7  C   MOL     1     -46.791  -8.656  20.786  1.00  0.00    -0.037 A 
HETATM    8  C   MOL     1     -46.437  -9.907  19.539  1.00  0.00     0.006 C 
HETATM    9  C   MOL     1     -45.664  -8.318  20.727  1.00  0.00     0.013 A 
HETATM   10  C   MOL     1     -47.458  -7.924  21.231  1.00  0.00     0.014 C 
HETATM   11  C   MOL     1     -46.707  -8.721  22.161  1.00  0.00     0.081 C 
HETATM   12  C   MOL     1     -45.477  -8.066  21.800  1.00  0.00    -0.024 A 
HETATM   13  C   MOL     1     -45.155  -9.338  20.668  1.00  0.00    -0.033 A 
HETATM   14  C   MOL     1     -44.180  -9.301  20.910  1.00  0.00    -0.030 A 
HETATM   15  C   MOL     1     -45.448  -9.936  19.867  1.00  0.00     0.011 C 
HETATM   16  C   MOL     1     -45.030 -10.711  20.699  1.00  0.00     0.044 C 
HETATM   17  C   MOL     1     -43.884  -8.734  21.681  1.00  0.00    -0.018 A 
HETATM   18  C   MOL     1     -43.020  -9.107  22.350  1.00  0.00    -0.002 C 
HETATM   19  C   MOL     1     -44.527  -8.099  22.109  1.00  0.00    -0.036 C 
HETATM   20  C   MOL     1     -43.534 -10.003  20.489  1.00  0.00     0.041 A 
HETATM   21  C   MOL     1     -42.234  -9.452  21.606  1.00  0.00    -0.059 C 
HETATM   22  C   MOL     1     -42.587  -8.095  22.814  1.00  0.00     0.003 C 
HETATM   23  C   MOL     1     -42.543 -10.044  20.805  1.00  0.00     0.009 C 
HETATM   24  C   MOL     1     -41.189  -9.459  21.902  1.00  0.00     0.014 C 
HETATM   25  C   MOL     1     -41.817 -10.749  21.822  1.00  0.00     0.028 C 
HETATM   26  C   MOL     1     -40.855  -8.806  22.702  1.00  0.00     0.253 A 
HETATM   27  C   MOL     1     -41.547  -8.084  23.127  1.00  0.00     0.003 A 
HETATM   28  O   MOL     1     -39.917  -8.163  23.710  1.00  0.00    -0.382 OA
HETATM   29  C   MOL     1     -41.520  -6.706  23.158  1.00  0.00     0.044 C 
HETATM   30  C   MOL     1     -40.841  -7.784  23.770  1.00  0.00     0.080 A 
HETATM   31  O   MOL     1     -41.045  -7.069  24.439  1.00  0.00     0.000 OA
HETATM   32  C   MOL     1     -43.924  -9.335  19.556  1.00  0.00     0.025 C 
HETATM   33  C   MOL     1     -48.492  -7.876  20.907  1.00  0.00    -0.012 C 
HETATM   34  O   MOL     1     -46.121  -7.430  22.228  1.00  0.00     0.000 OA
ENDBRANCH   1   2
BRANCH   1  35
HETATM   35  C   MOL     1     -50.392  -7.774  20.151  1.00  0.00    -0.027 A 
HETATM   36  O   MOL     1     -50.829  -7.886  21.046  1.00  0.00     0.000 OA
HETATM   37  C   MOL     1     -51.513  -7.224  21.357  1.00  0.00     0.096 A 
HETATM   38  C   MOL     1     -51.684  -6.397  20.812  1.00  0.00     0.133 A 
HETATM   39  C   MOL     1     -51.361  -6.364  19.861  1.00  0.00     0.055 A 
HETATM   40  O   MOL     1     -52.328  -6.092  18.916  1.00  0.00     0.000 OA
HETATM   41  C   MOL     1     -50.639  -7.000  19.568  1.00  0.00     0.007 A 
HETATM   42  H   MOL     1     -51.970  -5.137  19.501  1.00  0.00     0.000 HD
HETATM   43  O   MOL     1     -51.170  -5.478  18.383  1.00  0.00     0.000 OA
HETATM   44  C   MOL     1     -50.562  -6.193  18.034  1.00  0.00     0.057 A 
HETATM   45  C   MOL     1     -51.455  -4.730  17.781  1.00  0.00     0.071 C 
HETATM   46  O   MOL     1     -50.278  -6.941  18.637  1.00  0.00     0.000 OA
HETATM   47  C   MOL     1     -50.088  -6.055  17.159  1.00  0.00     0.154 A 
HETATM   48  C   MOL     1     -50.410  -5.333  16.538  1.00  0.00     0.211 A 
HETATM   49  C   MOL     1     -50.980  -4.592  16.907  1.00  0.00     0.146 C 
BRANCH  37  50
HETATM   50  C   MOL     1     -52.633  -7.812  21.907  1.00  0.00     0.297 C 
HETATM   51  O   MOL     1     -52.072  -7.098  22.992  1.00  0.00    -0.188 OA
HETATM   52  O   MOL     1     -51.575  -8.634  22.362  1.00  0.00    -0.188 OA
ENDBRANCH  37  50
BRANCH  38  53
HETATM   53  O   MOL     1     -51.609  -5.206  21.504  1.00  0.00    -0.395 OA
HETATM   54  H   MOL     1     -51.262  -6.134  22.138  1.00  0.00     0.210 HD
ENDBRANCH  38  53
BRANCH  47  55
HETATM   55  O   MOL     1     -48.721  -6.241  17.191  1.00  0.00    -0.393 OA
HETATM   56  H   MOL     1     -49.037  -5.110  17.269  1.00  0.00     0.210 HD
ENDBRANCH  47  55
BRANCH  48  57
HETATM   57  O   MOL     1     -50.732  -5.750  15.263  1.00  0.00    -0.392 OA
HETATM   58  H   MOL     1     -50.056  -6.517  15.846  1.00  0.00     0.210 HD
ENDBRANCH  48  57
BRANCH  49  59
HETATM   59  O   MOL     1     -50.506  -3.315  16.686  1.00  0.00    -0.399 OA
HETATM   60  H   MOL     1     -49.782  -4.154  16.292  1.00  0.00     0.209 HD
ENDBRANCH  49  59
BRANCH  45  61
HETATM   61  C   MOL     1     -52.822  -4.544  17.750  1.00  0.00     0.292 C 
HETATM   62  O   MOL     1     -52.338  -3.562  16.855  1.00  0.00    -0.188 OA
HETATM   63  O   MOL     1     -52.369  -3.496  18.585  1.00  0.00    -0.188 OA
ENDBRANCH  45  61
ENDBRANCH   1  35
TORSDOF 8
ENDMDL
MODEL 10
REMARK VINA RESULT:     -10.9      5.971     10.577
REMARK  8 active torsions:
REMARK  status: ('A' for Active; 'I' for Inactive)
REMARK    1  A    between atoms: O_1  and  C_33 
REMARK    2  A    between atoms: O_1  and  C_49 
REMARK    3  A    between atoms: O_8  and  C_53 
REMARK    4  A    between atoms: O_12  and  C_56 
REMARK    5  A    between atoms: O_13  and  C_57 
REMARK    6  A    between atoms: O_14  and  C_59 
REMARK    7  A    between atoms: C_52  and  C_55 
REMARK    8  A    between atoms: C_58  and  C_60 
ROOT
HETATM    1  O   MOL     1     -47.293  -2.330  15.567  1.00  0.00     0.000 OA
ENDROOT
BRANCH   1   2
HETATM    2  C   MOL     1     -46.940  -1.784  16.328  1.00  0.00     0.007 C 
HETATM    3  C   MOL     1     -45.891  -1.505  16.356  1.00  0.00    -0.058 C 
HETATM    4  C   MOL     1     -45.604  -0.465  16.868  1.00  0.00    -0.007 C 
HETATM    5  C   MOL     1     -44.962  -1.587  15.995  1.00  0.00     0.027 C 
HETATM    6  C   MOL     1     -45.718  -2.055  15.538  1.00  0.00    -0.005 C 
HETATM    7  C   MOL     1     -46.174  -0.522  17.898  1.00  0.00    -0.037 A 
HETATM    8  C   MOL     1     -44.513  -0.638  17.209  1.00  0.00     0.006 C 
HETATM    9  C   MOL     1     -45.886   0.531  18.341  1.00  0.00     0.013 A 
HETATM   10  C   MOL     1     -47.241  -0.706  17.833  1.00  0.00     0.014 C 
HETATM   11  C   MOL     1     -46.656  -0.916  19.128  1.00  0.00     0.081 C 
HETATM   12  C   MOL     1     -46.442   0.496  19.310  1.00  0.00    -0.024 A 
HETATM   13  C   MOL     1     -44.828   0.309  18.708  1.00  0.00    -0.033 A 
HETATM   14  C   MOL     1     -44.502   0.976  19.385  1.00  0.00    -0.030 A 
HETATM   15  C   MOL     1     -44.166  -0.025  17.977  1.00  0.00     0.011 C 
HETATM   16  C   MOL     1     -43.712  -0.437  19.023  1.00  0.00     0.044 C 
HETATM   17  C   MOL     1     -45.127   1.303  20.096  1.00  0.00    -0.018 A 
HETATM   18  C   MOL     1     -44.711   1.513  21.153  1.00  0.00    -0.002 C 
HETATM   19  C   MOL     1     -46.101   1.083  20.044  1.00  0.00    -0.036 C 
HETATM   20  C   MOL     1     -43.477   1.157  19.455  1.00  0.00     0.041 A 
HETATM   21  C   MOL     1     -43.766   2.110  20.956  1.00  0.00    -0.059 C 
HETATM   22  C   MOL     1     -45.492   2.302  21.594  1.00  0.00     0.003 C 
HETATM   23  C   MOL     1     -43.115   1.767  20.216  1.00  0.00     0.009 C 
HETATM   24  C   MOL     1     -43.395   2.786  21.721  1.00  0.00     0.014 C 
HETATM   25  C   MOL     1     -42.649   1.569  21.559  1.00  0.00     0.028 C 
HETATM   26  C   MOL     1     -44.082   3.184  22.461  1.00  0.00     0.253 A 
HETATM   27  C   MOL     1     -45.145   2.980  22.368  1.00  0.00     0.003 A 
HETATM   28  O   MOL     1     -44.565   3.959  23.676  1.00  0.00    -0.382 OA
HETATM   29  C   MOL     1     -46.220   3.823  22.179  1.00  0.00     0.044 C 
HETATM   30  C   MOL     1     -45.317   3.488  23.214  1.00  0.00     0.080 A 
HETATM   31  O   MOL     1     -46.248   3.566  23.569  1.00  0.00     0.000 OA
HETATM   32  C   MOL     1     -43.792   1.556  18.354  1.00  0.00     0.025 C 
HETATM   33  C   MOL     1     -47.628  -1.342  17.043  1.00  0.00    -0.012 C 
HETATM   34  O   MOL     1     -47.418   0.275  19.258  1.00  0.00     0.000 OA
ENDBRANCH   1   2
BRANCH   1  35
HETATM   35  C   MOL     1     -48.188  -2.122  15.171  1.00  0.00    -0.027 A 
HETATM   36  O   MOL     1     -48.304  -1.298  14.613  1.00  0.00     0.000 OA
HETATM   37  C   MOL     1     -49.216  -1.031  14.296  1.00  0.00     0.096 A 
HETATM   38  C   MOL     1     -49.995  -1.644  14.458  1.00  0.00     0.133 A 
HETATM   39  C   MOL     1     -49.903  -2.381  15.136  1.00  0.00     0.055 A 
HETATM   40  O   MOL     1     -50.853  -2.386  16.137  1.00  0.00     0.000 OA
HETATM   41  C   MOL     1     -48.983  -2.677  15.413  1.00  0.00     0.007 A 
HETATM   42  H   MOL     1     -51.250  -2.818  15.117  1.00  0.00     0.000 HD
HETATM   43  O   MOL     1     -50.582  -3.760  15.936  1.00  0.00     0.000 OA
HETATM   44  C   MOL     1     -49.687  -3.970  16.332  1.00  0.00     0.057 A 
HETATM   45  C   MOL     1     -51.385  -4.287  16.218  1.00  0.00     0.071 C 
HETATM   46  O   MOL     1     -48.884  -3.442  16.050  1.00  0.00     0.000 OA
HETATM   47  C   MOL     1     -49.562  -4.822  16.850  1.00  0.00     0.154 A 
HETATM   48  C   MOL     1     -50.374  -5.320  17.172  1.00  0.00     0.211 A 
HETATM   49  C   MOL     1     -51.261  -5.139  16.736  1.00  0.00     0.146 C 
BRANCH  37  50
HETATM   50  C   MOL     1     -49.478   0.314  14.457  1.00  0.00     0.297 C 
HETATM   51  O   MOL     1     -50.161  -0.011  13.262  1.00  0.00    -0.188 OA
HETATM   52  O   MOL     1     -48.468   0.295  13.467  1.00  0.00    -0.188 OA
ENDBRANCH  37  50
BRANCH  38  53
HETATM   53  O   MOL     1     -50.745  -1.956  13.343  1.00  0.00    -0.395 OA
HETATM   54  H   MOL     1     -51.022  -0.913  13.811  1.00  0.00     0.210 HD
ENDBRANCH  38  53
BRANCH  47  55
HETATM   55  O   MOL     1     -48.505  -5.610  16.448  1.00  0.00    -0.393 OA
HETATM   56  H   MOL     1     -48.638  -4.643  15.792  1.00  0.00     0.210 HD
ENDBRANCH  47  55
BRANCH  48  57
HETATM   57  O   MOL     1     -50.420  -5.563  18.529  1.00  0.00    -0.392 OA
HETATM   58  H   MOL     1     -50.830  -6.457  17.883  1.00  0.00     0.210 HD
ENDBRANCH  48  57
BRANCH  49  59
HETATM   59  O   MOL     1     -51.903  -6.245  16.219  1.00  0.00    -0.399 OA
HETATM   60  H   MOL     1     -50.757  -6.424  16.418  1.00  0.00     0.209 HD
ENDBRANCH  49  59
BRANCH  45  61
HETATM   61  C   MOL     1     -52.443  -3.498  16.620  1.00  0.00     0.292 C 
HETATM   62  O   MOL     1     -52.926  -4.813  16.812  1.00  0.00    -0.188 OA
HETATM   63  O   MOL     1     -52.829  -3.925  15.328  1.00  0.00    -0.188 OA
ENDBRANCH  45  61
ENDBRANCH   1  35
TORSDOF 8
ENDMDL
