MODEL 1
REMARK VINA RESULT:      -7.8      0.000      0.000
REMARK  10 active torsions:
REMARK  status: ('A' for Active; 'I' for Inactive)
REMARK    1  A    between atoms: O_2  and  C_15 
REMARK    2  A    between atoms: O_2  and  C_18 
REMARK    3  A    between atoms: O_3  and  C_12 
REMARK    4  A    between atoms: O_4  and  C_13 
REMARK    5  A    between atoms: O_5  and  C_14 
REMARK    6  A    between atoms: O_6  and  C_17 
REMARK    7  A    between atoms: O_9  and  C_19 
REMARK    8  A    between atoms: O_10  and  C_23 
REMARK    9  A    between atoms: C_16  and  C_17 
REMARK   10  A    between atoms: C_25  and  C_27 
ROOT
HETATM    1  O   UNK     0     -48.156  -5.540  18.072  0.00  0.00    -0.340 OA
HETATM    2  C   UNK     0     -50.582  -6.289  16.727  0.00  0.00     0.183 C 
HETATM    3  C   UNK     0     -50.086  -7.008  17.982  0.00  0.00     0.205 C 
HETATM    4  C   UNK     0     -49.991  -4.884  16.619  0.00  0.00     0.189 C 
HETATM    5  C   UNK     0     -48.566  -6.905  18.115  0.00  0.00     0.299 C 
HETATM    6  C   UNK     0     -48.483  -4.914  16.837  0.00  0.00     0.253 C 
ENDROOT
BRANCH   5   7
HETATM    7  O   UNK     0     -48.193  -7.481  19.365  0.00  0.00    -0.315 OA
BRANCH   7   8
HETATM    8  C   UNK     0     -47.273  -8.488  19.323  0.00  0.00     0.111 A 
HETATM    9  C   UNK     0     -47.609  -9.772  19.753  0.00  0.00     0.137 A 
HETATM   10  C   UNK     0     -46.656 -10.792  19.704  0.00  0.00     0.129 A 
HETATM   11  O   UNK     0     -47.044 -12.032  20.140  0.00  0.00    -0.306 OA
HETATM   12  C   UNK     0     -45.374 -10.524  19.226  0.00  0.00     0.084 A 
HETATM   13  C   UNK     0     -46.122 -13.066  20.096  0.00  0.00     0.090 A 
HETATM   14  C   UNK     0     -44.857 -12.933  19.665  0.00  0.00     0.094 A 
HETATM   15  C   UNK     0     -44.390 -11.616  19.187  0.00  0.00     0.190 A 
HETATM   16  O   UNK     0     -43.247 -11.452  18.782  0.00  0.00    -0.287 OA
HETATM   17  C   UNK     0     -45.035  -9.240  18.796  0.00  0.00     0.085 A 
HETATM   18  C   UNK     0     -45.989  -8.223  18.846  0.00  0.00     0.077 A 
BRANCH   9  19
HETATM   19  O   UNK     0     -48.866 -10.027  20.219  0.00  0.00    -0.351 OA
HETATM   20  C   UNK     0     -49.098  -9.803  21.607  0.00  0.00     0.210 C 
ENDBRANCH   9  19
BRANCH  13  21
HETATM   21  C   UNK     0     -46.641 -14.356  20.594  0.00  0.00    -0.002 A 
HETATM   22  C   UNK     0     -46.549 -15.503  19.802  0.00  0.00     0.014 A 
HETATM   23  C   UNK     0     -47.038 -16.721  20.273  0.00  0.00     0.001 A 
HETATM   24  C   UNK     0     -47.621 -16.797  21.537  0.00  0.00     0.000 A 
HETATM   25  C   UNK     0     -47.715 -15.654  22.332  0.00  0.00     0.001 A 
HETATM   26  C   UNK     0     -47.225 -14.435  21.861  0.00  0.00     0.014 A 
ENDBRANCH  13  21
BRANCH  17  27
HETATM   27  O   UNK     0     -43.796  -8.928  18.322  0.00  0.00    -0.360 OA
HETATM   28  H   UNK     0     -43.443  -8.151  18.779  0.00  0.00     0.217 HD
ENDBRANCH  17  27
ENDBRANCH   7   8
ENDBRANCH   5   7
BRANCH   6  29
HETATM   29  C   UNK     0     -47.937  -3.532  16.995  0.00  0.00     0.172 C 
HETATM   30  O   UNK     0     -47.942  -2.891  18.036  0.00  0.00    -0.648 OA
BRANCH  29  31
HETATM   31  O   UNK     0     -47.434  -3.078  15.822  0.00  0.00    -0.774 OA
HETATM   32  H   UNK     0     -48.141  -2.793  15.205  0.00  0.00     0.167 HD
ENDBRANCH  29  31
ENDBRANCH   6  29
BRANCH   3  33
HETATM   33  O   UNK     0     -50.435  -8.389  17.905  0.00  0.00    -0.388 OA
HETATM   34  H   UNK     0     -50.633  -8.593  16.976  0.00  0.00     0.210 HD
ENDBRANCH   3  33
BRANCH   4  35
HETATM   35  O   UNK     0     -50.254  -4.365  15.316  0.00  0.00    -0.390 OA
HETATM   36  H   UNK     0     -50.642  -3.479  15.417  0.00  0.00     0.210 HD
ENDBRANCH   4  35
BRANCH   2  37
HETATM   37  O   UNK     0     -52.005  -6.167  16.780  0.00  0.00    -0.390 OA
HETATM   38  H   UNK     0     -52.385  -7.022  16.518  0.00  0.00     0.210 HD
ENDBRANCH   2  37
TORSDOF 10
ENDMDL
MODEL 2
REMARK VINA RESULT:      -7.7      2.539      9.416
REMARK  10 active torsions:
REMARK  status: ('A' for Active; 'I' for Inactive)
REMARK    1  A    between atoms: O_2  and  C_15 
REMARK    2  A    between atoms: O_2  and  C_18 
REMARK    3  A    between atoms: O_3  and  C_12 
REMARK    4  A    between atoms: O_4  and  C_13 
REMARK    5  A    between atoms: O_5  and  C_14 
REMARK    6  A    between atoms: O_6  and  C_17 
REMARK    7  A    between atoms: O_9  and  C_19 
REMARK    8  A    between atoms: O_10  and  C_23 
REMARK    9  A    between atoms: C_16  and  C_17 
REMARK   10  A    between atoms: C_25  and  C_27 
ROOT
HETATM    1  O   UNK     0     -47.519 -13.405  22.293  0.00  0.00    -0.340 OA
HETATM    2  C   UNK     0     -46.969 -14.533  19.708  0.00  0.00     0.183 C 
HETATM    3  C   UNK     0     -46.796 -13.043  20.005  0.00  0.00     0.205 C 
HETATM    4  C   UNK     0     -46.920 -15.366  20.989  0.00  0.00     0.189 C 
HETATM    5  C   UNK     0     -47.719 -12.593  21.138  0.00  0.00     0.299 C 
HETATM    6  C   UNK     0     -47.832 -14.772  22.055  0.00  0.00     0.253 C 
ENDROOT
BRANCH   5   7
HETATM    7  O   UNK     0     -47.411 -11.234  21.444  0.00  0.00    -0.315 OA
BRANCH   7   8
HETATM    8  C   UNK     0     -48.443 -10.344  21.380  0.00  0.00     0.111 A 
HETATM    9  C   UNK     0     -48.635  -9.563  20.240  0.00  0.00     0.137 A 
HETATM   10  C   UNK     0     -49.696  -8.657  20.190  0.00  0.00     0.129 A 
HETATM   11  O   UNK     0     -49.834  -7.918  19.043  0.00  0.00    -0.306 OA
HETATM   12  C   UNK     0     -50.559  -8.535  21.278  0.00  0.00     0.084 A 
HETATM   13  C   UNK     0     -50.883  -7.015  18.962  0.00  0.00     0.090 A 
HETATM   14  C   UNK     0     -51.774  -6.801  19.943  0.00  0.00     0.094 A 
HETATM   15  C   UNK     0     -51.667  -7.571  21.199  0.00  0.00     0.190 A 
HETATM   16  O   UNK     0     -52.461  -7.411  22.116  0.00  0.00    -0.287 OA
HETATM   17  C   UNK     0     -50.369  -9.314  22.421  0.00  0.00     0.085 A 
HETATM   18  C   UNK     0     -49.308 -10.219  22.468  0.00  0.00     0.077 A 
BRANCH   9  19
HETATM   19  O   UNK     0     -47.787  -9.689  19.178  0.00  0.00    -0.351 OA
HETATM   20  C   UNK     0     -46.618  -8.873  19.184  0.00  0.00     0.210 C 
ENDBRANCH   9  19
BRANCH  13  21
HETATM   21  C   UNK     0     -50.935  -6.268  17.689  0.00  0.00    -0.002 A 
HETATM   22  C   UNK     0     -52.163  -6.023  17.069  0.00  0.00     0.014 A 
HETATM   23  C   UNK     0     -52.212  -5.316  15.867  0.00  0.00     0.001 A 
HETATM   24  C   UNK     0     -51.034  -4.853  15.281  0.00  0.00     0.000 A 
HETATM   25  C   UNK     0     -49.806  -5.096  15.898  0.00  0.00     0.001 A 
HETATM   26  C   UNK     0     -49.757  -5.802  17.100  0.00  0.00     0.014 A 
ENDBRANCH  13  21
BRANCH  17  27
HETATM   27  O   UNK     0     -51.184  -9.230  23.510  0.00  0.00    -0.360 OA
HETATM   28  H   UNK     0     -52.113  -9.200  23.237  0.00  0.00     0.217 HD
ENDBRANCH  17  27
ENDBRANCH   7   8
ENDBRANCH   5   7
BRANCH   6  29
HETATM   29  C   UNK     0     -47.595 -15.416  23.383  0.00  0.00     0.172 C 
HETATM   30  O   UNK     0     -46.827 -14.997  24.238  0.00  0.00    -0.648 OA
BRANCH  29  31
HETATM   31  O   UNK     0     -48.345 -16.536  23.514  0.00  0.00    -0.774 OA
HETATM   32  H   UNK     0     -48.746 -16.811  22.662  0.00  0.00     0.167 HD
ENDBRANCH  29  31
ENDBRANCH   6  29
BRANCH   3  33
HETATM   33  O   UNK     0     -47.118 -12.287  18.839  0.00  0.00    -0.388 OA
HETATM   34  H   UNK     0     -46.485 -11.552  18.779  0.00  0.00     0.210 HD
ENDBRANCH   3  33
BRANCH   4  35
HETATM   35  O   UNK     0     -47.358 -16.693  20.700  0.00  0.00    -0.390 OA
HETATM   36  H   UNK     0     -48.290 -16.650  20.427  0.00  0.00     0.210 HD
ENDBRANCH   4  35
BRANCH   2  37
HETATM   37  O   UNK     0     -45.913 -14.974  18.853  0.00  0.00    -0.390 OA
HETATM   38  H   UNK     0     -45.448 -14.185  18.527  0.00  0.00     0.210 HD
ENDBRANCH   2  37
TORSDOF 10
ENDMDL
MODEL 3
REMARK VINA RESULT:      -7.6      6.405     10.071
REMARK  10 active torsions:
REMARK  status: ('A' for Active; 'I' for Inactive)
REMARK    1  A    between atoms: O_2  and  C_15 
REMARK    2  A    between atoms: O_2  and  C_18 
REMARK    3  A    between atoms: O_3  and  C_12 
REMARK    4  A    between atoms: O_4  and  C_13 
REMARK    5  A    between atoms: O_5  and  C_14 
REMARK    6  A    between atoms: O_6  and  C_17 
REMARK    7  A    between atoms: O_9  and  C_19 
REMARK    8  A    between atoms: O_10  and  C_23 
REMARK    9  A    between atoms: C_16  and  C_17 
REMARK   10  A    between atoms: C_25  and  C_27 
ROOT
HETATM    1  O   UNK     0     -51.487  -4.205  16.753  0.00  0.00    -0.340 OA
HETATM    2  C   UNK     0     -51.080  -6.331  18.642  0.00  0.00     0.183 C 
HETATM    3  C   UNK     0     -50.508  -4.929  18.852  0.00  0.00     0.205 C 
HETATM    4  C   UNK     0     -52.269  -6.311  17.681  0.00  0.00     0.189 C 
HETATM    5  C   UNK     0     -50.284  -4.217  17.517  0.00  0.00     0.299 C 
HETATM    6  C   UNK     0     -51.935  -5.515  16.425  0.00  0.00     0.253 C 
ENDROOT
BRANCH   5   7
HETATM    7  O   UNK     0     -49.875  -2.879  17.795  0.00  0.00    -0.315 OA
BRANCH   7   8
HETATM    8  C   UNK     0     -48.635  -2.515  17.358  0.00  0.00     0.111 A 
HETATM    9  C   UNK     0     -47.766  -1.816  18.197  0.00  0.00     0.137 A 
HETATM   10  C   UNK     0     -46.500  -1.451  17.735  0.00  0.00     0.129 A 
HETATM   11  O   UNK     0     -45.690  -0.765  18.604  0.00  0.00    -0.306 OA
HETATM   12  C   UNK     0     -46.108  -1.786  16.440  0.00  0.00     0.084 A 
HETATM   13  C   UNK     0     -44.425  -0.396  18.176  0.00  0.00     0.090 A 
HETATM   14  C   UNK     0     -43.935  -0.654  16.952  0.00  0.00     0.094 A 
HETATM   15  C   UNK     0     -44.769  -1.389  15.979  0.00  0.00     0.190 A 
HETATM   16  O   UNK     0     -44.360  -1.648  14.856  0.00  0.00    -0.287 OA
HETATM   17  C   UNK     0     -46.975  -2.486  15.599  0.00  0.00     0.085 A 
HETATM   18  C   UNK     0     -48.240  -2.849  16.062  0.00  0.00     0.077 A 
BRANCH   9  19
HETATM   19  O   UNK     0     -48.156  -1.491  19.463  0.00  0.00    -0.351 OA
HETATM   20  C   UNK     0     -48.788  -0.226  19.641  0.00  0.00     0.210 C 
ENDBRANCH   9  19
BRANCH  13  21
HETATM   21  C   UNK     0     -43.641   0.342  19.186  0.00  0.00    -0.002 A 
HETATM   22  C   UNK     0     -43.299  -0.270  20.395  0.00  0.00     0.014 A 
HETATM   23  C   UNK     0     -42.557   0.428  21.348  0.00  0.00     0.001 A 
HETATM   24  C   UNK     0     -42.155   1.739  21.097  0.00  0.00     0.000 A 
HETATM   25  C   UNK     0     -42.495   2.354  19.892  0.00  0.00     0.001 A 
HETATM   26  C   UNK     0     -43.236   1.656  18.937  0.00  0.00     0.014 A 
ENDBRANCH  13  21
BRANCH  17  27
HETATM   27  O   UNK     0     -46.639  -2.836  14.325  0.00  0.00    -0.360 OA
HETATM   28  H   UNK     0     -47.230  -2.408  13.688  0.00  0.00     0.217 HD
ENDBRANCH  17  27
ENDBRANCH   7   8
ENDBRANCH   5   7
BRANCH   6  29
HETATM   29  C   UNK     0     -53.160  -5.266  15.607  0.00  0.00     0.172 C 
HETATM   30  O   UNK     0     -54.133  -6.005  15.558  0.00  0.00    -0.648 OA
BRANCH  29  31
HETATM   31  O   UNK     0     -53.048  -4.106  14.916  0.00  0.00    -0.774 OA
HETATM   32  H   UNK     0     -52.452  -3.468  15.364  0.00  0.00     0.167 HD
ENDBRANCH  29  31
ENDBRANCH   6  29
BRANCH   3  33
HETATM   33  O   UNK     0     -49.253  -5.025  19.523  0.00  0.00    -0.388 OA
HETATM   34  H   UNK     0     -49.434  -5.157  20.470  0.00  0.00     0.210 HD
ENDBRANCH   3  33
BRANCH   4  35
HETATM   35  O   UNK     0     -52.587  -7.649  17.303  0.00  0.00    -0.390 OA
HETATM   36  H   UNK     0     -53.337  -7.618  16.686  0.00  0.00     0.210 HD
ENDBRANCH   4  35
BRANCH   2  37
HETATM   37  O   UNK     0     -51.532  -6.853  19.893  0.00  0.00    -0.390 OA
HETATM   38  H   UNK     0     -51.718  -6.099  20.478  0.00  0.00     0.210 HD
ENDBRANCH   2  37
TORSDOF 10
ENDMDL
MODEL 4
REMARK VINA RESULT:      -7.5      5.609      7.990
REMARK  10 active torsions:
REMARK  status: ('A' for Active; 'I' for Inactive)
REMARK    1  A    between atoms: O_2  and  C_15 
REMARK    2  A    between atoms: O_2  and  C_18 
REMARK    3  A    between atoms: O_3  and  C_12 
REMARK    4  A    between atoms: O_4  and  C_13 
REMARK    5  A    between atoms: O_5  and  C_14 
REMARK    6  A    between atoms: O_6  and  C_17 
REMARK    7  A    between atoms: O_9  and  C_19 
REMARK    8  A    between atoms: O_10  and  C_23 
REMARK    9  A    between atoms: C_16  and  C_17 
REMARK   10  A    between atoms: C_25  and  C_27 
ROOT
HETATM    1  O   UNK     0     -48.560  -2.697  16.463  0.00  0.00    -0.340 OA
HETATM    2  C   UNK     0     -48.209  -1.228  14.019  0.00  0.00     0.183 C 
HETATM    3  C   UNK     0     -49.579  -1.714  14.493  0.00  0.00     0.205 C 
HETATM    4  C   UNK     0     -47.221  -1.126  15.181  0.00  0.00     0.189 C 
HETATM    5  C   UNK     0     -49.451  -2.953  15.380  0.00  0.00     0.299 C 
HETATM    6  C   UNK     0     -47.241  -2.397  16.021  0.00  0.00     0.253 C 
ENDROOT
BRANCH   5   7
HETATM    7  O   UNK     0     -50.747  -3.269  15.886  0.00  0.00    -0.315 OA
BRANCH   7   8
HETATM    8  C   UNK     0     -50.819  -4.291  16.786  0.00  0.00     0.111 A 
HETATM    9  C   UNK     0     -51.477  -4.118  18.004  0.00  0.00     0.137 A 
HETATM   10  C   UNK     0     -51.543  -5.175  18.914  0.00  0.00     0.129 A 
HETATM   11  O   UNK     0     -52.202  -4.944  20.094  0.00  0.00    -0.306 OA
HETATM   12  C   UNK     0     -50.952  -6.398  18.604  0.00  0.00     0.084 A 
HETATM   13  C   UNK     0     -52.289  -5.978  21.014  0.00  0.00     0.090 A 
HETATM   14  C   UNK     0     -51.756  -7.197  20.835  0.00  0.00     0.094 A 
HETATM   15  C   UNK     0     -51.035  -7.494  19.581  0.00  0.00     0.190 A 
HETATM   16  O   UNK     0     -50.538  -8.593  19.376  0.00  0.00    -0.287 OA
HETATM   17  C   UNK     0     -50.293  -6.575  17.385  0.00  0.00     0.085 A 
HETATM   18  C   UNK     0     -50.228  -5.517  16.478  0.00  0.00     0.077 A 
BRANCH   9  19
HETATM   19  O   UNK     0     -52.053  -2.917  18.301  0.00  0.00    -0.351 OA
HETATM   20  C   UNK     0     -51.219  -1.930  18.901  0.00  0.00     0.210 C 
ENDBRANCH   9  19
BRANCH  13  21
HETATM   21  C   UNK     0     -53.013  -5.621  22.251  0.00  0.00    -0.002 A 
HETATM   22  C   UNK     0     -53.761  -4.442  22.312  0.00  0.00     0.014 A 
HETATM   23  C   UNK     0     -54.446  -4.105  23.479  0.00  0.00     0.001 A 
HETATM   24  C   UNK     0     -54.385  -4.945  24.591  0.00  0.00     0.000 A 
HETATM   25  C   UNK     0     -53.638  -6.123  24.535  0.00  0.00     0.001 A 
HETATM   26  C   UNK     0     -52.954  -6.460  23.366  0.00  0.00     0.014 A 
ENDBRANCH  13  21
BRANCH  17  27
HETATM   27  O   UNK     0     -49.699  -7.751  17.036  0.00  0.00    -0.360 OA
HETATM   28  H   UNK     0     -49.504  -7.765  16.088  0.00  0.00     0.217 HD
ENDBRANCH  17  27
ENDBRANCH   7   8
ENDBRANCH   5   7
BRANCH   6  29
HETATM   29  C   UNK     0     -46.485  -2.208  17.296  0.00  0.00     0.172 C 
HETATM   30  O   UNK     0     -46.958  -1.766  18.334  0.00  0.00    -0.648 OA
BRANCH  29  31
HETATM   31  O   UNK     0     -45.194  -2.591  17.149  0.00  0.00    -0.774 OA
HETATM   32  H   UNK     0     -44.729  -2.654  18.010  0.00  0.00     0.167 HD
ENDBRANCH  29  31
ENDBRANCH   6  29
BRANCH   3  33
HETATM   33  O   UNK     0     -50.378  -2.055  13.361  0.00  0.00    -0.388 OA
HETATM   34  H   UNK     0     -51.084  -2.650  13.667  0.00  0.00     0.210 HD
ENDBRANCH   3  33
BRANCH   4  35
HETATM   35  O   UNK     0     -45.905  -0.943  14.660  0.00  0.00    -0.390 OA
HETATM   36  H   UNK     0     -45.720   0.011  14.636  0.00  0.00     0.210 HD
ENDBRANCH   4  35
BRANCH   2  37
HETATM   37  O   UNK     0     -48.340   0.068  13.434  0.00  0.00    -0.390 OA
HETATM   38  H   UNK     0     -47.566   0.593  13.701  0.00  0.00     0.210 HD
ENDBRANCH   2  37
TORSDOF 10
ENDMDL
MODEL 5
REMARK VINA RESULT:      -7.5      5.077     11.240
REMARK  10 active torsions:
REMARK  status: ('A' for Active; 'I' for Inactive)
REMARK    1  A    between atoms: O_2  and  C_15 
REMARK    2  A    between atoms: O_2  and  C_18 
REMARK    3  A    between atoms: O_3  and  C_12 
REMARK    4  A    between atoms: O_4  and  C_13 
REMARK    5  A    between atoms: O_5  and  C_14 
REMARK    6  A    between atoms: O_6  and  C_17 
REMARK    7  A    between atoms: O_9  and  C_19 
REMARK    8  A    between atoms: O_10  and  C_23 
REMARK    9  A    between atoms: C_16  and  C_17 
REMARK   10  A    between atoms: C_25  and  C_27 
ROOT
HETATM    1  O   UNK     0     -47.974  -4.814  17.372  0.00  0.00    -0.340 OA
HETATM    2  C   UNK     0     -50.563  -5.079  16.155  0.00  0.00     0.183 C 
HETATM    3  C   UNK     0     -49.573  -3.989  15.744  0.00  0.00     0.205 C 
HETATM    4  C   UNK     0     -49.851  -6.256  16.823  0.00  0.00     0.189 C 
HETATM    5  C   UNK     0     -48.626  -3.640  16.893  0.00  0.00     0.299 C 
HETATM    6  C   UNK     0     -48.891  -5.766  17.899  0.00  0.00     0.253 C 
ENDROOT
BRANCH   5   7
HETATM    7  O   UNK     0     -47.656  -2.717  16.400  0.00  0.00    -0.315 OA
BRANCH   7   8
HETATM    8  C   UNK     0     -47.453  -1.589  17.140  0.00  0.00     0.111 A 
HETATM    9  C   UNK     0     -46.160  -1.176  17.462  0.00  0.00     0.137 A 
HETATM   10  C   UNK     0     -45.970  -0.019  18.219  0.00  0.00     0.129 A 
HETATM   11  O   UNK     0     -44.677   0.337  18.504  0.00  0.00    -0.306 OA
HETATM   12  C   UNK     0     -47.070   0.719  18.652  0.00  0.00     0.084 A 
HETATM   13  C   UNK     0     -44.456   1.485  19.249  0.00  0.00     0.090 A 
HETATM   14  C   UNK     0     -45.431   2.275  19.728  0.00  0.00     0.094 A 
HETATM   15  C   UNK     0     -46.841   1.933  19.450  0.00  0.00     0.190 A 
HETATM   16  O   UNK     0     -47.760   2.627  19.864  0.00  0.00    -0.287 OA
HETATM   17  C   UNK     0     -48.366   0.308  18.332  0.00  0.00     0.085 A 
HETATM   18  C   UNK     0     -48.553  -0.849  17.575  0.00  0.00     0.077 A 
BRANCH   9  19
HETATM   19  O   UNK     0     -45.087  -1.903  17.035  0.00  0.00    -0.351 OA
HETATM   20  C   UNK     0     -44.453  -1.475  15.832  0.00  0.00     0.210 C 
ENDBRANCH   9  19
BRANCH  13  21
HETATM   21  C   UNK     0     -43.030   1.772  19.503  0.00  0.00    -0.002 A 
HETATM   22  C   UNK     0     -42.315   1.009  20.430  0.00  0.00     0.014 A 
HETATM   23  C   UNK     0     -40.968   1.278  20.670  0.00  0.00     0.001 A 
HETATM   24  C   UNK     0     -40.330   2.312  19.984  0.00  0.00     0.000 A 
HETATM   25  C   UNK     0     -41.041   3.077  19.058  0.00  0.00     0.001 A 
HETATM   26  C   UNK     0     -42.389   2.807  18.818  0.00  0.00     0.014 A 
ENDBRANCH  13  21
BRANCH  17  27
HETATM   27  O   UNK     0     -49.473   0.994  18.731  0.00  0.00    -0.360 OA
HETATM   28  H   UNK     0     -49.859   1.479  17.987  0.00  0.00     0.217 HD
ENDBRANCH  17  27
ENDBRANCH   7   8
ENDBRANCH   5   7
BRANCH   6  29
HETATM   29  C   UNK     0     -48.005  -6.873  18.370  0.00  0.00     0.172 C 
HETATM   30  O   UNK     0     -47.449  -6.912  19.459  0.00  0.00    -0.648 OA
BRANCH  29  31
HETATM   31  O   UNK     0     -47.893  -7.835  17.422  0.00  0.00    -0.774 OA
HETATM   32  H   UNK     0     -48.349  -7.585  16.591  0.00  0.00     0.167 HD
ENDBRANCH  29  31
ENDBRANCH   6  29
BRANCH   3  33
HETATM   33  O   UNK     0     -50.290  -2.809  15.383  0.00  0.00    -0.388 OA
HETATM   34  H   UNK     0     -51.004  -3.072  14.778  0.00  0.00     0.210 HD
ENDBRANCH   3  33
BRANCH   4  35
HETATM   35  O   UNK     0     -50.824  -7.106  17.429  0.00  0.00    -0.390 OA
HETATM   36  H   UNK     0     -50.486  -7.377  18.300  0.00  0.00     0.210 HD
ENDBRANCH   4  35
BRANCH   2  37
HETATM   37  O   UNK     0     -51.238  -5.570  14.995  0.00  0.00    -0.390 OA
HETATM   38  H   UNK     0     -51.872  -4.891  14.712  0.00  0.00     0.210 HD
ENDBRANCH   2  37
TORSDOF 10
ENDMDL
MODEL 6
REMARK VINA RESULT:      -7.3      5.308      9.754
REMARK  10 active torsions:
REMARK  status: ('A' for Active; 'I' for Inactive)
REMARK    1  A    between atoms: O_2  and  C_15 
REMARK    2  A    between atoms: O_2  and  C_18 
REMARK    3  A    between atoms: O_3  and  C_12 
REMARK    4  A    between atoms: O_4  and  C_13 
REMARK    5  A    between atoms: O_5  and  C_14 
REMARK    6  A    between atoms: O_6  and  C_17 
REMARK    7  A    between atoms: O_9  and  C_19 
REMARK    8  A    between atoms: O_10  and  C_23 
REMARK    9  A    between atoms: C_16  and  C_17 
REMARK   10  A    between atoms: C_25  and  C_27 
ROOT
HETATM    1  O   UNK     0     -49.522  -4.831  17.880  0.00  0.00    -0.340 OA
HETATM    2  C   UNK     0     -52.126  -6.004  17.567  0.00  0.00     0.183 C 
HETATM    3  C   UNK     0     -51.861  -4.520  17.313  0.00  0.00     0.205 C 
HETATM    4  C   UNK     0     -50.842  -6.827  17.458  0.00  0.00     0.189 C 
HETATM    5  C   UNK     0     -50.669  -4.022  18.132  0.00  0.00     0.299 C 
HETATM    6  C   UNK     0     -49.719  -6.186  18.264  0.00  0.00     0.253 C 
ENDROOT
BRANCH   5   7
HETATM    7  O   UNK     0     -50.402  -2.674  17.748  0.00  0.00    -0.315 OA
BRANCH   7   8
HETATM    8  C   UNK     0     -49.137  -2.400  17.319  0.00  0.00     0.111 A 
HETATM    9  C   UNK     0     -48.204  -1.826  18.185  0.00  0.00     0.137 A 
HETATM   10  C   UNK     0     -46.913  -1.552  17.730  0.00  0.00     0.129 A 
HETATM   11  O   UNK     0     -46.042  -0.988  18.626  0.00  0.00    -0.306 OA
HETATM   12  C   UNK     0     -46.560  -1.851  16.416  0.00  0.00     0.084 A 
HETATM   13  C   UNK     0     -44.750  -0.711  18.205  0.00  0.00     0.090 A 
HETATM   14  C   UNK     0     -44.292  -0.945  16.965  0.00  0.00     0.094 A 
HETATM   15  C   UNK     0     -45.193  -1.550  15.963  0.00  0.00     0.190 A 
HETATM   16  O   UNK     0     -44.815  -1.784  14.824  0.00  0.00    -0.287 OA
HETATM   17  C   UNK     0     -47.490  -2.425  15.547  0.00  0.00     0.085 A 
HETATM   18  C   UNK     0     -48.780  -2.698  16.004  0.00  0.00     0.077 A 
BRANCH   9  19
HETATM   19  O   UNK     0     -48.558  -1.536  19.470  0.00  0.00    -0.351 OA
HETATM   20  C   UNK     0     -49.151  -0.262  19.707  0.00  0.00     0.210 C 
ENDBRANCH   9  19
BRANCH  13  21
HETATM   21  C   UNK     0     -43.898  -0.099  19.245  0.00  0.00    -0.002 A 
HETATM   22  C   UNK     0     -43.759  -0.716  20.492  0.00  0.00     0.014 A 
HETATM   23  C   UNK     0     -42.953  -0.140  21.473  0.00  0.00     0.001 A 
HETATM   24  C   UNK     0     -42.284   1.056  21.213  0.00  0.00     0.000 A 
HETATM   25  C   UNK     0     -42.420   1.675  19.971  0.00  0.00     0.001 A 
HETATM   26  C   UNK     0     -43.226   1.098  18.988  0.00  0.00     0.014 A 
ENDBRANCH  13  21
BRANCH  17  27
HETATM   27  O   UNK     0     -47.193  -2.734  14.254  0.00  0.00    -0.360 OA
HETATM   28  H   UNK     0     -47.975  -3.081  13.799  0.00  0.00     0.217 HD
ENDBRANCH  17  27
ENDBRANCH   7   8
ENDBRANCH   5   7
BRANCH   6  29
HETATM   29  C   UNK     0     -48.405  -6.826  17.955  0.00  0.00     0.172 C 
HETATM   30  O   UNK     0     -48.257  -7.835  17.280  0.00  0.00    -0.648 OA
BRANCH  29  31
HETATM   31  O   UNK     0     -47.389  -6.139  18.530  0.00  0.00    -0.774 OA
HETATM   32  H   UNK     0     -46.647  -5.989  17.906  0.00  0.00     0.167 HD
ENDBRANCH  29  31
ENDBRANCH   6  29
BRANCH   3  33
HETATM   33  O   UNK     0     -53.009  -3.762  17.690  0.00  0.00    -0.388 OA
HETATM   34  H   UNK     0     -53.008  -3.686  18.659  0.00  0.00     0.210 HD
ENDBRANCH   3  33
BRANCH   4  35
HETATM   35  O   UNK     0     -51.082  -8.137  17.968  0.00  0.00    -0.390 OA
HETATM   36  H   UNK     0     -51.835  -8.089  18.581  0.00  0.00     0.210 HD
ENDBRANCH   4  35
BRANCH   2  37
HETATM   37  O   UNK     0     -53.050  -6.496  16.595  0.00  0.00    -0.390 OA
HETATM   38  H   UNK     0     -52.910  -5.995  15.774  0.00  0.00     0.210 HD
ENDBRANCH   2  37
TORSDOF 10
ENDMDL
MODEL 7
REMARK VINA RESULT:      -7.3      7.141     11.383
REMARK  10 active torsions:
REMARK  status: ('A' for Active; 'I' for Inactive)
REMARK    1  A    between atoms: O_2  and  C_15 
REMARK    2  A    between atoms: O_2  and  C_18 
REMARK    3  A    between atoms: O_3  and  C_12 
REMARK    4  A    between atoms: O_4  and  C_13 
REMARK    5  A    between atoms: O_5  and  C_14 
REMARK    6  A    between atoms: O_6  and  C_17 
REMARK    7  A    between atoms: O_9  and  C_19 
REMARK    8  A    between atoms: O_10  and  C_23 
REMARK    9  A    between atoms: C_16  and  C_17 
REMARK   10  A    between atoms: C_25  and  C_27 
ROOT
HETATM    1  O   UNK     0     -46.748 -16.536  22.744  0.00  0.00    -0.340 OA
HETATM    2  C   UNK     0     -46.063 -17.873  20.295  0.00  0.00     0.183 C 
HETATM    3  C   UNK     0     -46.247 -18.624  21.614  0.00  0.00     0.205 C 
HETATM    4  C   UNK     0     -46.787 -16.527  20.314  0.00  0.00     0.189 C 
HETATM    5  C   UNK     0     -45.955 -17.719  22.811  0.00  0.00     0.299 C 
HETATM    6  C   UNK     0     -46.463 -15.757  21.588  0.00  0.00     0.253 C 
ENDROOT
BRANCH   5   7
HETATM    7  O   UNK     0     -46.270 -18.444  23.999  0.00  0.00    -0.315 OA
BRANCH   7   8
HETATM    8  C   UNK     0     -46.938 -17.761  24.973  0.00  0.00     0.111 A 
HETATM    9  C   UNK     0     -46.253 -17.249  26.076  0.00  0.00     0.137 A 
HETATM   10  C   UNK     0     -46.952 -16.552  27.064  0.00  0.00     0.129 A 
HETATM   11  O   UNK     0     -46.225 -16.074  28.123  0.00  0.00    -0.306 OA
HETATM   12  C   UNK     0     -48.328 -16.370  26.946  0.00  0.00     0.084 A 
HETATM   13  C   UNK     0     -46.890 -15.371  29.116  0.00  0.00     0.090 A 
HETATM   14  C   UNK     0     -48.212 -15.136  29.121  0.00  0.00     0.094 A 
HETATM   15  C   UNK     0     -49.039 -15.633  28.002  0.00  0.00     0.190 A 
HETATM   16  O   UNK     0     -50.246 -15.438  27.964  0.00  0.00    -0.287 OA
HETATM   17  C   UNK     0     -49.016 -16.881  25.843  0.00  0.00     0.085 A 
HETATM   18  C   UNK     0     -48.317 -17.577  24.858  0.00  0.00     0.077 A 
BRANCH   9  19
HETATM   19  O   UNK     0     -44.906 -17.432  26.184  0.00  0.00    -0.351 OA
HETATM   20  C   UNK     0     -44.070 -16.399  25.668  0.00  0.00     0.210 C 
ENDBRANCH   9  19
BRANCH  13  21
HETATM   21  C   UNK     0     -46.016 -14.907  30.212  0.00  0.00    -0.002 A 
HETATM   22  C   UNK     0     -46.534 -14.734  31.499  0.00  0.00     0.014 A 
HETATM   23  C   UNK     0     -45.708 -14.297  32.534  0.00  0.00     0.001 A 
HETATM   24  C   UNK     0     -44.361 -14.031  32.287  0.00  0.00     0.000 A 
HETATM   25  C   UNK     0     -43.840 -14.203  31.004  0.00  0.00     0.001 A 
HETATM   26  C   UNK     0     -44.666 -14.640  29.968  0.00  0.00     0.014 A 
ENDBRANCH  13  21
BRANCH  17  27
HETATM   27  O   UNK     0     -50.361 -16.730  25.683  0.00  0.00    -0.360 OA
HETATM   28  H   UNK     0     -50.784 -16.530  26.532  0.00  0.00     0.217 HD
ENDBRANCH  17  27
ENDBRANCH   7   8
ENDBRANCH   5   7
BRANCH   6  29
HETATM   29  C   UNK     0     -47.360 -14.572  21.742  0.00  0.00     0.172 C 
HETATM   30  O   UNK     0     -47.742 -13.858  20.825  0.00  0.00    -0.648 OA
BRANCH  29  31
HETATM   31  O   UNK     0     -47.694 -14.388  23.041  0.00  0.00    -0.774 OA
HETATM   32  H   UNK     0     -47.259 -15.042  23.629  0.00  0.00     0.167 HD
ENDBRANCH  29  31
ENDBRANCH   6  29
BRANCH   3  33
HETATM   33  O   UNK     0     -45.345 -19.729  21.659  0.00  0.00    -0.388 OA
HETATM   34  H   UNK     0     -45.790 -20.454  22.129  0.00  0.00     0.210 HD
ENDBRANCH   3  33
BRANCH   4  35
HETATM   35  O   UNK     0     -46.364 -15.753  19.192  0.00  0.00    -0.390 OA
HETATM   36  H   UNK     0     -45.832 -15.009  19.522  0.00  0.00     0.210 HD
ENDBRANCH   4  35
BRANCH   2  37
HETATM   37  O   UNK     0     -46.604 -18.651  19.225  0.00  0.00    -0.390 OA
HETATM   38  H   UNK     0     -47.221 -18.085  18.731  0.00  0.00     0.210 HD
ENDBRANCH   2  37
TORSDOF 10
ENDMDL
MODEL 8
REMARK VINA RESULT:      -7.2      4.759      7.276
REMARK  10 active torsions:
REMARK  status: ('A' for Active; 'I' for Inactive)
REMARK    1  A    between atoms: O_2  and  C_15 
REMARK    2  A    between atoms: O_2  and  C_18 
REMARK    3  A    between atoms: O_3  and  C_12 
REMARK    4  A    between atoms: O_4  and  C_13 
REMARK    5  A    between atoms: O_5  and  C_14 
REMARK    6  A    between atoms: O_6  and  C_17 
REMARK    7  A    between atoms: O_9  and  C_19 
REMARK    8  A    between atoms: O_10  and  C_23 
REMARK    9  A    between atoms: C_16  and  C_17 
REMARK   10  A    between atoms: C_25  and  C_27 
ROOT
HETATM    1  O   UNK     0     -47.392  -1.904  17.972  0.00  0.00    -0.340 OA
HETATM    2  C   UNK     0     -46.102  -1.206  15.502  0.00  0.00     0.183 C 
HETATM    3  C   UNK     0     -47.456  -1.915  15.546  0.00  0.00     0.205 C 
HETATM    4  C   UNK     0     -45.816  -0.466  16.808  0.00  0.00     0.189 C 
HETATM    5  C   UNK     0     -47.612  -2.730  16.831  0.00  0.00     0.299 C 
HETATM    6  C   UNK     0     -46.074  -1.369  18.008  0.00  0.00     0.253 C 
ENDROOT
BRANCH   5   7
HETATM    7  O   UNK     0     -48.939  -3.253  16.863  0.00  0.00    -0.315 OA
BRANCH   7   8
HETATM    8  C   UNK     0     -49.124  -4.408  17.565  0.00  0.00     0.111 A 
HETATM    9  C   UNK     0     -49.890  -4.413  18.731  0.00  0.00     0.137 A 
HETATM   10  C   UNK     0     -50.071  -5.603  19.437  0.00  0.00     0.129 A 
HETATM   11  O   UNK     0     -50.833  -5.546  20.575  0.00  0.00    -0.306 OA
HETATM   12  C   UNK     0     -49.486  -6.781  18.976  0.00  0.00     0.084 A 
HETATM   13  C   UNK     0     -51.036  -6.714  21.294  0.00  0.00     0.090 A 
HETATM   14  C   UNK     0     -50.521  -7.908  20.957  0.00  0.00     0.094 A 
HETATM   15  C   UNK     0     -49.692  -8.021  19.741  0.00  0.00     0.190 A 
HETATM   16  O   UNK     0     -49.207  -9.090  19.396  0.00  0.00    -0.287 OA
HETATM   17  C   UNK     0     -48.719  -6.780  17.810  0.00  0.00     0.085 A 
HETATM   18  C   UNK     0     -48.540  -5.589  17.106  0.00  0.00     0.077 A 
BRANCH   9  19
HETATM   19  O   UNK     0     -50.460  -3.255  19.176  0.00  0.00    -0.351 OA
HETATM   20  C   UNK     0     -49.766  -2.544  20.198  0.00  0.00     0.210 C 
ENDBRANCH   9  19
BRANCH  13  21
HETATM   21  C   UNK     0     -51.865  -6.539  22.503  0.00  0.00    -0.002 A 
HETATM   22  C   UNK     0     -51.271  -6.551  23.769  0.00  0.00     0.014 A 
HETATM   23  C   UNK     0     -52.054  -6.385  24.911  0.00  0.00     0.001 A 
HETATM   24  C   UNK     0     -53.432  -6.205  24.794  0.00  0.00     0.000 A 
HETATM   25  C   UNK     0     -54.028  -6.193  23.532  0.00  0.00     0.001 A 
HETATM   26  C   UNK     0     -53.245  -6.359  22.389  0.00  0.00     0.014 A 
ENDBRANCH  13  21
BRANCH  17  27
HETATM   27  O   UNK     0     -48.127  -7.905  17.319  0.00  0.00    -0.360 OA
HETATM   28  H   UNK     0     -47.452  -8.229  17.934  0.00  0.00     0.217 HD
ENDBRANCH  17  27
ENDBRANCH   7   8
ENDBRANCH   5   7
BRANCH   6  29
HETATM   29  C   UNK     0     -46.055  -0.586  19.281  0.00  0.00     0.172 C 
HETATM   30  O   UNK     0     -46.088  -1.071  20.403  0.00  0.00    -0.648 OA
BRANCH  29  31
HETATM   31  O   UNK     0     -46.000   0.743  19.026  0.00  0.00    -0.774 OA
HETATM   32  H   UNK     0     -45.090   1.039  18.810  0.00  0.00     0.167 HD
ENDBRANCH  29  31
ENDBRANCH   6  29
BRANCH   3  33
HETATM   33  O   UNK     0     -47.561  -2.806  14.437  0.00  0.00    -0.388 OA
HETATM   34  H   UNK     0     -47.114  -2.389  13.681  0.00  0.00     0.210 HD
ENDBRANCH   3  33
BRANCH   4  35
HETATM   35  O   UNK     0     -44.448  -0.062  16.826  0.00  0.00    -0.390 OA
HETATM   36  H   UNK     0     -44.297   0.526  16.067  0.00  0.00     0.210 HD
ENDBRANCH   4  35
BRANCH   2  37
HETATM   37  O   UNK     0     -46.100  -0.249  14.441  0.00  0.00    -0.390 OA
HETATM   38  H   UNK     0     -46.654  -0.601  13.724  0.00  0.00     0.210 HD
ENDBRANCH   2  37
TORSDOF 10
ENDMDL
MODEL 9
REMARK VINA RESULT:      -7.2      7.097     11.473
REMARK  10 active torsions:
REMARK  status: ('A' for Active; 'I' for Inactive)
REMARK    1  A    between atoms: O_2  and  C_15 
REMARK    2  A    between atoms: O_2  and  C_18 
REMARK    3  A    between atoms: O_3  and  C_12 
REMARK    4  A    between atoms: O_4  and  C_13 
REMARK    5  A    between atoms: O_5  and  C_14 
REMARK    6  A    between atoms: O_6  and  C_17 
REMARK    7  A    between atoms: O_9  and  C_19 
REMARK    8  A    between atoms: O_10  and  C_23 
REMARK    9  A    between atoms: C_16  and  C_17 
REMARK   10  A    between atoms: C_25  and  C_27 
ROOT
HETATM    1  O   UNK     0     -48.028  -2.510  16.594  0.00  0.00    -0.340 OA
HETATM    2  C   UNK     0     -49.378  -2.660  14.063  0.00  0.00     0.183 C 
HETATM    3  C   UNK     0     -48.162  -1.761  14.290  0.00  0.00     0.205 C 
HETATM    4  C   UNK     0     -49.430  -3.797  15.084  0.00  0.00     0.189 C 
HETATM    5  C   UNK     0     -48.042  -1.354  15.759  0.00  0.00     0.299 C 
HETATM    6  C   UNK     0     -49.230  -3.264  16.496  0.00  0.00     0.253 C 
ENDROOT
BRANCH   5   7
HETATM    7  O   UNK     0     -46.823  -0.631  15.917  0.00  0.00    -0.315 OA
BRANCH   7   8
HETATM    8  C   UNK     0     -46.635  -0.002  17.113  0.00  0.00     0.111 A 
HETATM    9  C   UNK     0     -45.361   0.087  17.675  0.00  0.00     0.137 A 
HETATM   10  C   UNK     0     -45.186   0.734  18.899  0.00  0.00     0.129 A 
HETATM   11  O   UNK     0     -43.912   0.790  19.401  0.00  0.00    -0.306 OA
HETATM   12  C   UNK     0     -46.283   1.289  19.556  0.00  0.00     0.084 A 
HETATM   13  C   UNK     0     -43.706   1.433  20.613  0.00  0.00     0.090 A 
HETATM   14  C   UNK     0     -44.681   1.998  21.343  0.00  0.00     0.094 A 
HETATM   15  C   UNK     0     -46.071   1.963  20.846  0.00  0.00     0.190 A 
HETATM   16  O   UNK     0     -46.988   2.470  21.478  0.00  0.00    -0.287 OA
HETATM   17  C   UNK     0     -47.560   1.201  18.997  0.00  0.00     0.085 A 
HETATM   18  C   UNK     0     -47.732   0.554  17.773  0.00  0.00     0.077 A 
BRANCH   9  19
HETATM   19  O   UNK     0     -44.292  -0.458  17.026  0.00  0.00    -0.351 OA
HETATM   20  C   UNK     0     -43.952  -1.803  17.355  0.00  0.00     0.210 C 
ENDBRANCH   9  19
BRANCH  13  21
HETATM   21  C   UNK     0     -42.300   1.428  21.064  0.00  0.00    -0.002 A 
HETATM   22  C   UNK     0     -41.273   1.726  20.164  0.00  0.00     0.014 A 
HETATM   23  C   UNK     0     -39.945   1.723  20.591  0.00  0.00     0.001 A 
HETATM   24  C   UNK     0     -39.639   1.423  21.918  0.00  0.00     0.000 A 
HETATM   25  C   UNK     0     -40.662   1.124  22.819  0.00  0.00     0.001 A 
HETATM   26  C   UNK     0     -41.990   1.128  22.393  0.00  0.00     0.014 A 
ENDBRANCH  13  21
BRANCH  17  27
HETATM   27  O   UNK     0     -48.663   1.726  19.601  0.00  0.00    -0.360 OA
HETATM   28  H   UNK     0     -48.611   1.612  20.561  0.00  0.00     0.217 HD
ENDBRANCH  17  27
ENDBRANCH   7   8
ENDBRANCH   5   7
BRANCH   6  29
HETATM   29  C   UNK     0     -49.016  -4.381  17.466  0.00  0.00     0.172 C 
HETATM   30  O   UNK     0     -49.164  -4.297  18.677  0.00  0.00    -0.648 OA
BRANCH  29  31
HETATM   31  O   UNK     0     -48.628  -5.507  16.821  0.00  0.00    -0.774 OA
HETATM   32  H   UNK     0     -48.281  -5.316  15.924  0.00  0.00     0.167 HD
ENDBRANCH  29  31
ENDBRANCH   6  29
BRANCH   3  33
HETATM   33  O   UNK     0     -48.297  -0.576  13.507  0.00  0.00    -0.388 OA
HETATM   34  H   UNK     0     -48.225  -0.830  12.572  0.00  0.00     0.210 HD
ENDBRANCH   3  33
BRANCH   4  35
HETATM   35  O   UNK     0     -50.705  -4.432  15.010  0.00  0.00    -0.390 OA
HETATM   36  H   UNK     0     -50.842  -4.930  15.834  0.00  0.00     0.210 HD
ENDBRANCH   4  35
BRANCH   2  37
HETATM   37  O   UNK     0     -49.305  -3.240  12.759  0.00  0.00    -0.390 OA
HETATM   38  H   UNK     0     -48.417  -3.623  12.655  0.00  0.00     0.210 HD
ENDBRANCH   2  37
TORSDOF 10
ENDMDL
MODEL 10
REMARK VINA RESULT:      -7.2      4.302      7.334
REMARK  10 active torsions:
REMARK  status: ('A' for Active; 'I' for Inactive)
REMARK    1  A    between atoms: O_2  and  C_15 
REMARK    2  A    between atoms: O_2  and  C_18 
REMARK    3  A    between atoms: O_3  and  C_12 
REMARK    4  A    between atoms: O_4  and  C_13 
REMARK    5  A    between atoms: O_5  and  C_14 
REMARK    6  A    between atoms: O_6  and  C_17 
REMARK    7  A    between atoms: O_9  and  C_19 
REMARK    8  A    between atoms: O_10  and  C_23 
REMARK    9  A    between atoms: C_16  and  C_17 
REMARK   10  A    between atoms: C_25  and  C_27 
ROOT
HETATM    1  O   UNK     0     -49.914  -1.225  16.231  0.00  0.00    -0.340 OA
HETATM    2  C   UNK     0     -47.193  -0.495  16.796  0.00  0.00     0.183 C 
HETATM    3  C   UNK     0     -48.161  -0.952  17.887  0.00  0.00     0.205 C 
HETATM    4  C   UNK     0     -47.637  -0.981  15.416  0.00  0.00     0.189 C 
HETATM    5  C   UNK     0     -49.611  -0.654  17.502  0.00  0.00     0.299 C 
HETATM    6  C   UNK     0     -49.113  -0.682  15.188  0.00  0.00     0.253 C 
ENDROOT
BRANCH   5   7
HETATM    7  O   UNK     0     -50.457  -1.221  18.500  0.00  0.00    -0.315 OA
BRANCH   7   8
HETATM    8  C   UNK     0     -50.927  -2.479  18.260  0.00  0.00     0.111 A 
HETATM    9  C   UNK     0     -50.436  -3.568  18.982  0.00  0.00     0.137 A 
HETATM   10  C   UNK     0     -50.927  -4.849  18.725  0.00  0.00     0.129 A 
HETATM   11  O   UNK     0     -50.406  -5.879  19.465  0.00  0.00    -0.306 OA
HETATM   12  C   UNK     0     -51.905  -5.037  17.750  0.00  0.00     0.084 A 
HETATM   13  C   UNK     0     -50.880  -7.162  19.237  0.00  0.00     0.090 A 
HETATM   14  C   UNK     0     -51.813  -7.472  18.322  0.00  0.00     0.094 A 
HETATM   15  C   UNK     0     -52.404  -6.398  17.498  0.00  0.00     0.190 A 
HETATM   16  O   UNK     0     -53.260  -6.636  16.657  0.00  0.00    -0.287 OA
HETATM   17  C   UNK     0     -52.399  -3.949  17.026  0.00  0.00     0.085 A 
HETATM   18  C   UNK     0     -51.906  -2.670  17.284  0.00  0.00     0.077 A 
BRANCH   9  19
HETATM   19  O   UNK     0     -49.479  -3.376  19.935  0.00  0.00    -0.351 OA
HETATM   20  C   UNK     0     -49.926  -2.995  21.234  0.00  0.00     0.210 C 
ENDBRANCH   9  19
BRANCH  13  21
HETATM   21  C   UNK     0     -50.248  -8.195  20.082  0.00  0.00    -0.002 A 
HETATM   22  C   UNK     0     -50.639  -8.348  21.415  0.00  0.00     0.014 A 
HETATM   23  C   UNK     0     -50.043  -9.324  22.212  0.00  0.00     0.001 A 
HETATM   24  C   UNK     0     -49.053 -10.151  21.681  0.00  0.00     0.000 A 
HETATM   25  C   UNK     0     -48.659 -10.001  20.351  0.00  0.00     0.001 A 
HETATM   26  C   UNK     0     -49.256  -9.024  19.553  0.00  0.00     0.014 A 
ENDBRANCH  13  21
BRANCH  17  27
HETATM   27  O   UNK     0     -53.354  -4.082  16.063  0.00  0.00    -0.360 OA
HETATM   28  H   UNK     0     -53.608  -3.214  15.715  0.00  0.00     0.217 HD
ENDBRANCH  17  27
ENDBRANCH   7   8
ENDBRANCH   5   7
BRANCH   6  29
HETATM   29  C   UNK     0     -49.619  -1.380  13.967  0.00  0.00     0.172 C 
HETATM   30  O   UNK     0     -50.775  -1.352  13.571  0.00  0.00    -0.648 OA
BRANCH  29  31
HETATM   31  O   UNK     0     -48.620  -2.059  13.355  0.00  0.00    -0.774 OA
HETATM   32  H   UNK     0     -48.029  -2.505  13.999  0.00  0.00     0.167 HD
ENDBRANCH  29  31
ENDBRANCH   6  29
BRANCH   3  33
HETATM   33  O   UNK     0     -47.870  -0.259  19.100  0.00  0.00    -0.388 OA
HETATM   34  H   UNK     0     -47.379   0.548  18.868  0.00  0.00     0.210 HD
ENDBRANCH   3  33
BRANCH   4  35
HETATM   35  O   UNK     0     -46.874  -0.308  14.416  0.00  0.00    -0.390 OA
HETATM   36  H   UNK     0     -46.686   0.591  14.734  0.00  0.00     0.210 HD
ENDBRANCH   4  35
BRANCH   2  37
HETATM   37  O   UNK     0     -45.894  -1.031  17.057  0.00  0.00    -0.390 OA
HETATM   38  H   UNK     0     -45.870  -1.934  16.699  0.00  0.00     0.210 HD
ENDBRANCH   2  37
TORSDOF 10
ENDMDL
