MODEL 1
REMARK VINA RESULT:      -7.6      0.000      0.000
REMARK  4 active torsions:
REMARK  status: ('A' for Active; 'I' for Inactive)
REMARK    1  A    between atoms: O_2  and  C_9 
REMARK    2  A    between atoms: O_3  and  C_14 
REMARK    3  A    between atoms: O_4  and  C_15 
REMARK    4  A    between atoms: C_8  and  C_12 
ROOT
HETATM    1  O   UNK     0     -52.343  -3.756  14.824  0.00  0.00    -0.309 OA
HETATM    2  O   UNK     0     -48.945  -5.172  16.568  0.00  0.00    -0.287 OA
HETATM    3  C   UNK     0     -49.984  -3.458  15.317  0.00  0.00     0.084 A 
HETATM    4  C   UNK     0     -51.181  -3.032  14.744  0.00  0.00     0.096 A 
HETATM    5  C   UNK     0     -52.322  -4.968  15.498  0.00  0.00     0.090 A 
HETATM    6  C   UNK     0     -48.831  -2.679  15.205  0.00  0.00     0.118 A 
HETATM    7  C   UNK     0     -49.959  -4.739  16.040  0.00  0.00     0.190 A 
HETATM    8  C   UNK     0     -51.235  -5.482  16.095  0.00  0.00     0.094 A 
HETATM    9  C   UNK     0     -51.232  -1.820  14.055  0.00  0.00     0.077 A 
HETATM   10  C   UNK     0     -48.884  -1.467  14.514  0.00  0.00     0.133 A 
HETATM   11  C   UNK     0     -50.082  -1.040  13.941  0.00  0.00     0.104 A 
ENDROOT
BRANCH   5  12
HETATM   12  C   UNK     0     -53.626  -5.661  15.528  0.00  0.00    -0.002 A 
HETATM   13  C   UNK     0     -53.698  -7.032  15.269  0.00  0.00     0.014 A 
HETATM   14  C   UNK     0     -54.929  -7.687  15.297  0.00  0.00     0.001 A 
HETATM   15  C   UNK     0     -56.093  -6.972  15.584  0.00  0.00     0.000 A 
HETATM   16  C   UNK     0     -56.025  -5.604  15.843  0.00  0.00     0.001 A 
HETATM   17  C   UNK     0     -54.793  -4.949  15.814  0.00  0.00     0.014 A 
ENDBRANCH   5  12
BRANCH   6  18
HETATM   18  O   UNK     0     -47.642  -3.063  15.751  0.00  0.00    -0.357 OA
HETATM   19  H   UNK     0     -47.213  -3.737  15.201  0.00  0.00     0.217 HD
ENDBRANCH   6  18
BRANCH  11  20
HETATM   20  O   UNK     0     -50.142   0.142  13.263  0.00  0.00    -0.358 OA
HETATM   21  H   UNK     0     -50.542  -0.025  12.391  0.00  0.00     0.217 HD
ENDBRANCH  11  20
BRANCH  10  22
HETATM   22  O   UNK     0     -47.765  -0.696  14.398  0.00  0.00    -0.356 OA
HETATM   23  H   UNK     0     -47.544  -0.615  13.453  0.00  0.00     0.218 HD
ENDBRANCH  10  22
TORSDOF 4
ENDMDL
MODEL 2
REMARK VINA RESULT:      -7.6      6.357     10.476
REMARK  4 active torsions:
REMARK  status: ('A' for Active; 'I' for Inactive)
REMARK    1  A    between atoms: O_2  and  C_9 
REMARK    2  A    between atoms: O_3  and  C_14 
REMARK    3  A    between atoms: O_4  and  C_15 
REMARK    4  A    between atoms: C_8  and  C_12 
ROOT
HETATM    1  O   UNK     0     -43.943   0.071  17.587  0.00  0.00    -0.309 OA
HETATM    2  O   UNK     0     -47.669   1.231  18.755  0.00  0.00    -0.287 OA
HETATM    3  C   UNK     0     -46.350  -0.125  17.339  0.00  0.00     0.084 A 
HETATM    4  C   UNK     0     -45.048  -0.476  16.988  0.00  0.00     0.096 A 
HETATM    5  C   UNK     0     -44.131   1.022  18.578  0.00  0.00     0.090 A 
HETATM    6  C   UNK     0     -47.440  -0.717  16.695  0.00  0.00     0.118 A 
HETATM    7  C   UNK     0     -46.555   0.877  18.396  0.00  0.00     0.190 A 
HETATM    8  C   UNK     0     -45.333   1.439  19.007  0.00  0.00     0.094 A 
HETATM    9  C   UNK     0     -44.827  -1.426  15.990  0.00  0.00     0.077 A 
HETATM   10  C   UNK     0     -47.216  -1.665  15.696  0.00  0.00     0.133 A 
HETATM   11  C   UNK     0     -45.912  -2.019  15.345  0.00  0.00     0.104 A 
ENDROOT
BRANCH   5  12
HETATM   12  C   UNK     0     -42.876   1.541  19.158  0.00  0.00    -0.002 A 
HETATM   13  C   UNK     0     -42.332   2.741  18.694  0.00  0.00     0.014 A 
HETATM   14  C   UNK     0     -41.146   3.232  19.241  0.00  0.00     0.001 A 
HETATM   15  C   UNK     0     -40.501   2.523  20.254  0.00  0.00     0.000 A 
HETATM   16  C   UNK     0     -41.040   1.325  20.720  0.00  0.00     0.001 A 
HETATM   17  C   UNK     0     -42.226   0.834  20.172  0.00  0.00     0.014 A 
ENDBRANCH   5  12
BRANCH   6  18
HETATM   18  O   UNK     0     -48.727  -0.397  17.010  0.00  0.00    -0.357 OA
HETATM   19  H   UNK     0     -48.928  -0.645  17.926  0.00  0.00     0.217 HD
ENDBRANCH   6  18
BRANCH  11  20
HETATM   20  O   UNK     0     -45.685  -2.944  14.369  0.00  0.00    -0.358 OA
HETATM   21  H   UNK     0     -45.587  -3.815  14.792  0.00  0.00     0.217 HD
ENDBRANCH  11  20
BRANCH  10  22
HETATM   22  O   UNK     0     -48.271  -2.251  15.061  0.00  0.00    -0.356 OA
HETATM   23  H   UNK     0     -47.988  -3.125  14.736  0.00  0.00     0.218 HD
ENDBRANCH  10  22
TORSDOF 4
ENDMDL
MODEL 3
REMARK VINA RESULT:      -7.5      2.355      4.557
REMARK  4 active torsions:
REMARK  status: ('A' for Active; 'I' for Inactive)
REMARK    1  A    between atoms: O_2  and  C_9 
REMARK    2  A    between atoms: O_3  and  C_14 
REMARK    3  A    between atoms: O_4  and  C_15 
REMARK    4  A    between atoms: C_8  and  C_12 
ROOT
HETATM    1  O   UNK     0     -48.779  -4.416  16.334  0.00  0.00    -0.309 OA
HETATM    2  O   UNK     0     -52.623  -4.253  14.997  0.00  0.00    -0.287 OA
HETATM    3  C   UNK     0     -50.489  -3.241  15.074  0.00  0.00     0.084 A 
HETATM    4  C   UNK     0     -49.190  -3.359  15.564  0.00  0.00     0.096 A 
HETATM    5  C   UNK     0     -49.700  -5.405  16.645  0.00  0.00     0.090 A 
HETATM    6  C   UNK     0     -50.853  -2.141  14.293  0.00  0.00     0.118 A 
HETATM    7  C   UNK     0     -51.467  -4.292  15.395  0.00  0.00     0.190 A 
HETATM    8  C   UNK     0     -50.976  -5.407  16.229  0.00  0.00     0.094 A 
HETATM    9  C   UNK     0     -48.243  -2.377  15.272  0.00  0.00     0.077 A 
HETATM   10  C   UNK     0     -49.904  -1.159  14.004  0.00  0.00     0.133 A 
HETATM   11  C   UNK     0     -48.602  -1.278  14.493  0.00  0.00     0.104 A 
ENDROOT
BRANCH   5  12
HETATM   12  C   UNK     0     -49.150  -6.498  17.473  0.00  0.00    -0.002 A 
HETATM   13  C   UNK     0     -49.863  -7.689  17.626  0.00  0.00     0.014 A 
HETATM   14  C   UNK     0     -49.346  -8.722  18.408  0.00  0.00     0.001 A 
HETATM   15  C   UNK     0     -48.112  -8.565  19.041  0.00  0.00     0.000 A 
HETATM   16  C   UNK     0     -47.397  -7.377  18.891  0.00  0.00     0.001 A 
HETATM   17  C   UNK     0     -47.916  -6.345  18.109  0.00  0.00     0.014 A 
ENDBRANCH   5  12
BRANCH   6  18
HETATM   18  O   UNK     0     -52.114  -1.991  13.798  0.00  0.00    -0.357 OA
HETATM   19  H   UNK     0     -52.088  -1.733  12.863  0.00  0.00     0.217 HD
ENDBRANCH   6  18
BRANCH  11  20
HETATM   20  O   UNK     0     -47.669  -0.323  14.216  0.00  0.00    -0.358 OA
HETATM   21  H   UNK     0     -46.944  -0.409  14.859  0.00  0.00     0.217 HD
ENDBRANCH  11  20
BRANCH  10  22
HETATM   22  O   UNK     0     -50.245  -0.082  13.241  0.00  0.00    -0.356 OA
HETATM   23  H   UNK     0     -50.835  -0.384  12.528  0.00  0.00     0.218 HD
ENDBRANCH  10  22
TORSDOF 4
ENDMDL
MODEL 4
REMARK VINA RESULT:      -7.4      1.468      3.318
REMARK  4 active torsions:
REMARK  status: ('A' for Active; 'I' for Inactive)
REMARK    1  A    between atoms: O_2  and  C_9 
REMARK    2  A    between atoms: O_3  and  C_14 
REMARK    3  A    between atoms: O_4  and  C_15 
REMARK    4  A    between atoms: C_8  and  C_12 
ROOT
HETATM    1  O   UNK     0     -49.814  -3.813  15.987  0.00  0.00    -0.309 OA
HETATM    2  O   UNK     0     -50.465  -0.720  13.418  0.00  0.00    -0.287 OA
HETATM    3  C   UNK     0     -48.955  -1.856  14.835  0.00  0.00     0.084 A 
HETATM    4  C   UNK     0     -48.800  -2.935  15.703  0.00  0.00     0.096 A 
HETATM    5  C   UNK     0     -51.049  -3.611  15.389  0.00  0.00     0.090 A 
HETATM    6  C   UNK     0     -47.885  -0.994  14.582  0.00  0.00     0.118 A 
HETATM    7  C   UNK     0     -50.260  -1.644  14.192  0.00  0.00     0.190 A 
HETATM    8  C   UNK     0     -51.320  -2.614  14.532  0.00  0.00     0.094 A 
HETATM    9  C   UNK     0     -47.571  -3.159  16.325  0.00  0.00     0.077 A 
HETATM   10  C   UNK     0     -46.657  -1.220  15.206  0.00  0.00     0.133 A 
HETATM   11  C   UNK     0     -46.501  -2.300  16.075  0.00  0.00     0.104 A 
ENDROOT
BRANCH   5  12
HETATM   12  C   UNK     0     -52.066  -4.617  15.760  0.00  0.00    -0.002 A 
HETATM   13  C   UNK     0     -51.790  -5.562  16.750  0.00  0.00     0.014 A 
HETATM   14  C   UNK     0     -52.750  -6.512  17.100  0.00  0.00     0.001 A 
HETATM   15  C   UNK     0     -53.989  -6.519  16.460  0.00  0.00     0.000 A 
HETATM   16  C   UNK     0     -54.269  -5.576  15.470  0.00  0.00     0.001 A 
HETATM   17  C   UNK     0     -53.308  -4.627  15.120  0.00  0.00     0.014 A 
ENDBRANCH   5  12
BRANCH   6  18
HETATM   18  O   UNK     0     -47.999   0.072  13.740  0.00  0.00    -0.357 OA
HETATM   19  H   UNK     0     -48.291  -0.214  12.860  0.00  0.00     0.217 HD
ENDBRANCH   6  18
BRANCH  11  20
HETATM   20  O   UNK     0     -45.305  -2.528  16.689  0.00  0.00    -0.358 OA
HETATM   21  H   UNK     0     -45.324  -2.100  17.563  0.00  0.00     0.217 HD
ENDBRANCH  11  20
BRANCH  10  22
HETATM   22  O   UNK     0     -45.605  -0.386  14.967  0.00  0.00    -0.356 OA
HETATM   23  H   UNK     0     -45.939   0.528  14.926  0.00  0.00     0.218 HD
ENDBRANCH  10  22
TORSDOF 4
ENDMDL
MODEL 5
REMARK VINA RESULT:      -7.1      3.968      8.312
REMARK  4 active torsions:
REMARK  status: ('A' for Active; 'I' for Inactive)
REMARK    1  A    between atoms: O_2  and  C_9 
REMARK    2  A    between atoms: O_3  and  C_14 
REMARK    3  A    between atoms: O_4  and  C_15 
REMARK    4  A    between atoms: C_8  and  C_12 
ROOT
HETATM    1  O   UNK     0     -46.533  -2.540  17.462  0.00  0.00    -0.309 OA
HETATM    2  O   UNK     0     -48.179  -0.437  14.386  0.00  0.00    -0.287 OA
HETATM    3  C   UNK     0     -48.222  -2.384  15.725  0.00  0.00     0.084 A 
HETATM    4  C   UNK     0     -47.611  -3.050  16.786  0.00  0.00     0.096 A 
HETATM    5  C   UNK     0     -46.024  -1.313  17.065  0.00  0.00     0.090 A 
HETATM    6  C   UNK     0     -49.320  -2.950  15.073  0.00  0.00     0.118 A 
HETATM    7  C   UNK     0     -47.691  -1.077  15.307  0.00  0.00     0.190 A 
HETATM    8  C   UNK     0     -46.528  -0.574  16.064  0.00  0.00     0.094 A 
HETATM    9  C   UNK     0     -48.097  -4.289  17.203  0.00  0.00     0.077 A 
HETATM   10  C   UNK     0     -49.803  -4.191  15.491  0.00  0.00     0.133 A 
HETATM   11  C   UNK     0     -49.193  -4.858  16.554  0.00  0.00     0.104 A 
ENDROOT
BRANCH   5  12
HETATM   12  C   UNK     0     -44.868  -0.857  17.863  0.00  0.00    -0.002 A 
HETATM   13  C   UNK     0     -43.961  -1.785  18.380  0.00  0.00     0.014 A 
HETATM   14  C   UNK     0     -42.869  -1.355  19.134  0.00  0.00     0.001 A 
HETATM   15  C   UNK     0     -42.681   0.006  19.373  0.00  0.00     0.000 A 
HETATM   16  C   UNK     0     -43.584   0.936  18.859  0.00  0.00     0.001 A 
HETATM   17  C   UNK     0     -44.676   0.505  18.106  0.00  0.00     0.014 A 
ENDBRANCH   5  12
BRANCH   6  18
HETATM   18  O   UNK     0     -49.942  -2.329  14.031  0.00  0.00    -0.357 OA
HETATM   19  H   UNK     0     -49.933  -2.891  13.240  0.00  0.00     0.217 HD
ENDBRANCH   6  18
BRANCH  11  20
HETATM   20  O   UNK     0     -49.658  -6.071  16.969  0.00  0.00    -0.358 OA
HETATM   21  H   UNK     0     -50.013  -6.543  16.195  0.00  0.00     0.217 HD
ENDBRANCH  11  20
BRANCH  10  22
HETATM   22  O   UNK     0     -50.875  -4.755  14.864  0.00  0.00    -0.356 OA
HETATM   23  H   UNK     0     -50.697  -5.705  14.746  0.00  0.00     0.218 HD
ENDBRANCH  10  22
TORSDOF 4
ENDMDL
MODEL 6
REMARK VINA RESULT:      -6.8     17.320     19.140
REMARK  4 active torsions:
REMARK  status: ('A' for Active; 'I' for Inactive)
REMARK    1  A    between atoms: O_2  and  C_9 
REMARK    2  A    between atoms: O_3  and  C_14 
REMARK    3  A    between atoms: O_4  and  C_15 
REMARK    4  A    between atoms: C_8  and  C_12 
ROOT
HETATM    1  O   UNK     0     -46.295 -16.141  28.305  0.00  0.00    -0.309 OA
HETATM    2  O   UNK     0     -50.275 -15.337  27.967  0.00  0.00    -0.287 OA
HETATM    3  C   UNK     0     -48.365 -16.396  27.063  0.00  0.00     0.084 A 
HETATM    4  C   UNK     0     -47.004 -16.633  27.240  0.00  0.00     0.096 A 
HETATM    5  C   UNK     0     -46.963 -15.366  29.242  0.00  0.00     0.090 A 
HETATM    6  C   UNK     0     -49.037 -16.925  25.958  0.00  0.00     0.118 A 
HETATM    7  C   UNK     0     -49.080 -15.583  28.059  0.00  0.00     0.190 A 
HETATM    8  C   UNK     0     -48.272 -15.073  29.185  0.00  0.00     0.094 A 
HETATM    9  C   UNK     0     -46.304 -17.403  26.311  0.00  0.00     0.077 A 
HETATM   10  C   UNK     0     -48.334 -17.694  25.029  0.00  0.00     0.133 A 
HETATM   11  C   UNK     0     -46.971 -17.932  25.206  0.00  0.00     0.104 A 
ENDROOT
BRANCH   5  12
HETATM   12  C   UNK     0     -46.108 -14.893  30.349  0.00  0.00    -0.002 A 
HETATM   13  C   UNK     0     -44.759 -14.610  30.122  0.00  0.00     0.014 A 
HETATM   14  C   UNK     0     -43.950 -14.162  31.167  0.00  0.00     0.001 A 
HETATM   15  C   UNK     0     -44.489 -13.997  32.443  0.00  0.00     0.000 A 
HETATM   16  C   UNK     0     -45.835 -14.278  32.674  0.00  0.00     0.001 A 
HETATM   17  C   UNK     0     -46.643 -14.726  31.628  0.00  0.00     0.014 A 
ENDBRANCH   5  12
BRANCH   6  18
HETATM   18  O   UNK     0     -50.368 -16.713  25.751  0.00  0.00    -0.357 OA
HETATM   19  H   UNK     0     -50.786 -16.348  26.547  0.00  0.00     0.217 HD
ENDBRANCH   6  18
BRANCH  11  20
HETATM   20  O   UNK     0     -46.276 -18.682  24.303  0.00  0.00    -0.358 OA
HETATM   21  H   UNK     0     -46.915 -19.191  23.773  0.00  0.00     0.217 HD
ENDBRANCH  11  20
BRANCH  10  22
HETATM   22  O   UNK     0     -48.978 -18.216  23.946  0.00  0.00    -0.356 OA
HETATM   23  H   UNK     0     -48.868 -17.603  23.198  0.00  0.00     0.218 HD
ENDBRANCH  10  22
TORSDOF 4
ENDMDL
MODEL 7
REMARK VINA RESULT:      -6.7      5.362      9.265
REMARK  4 active torsions:
REMARK  status: ('A' for Active; 'I' for Inactive)
REMARK    1  A    between atoms: O_2  and  C_9 
REMARK    2  A    between atoms: O_3  and  C_14 
REMARK    3  A    between atoms: O_4  and  C_15 
REMARK    4  A    between atoms: C_8  and  C_12 
ROOT
HETATM    1  O   UNK     0     -46.036   0.302  17.986  0.00  0.00    -0.309 OA
HETATM    2  O   UNK     0     -45.149  -2.137  14.845  0.00  0.00    -0.287 OA
HETATM    3  C   UNK     0     -46.813  -1.055  16.128  0.00  0.00     0.084 A 
HETATM    4  C   UNK     0     -47.045  -0.215  17.215  0.00  0.00     0.096 A 
HETATM    5  C   UNK     0     -44.728  -0.035  17.672  0.00  0.00     0.090 A 
HETATM    6  C   UNK     0     -47.881  -1.552  15.377  0.00  0.00     0.118 A 
HETATM    7  C   UNK     0     -45.426  -1.407  15.787  0.00  0.00     0.190 A 
HETATM    8  C   UNK     0     -44.375  -0.828  16.648  0.00  0.00     0.094 A 
HETATM    9  C   UNK     0     -48.352   0.136  17.558  0.00  0.00     0.077 A 
HETATM   10  C   UNK     0     -49.187  -1.200  15.723  0.00  0.00     0.133 A 
HETATM   11  C   UNK     0     -49.421  -0.358  16.811  0.00  0.00     0.104 A 
ENDROOT
BRANCH   5  12
HETATM   12  C   UNK     0     -43.721   0.580  18.562  0.00  0.00    -0.002 A 
HETATM   13  C   UNK     0     -43.069  -0.194  19.524  0.00  0.00     0.014 A 
HETATM   14  C   UNK     0     -42.118   0.385  20.365  0.00  0.00     0.001 A 
HETATM   15  C   UNK     0     -41.817   1.742  20.244  0.00  0.00     0.000 A 
HETATM   16  C   UNK     0     -42.465   2.518  19.284  0.00  0.00     0.001 A 
HETATM   17  C   UNK     0     -43.416   1.938  18.445  0.00  0.00     0.014 A 
ENDBRANCH   5  12
BRANCH   6  18
HETATM   18  O   UNK     0     -47.692  -2.376  14.308  0.00  0.00    -0.357 OA
HETATM   19  H   UNK     0     -46.789  -2.292  13.964  0.00  0.00     0.217 HD
ENDBRANCH   6  18
BRANCH  11  20
HETATM   20  O   UNK     0     -50.693  -0.010  17.156  0.00  0.00    -0.358 OA
HETATM   21  H   UNK     0     -50.753   0.961  17.161  0.00  0.00     0.217 HD
ENDBRANCH  11  20
BRANCH  10  22
HETATM   22  O   UNK     0     -50.238  -1.677  14.998  0.00  0.00    -0.356 OA
HETATM   23  H   UNK     0     -50.426  -1.049  14.278  0.00  0.00     0.218 HD
ENDBRANCH  10  22
TORSDOF 4
ENDMDL
MODEL 8
REMARK VINA RESULT:      -6.7     17.300     19.404
REMARK  4 active torsions:
REMARK  status: ('A' for Active; 'I' for Inactive)
REMARK    1  A    between atoms: O_2  and  C_9 
REMARK    2  A    between atoms: O_3  and  C_14 
REMARK    3  A    between atoms: O_4  and  C_15 
REMARK    4  A    between atoms: C_8  and  C_12 
ROOT
HETATM    1  O   UNK     0     -47.428 -15.452  29.548  0.00  0.00    -0.309 OA
HETATM    2  O   UNK     0     -44.512 -16.453  26.885  0.00  0.00    -0.287 OA
HETATM    3  C   UNK     0     -46.822 -16.304  27.357  0.00  0.00     0.084 A 
HETATM    4  C   UNK     0     -47.768 -15.942  28.314  0.00  0.00     0.096 A 
HETATM    5  C   UNK     0     -46.083 -15.320  29.859  0.00  0.00     0.090 A 
HETATM    6  C   UNK     0     -47.228 -16.796  26.114  0.00  0.00     0.118 A 
HETATM    7  C   UNK     0     -45.394 -16.157  27.678  0.00  0.00     0.190 A 
HETATM    8  C   UNK     0     -45.080 -15.629  29.021  0.00  0.00     0.094 A 
HETATM    9  C   UNK     0     -49.129 -16.069  28.032  0.00  0.00     0.077 A 
HETATM   10  C   UNK     0     -48.589 -16.924  25.835  0.00  0.00     0.133 A 
HETATM   11  C   UNK     0     -49.537 -16.561  26.793  0.00  0.00     0.104 A 
ENDROOT
BRANCH   5  12
HETATM   12  C   UNK     0     -45.829 -14.780  31.209  0.00  0.00    -0.002 A 
HETATM   13  C   UNK     0     -44.579 -14.242  31.527  0.00  0.00     0.014 A 
HETATM   14  C   UNK     0     -44.338 -13.731  32.802  0.00  0.00     0.001 A 
HETATM   15  C   UNK     0     -45.347 -13.758  33.765  0.00  0.00     0.000 A 
HETATM   16  C   UNK     0     -46.596 -14.293  33.452  0.00  0.00     0.001 A 
HETATM   17  C   UNK     0     -46.836 -14.804  32.177  0.00  0.00     0.014 A 
ENDBRANCH   5  12
BRANCH   6  18
HETATM   18  O   UNK     0     -46.331 -17.161  25.153  0.00  0.00    -0.357 OA
HETATM   19  H   UNK     0     -46.624 -17.967  24.699  0.00  0.00     0.217 HD
ENDBRANCH   6  18
BRANCH  11  20
HETATM   20  O   UNK     0     -50.869 -16.683  26.529  0.00  0.00    -0.358 OA
HETATM   21  H   UNK     0     -51.226 -17.398  27.085  0.00  0.00     0.217 HD
ENDBRANCH  11  20
BRANCH  10  22
HETATM   22  O   UNK     0     -48.998 -17.403  24.626  0.00  0.00    -0.356 OA
HETATM   23  H   UNK     0     -48.837 -18.363  24.604  0.00  0.00     0.218 HD
ENDBRANCH  10  22
TORSDOF 4
ENDMDL
MODEL 9
REMARK VINA RESULT:      -6.6     15.068     17.191
REMARK  4 active torsions:
REMARK  status: ('A' for Active; 'I' for Inactive)
REMARK    1  A    between atoms: O_2  and  C_9 
REMARK    2  A    between atoms: O_3  and  C_14 
REMARK    3  A    between atoms: O_4  and  C_15 
REMARK    4  A    between atoms: C_8  and  C_12 
ROOT
HETATM    1  O   UNK     0     -47.671 -15.333  25.666  0.00  0.00    -0.309 OA
HETATM    2  O   UNK     0     -47.782 -19.405  25.660  0.00  0.00    -0.287 OA
HETATM    3  C   UNK     0     -47.668 -17.407  24.404  0.00  0.00     0.084 A 
HETATM    4  C   UNK     0     -47.633 -16.016  24.478  0.00  0.00     0.096 A 
HETATM    5  C   UNK     0     -47.757 -16.060  26.843  0.00  0.00     0.090 A 
HETATM    6  C   UNK     0     -47.625 -18.051  23.165  0.00  0.00     0.118 A 
HETATM    7  C   UNK     0     -47.750 -18.183  25.651  0.00  0.00     0.190 A 
HETATM    8  C   UNK     0     -47.791 -17.401  26.904  0.00  0.00     0.094 A 
HETATM    9  C   UNK     0     -47.553 -15.258  23.309  0.00  0.00     0.077 A 
HETATM   10  C   UNK     0     -47.546 -17.290  21.997  0.00  0.00     0.133 A 
HETATM   11  C   UNK     0     -47.510 -15.897  22.070  0.00  0.00     0.104 A 
ENDROOT
BRANCH   5  12
HETATM   12  C   UNK     0     -47.786 -15.226  28.062  0.00  0.00    -0.002 A 
HETATM   13  C   UNK     0     -46.933 -15.514  29.130  0.00  0.00     0.014 A 
HETATM   14  C   UNK     0     -46.960 -14.727  30.282  0.00  0.00     0.001 A 
HETATM   15  C   UNK     0     -47.843 -13.650  30.369  0.00  0.00     0.000 A 
HETATM   16  C   UNK     0     -48.697 -13.360  29.306  0.00  0.00     0.001 A 
HETATM   17  C   UNK     0     -48.669 -14.148  28.154  0.00  0.00     0.014 A 
ENDBRANCH   5  12
BRANCH   6  18
HETATM   18  O   UNK     0     -47.658 -19.409  23.053  0.00  0.00    -0.357 OA
HETATM   19  H   UNK     0     -47.146 -19.703  22.283  0.00  0.00     0.217 HD
ENDBRANCH   6  18
BRANCH  11  20
HETATM   20  O   UNK     0     -47.434 -15.146  20.935  0.00  0.00    -0.358 OA
HETATM   21  H   UNK     0     -46.495 -14.960  20.754  0.00  0.00     0.217 HD
ENDBRANCH  11  20
BRANCH  10  22
HETATM   22  O   UNK     0     -47.502 -17.905  20.781  0.00  0.00    -0.356 OA
HETATM   23  H   UNK     0     -47.106 -17.290  20.139  0.00  0.00     0.218 HD
ENDBRANCH  10  22
TORSDOF 4
ENDMDL
MODEL 10
REMARK VINA RESULT:      -6.5      5.029      7.669
REMARK  4 active torsions:
REMARK  status: ('A' for Active; 'I' for Inactive)
REMARK    1  A    between atoms: O_2  and  C_9 
REMARK    2  A    between atoms: O_3  and  C_14 
REMARK    3  A    between atoms: O_4  and  C_15 
REMARK    4  A    between atoms: C_8  and  C_12 
ROOT
HETATM    1  O   UNK     0     -50.169  -7.748  18.107  0.00  0.00    -0.309 OA
HETATM    2  O   UNK     0     -51.857  -7.830  21.814  0.00  0.00    -0.287 OA
HETATM    3  C   UNK     0     -50.214  -8.685  20.347  0.00  0.00     0.084 A 
HETATM    4  C   UNK     0     -49.684  -8.605  19.061  0.00  0.00     0.096 A 
HETATM    5  C   UNK     0     -51.240  -6.931  18.437  0.00  0.00     0.090 A 
HETATM    6  C   UNK     0     -49.678  -9.577  21.279  0.00  0.00     0.118 A 
HETATM    7  C   UNK     0     -51.345  -7.814  20.704  0.00  0.00     0.190 A 
HETATM    8  C   UNK     0     -51.833  -6.911  19.642  0.00  0.00     0.094 A 
HETATM    9  C   UNK     0     -48.610  -9.419  18.698  0.00  0.00     0.077 A 
HETATM   10  C   UNK     0     -48.604 -10.391  20.913  0.00  0.00     0.133 A 
HETATM   11  C   UNK     0     -48.072 -10.311  19.625  0.00  0.00     0.104 A 
ENDROOT
BRANCH   5  12
HETATM   12  C   UNK     0     -51.679  -6.045  17.340  0.00  0.00    -0.002 A 
HETATM   13  C   UNK     0     -53.023  -5.680  17.228  0.00  0.00     0.014 A 
HETATM   14  C   UNK     0     -53.439  -4.843  16.192  0.00  0.00     0.001 A 
HETATM   15  C   UNK     0     -52.510  -4.369  15.264  0.00  0.00     0.000 A 
HETATM   16  C   UNK     0     -51.168  -4.732  15.373  0.00  0.00     0.001 A 
HETATM   17  C   UNK     0     -50.754  -5.569  16.409  0.00  0.00     0.014 A 
ENDBRANCH   5  12
BRANCH   6  18
HETATM   18  O   UNK     0     -50.171  -9.683  22.545  0.00  0.00    -0.357 OA
HETATM   19  H   UNK     0     -49.655 -10.321  23.063  0.00  0.00     0.217 HD
ENDBRANCH   6  18
BRANCH  11  20
HETATM   20  O   UNK     0     -47.024 -11.103  19.260  0.00  0.00    -0.358 OA
HETATM   21  H   UNK     0     -46.697 -11.562  20.053  0.00  0.00     0.217 HD
ENDBRANCH  11  20
BRANCH  10  22
HETATM   22  O   UNK     0     -48.071 -11.265  21.813  0.00  0.00    -0.356 OA
HETATM   23  H   UNK     0     -48.610 -12.076  21.810  0.00  0.00     0.218 HD
ENDBRANCH  10  22
TORSDOF 4
ENDMDL
