MODEL 1
REMARK VINA RESULT:      -7.0      0.000      0.000
REMARK  4 active torsions:
REMARK  status: ('A' for Active; 'I' for Inactive)
REMARK    1  A    between atoms: O_2  and  C_9 
REMARK    2  A    between atoms: O_3  and  C_11 
REMARK    3  A    between atoms: O_4  and  C_14 
REMARK    4  A    between atoms: C_8  and  C_13 
ROOT
HETATM    1  O   UNK     0     -48.742  -4.068  16.271  0.00  0.00    -0.306 OA
HETATM    2  O   UNK     0     -52.036  -2.658  14.332  0.00  0.00    -0.287 OA
HETATM    3  C   UNK     0     -49.756  -2.358  14.875  0.00  0.00     0.084 A 
HETATM    4  C   UNK     0     -48.668  -2.896  15.560  0.00  0.00     0.129 A 
HETATM    5  C   UNK     0     -49.955  -4.738  16.315  0.00  0.00     0.090 A 
HETATM    6  C   UNK     0     -47.437  -2.242  15.539  0.00  0.00     0.136 A 
HETATM    7  C   UNK     0     -51.041  -3.071  14.912  0.00  0.00     0.190 A 
HETATM    8  C   UNK     0     -49.623  -1.162  14.166  0.00  0.00     0.085 A 
HETATM    9  C   UNK     0     -51.070  -4.325  15.692  0.00  0.00     0.094 A 
HETATM   10  C   UNK     0     -47.299  -1.046  14.833  0.00  0.00     0.104 A 
HETATM   11  C   UNK     0     -48.390  -0.508  14.148  0.00  0.00     0.077 A 
ENDROOT
BRANCH   5  12
HETATM   12  C   UNK     0     -49.922  -5.988  17.102  0.00  0.00    -0.002 A 
HETATM   13  C   UNK     0     -51.112  -6.573  17.540  0.00  0.00     0.014 A 
HETATM   14  C   UNK     0     -51.082  -7.753  18.282  0.00  0.00     0.001 A 
HETATM   15  C   UNK     0     -49.860  -8.353  18.588  0.00  0.00     0.000 A 
HETATM   16  C   UNK     0     -48.669  -7.772  18.153  0.00  0.00     0.001 A 
HETATM   17  C   UNK     0     -48.700  -6.591  17.410  0.00  0.00     0.014 A 
ENDBRANCH   5  12
BRANCH   6  18
HETATM   18  O   UNK     0     -46.367  -2.763  16.206  0.00  0.00    -0.351 OA
HETATM   19  C   UNK     0     -46.070  -2.207  17.485  0.00  0.00     0.210 C 
ENDBRANCH   6  18
BRANCH   8  20
HETATM   20  O   UNK     0     -50.654  -0.596  13.481  0.00  0.00    -0.360 OA
HETATM   21  H   UNK     0     -51.502  -0.949  13.790  0.00  0.00     0.217 HD
ENDBRANCH   8  20
BRANCH  10  22
HETATM   22  O   UNK     0     -46.104  -0.394  14.803  0.00  0.00    -0.358 OA
HETATM   23  H   UNK     0     -46.237   0.526  15.093  0.00  0.00     0.217 HD
ENDBRANCH  10  22
TORSDOF 4
ENDMDL
MODEL 2
REMARK VINA RESULT:      -6.9      1.906      5.504
REMARK  4 active torsions:
REMARK  status: ('A' for Active; 'I' for Inactive)
REMARK    1  A    between atoms: O_2  and  C_9 
REMARK    2  A    between atoms: O_3  and  C_11 
REMARK    3  A    between atoms: O_4  and  C_14 
REMARK    4  A    between atoms: C_8  and  C_13 
ROOT
HETATM    1  O   UNK     0     -47.280  -2.855  17.271  0.00  0.00    -0.306 OA
HETATM    2  O   UNK     0     -48.063  -0.323  14.176  0.00  0.00    -0.287 OA
HETATM    3  C   UNK     0     -48.605  -2.327  15.305  0.00  0.00     0.084 A 
HETATM    4  C   UNK     0     -48.286  -3.148  16.384  0.00  0.00     0.129 A 
HETATM    5  C   UNK     0     -46.546  -1.695  17.076  0.00  0.00     0.090 A 
HETATM    6  C   UNK     0     -49.003  -4.325  16.603  0.00  0.00     0.136 A 
HETATM    7  C   UNK     0     -47.835  -1.091  15.101  0.00  0.00     0.190 A 
HETATM    8  C   UNK     0     -49.641  -2.675  14.435  0.00  0.00     0.085 A 
HETATM    9  C   UNK     0     -46.762  -0.823  16.079  0.00  0.00     0.094 A 
HETATM   10  C   UNK     0     -50.038  -4.677  15.736  0.00  0.00     0.104 A 
HETATM   11  C   UNK     0     -50.357  -3.853  14.654  0.00  0.00     0.077 A 
ENDROOT
BRANCH   5  12
HETATM   12  C   UNK     0     -45.493  -1.474  18.088  0.00  0.00    -0.002 A 
HETATM   13  C   UNK     0     -45.795  -0.814  19.282  0.00  0.00     0.014 A 
HETATM   14  C   UNK     0     -44.802  -0.605  20.238  0.00  0.00     0.001 A 
HETATM   15  C   UNK     0     -43.503  -1.057  20.004  0.00  0.00     0.000 A 
HETATM   16  C   UNK     0     -43.198  -1.717  18.814  0.00  0.00     0.001 A 
HETATM   17  C   UNK     0     -44.191  -1.925  17.858  0.00  0.00     0.014 A 
ENDBRANCH   5  12
BRANCH   6  18
HETATM   18  O   UNK     0     -48.697  -5.133  17.657  0.00  0.00    -0.351 OA
HETATM   19  C   UNK     0     -49.526  -5.029  18.813  0.00  0.00     0.210 C 
ENDBRANCH   6  18
BRANCH   8  20
HETATM   20  O   UNK     0     -49.991  -1.907  13.367  0.00  0.00    -0.360 OA
HETATM   21  H   UNK     0     -49.929  -2.417  12.545  0.00  0.00     0.217 HD
ENDBRANCH   8  20
BRANCH  10  22
HETATM   22  O   UNK     0     -50.747  -5.823  15.934  0.00  0.00    -0.358 OA
HETATM   23  H   UNK     0     -51.520  -5.824  15.342  0.00  0.00     0.217 HD
ENDBRANCH  10  22
TORSDOF 4
ENDMDL
MODEL 3
REMARK VINA RESULT:      -6.6      4.076      7.342
REMARK  4 active torsions:
REMARK  status: ('A' for Active; 'I' for Inactive)
REMARK    1  A    between atoms: O_2  and  C_9 
REMARK    2  A    between atoms: O_3  and  C_11 
REMARK    3  A    between atoms: O_4  and  C_14 
REMARK    4  A    between atoms: C_8  and  C_13 
ROOT
HETATM    1  O   UNK     0     -45.974   0.305  18.032  0.00  0.00    -0.306 OA
HETATM    2  O   UNK     0     -45.019  -2.097  14.882  0.00  0.00    -0.287 OA
HETATM    3  C   UNK     0     -46.712  -1.048  16.153  0.00  0.00     0.084 A 
HETATM    4  C   UNK     0     -46.968  -0.219  17.244  0.00  0.00     0.129 A 
HETATM    5  C   UNK     0     -44.658  -0.013  17.731  0.00  0.00     0.090 A 
HETATM    6  C   UNK     0     -48.283   0.113  17.575  0.00  0.00     0.136 A 
HETATM    7  C   UNK     0     -45.317  -1.378  15.826  0.00  0.00     0.190 A 
HETATM    8  C   UNK     0     -47.764  -1.552  15.386  0.00  0.00     0.085 A 
HETATM    9  C   UNK     0     -44.284  -0.792  16.705  0.00  0.00     0.094 A 
HETATM   10  C   UNK     0     -49.338  -0.389  16.811  0.00  0.00     0.104 A 
HETATM   11  C   UNK     0     -49.079  -1.219  15.719  0.00  0.00     0.077 A 
ENDROOT
BRANCH   5  12
HETATM   12  C   UNK     0     -43.669   0.607  18.637  0.00  0.00    -0.002 A 
HETATM   13  C   UNK     0     -43.072  -0.149  19.647  0.00  0.00     0.014 A 
HETATM   14  C   UNK     0     -42.139   0.435  20.502  0.00  0.00     0.001 A 
HETATM   15  C   UNK     0     -41.798   1.779  20.349  0.00  0.00     0.000 A 
HETATM   16  C   UNK     0     -42.392   2.538  19.341  0.00  0.00     0.001 A 
HETATM   17  C   UNK     0     -43.326   1.953  18.486  0.00  0.00     0.014 A 
ENDBRANCH   5  12
BRANCH   6  18
HETATM   18  O   UNK     0     -48.542   0.923  18.640  0.00  0.00    -0.351 OA
HETATM   19  C   UNK     0     -48.760   0.287  19.898  0.00  0.00     0.210 C 
ENDBRANCH   6  18
BRANCH   8  20
HETATM   20  O   UNK     0     -47.566  -2.363  14.311  0.00  0.00    -0.360 OA
HETATM   21  H   UNK     0     -47.663  -3.293  14.564  0.00  0.00     0.217 HD
ENDBRANCH   8  20
BRANCH  10  22
HETATM   22  O   UNK     0     -50.626  -0.076  17.121  0.00  0.00    -0.358 OA
HETATM   23  H   UNK     0     -51.222  -0.698  16.668  0.00  0.00     0.217 HD
ENDBRANCH  10  22
TORSDOF 4
ENDMDL
MODEL 4
REMARK VINA RESULT:      -6.6     16.933     17.716
REMARK  4 active torsions:
REMARK  status: ('A' for Active; 'I' for Inactive)
REMARK    1  A    between atoms: O_2  and  C_9 
REMARK    2  A    between atoms: O_3  and  C_11 
REMARK    3  A    between atoms: O_4  and  C_14 
REMARK    4  A    between atoms: C_8  and  C_13 
ROOT
HETATM    1  O   UNK     0     -46.623 -16.359  27.747  0.00  0.00    -0.306 OA
HETATM    2  O   UNK     0     -50.354 -16.672  26.140  0.00  0.00    -0.287 OA
HETATM    3  C   UNK     0     -48.056 -17.194  25.972  0.00  0.00     0.084 A 
HETATM    4  C   UNK     0     -46.808 -17.050  26.575  0.00  0.00     0.129 A 
HETATM    5  C   UNK     0     -47.727 -15.773  28.349  0.00  0.00     0.090 A 
HETATM    6  C   UNK     0     -45.679 -17.623  25.990  0.00  0.00     0.136 A 
HETATM    7  C   UNK     0     -49.229 -16.583  26.612  0.00  0.00     0.190 A 
HETATM    8  C   UNK     0     -48.185 -17.910  24.779  0.00  0.00     0.085 A 
HETATM    9  C   UNK     0     -48.977 -15.848  27.869  0.00  0.00     0.094 A 
HETATM   10  C   UNK     0     -45.803 -18.339  24.798  0.00  0.00     0.104 A 
HETATM   11  C   UNK     0     -47.054 -18.482  24.195  0.00  0.00     0.077 A 
ENDROOT
BRANCH   5  12
HETATM   12  C   UNK     0     -47.417 -15.060  29.605  0.00  0.00    -0.002 A 
HETATM   13  C   UNK     0     -48.025 -13.835  29.885  0.00  0.00     0.014 A 
HETATM   14  C   UNK     0     -47.734 -13.161  31.070  0.00  0.00     0.001 A 
HETATM   15  C   UNK     0     -46.832 -13.712  31.980  0.00  0.00     0.000 A 
HETATM   16  C   UNK     0     -46.222 -14.935  31.705  0.00  0.00     0.001 A 
HETATM   17  C   UNK     0     -46.514 -15.608  30.519  0.00  0.00     0.014 A 
ENDBRANCH   5  12
BRANCH   6  18
HETATM   18  O   UNK     0     -44.455 -17.487  26.575  0.00  0.00    -0.351 OA
HETATM   19  C   UNK     0     -43.662 -16.374  26.165  0.00  0.00     0.210 C 
ENDBRANCH   6  18
BRANCH   8  20
HETATM   20  O   UNK     0     -49.381 -18.080  24.151  0.00  0.00    -0.360 OA
HETATM   21  H   UNK     0     -49.345 -18.838  23.549  0.00  0.00     0.217 HD
ENDBRANCH   8  20
BRANCH  10  22
HETATM   22  O   UNK     0     -44.711 -18.903  24.213  0.00  0.00    -0.358 OA
HETATM   23  H   UNK     0     -45.000 -19.632  23.637  0.00  0.00     0.217 HD
ENDBRANCH  10  22
TORSDOF 4
ENDMDL
MODEL 5
REMARK VINA RESULT:      -6.5     12.670     16.028
REMARK  4 active torsions:
REMARK  status: ('A' for Active; 'I' for Inactive)
REMARK    1  A    between atoms: O_2  and  C_9 
REMARK    2  A    between atoms: O_3  and  C_11 
REMARK    3  A    between atoms: O_4  and  C_14 
REMARK    4  A    between atoms: C_8  and  C_13 
ROOT
HETATM    1  O   UNK     0     -47.551 -15.257  25.063  0.00  0.00    -0.306 OA
HETATM    2  O   UNK     0     -47.755 -19.257  25.809  0.00  0.00    -0.287 OA
HETATM    3  C   UNK     0     -47.655 -17.527  24.203  0.00  0.00     0.084 A 
HETATM    4  C   UNK     0     -47.584 -16.147  24.018  0.00  0.00     0.129 A 
HETATM    5  C   UNK     0     -47.599 -15.755  26.356  0.00  0.00     0.090 A 
HETATM    6  C   UNK     0     -47.541 -15.616  22.729  0.00  0.00     0.136 A 
HETATM    7  C   UNK     0     -47.696 -18.058  25.573  0.00  0.00     0.190 A 
HETATM    8  C   UNK     0     -47.684 -18.386  23.102  0.00  0.00     0.085 A 
HETATM    9  C   UNK     0     -47.661 -17.060  26.661  0.00  0.00     0.094 A 
HETATM   10  C   UNK     0     -47.571 -16.471  21.626  0.00  0.00     0.104 A 
HETATM   11  C   UNK     0     -47.642 -17.853  21.813  0.00  0.00     0.077 A 
ENDROOT
BRANCH   5  12
HETATM   12  C   UNK     0     -47.553 -14.713  27.402  0.00  0.00    -0.002 A 
HETATM   13  C   UNK     0     -46.360 -14.037  27.667  0.00  0.00     0.014 A 
HETATM   14  C   UNK     0     -46.315 -13.053  28.654  0.00  0.00     0.001 A 
HETATM   15  C   UNK     0     -47.466 -12.740  29.379  0.00  0.00     0.000 A 
HETATM   16  C   UNK     0     -48.659 -13.413  29.117  0.00  0.00     0.001 A 
HETATM   17  C   UNK     0     -48.703 -14.398  28.130  0.00  0.00     0.014 A 
ENDBRANCH   5  12
BRANCH   6  18
HETATM   18  O   UNK     0     -47.471 -14.268  22.540  0.00  0.00    -0.351 OA
HETATM   19  C   UNK     0     -46.253 -13.751  22.009  0.00  0.00     0.210 C 
ENDBRANCH   6  18
BRANCH   8  20
HETATM   20  O   UNK     0     -47.752 -19.739  23.230  0.00  0.00    -0.360 OA
HETATM   21  H   UNK     0     -46.877 -20.137  23.110  0.00  0.00     0.217 HD
ENDBRANCH   8  20
BRANCH  10  22
HETATM   22  O   UNK     0     -47.531 -15.970  20.361  0.00  0.00    -0.358 OA
HETATM   23  H   UNK     0     -48.422 -15.672  20.108  0.00  0.00     0.217 HD
ENDBRANCH  10  22
TORSDOF 4
ENDMDL
MODEL 6
REMARK VINA RESULT:      -6.5      4.535      8.049
REMARK  4 active torsions:
REMARK  status: ('A' for Active; 'I' for Inactive)
REMARK    1  A    between atoms: O_2  and  C_9 
REMARK    2  A    between atoms: O_3  and  C_11 
REMARK    3  A    between atoms: O_4  and  C_14 
REMARK    4  A    between atoms: C_8  and  C_13 
ROOT
HETATM    1  O   UNK     0     -48.125  -8.929  19.210  0.00  0.00    -0.306 OA
HETATM    2  O   UNK     0     -49.771 -10.176  22.723  0.00  0.00    -0.287 OA
HETATM    3  C   UNK     0     -50.004  -8.896  20.750  0.00  0.00     0.084 A 
HETATM    4  C   UNK     0     -49.383  -8.509  19.564  0.00  0.00     0.129 A 
HETATM    5  C   UNK     0     -47.442  -9.769  20.077  0.00  0.00     0.090 A 
HETATM    6  C   UNK     0     -50.043  -7.661  18.675  0.00  0.00     0.136 A 
HETATM    7  C   UNK     0     -49.286  -9.794  21.667  0.00  0.00     0.190 A 
HETATM    8  C   UNK     0     -51.287  -8.438  21.058  0.00  0.00     0.085 A 
HETATM    9  C   UNK     0     -47.935 -10.215  21.242  0.00  0.00     0.094 A 
HETATM   10  C   UNK     0     -51.325  -7.200  18.978  0.00  0.00     0.104 A 
HETATM   11  C   UNK     0     -51.946  -7.588  20.167  0.00  0.00     0.077 A 
ENDROOT
BRANCH   5  12
HETATM   12  C   UNK     0     -46.102 -10.164  19.598  0.00  0.00    -0.002 A 
HETATM   13  C   UNK     0     -45.239  -9.207  19.059  0.00  0.00     0.014 A 
HETATM   14  C   UNK     0     -43.974  -9.578  18.607  0.00  0.00     0.001 A 
HETATM   15  C   UNK     0     -43.566 -10.910  18.693  0.00  0.00     0.000 A 
HETATM   16  C   UNK     0     -44.424 -11.869  19.230  0.00  0.00     0.001 A 
HETATM   17  C   UNK     0     -45.690 -11.496  19.682  0.00  0.00     0.014 A 
ENDBRANCH   5  12
BRANCH   6  18
HETATM   18  O   UNK     0     -49.443  -7.278  17.512  0.00  0.00    -0.351 OA
HETATM   19  C   UNK     0     -48.696  -6.063  17.539  0.00  0.00     0.210 C 
ENDBRANCH   6  18
BRANCH   8  20
HETATM   20  O   UNK     0     -51.936  -8.788  22.202  0.00  0.00    -0.360 OA
HETATM   21  H   UNK     0     -52.120  -9.739  22.212  0.00  0.00     0.217 HD
ENDBRANCH   8  20
BRANCH  10  22
HETATM   22  O   UNK     0     -51.983  -6.370  18.123  0.00  0.00    -0.358 OA
HETATM   23  H   UNK     0     -52.470  -6.906  17.472  0.00  0.00     0.217 HD
ENDBRANCH  10  22
TORSDOF 4
ENDMDL
MODEL 7
REMARK VINA RESULT:      -6.4      4.280      7.885
REMARK  4 active torsions:
REMARK  status: ('A' for Active; 'I' for Inactive)
REMARK    1  A    between atoms: O_2  and  C_9 
REMARK    2  A    between atoms: O_3  and  C_11 
REMARK    3  A    between atoms: O_4  and  C_14 
REMARK    4  A    between atoms: C_8  and  C_13 
ROOT
HETATM    1  O   UNK     0     -44.594   0.119  17.795  0.00  0.00    -0.306 OA
HETATM    2  O   UNK     0     -48.072   1.765  19.134  0.00  0.00    -0.287 OA
HETATM    3  C   UNK     0     -47.020   0.207  17.703  0.00  0.00     0.084 A 
HETATM    4  C   UNK     0     -45.795  -0.314  17.290  0.00  0.00     0.129 A 
HETATM    5  C   UNK     0     -44.603   1.124  18.750  0.00  0.00     0.090 A 
HETATM    6  C   UNK     0     -45.753  -1.321  16.325  0.00  0.00     0.136 A 
HETATM    7  C   UNK     0     -47.033   1.265  18.723  0.00  0.00     0.190 A 
HETATM    8  C   UNK     0     -48.212  -0.273  17.155  0.00  0.00     0.085 A 
HETATM    9  C   UNK     0     -45.716   1.698  19.232  0.00  0.00     0.094 A 
HETATM   10  C   UNK     0     -46.942  -1.803  15.775  0.00  0.00     0.104 A 
HETATM   11  C   UNK     0     -48.168  -1.280  16.190  0.00  0.00     0.077 A 
ENDROOT
BRANCH   5  12
HETATM   12  C   UNK     0     -43.260   1.509  19.228  0.00  0.00    -0.002 A 
HETATM   13  C   UNK     0     -42.616   2.625  18.687  0.00  0.00     0.014 A 
HETATM   14  C   UNK     0     -41.348   2.990  19.138  0.00  0.00     0.001 A 
HETATM   15  C   UNK     0     -40.719   2.240  20.133  0.00  0.00     0.000 A 
HETATM   16  C   UNK     0     -41.358   1.126  20.676  0.00  0.00     0.001 A 
HETATM   17  C   UNK     0     -42.627   0.761  20.224  0.00  0.00     0.014 A 
ENDBRANCH   5  12
BRANCH   6  18
HETATM   18  O   UNK     0     -44.559  -1.835  15.917  0.00  0.00    -0.351 OA
HETATM   19  C   UNK     0     -44.022  -1.333  14.695  0.00  0.00     0.210 C 
ENDBRANCH   6  18
BRANCH   8  20
HETATM   20  O   UNK     0     -49.433   0.202  17.526  0.00  0.00    -0.360 OA
HETATM   21  H   UNK     0     -50.105  -0.040  16.871  0.00  0.00     0.217 HD
ENDBRANCH   8  20
BRANCH  10  22
HETATM   22  O   UNK     0     -46.919  -2.785  14.832  0.00  0.00    -0.358 OA
HETATM   23  H   UNK     0     -46.138  -2.662  14.265  0.00  0.00     0.217 HD
ENDBRANCH  10  22
TORSDOF 4
ENDMDL
MODEL 8
REMARK VINA RESULT:      -6.4      5.172      8.087
REMARK  4 active torsions:
REMARK  status: ('A' for Active; 'I' for Inactive)
REMARK    1  A    between atoms: O_2  and  C_9 
REMARK    2  A    between atoms: O_3  and  C_11 
REMARK    3  A    between atoms: O_4  and  C_14 
REMARK    4  A    between atoms: C_8  and  C_13 
ROOT
HETATM    1  O   UNK     0     -47.478  -8.824  20.602  0.00  0.00    -0.306 OA
HETATM    2  O   UNK     0     -48.437  -6.772  17.215  0.00  0.00    -0.287 OA
HETATM    3  C   UNK     0     -49.180  -7.777  19.221  0.00  0.00     0.084 A 
HETATM    4  C   UNK     0     -48.783  -8.477  20.359  0.00  0.00     0.129 A 
HETATM    5  C   UNK     0     -46.516  -8.468  19.669  0.00  0.00     0.090 A 
HETATM    6  C   UNK     0     -49.730  -8.854  21.312  0.00  0.00     0.136 A 
HETATM    7  C   UNK     0     -48.161  -7.390  18.235  0.00  0.00     0.190 A 
HETATM    8  C   UNK     0     -50.523  -7.449  19.026  0.00  0.00     0.085 A 
HETATM    9  C   UNK     0     -46.772  -7.789  18.541  0.00  0.00     0.094 A 
HETATM   10  C   UNK     0     -51.074  -8.529  21.121  0.00  0.00     0.104 A 
HETATM   11  C   UNK     0     -51.469  -7.828  19.981  0.00  0.00     0.077 A 
ENDROOT
BRANCH   5  12
HETATM   12  C   UNK     0     -45.146  -8.886  20.031  0.00  0.00    -0.002 A 
HETATM   13  C   UNK     0     -44.635  -8.595  21.299  0.00  0.00     0.014 A 
HETATM   14  C   UNK     0     -43.343  -8.989  21.642  0.00  0.00     0.001 A 
HETATM   15  C   UNK     0     -42.555  -9.676  20.718  0.00  0.00     0.000 A 
HETATM   16  C   UNK     0     -43.061  -9.969  19.451  0.00  0.00     0.001 A 
HETATM   17  C   UNK     0     -44.354  -9.574  19.108  0.00  0.00     0.014 A 
ENDBRANCH   5  12
BRANCH   6  18
HETATM   18  O   UNK     0     -49.349  -9.538  22.428  0.00  0.00    -0.351 OA
HETATM   19  C   UNK     0     -49.326 -10.961  22.338  0.00  0.00     0.210 C 
ENDBRANCH   6  18
BRANCH   8  20
HETATM   20  O   UNK     0     -50.961  -6.766  17.933  0.00  0.00    -0.360 OA
HETATM   21  H   UNK     0     -51.245  -5.874  18.180  0.00  0.00     0.217 HD
ENDBRANCH   8  20
BRANCH  10  22
HETATM   22  O   UNK     0     -52.010  -8.890  22.041  0.00  0.00    -0.358 OA
HETATM   23  H   UNK     0     -52.815  -8.362  21.899  0.00  0.00     0.217 HD
ENDBRANCH  10  22
TORSDOF 4
ENDMDL
MODEL 9
REMARK VINA RESULT:      -6.3      6.652      9.671
REMARK  4 active torsions:
REMARK  status: ('A' for Active; 'I' for Inactive)
REMARK    1  A    between atoms: O_2  and  C_9 
REMARK    2  A    between atoms: O_3  and  C_11 
REMARK    3  A    between atoms: O_4  and  C_14 
REMARK    4  A    between atoms: C_8  and  C_13 
ROOT
HETATM    1  O   UNK     0     -46.603 -10.197  19.286  0.00  0.00    -0.306 OA
HETATM    2  O   UNK     0     -47.287 -14.139  20.055  0.00  0.00    -0.287 OA
HETATM    3  C   UNK     0     -45.711 -12.430  19.633  0.00  0.00     0.084 A 
HETATM    4  C   UNK     0     -45.548 -11.070  19.373  0.00  0.00     0.129 A 
HETATM    5  C   UNK     0     -47.886 -10.694  19.455  0.00  0.00     0.090 A 
HETATM    6  C   UNK     0     -44.269 -10.543  19.193  0.00  0.00     0.136 A 
HETATM    7  C   UNK     0     -47.070 -12.958  19.822  0.00  0.00     0.190 A 
HETATM    8  C   UNK     0     -44.600 -13.272  19.712  0.00  0.00     0.085 A 
HETATM    9  C   UNK     0     -48.171 -11.979  19.715  0.00  0.00     0.094 A 
HETATM   10  C   UNK     0     -43.156 -11.381  19.271  0.00  0.00     0.104 A 
HETATM   11  C   UNK     0     -43.321 -12.743  19.531  0.00  0.00     0.077 A 
ENDROOT
BRANCH   5  12
HETATM   12  C   UNK     0     -48.945  -9.669  19.345  0.00  0.00    -0.002 A 
HETATM   13  C   UNK     0     -49.238  -9.092  18.108  0.00  0.00     0.014 A 
HETATM   14  C   UNK     0     -50.237  -8.125  18.004  0.00  0.00     0.001 A 
HETATM   15  C   UNK     0     -50.948  -7.733  19.138  0.00  0.00     0.000 A 
HETATM   16  C   UNK     0     -50.659  -8.306  20.376  0.00  0.00     0.001 A 
HETATM   17  C   UNK     0     -49.658  -9.273  20.480  0.00  0.00     0.014 A 
ENDBRANCH   5  12
BRANCH   6  18
HETATM   18  O   UNK     0     -44.100  -9.214  18.939  0.00  0.00    -0.351 OA
HETATM   19  C   UNK     0     -44.123  -8.809  17.572  0.00  0.00     0.210 C 
ENDBRANCH   6  18
BRANCH   8  20
HETATM   20  O   UNK     0     -44.707 -14.606  19.964  0.00  0.00    -0.360 OA
HETATM   21  H   UNK     0     -43.881 -14.950  20.336  0.00  0.00     0.217 HD
ENDBRANCH   8  20
BRANCH  10  22
HETATM   22  O   UNK     0     -41.901 -10.883  19.096  0.00  0.00    -0.358 OA
HETATM   23  H   UNK     0     -41.257 -11.608  19.179  0.00  0.00     0.217 HD
ENDBRANCH  10  22
TORSDOF 4
ENDMDL
MODEL 10
REMARK VINA RESULT:      -6.3      6.319      9.521
REMARK  4 active torsions:
REMARK  status: ('A' for Active; 'I' for Inactive)
REMARK    1  A    between atoms: O_2  and  C_9 
REMARK    2  A    between atoms: O_3  and  C_11 
REMARK    3  A    between atoms: O_4  and  C_14 
REMARK    4  A    between atoms: C_8  and  C_13 
ROOT
HETATM    1  O   UNK     0     -45.802 -10.368  20.464  0.00  0.00    -0.306 OA
HETATM    2  O   UNK     0     -47.100  -7.027  18.526  0.00  0.00    -0.287 OA
HETATM    3  C   UNK     0     -47.622  -8.846  19.941  0.00  0.00     0.084 A 
HETATM    4  C   UNK     0     -47.113  -9.977  20.577  0.00  0.00     0.129 A 
HETATM    5  C   UNK     0     -44.953  -9.608  19.675  0.00  0.00     0.090 A 
HETATM    6  C   UNK     0     -47.945 -10.764  21.373  0.00  0.00     0.136 A 
HETATM    7  C   UNK     0     -46.721  -8.033  19.111  0.00  0.00     0.190 A 
HETATM    8  C   UNK     0     -48.965  -8.495  20.093  0.00  0.00     0.085 A 
HETATM    9  C   UNK     0     -45.322  -8.497  19.019  0.00  0.00     0.094 A 
HETATM   10  C   UNK     0     -49.289 -10.417  21.527  0.00  0.00     0.104 A 
HETATM   11  C   UNK     0     -49.797  -9.285  20.888  0.00  0.00     0.077 A 
ENDROOT
BRANCH   5  12
HETATM   12  C   UNK     0     -43.566 -10.114  19.627  0.00  0.00    -0.002 A 
HETATM   13  C   UNK     0     -42.627  -9.681  20.566  0.00  0.00     0.014 A 
HETATM   14  C   UNK     0     -41.318 -10.159  20.522  0.00  0.00     0.001 A 
HETATM   15  C   UNK     0     -40.943 -11.073  19.537  0.00  0.00     0.000 A 
HETATM   16  C   UNK     0     -41.877 -11.509  18.597  0.00  0.00     0.001 A 
HETATM   17  C   UNK     0     -43.187 -11.030  18.641  0.00  0.00     0.014 A 
ENDBRANCH   5  12
BRANCH   6  18
HETATM   18  O   UNK     0     -47.455 -11.872  21.999  0.00  0.00    -0.351 OA
HETATM   19  C   UNK     0     -47.620 -13.120  21.330  0.00  0.00     0.210 C 
ENDBRANCH   6  18
BRANCH   8  20
HETATM   20  O   UNK     0     -49.510  -7.401  19.493  0.00  0.00    -0.360 OA
HETATM   21  H   UNK     0     -50.255  -7.064  20.012  0.00  0.00     0.217 HD
ENDBRANCH   8  20
BRANCH  10  22
HETATM   22  O   UNK     0     -50.115 -11.176  22.299  0.00  0.00    -0.358 OA
HETATM   23  H   UNK     0     -50.056 -10.871  23.222  0.00  0.00     0.217 HD
ENDBRANCH  10  22
TORSDOF 4
ENDMDL
