MODEL 1
REMARK VINA RESULT:      -8.3      0.000      0.000
REMARK  10 active torsions:
REMARK  status: ('A' for Active; 'I' for Inactive)
REMARK    1  A    between atoms: O_2  and  C_15 
REMARK    2  A    between atoms: O_2  and  C_18 
REMARK    3  A    between atoms: O_3  and  C_12 
REMARK    4  A    between atoms: O_4  and  C_13 
REMARK    5  A    between atoms: O_5  and  C_14 
REMARK    6  A    between atoms: O_6  and  C_17 
REMARK    7  A    between atoms: O_9  and  C_20 
REMARK    8  A    between atoms: O_10  and  C_23 
REMARK    9  A    between atoms: C_16  and  C_17 
REMARK   10  A    between atoms: C_25  and  C_27 
ROOT
HETATM    1  O   UNK     0     -48.464  -8.477  18.526  0.00  0.00    -0.340 OA
HETATM    2  C   UNK     0     -50.177  -8.567  20.831  0.00  0.00     0.183 C 
HETATM    3  C   UNK     0     -50.658  -8.057  19.472  0.00  0.00     0.205 C 
HETATM    4  C   UNK     0     -48.958  -9.478  20.686  0.00  0.00     0.189 C 
HETATM    5  C   UNK     0     -49.497  -7.503  18.647  0.00  0.00     0.299 C 
HETATM    6  C   UNK     0     -47.908  -8.836  19.787  0.00  0.00     0.253 C 
ENDROOT
BRANCH   5   7
HETATM    7  O   UNK     0     -49.998  -7.168  17.352  0.00  0.00    -0.315 OA
BRANCH   7   8
HETATM    8  C   UNK     0     -49.799  -5.886  16.933  0.00  0.00     0.110 A 
HETATM    9  C   UNK     0     -48.662  -5.196  17.357  0.00  0.00     0.078 A 
HETATM   10  C   UNK     0     -48.449  -3.884  16.933  0.00  0.00     0.096 A 
HETATM   11  O   UNK     0     -47.315  -3.257  17.384  0.00  0.00    -0.309 OA
HETATM   12  C   UNK     0     -49.370  -3.266  16.090  0.00  0.00     0.084 A 
HETATM   13  C   UNK     0     -47.073  -1.955  16.974  0.00  0.00     0.090 A 
HETATM   14  C   UNK     0     -47.886  -1.252  16.169  0.00  0.00     0.094 A 
HETATM   15  C   UNK     0     -49.121  -1.881  15.661  0.00  0.00     0.190 A 
HETATM   16  O   UNK     0     -49.889  -1.276  14.924  0.00  0.00    -0.287 OA
HETATM   17  C   UNK     0     -50.509  -3.953  15.663  0.00  0.00     0.118 A 
HETATM   18  C   UNK     0     -50.720  -5.265  16.088  0.00  0.00     0.134 A 
BRANCH  13  19
HETATM   19  C   UNK     0     -45.829  -1.375  17.520  0.00  0.00    -0.002 A 
HETATM   20  C   UNK     0     -44.731  -2.197  17.790  0.00  0.00     0.014 A 
HETATM   21  C   UNK     0     -43.556  -1.649  18.305  0.00  0.00     0.001 A 
HETATM   22  C   UNK     0     -43.474  -0.279  18.550  0.00  0.00     0.000 A 
HETATM   23  C   UNK     0     -44.567   0.544  18.281  0.00  0.00     0.001 A 
HETATM   24  C   UNK     0     -45.743  -0.003  17.767  0.00  0.00     0.014 A 
ENDBRANCH  13  19
BRANCH  17  25
HETATM   25  O   UNK     0     -51.431  -3.381  14.839  0.00  0.00    -0.357 OA
HETATM   26  H   UNK     0     -51.823  -2.596  15.251  0.00  0.00     0.217 HD
ENDBRANCH  17  25
BRANCH  18  27
HETATM   27  O   UNK     0     -51.829  -5.946  15.678  0.00  0.00    -0.356 OA
HETATM   28  H   UNK     0     -52.599  -5.357  15.757  0.00  0.00     0.218 HD
ENDBRANCH  18  27
ENDBRANCH   7   8
ENDBRANCH   5   7
BRANCH   6  29
HETATM   29  C   UNK     0     -46.841  -9.817  19.425  0.00  0.00     0.172 C 
HETATM   30  O   UNK     0     -46.783 -10.970  19.825  0.00  0.00    -0.648 OA
BRANCH  29  31
HETATM   31  O   UNK     0     -45.935  -9.252  18.590  0.00  0.00    -0.774 OA
HETATM   32  H   UNK     0     -45.798  -9.789  17.780  0.00  0.00     0.167 HD
ENDBRANCH  29  31
ENDBRANCH   6  29
BRANCH   3  33
HETATM   33  O   UNK     0     -51.609  -7.010  19.669  0.00  0.00    -0.388 OA
HETATM   34  H   UNK     0     -51.499  -6.373  18.943  0.00  0.00     0.210 HD
ENDBRANCH   3  33
BRANCH   4  35
HETATM   35  O   UNK     0     -48.385  -9.699  21.972  0.00  0.00    -0.390 OA
HETATM   36  H   UNK     0     -48.938 -10.348  22.441  0.00  0.00     0.210 HD
ENDBRANCH   4  35
BRANCH   2  37
HETATM   37  O   UNK     0     -51.220  -9.320  21.454  0.00  0.00    -0.390 OA
HETATM   38  H   UNK     0     -52.010  -9.250  20.893  0.00  0.00     0.210 HD
ENDBRANCH   2  37
TORSDOF 10
ENDMDL
MODEL 2
REMARK VINA RESULT:      -8.2      7.539     13.496
REMARK  10 active torsions:
REMARK  status: ('A' for Active; 'I' for Inactive)
REMARK    1  A    between atoms: O_2  and  C_15 
REMARK    2  A    between atoms: O_2  and  C_18 
REMARK    3  A    between atoms: O_3  and  C_12 
REMARK    4  A    between atoms: O_4  and  C_13 
REMARK    5  A    between atoms: O_5  and  C_14 
REMARK    6  A    between atoms: O_6  and  C_17 
REMARK    7  A    between atoms: O_9  and  C_20 
REMARK    8  A    between atoms: O_10  and  C_23 
REMARK    9  A    between atoms: C_16  and  C_17 
REMARK   10  A    between atoms: C_25  and  C_27 
ROOT
HETATM    1  O   UNK     0     -48.108 -12.974  21.250  0.00  0.00    -0.340 OA
HETATM    2  C   UNK     0     -45.817 -12.010  19.809  0.00  0.00     0.183 C 
HETATM    3  C   UNK     0     -46.234 -13.480  19.794  0.00  0.00     0.205 C 
HETATM    4  C   UNK     0     -46.988 -11.101  20.179  0.00  0.00     0.189 C 
HETATM    5  C   UNK     0     -47.000 -13.851  21.064  0.00  0.00     0.299 C 
HETATM    6  C   UNK     0     -47.704 -11.620  21.421  0.00  0.00     0.253 C 
ENDROOT
BRANCH   5   7
HETATM    7  O   UNK     0     -47.466 -15.193  20.922  0.00  0.00    -0.315 OA
BRANCH   7   8
HETATM    8  C   UNK     0     -47.534 -15.941  22.061  0.00  0.00     0.110 A 
HETATM    9  C   UNK     0     -47.574 -15.298  23.298  0.00  0.00     0.078 A 
HETATM   10  C   UNK     0     -47.644 -16.054  24.470  0.00  0.00     0.096 A 
HETATM   11  O   UNK     0     -47.681 -15.367  25.656  0.00  0.00    -0.309 OA
HETATM   12  C   UNK     0     -47.672 -17.445  24.400  0.00  0.00     0.084 A 
HETATM   13  C   UNK     0     -47.757 -16.091  26.837  0.00  0.00     0.090 A 
HETATM   14  C   UNK     0     -47.785 -17.431  26.901  0.00  0.00     0.094 A 
HETATM   15  C   UNK     0     -47.744 -18.217  25.651  0.00  0.00     0.190 A 
HETATM   16  O   UNK     0     -47.769 -19.440  25.665  0.00  0.00    -0.287 OA
HETATM   17  C   UNK     0     -47.632 -18.092  23.163  0.00  0.00     0.118 A 
HETATM   18  C   UNK     0     -47.562 -17.334  21.993  0.00  0.00     0.134 A 
BRANCH  13  19
HETATM   19  C   UNK     0     -47.787 -15.254  28.053  0.00  0.00    -0.002 A 
HETATM   20  C   UNK     0     -46.903 -15.513  29.105  0.00  0.00     0.014 A 
HETATM   21  C   UNK     0     -46.931 -14.722  30.253  0.00  0.00     0.001 A 
HETATM   22  C   UNK     0     -47.840 -13.669  30.354  0.00  0.00     0.000 A 
HETATM   23  C   UNK     0     -48.723 -13.407  29.306  0.00  0.00     0.001 A 
HETATM   24  C   UNK     0     -48.695 -14.199  28.158  0.00  0.00     0.014 A 
ENDBRANCH  13  19
BRANCH  17  25
HETATM   25  O   UNK     0     -47.658 -19.451  23.056  0.00  0.00    -0.357 OA
HETATM   26  H   UNK     0     -46.973 -19.853  23.612  0.00  0.00     0.217 HD
ENDBRANCH  17  25
BRANCH  18  27
HETATM   27  O   UNK     0     -47.522 -17.955  20.778  0.00  0.00    -0.356 OA
HETATM   28  H   UNK     0     -46.977 -18.757  20.860  0.00  0.00     0.218 HD
ENDBRANCH  18  27
ENDBRANCH   7   8
ENDBRANCH   5   7
BRANCH   6  29
HETATM   29  C   UNK     0     -48.996 -10.900  21.634  0.00  0.00     0.172 C 
HETATM   30  O   UNK     0     -49.667 -10.949  22.654  0.00  0.00    -0.648 OA
BRANCH  29  31
HETATM   31  O   UNK     0     -49.331 -10.182  20.534  0.00  0.00    -0.774 OA
HETATM   32  H   UNK     0     -49.037 -10.620  19.707  0.00  0.00     0.167 HD
ENDBRANCH  29  31
ENDBRANCH   6  29
BRANCH   3  33
HETATM   33  O   UNK     0     -45.069 -14.303  19.718  0.00  0.00    -0.388 OA
HETATM   34  H   UNK     0     -44.875 -14.453  18.778  0.00  0.00     0.210 HD
ENDBRANCH   3  33
BRANCH   4  35
HETATM   35  O   UNK     0     -46.495  -9.790  20.450  0.00  0.00    -0.390 OA
HETATM   36  H   UNK     0     -45.751  -9.870  21.071  0.00  0.00     0.210 HD
ENDBRANCH   4  35
BRANCH   2  37
HETATM   37  O   UNK     0     -45.356 -11.632  18.511  0.00  0.00    -0.390 OA
HETATM   38  H   UNK     0     -46.032 -11.903  17.868  0.00  0.00     0.210 HD
ENDBRANCH   2  37
TORSDOF 10
ENDMDL
MODEL 3
REMARK VINA RESULT:      -8.1      2.423      7.960
REMARK  10 active torsions:
REMARK  status: ('A' for Active; 'I' for Inactive)
REMARK    1  A    between atoms: O_2  and  C_15 
REMARK    2  A    between atoms: O_2  and  C_18 
REMARK    3  A    between atoms: O_3  and  C_12 
REMARK    4  A    between atoms: O_4  and  C_13 
REMARK    5  A    between atoms: O_5  and  C_14 
REMARK    6  A    between atoms: O_6  and  C_17 
REMARK    7  A    between atoms: O_9  and  C_20 
REMARK    8  A    between atoms: O_10  and  C_23 
REMARK    9  A    between atoms: C_16  and  C_17 
REMARK   10  A    between atoms: C_25  and  C_27 
ROOT
HETATM    1  O   UNK     0     -47.967  -1.100  16.772  0.00  0.00    -0.340 OA
HETATM    2  C   UNK     0     -45.228  -1.429  15.968  0.00  0.00     0.183 C 
HETATM    3  C   UNK     0     -46.398  -1.889  15.098  0.00  0.00     0.205 C 
HETATM    4  C   UNK     0     -45.662  -0.352  16.962  0.00  0.00     0.189 C 
HETATM    5  C   UNK     0     -47.626  -2.212  15.948  0.00  0.00     0.299 C 
HETATM    6  C   UNK     0     -46.933  -0.771  17.692  0.00  0.00     0.253 C 
ENDROOT
BRANCH   5   7
HETATM    7  O   UNK     0     -48.709  -2.507  15.065  0.00  0.00    -0.315 OA
BRANCH   7   8
HETATM    8  C   UNK     0     -49.628  -3.413  15.506  0.00  0.00     0.110 A 
HETATM    9  C   UNK     0     -49.234  -4.407  16.401  0.00  0.00     0.078 A 
HETATM   10  C   UNK     0     -50.167  -5.339  16.859  0.00  0.00     0.096 A 
HETATM   11  O   UNK     0     -49.720  -6.293  17.736  0.00  0.00    -0.309 OA
HETATM   12  C   UNK     0     -51.489  -5.272  16.422  0.00  0.00     0.084 A 
HETATM   13  C   UNK     0     -50.627  -7.227  18.214  0.00  0.00     0.090 A 
HETATM   14  C   UNK     0     -51.922  -7.271  17.865  0.00  0.00     0.094 A 
HETATM   15  C   UNK     0     -52.451  -6.267  16.920  0.00  0.00     0.190 A 
HETATM   16  O   UNK     0     -53.626  -6.270  16.577  0.00  0.00    -0.287 OA
HETATM   17  C   UNK     0     -51.888  -4.277  15.526  0.00  0.00     0.118 A 
HETATM   18  C   UNK     0     -50.953  -3.348  15.070  0.00  0.00     0.134 A 
BRANCH  13  19
HETATM   19  C   UNK     0     -50.040  -8.210  19.148  0.00  0.00    -0.002 A 
HETATM   20  C   UNK     0     -50.427  -8.221  20.490  0.00  0.00     0.014 A 
HETATM   21  C   UNK     0     -49.873  -9.150  21.371  0.00  0.00     0.001 A 
HETATM   22  C   UNK     0     -48.932 -10.072  20.913  0.00  0.00     0.000 A 
HETATM   23  C   UNK     0     -48.543 -10.064  19.574  0.00  0.00     0.001 A 
HETATM   24  C   UNK     0     -49.097  -9.135  18.693  0.00  0.00     0.014 A 
ENDBRANCH  13  19
BRANCH  17  25
HETATM   25  O   UNK     0     -53.171  -4.182  15.078  0.00  0.00    -0.357 OA
HETATM   26  H   UNK     0     -53.220  -3.621  14.289  0.00  0.00     0.217 HD
ENDBRANCH  17  25
BRANCH  18  27
HETATM   27  O   UNK     0     -51.331  -2.371  14.195  0.00  0.00    -0.356 OA
HETATM   28  H   UNK     0     -50.535  -2.031  13.751  0.00  0.00     0.218 HD
ENDBRANCH  18  27
ENDBRANCH   7   8
ENDBRANCH   5   7
BRANCH   6  29
HETATM   29  C   UNK     0     -47.509   0.372  18.462  0.00  0.00     0.172 C 
HETATM   30  O   UNK     0     -48.498   0.309  19.178  0.00  0.00    -0.648 OA
BRANCH  29  31
HETATM   31  O   UNK     0     -46.785   1.500  18.258  0.00  0.00    -0.774 OA
HETATM   32  H   UNK     0     -46.135   1.654  18.976  0.00  0.00     0.167 HD
ENDBRANCH  29  31
ENDBRANCH   6  29
BRANCH   3  33
HETATM   33  O   UNK     0     -46.023  -3.069  14.386  0.00  0.00    -0.388 OA
HETATM   34  H   UNK     0     -46.449  -3.035  13.514  0.00  0.00     0.210 HD
ENDBRANCH   3  33
BRANCH   4  35
HETATM   35  O   UNK     0     -44.625  -0.158  17.922  0.00  0.00    -0.390 OA
HETATM   36  H   UNK     0     -44.494   0.799  18.035  0.00  0.00     0.210 HD
ENDBRANCH   4  35
BRANCH   2  37
HETATM   37  O   UNK     0     -44.204  -0.878  15.138  0.00  0.00    -0.390 OA
HETATM   38  H   UNK     0     -43.842  -1.600  14.598  0.00  0.00     0.210 HD
ENDBRANCH   2  37
TORSDOF 10
ENDMDL
MODEL 4
REMARK VINA RESULT:      -8.0      3.243      7.972
REMARK  10 active torsions:
REMARK  status: ('A' for Active; 'I' for Inactive)
REMARK    1  A    between atoms: O_2  and  C_15 
REMARK    2  A    between atoms: O_2  and  C_18 
REMARK    3  A    between atoms: O_3  and  C_12 
REMARK    4  A    between atoms: O_4  and  C_13 
REMARK    5  A    between atoms: O_5  and  C_14 
REMARK    6  A    between atoms: O_6  and  C_17 
REMARK    7  A    between atoms: O_9  and  C_20 
REMARK    8  A    between atoms: O_10  and  C_23 
REMARK    9  A    between atoms: C_16  and  C_17 
REMARK   10  A    between atoms: C_25  and  C_27 
ROOT
HETATM    1  O   UNK     0     -46.784  -0.307  17.254  0.00  0.00    -0.340 OA
HETATM    2  C   UNK     0     -45.042  -1.959  15.675  0.00  0.00     0.183 C 
HETATM    3  C   UNK     0     -46.461  -1.605  15.229  0.00  0.00     0.205 C 
HETATM    4  C   UNK     0     -44.508  -0.951  16.692  0.00  0.00     0.189 C 
HETATM    5  C   UNK     0     -47.362  -1.316  16.430  0.00  0.00     0.299 C 
HETATM    6  C   UNK     0     -45.529  -0.704  17.796  0.00  0.00     0.253 C 
ENDROOT
BRANCH   5   7
HETATM    7  O   UNK     0     -48.626  -0.870  15.936  0.00  0.00    -0.315 OA
BRANCH   7   8
HETATM    8  C   UNK     0     -49.643  -1.777  15.952  0.00  0.00     0.110 A 
HETATM    9  C   UNK     0     -49.759  -2.655  17.030  0.00  0.00     0.078 A 
HETATM   10  C   UNK     0     -50.798  -3.588  17.057  0.00  0.00     0.096 A 
HETATM   11  O   UNK     0     -50.860  -4.424  18.142  0.00  0.00    -0.309 OA
HETATM   12  C   UNK     0     -51.714  -3.639  16.008  0.00  0.00     0.084 A 
HETATM   13  C   UNK     0     -51.885  -5.356  18.199  0.00  0.00     0.090 A 
HETATM   14  C   UNK     0     -52.823  -5.507  17.251  0.00  0.00     0.094 A 
HETATM   15  C   UNK     0     -52.797  -4.633  16.061  0.00  0.00     0.190 A 
HETATM   16  O   UNK     0     -53.635  -4.737  15.175  0.00  0.00    -0.287 OA
HETATM   17  C   UNK     0     -51.601  -2.762  14.927  0.00  0.00     0.118 A 
HETATM   18  C   UNK     0     -50.563  -1.831  14.903  0.00  0.00     0.134 A 
BRANCH  13  19
HETATM   19  C   UNK     0     -51.855  -6.208  19.406  0.00  0.00    -0.002 A 
HETATM   20  C   UNK     0     -51.297  -7.487  19.348  0.00  0.00     0.014 A 
HETATM   21  C   UNK     0     -51.268  -8.291  20.488  0.00  0.00     0.001 A 
HETATM   22  C   UNK     0     -51.796  -7.818  21.689  0.00  0.00     0.000 A 
HETATM   23  C   UNK     0     -52.354  -6.541  21.751  0.00  0.00     0.001 A 
HETATM   24  C   UNK     0     -52.383  -5.737  20.611  0.00  0.00     0.014 A 
ENDBRANCH  13  19
BRANCH  17  25
HETATM   25  O   UNK     0     -52.479  -2.784  13.885  0.00  0.00    -0.357 OA
HETATM   26  H   UNK     0     -52.778  -3.688  13.705  0.00  0.00     0.217 HD
ENDBRANCH  17  25
BRANCH  18  27
HETATM   27  O   UNK     0     -50.442  -0.968  13.852  0.00  0.00    -0.356 OA
HETATM   28  H   UNK     0     -49.995  -1.433  13.123  0.00  0.00     0.218 HD
ENDBRANCH  18  27
ENDBRANCH   7   8
ENDBRANCH   5   7
BRANCH   6  29
HETATM   29  C   UNK     0     -45.134   0.464  18.639  0.00  0.00     0.172 C 
HETATM   30  O   UNK     0     -44.161   0.500  19.378  0.00  0.00    -0.648 OA
BRANCH  29  31
HETATM   31  O   UNK     0     -46.007   1.488  18.478  0.00  0.00    -0.774 OA
HETATM   32  H   UNK     0     -46.247   1.904  19.333  0.00  0.00     0.167 HD
ENDBRANCH  29  31
ENDBRANCH   6  29
BRANCH   3  33
HETATM   33  O   UNK     0     -47.018  -2.702  14.505  0.00  0.00    -0.388 OA
HETATM   34  H   UNK     0     -47.986  -2.627  14.555  0.00  0.00     0.210 HD
ENDBRANCH   3  33
BRANCH   4  35
HETATM   35  O   UNK     0     -43.315  -1.466  17.278  0.00  0.00    -0.390 OA
HETATM   36  H   UNK     0     -43.261  -1.136  18.191  0.00  0.00     0.210 HD
ENDBRANCH   4  35
BRANCH   2  37
HETATM   37  O   UNK     0     -44.171  -1.950  14.543  0.00  0.00    -0.390 OA
HETATM   38  H   UNK     0     -44.272  -2.801  14.086  0.00  0.00     0.210 HD
ENDBRANCH   2  37
TORSDOF 10
ENDMDL
MODEL 5
REMARK VINA RESULT:      -8.0      2.262      8.056
REMARK  10 active torsions:
REMARK  status: ('A' for Active; 'I' for Inactive)
REMARK    1  A    between atoms: O_2  and  C_15 
REMARK    2  A    between atoms: O_2  and  C_18 
REMARK    3  A    between atoms: O_3  and  C_12 
REMARK    4  A    between atoms: O_4  and  C_13 
REMARK    5  A    between atoms: O_5  and  C_14 
REMARK    6  A    between atoms: O_6  and  C_17 
REMARK    7  A    between atoms: O_9  and  C_20 
REMARK    8  A    between atoms: O_10  and  C_23 
REMARK    9  A    between atoms: C_16  and  C_17 
REMARK   10  A    between atoms: C_25  and  C_27 
ROOT
HETATM    1  O   UNK     0     -48.790  -4.786  18.024  0.00  0.00    -0.340 OA
HETATM    2  C   UNK     0     -50.677  -5.304  15.920  0.00  0.00     0.183 C 
HETATM    3  C   UNK     0     -50.911  -5.761  17.360  0.00  0.00     0.205 C 
HETATM    4  C   UNK     0     -49.684  -4.144  15.857  0.00  0.00     0.189 C 
HETATM    5  C   UNK     0     -49.587  -5.966  18.097  0.00  0.00     0.299 C 
HETATM    6  C   UNK     0     -48.442  -4.450  16.685  0.00  0.00     0.253 C 
ENDROOT
BRANCH   5   7
HETATM    7  O   UNK     0     -49.883  -6.264  19.462  0.00  0.00    -0.315 OA
BRANCH   7   8
HETATM    8  C   UNK     0     -49.431  -7.459  19.938  0.00  0.00     0.110 A 
HETATM    9  C   UNK     0     -48.168  -7.912  19.559  0.00  0.00     0.078 A 
HETATM   10  C   UNK     0     -47.695  -9.134  20.042  0.00  0.00     0.096 A 
HETATM   11  O   UNK     0     -46.447  -9.528  19.633  0.00  0.00    -0.309 OA
HETATM   12  C   UNK     0     -48.486  -9.896  20.899  0.00  0.00     0.084 A 
HETATM   13  C   UNK     0     -45.948 -10.733  20.103  0.00  0.00     0.090 A 
HETATM   14  C   UNK     0     -46.614 -11.557  20.926  0.00  0.00     0.094 A 
HETATM   15  C   UNK     0     -47.964 -11.180  21.391  0.00  0.00     0.190 A 
HETATM   16  O   UNK     0     -48.605 -11.902  22.144  0.00  0.00    -0.287 OA
HETATM   17  C   UNK     0     -49.752  -9.445  21.282  0.00  0.00     0.118 A 
HETATM   18  C   UNK     0     -50.221  -8.224  20.798  0.00  0.00     0.134 A 
BRANCH  13  19
HETATM   19  C   UNK     0     -44.599 -11.062  19.598  0.00  0.00    -0.002 A 
HETATM   20  C   UNK     0     -43.893 -12.141  20.136  0.00  0.00     0.014 A 
HETATM   21  C   UNK     0     -42.620 -12.452  19.658  0.00  0.00     0.001 A 
HETATM   22  C   UNK     0     -42.049 -11.687  18.642  0.00  0.00     0.000 A 
HETATM   23  C   UNK     0     -42.751 -10.609  18.102  0.00  0.00     0.001 A 
HETATM   24  C   UNK     0     -44.025 -10.298  18.580  0.00  0.00     0.014 A 
ENDBRANCH  13  19
BRANCH  17  25
HETATM   25  O   UNK     0     -50.553 -10.164  22.118  0.00  0.00    -0.357 OA
HETATM   26  H   UNK     0     -50.506 -11.110  21.912  0.00  0.00     0.217 HD
ENDBRANCH  17  25
BRANCH  18  27
HETATM   27  O   UNK     0     -51.456  -7.773  21.164  0.00  0.00    -0.356 OA
HETATM   28  H   UNK     0     -51.801  -8.354  21.864  0.00  0.00     0.218 HD
ENDBRANCH  18  27
ENDBRANCH   7   8
ENDBRANCH   5   7
BRANCH   6  29
HETATM   29  C   UNK     0     -47.592  -3.232  16.847  0.00  0.00     0.172 C 
HETATM   30  O   UNK     0     -47.545  -2.537  17.851  0.00  0.00    -0.648 OA
BRANCH  29  31
HETATM   31  O   UNK     0     -46.876  -2.995  15.721  0.00  0.00    -0.774 OA
HETATM   32  H   UNK     0     -46.642  -3.825  15.254  0.00  0.00     0.167 HD
ENDBRANCH  29  31
ENDBRANCH   6  29
BRANCH   3  33
HETATM   33  O   UNK     0     -51.617  -7.002  17.355  0.00  0.00    -0.388 OA
HETATM   34  H   UNK     0     -51.892  -7.181  16.441  0.00  0.00     0.210 HD
ENDBRANCH   3  33
BRANCH   4  35
HETATM   35  O   UNK     0     -49.291  -3.940  14.501  0.00  0.00    -0.390 OA
HETATM   36  H   UNK     0     -50.059  -4.121  13.934  0.00  0.00     0.210 HD
ENDBRANCH   4  35
BRANCH   2  37
HETATM   37  O   UNK     0     -51.912  -4.860  15.355  0.00  0.00    -0.390 OA
HETATM   38  H   UNK     0     -52.620  -5.079  15.984  0.00  0.00     0.210 HD
ENDBRANCH   2  37
TORSDOF 10
ENDMDL
MODEL 6
REMARK VINA RESULT:      -8.0      1.545      2.512
REMARK  10 active torsions:
REMARK  status: ('A' for Active; 'I' for Inactive)
REMARK    1  A    between atoms: O_2  and  C_15 
REMARK    2  A    between atoms: O_2  and  C_18 
REMARK    3  A    between atoms: O_3  and  C_12 
REMARK    4  A    between atoms: O_4  and  C_13 
REMARK    5  A    between atoms: O_5  and  C_14 
REMARK    6  A    between atoms: O_6  and  C_17 
REMARK    7  A    between atoms: O_9  and  C_20 
REMARK    8  A    between atoms: O_10  and  C_23 
REMARK    9  A    between atoms: C_16  and  C_17 
REMARK   10  A    between atoms: C_25  and  C_27 
ROOT
HETATM    1  O   UNK     0     -46.902  -9.375  19.054  0.00  0.00    -0.340 OA
HETATM    2  C   UNK     0     -47.865 -10.479  21.526  0.00  0.00     0.183 C 
HETATM    3  C   UNK     0     -48.791 -10.178  20.348  0.00  0.00     0.205 C 
HETATM    4  C   UNK     0     -46.416 -10.646  21.069  0.00  0.00     0.189 C 
HETATM    5  C   UNK     0     -48.227  -9.058  19.473  0.00  0.00     0.299 C 
HETATM    6  C   UNK     0     -46.004  -9.501  20.151  0.00  0.00     0.253 C 
ENDROOT
BRANCH   5   7
HETATM    7  O   UNK     0     -49.074  -8.922  18.331  0.00  0.00    -0.315 OA
BRANCH   7   8
HETATM    8  C   UNK     0     -49.400  -7.651  17.960  0.00  0.00     0.110 A 
HETATM    9  C   UNK     0     -48.384  -6.720  17.742  0.00  0.00     0.078 A 
HETATM   10  C   UNK     0     -48.707  -5.417  17.361  0.00  0.00     0.096 A 
HETATM   11  O   UNK     0     -47.666  -4.547  17.162  0.00  0.00    -0.309 OA
HETATM   12  C   UNK     0     -50.042  -5.049  17.202  0.00  0.00     0.084 A 
HETATM   13  C   UNK     0     -47.956  -3.247  16.777  0.00  0.00     0.090 A 
HETATM   14  C   UNK     0     -49.199  -2.772  16.596  0.00  0.00     0.094 A 
HETATM   15  C   UNK     0     -50.354  -3.668  16.803  0.00  0.00     0.190 A 
HETATM   16  O   UNK     0     -51.502  -3.275  16.647  0.00  0.00    -0.287 OA
HETATM   17  C   UNK     0     -51.062  -5.978  17.419  0.00  0.00     0.118 A 
HETATM   18  C   UNK     0     -50.736  -7.280  17.799  0.00  0.00     0.134 A 
BRANCH  13  19
HETATM   19  C   UNK     0     -46.764  -2.394  16.594  0.00  0.00    -0.002 A 
HETATM   20  C   UNK     0     -45.647  -2.565  17.417  0.00  0.00     0.014 A 
HETATM   21  C   UNK     0     -44.521  -1.760  17.244  0.00  0.00     0.001 A 
HETATM   22  C   UNK     0     -44.506  -0.784  16.248  0.00  0.00     0.000 A 
HETATM   23  C   UNK     0     -45.620  -0.611  15.425  0.00  0.00     0.001 A 
HETATM   24  C   UNK     0     -46.746  -1.415  15.598  0.00  0.00     0.014 A 
ENDBRANCH  13  19
BRANCH  17  25
HETATM   25  O   UNK     0     -52.378  -5.654  17.272  0.00  0.00    -0.357 OA
HETATM   26  H   UNK     0     -52.923  -6.125  17.921  0.00  0.00     0.217 HD
ENDBRANCH  17  25
BRANCH  18  27
HETATM   27  O   UNK     0     -51.724  -8.197  18.015  0.00  0.00    -0.356 OA
HETATM   28  H   UNK     0     -51.326  -8.989  18.417  0.00  0.00     0.218 HD
ENDBRANCH  18  27
ENDBRANCH   7   8
ENDBRANCH   5   7
BRANCH   6  29
HETATM   29  C   UNK     0     -44.694  -9.789  19.492  0.00  0.00     0.172 C 
HETATM   30  O   UNK     0     -43.654 -10.046  20.079  0.00  0.00    -0.648 OA
BRANCH  29  31
HETATM   31  O   UNK     0     -44.813  -9.724  18.143  0.00  0.00    -0.774 OA
HETATM   32  H   UNK     0     -45.638  -9.269  17.869  0.00  0.00     0.167 HD
ENDBRANCH  29  31
ENDBRANCH   6  29
BRANCH   3  33
HETATM   33  O   UNK     0     -50.065  -9.761  20.841  0.00  0.00    -0.388 OA
HETATM   34  H   UNK     0     -50.720  -9.926  20.142  0.00  0.00     0.210 HD
ENDBRANCH   3  33
BRANCH   4  35
HETATM   35  O   UNK     0     -45.563 -10.647  22.211  0.00  0.00    -0.390 OA
HETATM   36  H   UNK     0     -46.064 -11.009  22.962  0.00  0.00     0.210 HD
ENDBRANCH   4  35
BRANCH   2  37
HETATM   37  O   UNK     0     -48.274 -11.695  22.155  0.00  0.00    -0.390 OA
HETATM   38  H   UNK     0     -47.474 -12.147  22.469  0.00  0.00     0.210 HD
ENDBRANCH   2  37
TORSDOF 10
ENDMDL
MODEL 7
REMARK VINA RESULT:      -8.0      5.672     12.268
REMARK  10 active torsions:
REMARK  status: ('A' for Active; 'I' for Inactive)
REMARK    1  A    between atoms: O_2  and  C_15 
REMARK    2  A    between atoms: O_2  and  C_18 
REMARK    3  A    between atoms: O_3  and  C_12 
REMARK    4  A    between atoms: O_4  and  C_13 
REMARK    5  A    between atoms: O_5  and  C_14 
REMARK    6  A    between atoms: O_6  and  C_17 
REMARK    7  A    between atoms: O_9  and  C_20 
REMARK    8  A    between atoms: O_10  and  C_23 
REMARK    9  A    between atoms: C_16  and  C_17 
REMARK   10  A    between atoms: C_25  and  C_27 
ROOT
HETATM    1  O   UNK     0     -48.527 -10.709  20.085  0.00  0.00    -0.340 OA
HETATM    2  C   UNK     0     -46.137  -9.149  19.756  0.00  0.00     0.183 C 
HETATM    3  C   UNK     0     -46.258 -10.580  19.233  0.00  0.00     0.205 C 
HETATM    4  C   UNK     0     -47.510  -8.506  19.947  0.00  0.00     0.189 C 
HETATM    5  C   UNK     0     -47.271 -11.383  20.050  0.00  0.00     0.299 C 
HETATM    6  C   UNK     0     -48.441  -9.436  20.715  0.00  0.00     0.253 C 
ENDROOT
BRANCH   5   7
HETATM    7  O   UNK     0     -47.426 -12.659  19.428  0.00  0.00    -0.315 OA
BRANCH   7   8
HETATM    8  C   UNK     0     -47.210 -13.752  20.215  0.00  0.00     0.110 A 
HETATM    9  C   UNK     0     -47.707 -13.766  21.518  0.00  0.00     0.078 A 
HETATM   10  C   UNK     0     -47.491 -14.880  22.331  0.00  0.00     0.096 A 
HETATM   11  O   UNK     0     -48.003 -14.836  23.602  0.00  0.00    -0.309 OA
HETATM   12  C   UNK     0     -46.780 -15.973  21.839  0.00  0.00     0.084 A 
HETATM   13  C   UNK     0     -47.810 -15.931  24.430  0.00  0.00     0.090 A 
HETATM   14  C   UNK     0     -47.140 -17.038  24.076  0.00  0.00     0.094 A 
HETATM   15  C   UNK     0     -46.566 -17.133  22.718  0.00  0.00     0.190 A 
HETATM   16  O   UNK     0     -45.949 -18.126  22.354  0.00  0.00    -0.287 OA
HETATM   17  C   UNK     0     -46.281 -15.963  20.535  0.00  0.00     0.118 A 
HETATM   18  C   UNK     0     -46.498 -14.849  19.724  0.00  0.00     0.134 A 
BRANCH  13  19
HETATM   19  C   UNK     0     -48.398 -15.776  25.777  0.00  0.00    -0.002 A 
HETATM   20  C   UNK     0     -48.003 -14.715  26.597  0.00  0.00     0.014 A 
HETATM   21  C   UNK     0     -48.559 -14.568  27.868  0.00  0.00     0.001 A 
HETATM   22  C   UNK     0     -49.511 -15.480  28.323  0.00  0.00     0.000 A 
HETATM   23  C   UNK     0     -49.907 -16.541  27.508  0.00  0.00     0.001 A 
HETATM   24  C   UNK     0     -49.351 -16.687  26.236  0.00  0.00     0.014 A 
ENDBRANCH  13  19
BRANCH  17  25
HETATM   25  O   UNK     0     -45.582 -17.014  20.020  0.00  0.00    -0.357 OA
HETATM   26  H   UNK     0     -46.114 -17.824  20.038  0.00  0.00     0.217 HD
ENDBRANCH  17  25
BRANCH  18  27
HETATM   27  O   UNK     0     -46.015 -14.827  18.448  0.00  0.00    -0.356 OA
HETATM   28  H   UNK     0     -45.941 -15.744  18.131  0.00  0.00     0.218 HD
ENDBRANCH  18  27
ENDBRANCH   7   8
ENDBRANCH   5   7
BRANCH   6  29
HETATM   29  C   UNK     0     -49.848  -8.938  20.676  0.00  0.00     0.172 C 
HETATM   30  O   UNK     0     -50.259  -8.052  19.941  0.00  0.00    -0.648 OA
BRANCH  29  31
HETATM   31  O   UNK     0     -50.616  -9.601  21.575  0.00  0.00    -0.774 OA
HETATM   32  H   UNK     0     -51.345 -10.095  21.141  0.00  0.00     0.167 HD
ENDBRANCH  29  31
ENDBRANCH   6  29
BRANCH   3  33
HETATM   33  O   UNK     0     -44.990 -11.230  19.330  0.00  0.00    -0.388 OA
HETATM   34  H   UNK     0     -44.447 -10.723  19.956  0.00  0.00     0.210 HD
ENDBRANCH   3  33
BRANCH   4  35
HETATM   35  O   UNK     0     -47.360  -7.295  20.686  0.00  0.00    -0.390 OA
HETATM   36  H   UNK     0     -48.131  -7.203  21.272  0.00  0.00     0.210 HD
ENDBRANCH   4  35
BRANCH   2  37
HETATM   37  O   UNK     0     -45.405  -8.359  18.817  0.00  0.00    -0.390 OA
HETATM   38  H   UNK     0     -46.008  -7.683  18.467  0.00  0.00     0.210 HD
ENDBRANCH   2  37
TORSDOF 10
ENDMDL
MODEL 8
REMARK VINA RESULT:      -8.0      3.214      8.685
REMARK  10 active torsions:
REMARK  status: ('A' for Active; 'I' for Inactive)
REMARK    1  A    between atoms: O_2  and  C_15 
REMARK    2  A    between atoms: O_2  and  C_18 
REMARK    3  A    between atoms: O_3  and  C_12 
REMARK    4  A    between atoms: O_4  and  C_13 
REMARK    5  A    between atoms: O_5  and  C_14 
REMARK    6  A    between atoms: O_6  and  C_17 
REMARK    7  A    between atoms: O_9  and  C_20 
REMARK    8  A    between atoms: O_10  and  C_23 
REMARK    9  A    between atoms: C_16  and  C_17 
REMARK   10  A    between atoms: C_25  and  C_27 
ROOT
HETATM    1  O   UNK     0     -50.612  -4.102  15.684  0.00  0.00    -0.340 OA
HETATM    2  C   UNK     0     -48.088  -3.069  16.590  0.00  0.00     0.183 C 
HETATM    3  C   UNK     0     -48.463  -4.545  16.721  0.00  0.00     0.205 C 
HETATM    4  C   UNK     0     -48.906  -2.380  15.498  0.00  0.00     0.189 C 
HETATM    5  C   UNK     0     -49.979  -4.726  16.799  0.00  0.00     0.299 C 
HETATM    6  C   UNK     0     -50.389  -2.697  15.653  0.00  0.00     0.253 C 
ENDROOT
BRANCH   5   7
HETATM    7  O   UNK     0     -50.257  -6.127  16.789  0.00  0.00    -0.315 OA
BRANCH   7   8
HETATM    8  C   UNK     0     -50.528  -6.705  17.994  0.00  0.00     0.110 A 
HETATM    9  C   UNK     0     -51.405  -6.072  18.874  0.00  0.00     0.078 A 
HETATM   10  C   UNK     0     -51.689  -6.655  20.110  0.00  0.00     0.096 A 
HETATM   11  O   UNK     0     -52.558  -5.986  20.933  0.00  0.00    -0.309 OA
HETATM   12  C   UNK     0     -51.095  -7.866  20.461  0.00  0.00     0.084 A 
HETATM   13  C   UNK     0     -52.865  -6.545  22.165  0.00  0.00     0.090 A 
HETATM   14  C   UNK     0     -52.354  -7.701  22.618  0.00  0.00     0.094 A 
HETATM   15  C   UNK     0     -51.410  -8.457  21.771  0.00  0.00     0.190 A 
HETATM   16  O   UNK     0     -50.924  -9.516  22.145  0.00  0.00    -0.287 OA
HETATM   17  C   UNK     0     -50.216  -8.503  19.582  0.00  0.00     0.118 A 
HETATM   18  C   UNK     0     -49.934  -7.918  18.348  0.00  0.00     0.134 A 
BRANCH  13  19
HETATM   19  C   UNK     0     -53.806  -5.741  22.971  0.00  0.00    -0.002 A 
HETATM   20  C   UNK     0     -53.545  -5.505  24.324  0.00  0.00     0.014 A 
HETATM   21  C   UNK     0     -54.433  -4.745  25.085  0.00  0.00     0.001 A 
HETATM   22  C   UNK     0     -55.584  -4.219  24.498  0.00  0.00     0.000 A 
HETATM   23  C   UNK     0     -55.847  -4.453  23.148  0.00  0.00     0.001 A 
HETATM   24  C   UNK     0     -54.958  -5.213  22.386  0.00  0.00     0.014 A 
ENDBRANCH  13  19
BRANCH  17  25
HETATM   25  O   UNK     0     -49.617  -9.687  19.892  0.00  0.00    -0.357 OA
HETATM   26  H   UNK     0     -50.008 -10.414  19.384  0.00  0.00     0.217 HD
ENDBRANCH  17  25
BRANCH  18  27
HETATM   27  O   UNK     0     -49.076  -8.530  17.481  0.00  0.00    -0.356 OA
HETATM   28  H   UNK     0     -48.652  -7.847  16.933  0.00  0.00     0.218 HD
ENDBRANCH  18  27
ENDBRANCH   7   8
ENDBRANCH   5   7
BRANCH   6  29
HETATM   29  C   UNK     0     -51.159  -2.254  14.451  0.00  0.00     0.172 C 
HETATM   30  O   UNK     0     -50.784  -1.412  13.648  0.00  0.00    -0.648 OA
BRANCH  29  31
HETATM   31  O   UNK     0     -52.340  -2.913  14.370  0.00  0.00    -0.774 OA
HETATM   32  H   UNK     0     -53.090  -2.303  14.203  0.00  0.00     0.167 HD
ENDBRANCH  29  31
ENDBRANCH   6  29
BRANCH   3  33
HETATM   33  O   UNK     0     -47.887  -5.077  17.915  0.00  0.00    -0.388 OA
HETATM   34  H   UNK     0     -48.464  -4.829  18.656  0.00  0.00     0.210 HD
ENDBRANCH   3  33
BRANCH   4  35
HETATM   35  O   UNK     0     -48.726  -0.969  15.600  0.00  0.00    -0.390 OA
HETATM   36  H   UNK     0     -49.356  -0.541  14.995  0.00  0.00     0.210 HD
ENDBRANCH   4  35
BRANCH   2  37
HETATM   37  O   UNK     0     -46.706  -2.957  16.245  0.00  0.00    -0.390 OA
HETATM   38  H   UNK     0     -46.656  -2.716  15.305  0.00  0.00     0.210 HD
ENDBRANCH   2  37
TORSDOF 10
ENDMDL
MODEL 9
REMARK VINA RESULT:      -7.9     10.917     14.897
REMARK  10 active torsions:
REMARK  status: ('A' for Active; 'I' for Inactive)
REMARK    1  A    between atoms: O_2  and  C_15 
REMARK    2  A    between atoms: O_2  and  C_18 
REMARK    3  A    between atoms: O_3  and  C_12 
REMARK    4  A    between atoms: O_4  and  C_13 
REMARK    5  A    between atoms: O_5  and  C_14 
REMARK    6  A    between atoms: O_6  and  C_17 
REMARK    7  A    between atoms: O_9  and  C_20 
REMARK    8  A    between atoms: O_10  and  C_23 
REMARK    9  A    between atoms: C_16  and  C_17 
REMARK   10  A    between atoms: C_25  and  C_27 
ROOT
HETATM    1  O   UNK     0     -46.763 -16.640  22.710  0.00  0.00    -0.340 OA
HETATM    2  C   UNK     0     -46.070 -17.993  20.272  0.00  0.00     0.183 C 
HETATM    3  C   UNK     0     -46.290 -18.739  21.589  0.00  0.00     0.205 C 
HETATM    4  C   UNK     0     -46.763 -16.631  20.279  0.00  0.00     0.189 C 
HETATM    5  C   UNK     0     -45.997 -17.839  22.790  0.00  0.00     0.299 C 
HETATM    6  C   UNK     0     -46.442 -15.868  21.558  0.00  0.00     0.253 C 
ENDROOT
BRANCH   5   7
HETATM    7  O   UNK     0     -46.346 -18.557  23.974  0.00  0.00    -0.315 OA
BRANCH   7   8
HETATM    8  C   UNK     0     -47.003 -17.856  24.941  0.00  0.00     0.110 A 
HETATM    9  C   UNK     0     -46.283 -17.332  26.015  0.00  0.00     0.078 A 
HETATM   10  C   UNK     0     -46.946 -16.612  27.010  0.00  0.00     0.096 A 
HETATM   11  O   UNK     0     -46.185 -16.122  28.040  0.00  0.00    -0.309 OA
HETATM   12  C   UNK     0     -48.324 -16.420  26.929  0.00  0.00     0.084 A 
HETATM   13  C   UNK     0     -46.815 -15.397  29.040  0.00  0.00     0.090 A 
HETATM   14  C   UNK     0     -48.134 -15.150  29.077  0.00  0.00     0.094 A 
HETATM   15  C   UNK     0     -48.997 -15.659  27.993  0.00  0.00     0.190 A 
HETATM   16  O   UNK     0     -50.204 -15.454  27.988  0.00  0.00    -0.287 OA
HETATM   17  C   UNK     0     -49.049 -16.943  25.855  0.00  0.00     0.118 A 
HETATM   18  C   UNK     0     -48.383 -17.661  24.862  0.00  0.00     0.134 A 
BRANCH  13  19
HETATM   19  C   UNK     0     -45.905 -14.921  30.101  0.00  0.00    -0.002 A 
HETATM   20  C   UNK     0     -46.387 -14.710  31.396  0.00  0.00     0.014 A 
HETATM   21  C   UNK     0     -45.526 -14.261  32.399  0.00  0.00     0.001 A 
HETATM   22  C   UNK     0     -44.182 -14.023  32.110  0.00  0.00     0.000 A 
HETATM   23  C   UNK     0     -43.699 -14.232  30.819  0.00  0.00     0.001 A 
HETATM   24  C   UNK     0     -44.559 -14.681  29.816  0.00  0.00     0.014 A 
ENDBRANCH  13  19
BRANCH  17  25
HETATM   25  O   UNK     0     -50.397 -16.774  25.743  0.00  0.00    -0.357 OA
HETATM   26  H   UNK     0     -50.612 -15.855  25.523  0.00  0.00     0.217 HD
ENDBRANCH  17  25
BRANCH  18  27
HETATM   27  O   UNK     0     -49.081 -18.177  23.809  0.00  0.00    -0.356 OA
HETATM   28  H   UNK     0     -49.834 -18.686  24.157  0.00  0.00     0.218 HD
ENDBRANCH  18  27
ENDBRANCH   7   8
ENDBRANCH   5   7
BRANCH   6  29
HETATM   29  C   UNK     0     -47.316 -14.664  21.697  0.00  0.00     0.172 C 
HETATM   30  O   UNK     0     -47.629 -13.915  20.784  0.00  0.00    -0.648 OA
BRANCH  29  31
HETATM   31  O   UNK     0     -47.717 -14.509  22.983  0.00  0.00    -0.774 OA
HETATM   32  H   UNK     0     -47.138 -13.889  23.476  0.00  0.00     0.167 HD
ENDBRANCH  29  31
ENDBRANCH   6  29
BRANCH   3  33
HETATM   33  O   UNK     0     -45.413 -19.864  21.648  0.00  0.00    -0.388 OA
HETATM   34  H   UNK     0     -45.961 -20.666  21.636  0.00  0.00     0.210 HD
ENDBRANCH   3  33
BRANCH   4  35
HETATM   35  O   UNK     0     -46.307 -15.869  19.164  0.00  0.00    -0.390 OA
HETATM   36  H   UNK     0     -46.002 -15.006  19.493  0.00  0.00     0.210 HD
ENDBRANCH   4  35
BRANCH   2  37
HETATM   37  O   UNK     0     -46.610 -18.760  19.194  0.00  0.00    -0.390 OA
HETATM   38  H   UNK     0     -46.702 -18.168  18.429  0.00  0.00     0.210 HD
ENDBRANCH   2  37
TORSDOF 10
ENDMDL
MODEL 10
REMARK VINA RESULT:      -7.9      2.150      7.841
REMARK  10 active torsions:
REMARK  status: ('A' for Active; 'I' for Inactive)
REMARK    1  A    between atoms: O_2  and  C_15 
REMARK    2  A    between atoms: O_2  and  C_18 
REMARK    3  A    between atoms: O_3  and  C_12 
REMARK    4  A    between atoms: O_4  and  C_13 
REMARK    5  A    between atoms: O_5  and  C_14 
REMARK    6  A    between atoms: O_6  and  C_17 
REMARK    7  A    between atoms: O_9  and  C_20 
REMARK    8  A    between atoms: O_10  and  C_23 
REMARK    9  A    between atoms: C_16  and  C_17 
REMARK   10  A    between atoms: C_25  and  C_27 
ROOT
HETATM    1  O   UNK     0     -48.014  -1.270  17.490  0.00  0.00    -0.340 OA
HETATM    2  C   UNK     0     -45.694  -1.154  15.798  0.00  0.00     0.183 C 
HETATM    3  C   UNK     0     -46.993  -1.832  15.361  0.00  0.00     0.205 C 
HETATM    4  C   UNK     0     -45.943  -0.137  16.912  0.00  0.00     0.189 C 
HETATM    5  C   UNK     0     -47.788  -2.333  16.567  0.00  0.00     0.299 C 
HETATM    6  C   UNK     0     -46.801  -0.743  18.016  0.00  0.00     0.253 C 
ENDROOT
BRANCH   5   7
HETATM    7  O   UNK     0     -49.038  -2.834  16.093  0.00  0.00    -0.315 OA
BRANCH   7   8
HETATM    8  C   UNK     0     -49.436  -4.044  16.581  0.00  0.00     0.110 A 
HETATM    9  C   UNK     0     -48.481  -4.920  17.098  0.00  0.00     0.078 A 
HETATM   10  C   UNK     0     -48.878  -6.161  17.601  0.00  0.00     0.096 A 
HETATM   11  O   UNK     0     -47.895  -6.979  18.095  0.00  0.00    -0.309 OA
HETATM   12  C   UNK     0     -50.224  -6.520  17.584  0.00  0.00     0.084 A 
HETATM   13  C   UNK     0     -48.260  -8.215  18.607  0.00  0.00     0.090 A 
HETATM   14  C   UNK     0     -49.520  -8.676  18.642  0.00  0.00     0.094 A 
HETATM   15  C   UNK     0     -50.614  -7.834  18.118  0.00  0.00     0.190 A 
HETATM   16  O   UNK     0     -51.776  -8.216  18.133  0.00  0.00    -0.287 OA
HETATM   17  C   UNK     0     -51.183  -5.646  17.067  0.00  0.00     0.118 A 
HETATM   18  C   UNK     0     -50.784  -4.407  16.566  0.00  0.00     0.134 A 
BRANCH  13  19
HETATM   19  C   UNK     0     -47.124  -9.016  19.108  0.00  0.00    -0.002 A 
HETATM   20  C   UNK     0     -45.819  -8.528  19.000  0.00  0.00     0.014 A 
HETATM   21  C   UNK     0     -44.747  -9.284  19.474  0.00  0.00     0.001 A 
HETATM   22  C   UNK     0     -44.976 -10.530  20.058  0.00  0.00     0.000 A 
HETATM   23  C   UNK     0     -46.277 -11.021  20.167  0.00  0.00     0.001 A 
HETATM   24  C   UNK     0     -47.350 -10.264  19.693  0.00  0.00     0.014 A 
ENDBRANCH  13  19
BRANCH  17  25
HETATM   25  O   UNK     0     -52.508  -5.964  17.035  0.00  0.00    -0.357 OA
HETATM   26  H   UNK     0     -52.777  -6.229  16.142  0.00  0.00     0.217 HD
ENDBRANCH  17  25
BRANCH  18  27
HETATM   27  O   UNK     0     -51.712  -3.544  16.058  0.00  0.00    -0.356 OA
HETATM   28  H   UNK     0     -52.400  -4.063  15.608  0.00  0.00     0.218 HD
ENDBRANCH  18  27
ENDBRANCH   7   8
ENDBRANCH   5   7
BRANCH   6  29
HETATM   29  C   UNK     0     -47.269   0.309  18.968  0.00  0.00     0.172 C 
HETATM   30  O   UNK     0     -47.775   0.093  20.060  0.00  0.00    -0.648 OA
BRANCH  29  31
HETATM   31  O   UNK     0     -47.058   1.546  18.457  0.00  0.00    -0.774 OA
HETATM   32  H   UNK     0     -47.292   2.252  19.096  0.00  0.00     0.167 HD
ENDBRANCH  29  31
ENDBRANCH   6  29
BRANCH   3  33
HETATM   33  O   UNK     0     -46.686  -2.952  14.531  0.00  0.00    -0.388 OA
HETATM   34  H   UNK     0     -46.049  -3.508  15.009  0.00  0.00     0.210 HD
ENDBRANCH   3  33
BRANCH   4  35
HETATM   35  O   UNK     0     -44.692   0.259  17.470  0.00  0.00    -0.390 OA
HETATM   36  H   UNK     0     -44.372   1.033  16.975  0.00  0.00     0.210 HD
ENDBRANCH   4  35
BRANCH   2  37
HETATM   37  O   UNK     0     -45.121  -0.463  14.687  0.00  0.00    -0.390 OA
HETATM   38  H   UNK     0     -44.428  -1.031  14.312  0.00  0.00     0.210 HD
ENDBRANCH   2  37
TORSDOF 10
ENDMDL
