MODEL 1
REMARK VINA RESULT:      -7.1      0.000      0.000
REMARK  4 active torsions:
REMARK  status: ('A' for Active; 'I' for Inactive)
REMARK    1  A    between atoms: O_2  and  C_9 
REMARK    2  A    between atoms: O_3  and  C_11 
REMARK    3  A    between atoms: O_4  and  C_14 
REMARK    4  A    between atoms: C_8  and  C_13 
ROOT
HETATM    1  O   UNK     0     -48.766  -4.054  16.254  0.00  0.00    -0.306 OA
HETATM    2  O   UNK     0     -52.048  -2.638  14.297  0.00  0.00    -0.287 OA
HETATM    3  C   UNK     0     -49.770  -2.342  14.852  0.00  0.00     0.084 A 
HETATM    4  C   UNK     0     -48.687  -2.882  15.543  0.00  0.00     0.129 A 
HETATM    5  C   UNK     0     -49.981  -4.721  16.292  0.00  0.00     0.090 A 
HETATM    6  C   UNK     0     -47.454  -2.230  15.528  0.00  0.00     0.136 A 
HETATM    7  C   UNK     0     -51.057  -3.053  14.882  0.00  0.00     0.190 A 
HETATM    8  C   UNK     0     -49.631  -1.147  14.144  0.00  0.00     0.085 A 
HETATM    9  C   UNK     0     -51.091  -4.306  15.664  0.00  0.00     0.094 A 
HETATM   10  C   UNK     0     -47.310  -1.035  14.821  0.00  0.00     0.104 A 
HETATM   11  C   UNK     0     -48.397  -0.495  14.131  0.00  0.00     0.077 A 
ENDROOT
BRANCH   5  12
HETATM   12  C   UNK     0     -49.954  -5.971  17.080  0.00  0.00    -0.002 A 
HETATM   13  C   UNK     0     -51.147  -6.547  17.524  0.00  0.00     0.014 A 
HETATM   14  C   UNK     0     -51.122  -7.726  18.267  0.00  0.00     0.001 A 
HETATM   15  C   UNK     0     -49.903  -8.335  18.568  0.00  0.00     0.000 A 
HETATM   16  C   UNK     0     -48.710  -7.764  18.126  0.00  0.00     0.001 A 
HETATM   17  C   UNK     0     -48.735  -6.583  17.383  0.00  0.00     0.014 A 
ENDBRANCH   5  12
BRANCH   6  18
HETATM   18  O   UNK     0     -46.389  -2.752  16.200  0.00  0.00    -0.351 OA
HETATM   19  C   UNK     0     -46.093  -2.192  17.478  0.00  0.00     0.210 C 
ENDBRANCH   6  18
BRANCH   8  20
HETATM   20  O   UNK     0     -50.658  -0.579  13.453  0.00  0.00    -0.360 OA
HETATM   21  H   UNK     0     -51.290  -1.255  13.166  0.00  0.00     0.217 HD
ENDBRANCH   8  20
BRANCH  10  22
HETATM   22  O   UNK     0     -46.114  -0.385  14.798  0.00  0.00    -0.358 OA
HETATM   23  H   UNK     0     -45.401  -1.025  14.964  0.00  0.00     0.217 HD
ENDBRANCH  10  22
TORSDOF 4
ENDMDL
MODEL 2
REMARK VINA RESULT:      -6.9      1.912      5.583
REMARK  4 active torsions:
REMARK  status: ('A' for Active; 'I' for Inactive)
REMARK    1  A    between atoms: O_2  and  C_9 
REMARK    2  A    between atoms: O_3  and  C_11 
REMARK    3  A    between atoms: O_4  and  C_14 
REMARK    4  A    between atoms: C_8  and  C_13 
ROOT
HETATM    1  O   UNK     0     -47.284  -2.852  17.270  0.00  0.00    -0.306 OA
HETATM    2  O   UNK     0     -48.060  -0.323  14.172  0.00  0.00    -0.287 OA
HETATM    3  C   UNK     0     -48.606  -2.325  15.302  0.00  0.00     0.084 A 
HETATM    4  C   UNK     0     -48.289  -3.146  16.383  0.00  0.00     0.129 A 
HETATM    5  C   UNK     0     -46.548  -1.693  17.075  0.00  0.00     0.090 A 
HETATM    6  C   UNK     0     -49.008  -4.321  16.602  0.00  0.00     0.136 A 
HETATM    7  C   UNK     0     -47.834  -1.091  15.098  0.00  0.00     0.190 A 
HETATM    8  C   UNK     0     -49.641  -2.673  14.431  0.00  0.00     0.085 A 
HETATM    9  C   UNK     0     -46.762  -0.822  16.077  0.00  0.00     0.094 A 
HETATM   10  C   UNK     0     -50.042  -4.673  15.734  0.00  0.00     0.104 A 
HETATM   11  C   UNK     0     -50.358  -3.850  14.651  0.00  0.00     0.077 A 
ENDROOT
BRANCH   5  12
HETATM   12  C   UNK     0     -45.497  -1.472  18.089  0.00  0.00    -0.002 A 
HETATM   13  C   UNK     0     -44.194  -1.923  17.859  0.00  0.00     0.014 A 
HETATM   14  C   UNK     0     -43.201  -1.714  18.815  0.00  0.00     0.001 A 
HETATM   15  C   UNK     0     -43.507  -1.053  20.005  0.00  0.00     0.000 A 
HETATM   16  C   UNK     0     -44.806  -0.602  20.238  0.00  0.00     0.001 A 
HETATM   17  C   UNK     0     -45.799  -0.811  19.281  0.00  0.00     0.014 A 
ENDBRANCH   5  12
BRANCH   6  18
HETATM   18  O   UNK     0     -48.704  -5.129  17.657  0.00  0.00    -0.351 OA
HETATM   19  C   UNK     0     -49.533  -5.022  18.813  0.00  0.00     0.210 C 
ENDBRANCH   6  18
BRANCH   8  20
HETATM   20  O   UNK     0     -49.989  -1.905  13.362  0.00  0.00    -0.360 OA
HETATM   21  H   UNK     0     -49.835  -0.968  13.551  0.00  0.00     0.217 HD
ENDBRANCH   8  20
BRANCH  10  22
HETATM   22  O   UNK     0     -50.753  -5.818  15.932  0.00  0.00    -0.358 OA
HETATM   23  H   UNK     0     -50.148  -6.579  15.885  0.00  0.00     0.217 HD
ENDBRANCH  10  22
TORSDOF 4
ENDMDL
MODEL 3
REMARK VINA RESULT:      -6.6      4.072      7.346
REMARK  4 active torsions:
REMARK  status: ('A' for Active; 'I' for Inactive)
REMARK    1  A    between atoms: O_2  and  C_9 
REMARK    2  A    between atoms: O_3  and  C_11 
REMARK    3  A    between atoms: O_4  and  C_14 
REMARK    4  A    between atoms: C_8  and  C_13 
ROOT
HETATM    1  O   UNK     0     -45.978   0.304  18.028  0.00  0.00    -0.306 OA
HETATM    2  O   UNK     0     -45.026  -2.103  14.882  0.00  0.00    -0.287 OA
HETATM    3  C   UNK     0     -46.717  -1.048  16.150  0.00  0.00     0.084 A 
HETATM    4  C   UNK     0     -46.973  -0.218  17.240  0.00  0.00     0.129 A 
HETATM    5  C   UNK     0     -44.662  -0.017  17.729  0.00  0.00     0.090 A 
HETATM    6  C   UNK     0     -48.287   0.118  17.569  0.00  0.00     0.136 A 
HETATM    7  C   UNK     0     -45.323  -1.383  15.825  0.00  0.00     0.190 A 
HETATM    8  C   UNK     0     -47.770  -1.549  15.382  0.00  0.00     0.085 A 
HETATM    9  C   UNK     0     -44.290  -0.799  16.704  0.00  0.00     0.094 A 
HETATM   10  C   UNK     0     -49.342  -0.381  16.804  0.00  0.00     0.104 A 
HETATM   11  C   UNK     0     -49.084  -1.213  15.713  0.00  0.00     0.077 A 
ENDROOT
BRANCH   5  12
HETATM   12  C   UNK     0     -43.673   0.601  18.636  0.00  0.00    -0.002 A 
HETATM   13  C   UNK     0     -43.074  -0.159  19.644  0.00  0.00     0.014 A 
HETATM   14  C   UNK     0     -42.140   0.424  20.499  0.00  0.00     0.001 A 
HETATM   15  C   UNK     0     -41.801   1.769  20.349  0.00  0.00     0.000 A 
HETATM   16  C   UNK     0     -42.396   2.530  19.344  0.00  0.00     0.001 A 
HETATM   17  C   UNK     0     -43.331   1.947  18.489  0.00  0.00     0.014 A 
ENDBRANCH   5  12
BRANCH   6  18
HETATM   18  O   UNK     0     -48.545   0.930  18.633  0.00  0.00    -0.351 OA
HETATM   19  C   UNK     0     -48.785   0.296  19.888  0.00  0.00     0.210 C 
ENDBRANCH   6  18
BRANCH   8  20
HETATM   20  O   UNK     0     -47.573  -2.363  14.308  0.00  0.00    -0.360 OA
HETATM   21  H   UNK     0     -47.297  -1.846  13.536  0.00  0.00     0.217 HD
ENDBRANCH   8  20
BRANCH  10  22
HETATM   22  O   UNK     0     -50.630  -0.064  17.112  0.00  0.00    -0.358 OA
HETATM   23  H   UNK     0     -50.705   0.901  17.211  0.00  0.00     0.217 HD
ENDBRANCH  10  22
TORSDOF 4
ENDMDL
MODEL 4
REMARK VINA RESULT:      -6.5     16.958     17.748
REMARK  4 active torsions:
REMARK  status: ('A' for Active; 'I' for Inactive)
REMARK    1  A    between atoms: O_2  and  C_9 
REMARK    2  A    between atoms: O_3  and  C_11 
REMARK    3  A    between atoms: O_4  and  C_14 
REMARK    4  A    between atoms: C_8  and  C_13 
ROOT
HETATM    1  O   UNK     0     -46.631 -16.357  27.760  0.00  0.00    -0.306 OA
HETATM    2  O   UNK     0     -50.352 -16.668  26.130  0.00  0.00    -0.287 OA
HETATM    3  C   UNK     0     -48.053 -17.194  25.977  0.00  0.00     0.084 A 
HETATM    4  C   UNK     0     -46.809 -17.050  26.589  0.00  0.00     0.129 A 
HETATM    5  C   UNK     0     -47.737 -15.769  28.354  0.00  0.00     0.090 A 
HETATM    6  C   UNK     0     -45.677 -17.626  26.012  0.00  0.00     0.136 A 
HETATM    7  C   UNK     0     -49.230 -16.580  26.610  0.00  0.00     0.190 A 
HETATM    8  C   UNK     0     -48.176 -17.912  24.786  0.00  0.00     0.085 A 
HETATM    9  C   UNK     0     -48.985 -15.842  27.866  0.00  0.00     0.094 A 
HETATM   10  C   UNK     0     -45.794 -18.343  24.821  0.00  0.00     0.104 A 
HETATM   11  C   UNK     0     -47.041 -18.486  24.209  0.00  0.00     0.077 A 
ENDROOT
BRANCH   5  12
HETATM   12  C   UNK     0     -47.434 -15.053  29.610  0.00  0.00    -0.002 A 
HETATM   13  C   UNK     0     -48.006 -13.804  29.862  0.00  0.00     0.014 A 
HETATM   14  C   UNK     0     -47.721 -13.129  31.048  0.00  0.00     0.001 A 
HETATM   15  C   UNK     0     -46.863 -13.701  31.987  0.00  0.00     0.000 A 
HETATM   16  C   UNK     0     -46.289 -14.948  31.740  0.00  0.00     0.001 A 
HETATM   17  C   UNK     0     -46.575 -15.623  30.553  0.00  0.00     0.014 A 
ENDBRANCH   5  12
BRANCH   6  18
HETATM   18  O   UNK     0     -44.456 -17.490  26.604  0.00  0.00    -0.351 OA
HETATM   19  C   UNK     0     -43.662 -16.375  26.202  0.00  0.00     0.210 C 
ENDBRANCH   6  18
BRANCH   8  20
HETATM   20  O   UNK     0     -49.368 -18.081  24.151  0.00  0.00    -0.360 OA
HETATM   21  H   UNK     0     -49.910 -17.282  24.226  0.00  0.00     0.217 HD
ENDBRANCH   8  20
BRANCH  10  22
HETATM   22  O   UNK     0     -44.699 -18.910  24.244  0.00  0.00    -0.358 OA
HETATM   23  H   UNK     0     -44.831 -18.947  23.280  0.00  0.00     0.217 HD
ENDBRANCH  10  22
TORSDOF 4
ENDMDL
MODEL 5
REMARK VINA RESULT:      -6.5      4.546      8.112
REMARK  4 active torsions:
REMARK  status: ('A' for Active; 'I' for Inactive)
REMARK    1  A    between atoms: O_2  and  C_9 
REMARK    2  A    between atoms: O_3  and  C_11 
REMARK    3  A    between atoms: O_4  and  C_14 
REMARK    4  A    between atoms: C_8  and  C_13 
ROOT
HETATM    1  O   UNK     0     -51.600  -6.828  19.305  0.00  0.00    -0.306 OA
HETATM    2  O   UNK     0     -48.529  -9.398  18.559  0.00  0.00    -0.287 OA
HETATM    3  C   UNK     0     -50.088  -8.547  20.117  0.00  0.00     0.084 A 
HETATM    4  C   UNK     0     -51.135  -7.646  20.304  0.00  0.00     0.129 A 
HETATM    5  C   UNK     0     -50.995  -6.896  18.060  0.00  0.00     0.090 A 
HETATM    6  C   UNK     0     -51.760  -7.551  21.548  0.00  0.00     0.136 A 
HETATM    7  C   UNK     0     -49.450  -8.629  18.795  0.00  0.00     0.190 A 
HETATM    8  C   UNK     0     -49.657  -9.357  21.169  0.00  0.00     0.085 A 
HETATM    9  C   UNK     0     -49.985  -7.726  17.756  0.00  0.00     0.094 A 
HETATM   10  C   UNK     0     -51.332  -8.358  22.603  0.00  0.00     0.104 A 
HETATM   11  C   UNK     0     -50.283  -9.260  22.413  0.00  0.00     0.077 A 
ENDROOT
BRANCH   5  12
HETATM   12  C   UNK     0     -51.575  -5.977  17.059  0.00  0.00    -0.002 A 
HETATM   13  C   UNK     0     -50.743  -5.277  16.183  0.00  0.00     0.014 A 
HETATM   14  C   UNK     0     -51.290  -4.410  15.238  0.00  0.00     0.001 A 
HETATM   15  C   UNK     0     -52.673  -4.241  15.166  0.00  0.00     0.000 A 
HETATM   16  C   UNK     0     -53.508  -4.939  16.039  0.00  0.00     0.001 A 
HETATM   17  C   UNK     0     -52.960  -5.806  16.984  0.00  0.00     0.014 A 
ENDBRANCH   5  12
BRANCH   6  18
HETATM   18  O   UNK     0     -52.786  -6.673  21.738  0.00  0.00    -0.351 OA
HETATM   19  C   UNK     0     -52.442  -5.367  22.197  0.00  0.00     0.210 C 
ENDBRANCH   6  18
BRANCH   8  20
HETATM   20  O   UNK     0     -48.640 -10.253  21.037  0.00  0.00    -0.360 OA
HETATM   21  H   UNK     0     -48.034 -10.194  21.791  0.00  0.00     0.217 HD
ENDBRANCH   8  20
BRANCH  10  22
HETATM   22  O   UNK     0     -51.930  -8.277  23.823  0.00  0.00    -0.358 OA
HETATM   23  H   UNK     0     -52.874  -8.498  23.730  0.00  0.00     0.217 HD
ENDBRANCH  10  22
TORSDOF 4
ENDMDL
MODEL 6
REMARK VINA RESULT:      -6.5     12.708     16.056
REMARK  4 active torsions:
REMARK  status: ('A' for Active; 'I' for Inactive)
REMARK    1  A    between atoms: O_2  and  C_9 
REMARK    2  A    between atoms: O_3  and  C_11 
REMARK    3  A    between atoms: O_4  and  C_14 
REMARK    4  A    between atoms: C_8  and  C_13 
ROOT
HETATM    1  O   UNK     0     -47.546 -15.256  25.065  0.00  0.00    -0.306 OA
HETATM    2  O   UNK     0     -47.765 -19.255  25.816  0.00  0.00    -0.287 OA
HETATM    3  C   UNK     0     -47.655 -17.527  24.208  0.00  0.00     0.084 A 
HETATM    4  C   UNK     0     -47.579 -16.148  24.022  0.00  0.00     0.129 A 
HETATM    5  C   UNK     0     -47.598 -15.752  26.359  0.00  0.00     0.090 A 
HETATM    6  C   UNK     0     -47.531 -15.619  22.732  0.00  0.00     0.136 A 
HETATM    7  C   UNK     0     -47.701 -18.056  25.579  0.00  0.00     0.190 A 
HETATM    8  C   UNK     0     -47.685 -18.387  23.109  0.00  0.00     0.085 A 
HETATM    9  C   UNK     0     -47.665 -17.057  26.666  0.00  0.00     0.094 A 
HETATM   10  C   UNK     0     -47.561 -16.475  21.630  0.00  0.00     0.104 A 
HETATM   11  C   UNK     0     -47.638 -17.856  21.819  0.00  0.00     0.077 A 
ENDROOT
BRANCH   5  12
HETATM   12  C   UNK     0     -47.551 -14.709  27.404  0.00  0.00    -0.002 A 
HETATM   13  C   UNK     0     -46.356 -14.035  27.669  0.00  0.00     0.014 A 
HETATM   14  C   UNK     0     -46.311 -13.050  28.655  0.00  0.00     0.001 A 
HETATM   15  C   UNK     0     -47.461 -12.734  29.378  0.00  0.00     0.000 A 
HETATM   16  C   UNK     0     -48.656 -13.404  29.116  0.00  0.00     0.001 A 
HETATM   17  C   UNK     0     -48.701 -14.390  28.130  0.00  0.00     0.014 A 
ENDBRANCH   5  12
BRANCH   6  18
HETATM   18  O   UNK     0     -47.456 -14.271  22.542  0.00  0.00    -0.351 OA
HETATM   19  C   UNK     0     -46.234 -13.759  22.015  0.00  0.00     0.210 C 
ENDBRANCH   6  18
BRANCH   8  20
HETATM   20  O   UNK     0     -47.758 -19.741  23.238  0.00  0.00    -0.360 OA
HETATM   21  H   UNK     0     -48.361 -20.113  22.579  0.00  0.00     0.217 HD
ENDBRANCH   8  20
BRANCH  10  22
HETATM   22  O   UNK     0     -47.516 -15.975  20.364  0.00  0.00    -0.358 OA
HETATM   23  H   UNK     0     -46.662 -15.529  20.229  0.00  0.00     0.217 HD
ENDBRANCH  10  22
TORSDOF 4
ENDMDL
MODEL 7
REMARK VINA RESULT:      -6.4      4.271      7.880
REMARK  4 active torsions:
REMARK  status: ('A' for Active; 'I' for Inactive)
REMARK    1  A    between atoms: O_2  and  C_9 
REMARK    2  A    between atoms: O_3  and  C_11 
REMARK    3  A    between atoms: O_4  and  C_14 
REMARK    4  A    between atoms: C_8  and  C_13 
ROOT
HETATM    1  O   UNK     0     -44.619   0.116  17.784  0.00  0.00    -0.306 OA
HETATM    2  O   UNK     0     -48.095   1.769  19.122  0.00  0.00    -0.287 OA
HETATM    3  C   UNK     0     -47.045   0.207  17.693  0.00  0.00     0.084 A 
HETATM    4  C   UNK     0     -45.821  -0.316  17.280  0.00  0.00     0.129 A 
HETATM    5  C   UNK     0     -44.627   1.121  18.739  0.00  0.00     0.090 A 
HETATM    6  C   UNK     0     -45.781  -1.324  16.317  0.00  0.00     0.136 A 
HETATM    7  C   UNK     0     -47.057   1.266  18.712  0.00  0.00     0.190 A 
HETATM    8  C   UNK     0     -48.238  -0.272  17.146  0.00  0.00     0.085 A 
HETATM    9  C   UNK     0     -45.739   1.698  19.220  0.00  0.00     0.094 A 
HETATM   10  C   UNK     0     -46.970  -1.805  15.767  0.00  0.00     0.104 A 
HETATM   11  C   UNK     0     -48.196  -1.280  16.181  0.00  0.00     0.077 A 
ENDROOT
BRANCH   5  12
HETATM   12  C   UNK     0     -43.283   1.506  19.216  0.00  0.00    -0.002 A 
HETATM   13  C   UNK     0     -42.640   2.623  18.678  0.00  0.00     0.014 A 
HETATM   14  C   UNK     0     -41.371   2.986  19.129  0.00  0.00     0.001 A 
HETATM   15  C   UNK     0     -40.741   2.234  20.120  0.00  0.00     0.000 A 
HETATM   16  C   UNK     0     -41.380   1.118  20.660  0.00  0.00     0.001 A 
HETATM   17  C   UNK     0     -42.649   0.754  20.209  0.00  0.00     0.014 A 
ENDBRANCH   5  12
BRANCH   6  18
HETATM   18  O   UNK     0     -44.587  -1.841  15.909  0.00  0.00    -0.351 OA
HETATM   19  C   UNK     0     -44.037  -1.322  14.699  0.00  0.00     0.210 C 
ENDBRANCH   6  18
BRANCH   8  20
HETATM   20  O   UNK     0     -49.458   0.205  17.516  0.00  0.00    -0.360 OA
HETATM   21  H   UNK     0     -49.788  -0.271  18.292  0.00  0.00     0.217 HD
ENDBRANCH   8  20
BRANCH  10  22
HETATM   22  O   UNK     0     -46.949  -2.788  14.825  0.00  0.00    -0.358 OA
HETATM   23  H   UNK     0     -46.577  -2.429  14.000  0.00  0.00     0.217 HD
ENDBRANCH  10  22
TORSDOF 4
ENDMDL
MODEL 8
REMARK VINA RESULT:      -6.4      5.199      8.132
REMARK  4 active torsions:
REMARK  status: ('A' for Active; 'I' for Inactive)
REMARK    1  A    between atoms: O_2  and  C_9 
REMARK    2  A    between atoms: O_3  and  C_11 
REMARK    3  A    between atoms: O_4  and  C_14 
REMARK    4  A    between atoms: C_8  and  C_13 
ROOT
HETATM    1  O   UNK     0     -47.474  -8.824  20.610  0.00  0.00    -0.306 OA
HETATM    2  O   UNK     0     -48.426  -6.783  17.215  0.00  0.00    -0.287 OA
HETATM    3  C   UNK     0     -49.174  -7.785  19.220  0.00  0.00     0.084 A 
HETATM    4  C   UNK     0     -48.779  -8.482  20.361  0.00  0.00     0.129 A 
HETATM    5  C   UNK     0     -46.509  -8.468  19.680  0.00  0.00     0.090 A 
HETATM    6  C   UNK     0     -49.728  -8.859  21.312  0.00  0.00     0.136 A 
HETATM    7  C   UNK     0     -48.152  -7.397  18.237  0.00  0.00     0.190 A 
HETATM    8  C   UNK     0     -50.517  -7.462  19.020  0.00  0.00     0.085 A 
HETATM    9  C   UNK     0     -46.763  -7.792  18.549  0.00  0.00     0.094 A 
HETATM   10  C   UNK     0     -51.072  -8.538  21.115  0.00  0.00     0.104 A 
HETATM   11  C   UNK     0     -51.466  -7.841  19.971  0.00  0.00     0.077 A 
ENDROOT
BRANCH   5  12
HETATM   12  C   UNK     0     -45.139  -8.880  20.049  0.00  0.00    -0.002 A 
HETATM   13  C   UNK     0     -44.338  -9.557  19.126  0.00  0.00     0.014 A 
HETATM   14  C   UNK     0     -43.045  -9.946  19.473  0.00  0.00     0.001 A 
HETATM   15  C   UNK     0     -42.548  -9.659  20.745  0.00  0.00     0.000 A 
HETATM   16  C   UNK     0     -43.345  -8.984  21.669  0.00  0.00     0.001 A 
HETATM   17  C   UNK     0     -44.639  -8.595  21.322  0.00  0.00     0.014 A 
ENDBRANCH   5  12
BRANCH   6  18
HETATM   18  O   UNK     0     -49.350  -9.540  22.431  0.00  0.00    -0.351 OA
HETATM   19  C   UNK     0     -49.332 -10.963  22.347  0.00  0.00     0.210 C 
ENDBRANCH   6  18
BRANCH   8  20
HETATM   20  O   UNK     0     -50.953  -6.783  17.923  0.00  0.00    -0.360 OA
HETATM   21  H   UNK     0     -50.214  -6.333  17.486  0.00  0.00     0.217 HD
ENDBRANCH   8  20
BRANCH  10  22
HETATM   22  O   UNK     0     -52.011  -8.900  22.032  0.00  0.00    -0.358 OA
HETATM   23  H   UNK     0     -52.763  -9.313  21.572  0.00  0.00     0.217 HD
ENDBRANCH  10  22
TORSDOF 4
ENDMDL
MODEL 9
REMARK VINA RESULT:      -6.3      6.190      9.364
REMARK  4 active torsions:
REMARK  status: ('A' for Active; 'I' for Inactive)
REMARK    1  A    between atoms: O_2  and  C_9 
REMARK    2  A    between atoms: O_3  and  C_11 
REMARK    3  A    between atoms: O_4  and  C_14 
REMARK    4  A    between atoms: C_8  and  C_13 
ROOT
HETATM    1  O   UNK     0     -45.923 -10.196  20.436  0.00  0.00    -0.306 OA
HETATM    2  O   UNK     0     -47.149  -6.797  18.552  0.00  0.00    -0.287 OA
HETATM    3  C   UNK     0     -47.704  -8.615  19.956  0.00  0.00     0.084 A 
HETATM    4  C   UNK     0     -47.220  -9.766  20.573  0.00  0.00     0.129 A 
HETATM    5  C   UNK     0     -45.063  -9.453  19.641  0.00  0.00     0.090 A 
HETATM    6  C   UNK     0     -48.063 -10.537  21.374  0.00  0.00     0.136 A 
HETATM    7  C   UNK     0     -46.792  -7.820  19.121  0.00  0.00     0.190 A 
HETATM    8  C   UNK     0     -49.034  -8.225  20.133  0.00  0.00     0.085 A 
HETATM    9  C   UNK     0     -45.409  -8.325  19.002  0.00  0.00     0.094 A 
HETATM   10  C   UNK     0     -49.393 -10.151  21.553  0.00  0.00     0.104 A 
HETATM   11  C   UNK     0     -49.876  -8.997  20.934  0.00  0.00     0.077 A 
ENDROOT
BRANCH   5  12
HETATM   12  C   UNK     0     -43.693 -10.001  19.566  0.00  0.00    -0.002 A 
HETATM   13  C   UNK     0     -43.335 -10.855  18.521  0.00  0.00     0.014 A 
HETATM   14  C   UNK     0     -42.042 -11.371  18.449  0.00  0.00     0.001 A 
HETATM   15  C   UNK     0     -41.102 -11.035  19.423  0.00  0.00     0.000 A 
HETATM   16  C   UNK     0     -41.455 -10.182  20.468  0.00  0.00     0.001 A 
HETATM   17  C   UNK     0     -42.749  -9.665  20.540  0.00  0.00     0.014 A 
ENDBRANCH   5  12
BRANCH   6  18
HETATM   18  O   UNK     0     -47.597 -11.665  21.981  0.00  0.00    -0.351 OA
HETATM   19  C   UNK     0     -47.836 -12.904  21.317  0.00  0.00     0.210 C 
ENDBRANCH   6  18
BRANCH   8  20
HETATM   20  O   UNK     0     -49.554  -7.108  19.553  0.00  0.00    -0.360 OA
HETATM   21  H   UNK     0     -48.892  -6.675  18.993  0.00  0.00     0.217 HD
ENDBRANCH   8  20
BRANCH  10  22
HETATM   22  O   UNK     0     -50.229 -10.893  22.330  0.00  0.00    -0.358 OA
HETATM   23  H   UNK     0     -50.569 -11.641  21.808  0.00  0.00     0.217 HD
ENDBRANCH  10  22
TORSDOF 4
ENDMDL
MODEL 10
REMARK VINA RESULT:      -6.2      4.505      7.918
REMARK  4 active torsions:
REMARK  status: ('A' for Active; 'I' for Inactive)
REMARK    1  A    between atoms: O_2  and  C_9 
REMARK    2  A    between atoms: O_3  and  C_11 
REMARK    3  A    between atoms: O_4  and  C_14 
REMARK    4  A    between atoms: C_8  and  C_13 
ROOT
HETATM    1  O   UNK     0     -50.309  -7.501  18.983  0.00  0.00    -0.306 OA
HETATM    2  O   UNK     0     -52.783  -6.782  22.140  0.00  0.00    -0.287 OA
HETATM    3  C   UNK     0     -50.964  -8.012  21.266  0.00  0.00     0.084 A 
HETATM    4  C   UNK     0     -50.152  -8.207  20.150  0.00  0.00     0.129 A 
HETATM    5  C   UNK     0     -51.325  -6.559  18.913  0.00  0.00     0.090 A 
HETATM    6  C   UNK     0     -49.126  -9.151  20.189  0.00  0.00     0.136 A 
HETATM    7  C   UNK     0     -52.035  -7.007  21.198  0.00  0.00     0.190 A 
HETATM    8  C   UNK     0     -50.758  -8.758  22.428  0.00  0.00     0.085 A 
HETATM    9  C   UNK     0     -52.164  -6.277  19.920  0.00  0.00     0.094 A 
HETATM   10  C   UNK     0     -48.917  -9.900  21.348  0.00  0.00     0.104 A 
HETATM   11  C   UNK     0     -49.731  -9.703  22.465  0.00  0.00     0.077 A 
ENDROOT
BRANCH   5  12
HETATM   12  C   UNK     0     -51.401  -5.855  17.616  0.00  0.00    -0.002 A 
HETATM   13  C   UNK     0     -50.256  -5.709  16.829  0.00  0.00     0.014 A 
HETATM   14  C   UNK     0     -50.327  -5.045  15.605  0.00  0.00     0.001 A 
HETATM   15  C   UNK     0     -51.544  -4.525  15.164  0.00  0.00     0.000 A 
HETATM   16  C   UNK     0     -52.689  -4.669  15.947  0.00  0.00     0.001 A 
HETATM   17  C   UNK     0     -52.618  -5.333  17.172  0.00  0.00     0.014 A 
ENDBRANCH   5  12
BRANCH   6  18
HETATM   18  O   UNK     0     -48.328  -9.347  19.102  0.00  0.00    -0.351 OA
HETATM   19  C   UNK     0     -47.137  -8.566  19.024  0.00  0.00     0.210 C 
ENDBRANCH   6  18
BRANCH   8  20
HETATM   20  O   UNK     0     -51.522  -8.605  23.544  0.00  0.00    -0.360 OA
HETATM   21  H   UNK     0     -51.025  -8.144  24.236  0.00  0.00     0.217 HD
ENDBRANCH   8  20
BRANCH  10  22
HETATM   22  O   UNK     0     -47.920 -10.826  21.403  0.00  0.00    -0.358 OA
HETATM   23  H   UNK     0     -48.079 -11.419  22.158  0.00  0.00     0.217 HD
ENDBRANCH  10  22
TORSDOF 4
ENDMDL
