MODEL 1
REMARK VINA RESULT:      -4.0      0.000      0.000
REMARK  9 active torsions:
REMARK  status: ('A' for Active; 'I' for Inactive)
REMARK    1  A    between atoms: S_1  and  S_2 
REMARK    2  A    between atoms: S_1  and  C_15 
REMARK    3  A    between atoms: S_2  and  C_16 
REMARK    4  A    between atoms: N_5  and  C_7 
REMARK    5  A    between atoms: N_5  and  C_8 
REMARK    6  A    between atoms: N_5  and  C_15 
REMARK    7  A    between atoms: N_6  and  C_9 
REMARK    8  A    between atoms: N_6  and  C_10 
REMARK    9  A    between atoms: N_6  and  C_16 
ROOT
HETATM    1  S   MOL     1     -49.495  -8.533  17.821  1.00  0.00    -0.020 SA
ENDROOT
BRANCH   1   2
HETATM    2  S   MOL     1     -49.289  -6.518  17.435  1.00  0.00    -0.020 SA
BRANCH   2   3
HETATM    3  C   MOL     1     -50.960  -5.945  17.636  1.00  0.00     0.147 C 
HETATM    4  S   MOL     1     -51.758  -6.302  19.083  1.00  0.00    -0.052 SA
BRANCH   3   5
HETATM    5  N   MOL     1     -51.500  -5.200  16.567  1.00  0.00    -0.367 N 
BRANCH   5   6
HETATM    6  C   MOL     1     -52.725  -4.408  16.706  1.00  0.00     0.120 C 
HETATM    7  C   MOL     1     -53.896  -5.072  16.014  1.00  0.00     0.026 C 
ENDBRANCH   5   6
BRANCH   5   8
HETATM    8  C   MOL     1     -50.898  -5.116  15.232  1.00  0.00     0.120 C 
HETATM    9  C   MOL     1     -50.500  -3.695  14.892  1.00  0.00     0.026 C 
ENDBRANCH   5   8
ENDBRANCH   3   5
ENDBRANCH   2   3
ENDBRANCH   1   2
BRANCH   1  10
HETATM   10  C   MOL     1     -48.304  -8.770  19.118  1.00  0.00     0.147 C 
HETATM   11  S   MOL     1     -46.775  -8.072  18.935  1.00  0.00    -0.052 SA
BRANCH  10  12
HETATM   12  N   MOL     1     -48.734  -9.515  20.235  1.00  0.00    -0.367 N 
BRANCH  12  13
HETATM   13  C   MOL     1     -48.153 -10.798  20.643  1.00  0.00     0.120 C 
HETATM   14  C   MOL     1     -48.203 -11.812  19.518  1.00  0.00     0.026 C 
ENDBRANCH  12  13
BRANCH  12  15
HETATM   15  C   MOL     1     -49.835  -9.073  21.094  1.00  0.00     0.120 C 
HETATM   16  C   MOL     1     -49.699  -9.624  22.498  1.00  0.00     0.026 C 
ENDBRANCH  12  15
ENDBRANCH  10  12
ENDBRANCH   1  10
TORSDOF 9
ENDMDL
MODEL 2
REMARK VINA RESULT:      -3.9      4.423      6.520
REMARK  9 active torsions:
REMARK  status: ('A' for Active; 'I' for Inactive)
REMARK    1  A    between atoms: S_1  and  S_2 
REMARK    2  A    between atoms: S_1  and  C_15 
REMARK    3  A    between atoms: S_2  and  C_16 
REMARK    4  A    between atoms: N_5  and  C_7 
REMARK    5  A    between atoms: N_5  and  C_8 
REMARK    6  A    between atoms: N_5  and  C_15 
REMARK    7  A    between atoms: N_6  and  C_9 
REMARK    8  A    between atoms: N_6  and  C_10 
REMARK    9  A    between atoms: N_6  and  C_16 
ROOT
HETATM    1  S   MOL     1     -51.729  -2.822  16.918  1.00  0.00    -0.020 SA
ENDROOT
BRANCH   1   2
HETATM    2  S   MOL     1     -49.757  -2.710  17.511  1.00  0.00    -0.020 SA
BRANCH   2   3
HETATM    3  C   MOL     1     -49.303  -1.092  16.933  1.00  0.00     0.147 C 
HETATM    4  S   MOL     1     -49.979   0.251  17.707  1.00  0.00    -0.052 SA
BRANCH   3   5
HETATM    5  N   MOL     1     -48.378  -1.044  15.870  1.00  0.00    -0.367 N 
BRANCH   5   6
HETATM    6  C   MOL     1     -46.981  -0.648  16.067  1.00  0.00     0.120 C 
HETATM    7  C   MOL     1     -46.174  -1.759  16.706  1.00  0.00     0.026 C 
ENDBRANCH   5   6
BRANCH   5   8
HETATM    8  C   MOL     1     -48.694  -1.397  14.483  1.00  0.00     0.120 C 
HETATM    9  C   MOL     1     -50.053  -0.870  14.073  1.00  0.00     0.026 C 
ENDBRANCH   5   8
ENDBRANCH   3   5
ENDBRANCH   2   3
ENDBRANCH   1   2
BRANCH   1  10
HETATM   10  C   MOL     1     -51.761  -4.389  16.083  1.00  0.00     0.147 C 
HETATM   11  S   MOL     1     -50.492  -4.758  15.027  1.00  0.00    -0.052 SA
BRANCH  10  12
HETATM   12  N   MOL     1     -52.847  -5.237  16.383  1.00  0.00    -0.367 N 
BRANCH  12  13
HETATM   13  C   MOL     1     -54.216  -5.024  15.902  1.00  0.00     0.120 C 
HETATM   14  C   MOL     1     -54.826  -6.308  15.379  1.00  0.00     0.026 C 
ENDBRANCH  12  13
BRANCH  12  15
HETATM   15  C   MOL     1     -52.704  -6.420  17.234  1.00  0.00     0.120 C 
HETATM   16  C   MOL     1     -51.939  -6.104  18.502  1.00  0.00     0.026 C 
ENDBRANCH  12  15
ENDBRANCH  10  12
ENDBRANCH   1  10
TORSDOF 9
ENDMDL
MODEL 3
REMARK VINA RESULT:      -3.9      1.384      6.574
REMARK  9 active torsions:
REMARK  status: ('A' for Active; 'I' for Inactive)
REMARK    1  A    between atoms: S_1  and  S_2 
REMARK    2  A    between atoms: S_1  and  C_15 
REMARK    3  A    between atoms: S_2  and  C_16 
REMARK    4  A    between atoms: N_5  and  C_7 
REMARK    5  A    between atoms: N_5  and  C_8 
REMARK    6  A    between atoms: N_5  and  C_15 
REMARK    7  A    between atoms: N_6  and  C_9 
REMARK    8  A    between atoms: N_6  and  C_10 
REMARK    9  A    between atoms: N_6  and  C_16 
ROOT
HETATM    1  S   MOL     1     -48.922  -6.332  17.722  1.00  0.00    -0.020 SA
ENDROOT
BRANCH   1   2
HETATM    2  S   MOL     1     -49.820  -8.188  17.742  1.00  0.00    -0.020 SA
BRANCH   2   3
HETATM    3  C   MOL     1     -49.853  -8.548  19.482  1.00  0.00     0.147 C 
HETATM    4  S   MOL     1     -51.174  -8.001  20.385  1.00  0.00    -0.052 SA
BRANCH   3   5
HETATM    5  N   MOL     1     -48.772  -9.299  19.987  1.00  0.00    -0.367 N 
BRANCH   5   6
HETATM    6  C   MOL     1     -48.396 -10.601  19.431  1.00  0.00     0.120 C 
HETATM    7  C   MOL     1     -48.187 -11.631  20.521  1.00  0.00     0.026 C 
ENDBRANCH   5   6
BRANCH   5   8
HETATM    8  C   MOL     1     -47.905  -8.861  21.086  1.00  0.00     0.120 C 
HETATM    9  C   MOL     1     -46.813  -7.934  20.596  1.00  0.00     0.026 C 
ENDBRANCH   5   8
ENDBRANCH   3   5
ENDBRANCH   2   3
ENDBRANCH   1   2
BRANCH   1  10
HETATM   10  C   MOL     1     -50.331  -5.254  17.814  1.00  0.00     0.147 C 
HETATM   11  S   MOL     1     -50.409  -4.149  19.092  1.00  0.00    -0.052 SA
BRANCH  10  12
HETATM   12  N   MOL     1     -51.285  -5.382  16.785  1.00  0.00    -0.367 N 
BRANCH  12  13
HETATM   13  C   MOL     1     -50.995  -5.179  15.361  1.00  0.00     0.120 C 
HETATM   14  C   MOL     1     -50.208  -3.905  15.132  1.00  0.00     0.026 C 
ENDBRANCH  12  13
BRANCH  12  15
HETATM   15  C   MOL     1     -52.685  -5.718  17.053  1.00  0.00     0.120 C 
HETATM   16  C   MOL     1     -53.613  -5.084  16.038  1.00  0.00     0.026 C 
ENDBRANCH  12  15
ENDBRANCH  10  12
ENDBRANCH   1  10
TORSDOF 9
ENDMDL
MODEL 4
REMARK VINA RESULT:      -3.9      1.727      2.702
REMARK  9 active torsions:
REMARK  status: ('A' for Active; 'I' for Inactive)
REMARK    1  A    between atoms: S_1  and  S_2 
REMARK    2  A    between atoms: S_1  and  C_15 
REMARK    3  A    between atoms: S_2  and  C_16 
REMARK    4  A    between atoms: N_5  and  C_7 
REMARK    5  A    between atoms: N_5  and  C_8 
REMARK    6  A    between atoms: N_5  and  C_15 
REMARK    7  A    between atoms: N_6  and  C_9 
REMARK    8  A    between atoms: N_6  and  C_10 
REMARK    9  A    between atoms: N_6  and  C_16 
ROOT
HETATM    1  S   MOL     1     -51.580  -7.636  18.410  1.00  0.00    -0.020 SA
ENDROOT
BRANCH   1   2
HETATM    2  S   MOL     1     -51.332  -5.625  18.794  1.00  0.00    -0.020 SA
BRANCH   2   3
HETATM    3  C   MOL     1     -50.722  -5.037  17.231  1.00  0.00     0.147 C 
HETATM    4  S   MOL     1     -49.072  -5.209  16.902  1.00  0.00    -0.052 SA
BRANCH   3   5
HETATM    5  N   MOL     1     -51.677  -4.484  16.353  1.00  0.00    -0.367 N 
BRANCH   5   6
HETATM    6  C   MOL     1     -51.800  -3.040  16.140  1.00  0.00     0.120 C 
HETATM    7  C   MOL     1     -51.313  -2.638  14.764  1.00  0.00     0.026 C 
ENDBRANCH   5   6
BRANCH   5   8
HETATM    8  C   MOL     1     -52.620  -5.275  15.555  1.00  0.00     0.120 C 
HETATM    9  C   MOL     1     -54.044  -5.091  16.037  1.00  0.00     0.026 C 
ENDBRANCH   5   8
ENDBRANCH   3   5
ENDBRANCH   2   3
ENDBRANCH   1   2
BRANCH   1  10
HETATM   10  C   MOL     1     -50.303  -8.350  19.418  1.00  0.00     0.147 C 
HETATM   11  S   MOL     1     -48.901  -8.910  18.654  1.00  0.00    -0.052 SA
BRANCH  10  12
HETATM   12  N   MOL     1     -50.543  -8.377  20.806  1.00  0.00    -0.367 N 
BRANCH  12  13
HETATM   13  C   MOL     1     -49.492  -8.500  21.823  1.00  0.00     0.120 C 
HETATM   14  C   MOL     1     -49.470  -9.887  22.432  1.00  0.00     0.026 C 
ENDBRANCH  12  13
BRANCH  12  15
HETATM   15  C   MOL     1     -51.893  -8.302  21.369  1.00  0.00     0.120 C 
HETATM   16  C   MOL     1     -52.051  -7.099  22.276  1.00  0.00     0.026 C 
ENDBRANCH  12  15
ENDBRANCH  10  12
ENDBRANCH   1  10
TORSDOF 9
ENDMDL
MODEL 5
REMARK VINA RESULT:      -3.9      9.810     12.623
REMARK  9 active torsions:
REMARK  status: ('A' for Active; 'I' for Inactive)
REMARK    1  A    between atoms: S_1  and  S_2 
REMARK    2  A    between atoms: S_1  and  C_15 
REMARK    3  A    between atoms: S_2  and  C_16 
REMARK    4  A    between atoms: N_5  and  C_7 
REMARK    5  A    between atoms: N_5  and  C_8 
REMARK    6  A    between atoms: N_5  and  C_15 
REMARK    7  A    between atoms: N_6  and  C_9 
REMARK    8  A    between atoms: N_6  and  C_10 
REMARK    9  A    between atoms: N_6  and  C_16 
ROOT
HETATM    1  S   MOL     1     -46.101 -16.463  24.294  1.00  0.00    -0.020 SA
ENDROOT
BRANCH   1   2
HETATM    2  S   MOL     1     -46.451 -17.577  25.994  1.00  0.00    -0.020 SA
BRANCH   2   3
HETATM    3  C   MOL     1     -46.580 -16.307  27.231  1.00  0.00     0.147 C 
HETATM    4  S   MOL     1     -45.151 -15.658  27.859  1.00  0.00    -0.052 SA
BRANCH   3   5
HETATM    5  N   MOL     1     -47.885 -15.909  27.586  1.00  0.00    -0.367 N 
BRANCH   5   6
HETATM    6  C   MOL     1     -48.183 -15.261  28.866  1.00  0.00     0.120 C 
HETATM    7  C   MOL     1     -48.411 -13.774  28.696  1.00  0.00     0.026 C 
ENDBRANCH   5   6
BRANCH   5   8
HETATM    8  C   MOL     1     -49.061 -16.073  26.726  1.00  0.00     0.120 C 
HETATM    9  C   MOL     1     -50.216 -16.697  27.480  1.00  0.00     0.026 C 
ENDBRANCH   5   8
ENDBRANCH   3   5
ENDBRANCH   2   3
ENDBRANCH   1   2
BRANCH   1  10
HETATM   10  C   MOL     1     -47.373 -17.062  23.208  1.00  0.00     0.147 C 
HETATM   11  S   MOL     1     -48.244 -18.434  23.678  1.00  0.00    -0.052 SA
BRANCH  10  12
HETATM   12  N   MOL     1     -47.584 -16.326  22.025  1.00  0.00    -0.367 N 
BRANCH  12  13
HETATM   13  C   MOL     1     -47.704 -16.924  20.691  1.00  0.00     0.120 C 
HETATM   14  C   MOL     1     -46.588 -17.915  20.426  1.00  0.00     0.026 C 
ENDBRANCH  12  13
BRANCH  12  15
HETATM   15  C   MOL     1     -47.686 -14.864  22.020  1.00  0.00     0.120 C 
HETATM   16  C   MOL     1     -47.322 -14.286  20.668  1.00  0.00     0.026 C 
ENDBRANCH  12  15
ENDBRANCH  10  12
ENDBRANCH   1  10
TORSDOF 9
ENDMDL
MODEL 6
REMARK VINA RESULT:      -3.8      5.876      8.226
REMARK  9 active torsions:
REMARK  status: ('A' for Active; 'I' for Inactive)
REMARK    1  A    between atoms: S_1  and  S_2 
REMARK    2  A    between atoms: S_1  and  C_15 
REMARK    3  A    between atoms: S_2  and  C_16 
REMARK    4  A    between atoms: N_5  and  C_7 
REMARK    5  A    between atoms: N_5  and  C_8 
REMARK    6  A    between atoms: N_5  and  C_15 
REMARK    7  A    between atoms: N_6  and  C_9 
REMARK    8  A    between atoms: N_6  and  C_10 
REMARK    9  A    between atoms: N_6  and  C_16 
ROOT
HETATM    1  S   MOL     1     -47.853  -2.373  17.292  1.00  0.00    -0.020 SA
ENDROOT
BRANCH   1   2
HETATM    2  S   MOL     1     -47.242  -0.495  16.699  1.00  0.00    -0.020 SA
BRANCH   2   3
HETATM    3  C   MOL     1     -45.474  -0.643  16.815  1.00  0.00     0.147 C 
HETATM    4  S   MOL     1     -44.626  -1.166  15.449  1.00  0.00    -0.052 SA
BRANCH   3   5
HETATM    5  N   MOL     1     -44.895  -0.283  18.050  1.00  0.00    -0.367 N 
BRANCH   5   6
HETATM    6  C   MOL     1     -44.588  -1.271  19.087  1.00  0.00     0.120 C 
HETATM    7  C   MOL     1     -43.109  -1.595  19.124  1.00  0.00     0.026 C 
ENDBRANCH   5   6
BRANCH   5   8
HETATM    8  C   MOL     1     -44.523   1.087  18.419  1.00  0.00     0.120 C 
HETATM    9  C   MOL     1     -45.312   1.571  19.617  1.00  0.00     0.026 C 
ENDBRANCH   5   8
ENDBRANCH   3   5
ENDBRANCH   2   3
ENDBRANCH   1   2
BRANCH   1  10
HETATM   10  C   MOL     1     -48.843  -2.879  15.907  1.00  0.00     0.147 C 
HETATM   11  S   MOL     1     -48.611  -2.090  14.428  1.00  0.00    -0.052 SA
BRANCH  10  12
HETATM   12  N   MOL     1     -49.749  -3.934  16.137  1.00  0.00    -0.367 N 
BRANCH  12  13
HETATM   13  C   MOL     1     -49.815  -4.708  17.381  1.00  0.00     0.120 C 
HETATM   14  C   MOL     1     -49.772  -6.198  17.110  1.00  0.00     0.026 C 
ENDBRANCH  12  13
BRANCH  12  15
HETATM   15  C   MOL     1     -50.714  -4.373  15.125  1.00  0.00     0.120 C 
HETATM   16  C   MOL     1     -52.047  -3.673  15.288  1.00  0.00     0.026 C 
ENDBRANCH  12  15
ENDBRANCH  10  12
ENDBRANCH   1  10
TORSDOF 9
ENDMDL
MODEL 7
REMARK VINA RESULT:      -3.8      4.344      6.341
REMARK  9 active torsions:
REMARK  status: ('A' for Active; 'I' for Inactive)
REMARK    1  A    between atoms: S_1  and  S_2 
REMARK    2  A    between atoms: S_1  and  C_15 
REMARK    3  A    between atoms: S_2  and  C_16 
REMARK    4  A    between atoms: N_5  and  C_7 
REMARK    5  A    between atoms: N_5  and  C_8 
REMARK    6  A    between atoms: N_5  and  C_15 
REMARK    7  A    between atoms: N_6  and  C_9 
REMARK    8  A    between atoms: N_6  and  C_10 
REMARK    9  A    between atoms: N_6  and  C_16 
ROOT
HETATM    1  S   MOL     1     -48.268  -4.129  16.967  1.00  0.00    -0.020 SA
ENDROOT
BRANCH   1   2
HETATM    2  S   MOL     1     -49.110  -2.247  16.999  1.00  0.00    -0.020 SA
BRANCH   2   3
HETATM    3  C   MOL     1     -48.000  -1.343  15.945  1.00  0.00     0.147 C 
HETATM    4  S   MOL     1     -48.549  -0.883  14.414  1.00  0.00    -0.052 SA
BRANCH   3   5
HETATM    5  N   MOL     1     -46.729  -1.047  16.481  1.00  0.00    -0.367 N 
BRANCH   5   6
HETATM    6  C   MOL     1     -45.535  -1.822  16.135  1.00  0.00     0.120 C 
HETATM    7  C   MOL     1     -44.619  -1.047  15.211  1.00  0.00     0.026 C 
ENDBRANCH   5   6
BRANCH   5   8
HETATM    8  C   MOL     1     -46.461   0.058  17.408  1.00  0.00     0.120 C 
HETATM    9  C   MOL     1     -46.021  -0.451  18.764  1.00  0.00     0.026 C 
ENDBRANCH   5   8
ENDBRANCH   3   5
ENDBRANCH   2   3
ENDBRANCH   1   2
BRANCH   1  10
HETATM   10  C   MOL     1     -49.651  -5.129  16.475  1.00  0.00     0.147 C 
HETATM   11  S   MOL     1     -50.512  -4.677  15.091  1.00  0.00    -0.052 SA
BRANCH  10  12
HETATM   12  N   MOL     1     -49.921  -6.260  17.272  1.00  0.00    -0.367 N 
BRANCH  12  13
HETATM   13  C   MOL     1     -51.238  -6.578  17.833  1.00  0.00     0.120 C 
HETATM   14  C   MOL     1     -51.679  -5.533  18.838  1.00  0.00     0.026 C 
ENDBRANCH  12  13
BRANCH  12  15
HETATM   15  C   MOL     1     -48.884  -7.229  17.633  1.00  0.00     0.120 C 
HETATM   16  C   MOL     1     -49.440  -8.636  17.710  1.00  0.00     0.026 C 
ENDBRANCH  12  15
ENDBRANCH  10  12
ENDBRANCH   1  10
TORSDOF 9
ENDMDL
MODEL 8
REMARK VINA RESULT:      -3.8      5.827      8.037
REMARK  9 active torsions:
REMARK  status: ('A' for Active; 'I' for Inactive)
REMARK    1  A    between atoms: S_1  and  S_2 
REMARK    2  A    between atoms: S_1  and  C_15 
REMARK    3  A    between atoms: S_2  and  C_16 
REMARK    4  A    between atoms: N_5  and  C_7 
REMARK    5  A    between atoms: N_5  and  C_8 
REMARK    6  A    between atoms: N_5  and  C_15 
REMARK    7  A    between atoms: N_6  and  C_9 
REMARK    8  A    between atoms: N_6  and  C_10 
REMARK    9  A    between atoms: N_6  and  C_16 
ROOT
HETATM    1  S   MOL     1     -47.386  -0.489  16.780  1.00  0.00    -0.020 SA
ENDROOT
BRANCH   1   2
HETATM    2  S   MOL     1     -47.623  -2.537  16.820  1.00  0.00    -0.020 SA
BRANCH   2   3
HETATM    3  C   MOL     1     -49.373  -2.697  16.551  1.00  0.00     0.147 C 
HETATM    4  S   MOL     1     -50.417  -1.819  17.549  1.00  0.00    -0.052 SA
BRANCH   3   5
HETATM    5  N   MOL     1     -49.769  -3.538  15.490  1.00  0.00    -0.367 N 
BRANCH   5   6
HETATM    6  C   MOL     1     -49.722  -3.106  14.091  1.00  0.00     0.120 C 
HETATM    7  C   MOL     1     -50.509  -1.830  13.878  1.00  0.00     0.026 C 
ENDBRANCH   5   6
BRANCH   5   8
HETATM    8  C   MOL     1     -50.240  -4.916  15.661  1.00  0.00     0.120 C 
HETATM    9  C   MOL     1     -51.718  -5.038  15.352  1.00  0.00     0.026 C 
ENDBRANCH   5   8
ENDBRANCH   3   5
ENDBRANCH   2   3
ENDBRANCH   1   2
BRANCH   1  10
HETATM   10  C   MOL     1     -46.579  -0.194  18.336  1.00  0.00     0.147 C 
HETATM   11  S   MOL     1     -47.438  -0.520  19.756  1.00  0.00    -0.052 SA
BRANCH  10  12
HETATM   12  N   MOL     1     -45.251   0.275  18.274  1.00  0.00    -0.367 N 
BRANCH  12  13
HETATM   13  C   MOL     1     -44.779   1.503  18.923  1.00  0.00     0.120 C 
HETATM   14  C   MOL     1     -43.274   1.640  18.822  1.00  0.00     0.026 C 
ENDBRANCH  12  13
BRANCH  12  15
HETATM   15  C   MOL     1     -44.207  -0.427  17.524  1.00  0.00     0.120 C 
HETATM   16  C   MOL     1     -44.007  -1.838  18.037  1.00  0.00     0.026 C 
ENDBRANCH  12  15
ENDBRANCH  10  12
ENDBRANCH   1  10
TORSDOF 9
ENDMDL
MODEL 9
REMARK VINA RESULT:      -3.8      1.705      7.054
REMARK  9 active torsions:
REMARK  status: ('A' for Active; 'I' for Inactive)
REMARK    1  A    between atoms: S_1  and  S_2 
REMARK    2  A    between atoms: S_1  and  C_15 
REMARK    3  A    between atoms: S_2  and  C_16 
REMARK    4  A    between atoms: N_5  and  C_7 
REMARK    5  A    between atoms: N_5  and  C_8 
REMARK    6  A    between atoms: N_5  and  C_15 
REMARK    7  A    between atoms: N_6  and  C_9 
REMARK    8  A    between atoms: N_6  and  C_10 
REMARK    9  A    between atoms: N_6  and  C_16 
ROOT
HETATM    1  S   MOL     1     -48.671  -6.719  17.764  1.00  0.00    -0.020 SA
ENDROOT
BRANCH   1   2
HETATM    2  S   MOL     1     -49.422  -8.639  17.799  1.00  0.00    -0.020 SA
BRANCH   2   3
HETATM    3  C   MOL     1     -49.205  -9.075  19.509  1.00  0.00     0.147 C 
HETATM    4  S   MOL     1     -50.336  -8.502  20.627  1.00  0.00    -0.052 SA
BRANCH   3   5
HETATM    5  N   MOL     1     -48.103  -9.901  19.810  1.00  0.00    -0.367 N 
BRANCH   5   6
HETATM    6  C   MOL     1     -46.732  -9.539  19.444  1.00  0.00     0.120 C 
HETATM    7  C   MOL     1     -46.062  -8.728  20.533  1.00  0.00     0.026 C 
ENDBRANCH   5   6
BRANCH   5   8
HETATM    8  C   MOL     1     -48.200 -11.177  20.526  1.00  0.00     0.120 C 
HETATM    9  C   MOL     1     -48.232 -12.350  19.568  1.00  0.00     0.026 C 
ENDBRANCH   5   8
ENDBRANCH   3   5
ENDBRANCH   2   3
ENDBRANCH   1   2
BRANCH   1  10
HETATM   10  C   MOL     1     -50.060  -5.805  17.139  1.00  0.00     0.147 C 
HETATM   11  S   MOL     1     -51.606  -6.237  17.673  1.00  0.00    -0.052 SA
BRANCH  10  12
HETATM   12  N   MOL     1     -49.768  -4.753  16.247  1.00  0.00    -0.367 N 
BRANCH  12  13
HETATM   13  C   MOL     1     -50.470  -4.529  14.978  1.00  0.00     0.120 C 
HETATM   14  C   MOL     1     -51.485  -3.411  15.097  1.00  0.00     0.026 C 
ENDBRANCH  12  13
BRANCH  12  15
HETATM   15  C   MOL     1     -48.703  -3.782  16.505  1.00  0.00     0.120 C 
HETATM   16  C   MOL     1     -48.979  -2.972  17.755  1.00  0.00     0.026 C 
ENDBRANCH  12  15
ENDBRANCH  10  12
ENDBRANCH   1  10
TORSDOF 9
ENDMDL
MODEL 10
REMARK VINA RESULT:      -3.8      1.861      2.635
REMARK  9 active torsions:
REMARK  status: ('A' for Active; 'I' for Inactive)
REMARK    1  A    between atoms: S_1  and  S_2 
REMARK    2  A    between atoms: S_1  and  C_15 
REMARK    3  A    between atoms: S_2  and  C_16 
REMARK    4  A    between atoms: N_5  and  C_7 
REMARK    5  A    between atoms: N_5  and  C_8 
REMARK    6  A    between atoms: N_5  and  C_15 
REMARK    7  A    between atoms: N_6  and  C_9 
REMARK    8  A    between atoms: N_6  and  C_10 
REMARK    9  A    between atoms: N_6  and  C_16 
ROOT
HETATM    1  S   MOL     1     -51.282  -7.668  18.413  1.00  0.00    -0.020 SA
ENDROOT
BRANCH   1   2
HETATM    2  S   MOL     1     -49.815  -6.630  17.402  1.00  0.00    -0.020 SA
BRANCH   2   3
HETATM    3  C   MOL     1     -50.586  -5.043  17.187  1.00  0.00     0.147 C 
HETATM    4  S   MOL     1     -50.580  -3.970  18.494  1.00  0.00    -0.052 SA
BRANCH   3   5
HETATM    5  N   MOL     1     -51.132  -4.779  15.914  1.00  0.00    -0.367 N 
BRANCH   5   6
HETATM    6  C   MOL     1     -52.435  -5.305  15.499  1.00  0.00     0.120 C 
HETATM    7  C   MOL     1     -53.540  -4.847  16.428  1.00  0.00     0.026 C 
ENDBRANCH   5   6
BRANCH   5   8
HETATM    8  C   MOL     1     -50.484  -3.950  14.894  1.00  0.00     0.120 C 
HETATM    9  C   MOL     1     -51.076  -2.557  14.853  1.00  0.00     0.026 C 
ENDBRANCH   5   8
ENDBRANCH   3   5
ENDBRANCH   2   3
ENDBRANCH   1   2
BRANCH   1  10
HETATM   10  C   MOL     1     -50.337  -8.477  19.681  1.00  0.00     0.147 C 
HETATM   11  S   MOL     1     -48.987  -9.384  19.215  1.00  0.00    -0.052 SA
BRANCH  10  12
HETATM   12  N   MOL     1     -50.773  -8.282  21.007  1.00  0.00    -0.367 N 
BRANCH  12  13
HETATM   13  C   MOL     1     -51.772  -7.287  21.409  1.00  0.00     0.120 C 
HETATM   14  C   MOL     1     -52.835  -7.897  22.300  1.00  0.00     0.026 C 
ENDBRANCH  12  13
BRANCH  12  15
HETATM   15  C   MOL     1     -50.241  -9.061  22.129  1.00  0.00     0.120 C 
HETATM   16  C   MOL     1     -49.154  -8.306  22.864  1.00  0.00     0.026 C 
ENDBRANCH  12  15
ENDBRANCH  10  12
ENDBRANCH   1  10
TORSDOF 9
ENDMDL
