Baricitinib.pdb
 OpenBabel02182114013D

 43 46  0  0  1  0  0  0  0  0999 V2000
   10.4870   -1.1530   18.6530 S   0  0  0  0  0  0  0  0  0  0  0  0
    9.3380   -1.1170   19.4970 O   0  0  0  0  0  0  0  0  0  0  0  0
   11.5680   -2.0260   18.9780 O   0  0  0  0  0  0  0  0  0  0  0  0
   11.0860    0.3450   18.6370 N   0  0  0  0  0  0  0  0  0  0  0  0
   10.7230    1.8220   21.1620 N   0  0  0  0  0  0  0  0  0  0  0  0
   11.3230    2.3400   22.2550 N   0  0  0  0  0  0  0  0  0  0  0  0
   10.5940    5.3980   20.1310 N   0  0  0  0  0  0  0  0  0  0  0  0
    7.2770    1.6890   23.9080 N   0  0  0  0  0  0  0  0  0  0  0  0
    7.6270   -1.7000   26.1410 N   0  0  0  0  0  0  0  0  0  0  0  0
    6.2750    0.1610   25.5070 N   0  0  0  0  0  0  0  0  0  0  0  0
   11.2220    1.9650   19.7830 C   0  0  0  0  0  0  0  0  0  0  0  0
   12.1780    0.7780   19.4990 C   0  0  0  0  0  0  0  0  0  0  0  0
   10.2150    1.5110   18.6930 C   0  0  0  0  0  0  0  0  0  0  0  0
   11.9200    3.2880   19.3790 C   0  0  0  0  0  0  0  0  0  0  0  0
    9.9410   -1.5050   16.9620 C   0  0  0  0  0  0  0  0  0  0  0  0
    9.5920    1.2430   21.6310 C   0  0  0  0  0  0  0  0  0  0  0  0
    9.4390    1.3690   22.9670 C   0  0  0  0  0  0  0  0  0  0  0  0
   11.1720    4.4780   19.8030 C   0  0  0  0  0  0  0  0  0  0  0  0
   10.5970    2.0930   23.3110 C   0  0  0  0  0  0  0  0  0  0  0  0
   11.1040   -2.0960   16.1510 C   0  0  0  0  0  0  0  0  0  0  0  0
    8.3880    0.9210   23.8600 C   0  0  2  0  0  0  0  0  0  0  0  0
    8.4780   -0.2270   24.6360 C   0  0  0  0  0  0  0  0  0  0  0  0
    7.4070   -0.5640   25.4360 C   0  0  0  0  0  0  0  0  0  0  0  0
    9.4390   -1.2590   24.8900 C   0  0  0  0  0  0  0  0  0  0  0  0
    6.2940    1.2530   24.7270 C   0  0  0  0  0  0  0  0  0  0  0  0
    8.8960   -2.0930   25.7730 C   0  0  0  0  0  0  0  0  0  0  0  0
    7.0830   -2.0960   26.7080 H   0  0  0  0  0  0  0  0  0  0  0  0
   13.0340    1.0090   19.0350 H   0  0  0  0  0  0  0  0  0  0  0  0
   12.5940    0.2100   20.2080 H   0  0  0  0  0  0  0  0  0  0  0  0
    9.2810    1.3410   19.0060 H   0  0  0  0  0  0  0  0  0  0  0  0
    9.9610    2.0620   17.8990 H   0  0  0  0  0  0  0  0  0  0  0  0
   12.0190    3.3080   18.3840 H   0  0  0  0  0  0  0  0  0  0  0  0
   12.8070    3.3120   19.8390 H   0  0  0  0  0  0  0  0  0  0  0  0
    9.6280   -0.6590   16.5300 H   0  0  0  0  0  0  0  0  0  0  0  0
    9.1910   -2.1650   16.9890 H   0  0  0  0  0  0  0  0  0  0  0  0
    8.9340    0.7690   21.0460 H   0  0  0  0  0  0  0  0  0  0  0  0
   10.8310    2.3800   24.2400 H   0  0  0  0  0  0  0  0  0  0  0  0
   11.9120   -2.1570   16.7370 H   0  0  0  0  0  0  0  0  0  0  0  0
   10.8570   -3.0070   15.8210 H   0  0  0  0  0  0  0  0  0  0  0  0
   11.3000   -1.5080   15.3660 H   0  0  0  0  0  0  0  0  0  0  0  0
   10.3480   -1.3380   24.4800 H   0  0  0  0  0  0  0  0  0  0  0  0
    5.4700    1.8200   24.7560 H   0  0  0  0  0  0  0  0  0  0  0  0
    9.3540   -2.9080   26.1270 H   0  0  0  0  0  0  0  0  0  0  0  0
  1  2  2  0  0  0  0
  1  3  2  0  0  0  0
  1  4  1  0  0  0  0
  1 15  1  0  0  0  0
  4 12  1  0  0  0  0
  4 13  1  0  0  0  0
  5  6  1  0  0  0  0
  5 11  1  0  0  0  0
  5 16  1  0  0  0  0
  6 19  2  0  0  0  0
  7 18  3  0  0  0  0
  8 21  1  0  0  0  0
  8 25  2  0  0  0  0
  9 23  1  0  0  0  0
  9 26  1  0  0  0  0
  9 27  1  0  0  0  0
 10 23  1  0  0  0  0
 10 25  1  0  0  0  0
 11 12  1  0  0  0  0
 11 13  1  0  0  0  0
 11 14  1  0  0  0  0
 12 28  1  0  0  0  0
 12 29  1  0  0  0  0
 13 30  1  0  0  0  0
 13 31  1  0  0  0  0
 14 18  1  0  0  0  0
 14 32  1  0  0  0  0
 14 33  1  0  0  0  0
 15 20  1  0  0  0  0
 15 34  1  0  0  0  0
 15 35  1  0  0  0  0
 16 17  2  0  0  0  0
 16 36  1  0  0  0  0
 17 19  1  0  0  0  0
 19 37  1  0  0  0  0
 20 38  1  0  0  0  0
 20 39  1  0  0  0  0
 20 40  1  0  0  0  0
 21 17  1  6  0  0  0
 21 22  1  0  0  0  0
 22 23  2  0  0  0  0
 22 24  1  0  0  0  0
 24 26  2  0  0  0  0
 24 41  1  0  0  0  0
 25 42  1  0  0  0  0
 26 43  1  0  0  0  0
M  END
>  <HEADER>
                                                                          

>  <TITLE>
    44205240_D                                                            

>  <MASTER>
        0    0    0    0    0    0    0    0   43    0   43    0          

$$$$
