Baricitinib.pdb
  RxDock  02242101533D
librxdock.so/0.1.0
 27 30  0  0  0  0  0  0  0  0999 V2000
  -44.5751   -0.5597   19.4526 S   0  0  0  0  0  0
  -45.2863   -1.7595   19.7501 O   0  0  0  0  0  0
  -44.9805    0.6647   20.0632 O   0  0  0  0  0  0
  -44.6912   -0.3464   17.8576 N   0  0  0  0  0  0
  -46.3167   -2.3820   16.4782 N   0  0  0  0  0  0
  -46.0625   -3.3410   17.3939 N   0  0  0  0  0  0
  -47.6410    0.0976   13.8141 N   0  0  0  0  0  0
  -50.0485   -4.0453   15.2196 N   0  0  0  0  0  0
  -51.0901   -7.4425   17.2116 N   0  0  0  0  0  0
  -51.6454   -5.8487   15.5250 N   0  0  0  0  0  0
  -45.4657   -1.2032   16.2383 C   0  0  0  0  0  0
  -45.9501   -0.0694   17.1782 C   0  0  0  0  0  0
  -44.0739   -1.2753   16.9210 C   0  0  0  0  0  0
  -45.3493   -0.6523   14.7949 C   0  0  0  0  0  0
  -42.8200   -0.8351   19.8067 C   0  0  0  0  0  0
  -47.5063   -2.7317   15.9333 C   0  0  0  0  0  0
  -48.0249   -3.8630   16.4581 C   0  0  0  0  0  0
  -46.6419   -0.2295   14.2417 C   0  0  0  0  0  0
  -47.0385   -4.2074   17.4025 C   0  0  0  0  0  0
  -42.0232    0.4469   19.5217 C   0  0  0  0  0  0
  -49.2597   -4.5717   16.1824 C   0  0  0  0  0  0
  -49.6443   -5.7295   16.8455 C   0  0  0  0  0  0
  -50.8335   -6.3272   16.4862 C   0  0  0  0  0  0
  -49.1394   -6.5645   17.8947 C   0  0  0  0  0  0
  -51.1873   -4.7237   14.9544 C   0  0  0  0  0  0
  -50.0172   -7.5488   18.0705 C   0  0  0  0  0  0
  -51.7864   -7.9770   17.1498 H   0  0  0  0  0  0
  1  2  2  0  0  0
  1  3  2  0  0  0
  1  4  1  0  0  0
  1 15  1  0  0  0
  4 12  1  0  0  0
  4 13  1  0  0  0
  5  6  1  0  0  0
  5 11  1  0  0  0
  5 16  1  0  0  0
  6 19  2  0  0  0
  7 18  3  0  0  0
  8 21  1  0  0  0
  8 25  2  0  0  0
  9 23  1  0  0  0
  9 26  1  0  0  0
  9 27  1  0  0  0
 10 23  1  0  0  0
 10 25  1  0  0  0
 11 12  1  0  0  0
 11 13  1  0  0  0
 11 14  1  0  0  0
 14 18  1  0  0  0
 15 20  1  0  0  0
 16 17  2  0  0  0
 17 19  1  0  0  0
 21 17  1  0  0  0
 21 22  1  0  0  0
 22 23  2  0  0  0
 22 24  1  0  0  0
 24 26  2  0  0  0
M  END
>  <CHROM.0>
56.47693416,64.17978371,-63.02821998

>  <CHROM.1>
65.86768804,-178.98412565,-89.46814207,60.16965248,1.14054235,-46.99868464
-2.70254670,17.17546656,-0.19632242,0.75188642,2.21754755

>  <HEADER>
                                                                          

>  <MASTER>
        0    0    0    0    0    0    0    0   43    0   43    0          

>  <Name>
Baricitinib.pdb

>  <RI>
-9.78537e+08

>  <Rbt.Current_Directory>
/root/miniconda3/envs/rdock/share/rxdock-2013.1.1_148c5bd1-0/data/ligands/prepped_ligands/Baricitinib

>  <Rbt.Executable>
rbdock/0.1.0

>  <Rbt.Library>
librxdock.so/0.1.0

>  <Rbt.Parameter_File>
/root/miniconda3/envs/rdock/share/rxdock-2013.1.1_148c5bd1-0/data/scripts/dock.prm

>  <Rbt.Receptor>
def.prm

>  <SCORE>
-11.8646

>  <SCORE.INTER>
-9.59695

>  <SCORE.INTER.CONST>
1

>  <SCORE.INTER.POLAR>
-0.51152

>  <SCORE.INTER.REPUL>
0.0632273

>  <SCORE.INTER.ROT>
5

>  <SCORE.INTER.VDW>
-18.5739

>  <SCORE.INTER.norm>
-0.369114

>  <SCORE.INTRA>
-1.27661

>  <SCORE.INTRA.DIHEDRAL>
-2.72381

>  <SCORE.INTRA.DIHEDRAL.0>
6.89936

>  <SCORE.INTRA.POLAR>
0

>  <SCORE.INTRA.POLAR.0>
0

>  <SCORE.INTRA.REPUL>
0

>  <SCORE.INTRA.REPUL.0>
0

>  <SCORE.INTRA.VDW>
0.0852927

>  <SCORE.INTRA.VDW.0>
-2.33692

>  <SCORE.INTRA.norm>
-0.0491005

>  <SCORE.RESTR>
7.00367e-05

>  <SCORE.RESTR.CAVITY>
7.00367e-05

>  <SCORE.RESTR.norm>
2.69372e-06

>  <SCORE.SYSTEM>
-0.991098

>  <SCORE.SYSTEM.CONST>
0

>  <SCORE.SYSTEM.DIHEDRAL>
0.144235

>  <SCORE.SYSTEM.VDW>
-1.06322

>  <SCORE.SYSTEM.norm>
-0.0381191

>  <SCORE.heavy>
26

>  <SCORE.norm>
-0.456331

>  <TITLE>
    44205240_D                                                            

$$$$
Baricitinib.pdb
  RxDock  02242101533D
librxdock.so/0.1.0
 27 30  0  0  0  0  0  0  0  0999 V2000
  -50.3746   -3.3669   15.7661 S   0  0  0  0  0  0
  -50.9345   -3.0729   17.0443 O   0  0  0  0  0  0
  -49.0226   -3.8151   15.6796 O   0  0  0  0  0  0
  -50.4710   -2.0065   14.9041 N   0  0  0  0  0  0
  -47.9369   -0.5133   14.7098 N   0  0  0  0  0  0
  -46.9328    0.0179   13.9800 N   0  0  0  0  0  0
  -48.2992    1.1677   11.4222 N   0  0  0  0  0  0
  -44.5769   -2.4741   16.7941 N   0  0  0  0  0  0
  -43.0263    0.2402   19.4059 N   0  0  0  0  0  0
  -43.0215   -2.0051   18.5986 N   0  0  0  0  0  0
  -49.3633   -0.4518   14.3455 C   0  0  0  0  0  0
  -49.7371   -1.7930   13.6637 C   0  0  0  0  0  0
  -50.3329   -0.6994   15.5317 C   0  0  0  0  0  0
  -49.8543    0.7223   13.4616 C   0  0  0  0  0  0
  -51.4433   -4.5741   14.9400 C   0  0  0  0  0  0
  -47.3333   -1.0153   15.8134 C   0  0  0  0  0  0
  -45.9958   -0.8276   15.8257 C   0  0  0  0  0  0
  -48.9771    0.9736   12.3115 C   0  0  0  0  0  0
  -45.8005   -0.1492   14.6071 C   0  0  0  0  0  0
  -51.6579   -5.7909   15.8526 C   0  0  0  0  0  0
  -44.9845   -1.1856   16.8013 C   0  0  0  0  0  0
  -44.4386   -0.2851   17.7064 C   0  0  0  0  0  0
  -43.4694   -0.7358   18.5771 C   0  0  0  0  0  0
  -44.5983    1.0967   18.0502 C   0  0  0  0  0  0
  -43.6191   -2.7944   17.6925 C   0  0  0  0  0  0
  -43.7535    1.3544   19.0451 C   0  0  0  0  0  0
  -42.4140    0.1762   20.0346 H   0  0  0  0  0  0
  1  2  2  0  0  0
  1  3  2  0  0  0
  1  4  1  0  0  0
  1 15  1  0  0  0
  4 12  1  0  0  0
  4 13  1  0  0  0
  5  6  1  0  0  0
  5 11  1  0  0  0
  5 16  1  0  0  0
  6 19  2  0  0  0
  7 18  3  0  0  0
  8 21  1  0  0  0
  8 25  2  0  0  0
  9 23  1  0  0  0
  9 26  1  0  0  0
  9 27  1  0  0  0
 10 23  1  0  0  0
 10 25  1  0  0  0
 11 12  1  0  0  0
 11 13  1  0  0  0
 11 14  1  0  0  0
 14 18  1  0  0  0
 15 20  1  0  0  0
 16 17  2  0  0  0
 17 19  1  0  0  0
 21 17  1  0  0  0
 21 22  1  0  0  0
 22 23  2  0  0  0
 22 24  1  0  0  0
 24 26  2  0  0  0
M  END
>  <CHROM.0>
-55.58773741,62.73561692,-55.70384820

>  <CHROM.1>
165.31738189,-53.52607539,97.90916508,45.87659216,79.11971027,-47.54218398
-1.40455104,15.86286631,3.07391145,-0.52666419,-0.71016556

>  <HEADER>
                                                                          

>  <MASTER>
        0    0    0    0    0    0    0    0   43    0   43    0          

>  <Name>
Baricitinib.pdb

>  <RI>
-9.78537e+08

>  <Rbt.Current_Directory>
/root/miniconda3/envs/rdock/share/rxdock-2013.1.1_148c5bd1-0/data/ligands/prepped_ligands/Baricitinib

>  <Rbt.Executable>
rbdock/0.1.0

>  <Rbt.Library>
librxdock.so/0.1.0

>  <Rbt.Parameter_File>
/root/miniconda3/envs/rdock/share/rxdock-2013.1.1_148c5bd1-0/data/scripts/dock.prm

>  <Rbt.Receptor>
def.prm

>  <SCORE>
-13.6131

>  <SCORE.INTER>
-11.6012

>  <SCORE.INTER.CONST>
1

>  <SCORE.INTER.POLAR>
-0.21169

>  <SCORE.INTER.REPUL>
0.0712701

>  <SCORE.INTER.ROT>
5

>  <SCORE.INTER.VDW>
-21.6378

>  <SCORE.INTER.norm>
-0.446201

>  <SCORE.INTRA>
-1.06276

>  <SCORE.INTRA.DIHEDRAL>
-1.78444

>  <SCORE.INTRA.DIHEDRAL.0>
6.89936

>  <SCORE.INTRA.POLAR>
0

>  <SCORE.INTRA.POLAR.0>
0

>  <SCORE.INTRA.REPUL>
0

>  <SCORE.INTRA.REPUL.0>
0

>  <SCORE.INTRA.VDW>
-0.170545

>  <SCORE.INTRA.VDW.0>
-2.33692

>  <SCORE.INTRA.norm>
-0.0408755

>  <SCORE.RESTR>
0.0105445

>  <SCORE.RESTR.CAVITY>
0.0105445

>  <SCORE.RESTR.norm>
0.000405559

>  <SCORE.SYSTEM>
-0.959647

>  <SCORE.SYSTEM.CONST>
0

>  <SCORE.SYSTEM.DIHEDRAL>
0.123527

>  <SCORE.SYSTEM.POLAR>
-0.0102187

>  <SCORE.SYSTEM.VDW>
-0.986667

>  <SCORE.SYSTEM.norm>
-0.0369095

>  <SCORE.heavy>
26

>  <SCORE.norm>
-0.52358

>  <TITLE>
    44205240_D                                                            

$$$$
Baricitinib.pdb
  RxDock  02242101533D
librxdock.so/0.1.0
 27 30  0  0  0  0  0  0  0  0999 V2000
  -53.7147   -5.2194   16.1025 S   0  0  0  0  0  0
  -52.6736   -4.7773   15.2338 O   0  0  0  0  0  0
  -54.8487   -4.3810   16.3204 O   0  0  0  0  0  0
  -53.0312   -5.4631   17.5434 N   0  0  0  0  0  0
  -50.2613   -4.4769   17.7529 N   0  0  0  0  0  0
  -50.2695   -4.2676   16.4190 N   0  0  0  0  0  0
  -48.5871   -6.4094   20.3616 N   0  0  0  0  0  0
  -47.0836   -1.6455   18.3593 N   0  0  0  0  0  0
  -44.3893   -1.6368   15.3040 N   0  0  0  0  0  0
  -44.9816   -0.8208   17.4665 N   0  0  0  0  0  0
  -51.3027   -5.2096   18.4943 C   0  0  0  0  0  0
  -52.6099   -4.3793   18.4214 C   0  0  0  0  0  0
  -51.9249   -6.3956   17.7104 C   0  0  0  0  0  0
  -51.0296   -5.5997   19.9688 C   0  0  0  0  0  0
  -54.2883   -6.8383   15.5266 C   0  0  0  0  0  0
  -49.1622   -3.8227   18.1981 C   0  0  0  0  0  0
  -48.4715   -3.2040   17.2160 C   0  0  0  0  0  0
  -49.6521   -6.0565   20.1902 C   0  0  0  0  0  0
  -49.2451   -3.5311   16.0855 C   0  0  0  0  0  0
  -54.9680   -6.6936   14.1567 C   0  0  0  0  0  0
  -47.2680   -2.3958   17.2504 C   0  0  0  0  0  0
  -46.3325   -2.3685   16.2247 C   0  0  0  0  0  0
  -45.2158   -1.5743   16.3759 C   0  0  0  0  0  0
  -46.1635   -2.9622   14.9316 C   0  0  0  0  0  0
  -45.9491   -0.9114   18.3922 C   0  0  0  0  0  0
  -45.0166   -2.5048   14.4361 C   0  0  0  0  0  0
  -43.6255   -1.2158   15.1874 H   0  0  0  0  0  0
  1  2  2  0  0  0
  1  3  2  0  0  0
  1  4  1  0  0  0
  1 15  1  0  0  0
  4 12  1  0  0  0
  4 13  1  0  0  0
  5  6  1  0  0  0
  5 11  1  0  0  0
  5 16  1  0  0  0
  6 19  2  0  0  0
  7 18  3  0  0  0
  8 21  1  0  0  0
  8 25  2  0  0  0
  9 23  1  0  0  0
  9 26  1  0  0  0
  9 27  1  0  0  0
 10 23  1  0  0  0
 10 25  1  0  0  0
 11 12  1  0  0  0
 11 13  1  0  0  0
 11 14  1  0  0  0
 14 18  1  0  0  0
 15 20  1  0  0  0
 16 17  2  0  0  0
 17 19  1  0  0  0
 21 17  1  0  0  0
 21 22  1  0  0  0
 22 23  2  0  0  0
 22 24  1  0  0  0
 24 26  2  0  0  0
M  END
>  <CHROM.0>
179.93971110,62.63295362,30.17138125

>  <CHROM.1>
73.41834787,-66.49713099,-66.73814889,-40.17618901,-32.70931079,-49.87654202
-4.07787908,17.01111644,3.04017297,0.43516067,1.85065192

>  <HEADER>
                                                                          

>  <MASTER>
        0    0    0    0    0    0    0    0   43    0   43    0          

>  <Name>
Baricitinib.pdb

>  <RI>
-9.78537e+08

>  <Rbt.Current_Directory>
/root/miniconda3/envs/rdock/share/rxdock-2013.1.1_148c5bd1-0/data/ligands/prepped_ligands/Baricitinib

>  <Rbt.Executable>
rbdock/0.1.0

>  <Rbt.Library>
librxdock.so/0.1.0

>  <Rbt.Parameter_File>
/root/miniconda3/envs/rdock/share/rxdock-2013.1.1_148c5bd1-0/data/scripts/dock.prm

>  <Rbt.Receptor>
def.prm

>  <SCORE>
-15.7093

>  <SCORE.INTER>
-14.7155

>  <SCORE.INTER.CONST>
1

>  <SCORE.INTER.POLAR>
-1.59488

>  <SCORE.INTER.REPUL>
0

>  <SCORE.INTER.ROT>
5

>  <SCORE.INTER.VDW>
-19.6929

>  <SCORE.INTER.norm>
-0.565981

>  <SCORE.INTRA>
-1.04725

>  <SCORE.INTRA.DIHEDRAL>
-1.38979

>  <SCORE.INTRA.DIHEDRAL.0>
6.89936

>  <SCORE.INTRA.POLAR>
0

>  <SCORE.INTRA.POLAR.0>
0

>  <SCORE.INTRA.REPUL>
0

>  <SCORE.INTRA.REPUL.0>
0

>  <SCORE.INTRA.VDW>
-0.352353

>  <SCORE.INTRA.VDW.0>
-2.33692

>  <SCORE.INTRA.norm>
-0.0402787

>  <SCORE.RESTR>
0

>  <SCORE.RESTR.CAVITY>
0

>  <SCORE.RESTR.norm>
0

>  <SCORE.SYSTEM>
0.053451

>  <SCORE.SYSTEM.CONST>
0

>  <SCORE.SYSTEM.DIHEDRAL>
1.83372

>  <SCORE.SYSTEM.VDW>
-0.863411

>  <SCORE.SYSTEM.norm>
0.00205581

>  <SCORE.heavy>
26

>  <SCORE.norm>
-0.604204

>  <TITLE>
    44205240_D                                                            

$$$$
Baricitinib.pdb
  RxDock  02242101533D
librxdock.so/0.1.0
 27 30  0  0  0  0  0  0  0  0999 V2000
  -50.0104   -0.8978   13.8380 S   0  0  0  0  0  0
  -50.0502    0.0072   12.7365 O   0  0  0  0  0  0
  -51.1962   -1.1303   14.5970 O   0  0  0  0  0  0
  -48.9071   -0.3180   14.8626 N   0  0  0  0  0  0
  -47.9664   -2.2694   16.8616 N   0  0  0  0  0  0
  -46.9743   -3.1810   16.7741 N   0  0  0  0  0  0
  -44.4376   -0.9770   17.2689 N   0  0  0  0  0  0
  -50.4647   -4.8539   19.2049 N   0  0  0  0  0  0
  -49.8289   -8.8046   18.4421 N   0  0  0  0  0  0
  -51.1129   -7.1602   19.6000 N   0  0  0  0  0  0
  -47.8475   -0.8575   16.4571 C   0  0  0  0  0  0
  -47.5426   -0.8236   14.9374 C   0  0  0  0  0  0
  -49.2075   -0.1323   16.2756 C   0  0  0  0  0  0
  -46.8306    0.0450   17.2001 C   0  0  0  0  0  0
  -49.3753   -2.4878   13.2463 C   0  0  0  0  0  0
  -48.9949   -2.9332   17.4413 C   0  0  0  0  0  0
  -48.7072   -4.2206   17.7310 C   0  0  0  0  0  0
  -45.4810   -0.5316   17.2390 C   0  0  0  0  0  0
  -47.3787   -4.3169   17.2736 C   0  0  0  0  0  0
  -49.6526   -3.5807   14.2895 C   0  0  0  0  0  0
  -49.4969   -5.2642   18.3556 C   0  0  0  0  0  0
  -49.3031   -6.6187   18.1189 C   0  0  0  0  0  0
  -50.1273   -7.5209   18.7570 C   0  0  0  0  0  0
  -48.4178   -7.4416   17.3494 C   0  0  0  0  0  0
  -51.2096   -5.8320   19.7666 C   0  0  0  0  0  0
  -48.7649   -8.7067   17.5711 C   0  0  0  0  0  0
  -50.2239   -9.5359   18.7309 H   0  0  0  0  0  0
  1  2  2  0  0  0
  1  3  2  0  0  0
  1  4  1  0  0  0
  1 15  1  0  0  0
  4 12  1  0  0  0
  4 13  1  0  0  0
  5  6  1  0  0  0
  5 11  1  0  0  0
  5 16  1  0  0  0
  6 19  2  0  0  0
  7 18  3  0  0  0
  8 21  1  0  0  0
  8 25  2  0  0  0
  9 23  1  0  0  0
  9 26  1  0  0  0
  9 27  1  0  0  0
 10 23  1  0  0  0
 10 25  1  0  0  0
 11 12  1  0  0  0
 11 13  1  0  0  0
 11 14  1  0  0  0
 14 18  1  0  0  0
 15 20  1  0  0  0
 16 17  2  0  0  0
 17 19  1  0  0  0
 21 17  1  0  0  0
 21 22  1  0  0  0
 22 23  2  0  0  0
 22 24  1  0  0  0
 24 26  2  0  0  0
M  END
>  <CHROM.0>
-64.98164517,176.76000876,-58.98331201

>  <CHROM.1>
-99.44194350,-165.43608525,61.96977212,52.27004814,-26.74152026,-48.91226152
-3.30334803,16.55661173,1.38721915,-0.57117191,-0.61716619

>  <HEADER>
                                                                          

>  <MASTER>
        0    0    0    0    0    0    0    0   43    0   43    0          

>  <Name>
Baricitinib.pdb

>  <RI>
-9.78537e+08

>  <Rbt.Current_Directory>
/root/miniconda3/envs/rdock/share/rxdock-2013.1.1_148c5bd1-0/data/ligands/prepped_ligands/Baricitinib

>  <Rbt.Executable>
rbdock/0.1.0

>  <Rbt.Library>
librxdock.so/0.1.0

>  <Rbt.Parameter_File>
/root/miniconda3/envs/rdock/share/rxdock-2013.1.1_148c5bd1-0/data/scripts/dock.prm

>  <Rbt.Receptor>
def.prm

>  <SCORE>
-8.88867

>  <SCORE.INTER>
-8.47318

>  <SCORE.INTER.CONST>
1

>  <SCORE.INTER.POLAR>
0

>  <SCORE.INTER.REPUL>
0.00990537

>  <SCORE.INTER.ROT>
5

>  <SCORE.INTER.VDW>
-18.9227

>  <SCORE.INTER.norm>
-0.325892

>  <SCORE.INTRA>
0.605567

>  <SCORE.INTRA.DIHEDRAL>
0.0424545

>  <SCORE.INTRA.DIHEDRAL.0>
6.89936

>  <SCORE.INTRA.POLAR>
0

>  <SCORE.INTRA.POLAR.0>
0

>  <SCORE.INTRA.REPUL>
0

>  <SCORE.INTRA.REPUL.0>
0

>  <SCORE.INTRA.VDW>
0.584339

>  <SCORE.INTRA.VDW.0>
-2.33692

>  <SCORE.INTRA.norm>
0.023291

>  <SCORE.RESTR>
0

>  <SCORE.RESTR.CAVITY>
0

>  <SCORE.RESTR.norm>
0

>  <SCORE.SYSTEM>
-1.02106

>  <SCORE.SYSTEM.CONST>
0

>  <SCORE.SYSTEM.DIHEDRAL>
0.118125

>  <SCORE.SYSTEM.POLAR>
-0.00332682

>  <SCORE.SYSTEM.VDW>
-1.06881

>  <SCORE.SYSTEM.norm>
-0.0392714

>  <SCORE.heavy>
26

>  <SCORE.norm>
-0.341872

>  <TITLE>
    44205240_D                                                            

$$$$
Baricitinib.pdb
  RxDock  02242101533D
librxdock.so/0.1.0
 27 30  0  0  0  0  0  0  0  0999 V2000
  -45.3589   -1.3496   17.7270 S   0  0  0  0  0  0
  -45.9043   -2.6663   17.6733 O   0  0  0  0  0  0
  -44.1966   -1.1045   18.5177 O   0  0  0  0  0  0
  -46.5259   -0.3978   18.3060 N   0  0  0  0  0  0
  -49.1957   -1.6465   18.3538 N   0  0  0  0  0  0
  -50.2059   -1.7944   17.4703 N   0  0  0  0  0  0
  -51.4390    1.3718   17.8863 N   0  0  0  0  0  0
  -48.8709   -5.8255   19.2093 N   0  0  0  0  0  0
  -52.0345   -8.0181   17.8757 N   0  0  0  0  0  0
  -49.9602   -7.9900   19.0545 N   0  0  0  0  0  0
  -48.4902   -0.3803   18.6184 C   0  0  0  0  0  0
  -47.2708   -0.6965   19.5221 C   0  0  0  0  0  0
  -47.5918    0.1026   17.4488 C   0  0  0  0  0  0
  -49.2858    0.7991   19.2323 C   0  0  0  0  0  0
  -45.0391   -0.7959   16.0322 C   0  0  0  0  0  0
  -48.9769   -2.8918   18.8394 C   0  0  0  0  0  0
  -49.7940   -3.8264   18.3074 C   0  0  0  0  0  0
  -50.5001    1.1222   18.4730 C   0  0  0  0  0  0
  -50.5667   -3.0478   17.4242 C   0  0  0  0  0  0
  -43.9833   -1.7001   15.3787 C   0  0  0  0  0  0
  -49.8900   -5.2563   18.5283 C   0  0  0  0  0  0
  -50.9529   -6.0317   18.0841 C   0  0  0  0  0  0
  -50.9450   -7.3807   18.3683 C   0  0  0  0  0  0
  -52.1637   -5.8406   17.3422 C   0  0  0  0  0  0
  -48.9785   -7.1549   19.4289 C   0  0  0  0  0  0
  -52.7584   -7.0270   17.2479 C   0  0  0  0  0  0
  -52.2335   -8.8727   17.9400 H   0  0  0  0  0  0
  1  2  2  0  0  0
  1  3  2  0  0  0
  1  4  1  0  0  0
  1 15  1  0  0  0
  4 12  1  0  0  0
  4 13  1  0  0  0
  5  6  1  0  0  0
  5 11  1  0  0  0
  5 16  1  0  0  0
  6 19  2  0  0  0
  7 18  3  0  0  0
  8 21  1  0  0  0
  8 25  2  0  0  0
  9 23  1  0  0  0
  9 26  1  0  0  0
  9 27  1  0  0  0
 10 23  1  0  0  0
 10 25  1  0  0  0
 11 12  1  0  0  0
 11 13  1  0  0  0
 11 14  1  0  0  0
 14 18  1  0  0  0
 15 20  1  0  0  0
 16 17  2  0  0  0
 17 19  1  0  0  0
 21 17  1  0  0  0
 21 22  1  0  0  0
 22 23  2  0  0  0
 22 24  1  0  0  0
 24 26  2  0  0  0
M  END
>  <CHROM.0>
-54.71650098,-61.14110738,58.14445424

>  <CHROM.1>
50.74949088,-63.14174487,-171.24373128,-53.12747103,-12.42887182,-48.60317392
-2.93034186,18.05671869,-0.91831361,-0.11481930,-3.13776764

>  <HEADER>
                                                                          

>  <MASTER>
        0    0    0    0    0    0    0    0   43    0   43    0          

>  <Name>
Baricitinib.pdb

>  <RI>
-9.78537e+08

>  <Rbt.Current_Directory>
/root/miniconda3/envs/rdock/share/rxdock-2013.1.1_148c5bd1-0/data/ligands/prepped_ligands/Baricitinib

>  <Rbt.Executable>
rbdock/0.1.0

>  <Rbt.Library>
librxdock.so/0.1.0

>  <Rbt.Parameter_File>
/root/miniconda3/envs/rdock/share/rxdock-2013.1.1_148c5bd1-0/data/scripts/dock.prm

>  <Rbt.Receptor>
def.prm

>  <SCORE>
-11.19

>  <SCORE.INTER>
-9.91105

>  <SCORE.INTER.CONST>
1

>  <SCORE.INTER.POLAR>
-1.55048

>  <SCORE.INTER.REPUL>
0

>  <SCORE.INTER.ROT>
5

>  <SCORE.INTER.VDW>
-15.0394

>  <SCORE.INTER.norm>
-0.381194

>  <SCORE.INTRA>
-0.257603

>  <SCORE.INTRA.DIHEDRAL>
-2.19467

>  <SCORE.INTRA.DIHEDRAL.0>
6.89936

>  <SCORE.INTRA.POLAR>
0

>  <SCORE.INTRA.POLAR.0>
0

>  <SCORE.INTRA.REPUL>
0

>  <SCORE.INTRA.REPUL.0>
0

>  <SCORE.INTRA.VDW>
0.839732

>  <SCORE.INTRA.VDW.0>
-2.33692

>  <SCORE.INTRA.norm>
-0.00990779

>  <SCORE.RESTR>
0

>  <SCORE.RESTR.CAVITY>
0

>  <SCORE.RESTR.norm>
0

>  <SCORE.SYSTEM>
-1.02135

>  <SCORE.SYSTEM.CONST>
0

>  <SCORE.SYSTEM.DIHEDRAL>
0.0812052

>  <SCORE.SYSTEM.VDW>
-1.06196

>  <SCORE.SYSTEM.norm>
-0.0392828

>  <SCORE.heavy>
26

>  <SCORE.norm>
-0.430385

>  <TITLE>
    44205240_D                                                            

$$$$
Baricitinib.pdb
  RxDock  02242101533D
librxdock.so/0.1.0
 27 30  0  0  0  0  0  0  0  0999 V2000
  -45.7436   -0.7516   17.8669 S   0  0  0  0  0  0
  -46.0628   -2.0983   18.2107 O   0  0  0  0  0  0
  -46.1180    0.3046   18.7503 O   0  0  0  0  0  0
  -46.4694   -0.4587   16.4560 N   0  0  0  0  0  0
  -48.3070   -2.5880   15.5738 N   0  0  0  0  0  0
  -47.6084   -3.6302   16.0726 N   0  0  0  0  0  0
  -50.7914   -0.4332   13.7120 N   0  0  0  0  0  0
  -52.1317   -4.4364   16.0545 N   0  0  0  0  0  0
  -51.9552   -8.2096   17.5797 N   0  0  0  0  0  0
  -53.3194   -6.4374   16.7481 N   0  0  0  0  0  0
  -47.7167   -1.3038   15.1574 C   0  0  0  0  0  0
  -47.9105   -0.2942   16.3179 C   0  0  0  0  0  0
  -46.1699   -1.2496   15.2702 C   0  0  0  0  0  0
  -48.2010   -0.6576   13.8350 C   0  0  0  0  0  0
  -43.9616   -0.6496   17.5577 C   0  0  0  0  0  0
  -49.6010   -2.9850   15.6226 C   0  0  0  0  0  0
  -49.7627   -4.2259   16.1307 C   0  0  0  0  0  0
  -49.6620   -0.5312   13.7657 C   0  0  0  0  0  0
  -48.4297   -4.5886   16.4045 C   0  0  0  0  0  0
  -43.4776   -1.9344   16.8689 C   0  0  0  0  0  0
  -50.9534   -5.0179   16.3709 C   0  0  0  0  0  0
  -50.9269   -6.3047   16.8921 C   0  0  0  0  0  0
  -52.1230   -6.9691   17.0611 C   0  0  0  0  0  0
  -49.9437   -7.2354   17.3612 C   0  0  0  0  0  0
  -53.2350   -5.1893   16.2620 C   0  0  0  0  0  0
  -50.5926   -8.3297   17.7505 C   0  0  0  0  0  0
  -52.5767   -8.8035   17.7674 H   0  0  0  0  0  0
  1  2  2  0  0  0
  1  3  2  0  0  0
  1  4  1  0  0  0
  1 15  1  0  0  0
  4 12  1  0  0  0
  4 13  1  0  0  0
  5  6  1  0  0  0
  5 11  1  0  0  0
  5 16  1  0  0  0
  6 19  2  0  0  0
  7 18  3  0  0  0
  8 21  1  0  0  0
  8 25  2  0  0  0
  9 23  1  0  0  0
  9 26  1  0  0  0
  9 27  1  0  0  0
 10 23  1  0  0  0
 10 25  1  0  0  0
 11 12  1  0  0  0
 11 13  1  0  0  0
 11 14  1  0  0  0
 14 18  1  0  0  0
 15 20  1  0  0  0
 16 17  2  0  0  0
 17 19  1  0  0  0
 21 17  1  0  0  0
 21 22  1  0  0  0
 22 23  2  0  0  0
 22 24  1  0  0  0
 24 26  2  0  0  0
M  END
>  <CHROM.0>
-59.46264778,-60.27790656,-59.04818622

>  <CHROM.1>
72.12679108,36.47834780,-98.55941154,52.19391587,-0.80776553,-48.64758641
-3.12540352,16.48254359,-0.63737327,0.47189783,2.59729473

>  <HEADER>
                                                                          

>  <MASTER>
        0    0    0    0    0    0    0    0   43    0   43    0          

>  <Name>
Baricitinib.pdb

>  <RI>
-9.78537e+08

>  <Rbt.Current_Directory>
/root/miniconda3/envs/rdock/share/rxdock-2013.1.1_148c5bd1-0/data/ligands/prepped_ligands/Baricitinib

>  <Rbt.Executable>
rbdock/0.1.0

>  <Rbt.Library>
librxdock.so/0.1.0

>  <Rbt.Parameter_File>
/root/miniconda3/envs/rdock/share/rxdock-2013.1.1_148c5bd1-0/data/scripts/dock.prm

>  <Rbt.Receptor>
def.prm

>  <SCORE>
-17.0223

>  <SCORE.INTER>
-15.4105

>  <SCORE.INTER.CONST>
1

>  <SCORE.INTER.POLAR>
-1.29122

>  <SCORE.INTER.REPUL>
0

>  <SCORE.INTER.ROT>
5

>  <SCORE.INTER.VDW>
-21.4204

>  <SCORE.INTER.norm>
-0.592713

>  <SCORE.INTRA>
-0.540771

>  <SCORE.INTRA.DIHEDRAL>
-2.20162

>  <SCORE.INTRA.DIHEDRAL.0>
6.89936

>  <SCORE.INTRA.POLAR>
0

>  <SCORE.INTRA.POLAR.0>
0

>  <SCORE.INTRA.REPUL>
0

>  <SCORE.INTRA.REPUL.0>
0

>  <SCORE.INTRA.VDW>
0.56004

>  <SCORE.INTRA.VDW.0>
-2.33692

>  <SCORE.INTRA.norm>
-0.0207989

>  <SCORE.RESTR>
0

>  <SCORE.RESTR.CAVITY>
0

>  <SCORE.RESTR.norm>
0

>  <SCORE.SYSTEM>
-1.07096

>  <SCORE.SYSTEM.CONST>
0

>  <SCORE.SYSTEM.DIHEDRAL>
0.00235617

>  <SCORE.SYSTEM.POLAR>
-0.00317055

>  <SCORE.SYSTEM.VDW>
-1.06136

>  <SCORE.SYSTEM.norm>
-0.0411908

>  <SCORE.heavy>
26

>  <SCORE.norm>
-0.654702

>  <TITLE>
    44205240_D                                                            

$$$$
Baricitinib.pdb
  RxDock  02242101533D
librxdock.so/0.1.0
 27 30  0  0  0  0  0  0  0  0999 V2000
  -49.1140   -6.4159   18.0335 S   0  0  0  0  0  0
  -47.8005   -5.8883   18.2067 O   0  0  0  0  0  0
  -49.2998   -7.5861   17.2383 O   0  0  0  0  0  0
  -49.9877   -5.2442   17.3502 N   0  0  0  0  0  0
  -48.3997   -2.9599   16.3761 N   0  0  0  0  0  0
  -47.8432   -2.6045   15.1985 N   0  0  0  0  0  0
  -51.0993   -0.2304   17.0634 N   0  0  0  0  0  0
  -44.1596   -2.7726   17.6342 N   0  0  0  0  0  0
  -43.3900    1.1175   18.5663 N   0  0  0  0  0  0
  -42.6099   -1.1373   18.5394 N   0  0  0  0  0  0
  -49.7834   -3.4391   16.5403 C   0  0  0  0  0  0
  -49.8634   -4.8694   15.9476 C   0  0  0  0  0  0
  -50.1183   -3.9339   17.9725 C   0  0  0  0  0  0
  -50.9392   -2.5839   15.9628 C   0  0  0  0  0  0
  -49.8332   -6.7032   19.6711 C   0  0  0  0  0  0
  -47.4418   -2.7092   17.3001 C   0  0  0  0  0  0
  -46.3042   -2.2085   16.7714 C   0  0  0  0  0  0
  -51.0295   -1.2566   16.5837 C   0  0  0  0  0  0
  -46.6318   -2.1638   15.4024 C   0  0  0  0  0  0
  -49.0408   -7.7961   20.4041 C   0  0  0  0  0  0
  -45.0591   -1.7944   17.3886 C   0  0  0  0  0  0
  -44.7680   -0.4779   17.7209 C   0  0  0  0  0  0
  -43.5428   -0.1999   18.2885 C   0  0  0  0  0  0
  -45.4183    0.7973   17.6572 C   0  0  0  0  0  0
  -42.9935   -2.3751   18.1903 C   0  0  0  0  0  0
  -44.5746    1.6942   18.1611 C   0  0  0  0  0  0
  -42.6925    1.5146   18.9268 H   0  0  0  0  0  0
  1  2  2  0  0  0
  1  3  2  0  0  0
  1  4  1  0  0  0
  1 15  1  0  0  0
  4 12  1  0  0  0
  4 13  1  0  0  0
  5  6  1  0  0  0
  5 11  1  0  0  0
  5 16  1  0  0  0
  6 19  2  0  0  0
  7 18  3  0  0  0
  8 21  1  0  0  0
  8 25  2  0  0  0
  9 23  1  0  0  0
  9 26  1  0  0  0
  9 27  1  0  0  0
 10 23  1  0  0  0
 10 25  1  0  0  0
 11 12  1  0  0  0
 11 13  1  0  0  0
 11 14  1  0  0  0
 14 18  1  0  0  0
 15 20  1  0  0  0
 16 17  2  0  0  0
 17 19  1  0  0  0
 21 17  1  0  0  0
 21 22  1  0  0  0
 22 23  2  0  0  0
 22 24  1  0  0  0
 24 26  2  0  0  0
M  END
>  <CHROM.0>
52.34419576,-63.76198444,58.21044090

>  <CHROM.1>
74.74183316,-65.05010908,71.85202882,-62.40281129,83.86514538,-47.47784755
-3.11688160,17.51978807,-2.40689419,-0.30893725,-0.31660425

>  <HEADER>
                                                                          

>  <MASTER>
        0    0    0    0    0    0    0    0   43    0   43    0          

>  <Name>
Baricitinib.pdb

>  <RI>
-9.78537e+08

>  <Rbt.Current_Directory>
/root/miniconda3/envs/rdock/share/rxdock-2013.1.1_148c5bd1-0/data/ligands/prepped_ligands/Baricitinib

>  <Rbt.Executable>
rbdock/0.1.0

>  <Rbt.Library>
librxdock.so/0.1.0

>  <Rbt.Parameter_File>
/root/miniconda3/envs/rdock/share/rxdock-2013.1.1_148c5bd1-0/data/scripts/dock.prm

>  <Rbt.Receptor>
def.prm

>  <SCORE>
-11.5596

>  <SCORE.INTER>
-8.57064

>  <SCORE.INTER.CONST>
1

>  <SCORE.INTER.POLAR>
-1.13564

>  <SCORE.INTER.REPUL>
0.289989

>  <SCORE.INTER.ROT>
5

>  <SCORE.INTER.VDW>
-16.5594

>  <SCORE.INTER.norm>
-0.32964

>  <SCORE.INTRA>
-2.03298

>  <SCORE.INTRA.DIHEDRAL>
-3.07094

>  <SCORE.INTRA.DIHEDRAL.0>
6.89936

>  <SCORE.INTRA.POLAR>
0

>  <SCORE.INTRA.POLAR.0>
0

>  <SCORE.INTRA.REPUL>
0

>  <SCORE.INTRA.REPUL.0>
0

>  <SCORE.INTRA.VDW>
-0.49751

>  <SCORE.INTRA.VDW.0>
-2.33692

>  <SCORE.INTRA.norm>
-0.0781915

>  <SCORE.RESTR>
0

>  <SCORE.RESTR.CAVITY>
0

>  <SCORE.RESTR.norm>
0

>  <SCORE.SYSTEM>
-0.955931

>  <SCORE.SYSTEM.CONST>
0

>  <SCORE.SYSTEM.DIHEDRAL>
0.227361

>  <SCORE.SYSTEM.VDW>
-1.06961

>  <SCORE.SYSTEM.norm>
-0.0367666

>  <SCORE.heavy>
26

>  <SCORE.norm>
-0.444598

>  <TITLE>
    44205240_D                                                            

$$$$
Baricitinib.pdb
  RxDock  02242101533D
librxdock.so/0.1.0
 27 30  0  0  0  0  0  0  0  0999 V2000
  -47.0317    0.5364   19.3096 S   0  0  0  0  0  0
  -46.0689    1.0260   20.2408 O   0  0  0  0  0  0
  -48.0185   -0.3968   19.7475 O   0  0  0  0  0  0
  -46.1982   -0.1849   18.1314 N   0  0  0  0  0  0
  -47.1820   -2.8712   17.4208 N   0  0  0  0  0  0
  -48.3961   -2.5510   17.9171 N   0  0  0  0  0  0
  -46.2515   -3.1512   13.8564 N   0  0  0  0  0  0
  -47.9675   -7.0812   17.3319 N   0  0  0  0  0  0
  -51.9317   -7.9925   17.5532 N   0  0  0  0  0  0
  -49.6920   -8.7904   17.3522 N   0  0  0  0  0  0
  -46.1112   -1.9015   17.1305 C   0  0  0  0  0  0
  -46.7773   -0.5320   16.8402 C   0  0  0  0  0  0
  -45.3828   -1.3635   18.3908 C   0  0  0  0  0  0
  -45.1018   -2.2257   16.0006 C   0  0  0  0  0  0
  -47.8656    1.9554   18.5531 C   0  0  0  0  0  0
  -47.2361   -4.2083   17.2123 C   0  0  0  0  0  0
  -48.4245   -4.7559   17.5470 C   0  0  0  0  0  0
  -45.7503   -2.7479   14.7914 C   0  0  0  0  0  0
  -49.1334   -3.6250   17.9964 C   0  0  0  0  0  0
  -48.8654    2.5638   19.5481 C   0  0  0  0  0  0
  -48.9080   -6.1210   17.4731 C   0  0  0  0  0  0
  -50.2518   -6.4638   17.5424 C   0  0  0  0  0  0
  -50.5928   -7.7981   17.4787 C   0  0  0  0  0  0
  -51.5105   -5.7894   17.6607 C   0  0  0  0  0  0
  -48.4253   -8.3522   17.2848 C   0  0  0  0  0  0
  -52.4581   -6.7232   17.6629 C   0  0  0  0  0  0
  -52.3670   -8.7570   17.5335 H   0  0  0  0  0  0
  1  2  2  0  0  0
  1  3  2  0  0  0
  1  4  1  0  0  0
  1 15  1  0  0  0
  4 12  1  0  0  0
  4 13  1  0  0  0
  5  6  1  0  0  0
  5 11  1  0  0  0
  5 16  1  0  0  0
  6 19  2  0  0  0
  7 18  3  0  0  0
  8 21  1  0  0  0
  8 25  2  0  0  0
  9 23  1  0  0  0
  9 26  1  0  0  0
  9 27  1  0  0  0
 10 23  1  0  0  0
 10 25  1  0  0  0
 11 12  1  0  0  0
 11 13  1  0  0  0
 11 14  1  0  0  0
 14 18  1  0  0  0
 15 20  1  0  0  0
 16 17  2  0  0  0
 17 19  1  0  0  0
 21 17  1  0  0  0
 21 22  1  0  0  0
 22 23  2  0  0  0
 22 24  1  0  0  0
 24 26  2  0  0  0
M  END
>  <CHROM.0>
-60.78240572,-66.19218231,178.42534695

>  <CHROM.1>
-164.79748631,-75.32418552,-26.29272269,44.36180797,16.86721945,-48.05782799
-3.13593538,17.74735425,1.10095214,0.56523564,0.43204794

>  <HEADER>
                                                                          

>  <MASTER>
        0    0    0    0    0    0    0    0   43    0   43    0          

>  <Name>
Baricitinib.pdb

>  <RI>
-9.78537e+08

>  <Rbt.Current_Directory>
/root/miniconda3/envs/rdock/share/rxdock-2013.1.1_148c5bd1-0/data/ligands/prepped_ligands/Baricitinib

>  <Rbt.Executable>
rbdock/0.1.0

>  <Rbt.Library>
librxdock.so/0.1.0

>  <Rbt.Parameter_File>
/root/miniconda3/envs/rdock/share/rxdock-2013.1.1_148c5bd1-0/data/scripts/dock.prm

>  <Rbt.Receptor>
def.prm

>  <SCORE>
-11.2045

>  <SCORE.INTER>
-8.83107

>  <SCORE.INTER.CONST>
1

>  <SCORE.INTER.POLAR>
-0.091656

>  <SCORE.INTER.REPUL>
0

>  <SCORE.INTER.ROT>
5

>  <SCORE.INTER.VDW>
-18.9194

>  <SCORE.INTER.norm>
-0.339656

>  <SCORE.INTRA>
-1.32065

>  <SCORE.INTRA.DIHEDRAL>
-2.61077

>  <SCORE.INTRA.DIHEDRAL.0>
6.89936

>  <SCORE.INTRA.POLAR>
0

>  <SCORE.INTRA.POLAR.0>
0

>  <SCORE.INTRA.REPUL>
0

>  <SCORE.INTRA.REPUL.0>
0

>  <SCORE.INTRA.VDW>
-0.0152648

>  <SCORE.INTRA.VDW.0>
-2.33692

>  <SCORE.INTRA.norm>
-0.0507942

>  <SCORE.RESTR>
0

>  <SCORE.RESTR.CAVITY>
0

>  <SCORE.RESTR.norm>
0

>  <SCORE.SYSTEM>
-1.05283

>  <SCORE.SYSTEM.CONST>
0

>  <SCORE.SYSTEM.DIHEDRAL>
0.19725

>  <SCORE.SYSTEM.VDW>
-1.15146

>  <SCORE.SYSTEM.norm>
-0.0404935

>  <SCORE.heavy>
26

>  <SCORE.norm>
-0.430944

>  <TITLE>
    44205240_D                                                            

$$$$
Baricitinib.pdb
  RxDock  02242101533D
librxdock.so/0.1.0
 27 30  0  0  0  0  0  0  0  0999 V2000
  -49.4965   -0.7478   16.9197 S   0  0  0  0  0  0
  -49.8956    0.6128   16.7673 O   0  0  0  0  0  0
  -49.7299   -1.6698   15.8559 O   0  0  0  0  0  0
  -50.2880   -1.3118   18.2076 N   0  0  0  0  0  0
  -51.7397   -3.8323   17.7294 N   0  0  0  0  0  0
  -50.8172   -4.7211   17.3029 N   0  0  0  0  0  0
  -54.6783   -3.1606   20.1814 N   0  0  0  0  0  0
  -54.1480   -5.2161   14.3464 N   0  0  0  0  0  0
  -55.2667   -9.0761   15.0118 N   0  0  0  0  0  0
  -55.4529   -7.1362   13.6351 N   0  0  0  0  0  0
  -51.4984   -2.7948   18.7476 C   0  0  0  0  0  0
  -49.9667   -2.5789   18.8510 C   0  0  0  0  0  0
  -51.7435   -1.3460   18.2485 C   0  0  0  0  0  0
  -52.0802   -2.9994   20.1690 C   0  0  0  0  0  0
  -47.7359   -0.7810   17.3448 C   0  0  0  0  0  0
  -52.8748   -4.1711   17.0728 C   0  0  0  0  0  0
  -52.7233   -5.2331   16.2523 C   0  0  0  0  0  0
  -53.5455   -3.0901   20.1759 C   0  0  0  0  0  0
  -51.3639   -5.5436   16.4498 C   0  0  0  0  0  0
  -46.9018   -0.2959   16.1497 C   0  0  0  0  0  0
  -53.6639   -5.9236   15.3912 C   0  0  0  0  0  0
  -54.0672   -7.2369   15.5927 C   0  0  0  0  0  0
  -54.9542   -7.7957   14.6974 C   0  0  0  0  0  0
  -53.8279   -8.2827   16.5425 C   0  0  0  0  0  0
  -55.0079   -5.8738   13.5370 C   0  0  0  0  0  0
  -54.5489   -9.3334   16.1602 C   0  0  0  0  0  0
  -55.8081   -9.6198   14.5811 H   0  0  0  0  0  0
  1  2  2  0  0  0
  1  3  2  0  0  0
  1  4  1  0  0  0
  1 15  1  0  0  0
  4 12  1  0  0  0
  4 13  1  0  0  0
  5  6  1  0  0  0
  5 11  1  0  0  0
  5 16  1  0  0  0
  6 19  2  0  0  0
  7 18  3  0  0  0
  8 21  1  0  0  0
  8 25  2  0  0  0
  9 23  1  0  0  0
  9 26  1  0  0  0
  9 27  1  0  0  0
 10 23  1  0  0  0
 10 25  1  0  0  0
 11 12  1  0  0  0
 11 13  1  0  0  0
 11 14  1  0  0  0
 14 18  1  0  0  0
 15 20  1  0  0  0
 16 17  2  0  0  0
 17 19  1  0  0  0
 21 17  1  0  0  0
 21 22  1  0  0  0
 22 23  2  0  0  0
 22 24  1  0  0  0
 24 26  2  0  0  0
M  END
>  <CHROM.0>
173.80357820,64.87804271,174.10351757

>  <CHROM.1>
-167.78657972,-67.66794293,19.67141862,-61.23023599,65.83745663,-52.01640198
-3.94495990,16.82059933,-0.59422916,-0.76405085,-2.01409008

>  <HEADER>
                                                                          

>  <MASTER>
        0    0    0    0    0    0    0    0   43    0   43    0          

>  <Name>
Baricitinib.pdb

>  <RI>
-9.78537e+08

>  <Rbt.Current_Directory>
/root/miniconda3/envs/rdock/share/rxdock-2013.1.1_148c5bd1-0/data/ligands/prepped_ligands/Baricitinib

>  <Rbt.Executable>
rbdock/0.1.0

>  <Rbt.Library>
librxdock.so/0.1.0

>  <Rbt.Parameter_File>
/root/miniconda3/envs/rdock/share/rxdock-2013.1.1_148c5bd1-0/data/scripts/dock.prm

>  <Rbt.Receptor>
def.prm

>  <SCORE>
-13.9366

>  <SCORE.INTER>
-11.3197

>  <SCORE.INTER.CONST>
1

>  <SCORE.INTER.POLAR>
-1.5492

>  <SCORE.INTER.REPUL>
0

>  <SCORE.INTER.ROT>
5

>  <SCORE.INTER.VDW>
-16.4524

>  <SCORE.INTER.norm>
-0.435373

>  <SCORE.INTRA>
-1.79796

>  <SCORE.INTRA.DIHEDRAL>
-2.949

>  <SCORE.INTRA.DIHEDRAL.0>
6.89936

>  <SCORE.INTRA.POLAR>
0

>  <SCORE.INTRA.POLAR.0>
0

>  <SCORE.INTRA.REPUL>
0

>  <SCORE.INTRA.REPUL.0>
0

>  <SCORE.INTRA.VDW>
-0.323458

>  <SCORE.INTRA.VDW.0>
-2.33692

>  <SCORE.INTRA.norm>
-0.0691522

>  <SCORE.RESTR>
0.101449

>  <SCORE.RESTR.CAVITY>
0.101449

>  <SCORE.RESTR.norm>
0.00390188

>  <SCORE.SYSTEM>
-0.920381

>  <SCORE.SYSTEM.CONST>
0

>  <SCORE.SYSTEM.DIHEDRAL>
0.30523

>  <SCORE.SYSTEM.VDW>
-1.073

>  <SCORE.SYSTEM.norm>
-0.0353993

>  <SCORE.heavy>
26

>  <SCORE.norm>
-0.536023

>  <TITLE>
    44205240_D                                                            

$$$$
Baricitinib.pdb
  RxDock  02242101533D
librxdock.so/0.1.0
 27 30  0  0  0  0  0  0  0  0999 V2000
  -49.3938   -1.2818   19.5972 S   0  0  0  0  0  0
  -49.8457    0.0020   20.0235 O   0  0  0  0  0  0
  -48.5701   -2.0586   20.4657 O   0  0  0  0  0  0
  -48.5476   -1.0396   18.2451 N   0  0  0  0  0  0
  -49.8521   -2.0490   15.8021 N   0  0  0  0  0  0
  -50.5956   -1.5827   14.7760 N   0  0  0  0  0  0
  -46.0172   -2.9705   14.5154 N   0  0  0  0  0  0
  -53.5856   -4.5028   14.7176 N   0  0  0  0  0  0
  -52.9184   -7.7641   17.0655 N   0  0  0  0  0  0
  -54.3325   -6.6855   15.4748 N   0  0  0  0  0  0
  -48.6130   -1.4217   16.2942 C   0  0  0  0  0  0
  -49.0115   -0.1940   17.1529 C   0  0  0  0  0  0
  -47.9687   -2.1511   17.5030 C   0  0  0  0  0  0
  -47.5370   -0.9944   15.2645 C   0  0  0  0  0  0
  -50.8393   -2.2676   19.1278 C   0  0  0  0  0  0
  -50.4657   -3.1958   16.1796 C   0  0  0  0  0  0
  -51.5604   -3.4860   15.4437 C   0  0  0  0  0  0
  -46.6798   -2.1090   14.8422 C   0  0  0  0  0  0
  -51.5880   -2.3992   14.5484 C   0  0  0  0  0  0
  -51.6518   -2.6305   20.3799 C   0  0  0  0  0  0
  -52.4860   -4.6010   15.4972 C   0  0  0  0  0  0
  -52.2888   -5.7246   16.2889 C   0  0  0  0  0  0
  -53.2294   -6.7316   16.2451 C   0  0  0  0  0  0
  -51.3200   -6.1958   17.2336 C   0  0  0  0  0  0
  -54.4325   -5.5555   14.7576 C   0  0  0  0  0  0
  -51.7315   -7.3880   17.6572 C   0  0  0  0  0  0
  -53.3733   -8.5064   17.1934 H   0  0  0  0  0  0
  1  2  2  0  0  0
  1  3  2  0  0  0
  1  4  1  0  0  0
  1 15  1  0  0  0
  4 12  1  0  0  0
  4 13  1  0  0  0
  5  6  1  0  0  0
  5 11  1  0  0  0
  5 16  1  0  0  0
  6 19  2  0  0  0
  7 18  3  0  0  0
  8 21  1  0  0  0
  8 25  2  0  0  0
  9 23  1  0  0  0
  9 26  1  0  0  0
  9 27  1  0  0  0
 10 23  1  0  0  0
 10 25  1  0  0  0
 11 12  1  0  0  0
 11 13  1  0  0  0
 11 14  1  0  0  0
 14 18  1  0  0  0
 15 20  1  0  0  0
 16 17  2  0  0  0
 17 19  1  0  0  0
 21 17  1  0  0  0
 21 22  1  0  0  0
 22 23  2  0  0  0
 22 24  1  0  0  0
 24 26  2  0  0  0
M  END
>  <CHROM.0>
70.41761670,-64.36316134,-61.48878361

>  <CHROM.1>
-46.37776698,-70.00363456,77.57103441,-81.90781679,171.92290263,-50.49745481
-3.19278201,16.95876765,0.46544978,0.74934470,1.31915319

>  <HEADER>
                                                                          

>  <MASTER>
        0    0    0    0    0    0    0    0   43    0   43    0          

>  <Name>
Baricitinib.pdb

>  <RI>
-9.78537e+08

>  <Rbt.Current_Directory>
/root/miniconda3/envs/rdock/share/rxdock-2013.1.1_148c5bd1-0/data/ligands/prepped_ligands/Baricitinib

>  <Rbt.Executable>
rbdock/0.1.0

>  <Rbt.Library>
librxdock.so/0.1.0

>  <Rbt.Parameter_File>
/root/miniconda3/envs/rdock/share/rxdock-2013.1.1_148c5bd1-0/data/scripts/dock.prm

>  <Rbt.Receptor>
def.prm

>  <SCORE>
-9.15002

>  <SCORE.INTER>
-7.43164

>  <SCORE.INTER.CONST>
1

>  <SCORE.INTER.POLAR>
-0.143152

>  <SCORE.INTER.REPUL>
0.0080829

>  <SCORE.INTER.ROT>
5

>  <SCORE.INTER.VDW>
-17.3853

>  <SCORE.INTER.norm>
-0.285832

>  <SCORE.INTRA>
-0.843139

>  <SCORE.INTRA.DIHEDRAL>
-2.14959

>  <SCORE.INTRA.DIHEDRAL.0>
6.89936

>  <SCORE.INTRA.POLAR>
0

>  <SCORE.INTRA.POLAR.0>
0

>  <SCORE.INTRA.REPUL>
0

>  <SCORE.INTRA.REPUL.0>
0

>  <SCORE.INTRA.VDW>
0.231656

>  <SCORE.INTRA.VDW.0>
-2.33692

>  <SCORE.INTRA.norm>
-0.0324284

>  <SCORE.RESTR>
0

>  <SCORE.RESTR.CAVITY>
0

>  <SCORE.RESTR.norm>
0

>  <SCORE.SYSTEM>
-0.875247

>  <SCORE.SYSTEM.CONST>
0

>  <SCORE.SYSTEM.DIHEDRAL>
0.354285

>  <SCORE.SYSTEM.VDW>
-1.05239

>  <SCORE.SYSTEM.norm>
-0.0336633

>  <SCORE.heavy>
26

>  <SCORE.norm>
-0.351924

>  <TITLE>
    44205240_D                                                            

$$$$
