Untitled
  xed2sdf_05210316543D
 
 49 52  0  0  1  0  0  0  0  0999 V2000
  -57.3180  -20.4142    1.9507 O   0  0  0  0  0  0  0  0  0  0  0  0
  -59.0130  -22.1592    1.9737 O   0  0  0  0  0  0  0  0  0  0  0  0
  -57.5850  -20.0602    6.1187 O   0  0  0  0  0  0  0  0  0  0  0  0
  -59.5530  -21.5892    4.6657 O   0  0  0  0  0  0  0  0  0  0  0  0
  -56.1660  -18.0712    4.5827 O   0  0  0  0  0  0  0  0  0  0  0  0
  -55.8040  -17.6622    1.0277 O   0  5  0  0  0  0  0  0  0  0  0  0
  -54.5800  -19.3272    1.9977 O   0  0  0  0  0  0  0  0  0  0  0  0
  -58.8510  -20.6312   -2.4493 O   0  0  0  0  0  0  0  0  0  0  0  0
  -61.4360  -23.4972    1.4907 O   0  0  0  0  0  0  0  0  0  0  0  0
  -62.5620  -23.3112   -0.9803 O   0  0  0  0  0  0  0  0  0  0  0  0
  -62.3860  -22.3772   -3.3713 O   0  0  0  0  0  0  0  0  0  0  0  0
  -57.8510  -19.8382    4.7257 C   0  0  0  0  0  0  0  0  0  0  0  0
  -58.3310  -21.1422    4.0617 C   0  0  0  0  0  0  0  0  0  0  0  0
  -56.5850  -19.3212    4.0187 C   0  0  0  0  0  0  0  0  0  0  0  0
  -58.5350  -20.9202    2.5487 C   0  0  0  0  0  0  0  0  0  0  0  0
  -56.8950  -19.1582    2.5197 C   0  0  0  0  0  0  0  0  0  0  0  0
  -55.6640  -18.6772    1.7947 C   0  0  0  0  0  0  0  0  0  0  0  0
  -59.5960  -22.1292    0.7727 C   0  0  0  0  0  0  0  0  0  0  0  0
  -58.9680  -21.4412   -0.2433 C   0  0  0  0  0  0  0  0  0  0  0  0
  -60.8080  -22.7742    0.5147 C   0  0  0  0  0  0  0  0  0  0  0  0
  -59.5240  -21.3432   -1.5043 C   0  0  0  0  0  0  0  0  0  0  0  0
  -60.7450  -21.9702   -1.7493 C   0  0  0  0  0  0  0  0  0  0  0  0
  -61.3780  -22.6912   -0.7313 C   0  0  0  0  0  0  0  0  0  0  0  0
  -61.3160  -21.8452   -3.0743 C   0  0  0  0  0  0  0  0  0  0  0  0
  -59.4190  -20.5012   -3.6923 C   0  0  0  0  0  0  0  0  0  0  0  0
  -60.6080  -21.0792   -4.0343 C   0  0  0  0  0  0  0  0  0  0  0  0
  -58.6620  -19.6782   -4.6723 C   0  0  0  0  0  0  0  0  0  0  0  0
  -57.7640  -20.2152   -5.5843 C   0  0  0  0  0  0  0  0  0  0  0  0
  -58.8630  -18.3062   -4.6783 C   0  0  0  0  0  0  0  0  0  0  0  0
  -57.0940  -19.4052   -6.4693 C   0  0  0  0  0  0  0  0  0  0  0  0
  -58.1930  -17.4972   -5.5633 C   0  0  0  0  0  0  0  0  0  0  0  0
  -57.3070  -18.0452   -6.4613 C   0  0  0  0  0  0  0  0  0  0  0  0
  -58.5710  -19.1482    4.6437 H   0  0  0  0  0  0  0  0  0  0  0  0
  -57.6330  -21.8472    4.1937 H   0  0  0  0  0  0  0  0  0  0  0  0
  -55.8380  -19.9762    4.1407 H   0  0  0  0  0  0  0  0  0  0  0  0
  -59.2260  -20.2202    2.3647 H   0  0  0  0  0  0  0  0  0  0  0  0
  -57.6320  -18.4902    2.4187 H   0  0  0  0  0  0  0  0  0  0  0  0
  -56.7880  -20.6592    6.2487 H   0  0  0  0  0  0  0  0  0  0  0  0
  -59.6780  -21.1872    5.5787 H   0  0  0  0  0  0  0  0  0  0  0  0
  -56.9500  -17.4582    4.7377 H   0  0  0  0  0  0  0  0  0  0  0  0
  -61.4990  -24.4692    1.2437 H   0  0  0  0  0  0  0  0  0  0  0  0
  -63.3340  -22.6672   -0.9263 H   0  0  0  0  0  0  0  0  0  0  0  0
  -58.0870  -21.0022   -0.0633 H   0  0  0  0  0  0  0  0  0  0  0  0
  -60.9760  -20.9632   -4.9573 H   0  0  0  0  0  0  0  0  0  0  0  0
  -57.6030  -21.2022   -5.5983 H   0  0  0  0  0  0  0  0  0  0  0  0
  -59.5050  -17.8992   -4.0293 H   0  0  0  0  0  0  0  0  0  0  0  0
  -56.4500  -19.8052   -7.1213 H   0  0  0  0  0  0  0  0  0  0  0  0
  -58.3500  -16.5092   -5.5553 H   0  0  0  0  0  0  0  0  0  0  0  0
  -56.8180  -17.4582   -7.1063 H   0  0  0  0  0  0  0  0  0  0  0  0
  1 15  1  0
  1 16  1  0
  2 18  1  0
  6 17  1  0
  7 17  2  0
  8 21  1  0
  8 25  1  0
  9 20  1  0
 10 23  1  0
 11 24  2  0
 12  3  1  0
 12 13  1  0
 12 14  1  0
 13  4  1  0
 13 15  1  0
 14  5  1  0
 14 16  1  0
 15  2  1  0
 16 17  1  0
 18 19  2  0
 18 20  1  0
 19 21  1  0
 20 23  2  0
 21 22  2  0
 22 23  1  0
 22 24  1  0
 24 26  1  0
 25 26  2  0
 25 27  1  0
 27 28  2  0
 27 29  1  0
 28 30  1  0
 29 31  2  0
 30 32  2  0
 31 32  1  0
  3 38  1  0
  4 39  1  0
  5 40  1  0
  9 41  1  0
 10 42  1  0
 12 33  1  0
 13 34  1  0
 14 35  1  0
 15 36  1  0
 16 37  1  0
 19 43  1  0
 26 44  1  0
 28 45  1  0
 29 46  1  0
 30 47  1  0
 31 48  1  0
 32 49  1  0
M  CHG  1   6  -1
M  END
>  <BioMolTech Lead Finder dG>
-9.515

>  <BioMolTech Lead Finder VSscore>
-13.552

>  <BioMolTech Lead Finder Rank score>
-12.54

>  <BioMolTech Lead Finder LE>
-0.297

>  <BioMolTech Lead Finder Structure Name>
/var/folders/xd/y7jw_xv579q2qqq7kks92xd80000gn/T/LeadFinder_44914_1/Ligand_1.sdf

>  <BioMolTech Lead Finder SDF id>
0

>  <BioMolTech Lead Finder Pose rank>
0

>  <BioMolTech Lead Finder version>
2001 1, 19 January 2019

>  <PUBCHEM_COMPOUND_CID>
64982

>  <PUBCHEM_COMPOUND_CANONICALIZED>
1

>  <PUBCHEM_CACTVS_COMPLEXITY>
748

>  <PUBCHEM_CACTVS_HBOND_ACCEPTOR>
11

>  <PUBCHEM_CACTVS_HBOND_DONOR>
6

>  <PUBCHEM_CACTVS_ROTATABLE_BOND>
4

>  <PUBCHEM_CACTVS_SUBSKEYS>
AAADceB4PAAAAAAAAAAAAAAAAAAAAAAAAAA0YIEAAAAAAACBQAAAGgAACAAADBSwmAMwDoAABgCIAqDSCAICCAAkIAAIiAFGiMgdNzaGNR6ieWOl4BUPuQfK7LzOIQABCAAIQABCAAIQABCAAAAAAAAAAA==

>  <PUBCHEM_IUPAC_OPENEYE_NAME>
(2S,3S,4S,5R,6S)-6-(5,6-dihydroxy-4-oxo-2-phenyl-chromen-7-yl)oxy-3,4,5-trihydroxy-tetrahydropyran-2-carboxylic acid

>  <PUBCHEM_IUPAC_CAS_NAME>
(2S,3S,4S,5R,6S)-6-[(5,6-dihydroxy-4-oxo-2-phenyl-1-benzopyran-7-yl)oxy]-3,4,5-trihydroxy-2-oxanecarboxylic acid

>  <PUBCHEM_IUPAC_NAME_MARKUP>
(2<I>S</I>,3<I>S</I>,4<I>S</I>,5<I>R</I>,6<I>S</I>)-6-(5,6-dihydroxy-4-oxo-2-phenylchromen-7-yl)oxy-3,4,5-trihydroxyoxane-2-carboxylic acid

>  <PUBCHEM_IUPAC_NAME>
(2S,3S,4S,5R,6S)-6-(5,6-dihydroxy-4-oxo-2-phenylchromen-7-yl)oxy-3,4,5-trihydroxyoxane-2-carboxylic acid

>  <PUBCHEM_IUPAC_SYSTEMATIC_NAME>
(2S,3S,4S,5R,6S)-6-[5,6-bis(oxidanyl)-4-oxidanylidene-2-phenyl-chromen-7-yl]oxy-3,4,5-tris(oxidanyl)oxane-2-carboxylic acid

>  <PUBCHEM_IUPAC_TRADITIONAL_NAME>
(2S,3S,4S,5R,6S)-6-(5,6-dihydroxy-4-keto-2-phenyl-chromen-7-yl)oxy-3,4,5-trihydroxy-tetrahydropyran-2-carboxylic acid

>  <PUBCHEM_IUPAC_INCHI>
InChI=1S/C21H18O11/c22-9-6-10(8-4-2-1-3-5-8)30-11-7-12(14(23)15(24)13(9)11)31-21-18(27)16(25)17(26)19(32-21)20(28)29/h1-7,16-19,21,23-27H,(H,28,29)/t16-,17-,18+,19-,21+/m0/s1

>  <PUBCHEM_IUPAC_INCHIKEY>
IKIIZLYTISPENI-ZFORQUDYSA-N

>  <PUBCHEM_XLOGP3_AA>
1.1

>  <PUBCHEM_EXACT_MASS>
446.084911

>  <PUBCHEM_MOLECULAR_FORMULA>
C21H18O11

>  <PUBCHEM_MOLECULAR_WEIGHT>
446.4

>  <PUBCHEM_OPENEYE_CAN_SMILES>
C1=CC=C(C=C1)C2=CC(=O)C3=C(C(=C(C=C3O2)OC4C(C(C(C(O4)C(=O)O)O)O)O)O)O

>  <PUBCHEM_OPENEYE_ISO_SMILES>
C1=CC=C(C=C1)C2=CC(=O)C3=C(C(=C(C=C3O2)O[C@H]4[C@@H]([C@H]([C@@H]([C@H](O4)C(=O)O)O)O)O)O)O

>  <PUBCHEM_CACTVS_TPSA>
183

>  <PUBCHEM_MONOISOTOPIC_WEIGHT>
446.084911

>  <PUBCHEM_TOTAL_CHARGE>
0

>  <PUBCHEM_HEAVY_ATOM_COUNT>
32

>  <PUBCHEM_ATOM_DEF_STEREO_COUNT>
5

>  <PUBCHEM_ATOM_UDEF_STEREO_COUNT>
0

>  <PUBCHEM_BOND_DEF_STEREO_COUNT>
0

>  <PUBCHEM_BOND_UDEF_STEREO_COUNT>
0

>  <PUBCHEM_ISOTOPIC_ATOM_COUNT>
0

>  <PUBCHEM_COMPONENT_COUNT>
1

>  <PUBCHEM_CACTVS_TAUTO_COUNT>
-1

>  <PUBCHEM_COORDINATE_TYPE>
1
5
255

>  <PUBCHEM_BONDANNOTATIONS>
16  17  5
18  19  8
18  20  8
19  21  8
15  2  5
20  23  8
21  22  8
22  23  8
22  24  8
24  26  8
25  26  8
27  28  8
27  29  8
28  30  8
29  31  8
12  3  5
30  32  8
31  32  8
13  4  6
14  5  6
8  21  8
8  25  8

>  <LF dG>
-9.515

>  <LF VSscore>
-13.552

>  <LF Rank Score>
-12.54

>  <LF LE>
-0.297

>  <Preferred Pose_cresset>
true

>  <Favorite_cresset>
false

>  <Protein_cresset>
6M2N_Dimer_P

>  <MW_cresset>
445.4

>  <#Atoms_cresset>
32

>  <SlogP_cresset>
1.1

>  <TPSA_cresset>
186

>  <Flexibility_cresset>
7.6

>  <#RB_cresset>
9

>  <Rof5_cresset>
1

>  <Filename_cresset>
Baicalin.sdf

>  <Confs_cresset>
0

>  <Poses_cresset>
10

>  <_cresset_fieldpoints>
    -5     -55.711285     -21.649979       1.419804     -6.4821
    -5     -60.628967     -22.860764       3.687126    -13.3712
    -5     -57.813164     -18.917833       7.564777     -5.1233
    -5     -54.371628     -17.579182       4.594635     -8.5342
    -5     -53.318707     -18.473890       0.980983    -10.4140
    -5     -63.035606     -24.115936      -2.810229    -13.0151
    -5     -54.088310     -17.430481       0.351368    -10.0575
    -5     -55.979660     -18.698341      -3.263375     -5.3519
    -5     -56.614998     -19.449848      -2.446207     -5.2661
    -5     -63.356949     -22.699841      -4.945241    -11.0821
    -5     -60.072521     -19.083973      -7.702014     -3.4558
    -6     -55.754753     -21.944731       5.749249      6.2403
    -6     -58.523849     -16.961601       4.027121      8.4650
    -6     -60.578785     -19.576797       5.944522      3.3697
    -6     -60.829849     -18.335022      -2.269662      2.2120
    -6     -61.563507     -26.243214       1.215893      1.2686
    -6     -64.327461     -21.303419      -0.294805      1.5357
    -6     -60.068100     -15.522181      -4.038667      2.1026
    -6     -55.322960     -18.345257      -8.843576      1.9546
    -6     -56.021355     -22.101639      -7.455966      1.7210
    -6     -57.280937     -15.008316      -7.225647      2.0111
    -7     -55.830940     -22.037193       1.264194     -2.6671
    -7     -58.264904     -22.256016       7.071678     -1.6060
    -7     -59.619759     -19.845116       7.413257     -1.2634
    -7     -56.231441     -18.227509       7.053315     -1.5940
    -7     -53.720993     -17.912979       3.955105     -1.5339
    -7     -61.621544     -21.464500       3.473183     -2.4005
    -7     -55.338539     -22.226597       5.335242     -1.6181
    -7     -56.294334     -16.008984       3.079583     -1.7429
    -7     -58.933872     -16.735102       3.762106     -1.7043
    -7     -58.424591     -23.270664      -4.031518     -2.5804
    -7     -58.590469     -24.667427      -1.559947     -1.8468
    -7     -63.859856     -24.156639       0.972273     -1.5481
    -7     -60.613323     -23.552635       3.795175     -2.3594
    -7     -62.327744     -24.876091      -2.993997     -1.6570
    -7     -63.800793     -20.588972      -1.969018     -1.7906
    -7     -57.303650     -18.832283      -1.534964     -2.8488
    -7     -61.148300     -19.170120       0.862335     -2.3035
    -7     -60.122433     -17.924488       2.930944     -1.9532
    -7     -56.027092     -22.525663      -7.333589     -0.9863
    -7     -61.300415     -18.620819      -2.270874     -2.6506
    -7     -55.033089     -18.372093      -8.966059     -0.9675
    -7     -60.023460     -15.295124      -3.696708     -0.9946
    -7     -57.126320     -14.747099      -7.250463     -0.9670
    -7     -60.718063     -19.611223      -7.277760     -2.0561
    -8     -57.711857     -19.960407       3.662569      5.1558
    -8     -60.154686     -22.037437      -0.519361      6.6075
    -8     -57.984444     -18.861227      -5.571214      7.1509
    -8     -60.379684     -21.374340      -2.804760      5.0275

$$$$
Untitled
  xed2sdf_05210316543D
 
 94 97  0  0  1  0  0  0  0  0999 V2000
  -59.7669  -24.4292   -2.6951 O   0  0  0  0  0  0  0  0  0  0  0  0
  -56.2039  -19.7012   -2.8621 O   0  0  0  0  0  0  0  0  0  0  0  0
  -54.0589  -19.9822   -5.9631 O   0  0  0  0  0  0  0  0  0  0  0  0
  -60.7079  -22.9582    1.5849 O   0  0  0  0  0  0  0  0  0  0  0  0
  -62.7309  -24.5892    2.3489 O   0  0  0  0  0  0  0  0  0  0  0  0
  -56.0999  -20.9352   -5.8371 N   0  0  0  0  0  0  0  0  0  0  0  0
  -58.2129  -20.4812   -3.5881 N   0  0  0  0  0  0  0  0  0  0  0  0
  -60.2129  -24.3052   -0.1851 N   0  0  0  0  0  0  0  0  0  0  0  0
  -54.2759  -22.0402   -6.8161 N   0  0  0  0  0  0  0  0  0  0  0  0
  -58.6749  -20.8152   -2.2341 C   0  0  0  0  0  0  0  0  0  0  0  0
  -56.6879  -19.7242   -5.2321 C   0  0  0  0  0  0  0  0  0  0  0  0
  -59.6509  -21.9902   -2.4331 C   0  0  0  0  0  0  0  0  0  0  0  0
  -59.0259  -23.3582   -2.0881 C   0  0  0  0  0  0  0  0  0  0  0  0
  -57.9399  -19.2552   -6.0091 C   0  0  0  0  0  0  0  0  0  0  0  0
  -59.0139  -23.5402   -0.5571 C   0  0  0  0  0  0  0  0  0  0  0  0
  -59.3669  -19.6172   -1.5481 C   0  0  0  0  0  0  0  0  0  0  0  0
  -56.9879  -19.9612   -3.7651 C   0  0  0  0  0  0  0  0  0  0  0  0
  -56.9839  -22.0972   -6.0341 C   0  0  0  0  0  0  0  0  0  0  0  0
  -56.1809  -23.4012   -6.0791 C   0  0  0  0  0  0  0  0  0  0  0  0
  -57.7279  -24.2672   -0.1091 C   0  0  0  0  0  0  0  0  0  0  0  0
  -54.7889  -20.9512   -6.1951 C   0  0  0  0  0  0  0  0  0  0  0  0
  -57.6409  -19.1102   -7.5111 C   0  0  0  0  0  0  0  0  0  0  0  0
  -58.4109  -17.8832   -5.4971 C   0  0  0  0  0  0  0  0  0  0  0  0
  -55.0989  -23.2142   -7.1451 C   0  0  0  0  0  0  0  0  0  0  0  0
  -60.7819  -19.3432   -2.0351 C   0  0  0  0  0  0  0  0  0  0  0  0
  -57.9399  -25.7022    0.3499 C   0  0  0  0  0  0  0  0  0  0  0  0
  -60.9629  -23.9042    0.8529 C   0  0  0  0  0  0  0  0  0  0  0  0
  -60.9959  -18.8562   -3.3061 C   0  0  0  0  0  0  0  0  0  0  0  0
  -61.8589  -19.5782   -1.2081 C   0  0  0  0  0  0  0  0  0  0  0  0
  -57.9899  -26.7262   -0.5701 C   0  0  0  0  0  0  0  0  0  0  0  0
  -58.0829  -25.9872    1.6909 C   0  0  0  0  0  0  0  0  0  0  0  0
  -62.2039  -24.7482    1.0169 C   0  0  0  0  0  0  0  0  0  0  0  0
  -62.2749  -18.6042   -3.7471 C   0  0  0  0  0  0  0  0  0  0  0  0
  -63.1389  -19.3272   -1.6481 C   0  0  0  0  0  0  0  0  0  0  0  0
  -63.3469  -18.8392   -2.9181 C   0  0  0  0  0  0  0  0  0  0  0  0
  -58.1819  -28.0242   -0.1551 C   0  0  0  0  0  0  0  0  0  0  0  0
  -58.2739  -27.2852    2.1079 C   0  0  0  0  0  0  0  0  0  0  0  0
  -58.3239  -28.3032    1.1849 C   0  0  0  0  0  0  0  0  0  0  0  0
  -63.6529  -25.4742    2.7499 C   0  0  0  0  0  0  0  0  0  0  0  0
  -64.9919  -25.3362    2.3959 C   0  0  0  0  0  0  0  0  0  0  0  0
  -63.2729  -26.5442    3.5499 C   0  0  0  0  0  0  0  0  0  0  0  0
  -65.9119  -26.2672    2.8199 C   0  0  0  0  0  0  0  0  0  0  0  0
  -64.2059  -27.4652    3.9649 C   0  0  0  0  0  0  0  0  0  0  0  0
  -65.5469  -24.2002    1.5499 C   0  0  0  0  0  0  0  0  0  0  0  0
  -61.8329  -26.7562    3.9919 C   0  0  0  0  0  0  0  0  0  0  0  0
  -65.5249  -27.3302    3.5999 C   0  0  0  0  0  0  0  0  0  0  0  0
  -57.9129  -21.0532   -1.6321 H   0  0  0  0  0  0  0  0  0  0  0  0
  -56.0189  -18.9832   -5.2941 H   0  0  0  0  0  0  0  0  0  0  0  0
  -58.0909  -23.3832   -2.4441 H   0  0  0  0  0  0  0  0  0  0  0  0
  -59.0239  -22.6512   -0.1001 H   0  0  0  0  0  0  0  0  0  0  0  0
  -59.2999  -24.7792   -3.5151 H   0  0  0  0  0  0  0  0  0  0  0  0
  -58.7349  -20.6402   -4.2791 H   0  0  0  0  0  0  0  0  0  0  0  0
  -60.4479  -25.0082   -0.6631 H   0  0  0  0  0  0  0  0  0  0  0  0
  -53.4259  -22.0352   -7.0471 H   0  0  0  0  0  0  0  0  0  0  0  0
  -59.9449  -22.0032   -3.3881 H   0  0  0  0  0  0  0  0  0  0  0  0
  -60.4199  -21.8492   -1.8091 H   0  0  0  0  0  0  0  0  0  0  0  0
  -58.6479  -19.9472   -5.8661 H   0  0  0  0  0  0  0  0  0  0  0  0
  -58.8139  -18.8002   -1.7101 H   0  0  0  0  0  0  0  0  0  0  0  0
  -59.4409  -19.8492   -0.5781 H   0  0  0  0  0  0  0  0  0  0  0  0
  -57.4819  -21.9872   -6.8951 H   0  0  0  0  0  0  0  0  0  0  0  0
  -57.6219  -22.1442   -5.2661 H   0  0  0  0  0  0  0  0  0  0  0  0
  -56.7769  -24.1672   -6.3191 H   0  0  0  0  0  0  0  0  0  0  0  0
  -55.7759  -23.6042   -5.1871 H   0  0  0  0  0  0  0  0  0  0  0  0
  -57.3229  -23.7512    0.6469 H   0  0  0  0  0  0  0  0  0  0  0  0
  -57.1329  -24.3122   -0.9121 H   0  0  0  0  0  0  0  0  0  0  0  0
  -57.8229  -18.1672   -7.7901 H   0  0  0  0  0  0  0  0  0  0  0  0
  -56.6819  -19.3352   -7.6871 H   0  0  0  0  0  0  0  0  0  0  0  0
  -58.2219  -19.7352   -8.0321 H   0  0  0  0  0  0  0  0  0  0  0  0
  -58.4089  -17.2332   -6.2571 H   0  0  0  0  0  0  0  0  0  0  0  0
  -59.3359  -17.9612   -5.1231 H   0  0  0  0  0  0  0  0  0  0  0  0
  -57.7949  -17.5632   -4.7771 H   0  0  0  0  0  0  0  0  0  0  0  0
  -54.5189  -24.0282   -7.1811 H   0  0  0  0  0  0  0  0  0  0  0  0
  -55.5329  -23.0752   -8.0351 H   0  0  0  0  0  0  0  0  0  0  0  0
  -60.2179  -18.6842   -3.9101 H   0  0  0  0  0  0  0  0  0  0  0  0
  -61.7109  -19.9322   -0.2851 H   0  0  0  0  0  0  0  0  0  0  0  0
  -57.8859  -26.5252   -1.5441 H   0  0  0  0  0  0  0  0  0  0  0  0
  -58.0469  -25.2482    2.3639 H   0  0  0  0  0  0  0  0  0  0  0  0
  -62.8919  -24.4642    0.3489 H   0  0  0  0  0  0  0  0  0  0  0  0
  -61.9689  -25.7082    0.8669 H   0  0  0  0  0  0  0  0  0  0  0  0
  -62.4249  -18.2502   -4.6701 H   0  0  0  0  0  0  0  0  0  0  0  0
  -63.9179  -19.4982   -1.0441 H   0  0  0  0  0  0  0  0  0  0  0  0
  -64.2769  -18.6562   -3.2371 H   0  0  0  0  0  0  0  0  0  0  0  0
  -58.2179  -28.7632   -0.8271 H   0  0  0  0  0  0  0  0  0  0  0  0
  -58.3769  -27.4872    3.0819 H   0  0  0  0  0  0  0  0  0  0  0  0
  -58.4639  -29.2462    1.4869 H   0  0  0  0  0  0  0  0  0  0  0  0
  -66.8719  -26.1682    2.5569 H   0  0  0  0  0  0  0  0  0  0  0  0
  -63.9239  -28.2362    4.5359 H   0  0  0  0  0  0  0  0  0  0  0  0
  -66.5329  -24.3272    1.4399 H   0  0  0  0  0  0  0  0  0  0  0  0
  -65.3699  -23.3252    1.9999 H   0  0  0  0  0  0  0  0  0  0  0  0
  -65.1039  -24.2002    0.6529 H   0  0  0  0  0  0  0  0  0  0  0  0
  -61.7829  -27.5832    4.5509 H   0  0  0  0  0  0  0  0  0  0  0  0
  -61.2449  -26.8562    3.1889 H   0  0  0  0  0  0  0  0  0  0  0  0
  -61.5259  -25.9682    4.5249 H   0  0  0  0  0  0  0  0  0  0  0  0
  -66.1999  -28.0032    3.9009 H   0  0  0  0  0  0  0  0  0  0  0  0
  2 17  2  0
  3 21  2  0
  4 27  2  0
  5 32  1  0
  5 39  1  0
  6 11  1  0
  6 18  1  0
  6 21  1  0
  7 17  1  0
  8 27  1  0
  9 21  1  0
  9 24  1  0
 10  7  1  0
 10 12  1  0
 10 16  1  0
 11 14  1  0
 11 17  1  0
 12 13  1  0
 13  1  1  0
 13 15  1  0
 14 22  1  0
 14 23  1  0
 15  8  1  0
 15 20  1  0
 16 25  1  0
 18 19  1  0
 19 24  1  0
 20 26  1  0
 25 28  2  0
 25 29  1  0
 26 30  2  0
 26 31  1  0
 27 32  1  0
 28 33  1  0
 29 34  2  0
 30 36  1  0
 31 37  2  0
 33 35  2  0
 34 35  1  0
 36 38  2  0
 37 38  1  0
 39 40  2  0
 39 41  1  0
 40 42  1  0
 40 44  1  0
 41 43  2  0
 41 45  1  0
 42 46  2  0
 43 46  1  0
  1 51  1  0
  7 52  1  0
  8 53  1  0
  9 54  1  0
 10 47  1  0
 11 48  1  0
 12 55  1  0
 12 56  1  0
 13 49  1  0
 14 57  1  0
 15 50  1  0
 16 58  1  0
 16 59  1  0
 18 60  1  0
 18 61  1  0
 19 62  1  0
 19 63  1  0
 20 64  1  0
 20 65  1  0
 22 66  1  0
 22 67  1  0
 22 68  1  0
 23 69  1  0
 23 70  1  0
 23 71  1  0
 24 72  1  0
 24 73  1  0
 28 74  1  0
 29 75  1  0
 30 76  1  0
 31 77  1  0
 32 78  1  0
 32 79  1  0
 33 80  1  0
 34 81  1  0
 35 82  1  0
 36 83  1  0
 37 84  1  0
 38 85  1  0
 42 86  1  0
 43 87  1  0
 44 88  1  0
 44 89  1  0
 44 90  1  0
 45 91  1  0
 45 92  1  0
 45 93  1  0
 46 94  1  0
M  END
>  <BioMolTech Lead Finder dG>
-10.673

>  <BioMolTech Lead Finder VSscore>
-12.866

>  <BioMolTech Lead Finder Rank score>
-15.212

>  <BioMolTech Lead Finder LE>
-0.232

>  <BioMolTech Lead Finder Structure Name>
/var/folders/xd/y7jw_xv579q2qqq7kks92xd80000gn/T/LeadFinder_44917_1/Ligand_1.sdf

>  <BioMolTech Lead Finder SDF id>
0

>  <BioMolTech Lead Finder Pose rank>
0

>  <BioMolTech Lead Finder version>
2001 1, 19 January 2019

>  <PUBCHEM_COMPOUND_CID>
92727

>  <PUBCHEM_COMPOUND_CANONICALIZED>
1

>  <PUBCHEM_CACTVS_COMPLEXITY>
940

>  <PUBCHEM_CACTVS_HBOND_ACCEPTOR>
5

>  <PUBCHEM_CACTVS_HBOND_DONOR>
4

>  <PUBCHEM_CACTVS_ROTATABLE_BOND>
15

>  <PUBCHEM_CACTVS_SUBSKEYS>
AAADcfB/uAAAAAAAAAAAAAAAAAAAAAAAAAA8YMEAAAAAAAABUAAAHgAQCAAADTzhmAYzBoPABgCIAiFSEAICCAAgIAAIiIHMCIiOdjKE8T+XeCCu1hOYqAeQwPAOAAACAAAIAAAAAAQAABAAAAAAAAAAAA==

>  <PUBCHEM_IUPAC_OPENEYE_NAME>
(2S)-N-[(1S,3S,4S)-1-benzyl-4-[[2-(2,6-dimethylphenoxy)acetyl]amino]-3-hydroxy-5-phenyl-pentyl]-3-methyl-2-(2-oxohexahydropyrimidin-1-yl)butanamide

>  <PUBCHEM_IUPAC_CAS_NAME>
(2S)-N-[(2S,4S,5S)-5-[[2-(2,6-dimethylphenoxy)-1-oxoethyl]amino]-4-hydroxy-1,6-diphenylhexan-2-yl]-3-methyl-2-(2-oxo-1,3-diazinan-1-yl)butanamide

>  <PUBCHEM_IUPAC_NAME_MARKUP>
(2<I>S</I>)-<I>N</I>-[(2<I>S</I>,4<I>S</I>,5<I>S</I>)-5-[[2-(2,6-dimethylphenoxy)acetyl]amino]-4-hydroxy-1,6-diphenylhexan-2-yl]-3-methyl-2-(2-oxo-1,3-diazinan-1-yl)butanamide

>  <PUBCHEM_IUPAC_NAME>
(2S)-N-[(2S,4S,5S)-5-[[2-(2,6-dimethylphenoxy)acetyl]amino]-4-hydroxy-1,6-diphenylhexan-2-yl]-3-methyl-2-(2-oxo-1,3-diazinan-1-yl)butanamide

>  <PUBCHEM_IUPAC_SYSTEMATIC_NAME>
(2S)-N-[(2S,4S,5S)-5-[2-(2,6-dimethylphenoxy)ethanoylamino]-4-oxidanyl-1,6-diphenyl-hexan-2-yl]-3-methyl-2-(2-oxidanylidene-1,3-diazinan-1-yl)butanamide

>  <PUBCHEM_IUPAC_TRADITIONAL_NAME>
(2S)-N-[(1S,3S,4S)-1-benzyl-4-[[2-(2,6-dimethylphenoxy)acetyl]amino]-3-hydroxy-5-phenyl-pentyl]-2-(2-ketohexahydropyrimidin-1-yl)-3-methyl-butyramide

>  <PUBCHEM_IUPAC_INCHI>
InChI=1S/C37H48N4O5/c1-25(2)34(41-20-12-19-38-37(41)45)36(44)39-30(21-28-15-7-5-8-16-28)23-32(42)31(22-29-17-9-6-10-18-29)40-33(43)24-46-35-26(3)13-11-14-27(35)4/h5-11,13-18,25,30-32,34,42H,12,19-24H2

>  <PUBCHEM_IUPAC_INCHIKEY>
KJHKTHWMRKYKJE-SUGCFTRWSA-N

>  <PUBCHEM_XLOGP3_AA>
5.9

>  <PUBCHEM_EXACT_MASS>
628.362471

>  <PUBCHEM_MOLECULAR_FORMULA>
C37H48N4O5

>  <PUBCHEM_MOLECULAR_WEIGHT>
628.8

>  <PUBCHEM_OPENEYE_CAN_SMILES>
CC1=C(C(=CC=C1)C)OCC(=O)NC(CC2=CC=CC=C2)C(CC(CC3=CC=CC=C3)NC(=O)C(C(C)C)N4CCCNC4=O)O

>  <PUBCHEM_OPENEYE_ISO_SMILES>
CC1=C(C(=CC=C1)C)OCC(=O)N[C@@H](CC2=CC=CC=C2)[C@H](C[C@H](CC3=CC=CC=C3)NC(=O)[C@H](C(C)C)N4CCCNC4=O)O

>  <PUBCHEM_CACTVS_TPSA>
120

>  <PUBCHEM_MONOISOTOPIC_WEIGHT>
628.362471

>  <PUBCHEM_TOTAL_CHARGE>
0

>  <PUBCHEM_HEAVY_ATOM_COUNT>
46

>  <PUBCHEM_ATOM_DEF_STEREO_COUNT>
4

>  <PUBCHEM_ATOM_UDEF_STEREO_COUNT>
0

>  <PUBCHEM_BOND_DEF_STEREO_COUNT>
0

>  <PUBCHEM_BOND_UDEF_STEREO_COUNT>
0

>  <PUBCHEM_ISOTOPIC_ATOM_COUNT>
0

>  <PUBCHEM_COMPONENT_COUNT>
1

>  <PUBCHEM_CACTVS_TAUTO_COUNT>
-1

>  <PUBCHEM_COORDINATE_TYPE>
1
5
255

>  <PUBCHEM_BONDANNOTATIONS>
13  1  6
11  17  5
25  28  8
25  29  8
26  30  8
26  31  8
28  33  8
29  34  8
30  36  8
31  37  8
33  35  8
34  35  8
36  38  8
37  38  8
39  40  8
39  41  8
40  42  8
41  43  8
42  46  8
43  46  8
10  7  6
15  8  5

>  <LF dG>
-10.673

>  <LF VSscore>
-12.866

>  <LF Rank Score>
-15.212

>  <LF LE>
-0.232

>  <Preferred Pose_cresset>
true

>  <Favorite_cresset>
false

>  <Protein_cresset>
6M2N_Dimer_P

>  <MW_cresset>
628.8

>  <#Atoms_cresset>
46

>  <SlogP_cresset>
4.7

>  <TPSA_cresset>
120

>  <Flexibility_cresset>
16.1

>  <#RB_cresset>
16

>  <Rof5_cresset>
1

>  <Filename_cresset>
Lopinavir.sdf

>  <Confs_cresset>
0

>  <Poses_cresset>
10

>  <_cresset_fieldpoints>
    -5     -61.655651     -24.150314      -2.559993     -9.5089
    -5     -54.428368     -19.507698      -3.550943    -20.8772
    -5     -61.712776     -22.689468       3.041530    -20.8883
    -5     -55.333183     -27.310066       1.076566     -3.8301
    -5     -61.833984     -16.474182      -1.408386     -4.0535
    -5     -62.754173     -21.945816      -3.069778     -2.9928
    -5     -61.359154     -28.358139       1.111145     -1.4926
    -5     -64.324112     -28.291977       0.997820     -2.7700
    -6     -57.624023     -24.994741      -4.176827     14.2234
    -6     -61.634300     -26.515953      -1.106696      5.8075
    -6     -57.286697     -21.335430       0.473890      3.4078
    -6     -52.162384     -23.213480      -7.917356      5.0266
    -6     -58.818665     -16.513309      -2.861120      1.3384
    -6     -56.481552     -23.579403       2.828227      1.5084
    -6     -65.001999     -21.467323      -0.155683      2.4605
    -6     -59.451363     -28.709610       4.515999      3.1875
    -6     -66.314346     -18.967625      -2.411666      2.3446
    -6     -59.776070     -21.701229      -5.549073     12.0553
    -6     -58.792221     -24.165062      -5.150349     14.1013
    -6     -68.625298     -25.542107       1.580476      2.8557
    -6     -62.668949     -29.653606       5.478801      2.7715
    -7     -56.968819     -25.373970      -3.528926     -3.0086
    -7     -60.610088     -26.606133      -2.499799     -2.4808
    -7     -59.757874     -23.562710      -5.390464     -2.6310
    -7     -57.452904     -20.977013       0.926858     -2.4777
    -7     -56.891548     -17.369637      -2.429261     -2.4812
    -7     -56.290321     -19.276190      -0.543995     -1.9045
    -7     -54.577419     -17.912346      -7.116743     -2.1013
    -7     -55.409958     -16.911087      -6.674406     -1.9801
    -7     -60.099777     -20.819519       1.518278     -2.7973
    -7     -63.213524     -21.778332       0.965497     -3.1282
    -7     -61.512638     -16.111610      -1.300034     -1.8638
    -7     -55.826088     -22.416035      -2.841531     -3.8759
    -7     -55.151958     -20.697311      -9.137043     -2.2836
    -7     -54.890404     -27.125534       0.936790     -1.8322
    -7     -58.900482     -16.401325      -2.645217     -2.3239
    -7     -58.713432     -22.861689       2.754461     -2.6597
    -7     -64.855240     -17.872013      -5.813002     -0.9766
    -7     -62.675667     -22.844919      -1.620027     -3.4401
    -7     -60.751656     -21.209557      -5.645169     -3.3319
    -7     -61.391350     -27.644360      -0.436289     -2.6230
    -7     -68.865738     -27.850965       3.089641     -1.0054
    -7     -65.498535     -30.190552       5.461340     -1.0017
    -7     -61.647587     -28.154945       0.946597     -3.2392
    -7     -60.004753     -24.102345       3.577644     -3.2332
    -7     -64.931381     -24.445087       5.723117     -1.9953
    -8     -58.977501     -22.203804      -1.678968      5.6050
    -8     -58.134979     -27.000477       0.765600      7.1969
    -8     -59.905327     -20.457952      -1.967712      5.9021
    -8     -62.057949     -19.100163      -2.476894      7.2228
    -8     -58.191910     -23.551826      -0.997293      5.1158
    -8     -57.689117     -18.802107      -6.136748      5.9806
    -8     -56.290279     -23.052967      -6.585209      4.9473
    -8     -64.610840     -26.422916       3.187414      7.0749
    -8     -60.723976     -19.442493      -2.033737      5.8209
    -8     -61.910206     -24.780071       0.343889      2.8406
    -8     -65.189224     -25.353325       2.354151      5.4844

$$$$
Untitled
  xed2sdf_05210316543D
 
 62 64  0  0  1  0  0  0  0  0999 V2000
  -61.5870  -23.6556   -2.7756 O   0  0  0  0  0  0  0  0  0  0  0  0
  -62.2840  -25.0506   -0.4066 O   0  0  0  0  0  0  0  0  0  0  0  0
  -60.0530  -24.2136    0.0374 O   0  0  0  0  0  0  0  0  0  0  0  0
  -64.4030  -26.0586   -3.2046 O   0  0  0  0  0  0  0  0  0  0  0  0
  -59.9140  -22.8796   -4.3226 O   0  0  0  0  0  0  0  0  0  0  0  0
  -62.8360  -26.5746   -5.5296 O   0  0  0  0  0  0  0  0  0  0  0  0
  -61.0720  -24.4526   -6.3666 O   0  0  0  0  0  0  0  0  0  0  0  0
  -61.0890  -23.5266    2.7274 O   0  0  0  0  0  0  0  0  0  0  0  0
  -60.9660  -26.2236    3.6024 O   0  0  0  0  0  0  0  0  0  0  0  0
  -58.8140  -27.1446    1.9544 O   0  0  0  0  0  0  0  0  0  0  0  0
  -62.9590  -19.6346   -0.6986 O   0  0  0  0  0  0  0  0  0  0  0  0
  -63.3250  -17.9646   -2.8556 O   0  0  0  0  0  0  0  0  0  0  0  0
  -62.9260  -24.1696   -2.6176 C   0  0  0  0  0  0  0  0  0  0  0  0
  -63.0760  -25.5286   -3.3366 C   0  0  0  0  0  0  0  0  0  0  0  0
  -62.7490  -25.3256   -4.8276 C   0  0  0  0  0  0  0  0  0  0  0  0
  -61.3400  -24.7236   -4.9836 C   0  0  0  0  0  0  0  0  0  0  0  0
  -61.6160  -24.5786    1.9044 C   0  0  0  0  0  0  0  0  0  0  0  0
  -61.4480  -24.2116    0.4144 C   0  0  0  0  0  0  0  0  0  0  0  0
  -60.9070  -25.9156    2.2024 C   0  0  0  0  0  0  0  0  0  0  0  0
  -59.4410  -25.8726    1.7304 C   0  0  0  0  0  0  0  0  0  0  0  0
  -61.2370  -23.4236   -4.1606 C   0  0  0  0  0  0  0  0  0  0  0  0
  -63.2780  -24.2936   -1.1236 C   0  0  0  0  0  0  0  0  0  0  0  0
  -59.4190  -25.4936    0.2364 C   0  0  0  0  0  0  0  0  0  0  0  0
  -57.9670  -25.4326   -0.2636 C   0  0  0  0  0  0  0  0  0  0  0  0
  -59.1780  -22.8616   -3.0886 C   0  0  0  0  0  0  0  0  0  0  0  0
  -58.8580  -21.4116   -2.6856 C   0  0  0  0  0  0  0  0  0  0  0  0
  -60.0620  -20.4866   -2.7246 C   0  0  0  0  0  0  0  0  0  0  0  0
  -60.9700  -20.4786   -1.6866 C   0  0  0  0  0  0  0  0  0  0  0  0
  -60.2500  -19.6476   -3.8006 C   0  0  0  0  0  0  0  0  0  0  0  0
  -62.0620  -19.6386   -1.7246 C   0  0  0  0  0  0  0  0  0  0  0  0
  -61.3390  -18.8046   -3.8456 C   0  0  0  0  0  0  0  0  0  0  0  0
  -62.2470  -18.7976   -2.8106 C   0  0  0  0  0  0  0  0  0  0  0  0
  -63.5670  -23.5276   -3.0376 H   0  0  0  0  0  0  0  0  0  0  0  0
  -62.4470  -26.1836   -2.9186 H   0  0  0  0  0  0  0  0  0  0  0  0
  -63.4150  -24.6916   -5.2196 H   0  0  0  0  0  0  0  0  0  0  0  0
  -60.6640  -25.3796   -4.6466 H   0  0  0  0  0  0  0  0  0  0  0  0
  -62.5890  -24.6856    2.1104 H   0  0  0  0  0  0  0  0  0  0  0  0
  -61.7630  -23.2756    0.2614 H   0  0  0  0  0  0  0  0  0  0  0  0
  -61.3840  -26.6356    1.6984 H   0  0  0  0  0  0  0  0  0  0  0  0
  -58.9290  -25.1876    2.2494 H   0  0  0  0  0  0  0  0  0  0  0  0
  -61.8950  -22.7496   -4.4956 H   0  0  0  0  0  0  0  0  0  0  0  0
  -59.9190  -26.1886   -0.2806 H   0  0  0  0  0  0  0  0  0  0  0  0
  -64.4300  -26.8266   -2.5546 H   0  0  0  0  0  0  0  0  0  0  0  0
  -62.0230  -27.1446   -5.3656 H   0  0  0  0  0  0  0  0  0  0  0  0
  -60.8630  -23.4796   -6.5156 H   0  0  0  0  0  0  0  0  0  0  0  0
  -60.1310  -23.3266    2.4984 H   0  0  0  0  0  0  0  0  0  0  0  0
  -60.3350  -26.9696    3.8414 H   0  0  0  0  0  0  0  0  0  0  0  0
  -59.0210  -27.4976    2.8734 H   0  0  0  0  0  0  0  0  0  0  0  0
  -63.7090  -20.2846   -0.8626 H   0  0  0  0  0  0  0  0  0  0  0  0
  -64.1210  -18.3686   -2.3926 H   0  0  0  0  0  0  0  0  0  0  0  0
  -63.3410  -23.3786   -0.7256 H   0  0  0  0  0  0  0  0  0  0  0  0
  -64.1520  -24.7736   -1.0486 H   0  0  0  0  0  0  0  0  0  0  0  0
  -57.3520  -25.6526    0.4944 H   0  0  0  0  0  0  0  0  0  0  0  0
  -57.8360  -26.0906   -1.0046 H   0  0  0  0  0  0  0  0  0  0  0  0
  -57.7660  -24.5136   -0.6046 H   0  0  0  0  0  0  0  0  0  0  0  0
  -58.3260  -23.3726   -3.2026 H   0  0  0  0  0  0  0  0  0  0  0  0
  -59.7310  -23.2856   -2.3716 H   0  0  0  0  0  0  0  0  0  0  0  0
  -58.1620  -21.0556   -3.3096 H   0  0  0  0  0  0  0  0  0  0  0  0
  -58.5400  -21.4356   -1.7376 H   0  0  0  0  0  0  0  0  0  0  0  0
  -60.8360  -21.0856   -0.9026 H   0  0  0  0  0  0  0  0  0  0  0  0
  -59.5920  -19.6506   -4.5536 H   0  0  0  0  0  0  0  0  0  0  0  0
  -61.4700  -18.1986   -4.6296 H   0  0  0  0  0  0  0  0  0  0  0  0
  1 13  1  0
  1 21  1  0
  2 22  1  0
  3 18  1  0
  3 23  1  0
  5 25  1  0
 11 30  1  0
 12 32  1  0
 13 14  1  0
 13 22  1  0
 14  4  1  0
 14 15  1  0
 15  6  1  0
 15 16  1  0
 16  7  1  0
 16 21  1  0
 17  8  1  0
 17 18  1  0
 17 19  1  0
 18  2  1  0
 19  9  1  0
 19 20  1  0
 20 10  1  0
 20 23  1  0
 21  5  1  0
 23 24  1  0
 25 26  1  0
 26 27  1  0
 27 28  2  0
 27 29  1  0
 28 30  1  0
 29 31  2  0
 30 32  2  0
 31 32  1  0
  4 43  1  0
  6 44  1  0
  7 45  1  0
  8 46  1  0
  9 47  1  0
 10 48  1  0
 11 49  1  0
 12 50  1  0
 13 33  1  0
 14 34  1  0
 15 35  1  0
 16 36  1  0
 17 37  1  0
 18 38  1  0
 19 39  1  0
 20 40  1  0
 21 41  1  0
 22 51  1  0
 22 52  1  0
 23 42  1  0
 24 53  1  0
 24 54  1  0
 24 55  1  0
 25 56  1  0
 25 57  1  0
 26 58  1  0
 26 59  1  0
 28 60  1  0
 29 61  1  0
 31 62  1  0
M  END
>  <BioMolTech Lead Finder dG>
-7.316

>  <BioMolTech Lead Finder VSscore>
-13.911

>  <BioMolTech Lead Finder Rank score>
-10.675

>  <BioMolTech Lead Finder LE>
-0.229

>  <BioMolTech Lead Finder Structure Name>
/var/folders/xd/y7jw_xv579q2qqq7kks92xd80000gn/T/LeadFinder_45289_1/Ligand_1.sdf

>  <BioMolTech Lead Finder SDF id>
0

>  <BioMolTech Lead Finder Pose rank>
0

>  <BioMolTech Lead Finder version>
2001 1, 19 January 2019

>  <PUBCHEM_COMPOUND_CID>
69634125

>  <PUBCHEM_COMPOUND_CANONICALIZED>
1

>  <PUBCHEM_CACTVS_COMPLEXITY>
581

>  <PUBCHEM_CACTVS_HBOND_ACCEPTOR>
12

>  <PUBCHEM_CACTVS_HBOND_DONOR>
8

>  <PUBCHEM_CACTVS_ROTATABLE_BOND>
7

>  <PUBCHEM_CACTVS_SUBSKEYS>
AAADceB4PAAAAAAAAAAAAAAAAAAAAAAAAAA0SIAAAAAAAAABAAAAGgAACAAADBSwmAMyDoAABgCAAiBCAAACAAAgIAAIiAAGiIgZNiKCERKicAElwBEPmAfA4LwOIAABAAAAQABAAAIAAACAAAAAAAAAAA==

>  <PUBCHEM_IUPAC_OPENEYE_NAME>
(2R,3R,4R,5R,6S)-2-[[(2R,3S,4S,5R,6R)-6-[2-(3,4-dihydroxyphenyl)ethoxy]-3,4,5-trihydroxy-tetrahydropyran-2-yl]methoxy]-6-methyl-tetrahydropyran-3,4,5-triol

>  <PUBCHEM_IUPAC_CAS_NAME>
(2R,3R,4R,5R,6S)-2-[[(2R,3S,4S,5R,6R)-6-[2-(3,4-dihydroxyphenyl)ethoxy]-3,4,5-trihydroxy-2-oxanyl]methoxy]-6-methyloxane-3,4,5-triol

>  <PUBCHEM_IUPAC_NAME_MARKUP>
(2<I>R</I>,3<I>R</I>,4<I>R</I>,5<I>R</I>,6<I>S</I>)-2-[[(2<I>R</I>,3<I>S</I>,4<I>S</I>,5<I>R</I>,6<I>R</I>)-6-[2-(3,4-dihydroxyphenyl)ethoxy]-3,4,5-trihydroxyoxan-2-yl]methoxy]-6-methyloxane-3,4,5-tri

>  <PUBCHEM_IUPAC_NAME>
(2R,3R,4R,5R,6S)-2-[[(2R,3S,4S,5R,6R)-6-[2-(3,4-dihydroxyphenyl)ethoxy]-3,4,5-trihydroxyoxan-2-yl]methoxy]-6-methyloxane-3,4,5-triol

>  <PUBCHEM_IUPAC_SYSTEMATIC_NAME>
(2R,3R,4R,5R,6S)-2-[[(2R,3S,4S,5R,6R)-6-[2-[3,4-bis(oxidanyl)phenyl]ethoxy]-3,4,5-tris(oxidanyl)oxan-2-yl]methoxy]-6-methyl-oxane-3,4,5-triol

>  <PUBCHEM_IUPAC_TRADITIONAL_NAME>
(2R,3R,4R,5R,6S)-2-[[(2R,3S,4S,5R,6R)-6-[2-(3,4-dihydroxyphenyl)ethoxy]-3,4,5-trihydroxy-tetrahydropyran-2-yl]methoxy]-6-methyl-tetrahydropyran-3,4,5-triol

>  <PUBCHEM_IUPAC_INCHI>
InChI=1S/C20H30O12/c1-8-13(23)15(25)17(27)20(31-8)30-7-12-14(24)16(26)18(28)19(32-12)29-5-4-9-2-3-10(21)11(22)6-9/h2-3,6,8,12-28H,4-5,7H2,1H3/t8-,12+,13-,14+,15+,16-,17+,18+,19+,20+/m0/s1

>  <PUBCHEM_IUPAC_INCHIKEY>
QIMGUQIHCNDUKU-OJJLXHDHSA-N

>  <PUBCHEM_XLOGP3_AA>
-2.5

>  <PUBCHEM_EXACT_MASS>
462.173726

>  <PUBCHEM_MOLECULAR_FORMULA>
C20H30O12

>  <PUBCHEM_MOLECULAR_WEIGHT>
462.4

>  <PUBCHEM_OPENEYE_CAN_SMILES>
CC1C(C(C(C(O1)OCC2C(C(C(C(O2)OCCC3=CC(=C(C=C3)O)O)O)O)O)O)O)O

>  <PUBCHEM_OPENEYE_ISO_SMILES>
C[C@H]1[C@@H]([C@H]([C@H]([C@@H](O1)OC[C@@H]2[C@H]([C@@H]([C@H]([C@@H](O2)OCCC3=CC(=C(C=C3)O)O)O)O)O)O)O)O

>  <PUBCHEM_CACTVS_TPSA>
199

>  <PUBCHEM_MONOISOTOPIC_WEIGHT>
462.173726

>  <PUBCHEM_TOTAL_CHARGE>
0

>  <PUBCHEM_HEAVY_ATOM_COUNT>
32

>  <PUBCHEM_ATOM_DEF_STEREO_COUNT>
10

>  <PUBCHEM_ATOM_UDEF_STEREO_COUNT>
0

>  <PUBCHEM_BOND_DEF_STEREO_COUNT>
0

>  <PUBCHEM_BOND_UDEF_STEREO_COUNT>
0

>  <PUBCHEM_ISOTOPIC_ATOM_COUNT>
0

>  <PUBCHEM_COMPONENT_COUNT>
1

>  <PUBCHEM_CACTVS_TAUTO_COUNT>
-1

>  <PUBCHEM_COORDINATE_TYPE>
1
5
255

>  <PUBCHEM_BONDANNOTATIONS>
20  10  5
13  22  5
18  2  5
23  24  6
27  28  8
27  29  8
28  30  8
29  31  8
30  32  8
31  32  8
14  4  6
21  5  5
15  6  5
16  7  6
17  8  6
19  9  6

>  <LF dG>
-7.316

>  <LF VSscore>
-13.911

>  <LF Rank Score>
-10.675

>  <LF LE>
-0.229

>  <Preferred Pose_cresset>
true

>  <Favorite_cresset>
false

>  <Protein_cresset>
6M2N_Dimer_P

>  <MW_cresset>
462.4

>  <#Atoms_cresset>
32

>  <SlogP_cresset>
-0.4

>  <TPSA_cresset>
198.8

>  <Flexibility_cresset>
15.9

>  <#RB_cresset>
15

>  <Rof5_cresset>
2

>  <Filename_cresset>
Forsythoside E.sdf

>  <Confs_cresset>
0

>  <Poses_cresset>
10

>  <_cresset_fieldpoints>
    -5     -61.386673     -24.380867       4.571063     -9.9438
    -5     -64.616219     -27.049816      -5.770789    -11.0215
    -5     -62.190666     -25.733974      -7.479539    -11.0720
    -5     -58.641575     -23.621960      -5.840537     -4.1309
    -5     -60.111282     -17.298512      -1.287700     -6.1061
    -5     -57.815540     -28.241371       0.839731     -4.5809
    -5     -62.378677     -16.193504      -1.877222     -5.7924
    -6     -63.566093     -27.866558      -1.438215      7.0124
    -6     -64.733871     -21.526646      -1.523837      9.6767
    -6     -65.148743     -19.917080      -1.867339      9.6501
    -6     -59.324020     -28.267868       4.372363     11.7771
    -6     -61.639282     -21.867731      -6.733910      3.9482
    -6     -56.262718     -22.924126      -1.708980      2.6053
    -6     -57.497799     -19.855379      -5.429896      1.3849
    -6     -60.954025     -27.739239      -4.016039      6.9833
    -6     -58.389019     -22.970730       2.383474      5.7522
    -6     -59.822418     -18.605190      -6.718443      1.4298
    -7     -62.215141     -27.389717      -0.643516     -3.1590
    -7     -59.022034     -22.206036       0.658513     -3.7907
    -7     -59.994759     -28.782045       0.518955     -1.8592
    -7     -63.909973     -28.418800      -4.316991     -1.6345
    -7     -66.152763     -24.409550      -3.125608     -1.8194
    -7     -59.394424     -21.678303      -6.253607     -2.6687
    -7     -61.540062     -26.553230      -7.648066     -1.5082
    -7     -62.996414     -22.513100      -6.821819     -1.8980
    -7     -59.880547     -26.567959      -2.721476     -3.0827
    -7     -63.058311     -21.339573       1.086603     -2.5758
    -7     -59.206909     -17.520363      -1.260181     -1.8253
    -7     -59.747070     -24.249470       4.686119     -1.9348
    -7     -63.283756     -26.172981       4.385456     -1.2467
    -7     -56.555954     -26.876976       2.697184     -1.5331
    -7     -63.908211     -21.298420      -4.161324     -2.8442
    -7     -56.123047     -22.818737      -1.624973     -1.7192
    -7     -64.365524     -17.715977      -0.225896     -1.4196
    -8     -62.387058     -24.635159      -4.066002      5.1931
    -8     -60.548813     -25.437143       1.325335      4.8748
    -8     -58.604839     -25.626436       0.525046      4.4716
    -8     -63.405251     -24.604984      -2.295567      3.9951
    -8     -61.104061     -19.669125      -2.789870      6.9320

$$$$
Untitled
  xed2sdf_05210316543D
 
 30 32  0  0  0  0  0  0  0  0999 V2000
  -54.0438  -21.7227   -9.8151 O   0  0  0  0  0  0  0  0  0  0  0  0
  -54.9958  -24.7627   -6.1661 O   0  0  0  0  0  0  0  0  0  0  0  0
  -55.3138  -22.6347   -4.5301 O   0  0  0  0  0  0  0  0  0  0  0  0
  -55.0188  -20.0837   -5.5021 O   0  0  0  0  0  0  0  0  0  0  0  0
  -54.4698  -25.5827   -8.7021 O   0  0  0  0  0  0  0  0  0  0  0  0
  -54.5208  -23.3127   -8.0361 C   0  0  0  0  0  0  0  0  0  0  0  0
  -54.3628  -22.0097   -8.5211 C   0  0  0  0  0  0  0  0  0  0  0  0
  -53.8398  -22.7637  -10.6851 C   0  0  0  0  0  0  0  0  0  0  0  0
  -54.8408  -23.5137   -6.6831 C   0  0  0  0  0  0  0  0  0  0  0  0
  -54.3368  -24.3937   -8.9881 C   0  0  0  0  0  0  0  0  0  0  0  0
  -53.9818  -24.0707  -10.3211 C   0  0  0  0  0  0  0  0  0  0  0  0
  -53.4478  -22.4037  -12.0741 C   0  0  0  0  0  0  0  0  0  0  0  0
  -54.5348  -20.9437   -7.6571 C   0  0  0  0  0  0  0  0  0  0  0  0
  -55.0028  -22.4367   -5.8471 C   0  0  0  0  0  0  0  0  0  0  0  0
  -54.8528  -21.1447   -6.3331 C   0  0  0  0  0  0  0  0  0  0  0  0
  -52.1948  -22.6857  -12.6011 C   0  0  0  0  0  0  0  0  0  0  0  0
  -54.3658  -21.7517  -12.8831 C   0  0  0  0  0  0  0  0  0  0  0  0
  -51.8748  -22.3277  -13.8881 C   0  0  0  0  0  0  0  0  0  0  0  0
  -54.0468  -21.3937  -14.1701 C   0  0  0  0  0  0  0  0  0  0  0  0
  -52.7998  -21.6817  -14.6761 C   0  0  0  0  0  0  0  0  0  0  0  0
  -55.6328  -24.7767   -5.3921 H   0  0  0  0  0  0  0  0  0  0  0  0
  -55.7868  -23.5117   -4.3911 H   0  0  0  0  0  0  0  0  0  0  0  0
  -54.3318  -20.0807   -4.7671 H   0  0  0  0  0  0  0  0  0  0  0  0
  -53.8368  -24.7977  -10.9921 H   0  0  0  0  0  0  0  0  0  0  0  0
  -54.4258  -20.0107   -8.0001 H   0  0  0  0  0  0  0  0  0  0  0  0
  -51.5158  -23.1557  -12.0361 H   0  0  0  0  0  0  0  0  0  0  0  0
  -55.2748  -21.5387  -12.5241 H   0  0  0  0  0  0  0  0  0  0  0  0
  -50.9688  -22.5387  -14.2541 H   0  0  0  0  0  0  0  0  0  0  0  0
  -54.7208  -20.9247  -14.7401 H   0  0  0  0  0  0  0  0  0  0  0  0
  -52.5658  -21.4207  -15.6141 H   0  0  0  0  0  0  0  0  0  0  0  0
  1  7  1  0
  1  8  1  0
  2  9  1  0
  3 14  1  0
  4 15  1  0
  5 10  2  0
  6  7  2  0
  6  9  1  0
  6 10  1  0
  7 13  1  0
  8 11  2  0
  8 12  1  0
  9 14  2  0
 10 11  1  0
 12 16  2  0
 12 17  1  0
 13 15  2  0
 14 15  1  0
 16 18  1  0
 17 19  2  0
 18 20  2  0
 19 20  1  0
  2 21  1  0
  3 22  1  0
  4 23  1  0
 11 24  1  0
 13 25  1  0
 16 26  1  0
 17 27  1  0
 18 28  1  0
 19 29  1  0
 20 30  1  0
M  END
>  <BioMolTech Lead Finder dG>
-6.43

>  <BioMolTech Lead Finder VSscore>
-7.456

>  <BioMolTech Lead Finder Rank score>
-10.702

>  <BioMolTech Lead Finder LE>
-0.322

>  <BioMolTech Lead Finder Structure Name>
/var/folders/xd/y7jw_xv579q2qqq7kks92xd80000gn/T/LeadFinder_45291_1/Ligand_1.sdf

>  <BioMolTech Lead Finder SDF id>
0

>  <BioMolTech Lead Finder Pose rank>
0

>  <BioMolTech Lead Finder version>
2001 1, 19 January 2019

>  <PUBCHEM_COMPOUND_CID>
5281605

>  <PUBCHEM_COMPOUND_CANONICALIZED>
1

>  <PUBCHEM_CACTVS_COMPLEXITY>
413

>  <PUBCHEM_CACTVS_HBOND_ACCEPTOR>
5

>  <PUBCHEM_CACTVS_HBOND_DONOR>
3

>  <PUBCHEM_CACTVS_ROTATABLE_BOND>
1

>  <PUBCHEM_CACTVS_SUBSKEYS>
AAADccBwOAAAAAAAAAAAAAAAAAAAAAAAAAAwYIAAAAAAAACBQAAAGgAACAAADASAmAAwBoAABgCIAqBSAAACCAAkIAAIiAEGiMgNJzaGNRqCeWGl4BUJuQfK7LzOIQABCAAIQABCAAIQABCAAAAAAAAAAA==

>  <PUBCHEM_IUPAC_OPENEYE_NAME>
5,6,7-trihydroxy-2-phenyl-chromen-4-one

>  <PUBCHEM_IUPAC_CAS_NAME>
5,6,7-trihydroxy-2-phenyl-1-benzopyran-4-one

>  <PUBCHEM_IUPAC_NAME_MARKUP>
5,6,7-trihydroxy-2-phenylchromen-4-one

>  <PUBCHEM_IUPAC_NAME>
5,6,7-trihydroxy-2-phenylchromen-4-one

>  <PUBCHEM_IUPAC_SYSTEMATIC_NAME>
5,6,7-tris(oxidanyl)-2-phenyl-chromen-4-one

>  <PUBCHEM_IUPAC_TRADITIONAL_NAME>
5,6,7-trihydroxy-2-phenyl-chromone

>  <PUBCHEM_IUPAC_INCHI>
InChI=1S/C15H10O5/c16-9-6-11(8-4-2-1-3-5-8)20-12-7-10(17)14(18)15(19)13(9)12/h1-7,17-19H

>  <PUBCHEM_IUPAC_INCHIKEY>
FXNFHKRTJBSTCS-UHFFFAOYSA-N

>  <PUBCHEM_XLOGP3>
1.7

>  <PUBCHEM_EXACT_MASS>
270.052823

>  <PUBCHEM_MOLECULAR_FORMULA>
C15H10O5

>  <PUBCHEM_MOLECULAR_WEIGHT>
270.24

>  <PUBCHEM_OPENEYE_CAN_SMILES>
C1=CC=C(C=C1)C2=CC(=O)C3=C(O2)C=C(C(=C3O)O)O

>  <PUBCHEM_OPENEYE_ISO_SMILES>
C1=CC=C(C=C1)C2=CC(=O)C3=C(O2)C=C(C(=C3O)O)O

>  <PUBCHEM_CACTVS_TPSA>
87

>  <PUBCHEM_MONOISOTOPIC_WEIGHT>
270.052823

>  <PUBCHEM_TOTAL_CHARGE>
0

>  <PUBCHEM_HEAVY_ATOM_COUNT>
20

>  <PUBCHEM_ATOM_DEF_STEREO_COUNT>
0

>  <PUBCHEM_ATOM_UDEF_STEREO_COUNT>
0

>  <PUBCHEM_BOND_DEF_STEREO_COUNT>
0

>  <PUBCHEM_BOND_UDEF_STEREO_COUNT>
0

>  <PUBCHEM_ISOTOPIC_ATOM_COUNT>
0

>  <PUBCHEM_COMPONENT_COUNT>
1

>  <PUBCHEM_CACTVS_TAUTO_COUNT>
-1

>  <PUBCHEM_COORDINATE_TYPE>
1
5
255

>  <PUBCHEM_BONDANNOTATIONS>
1  7  8
1  8  8
10  11  8
12  16  8
12  17  8
13  15  8
14  15  8
16  18  8
17  19  8
18  20  8
19  20  8
6  10  8
6  7  8
6  9  8
7  13  8
8  11  8
9  14  8

>  <LF dG>
-6.43

>  <LF VSscore>
-7.456

>  <LF Rank Score>
-10.702

>  <LF LE>
-0.322

>  <Preferred Pose_cresset>
true

>  <Favorite_cresset>
false

>  <Protein_cresset>
6M2N_Dimer_P

>  <MW_cresset>
270.2

>  <#Atoms_cresset>
20

>  <SlogP_cresset>
2.3

>  <TPSA_cresset>
87

>  <Flexibility_cresset>
1.7

>  <#RB_cresset>
4

>  <Rof5_cresset>
0

>  <Filename_cresset>
Baicalein.sdf

>  <Confs_cresset>
0

>  <Poses_cresset>
10

>  <_cresset_fieldpoints>
    -5     -54.605560     -26.550432      -7.109468    -13.0236
    -5     -52.190681     -19.473206     -12.244240     -3.2565
    -5     -54.347122     -27.283779      -9.478003    -10.9968
    -5     -56.999313     -19.568628      -5.251163     -4.2069
    -5     -54.174603     -24.619980     -14.474218     -2.9458
    -6     -52.989372     -19.743248      -3.688748      4.6469
    -6     -56.767559     -24.879322      -4.053082     10.1362
    -6     -53.504272     -18.045282      -8.401690      1.2943
    -6     -50.820984     -23.417017     -10.009388      1.8329
    -6     -56.917458     -20.305389     -14.068871      2.7447
    -6     -49.224766     -23.617413     -13.050591      2.7557
    -6     -50.346382     -21.892910     -16.585272      2.9000
    -6     -54.164345     -20.244560     -17.082613      2.8958
    -7     -52.924583     -26.182533      -6.770197     -1.6414
    -7     -54.001144     -24.857815      -3.717064     -1.4969
    -7     -57.774651     -22.286983      -8.184087     -1.8129
    -7     -57.879272     -24.082867      -5.381163     -1.3903
    -7     -55.982018     -20.657646      -3.170153     -1.4242
    -7     -51.474113     -22.471825      -6.734882     -1.8173
    -7     -53.619865     -18.076202      -5.936190     -1.2365
    -7     -56.637539     -26.122192      -7.466767     -1.7089
    -7     -51.256302     -23.131622      -9.264278     -2.5902
    -7     -54.383766     -25.142906     -13.630325     -2.0318
    -7     -57.145325     -20.015320     -13.698885     -0.9956
    -7     -50.164299     -21.969711     -16.800262     -0.9673
    -7     -49.170868     -24.160488     -12.885639     -0.9916
    -7     -56.806046     -22.789524     -10.653319     -2.5891
    -7     -54.280907     -20.141129     -17.321671     -0.9670
    -7     -56.185799     -20.291876     -10.575521     -2.1607
    -7     -53.624786     -18.876148     -16.390121     -0.9561
    -7     -52.971977     -19.598743     -10.473855     -2.4405
    -8     -53.124992     -22.044312     -13.379611      7.1502
    -8     -54.678562     -22.226145      -7.216910      6.5997
    -8     -54.208641     -23.358444      -9.267778      5.0051

$$$$
Untitled
  xed2sdf_05210316543D
 
 33 35  0  0  0  0  0  0  0  0999 V2000
  -63.2540  -25.2135    0.3286 O   0  0  0  0  0  0  0  0  0  0  0  0
  -64.8420  -24.6435    2.5926 O   0  0  0  0  0  0  0  0  0  0  0  0
  -67.1550  -24.3925   -2.3894 O   0  0  0  0  0  0  0  0  0  0  0  0
  -67.4140  -23.9965    2.2926 O   0  0  0  0  0  0  0  0  0  0  0  0
  -64.7860  -24.9975   -3.3974 O   0  0  0  0  0  0  0  0  0  0  0  0
  -65.1790  -24.7995   -1.0764 C   0  0  0  0  0  0  0  0  0  0  0  0
  -64.5680  -24.8785    0.1816 C   0  0  0  0  0  0  0  0  0  0  0  0
  -62.5020  -25.4815   -0.7874 C   0  0  0  0  0  0  0  0  0  0  0  0
  -65.3250  -24.6045    1.3256 C   0  0  0  0  0  0  0  0  0  0  0  0
  -64.3610  -25.0685   -2.2454 C   0  0  0  0  0  0  0  0  0  0  0  0
  -66.5350  -24.4615   -1.1824 C   0  0  0  0  0  0  0  0  0  0  0  0
  -63.0030  -25.4185   -2.0524 C   0  0  0  0  0  0  0  0  0  0  0  0
  -61.0810  -25.8485   -0.5524 C   0  0  0  0  0  0  0  0  0  0  0  0
  -66.6600  -24.2665    1.1916 C   0  0  0  0  0  0  0  0  0  0  0  0
  -67.2580  -24.1955   -0.0544 C   0  0  0  0  0  0  0  0  0  0  0  0
  -60.6380  -27.1635   -0.4944 C   0  0  0  0  0  0  0  0  0  0  0  0
  -60.1490  -24.8355   -0.3834 C   0  0  0  0  0  0  0  0  0  0  0  0
  -59.3120  -27.4505   -0.2754 C   0  0  0  0  0  0  0  0  0  0  0  0
  -58.8240  -25.1225   -0.1654 C   0  0  0  0  0  0  0  0  0  0  0  0
  -58.4020  -26.4315   -0.1104 C   0  0  0  0  0  0  0  0  0  0  0  0
  -64.8140  -25.8765    3.3366 C   0  0  0  0  0  0  0  0  0  0  0  0
  -66.9560  -23.5315   -2.8644 H   0  0  0  0  0  0  0  0  0  0  0  0
  -68.1060  -23.2905    2.1136 H   0  0  0  0  0  0  0  0  0  0  0  0
  -62.4180  -25.6185   -2.8384 H   0  0  0  0  0  0  0  0  0  0  0  0
  -68.2240  -23.9485   -0.1294 H   0  0  0  0  0  0  0  0  0  0  0  0
  -61.2920  -27.9115   -0.6134 H   0  0  0  0  0  0  0  0  0  0  0  0
  -60.4460  -23.8815   -0.4214 H   0  0  0  0  0  0  0  0  0  0  0  0
  -59.0080  -28.4025   -0.2354 H   0  0  0  0  0  0  0  0  0  0  0  0
  -58.1650  -24.3795   -0.0454 H   0  0  0  0  0  0  0  0  0  0  0  0
  -57.4370  -26.6415    0.0486 H   0  0  0  0  0  0  0  0  0  0  0  0
  -65.1900  -26.6085    2.7696 H   0  0  0  0  0  0  0  0  0  0  0  0
  -63.8720  -26.0965    3.5906 H   0  0  0  0  0  0  0  0  0  0  0  0
  -65.3610  -25.7795    4.1686 H   0  0  0  0  0  0  0  0  0  0  0  0
  1  7  1  0
  1  8  1  0
  2  9  1  0
  2 21  1  0
  3 11  1  0
  4 14  1  0
  5 10  2  0
  6  7  2  0
  6 10  1  0
  6 11  1  0
  7  9  1  0
  8 12  2  0
  8 13  1  0
  9 14  2  0
 10 12  1  0
 11 15  2  0
 13 16  2  0
 13 17  1  0
 14 15  1  0
 16 18  1  0
 17 19  2  0
 18 20  2  0
 19 20  1  0
  3 22  1  0
  4 23  1  0
 12 24  1  0
 15 25  1  0
 16 26  1  0
 17 27  1  0
 18 28  1  0
 19 29  1  0
 20 30  1  0
 21 31  1  0
 21 32  1  0
 21 33  1  0
M  END
>  <BioMolTech Lead Finder dG>
-6.617

>  <BioMolTech Lead Finder VSscore>
-7.635

>  <BioMolTech Lead Finder Rank score>
-10.424

>  <BioMolTech Lead Finder LE>
-0.315

>  <BioMolTech Lead Finder Structure Name>
/var/folders/xd/y7jw_xv579q2qqq7kks92xd80000gn/T/LeadFinder_44914_1/Ligand_1.sdf

>  <BioMolTech Lead Finder SDF id>
0

>  <BioMolTech Lead Finder Pose rank>
0

>  <BioMolTech Lead Finder version>
2001 1, 19 January 2019

>  <PUBCHEM_COMPOUND_CID>
5281703

>  <PUBCHEM_COMPOUND_CANONICALIZED>
1

>  <PUBCHEM_CACTVS_COMPLEXITY>
426

>  <PUBCHEM_CACTVS_HBOND_ACCEPTOR>
5

>  <PUBCHEM_CACTVS_HBOND_DONOR>
2

>  <PUBCHEM_CACTVS_ROTATABLE_BOND>
2

>  <PUBCHEM_CACTVS_SUBSKEYS>
AAADccB4OAAAAAAAAAAAAAAAAAAAAAAAAAAwYIAAAAAAAACBQAAAGgAACAAADASAmAIyBoAABgCIAqBSAAACCAAkIAAIiAEGiMgNJzaGNRqCeWOl4BULuQfK7LzOIQABCAAIQABCAAIQABCAAAAAAAAAAA==

>  <PUBCHEM_IUPAC_OPENEYE_NAME>
5,7-dihydroxy-8-methoxy-2-phenyl-chromen-4-one

>  <PUBCHEM_IUPAC_CAS_NAME>
5,7-dihydroxy-8-methoxy-2-phenyl-1-benzopyran-4-one

>  <PUBCHEM_IUPAC_NAME_MARKUP>
5,7-dihydroxy-8-methoxy-2-phenylchromen-4-one

>  <PUBCHEM_IUPAC_NAME>
5,7-dihydroxy-8-methoxy-2-phenylchromen-4-one

>  <PUBCHEM_IUPAC_SYSTEMATIC_NAME>
8-methoxy-5,7-bis(oxidanyl)-2-phenyl-chromen-4-one

>  <PUBCHEM_IUPAC_TRADITIONAL_NAME>
5,7-dihydroxy-8-methoxy-2-phenyl-chromone

>  <PUBCHEM_IUPAC_INCHI>
InChI=1S/C16H12O5/c1-20-15-12(19)7-10(17)14-11(18)8-13(21-16(14)15)9-5-3-2-4-6-9/h2-8,17,19H,1H3

>  <PUBCHEM_IUPAC_INCHIKEY>
XLTFNNCXVBYBSX-UHFFFAOYSA-N

>  <PUBCHEM_XLOGP3_AA>
3

>  <PUBCHEM_EXACT_MASS>
284.068473

>  <PUBCHEM_MOLECULAR_FORMULA>
C16H12O5

>  <PUBCHEM_MOLECULAR_WEIGHT>
284.26

>  <PUBCHEM_OPENEYE_CAN_SMILES>
COC1=C(C=C(C2=C1OC(=CC2=O)C3=CC=CC=C3)O)O

>  <PUBCHEM_OPENEYE_ISO_SMILES>
COC1=C(C=C(C2=C1OC(=CC2=O)C3=CC=CC=C3)O)O

>  <PUBCHEM_CACTVS_TPSA>
76

>  <PUBCHEM_MONOISOTOPIC_WEIGHT>
284.068473

>  <PUBCHEM_TOTAL_CHARGE>
0

>  <PUBCHEM_HEAVY_ATOM_COUNT>
21

>  <PUBCHEM_ATOM_DEF_STEREO_COUNT>
0

>  <PUBCHEM_ATOM_UDEF_STEREO_COUNT>
0

>  <PUBCHEM_BOND_DEF_STEREO_COUNT>
0

>  <PUBCHEM_BOND_UDEF_STEREO_COUNT>
0

>  <PUBCHEM_ISOTOPIC_ATOM_COUNT>
0

>  <PUBCHEM_COMPONENT_COUNT>
1

>  <PUBCHEM_CACTVS_TAUTO_COUNT>
-1

>  <PUBCHEM_COORDINATE_TYPE>
1
5
255

>  <PUBCHEM_BONDANNOTATIONS>
1  7  8
1  8  8
10  12  8
11  15  8
13  16  8
13  17  8
14  15  8
16  18  8
17  19  8
18  20  8
19  20  8
6  10  8
6  11  8
6  7  8
7  9  8
8  12  8
9  14  8

>  <LF dG>
-6.617

>  <LF VSscore>
-7.635

>  <LF Rank Score>
-10.424

>  <LF LE>
-0.315

>  <Preferred Pose_cresset>
true

>  <Favorite_cresset>
false

>  <Protein_cresset>
6M2N_Dimer_P

>  <MW_cresset>
284.3

>  <#Atoms_cresset>
21

>  <SlogP_cresset>
2.6

>  <TPSA_cresset>
76

>  <Flexibility_cresset>
1.7

>  <#RB_cresset>
4

>  <Rof5_cresset>
0

>  <Filename_cresset>
Wogonin.sdf

>  <Confs_cresset>
0

>  <Poses_cresset>
10

>  <_cresset_fieldpoints>
    -5     -62.274437     -24.392921       2.244779     -5.0856
    -5     -66.552696     -25.599106      -3.967467    -11.9022
    -5     -64.194809     -25.458481      -5.123489    -10.0746
    -5     -59.020260     -26.121231      -3.240558     -2.6460
    -5     -65.946136     -23.047928       3.899395     -5.3646
    -6     -58.671791     -22.050884      -0.230710      2.7345
    -6     -69.411209     -22.460880       1.274634      7.1916
    -6     -67.432785     -21.784443      -2.618391      3.9286
    -6     -60.518082     -30.281248      -0.444311      2.9701
    -6     -56.638847     -29.001472       0.148474      2.9824
    -6     -62.199951     -22.589584      -0.951300      2.4182
    -6     -55.732883     -24.900471       0.323958      2.9162
    -6     -63.534992     -28.126682      -0.078362      2.6597
    -7     -66.776070     -26.522556      -3.733803     -1.6618
    -7     -69.297310     -23.147316      -2.596233     -1.2667
    -7     -64.826187     -21.501041      -0.273039     -1.8631
    -7     -68.079239     -26.086988       3.474800     -1.6792
    -7     -66.316513     -27.734695       0.542037     -2.2149
    -7     -69.561172     -25.201012       2.432432     -1.2888
    -7     -64.959351     -22.344753      -3.370928     -1.7812
    -7     -59.856728     -25.948750      -3.635992     -2.0545
    -7     -62.591194     -22.500111      -1.074658     -2.6354
    -7     -66.530594     -23.196121       4.380443     -1.8119
    -7     -60.733639     -30.539104      -0.512173     -0.9883
    -7     -60.891617     -30.394314       0.413098     -0.9871
    -7     -59.006859     -21.750378       0.340770     -0.9934
    -7     -63.582195     -27.835960       0.916315     -2.9117
    -7     -61.972740     -24.546558       2.372516     -3.0015
    -7     -56.419441     -29.176359       0.179794     -0.9674
    -7     -55.488449     -24.753933       0.380762     -0.9671
    -8     -59.735085     -26.141277      -0.335135      7.1507
    -8     -65.925682     -24.538116       0.034399      6.5998
    -8     -63.963978     -25.125870      -1.247905      4.9853
    -8     -64.805542     -26.650578       3.758151      2.5156

$$$$
Untitled
  xed2sdf_05210316543D
 
 52 55  0  0  1  0  0  0  0  0999 V2000
  -61.1964  -23.6640    0.4190 O   0  0  0  0  0  0  0  0  0  0  0  0
  -62.0734  -23.3010   -1.7730 O   0  0  0  0  0  0  0  0  0  0  0  0
  -59.8834  -27.5070   -0.6310 O   0  0  0  0  0  0  0  0  0  0  0  0
  -61.7084  -26.0740   -2.3540 O   0  0  0  0  0  0  0  0  0  0  0  0
  -59.8444  -26.6630    2.1260 O   0  0  0  0  0  0  0  0  0  0  0  0
  -59.0904  -24.0790    2.8400 O   0  5  0  0  0  0  0  0  0  0  0  0
  -61.0854  -23.0810    3.3300 O   0  0  0  0  0  0  0  0  0  0  0  0
  -58.3394  -21.6120   -4.0790 O   0  0  0  0  0  0  0  0  0  0  0  0
  -60.2384  -23.5130   -3.7100 O   0  0  0  0  0  0  0  0  0  0  0  0
  -60.3194  -19.0670   -0.5170 O   0  0  0  0  0  0  0  0  0  0  0  0
  -58.2744  -18.2450   -1.8360 O   0  0  0  0  0  0  0  0  0  0  0  0
  -60.7304  -26.4540   -0.1470 C   0  0  0  0  0  0  0  0  0  0  0  0
  -61.0164  -25.4370   -1.2700 C   0  0  0  0  0  0  0  0  0  0  0  0
  -60.0664  -25.7440    1.0470 C   0  0  0  0  0  0  0  0  0  0  0  0
  -61.8564  -24.2660   -0.7180 C   0  0  0  0  0  0  0  0  0  0  0  0
  -60.9844  -24.5940    1.4990 C   0  0  0  0  0  0  0  0  0  0  0  0
  -60.3384  -23.8640    2.6470 C   0  0  0  0  0  0  0  0  0  0  0  0
  -61.1944  -22.3030   -1.9320 C   0  0  0  0  0  0  0  0  0  0  0  0
  -60.2424  -22.4130   -2.9310 C   0  0  0  0  0  0  0  0  0  0  0  0
  -61.2154  -21.1660   -1.1290 C   0  0  0  0  0  0  0  0  0  0  0  0
  -59.2814  -21.4250   -3.1120 C   0  0  0  0  0  0  0  0  0  0  0  0
  -59.3104  -20.2960   -2.2950 C   0  0  0  0  0  0  0  0  0  0  0  0
  -60.2924  -20.1710   -1.3070 C   0  0  0  0  0  0  0  0  0  0  0  0
  -58.2944  -19.2830   -2.4960 C   0  0  0  0  0  0  0  0  0  0  0  0
  -57.3444  -20.6750   -4.2120 C   0  0  0  0  0  0  0  0  0  0  0  0
  -57.2984  -19.5260   -3.4750 C   0  0  0  0  0  0  0  0  0  0  0  0
  -56.2934  -20.9770   -5.2180 C   0  0  0  0  0  0  0  0  0  0  0  0
  -61.0864  -23.5010   -4.8770 C   0  0  0  0  0  0  0  0  0  0  0  0
  -56.3524  -22.1850   -5.8960 C   0  0  0  0  0  0  0  0  0  0  0  0
  -55.2474  -20.1110   -5.5090 C   0  0  0  0  0  0  0  0  0  0  0  0
  -55.4044  -22.5200   -6.8300 C   0  0  0  0  0  0  0  0  0  0  0  0
  -54.2984  -20.4460   -6.4430 C   0  0  0  0  0  0  0  0  0  0  0  0
  -54.3734  -21.6510   -7.1060 C   0  0  0  0  0  0  0  0  0  0  0  0
  -61.5964  -26.8560    0.1530 H   0  0  0  0  0  0  0  0  0  0  0  0
  -60.1464  -25.0810   -1.6120 H   0  0  0  0  0  0  0  0  0  0  0  0
  -59.1764  -25.3820    0.7700 H   0  0  0  0  0  0  0  0  0  0  0  0
  -62.7434  -24.6040   -0.4040 H   0  0  0  0  0  0  0  0  0  0  0  0
  -61.8644  -24.9780    1.7800 H   0  0  0  0  0  0  0  0  0  0  0  0
  -60.1514  -28.3970   -0.2470 H   0  0  0  0  0  0  0  0  0  0  0  0
  -61.0644  -26.4500   -3.0290 H   0  0  0  0  0  0  0  0  0  0  0  0
  -60.1044  -27.6000    1.8680 H   0  0  0  0  0  0  0  0  0  0  0  0
  -60.8524  -18.3250   -0.9390 H   0  0  0  0  0  0  0  0  0  0  0  0
  -61.9114  -21.0760   -0.4170 H   0  0  0  0  0  0  0  0  0  0  0  0
  -56.5664  -18.8610   -3.6250 H   0  0  0  0  0  0  0  0  0  0  0  0
  -61.5674  -22.6260   -4.9200 H   0  0  0  0  0  0  0  0  0  0  0  0
  -60.5304  -23.6210   -5.7000 H   0  0  0  0  0  0  0  0  0  0  0  0
  -61.7484  -24.2480   -4.8200 H   0  0  0  0  0  0  0  0  0  0  0  0
  -57.0984  -22.8230   -5.7010 H   0  0  0  0  0  0  0  0  0  0  0  0
  -55.1844  -19.2340   -5.0320 H   0  0  0  0  0  0  0  0  0  0  0  0
  -55.4614  -23.3960   -7.3110 H   0  0  0  0  0  0  0  0  0  0  0  0
  -53.5494  -19.8140   -6.6430 H   0  0  0  0  0  0  0  0  0  0  0  0
  -53.6814  -21.8930   -7.7860 H   0  0  0  0  0  0  0  0  0  0  0  0
  1 15  1  0
  1 16  1  0
  2 18  1  0
  6 17  1  0
  7 17  2  0
  8 21  1  0
  8 25  1  0
  9 19  1  0
  9 28  1  0
 10 23  1  0
 11 24  2  0
 12  3  1  0
 12 13  1  0
 12 14  1  0
 13  4  1  0
 13 15  1  0
 14  5  1  0
 14 16  1  0
 15  2  1  0
 16 17  1  0
 18 19  2  0
 18 20  1  0
 19 21  1  0
 20 23  2  0
 21 22  2  0
 22 23  1  0
 22 24  1  0
 24 26  1  0
 25 26  2  0
 25 27  1  0
 27 29  2  0
 27 30  1  0
 29 31  1  0
 30 32  2  0
 31 33  2  0
 32 33  1  0
  3 39  1  0
  4 40  1  0
  5 41  1  0
 10 42  1  0
 12 34  1  0
 13 35  1  0
 14 36  1  0
 15 37  1  0
 16 38  1  0
 20 43  1  0
 26 44  1  0
 28 45  1  0
 28 46  1  0
 28 47  1  0
 29 48  1  0
 30 49  1  0
 31 50  1  0
 32 51  1  0
 33 52  1  0
M  CHG  1   6  -1
M  END
>  <BioMolTech Lead Finder dG>
-8.241

>  <BioMolTech Lead Finder VSscore>
-11.651

>  <BioMolTech Lead Finder Rank score>
-11.878

>  <BioMolTech Lead Finder LE>
-0.25

>  <BioMolTech Lead Finder Structure Name>
/var/folders/xd/y7jw_xv579q2qqq7kks92xd80000gn/T/LeadFinder_44914_1/Ligand_1.sdf

>  <BioMolTech Lead Finder SDF id>
0

>  <BioMolTech Lead Finder Pose rank>
0

>  <BioMolTech Lead Finder version>
2001 1, 19 January 2019

>  <PUBCHEM_COMPOUND_CID>
3084961

>  <PUBCHEM_COMPOUND_CANONICALIZED>
1

>  <PUBCHEM_CACTVS_COMPLEXITY>
763

>  <PUBCHEM_CACTVS_HBOND_ACCEPTOR>
11

>  <PUBCHEM_CACTVS_HBOND_DONOR>
5

>  <PUBCHEM_CACTVS_ROTATABLE_BOND>
5

>  <PUBCHEM_CACTVS_SUBSKEYS>
AAADceB4PAAAAAAAAAAAAAAAAAAAAAAAAAA0YIEAAAAAAACBQAAAGgAACAAADBSwmAMyDoAABgCIAqDSCAICCAAkIAAIiAFGiMgdNzaGNR6ieWKl4BUPuQfK7LzOIQABCAAIQABCAAIQABCAAAAAAAAAAA==

>  <PUBCHEM_IUPAC_OPENEYE_NAME>
(2S,3S,4S,5R,6S)-3,4,5-trihydroxy-6-(5-hydroxy-8-methoxy-4-oxo-2-phenyl-chromen-7-yl)oxy-tetrahydropyran-2-carboxylic acid

>  <PUBCHEM_IUPAC_CAS_NAME>
(2S,3S,4S,5R,6S)-3,4,5-trihydroxy-6-[(5-hydroxy-8-methoxy-4-oxo-2-phenyl-1-benzopyran-7-yl)oxy]-2-oxanecarboxylic acid

>  <PUBCHEM_IUPAC_NAME_MARKUP>
(2<I>S</I>,3<I>S</I>,4<I>S</I>,5<I>R</I>,6<I>S</I>)-3,4,5-trihydroxy-6-(5-hydroxy-8-methoxy-4-oxo-2-phenylchromen-7-yl)oxyoxane-2-carboxylic acid

>  <PUBCHEM_IUPAC_NAME>
(2S,3S,4S,5R,6S)-3,4,5-trihydroxy-6-(5-hydroxy-8-methoxy-4-oxo-2-phenylchromen-7-yl)oxyoxane-2-carboxylic acid

>  <PUBCHEM_IUPAC_SYSTEMATIC_NAME>
(2S,3S,4S,5R,6S)-6-(8-methoxy-5-oxidanyl-4-oxidanylidene-2-phenyl-chromen-7-yl)oxy-3,4,5-tris(oxidanyl)oxane-2-carboxylic acid

>  <PUBCHEM_IUPAC_TRADITIONAL_NAME>
(2S,3S,4S,5R,6S)-3,4,5-trihydroxy-6-(5-hydroxy-4-keto-8-methoxy-2-phenyl-chromen-7-yl)oxy-tetrahydropyran-2-carboxylic acid

>  <PUBCHEM_IUPAC_INCHI>
InChI=1S/C22H20O11/c1-30-18-13(32-22-17(27)15(25)16(26)20(33-22)21(28)29)8-11(24)14-10(23)7-12(31-19(14)18)9-5-3-2-4-6-9/h2-8,15-17,20,22,24-27H,1H3,(H,28,29)/t15-,16-,17+,20-,22+/m0/s1

>  <PUBCHEM_IUPAC_INCHIKEY>
LNOHXHDWGCMVCO-NTKSAMNMSA-N

>  <PUBCHEM_XLOGP3_AA>
1.4

>  <PUBCHEM_EXACT_MASS>
460.100561

>  <PUBCHEM_MOLECULAR_FORMULA>
C22H20O11

>  <PUBCHEM_MOLECULAR_WEIGHT>
460.4

>  <PUBCHEM_OPENEYE_CAN_SMILES>
COC1=C(C=C(C2=C1OC(=CC2=O)C3=CC=CC=C3)O)OC4C(C(C(C(O4)C(=O)O)O)O)O

>  <PUBCHEM_OPENEYE_ISO_SMILES>
COC1=C(C=C(C2=C1OC(=CC2=O)C3=CC=CC=C3)O)O[C@H]4[C@@H]([C@H]([C@@H]([C@H](O4)C(=O)O)O)O)O

>  <PUBCHEM_CACTVS_TPSA>
172

>  <PUBCHEM_MONOISOTOPIC_WEIGHT>
460.100561

>  <PUBCHEM_TOTAL_CHARGE>
0

>  <PUBCHEM_HEAVY_ATOM_COUNT>
33

>  <PUBCHEM_ATOM_DEF_STEREO_COUNT>
5

>  <PUBCHEM_ATOM_UDEF_STEREO_COUNT>
0

>  <PUBCHEM_BOND_DEF_STEREO_COUNT>
0

>  <PUBCHEM_BOND_UDEF_STEREO_COUNT>
0

>  <PUBCHEM_ISOTOPIC_ATOM_COUNT>
0

>  <PUBCHEM_COMPONENT_COUNT>
1

>  <PUBCHEM_CACTVS_TAUTO_COUNT>
-1

>  <PUBCHEM_COORDINATE_TYPE>
1
5
255

>  <PUBCHEM_BONDANNOTATIONS>
16  17  5
18  19  8
18  20  8
19  21  8
15  2  5
20  23  8
21  22  8
22  23  8
22  24  8
24  26  8
25  26  8
27  29  8
27  30  8
29  31  8
12  3  5
30  32  8
31  33  8
32  33  8
13  4  6
14  5  6
8  21  8
8  25  8

>  <LF dG>
-8.241

>  <LF VSscore>
-11.651

>  <LF Rank Score>
-11.878

>  <LF LE>
-0.25

>  <Preferred Pose_cresset>
true

>  <Favorite_cresset>
false

>  <Protein_cresset>
6M2N_Dimer_P

>  <MW_cresset>
459.4

>  <#Atoms_cresset>
33

>  <SlogP_cresset>
1.4

>  <TPSA_cresset>
175

>  <Flexibility_cresset>
7.6

>  <#RB_cresset>
9

>  <Rof5_cresset>
1

>  <Filename_cresset>
Wogonoside.sdf

>  <Confs_cresset>
0

>  <Poses_cresset>
10

>  <_cresset_fieldpoints>
    -5     -58.632534     -18.130690       0.089544    -15.0027
    -5     -63.258804     -25.298979      -3.057715     -8.6134
    -5     -62.716755     -22.408943       2.593029     -7.8590
    -5     -59.887352     -22.361546       4.546654    -12.5192
    -5     -58.396057     -26.057686       3.237591    -11.7397
    -5     -58.639824     -23.025026       4.249324    -12.9496
    -5     -58.088448     -27.134991      -1.123691     -6.6647
    -5     -56.978874     -20.048714      -8.269558     -3.5694
    -5     -53.947876     -22.615105      -3.820822     -4.6276
    -6     -60.990257     -28.994751       1.172436     11.9059
    -6     -60.290726     -26.902588      -4.556879      3.7500
    -6     -62.401989     -17.769522      -1.692388      1.7952
    -6     -53.496040     -17.599943      -5.590168      2.0909
    -6     -58.299339     -24.423120      -6.919653      2.3038
    -6     -57.251549     -24.976656      -7.310658      2.2411
    -6     -51.855133     -20.393784      -8.429712      2.2400
    -6     -53.829941     -24.008583      -9.093863      2.3118
    -7     -63.671474     -24.970005      -3.280349     -2.3779
    -7     -62.834671     -22.086060       1.642760     -2.4399
    -7     -58.078369     -28.248291       0.888872     -1.6339
    -7     -61.373749     -28.631641      -2.359885     -1.6381
    -7     -61.695450     -29.125427       1.460503     -1.3144
    -7     -62.254784     -27.449345       2.760024     -1.7948
    -7     -63.891830     -26.869932      -1.430813     -1.6892
    -7     -59.080742     -26.083000       4.268697     -1.5635
    -7     -58.551601     -23.002415      -0.002735     -3.8037
    -7     -59.526039     -21.001822      -6.320115     -2.9471
    -7     -62.230328     -18.719116       1.020216     -1.2948
    -7     -60.415810     -17.179268      -2.963516     -1.7764
    -7     -57.949974     -18.892735       0.608539     -1.6728
    -7     -57.535255     -24.194502      -3.536366     -2.8198
    -7     -63.950123     -26.369766       1.075943     -1.7838
    -7     -57.296997     -19.879272      -8.314821     -1.7859
    -7     -62.103271     -20.030109      -4.449604     -2.2756
    -7     -51.565498     -20.298542      -8.459517     -0.9677
    -7     -53.732731     -22.632290      -3.658350     -1.7927
    -7     -53.656311     -24.245701      -9.178152     -0.9672
    -8     -60.253059     -21.269928      -2.110437      6.6077
    -8     -60.991478     -25.437347       0.122846      5.1471
    -8     -61.614262     -23.453335      -5.574264      2.5241
    -8     -55.329662     -21.311192      -6.165138      7.1504
    -8     -58.310143     -20.201984      -3.065219      5.0138
    -8     -56.343803     -20.075333      -4.596587      5.4310

$$$$
