W_Baicalin_D
  xed2sdf_05210316543D
 
 49 52  0  0  1  0  0  0  0  0999 V2000
  -61.1138  -23.6527    0.1009 O   0  0  0  0  0  0  0  0  0  0  0  0
  -61.9168  -23.2237   -2.1561 O   0  0  0  0  0  0  0  0  0  0  0  0
  -60.4158  -27.6677   -0.8791 O   0  0  0  0  0  0  0  0  0  0  0  0
  -61.9248  -25.9807   -2.6681 O   0  0  0  0  0  0  0  0  0  0  0  0
  -60.3428  -26.8137    1.8769 O   0  0  0  0  0  0  0  0  0  0  0  0
  -61.0828  -23.2237    3.1449 O   0  5  0  0  0  0  0  0  0  0  0  0
  -59.1278  -24.2027    2.4869 O   0  0  0  0  0  0  0  0  0  0  0  0
  -58.0478  -21.5007   -4.1531 O   0  0  0  0  0  0  0  0  0  0  0  0
  -62.1608  -20.9537   -0.5181 O   0  0  0  0  0  0  0  0  0  0  0  0
  -60.2678  -19.0057   -0.6941 O   0  0  0  0  0  0  0  0  0  0  0  0
  -58.1118  -18.1827   -1.8321 O   0  0  0  0  0  0  0  0  0  0  0  0
  -61.0958  -26.4877   -0.4271 C   0  0  0  0  0  0  0  0  0  0  0  0
  -61.1768  -25.4507   -1.5641 C   0  0  0  0  0  0  0  0  0  0  0  0
  -60.3648  -25.8827    0.7859 C   0  0  0  0  0  0  0  0  0  0  0  0
  -61.8348  -24.1537   -1.0491 C   0  0  0  0  0  0  0  0  0  0  0  0
  -61.0898  -24.5887    1.1969 C   0  0  0  0  0  0  0  0  0  0  0  0
  -60.3788  -23.9587    2.3679 C   0  0  0  0  0  0  0  0  0  0  0  0
  -61.0358  -22.2227   -2.2211 C   0  0  0  0  0  0  0  0  0  0  0  0
  -60.0068  -22.3127   -3.1341 C   0  0  0  0  0  0  0  0  0  0  0  0
  -61.1288  -21.0927   -1.4061 C   0  0  0  0  0  0  0  0  0  0  0  0
  -59.0418  -21.3287   -3.2391 C   0  0  0  0  0  0  0  0  0  0  0  0
  -59.1288  -20.2137   -2.4071 C   0  0  0  0  0  0  0  0  0  0  0  0
  -60.1828  -20.1017   -1.4951 C   0  0  0  0  0  0  0  0  0  0  0  0
  -58.1018  -19.1997   -2.5261 C   0  0  0  0  0  0  0  0  0  0  0  0
  -57.0678  -20.5427   -4.2341 C   0  0  0  0  0  0  0  0  0  0  0  0
  -57.0628  -19.4117   -3.4681 C   0  0  0  0  0  0  0  0  0  0  0  0
  -55.9838  -20.7997   -5.2181 C   0  0  0  0  0  0  0  0  0  0  0  0
  -55.4108  -19.8047   -5.9981 C   0  0  0  0  0  0  0  0  0  0  0  0
  -55.5178  -22.0987   -5.3641 C   0  0  0  0  0  0  0  0  0  0  0  0
  -54.4088  -20.1017   -6.8901 C   0  0  0  0  0  0  0  0  0  0  0  0
  -54.5168  -22.3947   -6.2551 C   0  0  0  0  0  0  0  0  0  0  0  0
  -53.9598  -21.3957   -7.0211 C   0  0  0  0  0  0  0  0  0  0  0  0
  -62.0238  -26.7397   -0.1511 H   0  0  0  0  0  0  0  0  0  0  0  0
  -60.2498  -25.2427   -1.8771 H   0  0  0  0  0  0  0  0  0  0  0  0
  -59.4168  -25.6777    0.5399 H   0  0  0  0  0  0  0  0  0  0  0  0
  -62.7668  -24.3127   -0.7241 H   0  0  0  0  0  0  0  0  0  0  0  0
  -62.0288  -24.8177    1.4519 H   0  0  0  0  0  0  0  0  0  0  0  0
  -60.6688  -28.4697   -0.3281 H   0  0  0  0  0  0  0  0  0  0  0  0
  -61.3248  -26.4507   -3.3251 H   0  0  0  0  0  0  0  0  0  0  0  0
  -60.5158  -27.7527    1.5599 H   0  0  0  0  0  0  0  0  0  0  0  0
  -63.0398  -21.2047   -0.9351 H   0  0  0  0  0  0  0  0  0  0  0  0
  -61.0018  -18.3857   -0.9951 H   0  0  0  0  0  0  0  0  0  0  0  0
  -59.9568  -23.1107   -3.7341 H   0  0  0  0  0  0  0  0  0  0  0  0
  -56.3308  -18.7377   -3.5701 H   0  0  0  0  0  0  0  0  0  0  0  0
  -55.7308  -18.8617   -5.9101 H   0  0  0  0  0  0  0  0  0  0  0  0
  -55.9178  -22.8297   -4.8121 H   0  0  0  0  0  0  0  0  0  0  0  0
  -54.0048  -19.3747   -7.4461 H   0  0  0  0  0  0  0  0  0  0  0  0
  -54.1918  -23.3357   -6.3481 H   0  0  0  0  0  0  0  0  0  0  0  0
  -53.2298  -21.6097   -7.6711 H   0  0  0  0  0  0  0  0  0  0  0  0
  1 15  1  0
  1 16  1  0
  2 18  1  0
  6 17  1  0
  7 17  2  0
  8 21  1  0
  8 25  1  0
  9 20  1  0
 10 23  1  0
 11 24  2  0
 12  3  1  0
 12 13  1  0
 12 14  1  0
 13  4  1  0
 13 15  1  0
 14  5  1  0
 14 16  1  0
 15  2  1  0
 16 17  1  0
 18 19  2  0
 18 20  1  0
 19 21  1  0
 20 23  2  0
 21 22  2  0
 22 23  1  0
 22 24  1  0
 24 26  1  0
 25 26  2  0
 25 27  1  0
 27 28  2  0
 27 29  1  0
 28 30  1  0
 29 31  2  0
 30 32  2  0
 31 32  1  0
  3 38  1  0
  4 39  1  0
  5 40  1  0
  9 41  1  0
 10 42  1  0
 12 33  1  0
 13 34  1  0
 14 35  1  0
 15 36  1  0
 16 37  1  0
 19 43  1  0
 26 44  1  0
 28 45  1  0
 29 46  1  0
 30 47  1  0
 31 48  1  0
 32 49  1  0
M  CHG  1   6  -1
M  END
>  <BioMolTech Lead Finder dG>
-8.304

>  <BioMolTech Lead Finder VSscore>
-12.503

>  <BioMolTech Lead Finder Rank score>
-12.758

>  <BioMolTech Lead Finder LE>
-0.26

>  <BioMolTech Lead Finder Structure Name>
/var/folders/xd/y7jw_xv579q2qqq7kks92xd80000gn/T/LeadFinder_46855_1/Ligand_1.sdf

>  <BioMolTech Lead Finder SDF id>
0

>  <BioMolTech Lead Finder Pose rank>
0

>  <BioMolTech Lead Finder version>
2001 1, 19 January 2019

>  <PUBCHEM_COMPOUND_CID>
64982

>  <PUBCHEM_COMPOUND_CANONICALIZED>
1

>  <PUBCHEM_CACTVS_COMPLEXITY>
748

>  <PUBCHEM_CACTVS_HBOND_ACCEPTOR>
11

>  <PUBCHEM_CACTVS_HBOND_DONOR>
6

>  <PUBCHEM_CACTVS_ROTATABLE_BOND>
4

>  <PUBCHEM_CACTVS_SUBSKEYS>
AAADceB4PAAAAAAAAAAAAAAAAAAAAAAAAAA0YIEAAAAAAACBQAAAGgAACAAADBSwmAMwDoAABgCIAqDSCAICCAAkIAAIiAFGiMgdNzaGNR6ieWOl4BUPuQfK7LzOIQABCAAIQABCAAIQABCAAAAAAAAAAA==

>  <PUBCHEM_IUPAC_OPENEYE_NAME>
(2S,3S,4S,5R,6S)-6-(5,6-dihydroxy-4-oxo-2-phenyl-chromen-7-yl)oxy-3,4,5-trihydroxy-tetrahydropyran-2-carboxylic acid

>  <PUBCHEM_IUPAC_CAS_NAME>
(2S,3S,4S,5R,6S)-6-[(5,6-dihydroxy-4-oxo-2-phenyl-1-benzopyran-7-yl)oxy]-3,4,5-trihydroxy-2-oxanecarboxylic acid

>  <PUBCHEM_IUPAC_NAME_MARKUP>
(2<I>S</I>,3<I>S</I>,4<I>S</I>,5<I>R</I>,6<I>S</I>)-6-(5,6-dihydroxy-4-oxo-2-phenylchromen-7-yl)oxy-3,4,5-trihydroxyoxane-2-carboxylic acid

>  <PUBCHEM_IUPAC_NAME>
(2S,3S,4S,5R,6S)-6-(5,6-dihydroxy-4-oxo-2-phenylchromen-7-yl)oxy-3,4,5-trihydroxyoxane-2-carboxylic acid

>  <PUBCHEM_IUPAC_SYSTEMATIC_NAME>
(2S,3S,4S,5R,6S)-6-[5,6-bis(oxidanyl)-4-oxidanylidene-2-phenyl-chromen-7-yl]oxy-3,4,5-tris(oxidanyl)oxane-2-carboxylic acid

>  <PUBCHEM_IUPAC_TRADITIONAL_NAME>
(2S,3S,4S,5R,6S)-6-(5,6-dihydroxy-4-keto-2-phenyl-chromen-7-yl)oxy-3,4,5-trihydroxy-tetrahydropyran-2-carboxylic acid

>  <PUBCHEM_IUPAC_INCHI>
InChI=1S/C21H18O11/c22-9-6-10(8-4-2-1-3-5-8)30-11-7-12(14(23)15(24)13(9)11)31-21-18(27)16(25)17(26)19(32-21)20(28)29/h1-7,16-19,21,23-27H,(H,28,29)/t16-,17-,18+,19-,21+/m0/s1

>  <PUBCHEM_IUPAC_INCHIKEY>
IKIIZLYTISPENI-ZFORQUDYSA-N

>  <PUBCHEM_XLOGP3_AA>
1.1

>  <PUBCHEM_EXACT_MASS>
446.084911

>  <PUBCHEM_MOLECULAR_FORMULA>
C21H18O11

>  <PUBCHEM_MOLECULAR_WEIGHT>
446.4

>  <PUBCHEM_OPENEYE_CAN_SMILES>
C1=CC=C(C=C1)C2=CC(=O)C3=C(C(=C(C=C3O2)OC4C(C(C(C(O4)C(=O)O)O)O)O)O)O

>  <PUBCHEM_OPENEYE_ISO_SMILES>
C1=CC=C(C=C1)C2=CC(=O)C3=C(C(=C(C=C3O2)O[C@H]4[C@@H]([C@H]([C@@H]([C@H](O4)C(=O)O)O)O)O)O)O

>  <PUBCHEM_CACTVS_TPSA>
183

>  <PUBCHEM_MONOISOTOPIC_WEIGHT>
446.084911

>  <PUBCHEM_TOTAL_CHARGE>
0

>  <PUBCHEM_HEAVY_ATOM_COUNT>
32

>  <PUBCHEM_ATOM_DEF_STEREO_COUNT>
5

>  <PUBCHEM_ATOM_UDEF_STEREO_COUNT>
0

>  <PUBCHEM_BOND_DEF_STEREO_COUNT>
0

>  <PUBCHEM_BOND_UDEF_STEREO_COUNT>
0

>  <PUBCHEM_ISOTOPIC_ATOM_COUNT>
0

>  <PUBCHEM_COMPONENT_COUNT>
1

>  <PUBCHEM_CACTVS_TAUTO_COUNT>
-1

>  <PUBCHEM_COORDINATE_TYPE>
1
5
255

>  <PUBCHEM_BONDANNOTATIONS>
16  17  5
18  19  8
18  20  8
19  21  8
15  2  5
20  23  8
21  22  8
22  23  8
22  24  8
24  26  8
25  26  8
27  28  8
27  29  8
28  30  8
29  31  8
12  3  5
30  32  8
31  32  8
13  4  6
14  5  6
8  21  8
8  25  8

>  <LF dG>
-8.304

>  <LF VSscore>
-12.503

>  <LF Rank Score>
-12.758

>  <LF LE>
-0.26

>  <Preferred Pose_cresset>
true

>  <Favorite_cresset>
false

>  <Protein_cresset>
6M2N_Dimer_P

>  <MW_cresset>
445.4

>  <#Atoms_cresset>
32

>  <SlogP_cresset>
1.1

>  <TPSA_cresset>
186

>  <Flexibility_cresset>
7.6

>  <#RB_cresset>
9

>  <Rof5_cresset>
1

>  <Filename_cresset>
Baicalin.sdf

>  <Confs_cresset>
0

>  <Poses_cresset>
10

>  <_cresset_fieldpoints>
    -5     -58.635582     -23.230312       3.957438    -13.0605
    -5     -63.292324     -24.986420      -3.492553     -7.8766
    -5     -59.130127     -26.338282       3.297400     -9.9673
    -5     -58.657269     -27.659283      -1.563090     -4.2329
    -5     -57.086487     -21.543373      -8.136120     -3.7546
    -5     -59.842121     -22.588699       4.349092    -12.9445
    -5     -61.020061     -21.354506       1.380077    -12.2222
    -5     -58.567081     -21.511543      -6.632854     -3.2822
    -5     -58.697701     -17.990749       0.002614    -16.6163
    -5     -53.064293     -20.703724      -3.821970     -4.2543
    -6     -61.571815     -29.056656       1.001937     12.1709
    -6     -59.852982     -25.880217      -4.215571      5.7193
    -6     -63.892776     -26.125385       0.845981      4.2908
    -6     -62.609657     -17.996155      -1.814268      1.5476
    -6     -55.397285     -25.229393      -5.267858      2.3256
    -6     -64.560104     -22.062637      -1.171104      3.5332
    -6     -54.692005     -17.094559      -7.383038      2.0724
    -6     -52.212009     -19.931267      -9.136356      2.2857
    -6     -52.456158     -23.952900      -8.025862      2.3451
    -7     -64.542007     -22.504965      -2.009894     -1.7614
    -7     -61.993050     -24.573990      -4.626266     -2.2770
    -7     -58.066536     -26.741236      -1.586478     -1.6977
    -7     -58.504364     -28.456533       0.524775     -1.6096
    -7     -59.184978     -27.542503      -2.970245     -1.5428
    -7     -59.569138     -25.399113      -4.417762     -1.8778
    -7     -59.055138     -19.017689      -5.746513     -2.4591
    -7     -64.294235     -25.860851       0.690497     -1.7875
    -7     -64.255554     -26.370499      -1.769443     -1.6702
    -7     -61.928337     -28.585148      -2.643932     -1.5801
    -7     -58.780876     -26.314999       3.607344     -1.5791
    -7     -60.179825     -21.184151       1.683653     -2.1095
    -7     -62.887497     -22.075409       1.382206     -2.6015
    -7     -62.254063     -18.977146       0.942114     -1.4924
    -7     -61.606667     -19.577244       1.498488     -1.4532
    -7     -59.430801     -16.840900      -0.250984     -1.5196
    -7     -60.223602     -16.988821      -2.735025     -1.7873
    -7     -61.730492     -19.610779      -4.592971     -1.8438
    -7     -57.949203     -18.913984       0.606985     -1.6541
    -7     -56.135910     -22.051937      -1.884728     -2.5700
    -7     -62.733406     -27.291790       2.452424     -1.7984
    -7     -58.761894     -22.148041      -6.448965     -2.3788
    -7     -57.421467     -21.604197      -8.206356     -1.8007
    -7     -58.566071     -23.204067      -0.193251     -3.7889
    -7     -52.003571     -19.764614      -9.269608     -0.9675
    -7     -54.835800     -16.910154      -4.515002     -1.3345
    -7     -51.139683     -19.580009      -7.546697     -0.9554
    -7     -52.224422     -24.123377      -8.069366     -0.9672
    -8     -54.966026     -21.095686      -6.121088      7.1505
    -8     -61.195099     -25.441284      -0.172514      5.1396
    -8     -60.058125     -21.210138      -2.341720      6.5997
    -8     -58.092743     -20.102554      -3.129939      5.0259
    -8     -56.202545     -19.895367      -4.792314      5.2893

$$$$
Untitled
  xed2sdf_05210316543D
 
 49 52  0  0  1  0  0  0  0  0999 V2000
  -57.3180  -20.4142    1.9507 O   0  0  0  0  0  0  0  0  0  0  0  0
  -59.0130  -22.1592    1.9737 O   0  0  0  0  0  0  0  0  0  0  0  0
  -57.5850  -20.0602    6.1187 O   0  0  0  0  0  0  0  0  0  0  0  0
  -59.5530  -21.5892    4.6657 O   0  0  0  0  0  0  0  0  0  0  0  0
  -56.1660  -18.0712    4.5827 O   0  0  0  0  0  0  0  0  0  0  0  0
  -55.8040  -17.6622    1.0277 O   0  5  0  0  0  0  0  0  0  0  0  0
  -54.5800  -19.3272    1.9977 O   0  0  0  0  0  0  0  0  0  0  0  0
  -58.8510  -20.6312   -2.4493 O   0  0  0  0  0  0  0  0  0  0  0  0
  -61.4360  -23.4972    1.4907 O   0  0  0  0  0  0  0  0  0  0  0  0
  -62.5620  -23.3112   -0.9803 O   0  0  0  0  0  0  0  0  0  0  0  0
  -62.3860  -22.3772   -3.3713 O   0  0  0  0  0  0  0  0  0  0  0  0
  -57.8510  -19.8382    4.7257 C   0  0  0  0  0  0  0  0  0  0  0  0
  -58.3310  -21.1422    4.0617 C   0  0  0  0  0  0  0  0  0  0  0  0
  -56.5850  -19.3212    4.0187 C   0  0  0  0  0  0  0  0  0  0  0  0
  -58.5350  -20.9202    2.5487 C   0  0  0  0  0  0  0  0  0  0  0  0
  -56.8950  -19.1582    2.5197 C   0  0  0  0  0  0  0  0  0  0  0  0
  -55.6640  -18.6772    1.7947 C   0  0  0  0  0  0  0  0  0  0  0  0
  -59.5960  -22.1292    0.7727 C   0  0  0  0  0  0  0  0  0  0  0  0
  -58.9680  -21.4412   -0.2433 C   0  0  0  0  0  0  0  0  0  0  0  0
  -60.8080  -22.7742    0.5147 C   0  0  0  0  0  0  0  0  0  0  0  0
  -59.5240  -21.3432   -1.5043 C   0  0  0  0  0  0  0  0  0  0  0  0
  -60.7450  -21.9702   -1.7493 C   0  0  0  0  0  0  0  0  0  0  0  0
  -61.3780  -22.6912   -0.7313 C   0  0  0  0  0  0  0  0  0  0  0  0
  -61.3160  -21.8452   -3.0743 C   0  0  0  0  0  0  0  0  0  0  0  0
  -59.4190  -20.5012   -3.6923 C   0  0  0  0  0  0  0  0  0  0  0  0
  -60.6080  -21.0792   -4.0343 C   0  0  0  0  0  0  0  0  0  0  0  0
  -58.6620  -19.6782   -4.6723 C   0  0  0  0  0  0  0  0  0  0  0  0
  -57.7640  -20.2152   -5.5843 C   0  0  0  0  0  0  0  0  0  0  0  0
  -58.8630  -18.3062   -4.6783 C   0  0  0  0  0  0  0  0  0  0  0  0
  -57.0940  -19.4052   -6.4693 C   0  0  0  0  0  0  0  0  0  0  0  0
  -58.1930  -17.4972   -5.5633 C   0  0  0  0  0  0  0  0  0  0  0  0
  -57.3070  -18.0452   -6.4613 C   0  0  0  0  0  0  0  0  0  0  0  0
  -58.5710  -19.1482    4.6437 H   0  0  0  0  0  0  0  0  0  0  0  0
  -57.6330  -21.8472    4.1937 H   0  0  0  0  0  0  0  0  0  0  0  0
  -55.8380  -19.9762    4.1407 H   0  0  0  0  0  0  0  0  0  0  0  0
  -59.2260  -20.2202    2.3647 H   0  0  0  0  0  0  0  0  0  0  0  0
  -57.6320  -18.4902    2.4187 H   0  0  0  0  0  0  0  0  0  0  0  0
  -56.7880  -20.6592    6.2487 H   0  0  0  0  0  0  0  0  0  0  0  0
  -59.6780  -21.1872    5.5787 H   0  0  0  0  0  0  0  0  0  0  0  0
  -56.9500  -17.4582    4.7377 H   0  0  0  0  0  0  0  0  0  0  0  0
  -61.4990  -24.4692    1.2437 H   0  0  0  0  0  0  0  0  0  0  0  0
  -63.3340  -22.6672   -0.9263 H   0  0  0  0  0  0  0  0  0  0  0  0
  -58.0870  -21.0022   -0.0633 H   0  0  0  0  0  0  0  0  0  0  0  0
  -60.9760  -20.9632   -4.9573 H   0  0  0  0  0  0  0  0  0  0  0  0
  -57.6030  -21.2022   -5.5983 H   0  0  0  0  0  0  0  0  0  0  0  0
  -59.5050  -17.8992   -4.0293 H   0  0  0  0  0  0  0  0  0  0  0  0
  -56.4500  -19.8052   -7.1213 H   0  0  0  0  0  0  0  0  0  0  0  0
  -58.3500  -16.5092   -5.5553 H   0  0  0  0  0  0  0  0  0  0  0  0
  -56.8180  -17.4582   -7.1063 H   0  0  0  0  0  0  0  0  0  0  0  0
  1 15  1  0
  1 16  1  0
  2 18  1  0
  6 17  1  0
  7 17  2  0
  8 21  1  0
  8 25  1  0
  9 20  1  0
 10 23  1  0
 11 24  2  0
 12  3  1  0
 12 13  1  0
 12 14  1  0
 13  4  1  0
 13 15  1  0
 14  5  1  0
 14 16  1  0
 15  2  1  0
 16 17  1  0
 18 19  2  0
 18 20  1  0
 19 21  1  0
 20 23  2  0
 21 22  2  0
 22 23  1  0
 22 24  1  0
 24 26  1  0
 25 26  2  0
 25 27  1  0
 27 28  2  0
 27 29  1  0
 28 30  1  0
 29 31  2  0
 30 32  2  0
 31 32  1  0
  3 38  1  0
  4 39  1  0
  5 40  1  0
  9 41  1  0
 10 42  1  0
 12 33  1  0
 13 34  1  0
 14 35  1  0
 15 36  1  0
 16 37  1  0
 19 43  1  0
 26 44  1  0
 28 45  1  0
 29 46  1  0
 30 47  1  0
 31 48  1  0
 32 49  1  0
M  CHG  1   6  -1
M  END
>  <BioMolTech Lead Finder dG>
-9.515

>  <BioMolTech Lead Finder VSscore>
-13.552

>  <BioMolTech Lead Finder Rank score>
-12.54

>  <BioMolTech Lead Finder LE>
-0.297

>  <BioMolTech Lead Finder Structure Name>
/var/folders/xd/y7jw_xv579q2qqq7kks92xd80000gn/T/LeadFinder_44914_1/Ligand_1.sdf

>  <BioMolTech Lead Finder SDF id>
0

>  <BioMolTech Lead Finder Pose rank>
0

>  <BioMolTech Lead Finder version>
2001 1, 19 January 2019

>  <PUBCHEM_COMPOUND_CID>
64982

>  <PUBCHEM_COMPOUND_CANONICALIZED>
1

>  <PUBCHEM_CACTVS_COMPLEXITY>
748

>  <PUBCHEM_CACTVS_HBOND_ACCEPTOR>
11

>  <PUBCHEM_CACTVS_HBOND_DONOR>
6

>  <PUBCHEM_CACTVS_ROTATABLE_BOND>
4

>  <PUBCHEM_CACTVS_SUBSKEYS>
AAADceB4PAAAAAAAAAAAAAAAAAAAAAAAAAA0YIEAAAAAAACBQAAAGgAACAAADBSwmAMwDoAABgCIAqDSCAICCAAkIAAIiAFGiMgdNzaGNR6ieWOl4BUPuQfK7LzOIQABCAAIQABCAAIQABCAAAAAAAAAAA==

>  <PUBCHEM_IUPAC_OPENEYE_NAME>
(2S,3S,4S,5R,6S)-6-(5,6-dihydroxy-4-oxo-2-phenyl-chromen-7-yl)oxy-3,4,5-trihydroxy-tetrahydropyran-2-carboxylic acid

>  <PUBCHEM_IUPAC_CAS_NAME>
(2S,3S,4S,5R,6S)-6-[(5,6-dihydroxy-4-oxo-2-phenyl-1-benzopyran-7-yl)oxy]-3,4,5-trihydroxy-2-oxanecarboxylic acid

>  <PUBCHEM_IUPAC_NAME_MARKUP>
(2<I>S</I>,3<I>S</I>,4<I>S</I>,5<I>R</I>,6<I>S</I>)-6-(5,6-dihydroxy-4-oxo-2-phenylchromen-7-yl)oxy-3,4,5-trihydroxyoxane-2-carboxylic acid

>  <PUBCHEM_IUPAC_NAME>
(2S,3S,4S,5R,6S)-6-(5,6-dihydroxy-4-oxo-2-phenylchromen-7-yl)oxy-3,4,5-trihydroxyoxane-2-carboxylic acid

>  <PUBCHEM_IUPAC_SYSTEMATIC_NAME>
(2S,3S,4S,5R,6S)-6-[5,6-bis(oxidanyl)-4-oxidanylidene-2-phenyl-chromen-7-yl]oxy-3,4,5-tris(oxidanyl)oxane-2-carboxylic acid

>  <PUBCHEM_IUPAC_TRADITIONAL_NAME>
(2S,3S,4S,5R,6S)-6-(5,6-dihydroxy-4-keto-2-phenyl-chromen-7-yl)oxy-3,4,5-trihydroxy-tetrahydropyran-2-carboxylic acid

>  <PUBCHEM_IUPAC_INCHI>
InChI=1S/C21H18O11/c22-9-6-10(8-4-2-1-3-5-8)30-11-7-12(14(23)15(24)13(9)11)31-21-18(27)16(25)17(26)19(32-21)20(28)29/h1-7,16-19,21,23-27H,(H,28,29)/t16-,17-,18+,19-,21+/m0/s1

>  <PUBCHEM_IUPAC_INCHIKEY>
IKIIZLYTISPENI-ZFORQUDYSA-N

>  <PUBCHEM_XLOGP3_AA>
1.1

>  <PUBCHEM_EXACT_MASS>
446.084911

>  <PUBCHEM_MOLECULAR_FORMULA>
C21H18O11

>  <PUBCHEM_MOLECULAR_WEIGHT>
446.4

>  <PUBCHEM_OPENEYE_CAN_SMILES>
C1=CC=C(C=C1)C2=CC(=O)C3=C(C(=C(C=C3O2)OC4C(C(C(C(O4)C(=O)O)O)O)O)O)O

>  <PUBCHEM_OPENEYE_ISO_SMILES>
C1=CC=C(C=C1)C2=CC(=O)C3=C(C(=C(C=C3O2)O[C@H]4[C@@H]([C@H]([C@@H]([C@H](O4)C(=O)O)O)O)O)O)O

>  <PUBCHEM_CACTVS_TPSA>
183

>  <PUBCHEM_MONOISOTOPIC_WEIGHT>
446.084911

>  <PUBCHEM_TOTAL_CHARGE>
0

>  <PUBCHEM_HEAVY_ATOM_COUNT>
32

>  <PUBCHEM_ATOM_DEF_STEREO_COUNT>
5

>  <PUBCHEM_ATOM_UDEF_STEREO_COUNT>
0

>  <PUBCHEM_BOND_DEF_STEREO_COUNT>
0

>  <PUBCHEM_BOND_UDEF_STEREO_COUNT>
0

>  <PUBCHEM_ISOTOPIC_ATOM_COUNT>
0

>  <PUBCHEM_COMPONENT_COUNT>
1

>  <PUBCHEM_CACTVS_TAUTO_COUNT>
-1

>  <PUBCHEM_COORDINATE_TYPE>
1
5
255

>  <PUBCHEM_BONDANNOTATIONS>
16  17  5
18  19  8
18  20  8
19  21  8
15  2  5
20  23  8
21  22  8
22  23  8
22  24  8
24  26  8
25  26  8
27  28  8
27  29  8
28  30  8
29  31  8
12  3  5
30  32  8
31  32  8
13  4  6
14  5  6
8  21  8
8  25  8

>  <LF dG>
-9.515

>  <LF VSscore>
-13.552

>  <LF Rank Score>
-12.54

>  <LF LE>
-0.297

>  <Preferred Pose_cresset>
true

>  <Favorite_cresset>
false

>  <Protein_cresset>
6M2N_Dimer_P

>  <MW_cresset>
445.4

>  <#Atoms_cresset>
32

>  <SlogP_cresset>
1.1

>  <TPSA_cresset>
186

>  <Flexibility_cresset>
7.6

>  <#RB_cresset>
9

>  <Rof5_cresset>
1

>  <Filename_cresset>
Baicalin.sdf

>  <Confs_cresset>
0

>  <Poses_cresset>
10

>  <_cresset_fieldpoints>
    -5     -55.711285     -21.649979       1.419804     -6.4821
    -5     -60.628967     -22.860764       3.687126    -13.3712
    -5     -57.813164     -18.917833       7.564777     -5.1233
    -5     -54.371628     -17.579182       4.594635     -8.5342
    -5     -53.318707     -18.473890       0.980983    -10.4140
    -5     -63.035606     -24.115936      -2.810229    -13.0151
    -5     -54.088310     -17.430481       0.351368    -10.0575
    -5     -55.979660     -18.698341      -3.263375     -5.3519
    -5     -56.614998     -19.449848      -2.446207     -5.2661
    -5     -63.356949     -22.699841      -4.945241    -11.0821
    -5     -60.072521     -19.083973      -7.702014     -3.4558
    -6     -55.754753     -21.944731       5.749249      6.2403
    -6     -58.523849     -16.961601       4.027121      8.4650
    -6     -60.578785     -19.576797       5.944522      3.3697
    -6     -60.829849     -18.335022      -2.269662      2.2120
    -6     -61.563507     -26.243214       1.215893      1.2686
    -6     -64.327461     -21.303419      -0.294805      1.5357
    -6     -60.068100     -15.522181      -4.038667      2.1026
    -6     -55.322960     -18.345257      -8.843576      1.9546
    -6     -56.021355     -22.101639      -7.455966      1.7210
    -6     -57.280937     -15.008316      -7.225647      2.0111
    -7     -55.830940     -22.037193       1.264194     -2.6671
    -7     -58.264904     -22.256016       7.071678     -1.6060
    -7     -59.619759     -19.845116       7.413257     -1.2634
    -7     -56.231441     -18.227509       7.053315     -1.5940
    -7     -53.720993     -17.912979       3.955105     -1.5339
    -7     -61.621544     -21.464500       3.473183     -2.4005
    -7     -55.338539     -22.226597       5.335242     -1.6181
    -7     -56.294334     -16.008984       3.079583     -1.7429
    -7     -58.933872     -16.735102       3.762106     -1.7043
    -7     -58.424591     -23.270664      -4.031518     -2.5804
    -7     -58.590469     -24.667427      -1.559947     -1.8468
    -7     -63.859856     -24.156639       0.972273     -1.5481
    -7     -60.613323     -23.552635       3.795175     -2.3594
    -7     -62.327744     -24.876091      -2.993997     -1.6570
    -7     -63.800793     -20.588972      -1.969018     -1.7906
    -7     -57.303650     -18.832283      -1.534964     -2.8488
    -7     -61.148300     -19.170120       0.862335     -2.3035
    -7     -60.122433     -17.924488       2.930944     -1.9532
    -7     -56.027092     -22.525663      -7.333589     -0.9863
    -7     -61.300415     -18.620819      -2.270874     -2.6506
    -7     -55.033089     -18.372093      -8.966059     -0.9675
    -7     -60.023460     -15.295124      -3.696708     -0.9946
    -7     -57.126320     -14.747099      -7.250463     -0.9670
    -7     -60.718063     -19.611223      -7.277760     -2.0561
    -8     -57.711857     -19.960407       3.662569      5.1558
    -8     -60.154686     -22.037437      -0.519361      6.6075
    -8     -57.984444     -18.861227      -5.571214      7.1509
    -8     -60.379684     -21.374340      -2.804760      5.0275

$$$$
W_Lopinavir_D
  xed2sdf_05210316543D
 
 94 97  0  0  1  0  0  0  0  0999 V2000
  -60.6851  -22.9604   -3.2085 O   0  0  0  0  0  0  0  0  0  0  0  0
  -61.8101  -24.0804    2.1305 O   0  0  0  0  0  0  0  0  0  0  0  0
  -65.2081  -23.6684    3.1715 O   0  0  0  0  0  0  0  0  0  0  0  0
  -58.1201  -21.1394   -0.0615 O   0  0  0  0  0  0  0  0  0  0  0  0
  -57.4301  -20.9114   -3.4815 O   0  0  0  0  0  0  0  0  0  0  0  0
  -64.9431  -25.3274    1.6675 N   0  0  0  0  0  0  0  0  0  0  0  0
  -62.4661  -25.1314    0.2235 N   0  0  0  0  0  0  0  0  0  0  0  0
  -59.5001  -21.0554   -1.8725 N   0  0  0  0  0  0  0  0  0  0  0  0
  -66.9131  -24.0584    1.7745 N   0  0  0  0  0  0  0  0  0  0  0  0
  -61.4961  -24.4124   -0.6135 C   0  0  0  0  0  0  0  0  0  0  0  0
  -63.6191  -25.6854    2.2145 C   0  0  0  0  0  0  0  0  0  0  0  0
  -62.3511  -23.4644   -1.4765 C   0  0  0  0  0  0  0  0  0  0  0  0
  -61.5171  -22.3814   -2.1915 C   0  0  0  0  0  0  0  0  0  0  0  0
  -63.3531  -27.2044    2.1055 C   0  0  0  0  0  0  0  0  0  0  0  0
  -60.6371  -21.6534   -1.1565 C   0  0  0  0  0  0  0  0  0  0  0  0
  -60.6631  -25.3734   -1.4885 C   0  0  0  0  0  0  0  0  0  0  0  0
  -62.5341  -24.8704    1.5385 C   0  0  0  0  0  0  0  0  0  0  0  0
  -65.4291  -26.0934    0.5065 C   0  0  0  0  0  0  0  0  0  0  0  0
  -66.4471  -25.2814   -0.3025 C   0  0  0  0  0  0  0  0  0  0  0  0
  -61.4561  -20.5764   -0.4125 C   0  0  0  0  0  0  0  0  0  0  0  0
  -65.6691  -24.3304    2.2355 C   0  0  0  0  0  0  0  0  0  0  0  0
  -64.2381  -27.9954    3.0855 C   0  0  0  0  0  0  0  0  0  0  0  0
  -61.8871  -27.5224    2.4465 C   0  0  0  0  0  0  0  0  0  0  0  0
  -67.5281  -24.8274    0.6815 C   0  0  0  0  0  0  0  0  0  0  0  0
  -59.6151  -26.1714   -0.7275 C   0  0  0  0  0  0  0  0  0  0  0  0
  -61.8091  -19.3574   -1.2525 C   0  0  0  0  0  0  0  0  0  0  0  0
  -58.3291  -20.8864   -1.2395 C   0  0  0  0  0  0  0  0  0  0  0  0
  -58.7481  -25.5334    0.1335 C   0  0  0  0  0  0  0  0  0  0  0  0
  -59.5241  -27.5364   -0.8935 C   0  0  0  0  0  0  0  0  0  0  0  0
  -62.9621  -19.3444   -2.0065 C   0  0  0  0  0  0  0  0  0  0  0  0
  -60.9781  -18.2584   -1.2645 C   0  0  0  0  0  0  0  0  0  0  0  0
  -57.2561  -20.3584   -2.1605 C   0  0  0  0  0  0  0  0  0  0  0  0
  -57.7981  -26.2534    0.8215 C   0  0  0  0  0  0  0  0  0  0  0  0
  -58.5741  -28.2574   -0.2065 C   0  0  0  0  0  0  0  0  0  0  0  0
  -57.7101  -27.6164    0.6515 C   0  0  0  0  0  0  0  0  0  0  0  0
  -63.2821  -18.2434   -2.7675 C   0  0  0  0  0  0  0  0  0  0  0  0
  -61.2961  -17.1564   -2.0245 C   0  0  0  0  0  0  0  0  0  0  0  0
  -62.4491  -17.1484   -2.7765 C   0  0  0  0  0  0  0  0  0  0  0  0
  -56.6911  -20.3834   -4.4655 C   0  0  0  0  0  0  0  0  0  0  0  0
  -57.0581  -19.1944   -5.0885 C   0  0  0  0  0  0  0  0  0  0  0  0
  -55.5441  -21.0414   -4.8895 C   0  0  0  0  0  0  0  0  0  0  0  0
  -56.2731  -18.6764   -6.0915 C   0  0  0  0  0  0  0  0  0  0  0  0
  -54.7711  -20.5094   -5.8955 C   0  0  0  0  0  0  0  0  0  0  0  0
  -58.3001  -18.3864   -4.7415 C   0  0  0  0  0  0  0  0  0  0  0  0
  -55.0851  -22.3524   -4.2705 C   0  0  0  0  0  0  0  0  0  0  0  0
  -55.1311  -19.3274   -6.4965 C   0  0  0  0  0  0  0  0  0  0  0  0
  -60.8251  -23.9184   -0.0605 H   0  0  0  0  0  0  0  0  0  0  0  0
  -63.6101  -25.4614    3.1895 H   0  0  0  0  0  0  0  0  0  0  0  0
  -62.1401  -21.7324   -2.6285 H   0  0  0  0  0  0  0  0  0  0  0  0
  -60.3031  -22.2964   -0.4675 H   0  0  0  0  0  0  0  0  0  0  0  0
  -60.8941  -22.5784   -4.1155 H   0  0  0  0  0  0  0  0  0  0  0  0
  -63.0111  -25.7174   -0.1455 H   0  0  0  0  0  0  0  0  0  0  0  0
  -59.5861  -20.8354   -2.7215 H   0  0  0  0  0  0  0  0  0  0  0  0
  -67.3741  -23.4114    2.1545 H   0  0  0  0  0  0  0  0  0  0  0  0
  -63.0241  -23.0154   -0.8885 H   0  0  0  0  0  0  0  0  0  0  0  0
  -62.7881  -24.0184   -2.1855 H   0  0  0  0  0  0  0  0  0  0  0  0
  -63.5621  -27.4704    1.1645 H   0  0  0  0  0  0  0  0  0  0  0  0
  -60.1991  -24.8354   -2.1925 H   0  0  0  0  0  0  0  0  0  0  0  0
  -61.3041  -26.0404   -1.8695 H   0  0  0  0  0  0  0  0  0  0  0  0
  -65.8611  -26.9364    0.8275 H   0  0  0  0  0  0  0  0  0  0  0  0
  -64.6511  -26.3024   -0.0845 H   0  0  0  0  0  0  0  0  0  0  0  0
  -66.8481  -25.8484   -1.0225 H   0  0  0  0  0  0  0  0  0  0  0  0
  -66.0121  -24.4974   -0.7445 H   0  0  0  0  0  0  0  0  0  0  0  0
  -60.9251  -20.2704    0.3785 H   0  0  0  0  0  0  0  0  0  0  0  0
  -62.3221  -21.0044   -0.1575 H   0  0  0  0  0  0  0  0  0  0  0  0
  -63.6521  -28.5204    3.7025 H   0  0  0  0  0  0  0  0  0  0  0  0
  -64.8041  -27.3624    3.6145 H   0  0  0  0  0  0  0  0  0  0  0  0
  -64.8341  -28.6154    2.5755 H   0  0  0  0  0  0  0  0  0  0  0  0
  -61.8631  -28.1604    3.2165 H   0  0  0  0  0  0  0  0  0  0  0  0
  -61.4381  -27.9334    1.6535 H   0  0  0  0  0  0  0  0  0  0  0  0
  -61.4081  -26.6794    2.6915 H   0  0  0  0  0  0  0  0  0  0  0  0
  -68.1961  -24.2554    0.2045 H   0  0  0  0  0  0  0  0  0  0  0  0
  -67.9881  -25.6304    1.0605 H   0  0  0  0  0  0  0  0  0  0  0  0
  -58.8101  -24.5434    0.2595 H   0  0  0  0  0  0  0  0  0  0  0  0
  -60.1511  -28.0054   -1.5155 H   0  0  0  0  0  0  0  0  0  0  0  0
  -63.5701  -20.1394   -2.0015 H   0  0  0  0  0  0  0  0  0  0  0  0
  -60.1401  -18.2624   -0.7195 H   0  0  0  0  0  0  0  0  0  0  0  0
  -57.3151  -19.3614   -2.2065 H   0  0  0  0  0  0  0  0  0  0  0  0
  -56.3601  -20.6254   -1.8075 H   0  0  0  0  0  0  0  0  0  0  0  0
  -57.1711  -25.7854    1.4445 H   0  0  0  0  0  0  0  0  0  0  0  0
  -58.5111  -29.2474   -0.3305 H   0  0  0  0  0  0  0  0  0  0  0  0
  -57.0191  -28.1394    1.1505 H   0  0  0  0  0  0  0  0  0  0  0  0
  -64.1201  -18.2384   -3.3135 H   0  0  0  0  0  0  0  0  0  0  0  0
  -60.6901  -16.3604   -2.0305 H   0  0  0  0  0  0  0  0  0  0  0  0
  -62.6801  -16.3474   -3.3285 H   0  0  0  0  0  0  0  0  0  0  0  0
  -56.5351  -17.8174   -6.5315 H   0  0  0  0  0  0  0  0  0  0  0  0
  -53.9441  -20.9864   -6.1915 H   0  0  0  0  0  0  0  0  0  0  0  0
  -58.3381  -17.5784   -5.3295 H   0  0  0  0  0  0  0  0  0  0  0  0
  -59.1171  -18.9454   -4.8855 H   0  0  0  0  0  0  0  0  0  0  0  0
  -58.2631  -18.1054   -3.7835 H   0  0  0  0  0  0  0  0  0  0  0  0
  -54.2401  -22.6454   -4.7185 H   0  0  0  0  0  0  0  0  0  0  0  0
  -54.9221  -22.2254   -3.2925 H   0  0  0  0  0  0  0  0  0  0  0  0
  -55.7911  -23.0494   -4.3955 H   0  0  0  0  0  0  0  0  0  0  0  0
  -54.5651  -18.9414   -7.2245 H   0  0  0  0  0  0  0  0  0  0  0  0
  2 17  2  0
  3 21  2  0
  4 27  2  0
  5 32  1  0
  5 39  1  0
  6 11  1  0
  6 18  1  0
  6 21  1  0
  7 17  1  0
  8 27  1  0
  9 21  1  0
  9 24  1  0
 10  7  1  0
 10 12  1  0
 10 16  1  0
 11 14  1  0
 11 17  1  0
 12 13  1  0
 13  1  1  0
 13 15  1  0
 14 22  1  0
 14 23  1  0
 15  8  1  0
 15 20  1  0
 16 25  1  0
 18 19  1  0
 19 24  1  0
 20 26  1  0
 25 28  2  0
 25 29  1  0
 26 30  2  0
 26 31  1  0
 27 32  1  0
 28 33  1  0
 29 34  2  0
 30 36  1  0
 31 37  2  0
 33 35  2  0
 34 35  1  0
 36 38  2  0
 37 38  1  0
 39 40  2  0
 39 41  1  0
 40 42  1  0
 40 44  1  0
 41 43  2  0
 41 45  1  0
 42 46  2  0
 43 46  1  0
  1 51  1  0
  7 52  1  0
  8 53  1  0
  9 54  1  0
 10 47  1  0
 11 48  1  0
 12 55  1  0
 12 56  1  0
 13 49  1  0
 14 57  1  0
 15 50  1  0
 16 58  1  0
 16 59  1  0
 18 60  1  0
 18 61  1  0
 19 62  1  0
 19 63  1  0
 20 64  1  0
 20 65  1  0
 22 66  1  0
 22 67  1  0
 22 68  1  0
 23 69  1  0
 23 70  1  0
 23 71  1  0
 24 72  1  0
 24 73  1  0
 28 74  1  0
 29 75  1  0
 30 76  1  0
 31 77  1  0
 32 78  1  0
 32 79  1  0
 33 80  1  0
 34 81  1  0
 35 82  1  0
 36 83  1  0
 37 84  1  0
 38 85  1  0
 42 86  1  0
 43 87  1  0
 44 88  1  0
 44 89  1  0
 44 90  1  0
 45 91  1  0
 45 92  1  0
 45 93  1  0
 46 94  1  0
M  END
>  <BioMolTech Lead Finder dG>
-10.566

>  <BioMolTech Lead Finder VSscore>
-12.814

>  <BioMolTech Lead Finder Rank score>
-15.138

>  <BioMolTech Lead Finder LE>
-0.23

>  <BioMolTech Lead Finder Structure Name>
/var/folders/xd/y7jw_xv579q2qqq7kks92xd80000gn/T/LeadFinder_46857_1/Ligand_1.sdf

>  <BioMolTech Lead Finder SDF id>
0

>  <BioMolTech Lead Finder Pose rank>
0

>  <BioMolTech Lead Finder version>
2001 1, 19 January 2019

>  <PUBCHEM_COMPOUND_CID>
92727

>  <PUBCHEM_COMPOUND_CANONICALIZED>
1

>  <PUBCHEM_CACTVS_COMPLEXITY>
940

>  <PUBCHEM_CACTVS_HBOND_ACCEPTOR>
5

>  <PUBCHEM_CACTVS_HBOND_DONOR>
4

>  <PUBCHEM_CACTVS_ROTATABLE_BOND>
15

>  <PUBCHEM_CACTVS_SUBSKEYS>
AAADcfB/uAAAAAAAAAAAAAAAAAAAAAAAAAA8YMEAAAAAAAABUAAAHgAQCAAADTzhmAYzBoPABgCIAiFSEAICCAAgIAAIiIHMCIiOdjKE8T+XeCCu1hOYqAeQwPAOAAACAAAIAAAAAAQAABAAAAAAAAAAAA==

>  <PUBCHEM_IUPAC_OPENEYE_NAME>
(2S)-N-[(1S,3S,4S)-1-benzyl-4-[[2-(2,6-dimethylphenoxy)acetyl]amino]-3-hydroxy-5-phenyl-pentyl]-3-methyl-2-(2-oxohexahydropyrimidin-1-yl)butanamide

>  <PUBCHEM_IUPAC_CAS_NAME>
(2S)-N-[(2S,4S,5S)-5-[[2-(2,6-dimethylphenoxy)-1-oxoethyl]amino]-4-hydroxy-1,6-diphenylhexan-2-yl]-3-methyl-2-(2-oxo-1,3-diazinan-1-yl)butanamide

>  <PUBCHEM_IUPAC_NAME_MARKUP>
(2<I>S</I>)-<I>N</I>-[(2<I>S</I>,4<I>S</I>,5<I>S</I>)-5-[[2-(2,6-dimethylphenoxy)acetyl]amino]-4-hydroxy-1,6-diphenylhexan-2-yl]-3-methyl-2-(2-oxo-1,3-diazinan-1-yl)butanamide

>  <PUBCHEM_IUPAC_NAME>
(2S)-N-[(2S,4S,5S)-5-[[2-(2,6-dimethylphenoxy)acetyl]amino]-4-hydroxy-1,6-diphenylhexan-2-yl]-3-methyl-2-(2-oxo-1,3-diazinan-1-yl)butanamide

>  <PUBCHEM_IUPAC_SYSTEMATIC_NAME>
(2S)-N-[(2S,4S,5S)-5-[2-(2,6-dimethylphenoxy)ethanoylamino]-4-oxidanyl-1,6-diphenyl-hexan-2-yl]-3-methyl-2-(2-oxidanylidene-1,3-diazinan-1-yl)butanamide

>  <PUBCHEM_IUPAC_TRADITIONAL_NAME>
(2S)-N-[(1S,3S,4S)-1-benzyl-4-[[2-(2,6-dimethylphenoxy)acetyl]amino]-3-hydroxy-5-phenyl-pentyl]-2-(2-ketohexahydropyrimidin-1-yl)-3-methyl-butyramide

>  <PUBCHEM_IUPAC_INCHI>
InChI=1S/C37H48N4O5/c1-25(2)34(41-20-12-19-38-37(41)45)36(44)39-30(21-28-15-7-5-8-16-28)23-32(42)31(22-29-17-9-6-10-18-29)40-33(43)24-46-35-26(3)13-11-14-27(35)4/h5-11,13-18,25,30-32,34,42H,12,19-24H2

>  <PUBCHEM_IUPAC_INCHIKEY>
KJHKTHWMRKYKJE-SUGCFTRWSA-N

>  <PUBCHEM_XLOGP3_AA>
5.9

>  <PUBCHEM_EXACT_MASS>
628.362471

>  <PUBCHEM_MOLECULAR_FORMULA>
C37H48N4O5

>  <PUBCHEM_MOLECULAR_WEIGHT>
628.8

>  <PUBCHEM_OPENEYE_CAN_SMILES>
CC1=C(C(=CC=C1)C)OCC(=O)NC(CC2=CC=CC=C2)C(CC(CC3=CC=CC=C3)NC(=O)C(C(C)C)N4CCCNC4=O)O

>  <PUBCHEM_OPENEYE_ISO_SMILES>
CC1=C(C(=CC=C1)C)OCC(=O)N[C@@H](CC2=CC=CC=C2)[C@H](C[C@H](CC3=CC=CC=C3)NC(=O)[C@H](C(C)C)N4CCCNC4=O)O

>  <PUBCHEM_CACTVS_TPSA>
120

>  <PUBCHEM_MONOISOTOPIC_WEIGHT>
628.362471

>  <PUBCHEM_TOTAL_CHARGE>
0

>  <PUBCHEM_HEAVY_ATOM_COUNT>
46

>  <PUBCHEM_ATOM_DEF_STEREO_COUNT>
4

>  <PUBCHEM_ATOM_UDEF_STEREO_COUNT>
0

>  <PUBCHEM_BOND_DEF_STEREO_COUNT>
0

>  <PUBCHEM_BOND_UDEF_STEREO_COUNT>
0

>  <PUBCHEM_ISOTOPIC_ATOM_COUNT>
0

>  <PUBCHEM_COMPONENT_COUNT>
1

>  <PUBCHEM_CACTVS_TAUTO_COUNT>
-1

>  <PUBCHEM_COORDINATE_TYPE>
1
5
255

>  <PUBCHEM_BONDANNOTATIONS>
13  1  6
11  17  5
25  28  8
25  29  8
26  30  8
26  31  8
28  33  8
29  34  8
30  36  8
31  37  8
33  35  8
34  35  8
36  38  8
37  38  8
39  40  8
39  41  8
40  42  8
41  43  8
42  46  8
43  46  8
10  7  6
15  8  5

>  <LF dG>
-10.566

>  <LF VSscore>
-12.814

>  <LF Rank Score>
-15.138

>  <LF LE>
-0.23

>  <Preferred Pose_cresset>
true

>  <Favorite_cresset>
false

>  <Protein_cresset>
6M2N_Dimer_P

>  <MW_cresset>
628.8

>  <#Atoms_cresset>
46

>  <SlogP_cresset>
4.7

>  <TPSA_cresset>
120

>  <Flexibility_cresset>
16.1

>  <#RB_cresset>
16

>  <Rof5_cresset>
1

>  <Filename_cresset>
Lopinavir.sdf

>  <Confs_cresset>
0

>  <Poses_cresset>
10

>  <_cresset_fieldpoints>
    -5     -58.815712     -22.969727      -2.794194    -17.0066
    -5     -63.380676     -23.129725       3.360970    -23.3746
    -5     -56.879150     -21.163012       1.211199    -15.9525
    -5     -58.710587     -21.795700       1.557039    -16.2906
    -5     -63.457817     -17.266205       0.303492     -4.2770
    -5     -56.993767     -26.084396      -2.214634     -4.9989
    -5     -57.373840     -21.450764      -7.326247     -3.8081
    -5     -54.067474     -18.334639      -3.826919     -2.7755
    -6     -69.091553     -22.547709       1.944291      5.0336
    -6     -67.770866     -27.896805      -0.081828      5.5733
    -6     -64.480591     -21.894947      -2.776312      6.5213
    -6     -63.320549     -27.137165      -1.400596     11.0415
    -6     -60.692154     -20.711237      -4.486355     11.5622
    -6     -58.034492     -17.369789      -1.582634      4.7239
    -6     -53.089764     -18.542114      -8.641374      2.2086
    -6     -52.370640     -22.368942      -6.304457      2.7127
    -6     -57.544472     -16.021904      -6.969775      3.1272
    -7     -61.614189     -24.797897      -4.502896     -2.2669
    -7     -59.602867     -21.439987      -5.267728     -2.9615
    -7     -59.835743     -24.744553       3.093839     -2.7208
    -7     -59.779083     -22.804943       1.912363     -3.2977
    -7     -63.852112     -22.301678       1.351291     -3.6396
    -7     -61.211811     -24.761414       4.344619     -2.0173
    -7     -65.589432     -25.355856       4.968550     -1.9932
    -7     -63.688988     -17.238169       0.646520     -1.8357
    -7     -58.675774     -19.081825       1.050490     -2.4145
    -7     -63.819870     -26.378769      -2.458241     -2.8797
    -7     -59.017822     -27.079277       3.785856     -1.8664
    -7     -67.192749     -26.591988       3.361443     -2.6509
    -7     -58.251778     -23.412685      -2.814694     -4.7578
    -7     -62.553001     -26.348141       5.405359     -1.9351
    -7     -62.790321     -28.005749      -1.107343     -3.5094
    -7     -59.357262     -29.408035       2.923052     -1.7789
    -7     -60.080322     -15.649429      -4.740371     -1.6913
    -7     -64.596313     -16.395149      -5.297450     -0.9724
    -7     -59.157593     -15.409945      -3.852654     -1.6752
    -7     -57.842361     -21.610796      -7.393388     -2.0119
    -7     -57.895020     -17.007072      -1.516769     -2.3560
    -7     -54.602112     -18.429888      -2.835541     -2.5006
    -7     -55.245125     -16.563057      -8.503917     -1.0057
    -7     -52.075264     -20.009398      -7.855350     -1.0009
    -7     -61.127953     -20.297173      -4.604048     -3.7284
    -8     -58.670528     -26.891136      -0.034115      7.2131
    -8     -61.498959     -22.880260      -1.059030      5.7441
    -8     -62.124638     -18.259798      -2.015497      7.2075
    -8     -61.728626     -22.156010      -1.084352      5.7126
    -8     -63.194946     -27.189653       2.609503      5.9951
    -8     -60.039978     -25.226250      -0.627129      5.7042
    -8     -66.606628     -25.638481       0.179138      4.9477
    -8     -57.415123     -19.904633      -1.585900      2.7880
    -8     -61.783916     -20.696678      -1.361947      5.6314
    -8     -57.082451     -19.012760      -5.190438      5.4929
    -8     -55.894012     -19.843075      -5.507441      7.0749

$$$$
Untitled
  xed2sdf_05210316543D
 
 94 97  0  0  1  0  0  0  0  0999 V2000
  -59.7669  -24.4291   -2.6951 O   0  0  0  0  0  0  0  0  0  0  0  0
  -56.2039  -19.7011   -2.8621 O   0  0  0  0  0  0  0  0  0  0  0  0
  -54.0589  -19.9821   -5.9631 O   0  0  0  0  0  0  0  0  0  0  0  0
  -60.7079  -22.9581    1.5849 O   0  0  0  0  0  0  0  0  0  0  0  0
  -62.7309  -24.5891    2.3489 O   0  0  0  0  0  0  0  0  0  0  0  0
  -56.0999  -20.9351   -5.8371 N   0  0  0  0  0  0  0  0  0  0  0  0
  -58.2129  -20.4811   -3.5881 N   0  0  0  0  0  0  0  0  0  0  0  0
  -60.2129  -24.3051   -0.1851 N   0  0  0  0  0  0  0  0  0  0  0  0
  -54.2759  -22.0401   -6.8161 N   0  0  0  0  0  0  0  0  0  0  0  0
  -58.6749  -20.8151   -2.2341 C   0  0  0  0  0  0  0  0  0  0  0  0
  -56.6879  -19.7241   -5.2321 C   0  0  0  0  0  0  0  0  0  0  0  0
  -59.6509  -21.9901   -2.4331 C   0  0  0  0  0  0  0  0  0  0  0  0
  -59.0259  -23.3581   -2.0881 C   0  0  0  0  0  0  0  0  0  0  0  0
  -57.9399  -19.2551   -6.0091 C   0  0  0  0  0  0  0  0  0  0  0  0
  -59.0139  -23.5401   -0.5571 C   0  0  0  0  0  0  0  0  0  0  0  0
  -59.3669  -19.6171   -1.5481 C   0  0  0  0  0  0  0  0  0  0  0  0
  -56.9879  -19.9611   -3.7651 C   0  0  0  0  0  0  0  0  0  0  0  0
  -56.9839  -22.0971   -6.0341 C   0  0  0  0  0  0  0  0  0  0  0  0
  -56.1809  -23.4011   -6.0791 C   0  0  0  0  0  0  0  0  0  0  0  0
  -57.7279  -24.2671   -0.1091 C   0  0  0  0  0  0  0  0  0  0  0  0
  -54.7889  -20.9511   -6.1951 C   0  0  0  0  0  0  0  0  0  0  0  0
  -57.6409  -19.1101   -7.5111 C   0  0  0  0  0  0  0  0  0  0  0  0
  -58.4109  -17.8831   -5.4971 C   0  0  0  0  0  0  0  0  0  0  0  0
  -55.0989  -23.2141   -7.1451 C   0  0  0  0  0  0  0  0  0  0  0  0
  -60.7819  -19.3431   -2.0351 C   0  0  0  0  0  0  0  0  0  0  0  0
  -57.9399  -25.7021    0.3499 C   0  0  0  0  0  0  0  0  0  0  0  0
  -60.9629  -23.9041    0.8529 C   0  0  0  0  0  0  0  0  0  0  0  0
  -60.9959  -18.8561   -3.3061 C   0  0  0  0  0  0  0  0  0  0  0  0
  -61.8589  -19.5781   -1.2081 C   0  0  0  0  0  0  0  0  0  0  0  0
  -57.9899  -26.7261   -0.5701 C   0  0  0  0  0  0  0  0  0  0  0  0
  -58.0829  -25.9871    1.6909 C   0  0  0  0  0  0  0  0  0  0  0  0
  -62.2039  -24.7481    1.0169 C   0  0  0  0  0  0  0  0  0  0  0  0
  -62.2749  -18.6041   -3.7471 C   0  0  0  0  0  0  0  0  0  0  0  0
  -63.1389  -19.3271   -1.6481 C   0  0  0  0  0  0  0  0  0  0  0  0
  -63.3469  -18.8391   -2.9181 C   0  0  0  0  0  0  0  0  0  0  0  0
  -58.1819  -28.0241   -0.1551 C   0  0  0  0  0  0  0  0  0  0  0  0
  -58.2739  -27.2851    2.1079 C   0  0  0  0  0  0  0  0  0  0  0  0
  -58.3239  -28.3031    1.1849 C   0  0  0  0  0  0  0  0  0  0  0  0
  -63.6529  -25.4741    2.7499 C   0  0  0  0  0  0  0  0  0  0  0  0
  -64.9919  -25.3361    2.3959 C   0  0  0  0  0  0  0  0  0  0  0  0
  -63.2729  -26.5441    3.5499 C   0  0  0  0  0  0  0  0  0  0  0  0
  -65.9119  -26.2671    2.8199 C   0  0  0  0  0  0  0  0  0  0  0  0
  -64.2059  -27.4651    3.9649 C   0  0  0  0  0  0  0  0  0  0  0  0
  -65.5469  -24.2001    1.5499 C   0  0  0  0  0  0  0  0  0  0  0  0
  -61.8329  -26.7561    3.9919 C   0  0  0  0  0  0  0  0  0  0  0  0
  -65.5249  -27.3301    3.5999 C   0  0  0  0  0  0  0  0  0  0  0  0
  -57.9129  -21.0531   -1.6321 H   0  0  0  0  0  0  0  0  0  0  0  0
  -56.0189  -18.9831   -5.2941 H   0  0  0  0  0  0  0  0  0  0  0  0
  -58.0909  -23.3831   -2.4441 H   0  0  0  0  0  0  0  0  0  0  0  0
  -59.0239  -22.6511   -0.1001 H   0  0  0  0  0  0  0  0  0  0  0  0
  -59.2999  -24.7791   -3.5151 H   0  0  0  0  0  0  0  0  0  0  0  0
  -58.7349  -20.6401   -4.2791 H   0  0  0  0  0  0  0  0  0  0  0  0
  -60.4479  -25.0081   -0.6631 H   0  0  0  0  0  0  0  0  0  0  0  0
  -53.4259  -22.0351   -7.0471 H   0  0  0  0  0  0  0  0  0  0  0  0
  -59.9449  -22.0031   -3.3881 H   0  0  0  0  0  0  0  0  0  0  0  0
  -60.4199  -21.8491   -1.8091 H   0  0  0  0  0  0  0  0  0  0  0  0
  -58.6479  -19.9471   -5.8661 H   0  0  0  0  0  0  0  0  0  0  0  0
  -58.8139  -18.8001   -1.7101 H   0  0  0  0  0  0  0  0  0  0  0  0
  -59.4409  -19.8491   -0.5781 H   0  0  0  0  0  0  0  0  0  0  0  0
  -57.4819  -21.9871   -6.8951 H   0  0  0  0  0  0  0  0  0  0  0  0
  -57.6219  -22.1441   -5.2661 H   0  0  0  0  0  0  0  0  0  0  0  0
  -56.7769  -24.1671   -6.3191 H   0  0  0  0  0  0  0  0  0  0  0  0
  -55.7759  -23.6041   -5.1871 H   0  0  0  0  0  0  0  0  0  0  0  0
  -57.3229  -23.7511    0.6469 H   0  0  0  0  0  0  0  0  0  0  0  0
  -57.1329  -24.3121   -0.9121 H   0  0  0  0  0  0  0  0  0  0  0  0
  -57.8229  -18.1671   -7.7901 H   0  0  0  0  0  0  0  0  0  0  0  0
  -56.6819  -19.3351   -7.6871 H   0  0  0  0  0  0  0  0  0  0  0  0
  -58.2219  -19.7351   -8.0321 H   0  0  0  0  0  0  0  0  0  0  0  0
  -58.4089  -17.2331   -6.2571 H   0  0  0  0  0  0  0  0  0  0  0  0
  -59.3359  -17.9611   -5.1231 H   0  0  0  0  0  0  0  0  0  0  0  0
  -57.7949  -17.5631   -4.7771 H   0  0  0  0  0  0  0  0  0  0  0  0
  -54.5189  -24.0281   -7.1811 H   0  0  0  0  0  0  0  0  0  0  0  0
  -55.5329  -23.0751   -8.0351 H   0  0  0  0  0  0  0  0  0  0  0  0
  -60.2179  -18.6841   -3.9101 H   0  0  0  0  0  0  0  0  0  0  0  0
  -61.7109  -19.9321   -0.2851 H   0  0  0  0  0  0  0  0  0  0  0  0
  -57.8859  -26.5251   -1.5441 H   0  0  0  0  0  0  0  0  0  0  0  0
  -58.0469  -25.2481    2.3639 H   0  0  0  0  0  0  0  0  0  0  0  0
  -62.8919  -24.4641    0.3489 H   0  0  0  0  0  0  0  0  0  0  0  0
  -61.9689  -25.7081    0.8669 H   0  0  0  0  0  0  0  0  0  0  0  0
  -62.4249  -18.2501   -4.6701 H   0  0  0  0  0  0  0  0  0  0  0  0
  -63.9179  -19.4981   -1.0441 H   0  0  0  0  0  0  0  0  0  0  0  0
  -64.2769  -18.6561   -3.2371 H   0  0  0  0  0  0  0  0  0  0  0  0
  -58.2179  -28.7631   -0.8271 H   0  0  0  0  0  0  0  0  0  0  0  0
  -58.3769  -27.4871    3.0819 H   0  0  0  0  0  0  0  0  0  0  0  0
  -58.4639  -29.2461    1.4869 H   0  0  0  0  0  0  0  0  0  0  0  0
  -66.8719  -26.1681    2.5569 H   0  0  0  0  0  0  0  0  0  0  0  0
  -63.9239  -28.2361    4.5359 H   0  0  0  0  0  0  0  0  0  0  0  0
  -66.5329  -24.3271    1.4399 H   0  0  0  0  0  0  0  0  0  0  0  0
  -65.3699  -23.3251    1.9999 H   0  0  0  0  0  0  0  0  0  0  0  0
  -65.1039  -24.2001    0.6529 H   0  0  0  0  0  0  0  0  0  0  0  0
  -61.7829  -27.5831    4.5509 H   0  0  0  0  0  0  0  0  0  0  0  0
  -61.2449  -26.8561    3.1889 H   0  0  0  0  0  0  0  0  0  0  0  0
  -61.5259  -25.9681    4.5249 H   0  0  0  0  0  0  0  0  0  0  0  0
  -66.1999  -28.0031    3.9009 H   0  0  0  0  0  0  0  0  0  0  0  0
  2 17  2  0
  3 21  2  0
  4 27  2  0
  5 32  1  0
  5 39  1  0
  6 11  1  0
  6 18  1  0
  6 21  1  0
  7 17  1  0
  8 27  1  0
  9 21  1  0
  9 24  1  0
 10  7  1  0
 10 12  1  0
 10 16  1  0
 11 14  1  0
 11 17  1  0
 12 13  1  0
 13  1  1  0
 13 15  1  0
 14 22  1  0
 14 23  1  0
 15  8  1  0
 15 20  1  0
 16 25  1  0
 18 19  1  0
 19 24  1  0
 20 26  1  0
 25 28  2  0
 25 29  1  0
 26 30  2  0
 26 31  1  0
 27 32  1  0
 28 33  1  0
 29 34  2  0
 30 36  1  0
 31 37  2  0
 33 35  2  0
 34 35  1  0
 36 38  2  0
 37 38  1  0
 39 40  2  0
 39 41  1  0
 40 42  1  0
 40 44  1  0
 41 43  2  0
 41 45  1  0
 42 46  2  0
 43 46  1  0
  1 51  1  0
  7 52  1  0
  8 53  1  0
  9 54  1  0
 10 47  1  0
 11 48  1  0
 12 55  1  0
 12 56  1  0
 13 49  1  0
 14 57  1  0
 15 50  1  0
 16 58  1  0
 16 59  1  0
 18 60  1  0
 18 61  1  0
 19 62  1  0
 19 63  1  0
 20 64  1  0
 20 65  1  0
 22 66  1  0
 22 67  1  0
 22 68  1  0
 23 69  1  0
 23 70  1  0
 23 71  1  0
 24 72  1  0
 24 73  1  0
 28 74  1  0
 29 75  1  0
 30 76  1  0
 31 77  1  0
 32 78  1  0
 32 79  1  0
 33 80  1  0
 34 81  1  0
 35 82  1  0
 36 83  1  0
 37 84  1  0
 38 85  1  0
 42 86  1  0
 43 87  1  0
 44 88  1  0
 44 89  1  0
 44 90  1  0
 45 91  1  0
 45 92  1  0
 45 93  1  0
 46 94  1  0
M  END
>  <BioMolTech Lead Finder dG>
-10.673

>  <BioMolTech Lead Finder VSscore>
-12.866

>  <BioMolTech Lead Finder Rank score>
-15.212

>  <BioMolTech Lead Finder LE>
-0.232

>  <BioMolTech Lead Finder Structure Name>
/var/folders/xd/y7jw_xv579q2qqq7kks92xd80000gn/T/LeadFinder_44917_1/Ligand_1.sdf

>  <BioMolTech Lead Finder SDF id>
0

>  <BioMolTech Lead Finder Pose rank>
0

>  <BioMolTech Lead Finder version>
2001 1, 19 January 2019

>  <PUBCHEM_COMPOUND_CID>
92727

>  <PUBCHEM_COMPOUND_CANONICALIZED>
1

>  <PUBCHEM_CACTVS_COMPLEXITY>
940

>  <PUBCHEM_CACTVS_HBOND_ACCEPTOR>
5

>  <PUBCHEM_CACTVS_HBOND_DONOR>
4

>  <PUBCHEM_CACTVS_ROTATABLE_BOND>
15

>  <PUBCHEM_CACTVS_SUBSKEYS>
AAADcfB/uAAAAAAAAAAAAAAAAAAAAAAAAAA8YMEAAAAAAAABUAAAHgAQCAAADTzhmAYzBoPABgCIAiFSEAICCAAgIAAIiIHMCIiOdjKE8T+XeCCu1hOYqAeQwPAOAAACAAAIAAAAAAQAABAAAAAAAAAAAA==

>  <PUBCHEM_IUPAC_OPENEYE_NAME>
(2S)-N-[(1S,3S,4S)-1-benzyl-4-[[2-(2,6-dimethylphenoxy)acetyl]amino]-3-hydroxy-5-phenyl-pentyl]-3-methyl-2-(2-oxohexahydropyrimidin-1-yl)butanamide

>  <PUBCHEM_IUPAC_CAS_NAME>
(2S)-N-[(2S,4S,5S)-5-[[2-(2,6-dimethylphenoxy)-1-oxoethyl]amino]-4-hydroxy-1,6-diphenylhexan-2-yl]-3-methyl-2-(2-oxo-1,3-diazinan-1-yl)butanamide

>  <PUBCHEM_IUPAC_NAME_MARKUP>
(2<I>S</I>)-<I>N</I>-[(2<I>S</I>,4<I>S</I>,5<I>S</I>)-5-[[2-(2,6-dimethylphenoxy)acetyl]amino]-4-hydroxy-1,6-diphenylhexan-2-yl]-3-methyl-2-(2-oxo-1,3-diazinan-1-yl)butanamide

>  <PUBCHEM_IUPAC_NAME>
(2S)-N-[(2S,4S,5S)-5-[[2-(2,6-dimethylphenoxy)acetyl]amino]-4-hydroxy-1,6-diphenylhexan-2-yl]-3-methyl-2-(2-oxo-1,3-diazinan-1-yl)butanamide

>  <PUBCHEM_IUPAC_SYSTEMATIC_NAME>
(2S)-N-[(2S,4S,5S)-5-[2-(2,6-dimethylphenoxy)ethanoylamino]-4-oxidanyl-1,6-diphenyl-hexan-2-yl]-3-methyl-2-(2-oxidanylidene-1,3-diazinan-1-yl)butanamide

>  <PUBCHEM_IUPAC_TRADITIONAL_NAME>
(2S)-N-[(1S,3S,4S)-1-benzyl-4-[[2-(2,6-dimethylphenoxy)acetyl]amino]-3-hydroxy-5-phenyl-pentyl]-2-(2-ketohexahydropyrimidin-1-yl)-3-methyl-butyramide

>  <PUBCHEM_IUPAC_INCHI>
InChI=1S/C37H48N4O5/c1-25(2)34(41-20-12-19-38-37(41)45)36(44)39-30(21-28-15-7-5-8-16-28)23-32(42)31(22-29-17-9-6-10-18-29)40-33(43)24-46-35-26(3)13-11-14-27(35)4/h5-11,13-18,25,30-32,34,42H,12,19-24H2

>  <PUBCHEM_IUPAC_INCHIKEY>
KJHKTHWMRKYKJE-SUGCFTRWSA-N

>  <PUBCHEM_XLOGP3_AA>
5.9

>  <PUBCHEM_EXACT_MASS>
628.362471

>  <PUBCHEM_MOLECULAR_FORMULA>
C37H48N4O5

>  <PUBCHEM_MOLECULAR_WEIGHT>
628.8

>  <PUBCHEM_OPENEYE_CAN_SMILES>
CC1=C(C(=CC=C1)C)OCC(=O)NC(CC2=CC=CC=C2)C(CC(CC3=CC=CC=C3)NC(=O)C(C(C)C)N4CCCNC4=O)O

>  <PUBCHEM_OPENEYE_ISO_SMILES>
CC1=C(C(=CC=C1)C)OCC(=O)N[C@@H](CC2=CC=CC=C2)[C@H](C[C@H](CC3=CC=CC=C3)NC(=O)[C@H](C(C)C)N4CCCNC4=O)O

>  <PUBCHEM_CACTVS_TPSA>
120

>  <PUBCHEM_MONOISOTOPIC_WEIGHT>
628.362471

>  <PUBCHEM_TOTAL_CHARGE>
0

>  <PUBCHEM_HEAVY_ATOM_COUNT>
46

>  <PUBCHEM_ATOM_DEF_STEREO_COUNT>
4

>  <PUBCHEM_ATOM_UDEF_STEREO_COUNT>
0

>  <PUBCHEM_BOND_DEF_STEREO_COUNT>
0

>  <PUBCHEM_BOND_UDEF_STEREO_COUNT>
0

>  <PUBCHEM_ISOTOPIC_ATOM_COUNT>
0

>  <PUBCHEM_COMPONENT_COUNT>
1

>  <PUBCHEM_CACTVS_TAUTO_COUNT>
-1

>  <PUBCHEM_COORDINATE_TYPE>
1
5
255

>  <PUBCHEM_BONDANNOTATIONS>
13  1  6
11  17  5
25  28  8
25  29  8
26  30  8
26  31  8
28  33  8
29  34  8
30  36  8
31  37  8
33  35  8
34  35  8
36  38  8
37  38  8
39  40  8
39  41  8
40  42  8
41  43  8
42  46  8
43  46  8
10  7  6
15  8  5

>  <LF dG>
-10.673

>  <LF VSscore>
-12.866

>  <LF Rank Score>
-15.212

>  <LF LE>
-0.232

>  <Preferred Pose_cresset>
true

>  <Favorite_cresset>
false

>  <Protein_cresset>
6M2N_Dimer_P

>  <MW_cresset>
628.8

>  <#Atoms_cresset>
46

>  <SlogP_cresset>
4.7

>  <TPSA_cresset>
120

>  <Flexibility_cresset>
16.1

>  <#RB_cresset>
16

>  <Rof5_cresset>
1

>  <Filename_cresset>
Lopinavir.sdf

>  <Confs_cresset>
0

>  <Poses_cresset>
10

>  <_cresset_fieldpoints>
    -5     -61.655651     -24.150314      -2.559993     -9.5089
    -5     -54.428368     -19.507698      -3.550943    -20.8772
    -5     -61.712776     -22.689468       3.041530    -20.8883
    -5     -55.333183     -27.310066       1.076566     -3.8301
    -5     -61.833984     -16.474182      -1.408386     -4.0535
    -5     -62.754173     -21.945816      -3.069778     -2.9928
    -5     -61.359154     -28.358139       1.111145     -1.4926
    -5     -64.324112     -28.291977       0.997820     -2.7700
    -6     -57.624023     -24.994741      -4.176827     14.2234
    -6     -61.634300     -26.515953      -1.106696      5.8075
    -6     -57.286697     -21.335430       0.473890      3.4078
    -6     -52.162384     -23.213480      -7.917356      5.0266
    -6     -58.818665     -16.513309      -2.861120      1.3384
    -6     -56.481552     -23.579403       2.828227      1.5084
    -6     -65.001999     -21.467323      -0.155683      2.4605
    -6     -59.451363     -28.709610       4.515999      3.1875
    -6     -66.314346     -18.967625      -2.411666      2.3446
    -6     -59.776070     -21.701229      -5.549073     12.0553
    -6     -58.792221     -24.165062      -5.150349     14.1013
    -6     -68.625298     -25.542107       1.580476      2.8557
    -6     -62.668949     -29.653606       5.478801      2.7715
    -7     -56.968819     -25.373970      -3.528926     -3.0086
    -7     -60.610088     -26.606133      -2.499799     -2.4808
    -7     -59.757874     -23.562710      -5.390464     -2.6310
    -7     -57.452904     -20.977013       0.926858     -2.4777
    -7     -56.891548     -17.369637      -2.429261     -2.4812
    -7     -56.290321     -19.276190      -0.543995     -1.9045
    -7     -54.577419     -17.912346      -7.116743     -2.1013
    -7     -55.409958     -16.911087      -6.674406     -1.9801
    -7     -60.099777     -20.819519       1.518278     -2.7973
    -7     -63.213524     -21.778332       0.965497     -3.1282
    -7     -61.512638     -16.111610      -1.300034     -1.8638
    -7     -55.826088     -22.416035      -2.841531     -3.8759
    -7     -55.151958     -20.697311      -9.137043     -2.2836
    -7     -54.890404     -27.125534       0.936790     -1.8322
    -7     -58.900482     -16.401325      -2.645217     -2.3239
    -7     -58.713432     -22.861689       2.754461     -2.6597
    -7     -64.855240     -17.872013      -5.813002     -0.9766
    -7     -62.675667     -22.844919      -1.620027     -3.4401
    -7     -60.751656     -21.209557      -5.645169     -3.3319
    -7     -61.391350     -27.644360      -0.436289     -2.6230
    -7     -68.865738     -27.850965       3.089641     -1.0054
    -7     -65.498535     -30.190552       5.461340     -1.0017
    -7     -61.647587     -28.154945       0.946597     -3.2392
    -7     -60.004753     -24.102345       3.577644     -3.2332
    -7     -64.931381     -24.445087       5.723117     -1.9953
    -8     -58.977501     -22.203804      -1.678968      5.6050
    -8     -58.134979     -27.000477       0.765600      7.1969
    -8     -59.905327     -20.457952      -1.967712      5.9021
    -8     -62.057949     -19.100163      -2.476894      7.2228
    -8     -58.191910     -23.551826      -0.997293      5.1158
    -8     -57.689117     -18.802107      -6.136748      5.9806
    -8     -56.290279     -23.052967      -6.585209      4.9473
    -8     -64.610840     -26.422916       3.187414      7.0749
    -8     -60.723976     -19.442493      -2.033737      5.8209
    -8     -61.910206     -24.780071       0.343889      2.8406
    -8     -65.189224     -25.353325       2.354151      5.4844

$$$$
W_Forsythoside_E_D
  xed2sdf_05210316543D
 
 62 64  0  0  1  0  0  0  0  0999 V2000
  -61.1149  -23.5343   -1.1542 O   0  0  0  0  0  0  0  0  0  0  0  0
  -61.6549  -21.5013   -3.0632 O   0  0  0  0  0  0  0  0  0  0  0  0
  -60.6419  -19.8413   -4.5102 O   0  0  0  0  0  0  0  0  0  0  0  0
  -63.4279  -24.5773   -3.8842 O   0  0  0  0  0  0  0  0  0  0  0  0
  -60.9379  -24.2533    1.1368 O   0  0  0  0  0  0  0  0  0  0  0  0
  -64.7209  -25.6503   -1.5812 O   0  0  0  0  0  0  0  0  0  0  0  0
  -63.0459  -26.0923    0.7238 O   0  0  0  0  0  0  0  0  0  0  0  0
  -63.4189  -19.0193   -5.1362 O   0  0  0  0  0  0  0  0  0  0  0  0
  -63.7039  -17.6503   -2.6652 O   0  0  0  0  0  0  0  0  0  0  0  0
  -60.9679  -16.9403   -2.2132 O   0  0  0  0  0  0  0  0  0  0  0  0
  -58.8249  -28.9613   -1.0812 O   0  0  0  0  0  0  0  0  0  0  0  0
  -57.7889  -29.6883    1.3628 O   0  0  0  0  0  0  0  0  0  0  0  0
  -61.5039  -23.8953   -2.4962 C   0  0  0  0  0  0  0  0  0  0  0  0
  -63.0159  -24.2043   -2.5602 C   0  0  0  0  0  0  0  0  0  0  0  0
  -63.3169  -25.3553   -1.5842 C   0  0  0  0  0  0  0  0  0  0  0  0
  -62.8459  -24.9843   -0.1662 C   0  0  0  0  0  0  0  0  0  0  0  0
  -63.0219  -19.6513   -3.9092 C   0  0  0  0  0  0  0  0  0  0  0  0
  -61.8279  -20.5933   -4.1692 C   0  0  0  0  0  0  0  0  0  0  0  0
  -62.6419  -18.5983   -2.8472 C   0  0  0  0  0  0  0  0  0  0  0  0
  -61.3439  -17.8693   -3.2422 C   0  0  0  0  0  0  0  0  0  0  0  0
  -61.3549  -24.5943   -0.1982 C   0  0  0  0  0  0  0  0  0  0  0  0
  -61.1259  -22.7743   -3.4812 C   0  0  0  0  0  0  0  0  0  0  0  0
  -60.2419  -18.9223   -3.4742 C   0  0  0  0  0  0  0  0  0  0  0  0
  -58.9329  -18.2253   -3.8792 C   0  0  0  0  0  0  0  0  0  0  0  0
  -59.6799  -23.5593    1.1528 C   0  0  0  0  0  0  0  0  0  0  0  0
  -58.6899  -24.2403    0.1908 C   0  0  0  0  0  0  0  0  0  0  0  0
  -58.4499  -25.7083    0.4988 C   0  0  0  0  0  0  0  0  0  0  0  0
  -58.7479  -26.6763   -0.4382 C   0  0  0  0  0  0  0  0  0  0  0  0
  -57.9309  -26.0783    1.7198 C   0  0  0  0  0  0  0  0  0  0  0  0
  -58.5289  -28.0073   -0.1552 C   0  0  0  0  0  0  0  0  0  0  0  0
  -57.7089  -27.4073    2.0088 C   0  0  0  0  0  0  0  0  0  0  0  0
  -58.0069  -28.3743    1.0758 C   0  0  0  0  0  0  0  0  0  0  0  0
  -61.0099  -24.7233   -2.7602 H   0  0  0  0  0  0  0  0  0  0  0  0
  -63.5219  -23.3803   -2.3092 H   0  0  0  0  0  0  0  0  0  0  0  0
  -62.8199  -26.1703   -1.8852 H   0  0  0  0  0  0  0  0  0  0  0  0
  -63.3809  -24.2063    0.1628 H   0  0  0  0  0  0  0  0  0  0  0  0
  -63.7939  -20.1833   -3.5622 H   0  0  0  0  0  0  0  0  0  0  0  0
  -62.0179  -21.1653   -4.9672 H   0  0  0  0  0  0  0  0  0  0  0  0
  -62.4899  -19.0763   -1.9822 H   0  0  0  0  0  0  0  0  0  0  0  0
  -61.4799  -17.3473   -4.0842 H   0  0  0  0  0  0  0  0  0  0  0  0
  -60.8019  -25.3673   -0.5092 H   0  0  0  0  0  0  0  0  0  0  0  0
  -60.0979  -19.4313   -2.6252 H   0  0  0  0  0  0  0  0  0  0  0  0
  -63.3299  -23.8123   -4.5302 H   0  0  0  0  0  0  0  0  0  0  0  0
  -64.8879  -26.6343   -1.4562 H   0  0  0  0  0  0  0  0  0  0  0  0
  -63.4119  -26.8923    0.2358 H   0  0  0  0  0  0  0  0  0  0  0  0
  -62.6409  -18.9173   -5.7652 H   0  0  0  0  0  0  0  0  0  0  0  0
  -64.4699  -18.0503   -2.1502 H   0  0  0  0  0  0  0  0  0  0  0  0
  -60.2319  -16.3293   -2.5242 H   0  0  0  0  0  0  0  0  0  0  0  0
  -59.5829  -29.5493   -0.7752 H   0  0  0  0  0  0  0  0  0  0  0  0
  -58.2709  -29.9673    2.2008 H   0  0  0  0  0  0  0  0  0  0  0  0
  -60.1299  -22.7113   -3.5392 H   0  0  0  0  0  0  0  0  0  0  0  0
  -61.5179  -22.9983   -4.3742 H   0  0  0  0  0  0  0  0  0  0  0  0
  -59.0849  -17.2373   -3.9042 H   0  0  0  0  0  0  0  0  0  0  0  0
  -58.2169  -18.4393   -3.2152 H   0  0  0  0  0  0  0  0  0  0  0  0
  -58.6469  -18.5453   -4.7822 H   0  0  0  0  0  0  0  0  0  0  0  0
  -59.3049  -23.5723    2.0798 H   0  0  0  0  0  0  0  0  0  0  0  0
  -59.8229  -22.6143    0.8588 H   0  0  0  0  0  0  0  0  0  0  0  0
  -57.8159  -23.7573    0.2408 H   0  0  0  0  0  0  0  0  0  0  0  0
  -59.0949  -24.1973   -0.7232 H   0  0  0  0  0  0  0  0  0  0  0  0
  -59.1239  -26.4113   -1.3262 H   0  0  0  0  0  0  0  0  0  0  0  0
  -57.7129  -25.3783    2.3998 H   0  0  0  0  0  0  0  0  0  0  0  0
  -57.3319  -27.6693    2.8978 H   0  0  0  0  0  0  0  0  0  0  0  0
  1 13  1  0
  1 21  1  0
  2 22  1  0
  3 18  1  0
  3 23  1  0
  5 25  1  0
 11 30  1  0
 12 32  1  0
 13 14  1  0
 13 22  1  0
 14  4  1  0
 14 15  1  0
 15  6  1  0
 15 16  1  0
 16  7  1  0
 16 21  1  0
 17  8  1  0
 17 18  1  0
 17 19  1  0
 18  2  1  0
 19  9  1  0
 19 20  1  0
 20 10  1  0
 20 23  1  0
 21  5  1  0
 23 24  1  0
 25 26  1  0
 26 27  1  0
 27 28  2  0
 27 29  1  0
 28 30  1  0
 29 31  2  0
 30 32  2  0
 31 32  1  0
  4 43  1  0
  6 44  1  0
  7 45  1  0
  8 46  1  0
  9 47  1  0
 10 48  1  0
 11 49  1  0
 12 50  1  0
 13 33  1  0
 14 34  1  0
 15 35  1  0
 16 36  1  0
 17 37  1  0
 18 38  1  0
 19 39  1  0
 20 40  1  0
 21 41  1  0
 22 51  1  0
 22 52  1  0
 23 42  1  0
 24 53  1  0
 24 54  1  0
 24 55  1  0
 25 56  1  0
 25 57  1  0
 26 58  1  0
 26 59  1  0
 28 60  1  0
 29 61  1  0
 31 62  1  0
M  END
>  <BioMolTech Lead Finder dG>
-8.018

>  <BioMolTech Lead Finder VSscore>
-13.582

>  <BioMolTech Lead Finder Rank score>
-10.923

>  <BioMolTech Lead Finder LE>
-0.251

>  <BioMolTech Lead Finder Structure Name>
/var/folders/xd/y7jw_xv579q2qqq7kks92xd80000gn/T/LeadFinder_47237_1/Ligand_1.sdf

>  <BioMolTech Lead Finder SDF id>
0

>  <BioMolTech Lead Finder Pose rank>
0

>  <BioMolTech Lead Finder version>
2001 1, 19 January 2019

>  <PUBCHEM_COMPOUND_CID>
69634125

>  <PUBCHEM_COMPOUND_CANONICALIZED>
1

>  <PUBCHEM_CACTVS_COMPLEXITY>
581

>  <PUBCHEM_CACTVS_HBOND_ACCEPTOR>
12

>  <PUBCHEM_CACTVS_HBOND_DONOR>
8

>  <PUBCHEM_CACTVS_ROTATABLE_BOND>
7

>  <PUBCHEM_CACTVS_SUBSKEYS>
AAADceB4PAAAAAAAAAAAAAAAAAAAAAAAAAA0SIAAAAAAAAABAAAAGgAACAAADBSwmAMyDoAABgCAAiBCAAACAAAgIAAIiAAGiIgZNiKCERKicAElwBEPmAfA4LwOIAABAAAAQABAAAIAAACAAAAAAAAAAA==

>  <PUBCHEM_IUPAC_OPENEYE_NAME>
(2R,3R,4R,5R,6S)-2-[[(2R,3S,4S,5R,6R)-6-[2-(3,4-dihydroxyphenyl)ethoxy]-3,4,5-trihydroxy-tetrahydropyran-2-yl]methoxy]-6-methyl-tetrahydropyran-3,4,5-triol

>  <PUBCHEM_IUPAC_CAS_NAME>
(2R,3R,4R,5R,6S)-2-[[(2R,3S,4S,5R,6R)-6-[2-(3,4-dihydroxyphenyl)ethoxy]-3,4,5-trihydroxy-2-oxanyl]methoxy]-6-methyloxane-3,4,5-triol

>  <PUBCHEM_IUPAC_NAME_MARKUP>
(2<I>R</I>,3<I>R</I>,4<I>R</I>,5<I>R</I>,6<I>S</I>)-2-[[(2<I>R</I>,3<I>S</I>,4<I>S</I>,5<I>R</I>,6<I>R</I>)-6-[2-(3,4-dihydroxyphenyl)ethoxy]-3,4,5-trihydroxyoxan-2-yl]methoxy]-6-methyloxane-3,4,5-tri

>  <PUBCHEM_IUPAC_NAME>
(2R,3R,4R,5R,6S)-2-[[(2R,3S,4S,5R,6R)-6-[2-(3,4-dihydroxyphenyl)ethoxy]-3,4,5-trihydroxyoxan-2-yl]methoxy]-6-methyloxane-3,4,5-triol

>  <PUBCHEM_IUPAC_SYSTEMATIC_NAME>
(2R,3R,4R,5R,6S)-2-[[(2R,3S,4S,5R,6R)-6-[2-[3,4-bis(oxidanyl)phenyl]ethoxy]-3,4,5-tris(oxidanyl)oxan-2-yl]methoxy]-6-methyl-oxane-3,4,5-triol

>  <PUBCHEM_IUPAC_TRADITIONAL_NAME>
(2R,3R,4R,5R,6S)-2-[[(2R,3S,4S,5R,6R)-6-[2-(3,4-dihydroxyphenyl)ethoxy]-3,4,5-trihydroxy-tetrahydropyran-2-yl]methoxy]-6-methyl-tetrahydropyran-3,4,5-triol

>  <PUBCHEM_IUPAC_INCHI>
InChI=1S/C20H30O12/c1-8-13(23)15(25)17(27)20(31-8)30-7-12-14(24)16(26)18(28)19(32-12)29-5-4-9-2-3-10(21)11(22)6-9/h2-3,6,8,12-28H,4-5,7H2,1H3/t8-,12+,13-,14+,15+,16-,17+,18+,19+,20+/m0/s1

>  <PUBCHEM_IUPAC_INCHIKEY>
QIMGUQIHCNDUKU-OJJLXHDHSA-N

>  <PUBCHEM_XLOGP3_AA>
-2.5

>  <PUBCHEM_EXACT_MASS>
462.173726

>  <PUBCHEM_MOLECULAR_FORMULA>
C20H30O12

>  <PUBCHEM_MOLECULAR_WEIGHT>
462.4

>  <PUBCHEM_OPENEYE_CAN_SMILES>
CC1C(C(C(C(O1)OCC2C(C(C(C(O2)OCCC3=CC(=C(C=C3)O)O)O)O)O)O)O)O

>  <PUBCHEM_OPENEYE_ISO_SMILES>
C[C@H]1[C@@H]([C@H]([C@H]([C@@H](O1)OC[C@@H]2[C@H]([C@@H]([C@H]([C@@H](O2)OCCC3=CC(=C(C=C3)O)O)O)O)O)O)O)O

>  <PUBCHEM_CACTVS_TPSA>
199

>  <PUBCHEM_MONOISOTOPIC_WEIGHT>
462.173726

>  <PUBCHEM_TOTAL_CHARGE>
0

>  <PUBCHEM_HEAVY_ATOM_COUNT>
32

>  <PUBCHEM_ATOM_DEF_STEREO_COUNT>
10

>  <PUBCHEM_ATOM_UDEF_STEREO_COUNT>
0

>  <PUBCHEM_BOND_DEF_STEREO_COUNT>
0

>  <PUBCHEM_BOND_UDEF_STEREO_COUNT>
0

>  <PUBCHEM_ISOTOPIC_ATOM_COUNT>
0

>  <PUBCHEM_COMPONENT_COUNT>
1

>  <PUBCHEM_CACTVS_TAUTO_COUNT>
-1

>  <PUBCHEM_COORDINATE_TYPE>
1
5
255

>  <PUBCHEM_BONDANNOTATIONS>
20  10  5
13  22  5
18  2  5
23  24  6
27  28  8
27  29  8
28  30  8
29  31  8
30  32  8
31  32  8
14  4  6
21  5  5
15  6  5
16  7  6
17  8  6
19  9  6

>  <LF dG>
-8.018

>  <LF VSscore>
-13.582

>  <LF Rank Score>
-10.923

>  <LF LE>
-0.251

>  <Preferred Pose_cresset>
true

>  <Favorite_cresset>
false

>  <Protein_cresset>
6M2N_Dimer_P

>  <MW_cresset>
462.4

>  <#Atoms_cresset>
32

>  <SlogP_cresset>
-0.4

>  <TPSA_cresset>
198.8

>  <Flexibility_cresset>
15.9

>  <#RB_cresset>
15

>  <Rof5_cresset>
2

>  <Filename_cresset>
Forsythoside E.sdf

>  <Confs_cresset>
0

>  <Poses_cresset>
10

>  <_cresset_fieldpoints>
    -5     -61.821388     -25.657921       2.321383    -13.7384
    -5     -61.527725     -21.516914      -0.887185     -8.2427
    -5     -62.825638     -16.098488      -1.802361    -12.9837
    -5     -64.321289     -17.217714      -4.484567    -12.3179
    -5     -65.424538     -25.146082      -3.385292     -8.9574
    -5     -56.701263     -29.874542      -1.194355     -6.1430
    -6     -63.033043     -22.878056      -5.994998      8.9280
    -6     -61.893467     -19.918030      -7.090475      5.5344
    -6     -58.876587     -25.094667      -3.244585      5.3886
    -6     -63.962032     -28.091183      -0.956170     12.1316
    -6     -60.941059     -27.084974      -2.506446      6.4557
    -6     -59.141819     -15.109642      -3.237247      5.7331
    -6     -65.148483     -19.552891      -1.472784      4.3071
    -6     -58.763165     -30.177284       3.857227      6.0231
    -6     -56.901016     -23.224953       2.731449      2.3300
    -7     -61.406265     -21.136549      -0.730140     -4.1158
    -7     -60.666786     -18.616478      -6.669913     -2.3434
    -7     -58.877853     -21.247234      -5.427935     -2.2092
    -7     -65.821953     -23.435949      -0.855330     -1.6292
    -7     -61.776352     -25.659004      -5.244178     -1.9478
    -7     -60.817776     -27.303612      -2.862414     -2.6714
    -7     -63.755680     -20.675989      -6.933519     -1.4394
    -7     -64.899879     -22.317841      -4.419728     -2.1663
    -7     -65.401825     -26.047842      -3.929852     -1.5296
    -7     -61.731781     -28.129215      -0.489063     -2.8795
    -7     -65.645081     -26.251377       0.700521     -1.6236
    -7     -63.869648     -16.659403      -5.150119     -1.8363
    -7     -62.914597     -15.753436      -1.293890     -1.4788
    -7     -59.376961     -17.670624      -0.573958     -1.8690
    -7     -58.369987     -24.754181      -3.132040     -2.6384
    -7     -56.173382     -30.196960       3.243786     -1.2512
    -7     -58.365654     -31.443251      -0.234748     -1.4451
    -7     -60.308914     -14.986158      -4.403936     -1.4364
    -7     -60.381401     -18.385162      -0.205383     -1.8595
    -7     -59.486034     -21.371155      -1.273049     -3.3579
    -7     -55.281204     -26.488327      -0.472869     -1.8349
    -7     -61.217720     -26.855610       2.069804     -3.3600
    -7     -56.648186     -23.084080       2.591271     -1.7612
    -8     -62.410904     -24.751053      -1.476923      5.2009
    -8     -58.231426     -26.978809       0.799736      6.9378
    -8     -61.797009     -19.047264      -3.315197      4.8505
    -8     -59.926338     -18.077198      -3.574669      4.5474
    -8     -61.824409     -23.722343      -3.170399      4.0685
    -8     -58.477592     -25.668110       0.494976      5.6976

$$$$
Untitled
  xed2sdf_05210316543D
 
 62 64  0  0  1  0  0  0  0  0999 V2000
  -61.5870  -23.6556   -2.7756 O   0  0  0  0  0  0  0  0  0  0  0  0
  -62.2840  -25.0506   -0.4066 O   0  0  0  0  0  0  0  0  0  0  0  0
  -60.0530  -24.2136    0.0374 O   0  0  0  0  0  0  0  0  0  0  0  0
  -64.4030  -26.0586   -3.2046 O   0  0  0  0  0  0  0  0  0  0  0  0
  -59.9140  -22.8796   -4.3226 O   0  0  0  0  0  0  0  0  0  0  0  0
  -62.8360  -26.5746   -5.5296 O   0  0  0  0  0  0  0  0  0  0  0  0
  -61.0720  -24.4526   -6.3666 O   0  0  0  0  0  0  0  0  0  0  0  0
  -61.0890  -23.5266    2.7274 O   0  0  0  0  0  0  0  0  0  0  0  0
  -60.9660  -26.2236    3.6024 O   0  0  0  0  0  0  0  0  0  0  0  0
  -58.8140  -27.1446    1.9544 O   0  0  0  0  0  0  0  0  0  0  0  0
  -62.9590  -19.6346   -0.6986 O   0  0  0  0  0  0  0  0  0  0  0  0
  -63.3250  -17.9646   -2.8556 O   0  0  0  0  0  0  0  0  0  0  0  0
  -62.9260  -24.1696   -2.6176 C   0  0  0  0  0  0  0  0  0  0  0  0
  -63.0760  -25.5286   -3.3366 C   0  0  0  0  0  0  0  0  0  0  0  0
  -62.7490  -25.3256   -4.8276 C   0  0  0  0  0  0  0  0  0  0  0  0
  -61.3400  -24.7236   -4.9836 C   0  0  0  0  0  0  0  0  0  0  0  0
  -61.6160  -24.5786    1.9044 C   0  0  0  0  0  0  0  0  0  0  0  0
  -61.4480  -24.2116    0.4144 C   0  0  0  0  0  0  0  0  0  0  0  0
  -60.9070  -25.9156    2.2024 C   0  0  0  0  0  0  0  0  0  0  0  0
  -59.4410  -25.8726    1.7304 C   0  0  0  0  0  0  0  0  0  0  0  0
  -61.2370  -23.4236   -4.1606 C   0  0  0  0  0  0  0  0  0  0  0  0
  -63.2780  -24.2936   -1.1236 C   0  0  0  0  0  0  0  0  0  0  0  0
  -59.4190  -25.4936    0.2364 C   0  0  0  0  0  0  0  0  0  0  0  0
  -57.9670  -25.4326   -0.2636 C   0  0  0  0  0  0  0  0  0  0  0  0
  -59.1780  -22.8616   -3.0886 C   0  0  0  0  0  0  0  0  0  0  0  0
  -58.8580  -21.4116   -2.6856 C   0  0  0  0  0  0  0  0  0  0  0  0
  -60.0620  -20.4866   -2.7246 C   0  0  0  0  0  0  0  0  0  0  0  0
  -60.9700  -20.4786   -1.6866 C   0  0  0  0  0  0  0  0  0  0  0  0
  -60.2500  -19.6476   -3.8006 C   0  0  0  0  0  0  0  0  0  0  0  0
  -62.0620  -19.6386   -1.7246 C   0  0  0  0  0  0  0  0  0  0  0  0
  -61.3390  -18.8046   -3.8456 C   0  0  0  0  0  0  0  0  0  0  0  0
  -62.2470  -18.7976   -2.8106 C   0  0  0  0  0  0  0  0  0  0  0  0
  -63.5670  -23.5276   -3.0376 H   0  0  0  0  0  0  0  0  0  0  0  0
  -62.4470  -26.1836   -2.9186 H   0  0  0  0  0  0  0  0  0  0  0  0
  -63.4150  -24.6916   -5.2196 H   0  0  0  0  0  0  0  0  0  0  0  0
  -60.6640  -25.3796   -4.6466 H   0  0  0  0  0  0  0  0  0  0  0  0
  -62.5890  -24.6856    2.1104 H   0  0  0  0  0  0  0  0  0  0  0  0
  -61.7630  -23.2756    0.2614 H   0  0  0  0  0  0  0  0  0  0  0  0
  -61.3840  -26.6356    1.6984 H   0  0  0  0  0  0  0  0  0  0  0  0
  -58.9290  -25.1876    2.2494 H   0  0  0  0  0  0  0  0  0  0  0  0
  -61.8950  -22.7496   -4.4956 H   0  0  0  0  0  0  0  0  0  0  0  0
  -59.9190  -26.1886   -0.2806 H   0  0  0  0  0  0  0  0  0  0  0  0
  -64.4300  -26.8266   -2.5546 H   0  0  0  0  0  0  0  0  0  0  0  0
  -62.0230  -27.1446   -5.3656 H   0  0  0  0  0  0  0  0  0  0  0  0
  -60.8630  -23.4796   -6.5156 H   0  0  0  0  0  0  0  0  0  0  0  0
  -60.1310  -23.3266    2.4984 H   0  0  0  0  0  0  0  0  0  0  0  0
  -60.3350  -26.9696    3.8414 H   0  0  0  0  0  0  0  0  0  0  0  0
  -59.0210  -27.4976    2.8734 H   0  0  0  0  0  0  0  0  0  0  0  0
  -63.7090  -20.2846   -0.8626 H   0  0  0  0  0  0  0  0  0  0  0  0
  -64.1210  -18.3686   -2.3926 H   0  0  0  0  0  0  0  0  0  0  0  0
  -63.3410  -23.3786   -0.7256 H   0  0  0  0  0  0  0  0  0  0  0  0
  -64.1520  -24.7736   -1.0486 H   0  0  0  0  0  0  0  0  0  0  0  0
  -57.3520  -25.6526    0.4944 H   0  0  0  0  0  0  0  0  0  0  0  0
  -57.8360  -26.0906   -1.0046 H   0  0  0  0  0  0  0  0  0  0  0  0
  -57.7660  -24.5136   -0.6046 H   0  0  0  0  0  0  0  0  0  0  0  0
  -58.3260  -23.3726   -3.2026 H   0  0  0  0  0  0  0  0  0  0  0  0
  -59.7310  -23.2856   -2.3716 H   0  0  0  0  0  0  0  0  0  0  0  0
  -58.1620  -21.0556   -3.3096 H   0  0  0  0  0  0  0  0  0  0  0  0
  -58.5400  -21.4356   -1.7376 H   0  0  0  0  0  0  0  0  0  0  0  0
  -60.8360  -21.0856   -0.9026 H   0  0  0  0  0  0  0  0  0  0  0  0
  -59.5920  -19.6506   -4.5536 H   0  0  0  0  0  0  0  0  0  0  0  0
  -61.4700  -18.1986   -4.6296 H   0  0  0  0  0  0  0  0  0  0  0  0
  1 13  1  0
  1 21  1  0
  2 22  1  0
  3 18  1  0
  3 23  1  0
  5 25  1  0
 11 30  1  0
 12 32  1  0
 13 14  1  0
 13 22  1  0
 14  4  1  0
 14 15  1  0
 15  6  1  0
 15 16  1  0
 16  7  1  0
 16 21  1  0
 17  8  1  0
 17 18  1  0
 17 19  1  0
 18  2  1  0
 19  9  1  0
 19 20  1  0
 20 10  1  0
 20 23  1  0
 21  5  1  0
 23 24  1  0
 25 26  1  0
 26 27  1  0
 27 28  2  0
 27 29  1  0
 28 30  1  0
 29 31  2  0
 30 32  2  0
 31 32  1  0
  4 43  1  0
  6 44  1  0
  7 45  1  0
  8 46  1  0
  9 47  1  0
 10 48  1  0
 11 49  1  0
 12 50  1  0
 13 33  1  0
 14 34  1  0
 15 35  1  0
 16 36  1  0
 17 37  1  0
 18 38  1  0
 19 39  1  0
 20 40  1  0
 21 41  1  0
 22 51  1  0
 22 52  1  0
 23 42  1  0
 24 53  1  0
 24 54  1  0
 24 55  1  0
 25 56  1  0
 25 57  1  0
 26 58  1  0
 26 59  1  0
 28 60  1  0
 29 61  1  0
 31 62  1  0
M  END
>  <BioMolTech Lead Finder dG>
-7.316

>  <BioMolTech Lead Finder VSscore>
-13.911

>  <BioMolTech Lead Finder Rank score>
-10.675

>  <BioMolTech Lead Finder LE>
-0.229

>  <BioMolTech Lead Finder Structure Name>
/var/folders/xd/y7jw_xv579q2qqq7kks92xd80000gn/T/LeadFinder_45289_1/Ligand_1.sdf

>  <BioMolTech Lead Finder SDF id>
0

>  <BioMolTech Lead Finder Pose rank>
0

>  <BioMolTech Lead Finder version>
2001 1, 19 January 2019

>  <PUBCHEM_COMPOUND_CID>
69634125

>  <PUBCHEM_COMPOUND_CANONICALIZED>
1

>  <PUBCHEM_CACTVS_COMPLEXITY>
581

>  <PUBCHEM_CACTVS_HBOND_ACCEPTOR>
12

>  <PUBCHEM_CACTVS_HBOND_DONOR>
8

>  <PUBCHEM_CACTVS_ROTATABLE_BOND>
7

>  <PUBCHEM_CACTVS_SUBSKEYS>
AAADceB4PAAAAAAAAAAAAAAAAAAAAAAAAAA0SIAAAAAAAAABAAAAGgAACAAADBSwmAMyDoAABgCAAiBCAAACAAAgIAAIiAAGiIgZNiKCERKicAElwBEPmAfA4LwOIAABAAAAQABAAAIAAACAAAAAAAAAAA==

>  <PUBCHEM_IUPAC_OPENEYE_NAME>
(2R,3R,4R,5R,6S)-2-[[(2R,3S,4S,5R,6R)-6-[2-(3,4-dihydroxyphenyl)ethoxy]-3,4,5-trihydroxy-tetrahydropyran-2-yl]methoxy]-6-methyl-tetrahydropyran-3,4,5-triol

>  <PUBCHEM_IUPAC_CAS_NAME>
(2R,3R,4R,5R,6S)-2-[[(2R,3S,4S,5R,6R)-6-[2-(3,4-dihydroxyphenyl)ethoxy]-3,4,5-trihydroxy-2-oxanyl]methoxy]-6-methyloxane-3,4,5-triol

>  <PUBCHEM_IUPAC_NAME_MARKUP>
(2<I>R</I>,3<I>R</I>,4<I>R</I>,5<I>R</I>,6<I>S</I>)-2-[[(2<I>R</I>,3<I>S</I>,4<I>S</I>,5<I>R</I>,6<I>R</I>)-6-[2-(3,4-dihydroxyphenyl)ethoxy]-3,4,5-trihydroxyoxan-2-yl]methoxy]-6-methyloxane-3,4,5-tri

>  <PUBCHEM_IUPAC_NAME>
(2R,3R,4R,5R,6S)-2-[[(2R,3S,4S,5R,6R)-6-[2-(3,4-dihydroxyphenyl)ethoxy]-3,4,5-trihydroxyoxan-2-yl]methoxy]-6-methyloxane-3,4,5-triol

>  <PUBCHEM_IUPAC_SYSTEMATIC_NAME>
(2R,3R,4R,5R,6S)-2-[[(2R,3S,4S,5R,6R)-6-[2-[3,4-bis(oxidanyl)phenyl]ethoxy]-3,4,5-tris(oxidanyl)oxan-2-yl]methoxy]-6-methyl-oxane-3,4,5-triol

>  <PUBCHEM_IUPAC_TRADITIONAL_NAME>
(2R,3R,4R,5R,6S)-2-[[(2R,3S,4S,5R,6R)-6-[2-(3,4-dihydroxyphenyl)ethoxy]-3,4,5-trihydroxy-tetrahydropyran-2-yl]methoxy]-6-methyl-tetrahydropyran-3,4,5-triol

>  <PUBCHEM_IUPAC_INCHI>
InChI=1S/C20H30O12/c1-8-13(23)15(25)17(27)20(31-8)30-7-12-14(24)16(26)18(28)19(32-12)29-5-4-9-2-3-10(21)11(22)6-9/h2-3,6,8,12-28H,4-5,7H2,1H3/t8-,12+,13-,14+,15+,16-,17+,18+,19+,20+/m0/s1

>  <PUBCHEM_IUPAC_INCHIKEY>
QIMGUQIHCNDUKU-OJJLXHDHSA-N

>  <PUBCHEM_XLOGP3_AA>
-2.5

>  <PUBCHEM_EXACT_MASS>
462.173726

>  <PUBCHEM_MOLECULAR_FORMULA>
C20H30O12

>  <PUBCHEM_MOLECULAR_WEIGHT>
462.4

>  <PUBCHEM_OPENEYE_CAN_SMILES>
CC1C(C(C(C(O1)OCC2C(C(C(C(O2)OCCC3=CC(=C(C=C3)O)O)O)O)O)O)O)O

>  <PUBCHEM_OPENEYE_ISO_SMILES>
C[C@H]1[C@@H]([C@H]([C@H]([C@@H](O1)OC[C@@H]2[C@H]([C@@H]([C@H]([C@@H](O2)OCCC3=CC(=C(C=C3)O)O)O)O)O)O)O)O

>  <PUBCHEM_CACTVS_TPSA>
199

>  <PUBCHEM_MONOISOTOPIC_WEIGHT>
462.173726

>  <PUBCHEM_TOTAL_CHARGE>
0

>  <PUBCHEM_HEAVY_ATOM_COUNT>
32

>  <PUBCHEM_ATOM_DEF_STEREO_COUNT>
10

>  <PUBCHEM_ATOM_UDEF_STEREO_COUNT>
0

>  <PUBCHEM_BOND_DEF_STEREO_COUNT>
0

>  <PUBCHEM_BOND_UDEF_STEREO_COUNT>
0

>  <PUBCHEM_ISOTOPIC_ATOM_COUNT>
0

>  <PUBCHEM_COMPONENT_COUNT>
1

>  <PUBCHEM_CACTVS_TAUTO_COUNT>
-1

>  <PUBCHEM_COORDINATE_TYPE>
1
5
255

>  <PUBCHEM_BONDANNOTATIONS>
20  10  5
13  22  5
18  2  5
23  24  6
27  28  8
27  29  8
28  30  8
29  31  8
30  32  8
31  32  8
14  4  6
21  5  5
15  6  5
16  7  6
17  8  6
19  9  6

>  <LF dG>
-7.316

>  <LF VSscore>
-13.911

>  <LF Rank Score>
-10.675

>  <LF LE>
-0.229

>  <Preferred Pose_cresset>
true

>  <Favorite_cresset>
false

>  <Protein_cresset>
6M2N_Dimer_P

>  <MW_cresset>
462.4

>  <#Atoms_cresset>
32

>  <SlogP_cresset>
-0.4

>  <TPSA_cresset>
198.8

>  <Flexibility_cresset>
15.9

>  <#RB_cresset>
15

>  <Rof5_cresset>
2

>  <Filename_cresset>
Forsythoside E.sdf

>  <Confs_cresset>
0

>  <Poses_cresset>
10

>  <_cresset_fieldpoints>
    -5     -61.386673     -24.380867       4.571063     -9.9438
    -5     -64.616219     -27.049816      -5.770789    -11.0215
    -5     -62.190666     -25.733974      -7.479539    -11.0720
    -5     -58.641575     -23.621960      -5.840537     -4.1309
    -5     -60.111282     -17.298512      -1.287700     -6.1061
    -5     -57.815540     -28.241371       0.839731     -4.5809
    -5     -62.378677     -16.193504      -1.877222     -5.7924
    -6     -63.566093     -27.866558      -1.438215      7.0124
    -6     -64.733871     -21.526646      -1.523837      9.6767
    -6     -65.148743     -19.917080      -1.867339      9.6501
    -6     -59.324020     -28.267868       4.372363     11.7771
    -6     -61.639282     -21.867731      -6.733910      3.9482
    -6     -56.262718     -22.924126      -1.708980      2.6053
    -6     -57.497799     -19.855379      -5.429896      1.3849
    -6     -60.954025     -27.739239      -4.016039      6.9833
    -6     -58.389019     -22.970730       2.383474      5.7522
    -6     -59.822418     -18.605190      -6.718443      1.4298
    -7     -62.215141     -27.389717      -0.643516     -3.1590
    -7     -59.022034     -22.206036       0.658513     -3.7907
    -7     -59.994759     -28.782045       0.518955     -1.8592
    -7     -63.909973     -28.418800      -4.316991     -1.6345
    -7     -66.152763     -24.409550      -3.125608     -1.8194
    -7     -59.394424     -21.678303      -6.253607     -2.6687
    -7     -61.540062     -26.553230      -7.648066     -1.5082
    -7     -62.996414     -22.513100      -6.821819     -1.8980
    -7     -59.880547     -26.567959      -2.721476     -3.0827
    -7     -63.058311     -21.339573       1.086603     -2.5758
    -7     -59.206909     -17.520363      -1.260181     -1.8253
    -7     -59.747070     -24.249470       4.686119     -1.9348
    -7     -63.283756     -26.172981       4.385456     -1.2467
    -7     -56.555954     -26.876976       2.697184     -1.5331
    -7     -63.908211     -21.298420      -4.161324     -2.8442
    -7     -56.123047     -22.818737      -1.624973     -1.7192
    -7     -64.365524     -17.715977      -0.225896     -1.4196
    -8     -62.387058     -24.635159      -4.066002      5.1931
    -8     -60.548813     -25.437143       1.325335      4.8748
    -8     -58.604839     -25.626436       0.525046      4.4716
    -8     -63.405251     -24.604984      -2.295567      3.9951
    -8     -61.104061     -19.669125      -2.789870      6.9320

$$$$
W_Baicalein_D
  xed2sdf_05210316543D
 
 30 32  0  0  0  0  0  0  0  0999 V2000
  -61.0561  -21.0041   -0.2331 O   0  0  0  0  0  0  0  0  0  0  0  0
  -58.7271  -17.8301   -3.0541 O   0  0  0  0  0  0  0  0  0  0  0  0
  -61.1041  -17.0791   -4.1011 O   0  0  0  0  0  0  0  0  0  0  0  0
  -63.4311  -18.2491   -3.2331 O   0  0  0  0  0  0  0  0  0  0  0  0
  -57.4771  -19.4341   -1.2521 O   0  0  0  0  0  0  0  0  0  0  0  0
  -59.8161  -19.4281   -1.6091 C   0  0  0  0  0  0  0  0  0  0  0  0
  -61.0061  -20.0261   -1.1801 C   0  0  0  0  0  0  0  0  0  0  0  0
  -59.8771  -21.4491    0.3129 C   0  0  0  0  0  0  0  0  0  0  0  0
  -59.8601  -18.4321   -2.6001 C   0  0  0  0  0  0  0  0  0  0  0  0
  -58.5881  -19.8901   -0.9871 C   0  0  0  0  0  0  0  0  0  0  0  0
  -58.6631  -20.9251   -0.0221 C   0  0  0  0  0  0  0  0  0  0  0  0
  -59.9781  -22.5491    1.3079 C   0  0  0  0  0  0  0  0  0  0  0  0
  -62.2041  -19.6161   -1.7351 C   0  0  0  0  0  0  0  0  0  0  0  0
  -61.0641  -18.0471   -3.1351 C   0  0  0  0  0  0  0  0  0  0  0  0
  -62.2431  -18.6381   -2.7021 C   0  0  0  0  0  0  0  0  0  0  0  0
  -60.4551  -23.8131    0.9889 C   0  0  0  0  0  0  0  0  0  0  0  0
  -59.5851  -22.3101    2.6169 C   0  0  0  0  0  0  0  0  0  0  0  0
  -60.5351  -24.7981    1.9429 C   0  0  0  0  0  0  0  0  0  0  0  0
  -59.6661  -23.2951    3.5709 C   0  0  0  0  0  0  0  0  0  0  0  0
  -60.1421  -24.5421    3.2369 C   0  0  0  0  0  0  0  0  0  0  0  0
  -58.8361  -16.8371   -3.1451 H   0  0  0  0  0  0  0  0  0  0  0  0
  -61.2321  -17.4771   -5.0161 H   0  0  0  0  0  0  0  0  0  0  0  0
  -64.1411  -18.9491   -3.1001 H   0  0  0  0  0  0  0  0  0  0  0  0
  -57.8311  -21.2701    0.4109 H   0  0  0  0  0  0  0  0  0  0  0  0
  -63.0571  -20.0381   -1.4291 H   0  0  0  0  0  0  0  0  0  0  0  0
  -60.7441  -24.0101    0.0509 H   0  0  0  0  0  0  0  0  0  0  0  0
  -59.2381  -21.4061    2.8689 H   0  0  0  0  0  0  0  0  0  0  0  0
  -60.8811  -25.7041    1.6969 H   0  0  0  0  0  0  0  0  0  0  0  0
  -59.3781  -23.1051    4.5099 H   0  0  0  0  0  0  0  0  0  0  0  0
  -60.2011  -25.2591    3.9309 H   0  0  0  0  0  0  0  0  0  0  0  0
  1  7  1  0
  1  8  1  0
  2  9  1  0
  3 14  1  0
  4 15  1  0
  5 10  2  0
  6  7  2  0
  6  9  1  0
  6 10  1  0
  7 13  1  0
  8 11  2  0
  8 12  1  0
  9 14  2  0
 10 11  1  0
 12 16  2  0
 12 17  1  0
 13 15  2  0
 14 15  1  0
 16 18  1  0
 17 19  2  0
 18 20  2  0
 19 20  1  0
  2 21  1  0
  3 22  1  0
  4 23  1  0
 11 24  1  0
 13 25  1  0
 16 26  1  0
 17 27  1  0
 18 28  1  0
 19 29  1  0
 20 30  1  0
M  END
>  <BioMolTech Lead Finder dG>
-5.43

>  <BioMolTech Lead Finder VSscore>
-7.631

>  <BioMolTech Lead Finder Rank score>
-10.878

>  <BioMolTech Lead Finder LE>
-0.272

>  <BioMolTech Lead Finder Structure Name>
/var/folders/xd/y7jw_xv579q2qqq7kks92xd80000gn/T/LeadFinder_47239_1/Ligand_1.sdf

>  <BioMolTech Lead Finder SDF id>
0

>  <BioMolTech Lead Finder Pose rank>
0

>  <BioMolTech Lead Finder version>
2001 1, 19 January 2019

>  <PUBCHEM_COMPOUND_CID>
5281605

>  <PUBCHEM_COMPOUND_CANONICALIZED>
1

>  <PUBCHEM_CACTVS_COMPLEXITY>
413

>  <PUBCHEM_CACTVS_HBOND_ACCEPTOR>
5

>  <PUBCHEM_CACTVS_HBOND_DONOR>
3

>  <PUBCHEM_CACTVS_ROTATABLE_BOND>
1

>  <PUBCHEM_CACTVS_SUBSKEYS>
AAADccBwOAAAAAAAAAAAAAAAAAAAAAAAAAAwYIAAAAAAAACBQAAAGgAACAAADASAmAAwBoAABgCIAqBSAAACCAAkIAAIiAEGiMgNJzaGNRqCeWGl4BUJuQfK7LzOIQABCAAIQABCAAIQABCAAAAAAAAAAA==

>  <PUBCHEM_IUPAC_OPENEYE_NAME>
5,6,7-trihydroxy-2-phenyl-chromen-4-one

>  <PUBCHEM_IUPAC_CAS_NAME>
5,6,7-trihydroxy-2-phenyl-1-benzopyran-4-one

>  <PUBCHEM_IUPAC_NAME_MARKUP>
5,6,7-trihydroxy-2-phenylchromen-4-one

>  <PUBCHEM_IUPAC_NAME>
5,6,7-trihydroxy-2-phenylchromen-4-one

>  <PUBCHEM_IUPAC_SYSTEMATIC_NAME>
5,6,7-tris(oxidanyl)-2-phenyl-chromen-4-one

>  <PUBCHEM_IUPAC_TRADITIONAL_NAME>
5,6,7-trihydroxy-2-phenyl-chromone

>  <PUBCHEM_IUPAC_INCHI>
InChI=1S/C15H10O5/c16-9-6-11(8-4-2-1-3-5-8)20-12-7-10(17)14(18)15(19)13(9)12/h1-7,17-19H

>  <PUBCHEM_IUPAC_INCHIKEY>
FXNFHKRTJBSTCS-UHFFFAOYSA-N

>  <PUBCHEM_XLOGP3>
1.7

>  <PUBCHEM_EXACT_MASS>
270.052823

>  <PUBCHEM_MOLECULAR_FORMULA>
C15H10O5

>  <PUBCHEM_MOLECULAR_WEIGHT>
270.24

>  <PUBCHEM_OPENEYE_CAN_SMILES>
C1=CC=C(C=C1)C2=CC(=O)C3=C(O2)C=C(C(=C3O)O)O

>  <PUBCHEM_OPENEYE_ISO_SMILES>
C1=CC=C(C=C1)C2=CC(=O)C3=C(O2)C=C(C(=C3O)O)O

>  <PUBCHEM_CACTVS_TPSA>
87

>  <PUBCHEM_MONOISOTOPIC_WEIGHT>
270.052823

>  <PUBCHEM_TOTAL_CHARGE>
0

>  <PUBCHEM_HEAVY_ATOM_COUNT>
20

>  <PUBCHEM_ATOM_DEF_STEREO_COUNT>
0

>  <PUBCHEM_ATOM_UDEF_STEREO_COUNT>
0

>  <PUBCHEM_BOND_DEF_STEREO_COUNT>
0

>  <PUBCHEM_BOND_UDEF_STEREO_COUNT>
0

>  <PUBCHEM_ISOTOPIC_ATOM_COUNT>
0

>  <PUBCHEM_COMPONENT_COUNT>
1

>  <PUBCHEM_CACTVS_TAUTO_COUNT>
-1

>  <PUBCHEM_COORDINATE_TYPE>
1
5
255

>  <PUBCHEM_BONDANNOTATIONS>
1  7  8
1  8  8
10  11  8
12  16  8
12  17  8
13  15  8
14  15  8
16  18  8
17  19  8
18  20  8
19  20  8
6  10  8
6  7  8
6  9  8
7  13  8
8  11  8
9  14  8

>  <LF dG>
-5.43

>  <LF VSscore>
-7.631

>  <LF Rank Score>
-10.878

>  <LF LE>
-0.272

>  <Preferred Pose_cresset>
true

>  <Favorite_cresset>
false

>  <Protein_cresset>
6M2N_Dimer_P

>  <MW_cresset>
270.2

>  <#Atoms_cresset>
20

>  <SlogP_cresset>
2.3

>  <TPSA_cresset>
87

>  <Flexibility_cresset>
1.7

>  <#RB_cresset>
4

>  <Rof5_cresset>
0

>  <Filename_cresset>
Baicalein.sdf

>  <Confs_cresset>
0

>  <Poses_cresset>
10

>  <_cresset_fieldpoints>
    -5     -62.764397     -22.597855       2.972089     -2.6378
    -5     -62.766953     -15.759373      -3.492521     -4.9408
    -5     -56.818794     -18.337311      -2.626524    -14.5223
    -5     -57.298119     -24.514919       1.618524     -2.8612
    -6     -65.068970     -20.305574      -2.478972      8.4130
    -6     -58.606750     -21.044304       5.337597      2.7949
    -6     -58.764652     -15.105086      -3.595479      1.8477
    -6     -61.687965     -18.264151      -6.524156      4.6311
    -6     -59.592987     -24.915455       6.264751      3.0488
    -6     -62.248203     -23.193867      -1.565574      3.4271
    -6     -61.807968     -26.088295      -0.609107      3.3903
    -6     -61.145275     -27.515503       3.312678      3.1922
    -7     -60.541740     -21.474632      -4.246401     -1.8236
    -7     -57.397423     -16.886742      -1.108166     -1.7450
    -7     -58.970139     -16.857162      -5.473097     -1.5311
    -7     -63.425827     -16.595520      -5.097454     -1.4206
    -7     -65.160736     -17.906193      -1.279823     -1.2194
    -7     -61.130966     -16.927965       0.311852     -1.8081
    -7     -59.653305     -22.870188      -2.274181     -2.5803
    -7     -57.037426     -19.679558      -3.745864     -1.6366
    -7     -63.805370     -20.773651      -4.614347     -1.1950
    -7     -62.461372     -25.977211      -0.629311     -0.9919
    -7     -56.956734     -23.777069       0.971667     -2.0292
    -7     -60.200283     -20.347538       5.236532     -0.9871
    -7     -61.129890     -27.787445       3.443983     -0.9672
    -7     -59.470329     -24.929152       6.543686     -0.9670
    -7     -63.033863     -21.402035       1.168755     -2.4213
    -7     -60.013535     -18.925524       1.864357     -2.5797
    -8     -61.026489     -19.058956      -2.130025      6.5999
    -8     -59.550728     -20.312092      -0.734661      5.0053
    -8     -60.057365     -23.548565       2.276398      7.1508

$$$$
Untitled
  xed2sdf_05210316543D
 
 30 32  0  0  0  0  0  0  0  0999 V2000
  -54.0438  -21.7227   -9.8151 O   0  0  0  0  0  0  0  0  0  0  0  0
  -54.9958  -24.7627   -6.1661 O   0  0  0  0  0  0  0  0  0  0  0  0
  -55.3138  -22.6347   -4.5301 O   0  0  0  0  0  0  0  0  0  0  0  0
  -55.0188  -20.0837   -5.5021 O   0  0  0  0  0  0  0  0  0  0  0  0
  -54.4698  -25.5827   -8.7021 O   0  0  0  0  0  0  0  0  0  0  0  0
  -54.5208  -23.3127   -8.0361 C   0  0  0  0  0  0  0  0  0  0  0  0
  -54.3628  -22.0097   -8.5211 C   0  0  0  0  0  0  0  0  0  0  0  0
  -53.8398  -22.7637  -10.6851 C   0  0  0  0  0  0  0  0  0  0  0  0
  -54.8408  -23.5137   -6.6831 C   0  0  0  0  0  0  0  0  0  0  0  0
  -54.3368  -24.3937   -8.9881 C   0  0  0  0  0  0  0  0  0  0  0  0
  -53.9818  -24.0707  -10.3211 C   0  0  0  0  0  0  0  0  0  0  0  0
  -53.4478  -22.4037  -12.0741 C   0  0  0  0  0  0  0  0  0  0  0  0
  -54.5348  -20.9437   -7.6571 C   0  0  0  0  0  0  0  0  0  0  0  0
  -55.0028  -22.4367   -5.8471 C   0  0  0  0  0  0  0  0  0  0  0  0
  -54.8528  -21.1447   -6.3331 C   0  0  0  0  0  0  0  0  0  0  0  0
  -52.1948  -22.6857  -12.6011 C   0  0  0  0  0  0  0  0  0  0  0  0
  -54.3658  -21.7517  -12.8831 C   0  0  0  0  0  0  0  0  0  0  0  0
  -51.8748  -22.3277  -13.8881 C   0  0  0  0  0  0  0  0  0  0  0  0
  -54.0468  -21.3937  -14.1701 C   0  0  0  0  0  0  0  0  0  0  0  0
  -52.7998  -21.6817  -14.6761 C   0  0  0  0  0  0  0  0  0  0  0  0
  -55.6328  -24.7767   -5.3921 H   0  0  0  0  0  0  0  0  0  0  0  0
  -55.7868  -23.5117   -4.3911 H   0  0  0  0  0  0  0  0  0  0  0  0
  -54.3318  -20.0807   -4.7671 H   0  0  0  0  0  0  0  0  0  0  0  0
  -53.8368  -24.7977  -10.9921 H   0  0  0  0  0  0  0  0  0  0  0  0
  -54.4258  -20.0107   -8.0001 H   0  0  0  0  0  0  0  0  0  0  0  0
  -51.5158  -23.1557  -12.0361 H   0  0  0  0  0  0  0  0  0  0  0  0
  -55.2748  -21.5387  -12.5241 H   0  0  0  0  0  0  0  0  0  0  0  0
  -50.9688  -22.5387  -14.2541 H   0  0  0  0  0  0  0  0  0  0  0  0
  -54.7208  -20.9247  -14.7401 H   0  0  0  0  0  0  0  0  0  0  0  0
  -52.5658  -21.4207  -15.6141 H   0  0  0  0  0  0  0  0  0  0  0  0
  1  7  1  0
  1  8  1  0
  2  9  1  0
  3 14  1  0
  4 15  1  0
  5 10  2  0
  6  7  2  0
  6  9  1  0
  6 10  1  0
  7 13  1  0
  8 11  2  0
  8 12  1  0
  9 14  2  0
 10 11  1  0
 12 16  2  0
 12 17  1  0
 13 15  2  0
 14 15  1  0
 16 18  1  0
 17 19  2  0
 18 20  2  0
 19 20  1  0
  2 21  1  0
  3 22  1  0
  4 23  1  0
 11 24  1  0
 13 25  1  0
 16 26  1  0
 17 27  1  0
 18 28  1  0
 19 29  1  0
 20 30  1  0
M  END
>  <BioMolTech Lead Finder dG>
-6.43

>  <BioMolTech Lead Finder VSscore>
-7.456

>  <BioMolTech Lead Finder Rank score>
-10.702

>  <BioMolTech Lead Finder LE>
-0.322

>  <BioMolTech Lead Finder Structure Name>
/var/folders/xd/y7jw_xv579q2qqq7kks92xd80000gn/T/LeadFinder_45291_1/Ligand_1.sdf

>  <BioMolTech Lead Finder SDF id>
0

>  <BioMolTech Lead Finder Pose rank>
0

>  <BioMolTech Lead Finder version>
2001 1, 19 January 2019

>  <PUBCHEM_COMPOUND_CID>
5281605

>  <PUBCHEM_COMPOUND_CANONICALIZED>
1

>  <PUBCHEM_CACTVS_COMPLEXITY>
413

>  <PUBCHEM_CACTVS_HBOND_ACCEPTOR>
5

>  <PUBCHEM_CACTVS_HBOND_DONOR>
3

>  <PUBCHEM_CACTVS_ROTATABLE_BOND>
1

>  <PUBCHEM_CACTVS_SUBSKEYS>
AAADccBwOAAAAAAAAAAAAAAAAAAAAAAAAAAwYIAAAAAAAACBQAAAGgAACAAADASAmAAwBoAABgCIAqBSAAACCAAkIAAIiAEGiMgNJzaGNRqCeWGl4BUJuQfK7LzOIQABCAAIQABCAAIQABCAAAAAAAAAAA==

>  <PUBCHEM_IUPAC_OPENEYE_NAME>
5,6,7-trihydroxy-2-phenyl-chromen-4-one

>  <PUBCHEM_IUPAC_CAS_NAME>
5,6,7-trihydroxy-2-phenyl-1-benzopyran-4-one

>  <PUBCHEM_IUPAC_NAME_MARKUP>
5,6,7-trihydroxy-2-phenylchromen-4-one

>  <PUBCHEM_IUPAC_NAME>
5,6,7-trihydroxy-2-phenylchromen-4-one

>  <PUBCHEM_IUPAC_SYSTEMATIC_NAME>
5,6,7-tris(oxidanyl)-2-phenyl-chromen-4-one

>  <PUBCHEM_IUPAC_TRADITIONAL_NAME>
5,6,7-trihydroxy-2-phenyl-chromone

>  <PUBCHEM_IUPAC_INCHI>
InChI=1S/C15H10O5/c16-9-6-11(8-4-2-1-3-5-8)20-12-7-10(17)14(18)15(19)13(9)12/h1-7,17-19H

>  <PUBCHEM_IUPAC_INCHIKEY>
FXNFHKRTJBSTCS-UHFFFAOYSA-N

>  <PUBCHEM_XLOGP3>
1.7

>  <PUBCHEM_EXACT_MASS>
270.052823

>  <PUBCHEM_MOLECULAR_FORMULA>
C15H10O5

>  <PUBCHEM_MOLECULAR_WEIGHT>
270.24

>  <PUBCHEM_OPENEYE_CAN_SMILES>
C1=CC=C(C=C1)C2=CC(=O)C3=C(O2)C=C(C(=C3O)O)O

>  <PUBCHEM_OPENEYE_ISO_SMILES>
C1=CC=C(C=C1)C2=CC(=O)C3=C(O2)C=C(C(=C3O)O)O

>  <PUBCHEM_CACTVS_TPSA>
87

>  <PUBCHEM_MONOISOTOPIC_WEIGHT>
270.052823

>  <PUBCHEM_TOTAL_CHARGE>
0

>  <PUBCHEM_HEAVY_ATOM_COUNT>
20

>  <PUBCHEM_ATOM_DEF_STEREO_COUNT>
0

>  <PUBCHEM_ATOM_UDEF_STEREO_COUNT>
0

>  <PUBCHEM_BOND_DEF_STEREO_COUNT>
0

>  <PUBCHEM_BOND_UDEF_STEREO_COUNT>
0

>  <PUBCHEM_ISOTOPIC_ATOM_COUNT>
0

>  <PUBCHEM_COMPONENT_COUNT>
1

>  <PUBCHEM_CACTVS_TAUTO_COUNT>
-1

>  <PUBCHEM_COORDINATE_TYPE>
1
5
255

>  <PUBCHEM_BONDANNOTATIONS>
1  7  8
1  8  8
10  11  8
12  16  8
12  17  8
13  15  8
14  15  8
16  18  8
17  19  8
18  20  8
19  20  8
6  10  8
6  7  8
6  9  8
7  13  8
8  11  8
9  14  8

>  <LF dG>
-6.43

>  <LF VSscore>
-7.456

>  <LF Rank Score>
-10.702

>  <LF LE>
-0.322

>  <Preferred Pose_cresset>
true

>  <Favorite_cresset>
false

>  <Protein_cresset>
6M2N_Dimer_P

>  <MW_cresset>
270.2

>  <#Atoms_cresset>
20

>  <SlogP_cresset>
2.3

>  <TPSA_cresset>
87

>  <Flexibility_cresset>
1.7

>  <#RB_cresset>
4

>  <Rof5_cresset>
0

>  <Filename_cresset>
Baicalein.sdf

>  <Confs_cresset>
0

>  <Poses_cresset>
10

>  <_cresset_fieldpoints>
    -5     -54.605560     -26.550432      -7.109468    -13.0236
    -5     -52.190681     -19.473206     -12.244240     -3.2565
    -5     -54.347122     -27.283779      -9.478003    -10.9968
    -5     -56.999313     -19.568628      -5.251163     -4.2069
    -5     -54.174603     -24.619980     -14.474218     -2.9458
    -6     -52.989372     -19.743248      -3.688748      4.6469
    -6     -56.767559     -24.879322      -4.053082     10.1362
    -6     -53.504272     -18.045282      -8.401690      1.2943
    -6     -50.820984     -23.417017     -10.009388      1.8329
    -6     -56.917458     -20.305389     -14.068871      2.7447
    -6     -49.224766     -23.617413     -13.050591      2.7557
    -6     -50.346382     -21.892910     -16.585272      2.9000
    -6     -54.164345     -20.244560     -17.082613      2.8958
    -7     -52.924583     -26.182533      -6.770197     -1.6414
    -7     -54.001144     -24.857815      -3.717064     -1.4969
    -7     -57.774651     -22.286983      -8.184087     -1.8129
    -7     -57.879272     -24.082867      -5.381163     -1.3903
    -7     -55.982018     -20.657646      -3.170153     -1.4242
    -7     -51.474113     -22.471825      -6.734882     -1.8173
    -7     -53.619865     -18.076202      -5.936190     -1.2365
    -7     -56.637539     -26.122192      -7.466767     -1.7089
    -7     -51.256302     -23.131622      -9.264278     -2.5902
    -7     -54.383766     -25.142906     -13.630325     -2.0318
    -7     -57.145325     -20.015320     -13.698885     -0.9956
    -7     -50.164299     -21.969711     -16.800262     -0.9673
    -7     -49.170868     -24.160488     -12.885639     -0.9916
    -7     -56.806046     -22.789524     -10.653319     -2.5891
    -7     -54.280907     -20.141129     -17.321671     -0.9670
    -7     -56.185799     -20.291876     -10.575521     -2.1607
    -7     -53.624786     -18.876148     -16.390121     -0.9561
    -7     -52.971977     -19.598743     -10.473855     -2.4405
    -8     -53.124992     -22.044312     -13.379611      7.1502
    -8     -54.678562     -22.226145      -7.216910      6.5997
    -8     -54.208641     -23.358444      -9.267778      5.0051

$$$$
W_DAR_D
  xed2sdf_05210316543D
 
 82 86  0  0  1  0  0  0  0  0999 V2000
  -52.4159  -21.1160  -15.7246 O   0  0  0  0  0  0  0  0  0  0  0  0
  -52.7799  -21.6820  -14.7076 C   0  0  0  0  0  0  0  0  0  0  0  0
  -54.2109  -21.5880  -14.2226 C   0  0  0  0  0  0  0  0  0  0  0  0
  -54.3529  -21.8120  -12.7126 C   0  0  0  0  0  0  0  0  0  0  0  0
  -53.6859  -23.1600  -12.4326 C   0  0  0  0  0  0  0  0  0  0  0  0
  -53.8939  -23.5560  -11.0306 N   0  0  0  0  0  0  0  0  0  0  0  0
  -53.5179  -22.6840   -9.9036 C   0  0  0  0  0  0  0  0  0  0  0  0
  -54.5239  -23.3270   -8.9316 C   0  0  0  0  0  0  0  0  0  0  0  0
  -54.5299  -23.0580   -7.4426 C   0  0  0  0  0  0  0  0  0  0  0  0
  -53.9179  -21.8910   -7.0846 N   0  0  0  0  0  0  0  0  0  0  0  0
  -54.6259  -20.6180   -7.2726 C   0  0  0  0  0  0  0  0  0  0  0  0
  -55.4249  -20.2730   -6.0036 C   0  0  0  0  0  0  0  0  0  0  0  0
  -56.7519  -21.0450   -5.9966 C   0  0  0  0  0  0  0  0  0  0  0  0
  -57.6349  -20.5460   -4.8436 C   0  0  0  0  0  0  0  0  0  0  0  0
  -56.7249  -19.9230   -3.7766 C   0  0  0  0  0  0  0  0  0  0  0  0
  -57.2189  -20.2790   -2.3676 C   0  0  0  0  0  0  0  0  0  0  0  0
  -58.6709  -20.0730   -2.4326 N   0  0  0  0  0  0  0  0  0  0  0  0
  -59.2359  -18.9810   -1.8756 C   0  0  0  0  0  0  0  0  0  0  0  0
  -58.6309  -18.2020   -1.1416 O   0  0  0  0  0  0  0  0  0  0  0  0
  -60.6599  -18.6770   -2.1766 C   0  0  0  0  0  0  0  0  0  0  0  0
  -60.9709  -17.6280   -3.0196 C   0  0  0  0  0  0  0  0  0  0  0  0
  -62.2779  -17.3210   -3.2946 C   0  0  0  0  0  0  0  0  0  0  0  0
  -63.3279  -17.9960   -2.7876 N   0  0  0  0  0  0  0  0  0  0  0  0
  -63.0169  -19.0150   -1.9696 C   0  0  0  0  0  0  0  0  0  0  0  0
  -61.7259  -19.3900   -1.6386 C   0  0  0  0  0  0  0  0  0  0  0  0
  -61.4969  -20.4840   -0.7926 N   0  0  0  0  0  0  0  0  0  0  0  0
  -61.3439  -21.7730   -1.1606 C   0  0  0  0  0  0  0  0  0  0  0  0
  -61.4189  -22.1940   -2.3046 O   0  0  0  0  0  0  0  0  0  0  0  0
  -61.0889  -22.6970    0.0114 C   0  0  0  0  0  0  0  0  0  0  0  0
  -59.9529  -23.6500   -0.3126 C   0  0  0  0  0  0  0  0  0  0  0  0
  -58.7079  -23.1620   -0.6396 C   0  0  0  0  0  0  0  0  0  0  0  0
  -57.6789  -24.0280   -0.9326 C   0  0  0  0  0  0  0  0  0  0  0  0
  -57.8939  -25.3870   -0.9016 C   0  0  0  0  0  0  0  0  0  0  0  0
  -59.1379  -25.8790   -0.5776 C   0  0  0  0  0  0  0  0  0  0  0  0
  -59.4159  -27.5950   -0.5376 Cl  0  0  0  0  0  0  0  0  0  0  0  0
  -60.1659  -25.0100   -0.2856 C   0  0  0  0  0  0  0  0  0  0  0  0
  -55.1169  -23.9390   -6.6166 C   0  0  0  0  0  0  0  0  0  0  0  0
  -55.7419  -25.1450   -7.1606 C   0  0  0  0  0  0  0  0  0  0  0  0
  -55.4019  -25.5720   -8.3756 C   0  0  0  0  0  0  0  0  0  0  0  0
  -54.3829  -24.8290   -9.1996 C   0  0  0  0  0  0  0  0  0  0  0  0
  -54.4209  -24.7440  -10.6976 C   0  0  0  0  0  0  0  0  0  0  0  0
  -54.8449  -25.6000  -11.4616 O   0  0  0  0  0  0  0  0  0  0  0  0
  -52.2219  -23.1090  -12.8076 C   0  0  0  0  0  0  0  0  0  0  0  0
  -51.3659  -23.6640  -12.1406 O   0  0  0  0  0  0  0  0  0  0  0  0
  -51.9459  -22.4170  -13.9356 N   0  0  0  0  0  0  0  0  0  0  0  0
  -54.1119  -23.8640  -13.0006 H   0  0  0  0  0  0  0  0  0  0  0  0
  -55.3919  -22.8760   -9.1386 H   0  0  0  0  0  0  0  0  0  0  0  0
  -53.5889  -25.3710   -8.9236 H   0  0  0  0  0  0  0  0  0  0  0  0
  -54.7559  -22.2770  -14.7006 H   0  0  0  0  0  0  0  0  0  0  0  0
  -54.5289  -20.6600  -14.4146 H   0  0  0  0  0  0  0  0  0  0  0  0
  -55.3179  -21.8350  -12.4506 H   0  0  0  0  0  0  0  0  0  0  0  0
  -53.9289  -21.0740  -12.1876 H   0  0  0  0  0  0  0  0  0  0  0  0
  -53.6969  -21.7160  -10.0766 H   0  0  0  0  0  0  0  0  0  0  0  0
  -52.5559  -22.6490   -9.6336 H   0  0  0  0  0  0  0  0  0  0  0  0
  -53.0369  -21.8740   -7.0566 H   0  0  0  0  0  0  0  0  0  0  0  0
  -55.2509  -20.6950   -8.0496 H   0  0  0  0  0  0  0  0  0  0  0  0
  -53.9599  -19.8930   -7.4486 H   0  0  0  0  0  0  0  0  0  0  0  0
  -55.6099  -19.2900   -5.9836 H   0  0  0  0  0  0  0  0  0  0  0  0
  -54.8919  -20.5290   -5.1986 H   0  0  0  0  0  0  0  0  0  0  0  0
  -56.5699  -22.0210   -5.8806 H   0  0  0  0  0  0  0  0  0  0  0  0
  -57.2269  -20.8960   -6.8646 H   0  0  0  0  0  0  0  0  0  0  0  0
  -58.1469  -21.3100   -4.4516 H   0  0  0  0  0  0  0  0  0  0  0  0
  -58.2879  -19.8660   -5.1786 H   0  0  0  0  0  0  0  0  0  0  0  0
  -56.7229  -18.9290   -3.8846 H   0  0  0  0  0  0  0  0  0  0  0  0
  -55.7999  -20.2840   -3.8926 H   0  0  0  0  0  0  0  0  0  0  0  0
  -56.8039  -19.6810   -1.6826 H   0  0  0  0  0  0  0  0  0  0  0  0
  -56.9769  -21.2120   -2.1016 H   0  0  0  0  0  0  0  0  0  0  0  0
  -59.1669  -20.6530   -2.8726 H   0  0  0  0  0  0  0  0  0  0  0  0
  -60.2369  -17.0880   -3.4306 H   0  0  0  0  0  0  0  0  0  0  0  0
  -62.4629  -16.5530   -3.9086 H   0  0  0  0  0  0  0  0  0  0  0  0
  -63.7699  -19.5400   -1.5736 H   0  0  0  0  0  0  0  0  0  0  0  0
  -61.4419  -20.3090    0.0664 H   0  0  0  0  0  0  0  0  0  0  0  0
  -61.9179  -23.2210    0.2074 H   0  0  0  0  0  0  0  0  0  0  0  0
  -60.8379  -22.1500    0.8104 H   0  0  0  0  0  0  0  0  0  0  0  0
  -58.5499  -22.1740   -0.6626 H   0  0  0  0  0  0  0  0  0  0  0  0
  -56.7749  -23.6700   -1.1686 H   0  0  0  0  0  0  0  0  0  0  0  0
  -57.1459  -26.0170   -1.1146 H   0  0  0  0  0  0  0  0  0  0  0  0
  -61.0699  -25.3680   -0.0526 H   0  0  0  0  0  0  0  0  0  0  0  0
  -55.1279  -23.7700   -5.6306 H   0  0  0  0  0  0  0  0  0  0  0  0
  -56.4209  -25.6450   -6.6236 H   0  0  0  0  0  0  0  0  0  0  0  0
  -55.8289  -26.3970   -8.7456 H   0  0  0  0  0  0  0  0  0  0  0  0
  -51.1079  -22.4430  -14.2016 H   0  0  0  0  0  0  0  0  0  0  0  0
  1  2  2  0
  2  3  1  0
  2 45  1  0
  3  4  1  0
  4  5  1  0
  5  6  1  0
  5 43  1  0
  6  7  1  0
  6 41  1  0
  7  8  1  0
  8  9  1  0
  8 40  1  0
  9 10  1  0
  9 37  2  0
 10 11  1  0
 11 12  1  0
 12 13  1  0
 13 14  1  0
 14 15  1  0
 15 16  1  0
 16 17  1  0
 17 18  1  0
 18 19  2  0
 18 20  1  0
 20 21  2  0
 20 25  1  0
 21 22  1  0
 22 23  2  0
 23 24  1  0
 24 25  2  0
 25 26  1  0
 26 27  1  0
 27 28  2  0
 27 29  1  0
 29 30  1  0
 30 31  2  0
 30 36  1  0
 31 32  1  0
 32 33  2  0
 33 34  1  0
 34 35  1  0
 34 36  2  0
 37 38  1  0
 38 39  2  0
 39 40  1  0
 40 41  1  0
 41 42  2  0
 43 44  2  0
 43 45  1  0
  3 49  1  0
  3 50  1  0
  4 51  1  0
  4 52  1  0
  5 46  1  0
  7 53  1  0
  7 54  1  0
  8 47  1  0
 10 55  1  0
 11 56  1  0
 11 57  1  0
 12 58  1  0
 12 59  1  0
 13 60  1  0
 13 61  1  0
 14 62  1  0
 14 63  1  0
 15 64  1  0
 15 65  1  0
 16 66  1  0
 16 67  1  0
 17 68  1  0
 21 69  1  0
 22 70  1  0
 24 71  1  0
 26 72  1  0
 29 73  1  0
 29 74  1  0
 31 75  1  0
 32 76  1  0
 33 77  1  0
 36 78  1  0
 37 79  1  0
 38 80  1  0
 39 81  1  0
 40 48  1  0
 45 82  1  0
M  END
>  <BioMolTech Lead Finder dG>
-12.444

>  <BioMolTech Lead Finder VSscore>
-13.755

>  <BioMolTech Lead Finder Rank score>
-6.204

>  <BioMolTech Lead Finder LE>
-0.277

>  <BioMolTech Lead Finder Structure Name>
/var/folders/xd/y7jw_xv579q2qqq7kks92xd80000gn/T/LeadFinder_47239_1/Ligand_1.sdf

>  <BioMolTech Lead Finder SDF id>
0

>  <BioMolTech Lead Finder Pose rank>
0

>  <BioMolTech Lead Finder version>
2001 1, 19 January 2019

>  <LF dG>
-12.444

>  <LF VSscore>
-13.755

>  <LF Rank Score>
-6.204

>  <LF LE>
-0.277

>  <Preferred Pose_cresset>
true

>  <Favorite_cresset>
false

>  <Protein_cresset>
6M2N_Dimer_P

>  <MW_cresset>
633.1

>  <#Atoms_cresset>
45

>  <SlogP_cresset>
2.9

>  <TPSA_cresset>
149.6

>  <Flexibility_cresset>
10.4

>  <#RB_cresset>
13

>  <Rof5_cresset>
2

>  <Filename_cresset>
DAR-DIA-9e4459de-1.mol

>  <Confs_cresset>
0

>  <Poses_cresset>
10

>  <_cresset_fieldpoints>
    -5     -53.179897     -20.145466     -17.021561     -7.8248
    -5     -55.472042     -27.172588     -11.110966    -12.9240
    -5     -61.153023     -23.800936      -3.078839    -10.8258
    -5     -62.039600     -21.633865      -3.919053     -8.9828
    -5     -59.223396     -16.618534      -0.314718     -8.9636
    -5     -65.154175     -17.636612      -3.384935     -6.3380
    -5     -57.969627     -25.066406       2.199553     -2.1139
    -5     -51.690964     -24.956581     -10.950405    -10.6400
    -5     -53.751236     -26.774166      -6.699749     -4.5577
    -6     -53.709450     -19.521040     -10.255359      7.2481
    -6     -51.471436     -21.006163      -7.869428      9.2872
    -6     -49.198833     -22.063248     -14.436861      4.1669
    -6     -53.886208     -24.303711     -15.281075      2.9849
    -6     -55.216576     -22.673306      -2.562349      5.4655
    -6     -58.569092     -17.189806      -5.025307      3.0921
    -6     -60.280712     -15.565786      -5.142373      2.9619
    -6     -61.951584     -20.549950       1.935222     10.0881
    -7     -53.030907     -24.580452     -15.372238     -1.9948
    -7     -51.440590     -20.604778     -11.611604     -2.3847
    -7     -56.944725     -23.423630     -11.186880     -2.6665
    -7     -53.962769     -22.057903     -17.466465     -1.1415
    -7     -56.369492     -20.826988     -10.284119     -2.6851
    -7     -57.730171     -23.199783      -8.176774     -2.9964
    -7     -51.829582     -24.202238      -7.195357     -2.3543
    -7     -55.758583     -23.037449      -3.433934     -3.4424
    -7     -51.678207     -20.311874      -8.720924     -1.8117
    -7     -53.458145     -22.379814      -4.404813     -2.5628
    -7     -57.706482     -16.746281      -3.101759     -2.4268
    -7     -58.311523     -17.269035      -4.985055     -2.4081
    -7     -53.977009     -18.228790      -3.961569     -1.6836
    -7     -58.946281     -20.165752       0.691754     -3.5482
    -7     -63.919601     -21.196432       0.481081     -2.0653
    -7     -59.743591     -23.063246      -3.699971     -3.4743
    -7     -57.215363     -23.769011      -4.117162     -3.4312
    -7     -60.948307     -21.149897      -4.443041     -3.1790
    -7     -58.283951     -24.487869       2.563380     -1.8730
    -7     -54.316521     -27.808353     -10.481722     -1.5556
    -7     -51.383190     -25.144417     -10.377991     -2.4313
    -8     -53.936363     -22.237362     -13.334322      5.5885
    -8     -56.485832     -20.365562      -5.105330      6.6172
    -8     -54.939861     -24.311462      -8.026535      7.0662
    -8     -61.564262     -18.392105      -2.429396      5.3682
    -8     -58.923813     -24.516068      -0.608602      7.1930

$$$$
DAR_D
  xed2sdf_05210316543D
 
 82 86  0  0  1  0  0  0  0  0999 V2000
  -53.3266  -24.8096  -10.7092 O   0  0  0  0  0  0  0  0  0  0  0  0
  -53.9336  -24.1486   -9.8842 C   0  0  0  0  0  0  0  0  0  0  0  0
  -55.3456  -24.5076   -9.4712 C   0  0  0  0  0  0  0  0  0  0  0  0
  -56.1426  -23.3116   -8.9402 C   0  0  0  0  0  0  0  0  0  0  0  0
  -55.2936  -22.7186   -7.8132 C   0  0  0  0  0  0  0  0  0  0  0  0
  -56.0296  -21.6486   -7.1222 N   0  0  0  0  0  0  0  0  0  0  0  0
  -56.5006  -21.7886   -5.7342 C   0  0  0  0  0  0  0  0  0  0  0  0
  -56.5356  -20.2706   -5.4782 C   0  0  0  0  0  0  0  0  0  0  0  0
  -57.1746  -19.6476   -4.2572 C   0  0  0  0  0  0  0  0  0  0  0  0
  -57.2976  -20.4986   -3.1972 N   0  0  0  0  0  0  0  0  0  0  0  0
  -58.0016  -20.0496   -1.9882 C   0  0  0  0  0  0  0  0  0  0  0  0
  -59.4916  -20.4176   -2.0842 C   0  0  0  0  0  0  0  0  0  0  0  0
  -59.9276  -21.1666   -0.8172 C   0  0  0  0  0  0  0  0  0  0  0  0
  -61.2506  -21.9016   -1.0792 C   0  0  0  0  0  0  0  0  0  0  0  0
  -60.9276  -23.3536   -1.4552 C   0  0  0  0  0  0  0  0  0  0  0  0
  -62.0926  -23.9846   -2.2302 C   0  0  0  0  0  0  0  0  0  0  0  0
  -63.1786  -24.0646   -1.2462 N   0  0  0  0  0  0  0  0  0  0  0  0
  -63.2286  -25.0836   -0.3612 C   0  0  0  0  0  0  0  0  0  0  0  0
  -62.5096  -26.0786   -0.4272 O   0  0  0  0  0  0  0  0  0  0  0  0
  -64.1856  -25.0006    0.7738 C   0  0  0  0  0  0  0  0  0  0  0  0
  -65.4786  -24.5726    0.5478 C   0  0  0  0  0  0  0  0  0  0  0  0
  -66.3696  -24.4726    1.5848 C   0  0  0  0  0  0  0  0  0  0  0  0
  -66.0676  -24.7766    2.8628 N   0  0  0  0  0  0  0  0  0  0  0  0
  -64.8086  -25.1926    3.0738 C   0  0  0  0  0  0  0  0  0  0  0  0
  -63.8466  -25.3196    2.0848 C   0  0  0  0  0  0  0  0  0  0  0  0
  -62.5616  -25.7846    2.3968 N   0  0  0  0  0  0  0  0  0  0  0  0
  -61.5016  -25.0406    2.7708 C   0  0  0  0  0  0  0  0  0  0  0  0
  -61.4906  -23.8226    2.8608 O   0  0  0  0  0  0  0  0  0  0  0  0
  -60.2666  -25.8686    3.0538 C   0  0  0  0  0  0  0  0  0  0  0  0
  -59.4436  -26.0296    1.7878 C   0  0  0  0  0  0  0  0  0  0  0  0
  -58.6396  -25.0016    1.3468 C   0  0  0  0  0  0  0  0  0  0  0  0
  -57.8946  -25.1496    0.1988 C   0  0  0  0  0  0  0  0  0  0  0  0
  -57.9516  -26.3266   -0.5122 C   0  0  0  0  0  0  0  0  0  0  0  0
  -58.7556  -27.3556   -0.0742 C   0  0  0  0  0  0  0  0  0  0  0  0
  -58.8326  -28.8446   -0.9692 Cl  0  0  0  0  0  0  0  0  0  0  0  0
  -59.5016  -27.2046    1.0738 C   0  0  0  0  0  0  0  0  0  0  0  0
  -57.5476  -18.3576   -4.2942 C   0  0  0  0  0  0  0  0  0  0  0  0
  -57.3366  -17.5726   -5.5112 C   0  0  0  0  0  0  0  0  0  0  0  0
  -57.1546  -18.1956   -6.6742 C   0  0  0  0  0  0  0  0  0  0  0  0
  -57.1616  -19.6996   -6.7552 C   0  0  0  0  0  0  0  0  0  0  0  0
  -56.3306  -20.4886   -7.7252 C   0  0  0  0  0  0  0  0  0  0  0  0
  -56.0016  -20.1376   -8.8502 O   0  0  0  0  0  0  0  0  0  0  0  0
  -53.9616  -22.2486   -8.3522 C   0  0  0  0  0  0  0  0  0  0  0  0
  -53.4286  -21.2276   -7.9532 O   0  0  0  0  0  0  0  0  0  0  0  0
  -53.4106  -23.0516   -9.2902 N   0  0  0  0  0  0  0  0  0  0  0  0
  -55.1046  -23.4286   -7.1342 H   0  0  0  0  0  0  0  0  0  0  0  0
  -55.5896  -20.0356   -5.2542 H   0  0  0  0  0  0  0  0  0  0  0  0
  -58.1276  -19.8006   -6.9942 H   0  0  0  0  0  0  0  0  0  0  0  0
  -55.3006  -25.2056   -8.7562 H   0  0  0  0  0  0  0  0  0  0  0  0
  -55.8186  -24.8396  -10.2872 H   0  0  0  0  0  0  0  0  0  0  0  0
  -57.0316  -23.6086   -8.5922 H   0  0  0  0  0  0  0  0  0  0  0  0
  -56.3236  -22.6396   -9.6582 H   0  0  0  0  0  0  0  0  0  0  0  0
  -55.8566  -22.2756   -5.1442 H   0  0  0  0  0  0  0  0  0  0  0  0
  -57.3356  -22.3146   -5.5682 H   0  0  0  0  0  0  0  0  0  0  0  0
  -56.7086  -21.1486   -3.1142 H   0  0  0  0  0  0  0  0  0  0  0  0
  -57.9076  -19.0586   -1.8962 H   0  0  0  0  0  0  0  0  0  0  0  0
  -57.6026  -20.4996   -1.1892 H   0  0  0  0  0  0  0  0  0  0  0  0
  -59.6406  -20.9996   -2.8842 H   0  0  0  0  0  0  0  0  0  0  0  0
  -60.0326  -19.5816   -2.1742 H   0  0  0  0  0  0  0  0  0  0  0  0
  -60.0486  -20.5146   -0.0682 H   0  0  0  0  0  0  0  0  0  0  0  0
  -59.2236  -21.8326   -0.5672 H   0  0  0  0  0  0  0  0  0  0  0  0
  -61.7436  -21.4576   -1.8262 H   0  0  0  0  0  0  0  0  0  0  0  0
  -61.8256  -21.8776   -0.2612 H   0  0  0  0  0  0  0  0  0  0  0  0
  -60.7606  -23.8806   -0.6222 H   0  0  0  0  0  0  0  0  0  0  0  0
  -60.1136  -23.3616   -2.0372 H   0  0  0  0  0  0  0  0  0  0  0  0
  -61.8466  -24.8936   -2.5662 H   0  0  0  0  0  0  0  0  0  0  0  0
  -62.3486  -23.4526   -3.0382 H   0  0  0  0  0  0  0  0  0  0  0  0
  -63.7776  -23.4206   -1.2142 H   0  0  0  0  0  0  0  0  0  0  0  0
  -65.7666  -24.3336   -0.3792 H   0  0  0  0  0  0  0  0  0  0  0  0
  -67.2966  -24.1576    1.3808 H   0  0  0  0  0  0  0  0  0  0  0  0
  -64.5466  -25.4266    4.0098 H   0  0  0  0  0  0  0  0  0  0  0  0
  -62.4386  -26.6526    2.3488 H   0  0  0  0  0  0  0  0  0  0  0  0
  -60.5406  -26.7696    3.3898 H   0  0  0  0  0  0  0  0  0  0  0  0
  -59.7136  -25.4046    3.7458 H   0  0  0  0  0  0  0  0  0  0  0  0
  -58.5976  -24.1456    1.8618 H   0  0  0  0  0  0  0  0  0  0  0  0
  -57.3106  -24.4016   -0.1192 H   0  0  0  0  0  0  0  0  0  0  0  0
  -57.4096  -26.4356   -1.3452 H   0  0  0  0  0  0  0  0  0  0  0  0
  -60.0866  -27.9516    1.3888 H   0  0  0  0  0  0  0  0  0  0  0  0
  -57.9706  -17.9346   -3.4922 H   0  0  0  0  0  0  0  0  0  0  0  0
  -57.3286  -16.5736   -5.4692 H   0  0  0  0  0  0  0  0  0  0  0  0
  -57.0116  -17.6576   -7.5052 H   0  0  0  0  0  0  0  0  0  0  0  0
  -52.6036  -22.8246   -9.5572 H   0  0  0  0  0  0  0  0  0  0  0  0
  1  2  2  0
  2  3  1  0
  2 45  1  0
  3  4  1  0
  4  5  1  0
  5  6  1  0
  5 43  1  0
  6  7  1  0
  6 41  1  0
  7  8  1  0
  8  9  1  0
  8 40  1  0
  9 10  1  0
  9 37  2  0
 10 11  1  0
 11 12  1  0
 12 13  1  0
 13 14  1  0
 14 15  1  0
 15 16  1  0
 16 17  1  0
 17 18  1  0
 18 19  2  0
 18 20  1  0
 20 21  2  0
 20 25  1  0
 21 22  1  0
 22 23  2  0
 23 24  1  0
 24 25  2  0
 25 26  1  0
 26 27  1  0
 27 28  2  0
 27 29  1  0
 29 30  1  0
 30 31  2  0
 30 36  1  0
 31 32  1  0
 32 33  2  0
 33 34  1  0
 34 35  1  0
 34 36  2  0
 37 38  1  0
 38 39  2  0
 39 40  1  0
 40 41  1  0
 41 42  2  0
 43 44  2  0
 43 45  1  0
  3 49  1  0
  3 50  1  0
  4 51  1  0
  4 52  1  0
  5 46  1  0
  7 53  1  0
  7 54  1  0
  8 47  1  0
 10 55  1  0
 11 56  1  0
 11 57  1  0
 12 58  1  0
 12 59  1  0
 13 60  1  0
 13 61  1  0
 14 62  1  0
 14 63  1  0
 15 64  1  0
 15 65  1  0
 16 66  1  0
 16 67  1  0
 17 68  1  0
 21 69  1  0
 22 70  1  0
 24 71  1  0
 26 72  1  0
 29 73  1  0
 29 74  1  0
 31 75  1  0
 32 76  1  0
 33 77  1  0
 36 78  1  0
 37 79  1  0
 38 80  1  0
 39 81  1  0
 40 48  1  0
 45 82  1  0
M  END
>  <BioMolTech Lead Finder dG>
-11.463

>  <BioMolTech Lead Finder VSscore>
-13.08

>  <BioMolTech Lead Finder Rank score>
-5.793

>  <BioMolTech Lead Finder LE>
-0.255

>  <BioMolTech Lead Finder Structure Name>
/var/folders/xd/y7jw_xv579q2qqq7kks92xd80000gn/T/LeadFinder_45291_1/Ligand_1.sdf

>  <BioMolTech Lead Finder SDF id>
0

>  <BioMolTech Lead Finder Pose rank>
0

>  <BioMolTech Lead Finder version>
2001 1, 19 January 2019

>  <LF dG>
-11.463

>  <LF VSscore>
-13.08

>  <LF Rank Score>
-5.793

>  <LF LE>
-0.255

>  <Preferred Pose_cresset>
true

>  <Favorite_cresset>
false

>  <Protein_cresset>
6M2N_Dimer_P

>  <MW_cresset>
633.1

>  <#Atoms_cresset>
45

>  <SlogP_cresset>
2.9

>  <TPSA_cresset>
149.6

>  <Flexibility_cresset>
10.4

>  <#RB_cresset>
13

>  <Rof5_cresset>
2

>  <Filename_cresset>
DAR-DIA-9e4459de-1.mol

>  <Confs_cresset>
0

>  <Poses_cresset>
10

>  <_cresset_fieldpoints>
    -5     -54.107697     -19.441694      -8.662571    -13.4280
    -5     -53.644409     -26.204290     -11.781801     -8.2854
    -5     -56.097130     -18.601082      -9.636436    -13.7189
    -5     -60.540257     -22.339260       3.099149     -8.4920
    -5     -59.792732     -17.939957      -6.054245     -4.5412
    -5     -62.665413     -22.525185       2.494134    -10.2963
    -5     -67.305115     -24.423811       4.334448     -6.0127
    -5     -61.306038     -27.032784      -1.537480     -8.4518
    -5     -56.389465     -27.355034       2.088866     -1.7695
    -6     -56.295784     -23.073463      -2.945734     12.3563
    -6     -56.224674     -24.702055      -5.650383      9.5015
    -6     -59.376244     -17.183880      -1.522804      2.2642
    -6     -65.484314     -22.448837      -1.659092      7.5242
    -6     -61.871620     -28.471985       2.931894      9.3252
    -6     -57.775902     -31.306347      -1.887671      1.5519
    -6     -50.636803     -22.971096      -9.325047      2.9492
    -7     -54.707756     -20.934116     -10.790304     -2.3848
    -7     -61.249702     -27.297428      -2.125049     -2.7380
    -7     -52.816116     -24.848278      -7.201904     -2.0118
    -7     -57.032784     -25.033691      -6.239705     -2.0235
    -7     -59.782257     -21.029293      -5.331570     -2.9866
    -7     -59.023102     -22.182953      -7.755529     -2.4223
    -7     -57.753059     -23.333275      -2.731953     -3.7887
    -7     -53.304653     -21.233479      -5.561546     -2.3762
    -7     -59.554100     -22.831455      -4.496383     -2.8806
    -7     -53.901112     -19.062752      -7.084489     -2.5607
    -7     -54.850788     -19.185604      -2.648829     -2.1471
    -7     -57.227951     -21.917519       0.993384     -2.2907
    -7     -59.608643     -17.807192      -0.095699     -1.5667
    -7     -59.644058     -17.044533      -1.758157     -1.5914
    -7     -62.253967     -18.801699      -0.863372     -1.5754
    -7     -62.529533     -28.310909       0.505141     -2.7393
    -7     -64.204956     -21.388935      -2.595295     -1.7591
    -7     -60.033833     -19.826050      -5.191754     -2.9929
    -7     -62.880199     -22.176283       1.929174     -2.9866
    -7     -62.679077     -27.011711       4.960584     -2.0749
    -7     -67.726028     -24.612255       4.692742     -1.0225
    -7     -65.071365     -25.260971      -2.754044     -2.0866
    -7     -60.122906     -22.197739       2.116290     -3.0856
    -7     -61.840755     -29.003361       2.758612     -1.8740
    -7     -56.375359     -27.394417       2.532722     -1.8650
    -7     -57.899155     -18.917395      -9.799706     -1.6278
    -8     -55.351616     -23.627377      -8.764397      5.5728
    -8     -57.128674     -19.001247      -5.549227      7.0510
    -8     -60.452232     -22.033562      -1.347932      5.9430
    -8     -59.171829     -20.608250      -1.451752      5.5916
    -8     -64.885559     -24.898411       1.450181      5.3702
    -8     -58.703007     -26.175095       0.636924      7.2101
    -8     -58.769985     -27.547281      -0.189507      5.6131

$$$$
W_Wogonin_D
  xed2sdf_05210316543D
 
 33 35  0  0  0  0  0  0  0  0999 V2000
  -62.4943  -25.4789    0.4667 O   0  0  0  0  0  0  0  0  0  0  0  0
  -64.5443  -24.8359    2.2977 O   0  0  0  0  0  0  0  0  0  0  0  0
  -65.5833  -24.4219   -3.0863 O   0  0  0  0  0  0  0  0  0  0  0  0
  -66.9323  -24.0429    1.4067 O   0  0  0  0  0  0  0  0  0  0  0  0
  -63.0783  -25.1529   -3.5123 O   0  0  0  0  0  0  0  0  0  0  0  0
  -64.0033  -24.9479   -1.3483 C   0  0  0  0  0  0  0  0  0  0  0  0
  -63.7153  -25.0689    0.0167 C   0  0  0  0  0  0  0  0  0  0  0  0
  -61.5123  -25.7819   -0.4433 C   0  0  0  0  0  0  0  0  0  0  0  0
  -64.7093  -24.7609    0.9527 C   0  0  0  0  0  0  0  0  0  0  0  0
  -62.9453  -25.2549   -2.2933 C   0  0  0  0  0  0  0  0  0  0  0  0
  -65.2743  -24.5339   -1.7683 C   0  0  0  0  0  0  0  0  0  0  0  0
  -61.6933  -25.6829   -1.7903 C   0  0  0  0  0  0  0  0  0  0  0  0
  -60.2103  -26.2299    0.1157 C   0  0  0  0  0  0  0  0  0  0  0  0
  -65.9523  -24.3469    0.5117 C   0  0  0  0  0  0  0  0  0  0  0  0
  -66.2313  -24.2349   -0.8393 C   0  0  0  0  0  0  0  0  0  0  0  0
  -59.4323  -25.4389    0.9507 C   0  0  0  0  0  0  0  0  0  0  0  0
  -59.7453  -27.4949   -0.2093 C   0  0  0  0  0  0  0  0  0  0  0  0
  -58.2353  -25.8999    1.4427 C   0  0  0  0  0  0  0  0  0  0  0  0
  -58.5483  -27.9559    0.2817 C   0  0  0  0  0  0  0  0  0  0  0  0
  -57.7903  -27.1599    1.1097 C   0  0  0  0  0  0  0  0  0  0  0  0
  -64.7023  -26.0859    2.9947 C   0  0  0  0  0  0  0  0  0  0  0  0
  -65.0223  -23.7289   -3.5453 H   0  0  0  0  0  0  0  0  0  0  0  0
  -66.9213  -23.0719    1.6647 H   0  0  0  0  0  0  0  0  0  0  0  0
  -60.9483  -25.9099   -2.4173 H   0  0  0  0  0  0  0  0  0  0  0  0
  -67.1373  -23.9339   -1.1373 H   0  0  0  0  0  0  0  0  0  0  0  0
  -59.7473  -24.5229    1.1987 H   0  0  0  0  0  0  0  0  0  0  0  0
  -60.2893  -28.0809   -0.8103 H   0  0  0  0  0  0  0  0  0  0  0  0
  -57.6863  -25.3199    2.0427 H   0  0  0  0  0  0  0  0  0  0  0  0
  -58.2273  -28.8719    0.0387 H   0  0  0  0  0  0  0  0  0  0  0  0
  -56.9183  -27.4939    1.4677 H   0  0  0  0  0  0  0  0  0  0  0  0
  -64.9343  -26.7999    2.3347 H   0  0  0  0  0  0  0  0  0  0  0  0
  -63.8503  -26.3219    3.4617 H   0  0  0  0  0  0  0  0  0  0  0  0
  -65.4333  -26.0029    3.6727 H   0  0  0  0  0  0  0  0  0  0  0  0
  1  7  1  0
  1  8  1  0
  2  9  1  0
  2 21  1  0
  3 11  1  0
  4 14  1  0
  5 10  2  0
  6  7  2  0
  6 10  1  0
  6 11  1  0
  7  9  1  0
  8 12  2  0
  8 13  1  0
  9 14  2  0
 10 12  1  0
 11 15  2  0
 13 16  2  0
 13 17  1  0
 14 15  1  0
 16 18  1  0
 17 19  2  0
 18 20  2  0
 19 20  1  0
  3 22  1  0
  4 23  1  0
 12 24  1  0
 15 25  1  0
 16 26  1  0
 17 27  1  0
 18 28  1  0
 19 29  1  0
 20 30  1  0
 21 31  1  0
 21 32  1  0
 21 33  1  0
M  END
>  <BioMolTech Lead Finder dG>
-7.142

>  <BioMolTech Lead Finder VSscore>
-8.466

>  <BioMolTech Lead Finder Rank score>
-11.088

>  <BioMolTech Lead Finder LE>
-0.34

>  <BioMolTech Lead Finder Structure Name>
/var/folders/xd/y7jw_xv579q2qqq7kks92xd80000gn/T/LeadFinder_46855_1/Ligand_1.sdf

>  <BioMolTech Lead Finder SDF id>
0

>  <BioMolTech Lead Finder Pose rank>
0

>  <BioMolTech Lead Finder version>
2001 1, 19 January 2019

>  <PUBCHEM_COMPOUND_CID>
5281703

>  <PUBCHEM_COMPOUND_CANONICALIZED>
1

>  <PUBCHEM_CACTVS_COMPLEXITY>
426

>  <PUBCHEM_CACTVS_HBOND_ACCEPTOR>
5

>  <PUBCHEM_CACTVS_HBOND_DONOR>
2

>  <PUBCHEM_CACTVS_ROTATABLE_BOND>
2

>  <PUBCHEM_CACTVS_SUBSKEYS>
AAADccB4OAAAAAAAAAAAAAAAAAAAAAAAAAAwYIAAAAAAAACBQAAAGgAACAAADASAmAIyBoAABgCIAqBSAAACCAAkIAAIiAEGiMgNJzaGNRqCeWOl4BULuQfK7LzOIQABCAAIQABCAAIQABCAAAAAAAAAAA==

>  <PUBCHEM_IUPAC_OPENEYE_NAME>
5,7-dihydroxy-8-methoxy-2-phenyl-chromen-4-one

>  <PUBCHEM_IUPAC_CAS_NAME>
5,7-dihydroxy-8-methoxy-2-phenyl-1-benzopyran-4-one

>  <PUBCHEM_IUPAC_NAME_MARKUP>
5,7-dihydroxy-8-methoxy-2-phenylchromen-4-one

>  <PUBCHEM_IUPAC_NAME>
5,7-dihydroxy-8-methoxy-2-phenylchromen-4-one

>  <PUBCHEM_IUPAC_SYSTEMATIC_NAME>
8-methoxy-5,7-bis(oxidanyl)-2-phenyl-chromen-4-one

>  <PUBCHEM_IUPAC_TRADITIONAL_NAME>
5,7-dihydroxy-8-methoxy-2-phenyl-chromone

>  <PUBCHEM_IUPAC_INCHI>
InChI=1S/C16H12O5/c1-20-15-12(19)7-10(17)14-11(18)8-13(21-16(14)15)9-5-3-2-4-6-9/h2-8,17,19H,1H3

>  <PUBCHEM_IUPAC_INCHIKEY>
XLTFNNCXVBYBSX-UHFFFAOYSA-N

>  <PUBCHEM_XLOGP3_AA>
3

>  <PUBCHEM_EXACT_MASS>
284.068473

>  <PUBCHEM_MOLECULAR_FORMULA>
C16H12O5

>  <PUBCHEM_MOLECULAR_WEIGHT>
284.26

>  <PUBCHEM_OPENEYE_CAN_SMILES>
COC1=C(C=C(C2=C1OC(=CC2=O)C3=CC=CC=C3)O)O

>  <PUBCHEM_OPENEYE_ISO_SMILES>
COC1=C(C=C(C2=C1OC(=CC2=O)C3=CC=CC=C3)O)O

>  <PUBCHEM_CACTVS_TPSA>
76

>  <PUBCHEM_MONOISOTOPIC_WEIGHT>
284.068473

>  <PUBCHEM_TOTAL_CHARGE>
0

>  <PUBCHEM_HEAVY_ATOM_COUNT>
21

>  <PUBCHEM_ATOM_DEF_STEREO_COUNT>
0

>  <PUBCHEM_ATOM_UDEF_STEREO_COUNT>
0

>  <PUBCHEM_BOND_DEF_STEREO_COUNT>
0

>  <PUBCHEM_BOND_UDEF_STEREO_COUNT>
0

>  <PUBCHEM_ISOTOPIC_ATOM_COUNT>
0

>  <PUBCHEM_COMPONENT_COUNT>
1

>  <PUBCHEM_CACTVS_TAUTO_COUNT>
-1

>  <PUBCHEM_COORDINATE_TYPE>
1
5
255

>  <PUBCHEM_BONDANNOTATIONS>
1  7  8
1  8  8
10  12  8
11  15  8
13  16  8
13  17  8
14  15  8
16  18  8
17  19  8
18  20  8
19  20  8
6  10  8
6  11  8
6  7  8
7  9  8
8  12  8
9  14  8

>  <LF dG>
-7.142

>  <LF VSscore>
-8.466

>  <LF Rank Score>
-11.088

>  <LF LE>
-0.34

>  <Preferred Pose_cresset>
true

>  <Favorite_cresset>
false

>  <Protein_cresset>
6M2N_Dimer_P

>  <MW_cresset>
284.3

>  <#Atoms_cresset>
21

>  <SlogP_cresset>
2.6

>  <TPSA_cresset>
76

>  <Flexibility_cresset>
1.7

>  <#RB_cresset>
4

>  <Rof5_cresset>
0

>  <Filename_cresset>
Wogonin.sdf

>  <Confs_cresset>
0

>  <Poses_cresset>
10

>  <_cresset_fieldpoints>
    -5     -63.234550     -23.283592       3.347224     -3.4085
    -5     -62.103920     -25.635201      -5.056198     -9.4606
    -5     -64.733475     -25.813644      -4.429017    -11.0090
    -5     -68.143265     -25.613415       1.940181     -3.9476
    -5     -60.516251     -27.659962       2.962301     -2.8709
    -5     -57.422615     -25.562584      -1.668222     -2.4891
    -6     -58.221260     -23.083923       2.667263      2.9688
    -6     -62.515404     -28.505150      -0.924474      2.3189
    -6     -67.115593     -21.338997       1.500865      5.3241
    -6     -55.507874     -26.118156       2.956717      3.1123
    -6     -64.813812     -21.906181      -3.498657      2.6486
    -6     -61.114952     -22.963211       0.148935      2.6024
    -6     -56.068390     -29.745850       0.911391      3.1136
    -6     -59.441299     -30.362129      -1.388165      3.0206
    -6     -64.657028     -28.779228       4.315450      1.4948
    -7     -63.700027     -21.674845      -0.404324     -1.8626
    -7     -65.026428     -26.451370      -4.430704     -1.6876
    -7     -63.019356     -22.469334      -3.383167     -1.7794
    -7     -67.149551     -22.624588      -3.761582     -1.2549
    -7     -67.916290     -26.112373       2.409789     -1.6645
    -7     -61.310730     -22.840223      -0.452867     -2.5793
    -7     -69.072380     -23.047466       0.648445     -1.2785
    -7     -58.317406     -25.240675      -2.368242     -2.0263
    -7     -55.286263     -26.045059       3.119071     -0.9674
    -7     -61.850277     -24.434837       2.786952     -2.7737
    -7     -55.873749     -29.959202       0.903109     -0.9671
    -7     -62.895977     -28.052971       1.030123     -2.9314
    -7     -66.502731     -23.475582       3.838306     -1.8358
    -7     -65.636658     -27.828876      -0.105841     -2.2122
    -8     -58.994499     -26.696535       0.611557      7.1514
    -8     -64.976433     -24.651291      -0.441437      6.5995
    -8     -62.801750     -25.341896      -1.229860      4.9871
    -8     -64.802994     -26.869602       3.387762      2.5163

$$$$
Untitled
  xed2sdf_05210316543D
 
 33 35  0  0  0  0  0  0  0  0999 V2000
  -63.2540  -25.2135    0.3286 O   0  0  0  0  0  0  0  0  0  0  0  0
  -64.8420  -24.6435    2.5926 O   0  0  0  0  0  0  0  0  0  0  0  0
  -67.1550  -24.3925   -2.3894 O   0  0  0  0  0  0  0  0  0  0  0  0
  -67.4140  -23.9965    2.2926 O   0  0  0  0  0  0  0  0  0  0  0  0
  -64.7860  -24.9975   -3.3974 O   0  0  0  0  0  0  0  0  0  0  0  0
  -65.1790  -24.7995   -1.0764 C   0  0  0  0  0  0  0  0  0  0  0  0
  -64.5680  -24.8785    0.1816 C   0  0  0  0  0  0  0  0  0  0  0  0
  -62.5020  -25.4815   -0.7874 C   0  0  0  0  0  0  0  0  0  0  0  0
  -65.3250  -24.6045    1.3256 C   0  0  0  0  0  0  0  0  0  0  0  0
  -64.3610  -25.0685   -2.2454 C   0  0  0  0  0  0  0  0  0  0  0  0
  -66.5350  -24.4615   -1.1824 C   0  0  0  0  0  0  0  0  0  0  0  0
  -63.0030  -25.4185   -2.0524 C   0  0  0  0  0  0  0  0  0  0  0  0
  -61.0810  -25.8485   -0.5524 C   0  0  0  0  0  0  0  0  0  0  0  0
  -66.6600  -24.2665    1.1916 C   0  0  0  0  0  0  0  0  0  0  0  0
  -67.2580  -24.1955   -0.0544 C   0  0  0  0  0  0  0  0  0  0  0  0
  -60.6380  -27.1635   -0.4944 C   0  0  0  0  0  0  0  0  0  0  0  0
  -60.1490  -24.8355   -0.3834 C   0  0  0  0  0  0  0  0  0  0  0  0
  -59.3120  -27.4505   -0.2754 C   0  0  0  0  0  0  0  0  0  0  0  0
  -58.8240  -25.1225   -0.1654 C   0  0  0  0  0  0  0  0  0  0  0  0
  -58.4020  -26.4315   -0.1104 C   0  0  0  0  0  0  0  0  0  0  0  0
  -64.8140  -25.8765    3.3366 C   0  0  0  0  0  0  0  0  0  0  0  0
  -66.9560  -23.5315   -2.8644 H   0  0  0  0  0  0  0  0  0  0  0  0
  -68.1060  -23.2905    2.1136 H   0  0  0  0  0  0  0  0  0  0  0  0
  -62.4180  -25.6185   -2.8384 H   0  0  0  0  0  0  0  0  0  0  0  0
  -68.2240  -23.9485   -0.1294 H   0  0  0  0  0  0  0  0  0  0  0  0
  -61.2920  -27.9115   -0.6134 H   0  0  0  0  0  0  0  0  0  0  0  0
  -60.4460  -23.8815   -0.4214 H   0  0  0  0  0  0  0  0  0  0  0  0
  -59.0080  -28.4025   -0.2354 H   0  0  0  0  0  0  0  0  0  0  0  0
  -58.1650  -24.3795   -0.0454 H   0  0  0  0  0  0  0  0  0  0  0  0
  -57.4370  -26.6415    0.0486 H   0  0  0  0  0  0  0  0  0  0  0  0
  -65.1900  -26.6085    2.7696 H   0  0  0  0  0  0  0  0  0  0  0  0
  -63.8720  -26.0965    3.5906 H   0  0  0  0  0  0  0  0  0  0  0  0
  -65.3610  -25.7795    4.1686 H   0  0  0  0  0  0  0  0  0  0  0  0
  1  7  1  0
  1  8  1  0
  2  9  1  0
  2 21  1  0
  3 11  1  0
  4 14  1  0
  5 10  2  0
  6  7  2  0
  6 10  1  0
  6 11  1  0
  7  9  1  0
  8 12  2  0
  8 13  1  0
  9 14  2  0
 10 12  1  0
 11 15  2  0
 13 16  2  0
 13 17  1  0
 14 15  1  0
 16 18  1  0
 17 19  2  0
 18 20  2  0
 19 20  1  0
  3 22  1  0
  4 23  1  0
 12 24  1  0
 15 25  1  0
 16 26  1  0
 17 27  1  0
 18 28  1  0
 19 29  1  0
 20 30  1  0
 21 31  1  0
 21 32  1  0
 21 33  1  0
M  END
>  <BioMolTech Lead Finder dG>
-6.617

>  <BioMolTech Lead Finder VSscore>
-7.635

>  <BioMolTech Lead Finder Rank score>
-10.424

>  <BioMolTech Lead Finder LE>
-0.315

>  <BioMolTech Lead Finder Structure Name>
/var/folders/xd/y7jw_xv579q2qqq7kks92xd80000gn/T/LeadFinder_44914_1/Ligand_1.sdf

>  <BioMolTech Lead Finder SDF id>
0

>  <BioMolTech Lead Finder Pose rank>
0

>  <BioMolTech Lead Finder version>
2001 1, 19 January 2019

>  <PUBCHEM_COMPOUND_CID>
5281703

>  <PUBCHEM_COMPOUND_CANONICALIZED>
1

>  <PUBCHEM_CACTVS_COMPLEXITY>
426

>  <PUBCHEM_CACTVS_HBOND_ACCEPTOR>
5

>  <PUBCHEM_CACTVS_HBOND_DONOR>
2

>  <PUBCHEM_CACTVS_ROTATABLE_BOND>
2

>  <PUBCHEM_CACTVS_SUBSKEYS>
AAADccB4OAAAAAAAAAAAAAAAAAAAAAAAAAAwYIAAAAAAAACBQAAAGgAACAAADASAmAIyBoAABgCIAqBSAAACCAAkIAAIiAEGiMgNJzaGNRqCeWOl4BULuQfK7LzOIQABCAAIQABCAAIQABCAAAAAAAAAAA==

>  <PUBCHEM_IUPAC_OPENEYE_NAME>
5,7-dihydroxy-8-methoxy-2-phenyl-chromen-4-one

>  <PUBCHEM_IUPAC_CAS_NAME>
5,7-dihydroxy-8-methoxy-2-phenyl-1-benzopyran-4-one

>  <PUBCHEM_IUPAC_NAME_MARKUP>
5,7-dihydroxy-8-methoxy-2-phenylchromen-4-one

>  <PUBCHEM_IUPAC_NAME>
5,7-dihydroxy-8-methoxy-2-phenylchromen-4-one

>  <PUBCHEM_IUPAC_SYSTEMATIC_NAME>
8-methoxy-5,7-bis(oxidanyl)-2-phenyl-chromen-4-one

>  <PUBCHEM_IUPAC_TRADITIONAL_NAME>
5,7-dihydroxy-8-methoxy-2-phenyl-chromone

>  <PUBCHEM_IUPAC_INCHI>
InChI=1S/C16H12O5/c1-20-15-12(19)7-10(17)14-11(18)8-13(21-16(14)15)9-5-3-2-4-6-9/h2-8,17,19H,1H3

>  <PUBCHEM_IUPAC_INCHIKEY>
XLTFNNCXVBYBSX-UHFFFAOYSA-N

>  <PUBCHEM_XLOGP3_AA>
3

>  <PUBCHEM_EXACT_MASS>
284.068473

>  <PUBCHEM_MOLECULAR_FORMULA>
C16H12O5

>  <PUBCHEM_MOLECULAR_WEIGHT>
284.26

>  <PUBCHEM_OPENEYE_CAN_SMILES>
COC1=C(C=C(C2=C1OC(=CC2=O)C3=CC=CC=C3)O)O

>  <PUBCHEM_OPENEYE_ISO_SMILES>
COC1=C(C=C(C2=C1OC(=CC2=O)C3=CC=CC=C3)O)O

>  <PUBCHEM_CACTVS_TPSA>
76

>  <PUBCHEM_MONOISOTOPIC_WEIGHT>
284.068473

>  <PUBCHEM_TOTAL_CHARGE>
0

>  <PUBCHEM_HEAVY_ATOM_COUNT>
21

>  <PUBCHEM_ATOM_DEF_STEREO_COUNT>
0

>  <PUBCHEM_ATOM_UDEF_STEREO_COUNT>
0

>  <PUBCHEM_BOND_DEF_STEREO_COUNT>
0

>  <PUBCHEM_BOND_UDEF_STEREO_COUNT>
0

>  <PUBCHEM_ISOTOPIC_ATOM_COUNT>
0

>  <PUBCHEM_COMPONENT_COUNT>
1

>  <PUBCHEM_CACTVS_TAUTO_COUNT>
-1

>  <PUBCHEM_COORDINATE_TYPE>
1
5
255

>  <PUBCHEM_BONDANNOTATIONS>
1  7  8
1  8  8
10  12  8
11  15  8
13  16  8
13  17  8
14  15  8
16  18  8
17  19  8
18  20  8
19  20  8
6  10  8
6  11  8
6  7  8
7  9  8
8  12  8
9  14  8

>  <LF dG>
-6.617

>  <LF VSscore>
-7.635

>  <LF Rank Score>
-10.424

>  <LF LE>
-0.315

>  <Preferred Pose_cresset>
true

>  <Favorite_cresset>
false

>  <Protein_cresset>
6M2N_Dimer_P

>  <MW_cresset>
284.3

>  <#Atoms_cresset>
21

>  <SlogP_cresset>
2.6

>  <TPSA_cresset>
76

>  <Flexibility_cresset>
1.7

>  <#RB_cresset>
4

>  <Rof5_cresset>
0

>  <Filename_cresset>
Wogonin.sdf

>  <Confs_cresset>
0

>  <Poses_cresset>
10

>  <_cresset_fieldpoints>
    -5     -62.274437     -24.392921       2.244779     -5.0856
    -5     -66.552696     -25.599106      -3.967467    -11.9022
    -5     -64.194809     -25.458481      -5.123489    -10.0746
    -5     -59.020260     -26.121231      -3.240558     -2.6460
    -5     -65.946136     -23.047928       3.899395     -5.3646
    -6     -58.671791     -22.050884      -0.230710      2.7345
    -6     -69.411209     -22.460880       1.274634      7.1916
    -6     -67.432785     -21.784443      -2.618391      3.9286
    -6     -60.518082     -30.281248      -0.444311      2.9701
    -6     -56.638847     -29.001472       0.148474      2.9824
    -6     -62.199951     -22.589584      -0.951300      2.4182
    -6     -55.732883     -24.900471       0.323958      2.9162
    -6     -63.534992     -28.126682      -0.078362      2.6597
    -7     -66.776070     -26.522556      -3.733803     -1.6618
    -7     -69.297310     -23.147316      -2.596233     -1.2667
    -7     -64.826187     -21.501041      -0.273039     -1.8631
    -7     -68.079239     -26.086988       3.474800     -1.6792
    -7     -66.316513     -27.734695       0.542037     -2.2149
    -7     -69.561172     -25.201012       2.432432     -1.2888
    -7     -64.959351     -22.344753      -3.370928     -1.7812
    -7     -59.856728     -25.948750      -3.635992     -2.0545
    -7     -62.591194     -22.500111      -1.074658     -2.6354
    -7     -66.530594     -23.196121       4.380443     -1.8119
    -7     -60.733639     -30.539104      -0.512173     -0.9883
    -7     -60.891617     -30.394314       0.413098     -0.9871
    -7     -59.006859     -21.750378       0.340770     -0.9934
    -7     -63.582195     -27.835960       0.916315     -2.9117
    -7     -61.972740     -24.546558       2.372516     -3.0015
    -7     -56.419441     -29.176359       0.179794     -0.9674
    -7     -55.488449     -24.753933       0.380762     -0.9671
    -8     -59.735085     -26.141277      -0.335135      7.1507
    -8     -65.925682     -24.538116       0.034399      6.5998
    -8     -63.963978     -25.125870      -1.247905      4.9853
    -8     -64.805542     -26.650578       3.758151      2.5156

$$$$
W_Wogonoside_D
  xed2sdf_05210316543D
 
 52 55  0  0  1  0  0  0  0  0999 V2000
  -61.1393  -23.6820    0.3488 O   0  0  0  0  0  0  0  0  0  0  0  0
  -61.9623  -23.3020   -1.8612 O   0  0  0  0  0  0  0  0  0  0  0  0
  -59.8113  -27.5210   -0.6952 O   0  0  0  0  0  0  0  0  0  0  0  0
  -61.5913  -26.0720   -2.4512 O   0  0  0  0  0  0  0  0  0  0  0  0
  -59.8363  -26.6960    2.0678 O   0  0  0  0  0  0  0  0  0  0  0  0
  -59.1063  -24.1550    2.8468 O   0  5  0  0  0  0  0  0  0  0  0  0
  -61.0823  -23.0800    3.2358 O   0  0  0  0  0  0  0  0  0  0  0  0
  -58.2243  -21.6140   -4.1592 O   0  0  0  0  0  0  0  0  0  0  0  0
  -60.1513  -23.4930   -3.8222 O   0  0  0  0  0  0  0  0  0  0  0  0
  -60.1263  -19.1320   -0.5112 O   0  0  0  0  0  0  0  0  0  0  0  0
  -58.0813  -18.3090   -1.8282 O   0  0  0  0  0  0  0  0  0  0  0  0
  -60.6673  -26.4700   -0.2242 C   0  0  0  0  0  0  0  0  0  0  0  0
  -60.9243  -25.4440   -1.3472 C   0  0  0  0  0  0  0  0  0  0  0  0
  -60.0303  -25.7690    0.9898 C   0  0  0  0  0  0  0  0  0  0  0  0
  -61.7733  -24.2740   -0.8072 C   0  0  0  0  0  0  0  0  0  0  0  0
  -60.9553  -24.6200    1.4278 C   0  0  0  0  0  0  0  0  0  0  0  0
  -60.3353  -23.8990    2.5958 C   0  0  0  0  0  0  0  0  0  0  0  0
  -61.0693  -22.3150   -2.0022 C   0  0  0  0  0  0  0  0  0  0  0  0
  -60.1293  -22.4130   -3.0142 C   0  0  0  0  0  0  0  0  0  0  0  0
  -61.0633  -21.2000   -1.1692 C   0  0  0  0  0  0  0  0  0  0  0  0
  -59.1543  -21.4370   -3.1782 C   0  0  0  0  0  0  0  0  0  0  0  0
  -59.1563  -20.3300   -2.3312 C   0  0  0  0  0  0  0  0  0  0  0  0
  -60.1253  -20.2150   -1.3302 C   0  0  0  0  0  0  0  0  0  0  0  0
  -58.1253  -19.3290   -2.5162 C   0  0  0  0  0  0  0  0  0  0  0  0
  -57.2153  -20.6900   -4.2772 C   0  0  0  0  0  0  0  0  0  0  0  0
  -57.1423  -19.5620   -3.5112 C   0  0  0  0  0  0  0  0  0  0  0  0
  -56.1793  -20.9820   -5.3022 C   0  0  0  0  0  0  0  0  0  0  0  0
  -61.0713  -23.4700   -4.9312 C   0  0  0  0  0  0  0  0  0  0  0  0
  -56.2673  -22.1700   -6.0132 C   0  0  0  0  0  0  0  0  0  0  0  0
  -55.1213  -20.1270   -5.5792 C   0  0  0  0  0  0  0  0  0  0  0  0
  -55.3333  -22.4950   -6.9662 C   0  0  0  0  0  0  0  0  0  0  0  0
  -54.1873  -20.4530   -6.5322 C   0  0  0  0  0  0  0  0  0  0  0  0
  -54.2903  -21.6360   -7.2272 C   0  0  0  0  0  0  0  0  0  0  0  0
  -61.5413  -26.8700    0.0518 H   0  0  0  0  0  0  0  0  0  0  0  0
  -60.0453  -25.0880   -1.6652 H   0  0  0  0  0  0  0  0  0  0  0  0
  -59.1333  -25.4080    0.7368 H   0  0  0  0  0  0  0  0  0  0  0  0
  -62.6693  -24.6120   -0.5172 H   0  0  0  0  0  0  0  0  0  0  0  0
  -61.8423  -25.0030    1.6858 H   0  0  0  0  0  0  0  0  0  0  0  0
  -60.0923  -28.4140   -0.3262 H   0  0  0  0  0  0  0  0  0  0  0  0
  -60.9323  -26.4530   -3.1082 H   0  0  0  0  0  0  0  0  0  0  0  0
  -60.0973  -27.6290    1.7998 H   0  0  0  0  0  0  0  0  0  0  0  0
  -60.6883  -18.3860   -0.8862 H   0  0  0  0  0  0  0  0  0  0  0  0
  -61.7503  -21.1160   -0.4482 H   0  0  0  0  0  0  0  0  0  0  0  0
  -56.4013  -18.9050   -3.6512 H   0  0  0  0  0  0  0  0  0  0  0  0
  -61.5743  -22.6050   -4.9202 H   0  0  0  0  0  0  0  0  0  0  0  0
  -60.5673  -23.5550   -5.7912 H   0  0  0  0  0  0  0  0  0  0  0  0
  -61.7123  -24.2340   -4.8532 H   0  0  0  0  0  0  0  0  0  0  0  0
  -57.0223  -22.7990   -5.8282 H   0  0  0  0  0  0  0  0  0  0  0  0
  -55.0383  -19.2650   -5.0802 H   0  0  0  0  0  0  0  0  0  0  0  0
  -55.4113  -23.3560   -7.4692 H   0  0  0  0  0  0  0  0  0  0  0  0
  -53.4293  -19.8280   -6.7222 H   0  0  0  0  0  0  0  0  0  0  0  0
  -53.6083  -21.8720   -7.9212 H   0  0  0  0  0  0  0  0  0  0  0  0
  1 15  1  0
  1 16  1  0
  2 18  1  0
  6 17  1  0
  7 17  2  0
  8 21  1  0
  8 25  1  0
  9 19  1  0
  9 28  1  0
 10 23  1  0
 11 24  2  0
 12  3  1  0
 12 13  1  0
 12 14  1  0
 13  4  1  0
 13 15  1  0
 14  5  1  0
 14 16  1  0
 15  2  1  0
 16 17  1  0
 18 19  2  0
 18 20  1  0
 19 21  1  0
 20 23  2  0
 21 22  2  0
 22 23  1  0
 22 24  1  0
 24 26  1  0
 25 26  2  0
 25 27  1  0
 27 29  2  0
 27 30  1  0
 29 31  1  0
 30 32  2  0
 31 33  2  0
 32 33  1  0
  3 39  1  0
  4 40  1  0
  5 41  1  0
 10 42  1  0
 12 34  1  0
 13 35  1  0
 14 36  1  0
 15 37  1  0
 16 38  1  0
 20 43  1  0
 26 44  1  0
 28 45  1  0
 28 46  1  0
 28 47  1  0
 29 48  1  0
 30 49  1  0
 31 50  1  0
 32 51  1  0
 33 52  1  0
M  CHG  1   6  -1
M  END
>  <BioMolTech Lead Finder dG>
-8.47

>  <BioMolTech Lead Finder VSscore>
-11.814

>  <BioMolTech Lead Finder Rank score>
-12.049

>  <BioMolTech Lead Finder LE>
-0.257

>  <BioMolTech Lead Finder Structure Name>
/var/folders/xd/y7jw_xv579q2qqq7kks92xd80000gn/T/LeadFinder_46855_1/Ligand_1.sdf

>  <BioMolTech Lead Finder SDF id>
0

>  <BioMolTech Lead Finder Pose rank>
0

>  <BioMolTech Lead Finder version>
2001 1, 19 January 2019

>  <PUBCHEM_COMPOUND_CID>
3084961

>  <PUBCHEM_COMPOUND_CANONICALIZED>
1

>  <PUBCHEM_CACTVS_COMPLEXITY>
763

>  <PUBCHEM_CACTVS_HBOND_ACCEPTOR>
11

>  <PUBCHEM_CACTVS_HBOND_DONOR>
5

>  <PUBCHEM_CACTVS_ROTATABLE_BOND>
5

>  <PUBCHEM_CACTVS_SUBSKEYS>
AAADceB4PAAAAAAAAAAAAAAAAAAAAAAAAAA0YIEAAAAAAACBQAAAGgAACAAADBSwmAMyDoAABgCIAqDSCAICCAAkIAAIiAFGiMgdNzaGNR6ieWKl4BUPuQfK7LzOIQABCAAIQABCAAIQABCAAAAAAAAAAA==

>  <PUBCHEM_IUPAC_OPENEYE_NAME>
(2S,3S,4S,5R,6S)-3,4,5-trihydroxy-6-(5-hydroxy-8-methoxy-4-oxo-2-phenyl-chromen-7-yl)oxy-tetrahydropyran-2-carboxylic acid

>  <PUBCHEM_IUPAC_CAS_NAME>
(2S,3S,4S,5R,6S)-3,4,5-trihydroxy-6-[(5-hydroxy-8-methoxy-4-oxo-2-phenyl-1-benzopyran-7-yl)oxy]-2-oxanecarboxylic acid

>  <PUBCHEM_IUPAC_NAME_MARKUP>
(2<I>S</I>,3<I>S</I>,4<I>S</I>,5<I>R</I>,6<I>S</I>)-3,4,5-trihydroxy-6-(5-hydroxy-8-methoxy-4-oxo-2-phenylchromen-7-yl)oxyoxane-2-carboxylic acid

>  <PUBCHEM_IUPAC_NAME>
(2S,3S,4S,5R,6S)-3,4,5-trihydroxy-6-(5-hydroxy-8-methoxy-4-oxo-2-phenylchromen-7-yl)oxyoxane-2-carboxylic acid

>  <PUBCHEM_IUPAC_SYSTEMATIC_NAME>
(2S,3S,4S,5R,6S)-6-(8-methoxy-5-oxidanyl-4-oxidanylidene-2-phenyl-chromen-7-yl)oxy-3,4,5-tris(oxidanyl)oxane-2-carboxylic acid

>  <PUBCHEM_IUPAC_TRADITIONAL_NAME>
(2S,3S,4S,5R,6S)-3,4,5-trihydroxy-6-(5-hydroxy-4-keto-8-methoxy-2-phenyl-chromen-7-yl)oxy-tetrahydropyran-2-carboxylic acid

>  <PUBCHEM_IUPAC_INCHI>
InChI=1S/C22H20O11/c1-30-18-13(32-22-17(27)15(25)16(26)20(33-22)21(28)29)8-11(24)14-10(23)7-12(31-19(14)18)9-5-3-2-4-6-9/h2-8,15-17,20,22,24-27H,1H3,(H,28,29)/t15-,16-,17+,20-,22+/m0/s1

>  <PUBCHEM_IUPAC_INCHIKEY>
LNOHXHDWGCMVCO-NTKSAMNMSA-N

>  <PUBCHEM_XLOGP3_AA>
1.4

>  <PUBCHEM_EXACT_MASS>
460.100561

>  <PUBCHEM_MOLECULAR_FORMULA>
C22H20O11

>  <PUBCHEM_MOLECULAR_WEIGHT>
460.4

>  <PUBCHEM_OPENEYE_CAN_SMILES>
COC1=C(C=C(C2=C1OC(=CC2=O)C3=CC=CC=C3)O)OC4C(C(C(C(O4)C(=O)O)O)O)O

>  <PUBCHEM_OPENEYE_ISO_SMILES>
COC1=C(C=C(C2=C1OC(=CC2=O)C3=CC=CC=C3)O)O[C@H]4[C@@H]([C@H]([C@@H]([C@H](O4)C(=O)O)O)O)O

>  <PUBCHEM_CACTVS_TPSA>
172

>  <PUBCHEM_MONOISOTOPIC_WEIGHT>
460.100561

>  <PUBCHEM_TOTAL_CHARGE>
0

>  <PUBCHEM_HEAVY_ATOM_COUNT>
33

>  <PUBCHEM_ATOM_DEF_STEREO_COUNT>
5

>  <PUBCHEM_ATOM_UDEF_STEREO_COUNT>
0

>  <PUBCHEM_BOND_DEF_STEREO_COUNT>
0

>  <PUBCHEM_BOND_UDEF_STEREO_COUNT>
0

>  <PUBCHEM_ISOTOPIC_ATOM_COUNT>
0

>  <PUBCHEM_COMPONENT_COUNT>
1

>  <PUBCHEM_CACTVS_TAUTO_COUNT>
-1

>  <PUBCHEM_COORDINATE_TYPE>
1
5
255

>  <PUBCHEM_BONDANNOTATIONS>
16  17  5
18  19  8
18  20  8
19  21  8
15  2  5
20  23  8
21  22  8
22  23  8
22  24  8
24  26  8
25  26  8
27  29  8
27  30  8
29  31  8
12  3  5
30  32  8
31  33  8
32  33  8
13  4  6
14  5  6
8  21  8
8  25  8

>  <LF dG>
-8.47

>  <LF VSscore>
-11.814

>  <LF Rank Score>
-12.049

>  <LF LE>
-0.257

>  <Preferred Pose_cresset>
true

>  <Favorite_cresset>
false

>  <Protein_cresset>
6M2N_Dimer_P

>  <MW_cresset>
459.4

>  <#Atoms_cresset>
33

>  <SlogP_cresset>
1.4

>  <TPSA_cresset>
175

>  <Flexibility_cresset>
7.6

>  <#RB_cresset>
9

>  <Rof5_cresset>
1

>  <Filename_cresset>
Wogonoside.sdf

>  <Confs_cresset>
0

>  <Poses_cresset>
10

>  <_cresset_fieldpoints>
    -5     -58.395256     -26.104033       3.197556    -11.9082
    -5     -63.169525     -25.361336      -3.145323     -8.4334
    -5     -58.430481     -18.213140       0.093594    -15.1229
    -5     -58.679817     -23.103352       4.265799    -12.9163
    -5     -59.916527     -22.387247       4.495812    -12.4800
    -5     -58.004166     -27.156523      -1.136466     -6.6581
    -5     -62.641884     -22.373898       2.378085     -7.9053
    -5     -56.886803     -19.964754      -8.315351     -3.6380
    -5     -53.849037     -22.690033      -3.972819     -4.6255
    -6     -60.971645     -29.012848       1.070398     11.9316
    -6     -53.786049     -23.942327      -9.279669      2.2877
    -6     -60.136467     -26.979679      -4.596514      3.6444
    -6     -57.378822     -24.807295      -7.422008      2.1625
    -6     -62.273582     -17.824453      -1.557251      1.8655
    -6     -53.297943     -17.659016      -5.614400      2.0611
    -6     -58.171478     -24.404449      -7.099288      2.1376
    -6     -51.759926     -20.398958      -8.538684      2.2212
    -7     -63.614643     -25.006605      -3.316540     -2.3439
    -7     -61.289268     -28.632780      -2.456591     -1.6374
    -7     -58.051796     -28.283239       0.871730     -1.6343
    -7     -61.677437     -29.155319       1.336571     -1.3136
    -7     -63.796242     -26.860912      -1.597386     -1.6934
    -7     -59.302277     -26.161880       4.288792     -1.5666
    -7     -63.914280     -26.382339       0.926304     -1.7839
    -7     -62.818756     -22.116882       1.532664     -2.4410
    -7     -60.540787     -21.028294       2.008442     -2.0330
    -7     -62.266884     -27.483982       2.633007     -1.7943
    -7     -61.950905     -18.856346       1.143557     -1.3031
    -7     -60.222149     -17.167574      -2.854727     -1.7768
    -7     -61.965523     -19.972706      -4.457106     -2.2743
    -7     -57.735695     -19.038887       0.592570     -1.6719
    -7     -57.443985     -24.210814      -3.682051     -2.7892
    -7     -53.628532     -22.721298      -3.817461     -1.7925
    -7     -58.448174     -23.082714      -0.078529     -3.7766
    -7     -53.629913     -24.194099      -9.365551     -0.9672
    -7     -59.436440     -21.011433      -6.375081     -2.9429
    -7     -51.471817     -20.288628      -8.565686     -0.9677
    -7     -57.197487     -19.777140      -8.352440     -1.7850
    -8     -60.111694     -21.289902      -2.159050      6.6080
    -8     -60.931633     -25.453468       0.043468      5.1481
    -8     -58.158569     -20.229198      -3.110060      5.0133
    -8     -55.231003     -21.306583      -6.267818      7.1502
    -8     -61.638893     -23.412102      -5.600374      2.5226
    -8     -56.214127     -20.094864      -4.656857      5.4309

$$$$
Untitled
  xed2sdf_05210316543D
 
 52 55  0  0  1  0  0  0  0  0999 V2000
  -61.1964  -23.6640    0.4190 O   0  0  0  0  0  0  0  0  0  0  0  0
  -62.0734  -23.3010   -1.7730 O   0  0  0  0  0  0  0  0  0  0  0  0
  -59.8834  -27.5070   -0.6310 O   0  0  0  0  0  0  0  0  0  0  0  0
  -61.7084  -26.0740   -2.3540 O   0  0  0  0  0  0  0  0  0  0  0  0
  -59.8444  -26.6630    2.1260 O   0  0  0  0  0  0  0  0  0  0  0  0
  -59.0904  -24.0790    2.8400 O   0  5  0  0  0  0  0  0  0  0  0  0
  -61.0854  -23.0810    3.3300 O   0  0  0  0  0  0  0  0  0  0  0  0
  -58.3394  -21.6120   -4.0790 O   0  0  0  0  0  0  0  0  0  0  0  0
  -60.2384  -23.5130   -3.7100 O   0  0  0  0  0  0  0  0  0  0  0  0
  -60.3194  -19.0670   -0.5170 O   0  0  0  0  0  0  0  0  0  0  0  0
  -58.2744  -18.2450   -1.8360 O   0  0  0  0  0  0  0  0  0  0  0  0
  -60.7304  -26.4540   -0.1470 C   0  0  0  0  0  0  0  0  0  0  0  0
  -61.0164  -25.4370   -1.2700 C   0  0  0  0  0  0  0  0  0  0  0  0
  -60.0664  -25.7440    1.0470 C   0  0  0  0  0  0  0  0  0  0  0  0
  -61.8564  -24.2660   -0.7180 C   0  0  0  0  0  0  0  0  0  0  0  0
  -60.9844  -24.5940    1.4990 C   0  0  0  0  0  0  0  0  0  0  0  0
  -60.3384  -23.8640    2.6470 C   0  0  0  0  0  0  0  0  0  0  0  0
  -61.1944  -22.3030   -1.9320 C   0  0  0  0  0  0  0  0  0  0  0  0
  -60.2424  -22.4130   -2.9310 C   0  0  0  0  0  0  0  0  0  0  0  0
  -61.2154  -21.1660   -1.1290 C   0  0  0  0  0  0  0  0  0  0  0  0
  -59.2814  -21.4250   -3.1120 C   0  0  0  0  0  0  0  0  0  0  0  0
  -59.3104  -20.2960   -2.2950 C   0  0  0  0  0  0  0  0  0  0  0  0
  -60.2924  -20.1710   -1.3070 C   0  0  0  0  0  0  0  0  0  0  0  0
  -58.2944  -19.2830   -2.4960 C   0  0  0  0  0  0  0  0  0  0  0  0
  -57.3444  -20.6750   -4.2120 C   0  0  0  0  0  0  0  0  0  0  0  0
  -57.2984  -19.5260   -3.4750 C   0  0  0  0  0  0  0  0  0  0  0  0
  -56.2934  -20.9770   -5.2180 C   0  0  0  0  0  0  0  0  0  0  0  0
  -61.0864  -23.5010   -4.8770 C   0  0  0  0  0  0  0  0  0  0  0  0
  -56.3524  -22.1850   -5.8960 C   0  0  0  0  0  0  0  0  0  0  0  0
  -55.2474  -20.1110   -5.5090 C   0  0  0  0  0  0  0  0  0  0  0  0
  -55.4044  -22.5200   -6.8300 C   0  0  0  0  0  0  0  0  0  0  0  0
  -54.2984  -20.4460   -6.4430 C   0  0  0  0  0  0  0  0  0  0  0  0
  -54.3734  -21.6510   -7.1060 C   0  0  0  0  0  0  0  0  0  0  0  0
  -61.5964  -26.8560    0.1530 H   0  0  0  0  0  0  0  0  0  0  0  0
  -60.1464  -25.0810   -1.6120 H   0  0  0  0  0  0  0  0  0  0  0  0
  -59.1764  -25.3820    0.7700 H   0  0  0  0  0  0  0  0  0  0  0  0
  -62.7434  -24.6040   -0.4040 H   0  0  0  0  0  0  0  0  0  0  0  0
  -61.8644  -24.9780    1.7800 H   0  0  0  0  0  0  0  0  0  0  0  0
  -60.1514  -28.3970   -0.2470 H   0  0  0  0  0  0  0  0  0  0  0  0
  -61.0644  -26.4500   -3.0290 H   0  0  0  0  0  0  0  0  0  0  0  0
  -60.1044  -27.6000    1.8680 H   0  0  0  0  0  0  0  0  0  0  0  0
  -60.8524  -18.3250   -0.9390 H   0  0  0  0  0  0  0  0  0  0  0  0
  -61.9114  -21.0760   -0.4170 H   0  0  0  0  0  0  0  0  0  0  0  0
  -56.5664  -18.8610   -3.6250 H   0  0  0  0  0  0  0  0  0  0  0  0
  -61.5674  -22.6260   -4.9200 H   0  0  0  0  0  0  0  0  0  0  0  0
  -60.5304  -23.6210   -5.7000 H   0  0  0  0  0  0  0  0  0  0  0  0
  -61.7484  -24.2480   -4.8200 H   0  0  0  0  0  0  0  0  0  0  0  0
  -57.0984  -22.8230   -5.7010 H   0  0  0  0  0  0  0  0  0  0  0  0
  -55.1844  -19.2340   -5.0320 H   0  0  0  0  0  0  0  0  0  0  0  0
  -55.4614  -23.3960   -7.3110 H   0  0  0  0  0  0  0  0  0  0  0  0
  -53.5494  -19.8140   -6.6430 H   0  0  0  0  0  0  0  0  0  0  0  0
  -53.6814  -21.8930   -7.7860 H   0  0  0  0  0  0  0  0  0  0  0  0
  1 15  1  0
  1 16  1  0
  2 18  1  0
  6 17  1  0
  7 17  2  0
  8 21  1  0
  8 25  1  0
  9 19  1  0
  9 28  1  0
 10 23  1  0
 11 24  2  0
 12  3  1  0
 12 13  1  0
 12 14  1  0
 13  4  1  0
 13 15  1  0
 14  5  1  0
 14 16  1  0
 15  2  1  0
 16 17  1  0
 18 19  2  0
 18 20  1  0
 19 21  1  0
 20 23  2  0
 21 22  2  0
 22 23  1  0
 22 24  1  0
 24 26  1  0
 25 26  2  0
 25 27  1  0
 27 29  2  0
 27 30  1  0
 29 31  1  0
 30 32  2  0
 31 33  2  0
 32 33  1  0
  3 39  1  0
  4 40  1  0
  5 41  1  0
 10 42  1  0
 12 34  1  0
 13 35  1  0
 14 36  1  0
 15 37  1  0
 16 38  1  0
 20 43  1  0
 26 44  1  0
 28 45  1  0
 28 46  1  0
 28 47  1  0
 29 48  1  0
 30 49  1  0
 31 50  1  0
 32 51  1  0
 33 52  1  0
M  CHG  1   6  -1
M  END
>  <BioMolTech Lead Finder dG>
-8.241

>  <BioMolTech Lead Finder VSscore>
-11.651

>  <BioMolTech Lead Finder Rank score>
-11.878

>  <BioMolTech Lead Finder LE>
-0.25

>  <BioMolTech Lead Finder Structure Name>
/var/folders/xd/y7jw_xv579q2qqq7kks92xd80000gn/T/LeadFinder_44914_1/Ligand_1.sdf

>  <BioMolTech Lead Finder SDF id>
0

>  <BioMolTech Lead Finder Pose rank>
0

>  <BioMolTech Lead Finder version>
2001 1, 19 January 2019

>  <PUBCHEM_COMPOUND_CID>
3084961

>  <PUBCHEM_COMPOUND_CANONICALIZED>
1

>  <PUBCHEM_CACTVS_COMPLEXITY>
763

>  <PUBCHEM_CACTVS_HBOND_ACCEPTOR>
11

>  <PUBCHEM_CACTVS_HBOND_DONOR>
5

>  <PUBCHEM_CACTVS_ROTATABLE_BOND>
5

>  <PUBCHEM_CACTVS_SUBSKEYS>
AAADceB4PAAAAAAAAAAAAAAAAAAAAAAAAAA0YIEAAAAAAACBQAAAGgAACAAADBSwmAMyDoAABgCIAqDSCAICCAAkIAAIiAFGiMgdNzaGNR6ieWKl4BUPuQfK7LzOIQABCAAIQABCAAIQABCAAAAAAAAAAA==

>  <PUBCHEM_IUPAC_OPENEYE_NAME>
(2S,3S,4S,5R,6S)-3,4,5-trihydroxy-6-(5-hydroxy-8-methoxy-4-oxo-2-phenyl-chromen-7-yl)oxy-tetrahydropyran-2-carboxylic acid

>  <PUBCHEM_IUPAC_CAS_NAME>
(2S,3S,4S,5R,6S)-3,4,5-trihydroxy-6-[(5-hydroxy-8-methoxy-4-oxo-2-phenyl-1-benzopyran-7-yl)oxy]-2-oxanecarboxylic acid

>  <PUBCHEM_IUPAC_NAME_MARKUP>
(2<I>S</I>,3<I>S</I>,4<I>S</I>,5<I>R</I>,6<I>S</I>)-3,4,5-trihydroxy-6-(5-hydroxy-8-methoxy-4-oxo-2-phenylchromen-7-yl)oxyoxane-2-carboxylic acid

>  <PUBCHEM_IUPAC_NAME>
(2S,3S,4S,5R,6S)-3,4,5-trihydroxy-6-(5-hydroxy-8-methoxy-4-oxo-2-phenylchromen-7-yl)oxyoxane-2-carboxylic acid

>  <PUBCHEM_IUPAC_SYSTEMATIC_NAME>
(2S,3S,4S,5R,6S)-6-(8-methoxy-5-oxidanyl-4-oxidanylidene-2-phenyl-chromen-7-yl)oxy-3,4,5-tris(oxidanyl)oxane-2-carboxylic acid

>  <PUBCHEM_IUPAC_TRADITIONAL_NAME>
(2S,3S,4S,5R,6S)-3,4,5-trihydroxy-6-(5-hydroxy-4-keto-8-methoxy-2-phenyl-chromen-7-yl)oxy-tetrahydropyran-2-carboxylic acid

>  <PUBCHEM_IUPAC_INCHI>
InChI=1S/C22H20O11/c1-30-18-13(32-22-17(27)15(25)16(26)20(33-22)21(28)29)8-11(24)14-10(23)7-12(31-19(14)18)9-5-3-2-4-6-9/h2-8,15-17,20,22,24-27H,1H3,(H,28,29)/t15-,16-,17+,20-,22+/m0/s1

>  <PUBCHEM_IUPAC_INCHIKEY>
LNOHXHDWGCMVCO-NTKSAMNMSA-N

>  <PUBCHEM_XLOGP3_AA>
1.4

>  <PUBCHEM_EXACT_MASS>
460.100561

>  <PUBCHEM_MOLECULAR_FORMULA>
C22H20O11

>  <PUBCHEM_MOLECULAR_WEIGHT>
460.4

>  <PUBCHEM_OPENEYE_CAN_SMILES>
COC1=C(C=C(C2=C1OC(=CC2=O)C3=CC=CC=C3)O)OC4C(C(C(C(O4)C(=O)O)O)O)O

>  <PUBCHEM_OPENEYE_ISO_SMILES>
COC1=C(C=C(C2=C1OC(=CC2=O)C3=CC=CC=C3)O)O[C@H]4[C@@H]([C@H]([C@@H]([C@H](O4)C(=O)O)O)O)O

>  <PUBCHEM_CACTVS_TPSA>
172

>  <PUBCHEM_MONOISOTOPIC_WEIGHT>
460.100561

>  <PUBCHEM_TOTAL_CHARGE>
0

>  <PUBCHEM_HEAVY_ATOM_COUNT>
33

>  <PUBCHEM_ATOM_DEF_STEREO_COUNT>
5

>  <PUBCHEM_ATOM_UDEF_STEREO_COUNT>
0

>  <PUBCHEM_BOND_DEF_STEREO_COUNT>
0

>  <PUBCHEM_BOND_UDEF_STEREO_COUNT>
0

>  <PUBCHEM_ISOTOPIC_ATOM_COUNT>
0

>  <PUBCHEM_COMPONENT_COUNT>
1

>  <PUBCHEM_CACTVS_TAUTO_COUNT>
-1

>  <PUBCHEM_COORDINATE_TYPE>
1
5
255

>  <PUBCHEM_BONDANNOTATIONS>
16  17  5
18  19  8
18  20  8
19  21  8
15  2  5
20  23  8
21  22  8
22  23  8
22  24  8
24  26  8
25  26  8
27  29  8
27  30  8
29  31  8
12  3  5
30  32  8
31  33  8
32  33  8
13  4  6
14  5  6
8  21  8
8  25  8

>  <LF dG>
-8.241

>  <LF VSscore>
-11.651

>  <LF Rank Score>
-11.878

>  <LF LE>
-0.25

>  <Preferred Pose_cresset>
true

>  <Favorite_cresset>
false

>  <Protein_cresset>
6M2N_Dimer_P

>  <MW_cresset>
459.4

>  <#Atoms_cresset>
33

>  <SlogP_cresset>
1.4

>  <TPSA_cresset>
175

>  <Flexibility_cresset>
7.6

>  <#RB_cresset>
9

>  <Rof5_cresset>
1

>  <Filename_cresset>
Wogonoside.sdf

>  <Confs_cresset>
0

>  <Poses_cresset>
10

>  <_cresset_fieldpoints>
    -5     -58.632534     -18.130690       0.089544    -15.0027
    -5     -63.258804     -25.298979      -3.057715     -8.6134
    -5     -62.716755     -22.408943       2.593029     -7.8590
    -5     -59.887352     -22.361546       4.546654    -12.5192
    -5     -58.396057     -26.057686       3.237591    -11.7397
    -5     -58.639824     -23.025026       4.249324    -12.9496
    -5     -58.088448     -27.134991      -1.123691     -6.6647
    -5     -56.978874     -20.048714      -8.269558     -3.5694
    -5     -53.947876     -22.615105      -3.820822     -4.6276
    -6     -60.990257     -28.994751       1.172436     11.9059
    -6     -60.290726     -26.902588      -4.556879      3.7500
    -6     -62.401989     -17.769522      -1.692388      1.7952
    -6     -53.496040     -17.599943      -5.590168      2.0909
    -6     -58.299339     -24.423120      -6.919653      2.3038
    -6     -57.251549     -24.976656      -7.310658      2.2411
    -6     -51.855133     -20.393784      -8.429712      2.2400
    -6     -53.829941     -24.008583      -9.093863      2.3118
    -7     -63.671474     -24.970005      -3.280349     -2.3779
    -7     -62.834671     -22.086060       1.642760     -2.4399
    -7     -58.078369     -28.248291       0.888872     -1.6339
    -7     -61.373749     -28.631641      -2.359885     -1.6381
    -7     -61.695450     -29.125427       1.460503     -1.3144
    -7     -62.254784     -27.449345       2.760024     -1.7948
    -7     -63.891830     -26.869932      -1.430813     -1.6892
    -7     -59.080742     -26.083000       4.268697     -1.5635
    -7     -58.551601     -23.002415      -0.002735     -3.8037
    -7     -59.526039     -21.001822      -6.320115     -2.9471
    -7     -62.230328     -18.719116       1.020216     -1.2948
    -7     -60.415810     -17.179268      -2.963516     -1.7764
    -7     -57.949974     -18.892735       0.608539     -1.6728
    -7     -57.535255     -24.194502      -3.536366     -2.8198
    -7     -63.950123     -26.369766       1.075943     -1.7838
    -7     -57.296997     -19.879272      -8.314821     -1.7859
    -7     -62.103271     -20.030109      -4.449604     -2.2756
    -7     -51.565498     -20.298542      -8.459517     -0.9677
    -7     -53.732731     -22.632290      -3.658350     -1.7927
    -7     -53.656311     -24.245701      -9.178152     -0.9672
    -8     -60.253059     -21.269928      -2.110437      6.6077
    -8     -60.991478     -25.437347       0.122846      5.1471
    -8     -61.614262     -23.453335      -5.574264      2.5241
    -8     -55.329662     -21.311192      -6.165138      7.1504
    -8     -58.310143     -20.201984      -3.065219      5.0138
    -8     -56.343803     -20.075333      -4.596587      5.4310

$$$$
W_VTRRT_D
  xed2sdf_05210316543D
 
 92 97  0  0  1  0  0  0  0  0999 V2000
  -53.1408  -23.8217  -12.0366 C   0  0  0  0  0  0  0  0  0  0  0  0
  -54.1048  -24.1377  -11.1066 C   0  0  0  0  0  0  0  0  0  0  0  0
  -54.4498  -23.2317  -10.1276 C   0  0  0  0  0  0  0  0  0  0  0  0
  -53.8218  -22.0047  -10.0866 C   0  0  0  0  0  0  0  0  0  0  0  0
  -52.8578  -21.6877  -11.0166 C   0  0  0  0  0  0  0  0  0  0  0  0
  -52.5178  -22.5957  -11.9916 C   0  0  0  0  0  0  0  0  0  0  0  0
  -55.5168  -23.5827   -9.1016 C   0  0  0  0  0  0  0  0  0  0  0  0
  -55.0098  -24.3867   -7.8796 C   0  0  0  0  0  0  0  0  0  0  0  0
  -55.7428  -25.6997   -7.8136 N   0  3  0  0  0  0  0  0  0  0  0  0
  -55.2258  -23.6307   -6.5476 C   0  0  0  0  0  0  0  0  0  0  0  0
  -54.5398  -24.2927   -5.4736 O   0  0  0  0  0  0  0  0  0  0  0  0
  -56.7288  -23.4337   -6.2346 C   0  0  0  0  0  0  0  0  0  0  0  0
  -57.0098  -22.2357   -5.2976 C   0  0  0  0  0  0  0  0  0  0  0  0
  -56.1018  -21.0447   -5.6756 C   0  0  0  0  0  0  0  0  0  0  0  0
  -56.6528  -20.0717   -6.7066 C   0  0  0  0  0  0  0  0  0  0  0  0
  -57.5788  -19.1247   -6.3256 C   0  0  0  0  0  0  0  0  0  0  0  0
  -58.0878  -18.2397   -7.2486 C   0  0  0  0  0  0  0  0  0  0  0  0
  -57.6728  -18.2997   -8.5596 C   0  0  0  0  0  0  0  0  0  0  0  0
  -56.7478  -19.2427   -8.9446 C   0  0  0  0  0  0  0  0  0  0  0  0
  -56.2398  -20.1277   -8.0196 C   0  0  0  0  0  0  0  0  0  0  0  0
  -56.7368  -22.6417   -3.9096 N   0  0  0  0  0  0  0  0  0  0  0  0
  -57.5498  -21.9047   -2.8756 P   0  0  0  0  0  0  0  0  0  0  0  0
  -57.7248  -22.7507   -1.5186 O   0  0  0  0  0  0  0  0  0  0  0  0
  -59.0718  -21.7527   -3.3896 O   0  0  0  0  0  0  0  0  0  0  0  0
  -56.9628  -20.5487   -2.5766 O   0  0  0  0  0  0  0  0  0  0  0  0
  -58.8218  -23.6727   -1.4266 C   0  0  0  0  0  0  0  0  0  0  0  0
  -59.8368  -20.6577   -3.0956 C   0  0  0  0  0  0  0  0  0  0  0  0
  -60.2868  -19.8567   -4.1266 C   0  0  0  0  0  0  0  0  0  0  0  0
  -61.0518  -18.7457   -3.8626 C   0  0  0  0  0  0  0  0  0  0  0  0
  -61.3768  -18.4257   -2.5646 C   0  0  0  0  0  0  0  0  0  0  0  0
  -60.9358  -19.2197   -1.5296 C   0  0  0  0  0  0  0  0  0  0  0  0
  -60.1698  -20.3307   -1.7926 C   0  0  0  0  0  0  0  0  0  0  0  0
  -58.4568  -24.8617   -0.5236 C   0  0  0  0  0  0  0  0  0  0  0  0
  -59.5478  -25.7767   -0.3526 O   0  0  0  0  0  0  0  0  0  0  0  0
  -59.3398  -26.5487    0.8464 C   0  0  0  0  0  0  0  0  0  0  0  0
  -58.3928  -25.6987    1.7304 C   0  0  0  0  0  0  0  0  0  0  0  0
  -58.0868  -24.4377    0.9054 C   0  0  0  0  0  0  0  0  0  0  0  0
  -58.9118  -23.3577    1.3694 O   0  0  0  0  0  0  0  0  0  0  0  0
  -58.9788  -25.3277    2.9884 O   0  0  0  0  0  0  0  0  0  0  0  0
  -60.6808  -26.9237    1.4704 C   0  0  0  0  0  0  0  0  0  0  0  0
  -58.6488  -27.7887    0.4614 C   0  0  0  0  0  0  0  0  0  0  0  0
  -58.1118  -28.7457    0.1654 N   0  0  0  0  0  0  0  0  0  0  0  0
  -61.8468  -26.3247    1.1194 N   0  0  0  0  0  0  0  0  0  0  0  0
  -62.7968  -26.9157    1.8904 C   0  0  0  0  0  0  0  0  0  0  0  0
  -62.2558  -27.8617    2.7004 C   0  0  0  0  0  0  0  0  0  0  0  0
  -60.8868  -27.8587    2.4214 C   0  0  0  0  0  0  0  0  0  0  0  0
  -62.1748  -25.3417    0.2274 N   0  0  0  0  0  0  0  0  0  0  0  0
  -63.4368  -24.9897    0.1434 C   0  0  0  0  0  0  0  0  0  0  0  0
  -64.4758  -25.5137    0.8694 N   0  0  0  0  0  0  0  0  0  0  0  0
  -64.1388  -26.4757    1.7394 C   0  0  0  0  0  0  0  0  0  0  0  0
  -65.1508  -27.0237    2.4894 N   0  0  0  0  0  0  0  0  0  0  0  0
  -54.0268  -24.5267   -7.9996 H   0  0  0  0  0  0  0  0  0  0  0  0
  -54.8338  -22.7157   -6.6466 H   0  0  0  0  0  0  0  0  0  0  0  0
  -57.9658  -21.9567   -5.3896 H   0  0  0  0  0  0  0  0  0  0  0  0
  -57.6818  -25.2837   -0.9956 H   0  0  0  0  0  0  0  0  0  0  0  0
  -57.5748  -26.2247    1.9624 H   0  0  0  0  0  0  0  0  0  0  0  0
  -57.1418  -24.1167    0.9704 H   0  0  0  0  0  0  0  0  0  0  0  0
  -52.8938  -24.4837  -12.7446 H   0  0  0  0  0  0  0  0  0  0  0  0
  -54.5568  -25.0287  -11.1406 H   0  0  0  0  0  0  0  0  0  0  0  0
  -54.0678  -21.3427   -9.3786 H   0  0  0  0  0  0  0  0  0  0  0  0
  -52.4048  -20.7967  -10.9826 H   0  0  0  0  0  0  0  0  0  0  0  0
  -51.8178  -22.3657  -12.6676 H   0  0  0  0  0  0  0  0  0  0  0  0
  -56.2238  -24.1217   -9.5596 H   0  0  0  0  0  0  0  0  0  0  0  0
  -55.8548  -22.7137   -8.7406 H   0  0  0  0  0  0  0  0  0  0  0  0
  -56.4408  -25.7247   -8.3966 H   0  0  0  0  0  0  0  0  0  0  0  0
  -55.2088  -26.4067   -8.0196 H   0  0  0  0  0  0  0  0  0  0  0  0
  -56.0858  -25.8537   -6.9846 H   0  0  0  0  0  0  0  0  0  0  0  0
  -55.1478  -24.4557   -4.6896 H   0  0  0  0  0  0  0  0  0  0  0  0
  -57.0748  -24.2667   -5.8016 H   0  0  0  0  0  0  0  0  0  0  0  0
  -57.1888  -23.2427   -7.1026 H   0  0  0  0  0  0  0  0  0  0  0  0
  -55.2438  -21.4157   -6.0326 H   0  0  0  0  0  0  0  0  0  0  0  0
  -56.0028  -20.5107   -4.8356 H   0  0  0  0  0  0  0  0  0  0  0  0
  -57.8818  -19.0797   -5.3736 H   0  0  0  0  0  0  0  0  0  0  0  0
  -58.7588  -17.5547   -6.9676 H   0  0  0  0  0  0  0  0  0  0  0  0
  -58.0428  -17.6577   -9.2316 H   0  0  0  0  0  0  0  0  0  0  0  0
  -56.4448  -19.2867   -9.8966 H   0  0  0  0  0  0  0  0  0  0  0  0
  -55.5688  -20.8127   -8.3026 H   0  0  0  0  0  0  0  0  0  0  0  0
  -56.9598  -23.6367   -3.8096 H   0  0  0  0  0  0  0  0  0  0  0  0
  -59.0478  -24.0087   -2.3416 H   0  0  0  0  0  0  0  0  0  0  0  0
  -59.6078  -23.1987   -1.0306 H   0  0  0  0  0  0  0  0  0  0  0  0
  -60.0538  -20.0867   -5.0716 H   0  0  0  0  0  0  0  0  0  0  0  0
  -61.3728  -18.1697   -4.6146 H   0  0  0  0  0  0  0  0  0  0  0  0
  -61.9328  -17.6177   -2.3726 H   0  0  0  0  0  0  0  0  0  0  0  0
  -61.1728  -18.9877   -0.5856 H   0  0  0  0  0  0  0  0  0  0  0  0
  -59.8498  -20.9047   -1.0386 H   0  0  0  0  0  0  0  0  0  0  0  0
  -59.8888  -23.5627    1.2414 H   0  0  0  0  0  0  0  0  0  0  0  0
  -59.2078  -26.1377    3.5394 H   0  0  0  0  0  0  0  0  0  0  0  0
  -62.7368  -28.4397    3.3594 H   0  0  0  0  0  0  0  0  0  0  0  0
  -60.1918  -28.4397    2.8454 H   0  0  0  0  0  0  0  0  0  0  0  0
  -63.6618  -24.2707   -0.5146 H   0  0  0  0  0  0  0  0  0  0  0  0
  -65.9758  -26.7367    2.3854 H   0  0  0  0  0  0  0  0  0  0  0  0
  -64.9798  -27.6607    3.0734 H   0  0  0  0  0  0  0  0  0  0  0  0
  1  2  2  0
  2  3  1  0
  3  4  2  0
  3  7  1  0
  4  5  1  0
  5  6  2  0
  6  1  1  0
  7  8  1  0
  8  9  1  0
  8 10  1  0
 10 11  1  0
 10 12  1  0
 12 13  1  0
 13 14  1  0
 13 21  1  0
 14 15  1  0
 15 16  2  0
 16 17  1  0
 17 18  2  0
 18 19  1  0
 19 20  2  0
 20 15  1  0
 21 22  1  0
 22 23  1  0
 22 24  1  0
 22 25  2  0
 23 26  1  0
 24 27  1  0
 27 28  2  0
 28 29  1  0
 29 30  2  0
 30 31  1  0
 31 32  2  0
 32 27  1  0
 33 26  1  0
 33 34  1  0
 34 35  1  0
 35 36  1  0
 35 40  1  0
 35 41  1  0
 36 37  1  0
 36 39  1  0
 37 33  1  0
 37 38  1  0
 40 43  1  0
 41 42  3  0
 43 44  1  0
 43 47  1  0
 44 45  2  0
 45 46  1  0
 46 40  2  0
 47 48  2  0
 48 49  1  0
 49 50  2  0
 50 44  1  0
 50 51  1  0
  1 58  1  0
  2 59  1  0
  4 60  1  0
  5 61  1  0
  6 62  1  0
  7 63  1  0
  7 64  1  0
  8 52  1  0
  9 65  1  0
  9 66  1  0
  9 67  1  0
 10 53  1  0
 11 68  1  0
 12 69  1  0
 12 70  1  0
 13 54  1  0
 14 71  1  0
 14 72  1  0
 16 73  1  0
 17 74  1  0
 18 75  1  0
 19 76  1  0
 20 77  1  0
 21 78  1  0
 26 79  1  0
 26 80  1  0
 28 81  1  0
 29 82  1  0
 30 83  1  0
 31 84  1  0
 32 85  1  0
 33 55  1  0
 36 56  1  0
 37 57  1  0
 38 86  1  0
 39 87  1  0
 45 88  1  0
 46 89  1  0
 48 90  1  0
 51 91  1  0
 51 92  1  0
M  CHG  1   9   1
M  END
>  <BioMolTech Lead Finder dG>
-10.067

>  <BioMolTech Lead Finder VSscore>
-16.278

>  <BioMolTech Lead Finder Rank score>
-16.076

>  <BioMolTech Lead Finder LE>
-0.197

>  <BioMolTech Lead Finder Structure Name>
/var/folders/xd/y7jw_xv579q2qqq7kks92xd80000gn/T/LeadFinder_46855_1/Ligand_1.sdf

>  <BioMolTech Lead Finder SDF id>
0

>  <BioMolTech Lead Finder Pose rank>
0

>  <BioMolTech Lead Finder version>
2001 1, 19 January 2019

>  <LF dG>
-10.067

>  <LF VSscore>
-16.278

>  <LF Rank Score>
-16.076

>  <LF LE>
-0.197

>  <Preferred Pose_cresset>
true

>  <Favorite_cresset>
false

>  <Protein_cresset>
6M2N_Dimer_P

>  <MW_cresset>
714.7

>  <#Atoms_cresset>
51

>  <SlogP_cresset>
4

>  <TPSA_cresset>
225.1

>  <Flexibility_cresset>
17.1

>  <#RB_cresset>
18

>  <Rof5_cresset>
3

>  <Filename_cresset>
VTRRT-13V2.1.sdf

>  <Confs_cresset>
0

>  <Poses_cresset>
10

>  <_cresset_fieldpoints>
    -5     -51.527122     -23.908558      -9.117607     -4.0783
    -5     -55.445423     -21.841370     -12.894499     -2.8608
    -5     -52.715889     -24.408997      -5.443304     -7.4771
    -5     -57.509750     -18.548256      -2.255343     -5.2817
    -5     -58.870056     -23.344475       3.305572    -11.5502
    -5     -59.431221     -20.840015      -8.355732     -1.8227
    -5     -55.074326     -17.333380      -6.781503     -4.0272
    -5     -61.261307     -25.944689      -1.487753     -5.4022
    -5     -62.999912     -21.176479      -3.057929     -3.6319
    -5     -66.228012     -24.765425       0.336481     -3.2922
    -5     -57.966629     -30.556950      -0.813718     -5.3737
    -6     -51.309570     -24.178894     -14.529261      2.9299
    -6     -58.399277     -24.791725      -8.500679      6.7948
    -6     -56.523720     -26.245522     -10.565411      6.0325
    -6     -53.354885     -20.889776      -7.357552      3.5264
    -6     -60.921005     -17.040833      -6.508379      4.1447
    -6     -53.518383     -18.952196      -9.835804      3.0307
    -6     -50.731060     -20.127777     -12.755383      2.7675
    -6     -56.730392     -25.218256      -3.739548     14.4555
    -6     -57.518791     -17.640766     -11.594960      2.9190
    -6     -58.317848     -27.711985       3.739044     11.2885
    -6     -62.831413     -16.688049      -0.442452      2.2742
    -6     -61.201927     -22.514099       0.456999      3.2921
    -6     -55.919739     -26.357586       0.202732      6.0435
    -6     -64.602539     -29.040581       4.400826     10.6976
    -7     -55.276169     -26.074837     -13.540930     -1.0053
    -7     -57.117928     -21.624081     -11.182573     -2.5923
    -7     -51.554245     -24.134682      -8.688477     -2.3664
    -7     -51.008625     -24.036770     -14.672791     -0.9686
    -7     -52.877815     -26.501675      -9.258154     -2.0089
    -7     -53.032188     -20.975943      -7.143944     -3.0928
    -7     -50.602600     -19.915672     -12.830808     -0.9714
    -7     -56.878990     -25.601444      -3.526387     -3.0345
    -7     -58.674866     -24.463852      -8.700026     -2.1316
    -7     -59.885796     -23.603146      -4.765978     -3.2179
    -7     -55.606937     -26.565865       0.064502     -2.0104
    -7     -57.563602     -27.854294      -7.490278     -1.0193
    -7     -54.131844     -26.612785      -5.539968     -1.9314
    -7     -55.679512     -24.676846      -2.519413     -2.9196
    -7     -54.149094     -22.639790      -3.630256     -2.8963
    -7     -57.438007     -18.316570      -3.104190     -3.4135
    -7     -55.944107     -26.867443     -10.524973     -1.9836
    -7     -54.615013     -17.361458      -6.769097     -1.8793
    -7     -59.602486     -21.556446      -7.289644     -3.3835
    -7     -57.900223     -21.238682       0.484438     -3.0197
    -7     -61.900520     -23.206944      -2.339485     -2.5288
    -7     -61.484528     -22.348473       0.442091     -2.7223
    -7     -62.666443     -16.820068       0.140843     -0.9690
    -7     -57.878082     -28.123165       3.812533     -2.0692
    -7     -61.152748     -24.127762       2.936178     -3.2510
    -7     -60.095238     -21.359299       1.311975     -2.2811
    -7     -64.066475     -26.284500       5.122408     -1.5200
    -7     -61.193295     -26.315434      -1.872115     -2.9922
    -7     -64.816696     -29.790239       1.542578     -1.5157
    -7     -60.880634     -29.801327       5.161770     -0.9529
    -7     -66.861237     -24.817087       0.730187     -1.1839
    -8     -55.751045     -23.427532      -7.589145      5.6119
    -8     -57.162514     -19.193720      -7.630459      7.2221
    -8     -56.196754     -22.370474      -6.235253      5.9484
    -8     -56.626568     -21.292620      -6.204733      5.6654
    -8     -53.486744     -22.912779     -11.053789      7.2045
    -8     -54.463669     -23.239264     -10.059650      5.7729
    -8     -58.111900     -25.588058       0.688732      4.6950
    -8     -60.628452     -19.511715      -2.824675      7.0381
    -8     -61.598572     -27.633080       2.349786      4.9290
    -8     -59.722687     -27.394382       1.617720      4.7580
    -8     -56.665199     -20.136230      -6.680091      5.7976
    -8     -63.759117     -24.064011      -0.672645      1.2463

$$$$
VTRRT_D
  xed2sdf_05210316543D
 
 92 97  0  0  1  0  0  0  0  0999 V2000
  -63.6362  -25.0774   -3.2700 C   0  0  0  0  0  0  0  0  0  0  0  0
  -62.4582  -24.4504   -2.9350 C   0  0  0  0  0  0  0  0  0  0  0  0
  -61.3982  -24.4464   -3.8150 C   0  0  0  0  0  0  0  0  0  0  0  0
  -61.5262  -25.0764   -5.0340 C   0  0  0  0  0  0  0  0  0  0  0  0
  -62.7032  -25.7044   -5.3710 C   0  0  0  0  0  0  0  0  0  0  0  0
  -63.7602  -25.7034   -4.4890 C   0  0  0  0  0  0  0  0  0  0  0  0
  -60.0972  -23.7514   -3.4420 C   0  0  0  0  0  0  0  0  0  0  0  0
  -60.2372  -22.2544   -3.0760 C   0  0  0  0  0  0  0  0  0  0  0  0
  -60.7902  -21.5064   -4.2590 N   0  3  0  0  0  0  0  0  0  0  0  0
  -58.8842  -21.6184   -2.6750 C   0  0  0  0  0  0  0  0  0  0  0  0
  -57.8642  -22.6254   -2.5710 O   0  0  0  0  0  0  0  0  0  0  0  0
  -59.0032  -20.7844   -1.3770 C   0  0  0  0  0  0  0  0  0  0  0  0
  -60.2442  -21.1444   -0.5260 C   0  0  0  0  0  0  0  0  0  0  0  0
  -61.0862  -19.8774   -0.2560 C   0  0  0  0  0  0  0  0  0  0  0  0
  -61.6222  -19.1474   -1.4780 C   0  0  0  0  0  0  0  0  0  0  0  0
  -61.0552  -17.9524   -1.8630 C   0  0  0  0  0  0  0  0  0  0  0  0
  -61.5332  -17.2794   -2.9650 C   0  0  0  0  0  0  0  0  0  0  0  0
  -62.5822  -17.8004   -3.6870 C   0  0  0  0  0  0  0  0  0  0  0  0
  -63.1512  -18.9944   -3.3070 C   0  0  0  0  0  0  0  0  0  0  0  0
  -62.6732  -19.6654   -2.2040 C   0  0  0  0  0  0  0  0  0  0  0  0
  -59.7952  -21.7194    0.7520 N   0  0  0  0  0  0  0  0  0  0  0  0
  -60.1092  -23.1844    0.9190 P   0  0  0  0  0  0  0  0  0  0  0  0
  -60.8662  -23.4934    2.3050 O   0  0  0  0  0  0  0  0  0  0  0  0
  -58.7372  -24.0174    1.0790 O   0  0  0  0  0  0  0  0  0  0  0  0
  -60.9072  -23.7124   -0.2450 O   0  0  0  0  0  0  0  0  0  0  0  0
  -60.6902  -24.7864    2.9040 C   0  0  0  0  0  0  0  0  0  0  0  0
  -58.6042  -25.3014    0.6250 C   0  0  0  0  0  0  0  0  0  0  0  0
  -58.9992  -25.6004   -0.6650 C   0  0  0  0  0  0  0  0  0  0  0  0
  -58.8852  -26.8824   -1.1480 C   0  0  0  0  0  0  0  0  0  0  0  0
  -58.3732  -27.8774   -0.3480 C   0  0  0  0  0  0  0  0  0  0  0  0
  -57.9742  -27.5884    0.9380 C   0  0  0  0  0  0  0  0  0  0  0  0
  -58.0892  -26.3074    1.4230 C   0  0  0  0  0  0  0  0  0  0  0  0
  -62.0192  -25.5584    2.9290 C   0  0  0  0  0  0  0  0  0  0  0  0
  -62.3212  -26.0894    4.2270 O   0  0  0  0  0  0  0  0  0  0  0  0
  -63.2522  -27.1804    4.0920 C   0  0  0  0  0  0  0  0  0  0  0  0
  -63.0802  -27.6984    2.6410 C   0  0  0  0  0  0  0  0  0  0  0  0
  -62.0172  -26.7854    2.0060 C   0  0  0  0  0  0  0  0  0  0  0  0
  -60.7482  -27.4594    2.0200 O   0  0  0  0  0  0  0  0  0  0  0  0
  -62.6482  -29.0664    2.5790 O   0  0  0  0  0  0  0  0  0  0  0  0
  -63.0272  -28.2054    5.1990 C   0  0  0  0  0  0  0  0  0  0  0  0
  -64.6072  -26.6284    4.2450 C   0  0  0  0  0  0  0  0  0  0  0  0
  -65.6522  -26.1994    4.3610 N   0  0  0  0  0  0  0  0  0  0  0  0
  -63.7382  -29.3584    5.2870 N   0  0  0  0  0  0  0  0  0  0  0  0
  -63.2602  -29.9884    6.3930 C   0  0  0  0  0  0  0  0  0  0  0  0
  -62.2762  -29.2634    6.9850 C   0  0  0  0  0  0  0  0  0  0  0  0
  -62.1332  -28.1124    6.2060 C   0  0  0  0  0  0  0  0  0  0  0  0
  -64.7352  -29.9154    4.5360 N   0  0  0  0  0  0  0  0  0  0  0  0
  -65.2132  -31.0764    4.9200 C   0  0  0  0  0  0  0  0  0  0  0  0
  -64.8111  -31.7984    6.0140 N   0  0  0  0  0  0  0  0  0  0  0  0
  -63.8332  -31.2394    6.7410 C   0  0  0  0  0  0  0  0  0  0  0  0
  -63.4032  -31.9304    7.8480 N   0  0  0  0  0  0  0  0  0  0  0  0
  -60.8522  -22.1934   -2.2900 H   0  0  0  0  0  0  0  0  0  0  0  0
  -58.6172  -20.9824   -3.3990 H   0  0  0  0  0  0  0  0  0  0  0  0
  -60.8052  -21.8084   -1.0200 H   0  0  0  0  0  0  0  0  0  0  0  0
  -62.6892  -24.8774    2.6360 H   0  0  0  0  0  0  0  0  0  0  0  0
  -63.9572  -27.6724    2.1620 H   0  0  0  0  0  0  0  0  0  0  0  0
  -62.1942  -26.5404    1.0530 H   0  0  0  0  0  0  0  0  0  0  0  0
  -64.4032  -25.0774   -2.6280 H   0  0  0  0  0  0  0  0  0  0  0  0
  -62.3712  -23.9954   -2.0490 H   0  0  0  0  0  0  0  0  0  0  0  0
  -60.7602  -25.0774   -5.6770 H   0  0  0  0  0  0  0  0  0  0  0  0
  -62.7912  -26.1604   -6.2560 H   0  0  0  0  0  0  0  0  0  0  0  0
  -64.6161  -26.1594   -4.7340 H   0  0  0  0  0  0  0  0  0  0  0  0
  -59.4702  -23.8264   -4.2180 H   0  0  0  0  0  0  0  0  0  0  0  0
  -59.7612  -24.2094   -2.6180 H   0  0  0  0  0  0  0  0  0  0  0  0
  -60.5232  -21.8764   -5.0460 H   0  0  0  0  0  0  0  0  0  0  0  0
  -61.7002  -21.4984   -4.2720 H   0  0  0  0  0  0  0  0  0  0  0  0
  -60.5152  -20.6384   -4.2690 H   0  0  0  0  0  0  0  0  0  0  0  0
  -57.6072  -22.9864   -3.4730 H   0  0  0  0  0  0  0  0  0  0  0  0
  -59.0552  -19.8164   -1.6240 H   0  0  0  0  0  0  0  0  0  0  0  0
  -58.1972  -20.9874   -0.8210 H   0  0  0  0  0  0  0  0  0  0  0  0
  -60.5172  -19.2364    0.2580 H   0  0  0  0  0  0  0  0  0  0  0  0
  -61.8962  -20.1984    0.2350 H   0  0  0  0  0  0  0  0  0  0  0  0
  -60.2922  -17.5714   -1.3400 H   0  0  0  0  0  0  0  0  0  0  0  0
  -61.1182  -16.4124   -3.2400 H   0  0  0  0  0  0  0  0  0  0  0  0
  -62.9302  -17.3124   -4.4870 H   0  0  0  0  0  0  0  0  0  0  0  0
  -63.9132  -19.3744   -3.8320 H   0  0  0  0  0  0  0  0  0  0  0  0
  -63.0882  -20.5324   -1.9300 H   0  0  0  0  0  0  0  0  0  0  0  0
  -58.7772  -21.6234    0.8150 H   0  0  0  0  0  0  0  0  0  0  0  0
  -60.3542  -24.6734    3.8390 H   0  0  0  0  0  0  0  0  0  0  0  0
  -60.0282  -25.3054    2.3610 H   0  0  0  0  0  0  0  0  0  0  0  0
  -59.3712  -24.8794   -1.2500 H   0  0  0  0  0  0  0  0  0  0  0  0
  -59.1742  -27.0914   -2.0820 H   0  0  0  0  0  0  0  0  0  0  0  0
  -58.2902  -28.8094   -0.6990 H   0  0  0  0  0  0  0  0  0  0  0  0
  -57.6012  -28.3114    1.5200 H   0  0  0  0  0  0  0  0  0  0  0  0
  -57.7992  -26.1004    2.3570 H   0  0  0  0  0  0  0  0  0  0  0  0
  -60.7892  -28.3264    1.5120 H   0  0  0  0  0  0  0  0  0  0  0  0
  -62.2122  -29.2734    1.6960 H   0  0  0  0  0  0  0  0  0  0  0  0
  -61.7612  -29.5034    7.8080 H   0  0  0  0  0  0  0  0  0  0  0  0
  -61.4912  -27.3624    6.3640 H   0  0  0  0  0  0  0  0  0  0  0  0
  -65.9412  -31.4714    4.3600 H   0  0  0  0  0  0  0  0  0  0  0  0
  -63.7722  -32.7024    8.0520 H   0  0  0  0  0  0  0  0  0  0  0  0
  -62.7622  -31.6044    8.3560 H   0  0  0  0  0  0  0  0  0  0  0  0
  1  2  2  0
  2  3  1  0
  3  4  2  0
  3  7  1  0
  4  5  1  0
  5  6  2  0
  6  1  1  0
  7  8  1  0
  8  9  1  0
  8 10  1  0
 10 11  1  0
 10 12  1  0
 12 13  1  0
 13 14  1  0
 13 21  1  0
 14 15  1  0
 15 16  2  0
 16 17  1  0
 17 18  2  0
 18 19  1  0
 19 20  2  0
 20 15  1  0
 21 22  1  0
 22 23  1  0
 22 24  1  0
 22 25  2  0
 23 26  1  0
 24 27  1  0
 27 28  2  0
 28 29  1  0
 29 30  2  0
 30 31  1  0
 31 32  2  0
 32 27  1  0
 33 26  1  0
 33 34  1  0
 34 35  1  0
 35 36  1  0
 35 40  1  0
 35 41  1  0
 36 37  1  0
 36 39  1  0
 37 33  1  0
 37 38  1  0
 40 43  1  0
 41 42  3  0
 43 44  1  0
 43 47  1  0
 44 45  2  0
 45 46  1  0
 46 40  2  0
 47 48  2  0
 48 49  1  0
 49 50  2  0
 50 44  1  0
 50 51  1  0
  1 58  1  0
  2 59  1  0
  4 60  1  0
  5 61  1  0
  6 62  1  0
  7 63  1  0
  7 64  1  0
  8 52  1  0
  9 65  1  0
  9 66  1  0
  9 67  1  0
 10 53  1  0
 11 68  1  0
 12 69  1  0
 12 70  1  0
 13 54  1  0
 14 71  1  0
 14 72  1  0
 16 73  1  0
 17 74  1  0
 18 75  1  0
 19 76  1  0
 20 77  1  0
 21 78  1  0
 26 79  1  0
 26 80  1  0
 28 81  1  0
 29 82  1  0
 30 83  1  0
 31 84  1  0
 32 85  1  0
 33 55  1  0
 36 56  1  0
 37 57  1  0
 38 86  1  0
 39 87  1  0
 45 88  1  0
 46 89  1  0
 48 90  1  0
 51 91  1  0
 51 92  1  0
M  CHG  1   9   1
M  END
>  <BioMolTech Lead Finder dG>
-5.822

>  <BioMolTech Lead Finder VSscore>
-12.905

>  <BioMolTech Lead Finder Rank score>
-17.565

>  <BioMolTech Lead Finder LE>
-0.114

>  <BioMolTech Lead Finder Structure Name>
/var/folders/xd/y7jw_xv579q2qqq7kks92xd80000gn/T/LeadFinder_44914_1/Ligand_1.sdf

>  <BioMolTech Lead Finder SDF id>
0

>  <BioMolTech Lead Finder Pose rank>
0

>  <BioMolTech Lead Finder version>
2001 1, 19 January 2019

>  <LF dG>
-5.822

>  <LF VSscore>
-12.905

>  <LF Rank Score>
-17.565

>  <LF LE>
-0.114

>  <Preferred Pose_cresset>
true

>  <Favorite_cresset>
false

>  <Protein_cresset>
6M2N_Dimer_P

>  <MW_cresset>
714.7

>  <#Atoms_cresset>
51

>  <SlogP_cresset>
4

>  <TPSA_cresset>
225.1

>  <Flexibility_cresset>
17.1

>  <#RB_cresset>
18

>  <Rof5_cresset>
3

>  <Filename_cresset>
VTRRT-13V2.1.sdf

>  <Confs_cresset>
0

>  <Poses_cresset>
10

>  <_cresset_fieldpoints>
    -5     -56.981060     -23.301929      -1.072623     -7.9132
    -5     -67.246460     -26.741308       5.530642     -9.4664
    -5     -61.583481     -22.111153       3.435884     -7.0155
    -5     -63.946507     -17.087471      -0.799484     -3.3491
    -5     -60.024597     -27.840530       3.730930     -8.2165
    -5     -62.632133     -30.610111       3.600152     -9.7845
    -5     -62.426842     -24.635178       5.730446     -5.0568
    -6     -66.404083     -26.377388      -2.940568      4.0657
    -6     -64.647232     -27.369617      -7.083649      4.2165
    -6     -63.161449     -22.402657      -0.798888      6.8539
    -6     -57.797142     -22.714136      -5.257423     10.6939
    -6     -64.627365     -18.434624      -5.999234      3.8087
    -6     -61.577705     -15.321878      -5.383125      3.8791
    -6     -58.330105     -17.857676      -0.361890      4.9465
    -6     -57.345341     -20.930054       1.311250      5.0117
    -6     -61.319580     -30.998085       9.513117      8.6216
    -6     -61.703503     -28.969217       0.090184     13.0872
    -7     -63.227692     -24.062044       0.231363     -3.7304
    -7     -59.163670     -23.226913      -6.659860     -1.9349
    -7     -60.558868     -26.538353      -7.902056     -1.0056
    -7     -58.425377     -26.322006      -4.380461     -2.3990
    -7     -64.038330     -22.018251      -4.646235     -2.9544
    -7     -65.035629     -27.461540      -7.105544     -0.9688
    -7     -61.882988     -19.924324      -6.293153     -2.0785
    -7     -63.870880     -27.152462      -0.728480     -2.2144
    -7     -62.061226     -27.371500      -1.346648     -3.2399
    -7     -58.102867     -22.288834      -5.761779     -2.1749
    -7     -57.197361     -25.133591      -3.411453     -2.5512
    -7     -58.319183     -19.725071       1.716521     -2.2529
    -7     -58.245583     -17.998878       0.115699     -2.1258
    -7     -58.911522     -18.690735      -4.332629     -2.6340
    -7     -64.096054     -17.027506      -0.464769     -1.8374
    -7     -61.759293     -15.068457      -5.530002     -0.9707
    -7     -57.746552     -23.448927       3.315675     -2.3321
    -7     -62.076965     -24.735218       6.123296     -2.4933
    -7     -63.178459     -22.561907      -0.315194     -4.0707
    -7     -56.747757     -22.997450      -0.469503     -3.0862
    -7     -55.603195     -25.665148      -1.063271     -1.7807
    -7     -55.653023     -29.858009      -0.019298     -0.9579
    -7     -64.446762     -30.412479       1.828076     -1.9265
    -7     -66.174194     -28.940971       2.659969     -2.0039
    -7     -66.067871     -28.242477       6.649859     -2.3892
    -7     -60.602051     -32.231201       6.989594     -1.5169
    -7     -64.064331     -29.858471       9.827427     -1.5189
    -7     -59.659843     -27.728245       4.058356     -3.8559
    -7     -60.973637     -26.978773       9.153046     -0.9370
    -7     -65.731461     -33.991661       6.743034     -1.1835
    -8     -62.575256     -25.073067      -4.149312      7.2016
    -8     -62.093674     -18.484074      -2.579423      7.2256
    -8     -60.539303     -20.112349      -1.137091      5.9027
    -8     -61.134418     -23.784561      -3.186571      5.6204
    -8     -59.845901     -21.328896      -1.861608      5.8895
    -8     -58.484543     -26.619909       0.122061      7.0370
    -8     -61.542809     -19.219097      -1.462765      5.8200
    -8     -61.586967     -25.593884       2.228642      4.1036
    -8     -62.434788     -28.786461       6.410213      4.9078
    -8     -62.965488     -26.612236       2.637773      4.7091
    -8     -66.150810     -31.609261       4.236856      1.2371

$$$$
