5281607
  RxDock  02242101563D
librxdock.so/0.1.0
 21 23  0  0  0  0  0  0  0  0999 V2000
  -52.3787   -3.7033   14.6810 O   0  0  0  0  0  0
  -47.5882   -3.0239   14.9712 O   0  0  0  0  0  0
  -48.7744   -5.1851   15.8694 O   0  0  0  0  0  0
  -50.3907    0.2724   13.0130 O   0  0  0  0  0  0
  -49.9726   -3.4195   14.8540 C   0  0  0  0  0  0
  -51.2367   -2.9720   14.4737 C   0  0  0  0  0  0
  -52.2670   -4.9447   15.2886 C   0  0  0  0  0  0
  -49.8512   -4.7318   15.5070 C   0  0  0  0  0  0
  -53.5556   -5.6430   15.4682 C   0  0  0  0  0  0
  -48.8437   -2.6315   14.6184 C   0  0  0  0  0  0
  -51.1087   -5.4808   15.7051 C   0  0  0  0  0  0
  -51.3795   -1.7302   13.8543 C   0  0  0  0  0  0
  -50.2544   -0.9401   13.6170 C   0  0  0  0  0  0
  -48.9895   -1.3900   13.9982 C   0  0  0  0  0  0
  -53.5805   -6.9662   15.9158 C   0  0  0  0  0  0
  -54.7558   -4.9836   15.1913 C   0  0  0  0  0  0
  -54.7979   -7.6257   16.0854 C   0  0  0  0  0  0
  -55.9732   -5.6429   15.3612 C   0  0  0  0  0  0
  -55.9943   -6.9641   15.8083 C   0  0  0  0  0  0
  -47.4866   -3.9814   14.8583 H   0  0  0  0  0  0
  -51.2963    0.3528   12.6676 H   0  0  0  0  0  0
  1  6  1  0  0  0
  1  7  1  0  0  0
  2 10  1  0  0  0
  2 20  1  0  0  0
  3  8  2  0  0  0
  4 13  1  0  0  0
  4 21  1  0  0  0
  5  6  1  0  0  0
  5  8  1  0  0  0
  5 10  2  0  0  0
  6 12  2  0  0  0
  7  9  1  0  0  0
  7 11  2  0  0  0
  8 11  1  0  0  0
  9 15  2  0  0  0
  9 16  1  0  0  0
 10 14  1  0  0  0
 12 13  1  0  0  0
 13 14  2  0  0  0
 15 17  1  0  0  0
 16 18  2  0  0  0
 17 19  2  0  0  0
 18 19  1  0  0  0
M  END
>  <CHROM.0>
-179.50443302,175.17894545,-55.10902325

>  <CHROM.1>
35.52564514,-10.63590325,172.20181184,-51.58415894,-4.02968278,14.94083809
2.42462982,0.10261512,2.70437177

>  <Name>
5281607

>  <PUBCHEM_ATOM_DEF_STEREO_COUNT>
0

>  <PUBCHEM_ATOM_UDEF_STEREO_COUNT>
0

>  <PUBCHEM_BOND_DEF_STEREO_COUNT>
0

>  <PUBCHEM_BOND_UDEF_STEREO_COUNT>
0

>  <PUBCHEM_CACTVS_TAUTO_COUNT>
12

>  <PUBCHEM_COMPONENT_COUNT>
1

>  <PUBCHEM_COMPOUND_CID>
5281607

>  <PUBCHEM_CONFORMER_DIVERSEORDER>
1

>  <PUBCHEM_CONFORMER_ID>
0050974700000001

>  <PUBCHEM_CONFORMER_RMSD>
0.6

>  <PUBCHEM_COORDINATE_TYPE>
2
5
10

>  <PUBCHEM_EFFECTIVE_ROTOR_COUNT>
1

>  <PUBCHEM_FEATURE_SELFOVERLAP>
35.55

>  <PUBCHEM_HEAVY_ATOM_COUNT>
19

>  <PUBCHEM_ISOTOPIC_ATOM_COUNT>
0

>  <PUBCHEM_MMFF94_ENERGY>
58.6802

>  <PUBCHEM_MMFF94_PARTIAL_CHARGES>
29
1 -0.16
10 0.08
11 -0.14
12 -0.15
13 0.08
14 -0.15
15 -0.15
16 -0.15
17 -0.15
18 -0.15
19 -0.15
2 -0.53
20 0.15
21 0.15
22 0.15
23 0.15
24 0.15
25 0.15
26 0.15
27 0.15
28 0.45
29 0.45
3 -0.57
4 -0.53
5 0.09
6 0.08
7 0.05
8 0.47
9 0.03

>  <PUBCHEM_PHARMACOPHORE_FEATURES>
7
1 1 acceptor
1 2 donor
1 3 acceptor
1 4 donor
6 1 5 6 7 8 11 rings
6 5 6 10 12 13 14 rings
6 9 15 16 17 18 19 rings

>  <PUBCHEM_SHAPE_FINGERPRINT>
10319926 262 18268127809494919170
10411042 1 18265615579738713891
10493431 412 18197507221146397953
10608611 8 18342171134064233104
10616163 171 18411420583546564262
11132069 177 18409449163297457936
11552529 35 17632292436352682015
12032990 46 18410295851770216003
12236239 1 17458347408211182968
12403259 226 18412821387472877168
13140716 1 18411706521194677761
13214271 11 18343016692438145285
13288520 33 18410857667820642214
13296908 3 18411982472727089118
13675066 3 18273492390518142728
14790565 3 17835527016235198305
14866123 147 16905542407924379514
15042514 8 18408611353328975545
15196674 1 18411136944106257192
15219456 202 18273213084594875086
15352361 1 18338516451385899415
15375358 24 18271805692352254134
17492 89 18409448060024340482
17804303 29 18412829079284446544
17834074 16 18342458115019991270
1813 80 17603588547200830588
18186145 218 15864357977667883748
19141452 34 18272937150226625303
200 152 17418085499329608732
20281475 54 18410863191143420508
20510252 161 18270961232888654944
21065198 57 18341612581977734456
21065199 12 18343580759357389514
21065201 7 18335979788261725250
21267235 1 18409175436536850755
221490 88 18264213680320700032
2297311 6 18341061765380641204
23366157 5 17823981353853568324
23402539 116 18410004433933626846
23557571 272 18341902895859977406
23559900 14 18341328882482245094
23845131 108 17547870555410292105
26918003 58 18201434745125223712
2748010 2 18338507659920037029
2871803 45 18408600357965063606
335352 9 18338517426438382605
34934 24 18335413522403504251
4214541 1 18411700959095601360
474 4 16878802641914734316
5104073 3 18342454829459681514
573450 72 18187353303882126634
67856867 119 18187930638177329652
69090 78 18272364239964106078
7364860 26 17979074113022900857
77779 3 18411982460047818098
8809292 202 18408608049860866890
9709674 26 18271529672084392270

>  <PUBCHEM_SHAPE_MULTIPOLES>
367.53
9.79
2.47
0.67
6.66
0.28
0
-3.3
0.48
-2.43
-0.1
0.26
-0.02
0.74

>  <PUBCHEM_SHAPE_SELFOVERLAP>
822.826

>  <PUBCHEM_SHAPE_VOLUME>
193.3

>  <RI>
-7.46781e+08

>  <Rbt.Current_Directory>
/root/miniconda3/envs/rdock/share/rxdock-2013.1.1_148c5bd1-0/data/ligands/prepped_ligands/Chrysin

>  <Rbt.Executable>
rbdock/0.1.0

>  <Rbt.Library>
librxdock.so/0.1.0

>  <Rbt.Parameter_File>
/root/miniconda3/envs/rdock/share/rxdock-2013.1.1_148c5bd1-0/data/scripts/dock.prm

>  <Rbt.Receptor>
def.prm

>  <SCORE>
-17.5177

>  <SCORE.INTER>
-16.9366

>  <SCORE.INTER.CONST>
1

>  <SCORE.INTER.POLAR>
-1.51946

>  <SCORE.INTER.REPUL>
0.206446

>  <SCORE.INTER.ROT>
1

>  <SCORE.INTER.VDW>
-19.2027

>  <SCORE.INTER.norm>
-0.891402

>  <SCORE.INTRA>
0.392664

>  <SCORE.INTRA.DIHEDRAL>
0.647465

>  <SCORE.INTRA.DIHEDRAL.0>
1.23518

>  <SCORE.INTRA.POLAR>
0

>  <SCORE.INTRA.POLAR.0>
0

>  <SCORE.INTRA.REPUL>
0

>  <SCORE.INTRA.REPUL.0>
0

>  <SCORE.INTRA.VDW>
0.0689319

>  <SCORE.INTRA.VDW.0>
0.668012

>  <SCORE.INTRA.norm>
0.0206665

>  <SCORE.RESTR>
0

>  <SCORE.RESTR.CAVITY>
0

>  <SCORE.RESTR.norm>
0

>  <SCORE.SYSTEM>
-0.973764

>  <SCORE.SYSTEM.CONST>
0

>  <SCORE.SYSTEM.DIHEDRAL>
0.169284

>  <SCORE.SYSTEM.POLAR>
-0.0112598

>  <SCORE.SYSTEM.VDW>
-1.02012

>  <SCORE.SYSTEM.norm>
-0.0512508

>  <SCORE.heavy>
19

>  <SCORE.norm>
-0.921986

$$$$
5281607
  RxDock  02242101563D
librxdock.so/0.1.0
 21 23  0  0  0  0  0  0  0  0999 V2000
  -54.0596   -4.7785   16.5232 O   0  0  0  0  0  0
  -53.7474   -9.6095   16.2817 O   0  0  0  0  0  0
  -52.1698   -8.1569   17.7935 O   0  0  0  0  0  0
  -56.9886   -7.2582   13.7281 O   0  0  0  0  0  0
  -53.8558   -7.1975   16.4440 C   0  0  0  0  0  0
  -54.4573   -6.0033   16.0505 C   0  0  0  0  0  0
  -53.0185   -4.7297   17.4378 C   0  0  0  0  0  0
  -52.7452   -7.1490   17.4071 C   0  0  0  0  0  0
  -52.6682   -3.3637   17.8758 C   0  0  0  0  0  0
  -54.3021   -8.4167   15.9290 C   0  0  0  0  0  0
  -52.3565   -5.8076   17.8875 C   0  0  0  0  0  0
  -55.5113   -6.0216   15.1369 C   0  0  0  0  0  0
  -55.9603   -7.2372   14.6202 C   0  0  0  0  0  0
  -55.3569   -8.4320   15.0155 C   0  0  0  0  0  0
  -52.0674   -2.4728   16.9830 C   0  0  0  0  0  0
  -52.9359   -2.9560   19.1851 C   0  0  0  0  0  0
  -51.7364   -1.1824   17.3969 C   0  0  0  0  0  0
  -52.6053   -1.6656   19.5989 C   0  0  0  0  0  0
  -52.0055   -0.7788   18.7047 C   0  0  0  0  0  0
  -52.8533   -9.4785   16.6325 H   0  0  0  0  0  0
  -57.0792   -8.1587   13.3721 H   0  0  0  0  0  0
  1  6  1  0  0  0
  1  7  1  0  0  0
  2 10  1  0  0  0
  2 20  1  0  0  0
  3  8  2  0  0  0
  4 13  1  0  0  0
  4 21  1  0  0  0
  5  6  1  0  0  0
  5  8  1  0  0  0
  5 10  2  0  0  0
  6 12  2  0  0  0
  7  9  1  0  0  0
  7 11  2  0  0  0
  8 11  1  0  0  0
  9 15  2  0  0  0
  9 16  1  0  0  0
 10 14  1  0  0  0
 12 13  1  0  0  0
 13 14  2  0  0  0
 15 17  1  0  0  0
 16 18  2  0  0  0
 17 19  2  0  0  0
 18 19  1  0  0  0
M  END
>  <CHROM.0>
62.33207603,62.47951828,59.98940326

>  <CHROM.1>
-21.21661687,171.39319172,-69.21240945,-53.64133105,-5.52991063,16.80025184
1.02629050,-0.75479327,0.07327309

>  <Name>
5281607

>  <PUBCHEM_ATOM_DEF_STEREO_COUNT>
0

>  <PUBCHEM_ATOM_UDEF_STEREO_COUNT>
0

>  <PUBCHEM_BOND_DEF_STEREO_COUNT>
0

>  <PUBCHEM_BOND_UDEF_STEREO_COUNT>
0

>  <PUBCHEM_CACTVS_TAUTO_COUNT>
12

>  <PUBCHEM_COMPONENT_COUNT>
1

>  <PUBCHEM_COMPOUND_CID>
5281607

>  <PUBCHEM_CONFORMER_DIVERSEORDER>
1

>  <PUBCHEM_CONFORMER_ID>
0050974700000001

>  <PUBCHEM_CONFORMER_RMSD>
0.6

>  <PUBCHEM_COORDINATE_TYPE>
2
5
10

>  <PUBCHEM_EFFECTIVE_ROTOR_COUNT>
1

>  <PUBCHEM_FEATURE_SELFOVERLAP>
35.55

>  <PUBCHEM_HEAVY_ATOM_COUNT>
19

>  <PUBCHEM_ISOTOPIC_ATOM_COUNT>
0

>  <PUBCHEM_MMFF94_ENERGY>
58.6802

>  <PUBCHEM_MMFF94_PARTIAL_CHARGES>
29
1 -0.16
10 0.08
11 -0.14
12 -0.15
13 0.08
14 -0.15
15 -0.15
16 -0.15
17 -0.15
18 -0.15
19 -0.15
2 -0.53
20 0.15
21 0.15
22 0.15
23 0.15
24 0.15
25 0.15
26 0.15
27 0.15
28 0.45
29 0.45
3 -0.57
4 -0.53
5 0.09
6 0.08
7 0.05
8 0.47
9 0.03

>  <PUBCHEM_PHARMACOPHORE_FEATURES>
7
1 1 acceptor
1 2 donor
1 3 acceptor
1 4 donor
6 1 5 6 7 8 11 rings
6 5 6 10 12 13 14 rings
6 9 15 16 17 18 19 rings

>  <PUBCHEM_SHAPE_FINGERPRINT>
10319926 262 18268127809494919170
10411042 1 18265615579738713891
10493431 412 18197507221146397953
10608611 8 18342171134064233104
10616163 171 18411420583546564262
11132069 177 18409449163297457936
11552529 35 17632292436352682015
12032990 46 18410295851770216003
12236239 1 17458347408211182968
12403259 226 18412821387472877168
13140716 1 18411706521194677761
13214271 11 18343016692438145285
13288520 33 18410857667820642214
13296908 3 18411982472727089118
13675066 3 18273492390518142728
14790565 3 17835527016235198305
14866123 147 16905542407924379514
15042514 8 18408611353328975545
15196674 1 18411136944106257192
15219456 202 18273213084594875086
15352361 1 18338516451385899415
15375358 24 18271805692352254134
17492 89 18409448060024340482
17804303 29 18412829079284446544
17834074 16 18342458115019991270
1813 80 17603588547200830588
18186145 218 15864357977667883748
19141452 34 18272937150226625303
200 152 17418085499329608732
20281475 54 18410863191143420508
20510252 161 18270961232888654944
21065198 57 18341612581977734456
21065199 12 18343580759357389514
21065201 7 18335979788261725250
21267235 1 18409175436536850755
221490 88 18264213680320700032
2297311 6 18341061765380641204
23366157 5 17823981353853568324
23402539 116 18410004433933626846
23557571 272 18341902895859977406
23559900 14 18341328882482245094
23845131 108 17547870555410292105
26918003 58 18201434745125223712
2748010 2 18338507659920037029
2871803 45 18408600357965063606
335352 9 18338517426438382605
34934 24 18335413522403504251
4214541 1 18411700959095601360
474 4 16878802641914734316
5104073 3 18342454829459681514
573450 72 18187353303882126634
67856867 119 18187930638177329652
69090 78 18272364239964106078
7364860 26 17979074113022900857
77779 3 18411982460047818098
8809292 202 18408608049860866890
9709674 26 18271529672084392270

>  <PUBCHEM_SHAPE_MULTIPOLES>
367.53
9.79
2.47
0.67
6.66
0.28
0
-3.3
0.48
-2.43
-0.1
0.26
-0.02
0.74

>  <PUBCHEM_SHAPE_SELFOVERLAP>
822.826

>  <PUBCHEM_SHAPE_VOLUME>
193.3

>  <RI>
-7.46781e+08

>  <Rbt.Current_Directory>
/root/miniconda3/envs/rdock/share/rxdock-2013.1.1_148c5bd1-0/data/ligands/prepped_ligands/Chrysin

>  <Rbt.Executable>
rbdock/0.1.0

>  <Rbt.Library>
librxdock.so/0.1.0

>  <Rbt.Parameter_File>
/root/miniconda3/envs/rdock/share/rxdock-2013.1.1_148c5bd1-0/data/scripts/dock.prm

>  <Rbt.Receptor>
def.prm

>  <SCORE>
-16.1364

>  <SCORE.INTER>
-16.1348

>  <SCORE.INTER.CONST>
1

>  <SCORE.INTER.POLAR>
-1.15135

>  <SCORE.INTER.REPUL>
0

>  <SCORE.INTER.ROT>
1

>  <SCORE.INTER.VDW>
-18.6202

>  <SCORE.INTER.norm>
-0.849197

>  <SCORE.INTRA>
0.987111

>  <SCORE.INTRA.DIHEDRAL>
3.72216

>  <SCORE.INTRA.DIHEDRAL.0>
1.23518

>  <SCORE.INTRA.POLAR>
0

>  <SCORE.INTRA.POLAR.0>
0

>  <SCORE.INTRA.REPUL>
0

>  <SCORE.INTRA.REPUL.0>
0

>  <SCORE.INTRA.VDW>
-0.873969

>  <SCORE.INTRA.VDW.0>
0.668012

>  <SCORE.INTRA.norm>
0.0519532

>  <SCORE.RESTR>
0

>  <SCORE.RESTR.CAVITY>
0

>  <SCORE.RESTR.norm>
0

>  <SCORE.SYSTEM>
-0.988769

>  <SCORE.SYSTEM.CONST>
0

>  <SCORE.SYSTEM.DIHEDRAL>
0.0421889

>  <SCORE.SYSTEM.POLAR>
-0.00103007

>  <SCORE.SYSTEM.VDW>
-1.00636

>  <SCORE.SYSTEM.norm>
-0.0520405

>  <SCORE.heavy>
19

>  <SCORE.norm>
-0.849285

$$$$
5281607
  RxDock  02242101563D
librxdock.so/0.1.0
 21 23  0  0  0  0  0  0  0  0999 V2000
  -47.6858   -4.4406   16.3466 O   0  0  0  0  0  0
  -48.5322   -0.6605   13.4331 O   0  0  0  0  0  0
  -50.2704   -2.5920   13.7969 O   0  0  0  0  0  0
  -44.4276   -1.0321   15.7928 O   0  0  0  0  0  0
  -48.1669   -2.5703   14.8736 C   0  0  0  0  0  0
  -47.3311   -3.2555   15.7537 C   0  0  0  0  0  0
  -48.9336   -4.9741   16.0622 C   0  0  0  0  0  0
  -49.4877   -3.1378   14.5623 C   0  0  0  0  0  0
  -49.2102   -6.2524   16.7478 C   0  0  0  0  0  0
  -47.7529   -1.3667   14.2983 C   0  0  0  0  0  0
  -49.8230   -4.4131   15.2275 C   0  0  0  0  0  0
  -46.0727   -2.7397   16.0642 C   0  0  0  0  0  0
  -45.6553   -1.5378   15.4919 C   0  0  0  0  0  0
  -46.4937   -0.8530   14.6110 C   0  0  0  0  0  0
  -48.1557   -7.0401   17.2163 C   0  0  0  0  0  0
  -50.5276   -6.6798   16.9312 C   0  0  0  0  0  0
  -48.4171   -8.2476   17.8640 C   0  0  0  0  0  0
  -50.7891   -7.8871   17.5791 C   0  0  0  0  0  0
  -49.7338   -8.6710   18.0455 C   0  0  0  0  0  0
  -48.7994   -1.2158   12.6848 H   0  0  0  0  0  0
  -43.9518   -1.6703   16.3516 H   0  0  0  0  0  0
  1  6  1  0  0  0
  1  7  1  0  0  0
  2 10  1  0  0  0
  2 20  1  0  0  0
  3  8  2  0  0  0
  4 13  1  0  0  0
  4 21  1  0  0  0
  5  6  1  0  0  0
  5  8  1  0  0  0
  5 10  2  0  0  0
  6 12  2  0  0  0
  7  9  1  0  0  0
  7 11  2  0  0  0
  8 11  1  0  0  0
  9 15  2  0  0  0
  9 16  1  0  0  0
 10 14  1  0  0  0
 12 13  1  0  0  0
 13 14  2  0  0  0
 15 17  1  0  0  0
 16 18  2  0  0  0
 17 19  2  0  0  0
 18 19  1  0  0  0
M  END
>  <CHROM.0>
61.99205611,179.88315958,-178.43071019

>  <CHROM.1>
-55.51658849,4.98502002,-21.46604143,-48.25219001,-4.03426863,15.78156669
-1.98778531,-0.36823838,-0.56443022

>  <Name>
5281607

>  <PUBCHEM_ATOM_DEF_STEREO_COUNT>
0

>  <PUBCHEM_ATOM_UDEF_STEREO_COUNT>
0

>  <PUBCHEM_BOND_DEF_STEREO_COUNT>
0

>  <PUBCHEM_BOND_UDEF_STEREO_COUNT>
0

>  <PUBCHEM_CACTVS_TAUTO_COUNT>
12

>  <PUBCHEM_COMPONENT_COUNT>
1

>  <PUBCHEM_COMPOUND_CID>
5281607

>  <PUBCHEM_CONFORMER_DIVERSEORDER>
1

>  <PUBCHEM_CONFORMER_ID>
0050974700000001

>  <PUBCHEM_CONFORMER_RMSD>
0.6

>  <PUBCHEM_COORDINATE_TYPE>
2
5
10

>  <PUBCHEM_EFFECTIVE_ROTOR_COUNT>
1

>  <PUBCHEM_FEATURE_SELFOVERLAP>
35.55

>  <PUBCHEM_HEAVY_ATOM_COUNT>
19

>  <PUBCHEM_ISOTOPIC_ATOM_COUNT>
0

>  <PUBCHEM_MMFF94_ENERGY>
58.6802

>  <PUBCHEM_MMFF94_PARTIAL_CHARGES>
29
1 -0.16
10 0.08
11 -0.14
12 -0.15
13 0.08
14 -0.15
15 -0.15
16 -0.15
17 -0.15
18 -0.15
19 -0.15
2 -0.53
20 0.15
21 0.15
22 0.15
23 0.15
24 0.15
25 0.15
26 0.15
27 0.15
28 0.45
29 0.45
3 -0.57
4 -0.53
5 0.09
6 0.08
7 0.05
8 0.47
9 0.03

>  <PUBCHEM_PHARMACOPHORE_FEATURES>
7
1 1 acceptor
1 2 donor
1 3 acceptor
1 4 donor
6 1 5 6 7 8 11 rings
6 5 6 10 12 13 14 rings
6 9 15 16 17 18 19 rings

>  <PUBCHEM_SHAPE_FINGERPRINT>
10319926 262 18268127809494919170
10411042 1 18265615579738713891
10493431 412 18197507221146397953
10608611 8 18342171134064233104
10616163 171 18411420583546564262
11132069 177 18409449163297457936
11552529 35 17632292436352682015
12032990 46 18410295851770216003
12236239 1 17458347408211182968
12403259 226 18412821387472877168
13140716 1 18411706521194677761
13214271 11 18343016692438145285
13288520 33 18410857667820642214
13296908 3 18411982472727089118
13675066 3 18273492390518142728
14790565 3 17835527016235198305
14866123 147 16905542407924379514
15042514 8 18408611353328975545
15196674 1 18411136944106257192
15219456 202 18273213084594875086
15352361 1 18338516451385899415
15375358 24 18271805692352254134
17492 89 18409448060024340482
17804303 29 18412829079284446544
17834074 16 18342458115019991270
1813 80 17603588547200830588
18186145 218 15864357977667883748
19141452 34 18272937150226625303
200 152 17418085499329608732
20281475 54 18410863191143420508
20510252 161 18270961232888654944
21065198 57 18341612581977734456
21065199 12 18343580759357389514
21065201 7 18335979788261725250
21267235 1 18409175436536850755
221490 88 18264213680320700032
2297311 6 18341061765380641204
23366157 5 17823981353853568324
23402539 116 18410004433933626846
23557571 272 18341902895859977406
23559900 14 18341328882482245094
23845131 108 17547870555410292105
26918003 58 18201434745125223712
2748010 2 18338507659920037029
2871803 45 18408600357965063606
335352 9 18338517426438382605
34934 24 18335413522403504251
4214541 1 18411700959095601360
474 4 16878802641914734316
5104073 3 18342454829459681514
573450 72 18187353303882126634
67856867 119 18187930638177329652
69090 78 18272364239964106078
7364860 26 17979074113022900857
77779 3 18411982460047818098
8809292 202 18408608049860866890
9709674 26 18271529672084392270

>  <PUBCHEM_SHAPE_MULTIPOLES>
367.53
9.79
2.47
0.67
6.66
0.28
0
-3.3
0.48
-2.43
-0.1
0.26
-0.02
0.74

>  <PUBCHEM_SHAPE_SELFOVERLAP>
822.826

>  <PUBCHEM_SHAPE_VOLUME>
193.3

>  <RI>
-7.46781e+08

>  <Rbt.Current_Directory>
/root/miniconda3/envs/rdock/share/rxdock-2013.1.1_148c5bd1-0/data/ligands/prepped_ligands/Chrysin

>  <Rbt.Executable>
rbdock/0.1.0

>  <Rbt.Library>
librxdock.so/0.1.0

>  <Rbt.Parameter_File>
/root/miniconda3/envs/rdock/share/rxdock-2013.1.1_148c5bd1-0/data/scripts/dock.prm

>  <Rbt.Receptor>
def.prm

>  <SCORE>
-11.482

>  <SCORE.INTER>
-11.5024

>  <SCORE.INTER.CONST>
1

>  <SCORE.INTER.POLAR>
-0.668368

>  <SCORE.INTER.REPUL>
0.0164921

>  <SCORE.INTER.ROT>
1

>  <SCORE.INTER.VDW>
-15.7124

>  <SCORE.INTER.norm>
-0.605388

>  <SCORE.INTRA>
1.10909

>  <SCORE.INTRA.DIHEDRAL>
2.73353

>  <SCORE.INTRA.DIHEDRAL.0>
1.23518

>  <SCORE.INTRA.POLAR>
0

>  <SCORE.INTRA.POLAR.0>
0

>  <SCORE.INTRA.REPUL>
0

>  <SCORE.INTRA.REPUL.0>
0

>  <SCORE.INTRA.VDW>
-0.257671

>  <SCORE.INTRA.VDW.0>
0.668012

>  <SCORE.INTRA.norm>
0.0583733

>  <SCORE.RESTR>
0

>  <SCORE.RESTR.CAVITY>
0

>  <SCORE.RESTR.norm>
0

>  <SCORE.SYSTEM>
-1.08874

>  <SCORE.SYSTEM.CONST>
0

>  <SCORE.SYSTEM.DIHEDRAL>
0.0133748

>  <SCORE.SYSTEM.POLAR>
-0.00569744

>  <SCORE.SYSTEM.VDW>
-1.07606

>  <SCORE.SYSTEM.norm>
-0.0573023

>  <SCORE.heavy>
19

>  <SCORE.norm>
-0.604317

$$$$
5281607
  RxDock  02242101563D
librxdock.so/0.1.0
 21 23  0  0  0  0  0  0  0  0999 V2000
  -54.0688   -4.8135   16.5749 O   0  0  0  0  0  0
  -53.7624   -9.6401   16.2519 O   0  0  0  0  0  0
  -52.1504   -8.2104   17.7492 O   0  0  0  0  0  0
  -57.0615   -7.2508   13.8102 O   0  0  0  0  0  0
  -53.8670   -7.2309   16.4538 C   0  0  0  0  0  0
  -54.4774   -6.0310   16.0927 C   0  0  0  0  0  0
  -53.0070   -4.7784   17.4660 C   0  0  0  0  0  0
  -52.7345   -7.1968   17.3917 C   0  0  0  0  0  0
  -52.6466   -3.4192   17.9167 C   0  0  0  0  0  0
  -54.3251   -8.4422   15.9305 C   0  0  0  0  0  0
  -52.3348   -5.8628   17.8837 C   0  0  0  0  0  0
  -55.5522   -6.0356   15.2034 C   0  0  0  0  0  0
  -56.0130   -7.2433   14.6786 C   0  0  0  0  0  0
  -55.4006   -8.4438   15.0415 C   0  0  0  0  0  0
  -52.0513   -2.5199   17.0286 C   0  0  0  0  0  0
  -52.8994   -3.0262   19.2334 C   0  0  0  0  0  0
  -51.7108   -1.2360   17.4546 C   0  0  0  0  0  0
  -52.5593   -1.7422   19.6593 C   0  0  0  0  0  0
  -51.9650   -0.8471   18.7699 C   0  0  0  0  0  0
  -52.8467   -9.5180   16.5459 H   0  0  0  0  0  0
  -57.0656   -8.0953   13.3278 H   0  0  0  0  0  0
  1  6  1  0  0  0
  1  7  1  0  0  0
  2 10  1  0  0  0
  2 20  1  0  0  0
  3  8  2  0  0  0
  4 13  1  0  0  0
  4 21  1  0  0  0
  5  6  1  0  0  0
  5  8  1  0  0  0
  5 10  2  0  0  0
  6 12  2  0  0  0
  7  9  1  0  0  0
  7 11  2  0  0  0
  8 11  1  0  0  0
  9 15  2  0  0  0
  9 16  1  0  0  0
 10 14  1  0  0  0
 12 13  1  0  0  0
 13 14  2  0  0  0
 15 17  1  0  0  0
 16 18  2  0  0  0
 17 19  2  0  0  0
 18 19  1  0  0  0
M  END
>  <CHROM.0>
53.42967389,62.16856694,69.73411756

>  <CHROM.1>
-23.79218150,161.58771804,-70.01217691,-53.64390934,-5.56873100,16.83007217
1.02471079,-0.73120138,0.08809947

>  <Name>
5281607

>  <PUBCHEM_ATOM_DEF_STEREO_COUNT>
0

>  <PUBCHEM_ATOM_UDEF_STEREO_COUNT>
0

>  <PUBCHEM_BOND_DEF_STEREO_COUNT>
0

>  <PUBCHEM_BOND_UDEF_STEREO_COUNT>
0

>  <PUBCHEM_CACTVS_TAUTO_COUNT>
12

>  <PUBCHEM_COMPONENT_COUNT>
1

>  <PUBCHEM_COMPOUND_CID>
5281607

>  <PUBCHEM_CONFORMER_DIVERSEORDER>
1

>  <PUBCHEM_CONFORMER_ID>
0050974700000001

>  <PUBCHEM_CONFORMER_RMSD>
0.6

>  <PUBCHEM_COORDINATE_TYPE>
2
5
10

>  <PUBCHEM_EFFECTIVE_ROTOR_COUNT>
1

>  <PUBCHEM_FEATURE_SELFOVERLAP>
35.55

>  <PUBCHEM_HEAVY_ATOM_COUNT>
19

>  <PUBCHEM_ISOTOPIC_ATOM_COUNT>
0

>  <PUBCHEM_MMFF94_ENERGY>
58.6802

>  <PUBCHEM_MMFF94_PARTIAL_CHARGES>
29
1 -0.16
10 0.08
11 -0.14
12 -0.15
13 0.08
14 -0.15
15 -0.15
16 -0.15
17 -0.15
18 -0.15
19 -0.15
2 -0.53
20 0.15
21 0.15
22 0.15
23 0.15
24 0.15
25 0.15
26 0.15
27 0.15
28 0.45
29 0.45
3 -0.57
4 -0.53
5 0.09
6 0.08
7 0.05
8 0.47
9 0.03

>  <PUBCHEM_PHARMACOPHORE_FEATURES>
7
1 1 acceptor
1 2 donor
1 3 acceptor
1 4 donor
6 1 5 6 7 8 11 rings
6 5 6 10 12 13 14 rings
6 9 15 16 17 18 19 rings

>  <PUBCHEM_SHAPE_FINGERPRINT>
10319926 262 18268127809494919170
10411042 1 18265615579738713891
10493431 412 18197507221146397953
10608611 8 18342171134064233104
10616163 171 18411420583546564262
11132069 177 18409449163297457936
11552529 35 17632292436352682015
12032990 46 18410295851770216003
12236239 1 17458347408211182968
12403259 226 18412821387472877168
13140716 1 18411706521194677761
13214271 11 18343016692438145285
13288520 33 18410857667820642214
13296908 3 18411982472727089118
13675066 3 18273492390518142728
14790565 3 17835527016235198305
14866123 147 16905542407924379514
15042514 8 18408611353328975545
15196674 1 18411136944106257192
15219456 202 18273213084594875086
15352361 1 18338516451385899415
15375358 24 18271805692352254134
17492 89 18409448060024340482
17804303 29 18412829079284446544
17834074 16 18342458115019991270
1813 80 17603588547200830588
18186145 218 15864357977667883748
19141452 34 18272937150226625303
200 152 17418085499329608732
20281475 54 18410863191143420508
20510252 161 18270961232888654944
21065198 57 18341612581977734456
21065199 12 18343580759357389514
21065201 7 18335979788261725250
21267235 1 18409175436536850755
221490 88 18264213680320700032
2297311 6 18341061765380641204
23366157 5 17823981353853568324
23402539 116 18410004433933626846
23557571 272 18341902895859977406
23559900 14 18341328882482245094
23845131 108 17547870555410292105
26918003 58 18201434745125223712
2748010 2 18338507659920037029
2871803 45 18408600357965063606
335352 9 18338517426438382605
34934 24 18335413522403504251
4214541 1 18411700959095601360
474 4 16878802641914734316
5104073 3 18342454829459681514
573450 72 18187353303882126634
67856867 119 18187930638177329652
69090 78 18272364239964106078
7364860 26 17979074113022900857
77779 3 18411982460047818098
8809292 202 18408608049860866890
9709674 26 18271529672084392270

>  <PUBCHEM_SHAPE_MULTIPOLES>
367.53
9.79
2.47
0.67
6.66
0.28
0
-3.3
0.48
-2.43
-0.1
0.26
-0.02
0.74

>  <PUBCHEM_SHAPE_SELFOVERLAP>
822.826

>  <PUBCHEM_SHAPE_VOLUME>
193.3

>  <RI>
-7.46781e+08

>  <Rbt.Current_Directory>
/root/miniconda3/envs/rdock/share/rxdock-2013.1.1_148c5bd1-0/data/ligands/prepped_ligands/Chrysin

>  <Rbt.Executable>
rbdock/0.1.0

>  <Rbt.Library>
librxdock.so/0.1.0

>  <Rbt.Parameter_File>
/root/miniconda3/envs/rdock/share/rxdock-2013.1.1_148c5bd1-0/data/scripts/dock.prm

>  <Rbt.Receptor>
def.prm

>  <SCORE>
-15.9327

>  <SCORE.INTER>
-16.3301

>  <SCORE.INTER.CONST>
1

>  <SCORE.INTER.POLAR>
-1.18285

>  <SCORE.INTER.REPUL>
0

>  <SCORE.INTER.ROT>
1

>  <SCORE.INTER.VDW>
-18.7084

>  <SCORE.INTER.norm>
-0.85948

>  <SCORE.INTRA>
1.16855

>  <SCORE.INTRA.DIHEDRAL>
4.2886

>  <SCORE.INTRA.DIHEDRAL.0>
1.23518

>  <SCORE.INTRA.POLAR>
0

>  <SCORE.INTRA.POLAR.0>
0

>  <SCORE.INTRA.REPUL>
0

>  <SCORE.INTRA.REPUL.0>
0

>  <SCORE.INTRA.VDW>
-0.975751

>  <SCORE.INTRA.VDW.0>
0.668012

>  <SCORE.INTRA.norm>
0.0615025

>  <SCORE.RESTR>
0

>  <SCORE.RESTR.CAVITY>
0

>  <SCORE.RESTR.norm>
0

>  <SCORE.SYSTEM>
-0.771153

>  <SCORE.SYSTEM.CONST>
0

>  <SCORE.SYSTEM.DIHEDRAL>
0.354771

>  <SCORE.SYSTEM.POLAR>
-0.0165098

>  <SCORE.SYSTEM.VDW>
-0.892405

>  <SCORE.SYSTEM.norm>
-0.040587

>  <SCORE.heavy>
19

>  <SCORE.norm>
-0.838564

$$$$
5281607
  RxDock  02242101563D
librxdock.so/0.1.0
 21 23  0  0  0  0  0  0  0  0999 V2000
  -49.1474   -4.6102   15.7324 O   0  0  0  0  0  0
  -52.3565   -1.7180   13.5343 O   0  0  0  0  0  0
  -53.0411   -3.9501   14.7315 O   0  0  0  0  0  0
  -47.7396   -0.6068   13.6038 O   0  0  0  0  0  0
  -50.8016   -3.2008   14.6477 C   0  0  0  0  0  0
  -49.4899   -3.4882   15.0214 C   0  0  0  0  0  0
  -50.1527   -5.4915   16.1005 C   0  0  0  0  0  0
  -51.8694   -4.1378   15.0286 C   0  0  0  0  0  0
  -49.6738   -6.6663   16.8561 C   0  0  0  0  0  0
  -51.0921   -2.0427   13.9229 C   0  0  0  0  0  0
  -51.4498   -5.3286   15.7948 C   0  0  0  0  0  0
  -48.4584   -2.6168   14.6711 C   0  0  0  0  0  0
  -48.7443   -1.4589   13.9474 C   0  0  0  0  0  0
  -50.0584   -1.1727   13.5743 C   0  0  0  0  0  0
  -50.5875   -7.5854   17.3778 C   0  0  0  0  0  0
  -48.3047   -6.8641   17.0527 C   0  0  0  0  0  0
  -50.1349   -8.6952   18.0915 C   0  0  0  0  0  0
  -47.8522   -7.9740   17.7661 C   0  0  0  0  0  0
  -48.7673   -8.8896   18.2856 C   0  0  0  0  0  0
  -52.9476   -2.4806   13.6277 H   0  0  0  0  0  0
  -46.9786   -1.1258   13.2917 H   0  0  0  0  0  0
  1  6  1  0  0  0
  1  7  1  0  0  0
  2 10  1  0  0  0
  2 20  1  0  0  0
  3  8  2  0  0  0
  4 13  1  0  0  0
  4 21  1  0  0  0
  5  6  1  0  0  0
  5  8  1  0  0  0
  5 10  2  0  0  0
  6 12  2  0  0  0
  7  9  1  0  0  0
  7 11  2  0  0  0
  8 11  1  0  0  0
  9 15  2  0  0  0
  9 16  1  0  0  0
 10 14  1  0  0  0
 12 13  1  0  0  0
 13 14  2  0  0  0
 15 17  1  0  0  0
 16 18  2  0  0  0
 17 19  2  0  0  0
 18 19  1  0  0  0
M  END
>  <CHROM.0>
58.34424217,-73.43878309,-62.99980441

>  <CHROM.1>
-14.24344914,43.07739146,175.19458063,-50.00499950,-4.46615688,15.50757433
-1.45509857,-0.12021357,-0.53299914

>  <Name>
5281607

>  <PUBCHEM_ATOM_DEF_STEREO_COUNT>
0

>  <PUBCHEM_ATOM_UDEF_STEREO_COUNT>
0

>  <PUBCHEM_BOND_DEF_STEREO_COUNT>
0

>  <PUBCHEM_BOND_UDEF_STEREO_COUNT>
0

>  <PUBCHEM_CACTVS_TAUTO_COUNT>
12

>  <PUBCHEM_COMPONENT_COUNT>
1

>  <PUBCHEM_COMPOUND_CID>
5281607

>  <PUBCHEM_CONFORMER_DIVERSEORDER>
1

>  <PUBCHEM_CONFORMER_ID>
0050974700000001

>  <PUBCHEM_CONFORMER_RMSD>
0.6

>  <PUBCHEM_COORDINATE_TYPE>
2
5
10

>  <PUBCHEM_EFFECTIVE_ROTOR_COUNT>
1

>  <PUBCHEM_FEATURE_SELFOVERLAP>
35.55

>  <PUBCHEM_HEAVY_ATOM_COUNT>
19

>  <PUBCHEM_ISOTOPIC_ATOM_COUNT>
0

>  <PUBCHEM_MMFF94_ENERGY>
58.6802

>  <PUBCHEM_MMFF94_PARTIAL_CHARGES>
29
1 -0.16
10 0.08
11 -0.14
12 -0.15
13 0.08
14 -0.15
15 -0.15
16 -0.15
17 -0.15
18 -0.15
19 -0.15
2 -0.53
20 0.15
21 0.15
22 0.15
23 0.15
24 0.15
25 0.15
26 0.15
27 0.15
28 0.45
29 0.45
3 -0.57
4 -0.53
5 0.09
6 0.08
7 0.05
8 0.47
9 0.03

>  <PUBCHEM_PHARMACOPHORE_FEATURES>
7
1 1 acceptor
1 2 donor
1 3 acceptor
1 4 donor
6 1 5 6 7 8 11 rings
6 5 6 10 12 13 14 rings
6 9 15 16 17 18 19 rings

>  <PUBCHEM_SHAPE_FINGERPRINT>
10319926 262 18268127809494919170
10411042 1 18265615579738713891
10493431 412 18197507221146397953
10608611 8 18342171134064233104
10616163 171 18411420583546564262
11132069 177 18409449163297457936
11552529 35 17632292436352682015
12032990 46 18410295851770216003
12236239 1 17458347408211182968
12403259 226 18412821387472877168
13140716 1 18411706521194677761
13214271 11 18343016692438145285
13288520 33 18410857667820642214
13296908 3 18411982472727089118
13675066 3 18273492390518142728
14790565 3 17835527016235198305
14866123 147 16905542407924379514
15042514 8 18408611353328975545
15196674 1 18411136944106257192
15219456 202 18273213084594875086
15352361 1 18338516451385899415
15375358 24 18271805692352254134
17492 89 18409448060024340482
17804303 29 18412829079284446544
17834074 16 18342458115019991270
1813 80 17603588547200830588
18186145 218 15864357977667883748
19141452 34 18272937150226625303
200 152 17418085499329608732
20281475 54 18410863191143420508
20510252 161 18270961232888654944
21065198 57 18341612581977734456
21065199 12 18343580759357389514
21065201 7 18335979788261725250
21267235 1 18409175436536850755
221490 88 18264213680320700032
2297311 6 18341061765380641204
23366157 5 17823981353853568324
23402539 116 18410004433933626846
23557571 272 18341902895859977406
23559900 14 18341328882482245094
23845131 108 17547870555410292105
26918003 58 18201434745125223712
2748010 2 18338507659920037029
2871803 45 18408600357965063606
335352 9 18338517426438382605
34934 24 18335413522403504251
4214541 1 18411700959095601360
474 4 16878802641914734316
5104073 3 18342454829459681514
573450 72 18187353303882126634
67856867 119 18187930638177329652
69090 78 18272364239964106078
7364860 26 17979074113022900857
77779 3 18411982460047818098
8809292 202 18408608049860866890
9709674 26 18271529672084392270

>  <PUBCHEM_SHAPE_MULTIPOLES>
367.53
9.79
2.47
0.67
6.66
0.28
0
-3.3
0.48
-2.43
-0.1
0.26
-0.02
0.74

>  <PUBCHEM_SHAPE_SELFOVERLAP>
822.826

>  <PUBCHEM_SHAPE_VOLUME>
193.3

>  <RI>
-7.46781e+08

>  <Rbt.Current_Directory>
/root/miniconda3/envs/rdock/share/rxdock-2013.1.1_148c5bd1-0/data/ligands/prepped_ligands/Chrysin

>  <Rbt.Executable>
rbdock/0.1.0

>  <Rbt.Library>
librxdock.so/0.1.0

>  <Rbt.Parameter_File>
/root/miniconda3/envs/rdock/share/rxdock-2013.1.1_148c5bd1-0/data/scripts/dock.prm

>  <Rbt.Receptor>
def.prm

>  <SCORE>
-16.3666

>  <SCORE.INTER>
-16.5864

>  <SCORE.INTER.CONST>
1

>  <SCORE.INTER.POLAR>
-1.77715

>  <SCORE.INTER.REPUL>
0

>  <SCORE.INTER.ROT>
1

>  <SCORE.INTER.VDW>
-16.9441

>  <SCORE.INTER.norm>
-0.872967

>  <SCORE.INTRA>
0.701428

>  <SCORE.INTRA.DIHEDRAL>
1.33708

>  <SCORE.INTRA.DIHEDRAL.0>
1.23518

>  <SCORE.INTRA.POLAR>
0

>  <SCORE.INTRA.POLAR.0>
0

>  <SCORE.INTRA.REPUL>
0

>  <SCORE.INTRA.REPUL.0>
0

>  <SCORE.INTRA.VDW>
0.0328892

>  <SCORE.INTRA.VDW.0>
0.668012

>  <SCORE.INTRA.norm>
0.0369173

>  <SCORE.RESTR>
0.256464

>  <SCORE.RESTR.CAVITY>
0.256464

>  <SCORE.RESTR.norm>
0.0134981

>  <SCORE.SYSTEM>
-0.738137

>  <SCORE.SYSTEM.CONST>
0

>  <SCORE.SYSTEM.DIHEDRAL>
0.887835

>  <SCORE.SYSTEM.VDW>
-1.18205

>  <SCORE.SYSTEM.norm>
-0.0388493

>  <SCORE.heavy>
19

>  <SCORE.norm>
-0.861401

$$$$
5281607
  RxDock  02242101563D
librxdock.so/0.1.0
 21 23  0  0  0  0  0  0  0  0999 V2000
  -47.4538    0.2509   13.6400 O   0  0  0  0  0  0
  -48.0116   -4.0480   15.8087 O   0  0  0  0  0  0
  -49.9616   -2.8300   14.5444 O   0  0  0  0  0  0
  -43.8214   -1.8142   15.8942 O   0  0  0  0  0  0
  -47.7936   -1.9041   14.7078 C   0  0  0  0  0  0
  -46.9907   -0.8175   14.3653 C   0  0  0  0  0  0
  -48.7767    0.2436   13.2245 C   0  0  0  0  0  0
  -49.1998   -1.9111   14.2766 C   0  0  0  0  0  0
  -49.1713    1.4421   12.4575 C   0  0  0  0  0  0
  -47.2683   -2.9649   15.4491 C   0  0  0  0  0  0
  -49.6490   -0.7400   13.4969 C   0  0  0  0  0  0
  -45.6541   -0.7853   14.7635 C   0  0  0  0  0  0
  -45.1254   -1.8430   15.5038 C   0  0  0  0  0  0
  -45.9309   -2.9303   15.8457 C   0  0  0  0  0  0
  -48.2519    2.0692   11.6131 C   0  0  0  0  0  0
  -50.4661    1.9542   12.5726 C   0  0  0  0  0  0
  -48.6248    3.2014   10.8886 C   0  0  0  0  0  0
  -50.8392    3.0862   11.8479 C   0  0  0  0  0  0
  -49.9185    3.7098   11.0058 C   0  0  0  0  0  0
  -48.8966   -3.9989   15.4160 H   0  0  0  0  0  0
  -43.5322   -2.7208   16.0954 H   0  0  0  0  0  0
  1  6  1  0  0  0
  1  7  1  0  0  0
  2 10  1  0  0  0
  2 20  1  0  0  0
  3  8  2  0  0  0
  4 13  1  0  0  0
  4 21  1  0  0  0
  5  6  1  0  0  0
  5  8  1  0  0  0
  5 10  2  0  0  0
  6 12  2  0  0  0
  7  9  1  0  0  0
  7 11  2  0  0  0
  8 11  1  0  0  0
  9 15  2  0  0  0
  9 16  1  0  0  0
 10 14  1  0  0  0
 12 13  1  0  0  0
 13 14  2  0  0  0
 15 17  1  0  0  0
 16 18  2  0  0  0
 17 19  2  0  0  0
 18 19  1  0  0  0
M  END
>  <CHROM.0>
59.21027077,64.71615017,62.35303560

>  <CHROM.1>
4.88830663,-159.38982576,34.21165651,-48.00674738,-0.43442139,13.84198932
-2.05816582,0.20851994,2.61673425

>  <Name>
5281607

>  <PUBCHEM_ATOM_DEF_STEREO_COUNT>
0

>  <PUBCHEM_ATOM_UDEF_STEREO_COUNT>
0

>  <PUBCHEM_BOND_DEF_STEREO_COUNT>
0

>  <PUBCHEM_BOND_UDEF_STEREO_COUNT>
0

>  <PUBCHEM_CACTVS_TAUTO_COUNT>
12

>  <PUBCHEM_COMPONENT_COUNT>
1

>  <PUBCHEM_COMPOUND_CID>
5281607

>  <PUBCHEM_CONFORMER_DIVERSEORDER>
1

>  <PUBCHEM_CONFORMER_ID>
0050974700000001

>  <PUBCHEM_CONFORMER_RMSD>
0.6

>  <PUBCHEM_COORDINATE_TYPE>
2
5
10

>  <PUBCHEM_EFFECTIVE_ROTOR_COUNT>
1

>  <PUBCHEM_FEATURE_SELFOVERLAP>
35.55

>  <PUBCHEM_HEAVY_ATOM_COUNT>
19

>  <PUBCHEM_ISOTOPIC_ATOM_COUNT>
0

>  <PUBCHEM_MMFF94_ENERGY>
58.6802

>  <PUBCHEM_MMFF94_PARTIAL_CHARGES>
29
1 -0.16
10 0.08
11 -0.14
12 -0.15
13 0.08
14 -0.15
15 -0.15
16 -0.15
17 -0.15
18 -0.15
19 -0.15
2 -0.53
20 0.15
21 0.15
22 0.15
23 0.15
24 0.15
25 0.15
26 0.15
27 0.15
28 0.45
29 0.45
3 -0.57
4 -0.53
5 0.09
6 0.08
7 0.05
8 0.47
9 0.03

>  <PUBCHEM_PHARMACOPHORE_FEATURES>
7
1 1 acceptor
1 2 donor
1 3 acceptor
1 4 donor
6 1 5 6 7 8 11 rings
6 5 6 10 12 13 14 rings
6 9 15 16 17 18 19 rings

>  <PUBCHEM_SHAPE_FINGERPRINT>
10319926 262 18268127809494919170
10411042 1 18265615579738713891
10493431 412 18197507221146397953
10608611 8 18342171134064233104
10616163 171 18411420583546564262
11132069 177 18409449163297457936
11552529 35 17632292436352682015
12032990 46 18410295851770216003
12236239 1 17458347408211182968
12403259 226 18412821387472877168
13140716 1 18411706521194677761
13214271 11 18343016692438145285
13288520 33 18410857667820642214
13296908 3 18411982472727089118
13675066 3 18273492390518142728
14790565 3 17835527016235198305
14866123 147 16905542407924379514
15042514 8 18408611353328975545
15196674 1 18411136944106257192
15219456 202 18273213084594875086
15352361 1 18338516451385899415
15375358 24 18271805692352254134
17492 89 18409448060024340482
17804303 29 18412829079284446544
17834074 16 18342458115019991270
1813 80 17603588547200830588
18186145 218 15864357977667883748
19141452 34 18272937150226625303
200 152 17418085499329608732
20281475 54 18410863191143420508
20510252 161 18270961232888654944
21065198 57 18341612581977734456
21065199 12 18343580759357389514
21065201 7 18335979788261725250
21267235 1 18409175436536850755
221490 88 18264213680320700032
2297311 6 18341061765380641204
23366157 5 17823981353853568324
23402539 116 18410004433933626846
23557571 272 18341902895859977406
23559900 14 18341328882482245094
23845131 108 17547870555410292105
26918003 58 18201434745125223712
2748010 2 18338507659920037029
2871803 45 18408600357965063606
335352 9 18338517426438382605
34934 24 18335413522403504251
4214541 1 18411700959095601360
474 4 16878802641914734316
5104073 3 18342454829459681514
573450 72 18187353303882126634
67856867 119 18187930638177329652
69090 78 18272364239964106078
7364860 26 17979074113022900857
77779 3 18411982460047818098
8809292 202 18408608049860866890
9709674 26 18271529672084392270

>  <PUBCHEM_SHAPE_MULTIPOLES>
367.53
9.79
2.47
0.67
6.66
0.28
0
-3.3
0.48
-2.43
-0.1
0.26
-0.02
0.74

>  <PUBCHEM_SHAPE_SELFOVERLAP>
822.826

>  <PUBCHEM_SHAPE_VOLUME>
193.3

>  <RI>
-7.46781e+08

>  <Rbt.Current_Directory>
/root/miniconda3/envs/rdock/share/rxdock-2013.1.1_148c5bd1-0/data/ligands/prepped_ligands/Chrysin

>  <Rbt.Executable>
rbdock/0.1.0

>  <Rbt.Library>
librxdock.so/0.1.0

>  <Rbt.Parameter_File>
/root/miniconda3/envs/rdock/share/rxdock-2013.1.1_148c5bd1-0/data/scripts/dock.prm

>  <Rbt.Receptor>
def.prm

>  <SCORE>
-17.9929

>  <SCORE.INTER>
-17.2632

>  <SCORE.INTER.CONST>
1

>  <SCORE.INTER.POLAR>
-0.80851

>  <SCORE.INTER.REPUL>
0

>  <SCORE.INTER.ROT>
1

>  <SCORE.INTER.VDW>
-20.9143

>  <SCORE.INTER.norm>
-0.90859

>  <SCORE.INTRA>
0.247163

>  <SCORE.INTRA.DIHEDRAL>
0.876131

>  <SCORE.INTRA.DIHEDRAL.0>
1.23518

>  <SCORE.INTRA.POLAR>
0

>  <SCORE.INTRA.POLAR.0>
0

>  <SCORE.INTRA.REPUL>
0

>  <SCORE.INTRA.REPUL.0>
0

>  <SCORE.INTRA.VDW>
-0.190903

>  <SCORE.INTRA.VDW.0>
0.668012

>  <SCORE.INTRA.norm>
0.0130086

>  <SCORE.RESTR>
0

>  <SCORE.RESTR.CAVITY>
0

>  <SCORE.RESTR.norm>
0

>  <SCORE.SYSTEM>
-0.976824

>  <SCORE.SYSTEM.CONST>
0

>  <SCORE.SYSTEM.DIHEDRAL>
0.123256

>  <SCORE.SYSTEM.POLAR>
-0.00628065

>  <SCORE.SYSTEM.VDW>
-1.0171

>  <SCORE.SYSTEM.norm>
-0.0514118

>  <SCORE.heavy>
19

>  <SCORE.norm>
-0.946993

$$$$
5281607
  RxDock  02242101563D
librxdock.so/0.1.0
 21 23  0  0  0  0  0  0  0  0999 V2000
  -47.9090    0.4038   13.5327 O   0  0  0  0  0  0
  -48.7340   -3.9801   15.4290 O   0  0  0  0  0  0
  -50.5864   -2.5961   14.1888 O   0  0  0  0  0  0
  -44.4457   -1.9651   15.7540 O   0  0  0  0  0  0
  -48.3821   -1.7896   14.4625 C   0  0  0  0  0  0
  -47.5185   -0.7262   14.2054 C   0  0  0  0  0  0
  -49.2182    0.4860   13.0835 C   0  0  0  0  0  0
  -49.7741   -1.7022   13.9954 C   0  0  0  0  0  0
  -49.5329    1.7447   12.3785 C   0  0  0  0  0  0
  -47.9296   -2.9162   15.1532 C   0  0  0  0  0  0
  -50.1441   -0.4673   13.2748 C   0  0  0  0  0  0
  -46.1939   -0.7833   14.6391 C   0  0  0  0  0  0
  -45.7379   -1.9067   15.3292 C   0  0  0  0  0  0
  -46.6040   -2.9707   15.5855 C   0  0  0  0  0  0
  -50.8422    2.2317   12.3621 C   0  0  0  0  0  0
  -48.5225    2.4545   11.7247 C   0  0  0  0  0  0
  -51.1393    3.4208   11.6961 C   0  0  0  0  0  0
  -48.8195    3.6438   11.0590 C   0  0  0  0  0  0
  -50.1279    4.1269   11.0447 C   0  0  0  0  0  0
  -49.5252   -3.9626   14.8691 H   0  0  0  0  0  0
  -43.9455   -1.2391   15.3435 H   0  0  0  0  0  0
  1  6  1  0  0  0
  1  7  1  0  0  0
  2 10  1  0  0  0
  2 20  1  0  0  0
  3  8  2  0  0  0
  4 13  1  0  0  0
  4 21  1  0  0  0
  5  6  1  0  0  0
  5  8  1  0  0  0
  5 10  2  0  0  0
  6 12  2  0  0  0
  7  9  1  0  0  0
  7 11  2  0  0  0
  8 11  1  0  0  0
  9 15  2  0  0  0
  9 16  1  0  0  0
 10 14  1  0  0  0
 12 13  1  0  0  0
 13 14  2  0  0  0
 15 17  1  0  0  0
 16 18  2  0  0  0
 17 19  2  0  0  0
 18 19  1  0  0  0
M  END
>  <CHROM.0>
-57.31632300,67.60873016,57.52165112

>  <CHROM.1>
17.17069749,-11.30701249,-153.21126216,-48.49820519,-0.25757478,13.67675845
-2.00279741,0.22004070,2.66781089

>  <Name>
5281607

>  <PUBCHEM_ATOM_DEF_STEREO_COUNT>
0

>  <PUBCHEM_ATOM_UDEF_STEREO_COUNT>
0

>  <PUBCHEM_BOND_DEF_STEREO_COUNT>
0

>  <PUBCHEM_BOND_UDEF_STEREO_COUNT>
0

>  <PUBCHEM_CACTVS_TAUTO_COUNT>
12

>  <PUBCHEM_COMPONENT_COUNT>
1

>  <PUBCHEM_COMPOUND_CID>
5281607

>  <PUBCHEM_CONFORMER_DIVERSEORDER>
1

>  <PUBCHEM_CONFORMER_ID>
0050974700000001

>  <PUBCHEM_CONFORMER_RMSD>
0.6

>  <PUBCHEM_COORDINATE_TYPE>
2
5
10

>  <PUBCHEM_EFFECTIVE_ROTOR_COUNT>
1

>  <PUBCHEM_FEATURE_SELFOVERLAP>
35.55

>  <PUBCHEM_HEAVY_ATOM_COUNT>
19

>  <PUBCHEM_ISOTOPIC_ATOM_COUNT>
0

>  <PUBCHEM_MMFF94_ENERGY>
58.6802

>  <PUBCHEM_MMFF94_PARTIAL_CHARGES>
29
1 -0.16
10 0.08
11 -0.14
12 -0.15
13 0.08
14 -0.15
15 -0.15
16 -0.15
17 -0.15
18 -0.15
19 -0.15
2 -0.53
20 0.15
21 0.15
22 0.15
23 0.15
24 0.15
25 0.15
26 0.15
27 0.15
28 0.45
29 0.45
3 -0.57
4 -0.53
5 0.09
6 0.08
7 0.05
8 0.47
9 0.03

>  <PUBCHEM_PHARMACOPHORE_FEATURES>
7
1 1 acceptor
1 2 donor
1 3 acceptor
1 4 donor
6 1 5 6 7 8 11 rings
6 5 6 10 12 13 14 rings
6 9 15 16 17 18 19 rings

>  <PUBCHEM_SHAPE_FINGERPRINT>
10319926 262 18268127809494919170
10411042 1 18265615579738713891
10493431 412 18197507221146397953
10608611 8 18342171134064233104
10616163 171 18411420583546564262
11132069 177 18409449163297457936
11552529 35 17632292436352682015
12032990 46 18410295851770216003
12236239 1 17458347408211182968
12403259 226 18412821387472877168
13140716 1 18411706521194677761
13214271 11 18343016692438145285
13288520 33 18410857667820642214
13296908 3 18411982472727089118
13675066 3 18273492390518142728
14790565 3 17835527016235198305
14866123 147 16905542407924379514
15042514 8 18408611353328975545
15196674 1 18411136944106257192
15219456 202 18273213084594875086
15352361 1 18338516451385899415
15375358 24 18271805692352254134
17492 89 18409448060024340482
17804303 29 18412829079284446544
17834074 16 18342458115019991270
1813 80 17603588547200830588
18186145 218 15864357977667883748
19141452 34 18272937150226625303
200 152 17418085499329608732
20281475 54 18410863191143420508
20510252 161 18270961232888654944
21065198 57 18341612581977734456
21065199 12 18343580759357389514
21065201 7 18335979788261725250
21267235 1 18409175436536850755
221490 88 18264213680320700032
2297311 6 18341061765380641204
23366157 5 17823981353853568324
23402539 116 18410004433933626846
23557571 272 18341902895859977406
23559900 14 18341328882482245094
23845131 108 17547870555410292105
26918003 58 18201434745125223712
2748010 2 18338507659920037029
2871803 45 18408600357965063606
335352 9 18338517426438382605
34934 24 18335413522403504251
4214541 1 18411700959095601360
474 4 16878802641914734316
5104073 3 18342454829459681514
573450 72 18187353303882126634
67856867 119 18187930638177329652
69090 78 18272364239964106078
7364860 26 17979074113022900857
77779 3 18411982460047818098
8809292 202 18408608049860866890
9709674 26 18271529672084392270

>  <PUBCHEM_SHAPE_MULTIPOLES>
367.53
9.79
2.47
0.67
6.66
0.28
0
-3.3
0.48
-2.43
-0.1
0.26
-0.02
0.74

>  <PUBCHEM_SHAPE_SELFOVERLAP>
822.826

>  <PUBCHEM_SHAPE_VOLUME>
193.3

>  <RI>
-7.46781e+08

>  <Rbt.Current_Directory>
/root/miniconda3/envs/rdock/share/rxdock-2013.1.1_148c5bd1-0/data/ligands/prepped_ligands/Chrysin

>  <Rbt.Executable>
rbdock/0.1.0

>  <Rbt.Library>
librxdock.so/0.1.0

>  <Rbt.Parameter_File>
/root/miniconda3/envs/rdock/share/rxdock-2013.1.1_148c5bd1-0/data/scripts/dock.prm

>  <Rbt.Receptor>
def.prm

>  <SCORE>
-17.1015

>  <SCORE.INTER>
-16.2587

>  <SCORE.INTER.CONST>
1

>  <SCORE.INTER.POLAR>
-0.412768

>  <SCORE.INTER.REPUL>
0

>  <SCORE.INTER.ROT>
1

>  <SCORE.INTER.VDW>
-21.2553

>  <SCORE.INTER.norm>
-0.855719

>  <SCORE.INTRA>
0.110972

>  <SCORE.INTRA.DIHEDRAL>
0.310383

>  <SCORE.INTRA.DIHEDRAL.0>
1.23518

>  <SCORE.INTRA.POLAR>
0

>  <SCORE.INTRA.POLAR.0>
0

>  <SCORE.INTRA.REPUL>
0

>  <SCORE.INTRA.REPUL.0>
0

>  <SCORE.INTRA.VDW>
-0.0442199

>  <SCORE.INTRA.VDW.0>
0.668012

>  <SCORE.INTRA.norm>
0.00584062

>  <SCORE.RESTR>
0

>  <SCORE.RESTR.CAVITY>
0

>  <SCORE.RESTR.norm>
0

>  <SCORE.SYSTEM>
-0.953759

>  <SCORE.SYSTEM.CONST>
0

>  <SCORE.SYSTEM.DIHEDRAL>
0.315044

>  <SCORE.SYSTEM.VDW>
-1.11128

>  <SCORE.SYSTEM.norm>
-0.0501979

>  <SCORE.heavy>
19

>  <SCORE.norm>
-0.900077

$$$$
5281607
  RxDock  02242101563D
librxdock.so/0.1.0
 21 23  0  0  0  0  0  0  0  0999 V2000
  -53.8240   -4.9431   16.1438 O   0  0  0  0  0  0
  -54.0000   -9.7835   16.3270 O   0  0  0  0  0  0
  -52.3495   -8.3646   17.7923 O   0  0  0  0  0  0
  -56.8665   -7.3611   13.4168 O   0  0  0  0  0  0
  -53.8668   -7.3678   16.2796 C   0  0  0  0  0  0
  -54.3244   -6.1600   15.7556 C   0  0  0  0  0  0
  -52.8248   -4.9158   17.1048 C   0  0  0  0  0  0
  -52.8006   -7.3433   17.2925 C   0  0  0  0  0  0
  -52.3555   -3.5574   17.4440 C   0  0  0  0  0  0
  -54.4130   -8.5781   15.8462 C   0  0  0  0  0  0
  -52.2976   -6.0093   17.6781 C   0  0  0  0  0  0
  -55.3334   -6.1555   14.7924 C   0  0  0  0  0  0
  -55.8819   -7.3622   14.3570 C   0  0  0  0  0  0
  -55.4225   -8.5706   14.8829 C   0  0  0  0  0  0
  -52.5129   -3.0640   18.7416 C   0  0  0  0  0  0
  -51.7518   -2.7595   16.4689 C   0  0  0  0  0  0
  -52.0695   -1.7808   19.0619 C   0  0  0  0  0  0
  -51.3081   -1.4764   16.7893 C   0  0  0  0  0  0
  -51.4670   -0.9871   18.0858 C   0  0  0  0  0  0
  -54.6357  -10.4780   16.0959 H   0  0  0  0  0  0
  -57.1624   -8.2756   13.2686 H   0  0  0  0  0  0
  1  6  1  0  0  0
  1  7  1  0  0  0
  2 10  1  0  0  0
  2 20  1  0  0  0
  3  8  2  0  0  0
  4 13  1  0  0  0
  4 21  1  0  0  0
  5  6  1  0  0  0
  5  8  1  0  0  0
  5 10  2  0  0  0
  6 12  2  0  0  0
  7  9  1  0  0  0
  7 11  2  0  0  0
  8 11  1  0  0  0
  9 15  2  0  0  0
  9 16  1  0  0  0
 10 14  1  0  0  0
 12 13  1  0  0  0
 13 14  2  0  0  0
 15 17  1  0  0  0
 16 18  2  0  0  0
 17 19  2  0  0  0
 18 19  1  0  0  0
M  END
>  <CHROM.0>
64.56852192,62.76075772,-61.26288581

>  <CHROM.1>
165.01207020,-176.96235369,117.53875566,-53.50436605,-5.70741390,16.50295431
0.87314262,-0.81088216,-0.12749430

>  <Name>
5281607

>  <PUBCHEM_ATOM_DEF_STEREO_COUNT>
0

>  <PUBCHEM_ATOM_UDEF_STEREO_COUNT>
0

>  <PUBCHEM_BOND_DEF_STEREO_COUNT>
0

>  <PUBCHEM_BOND_UDEF_STEREO_COUNT>
0

>  <PUBCHEM_CACTVS_TAUTO_COUNT>
12

>  <PUBCHEM_COMPONENT_COUNT>
1

>  <PUBCHEM_COMPOUND_CID>
5281607

>  <PUBCHEM_CONFORMER_DIVERSEORDER>
1

>  <PUBCHEM_CONFORMER_ID>
0050974700000001

>  <PUBCHEM_CONFORMER_RMSD>
0.6

>  <PUBCHEM_COORDINATE_TYPE>
2
5
10

>  <PUBCHEM_EFFECTIVE_ROTOR_COUNT>
1

>  <PUBCHEM_FEATURE_SELFOVERLAP>
35.55

>  <PUBCHEM_HEAVY_ATOM_COUNT>
19

>  <PUBCHEM_ISOTOPIC_ATOM_COUNT>
0

>  <PUBCHEM_MMFF94_ENERGY>
58.6802

>  <PUBCHEM_MMFF94_PARTIAL_CHARGES>
29
1 -0.16
10 0.08
11 -0.14
12 -0.15
13 0.08
14 -0.15
15 -0.15
16 -0.15
17 -0.15
18 -0.15
19 -0.15
2 -0.53
20 0.15
21 0.15
22 0.15
23 0.15
24 0.15
25 0.15
26 0.15
27 0.15
28 0.45
29 0.45
3 -0.57
4 -0.53
5 0.09
6 0.08
7 0.05
8 0.47
9 0.03

>  <PUBCHEM_PHARMACOPHORE_FEATURES>
7
1 1 acceptor
1 2 donor
1 3 acceptor
1 4 donor
6 1 5 6 7 8 11 rings
6 5 6 10 12 13 14 rings
6 9 15 16 17 18 19 rings

>  <PUBCHEM_SHAPE_FINGERPRINT>
10319926 262 18268127809494919170
10411042 1 18265615579738713891
10493431 412 18197507221146397953
10608611 8 18342171134064233104
10616163 171 18411420583546564262
11132069 177 18409449163297457936
11552529 35 17632292436352682015
12032990 46 18410295851770216003
12236239 1 17458347408211182968
12403259 226 18412821387472877168
13140716 1 18411706521194677761
13214271 11 18343016692438145285
13288520 33 18410857667820642214
13296908 3 18411982472727089118
13675066 3 18273492390518142728
14790565 3 17835527016235198305
14866123 147 16905542407924379514
15042514 8 18408611353328975545
15196674 1 18411136944106257192
15219456 202 18273213084594875086
15352361 1 18338516451385899415
15375358 24 18271805692352254134
17492 89 18409448060024340482
17804303 29 18412829079284446544
17834074 16 18342458115019991270
1813 80 17603588547200830588
18186145 218 15864357977667883748
19141452 34 18272937150226625303
200 152 17418085499329608732
20281475 54 18410863191143420508
20510252 161 18270961232888654944
21065198 57 18341612581977734456
21065199 12 18343580759357389514
21065201 7 18335979788261725250
21267235 1 18409175436536850755
221490 88 18264213680320700032
2297311 6 18341061765380641204
23366157 5 17823981353853568324
23402539 116 18410004433933626846
23557571 272 18341902895859977406
23559900 14 18341328882482245094
23845131 108 17547870555410292105
26918003 58 18201434745125223712
2748010 2 18338507659920037029
2871803 45 18408600357965063606
335352 9 18338517426438382605
34934 24 18335413522403504251
4214541 1 18411700959095601360
474 4 16878802641914734316
5104073 3 18342454829459681514
573450 72 18187353303882126634
67856867 119 18187930638177329652
69090 78 18272364239964106078
7364860 26 17979074113022900857
77779 3 18411982460047818098
8809292 202 18408608049860866890
9709674 26 18271529672084392270

>  <PUBCHEM_SHAPE_MULTIPOLES>
367.53
9.79
2.47
0.67
6.66
0.28
0
-3.3
0.48
-2.43
-0.1
0.26
-0.02
0.74

>  <PUBCHEM_SHAPE_SELFOVERLAP>
822.826

>  <PUBCHEM_SHAPE_VOLUME>
193.3

>  <RI>
-7.46781e+08

>  <Rbt.Current_Directory>
/root/miniconda3/envs/rdock/share/rxdock-2013.1.1_148c5bd1-0/data/ligands/prepped_ligands/Chrysin

>  <Rbt.Executable>
rbdock/0.1.0

>  <Rbt.Library>
librxdock.so/0.1.0

>  <Rbt.Parameter_File>
/root/miniconda3/envs/rdock/share/rxdock-2013.1.1_148c5bd1-0/data/scripts/dock.prm

>  <Rbt.Receptor>
def.prm

>  <SCORE>
-16.8166

>  <SCORE.INTER>
-16.8016

>  <SCORE.INTER.CONST>
1

>  <SCORE.INTER.POLAR>
-1.18145

>  <SCORE.INTER.REPUL>
0

>  <SCORE.INTER.ROT>
1

>  <SCORE.INTER.VDW>
-19.1847

>  <SCORE.INTER.norm>
-0.884297

>  <SCORE.INTRA>
0.961779

>  <SCORE.INTRA.DIHEDRAL>
2.90577

>  <SCORE.INTRA.DIHEDRAL.0>
1.23518

>  <SCORE.INTRA.POLAR>
0

>  <SCORE.INTRA.POLAR.0>
0

>  <SCORE.INTRA.REPUL>
0

>  <SCORE.INTRA.REPUL.0>
0

>  <SCORE.INTRA.VDW>
-0.491106

>  <SCORE.INTRA.VDW.0>
0.668012

>  <SCORE.INTRA.norm>
0.05062

>  <SCORE.RESTR>
0

>  <SCORE.RESTR.CAVITY>
0

>  <SCORE.RESTR.norm>
0

>  <SCORE.SYSTEM>
-0.976722

>  <SCORE.SYSTEM.CONST>
0

>  <SCORE.SYSTEM.DIHEDRAL>
0.0906161

>  <SCORE.SYSTEM.VDW>
-1.02203

>  <SCORE.SYSTEM.norm>
-0.0514064

>  <SCORE.heavy>
19

>  <SCORE.norm>
-0.885084

$$$$
5281607
  RxDock  02242101563D
librxdock.so/0.1.0
 21 23  0  0  0  0  0  0  0  0999 V2000
  -49.7590   -3.6238   15.4929 O   0  0  0  0  0  0
  -48.0045    0.3233   13.2937 O   0  0  0  0  0  0
  -50.5156   -0.4130   13.1018 O   0  0  0  0  0  0
  -45.1838   -2.4360   15.9365 O   0  0  0  0  0  0
  -48.9375   -1.6342   14.3678 C   0  0  0  0  0  0
  -48.7476   -2.7520   15.1784 C   0  0  0  0  0  0
  -51.0261   -3.3758   14.9872 C   0  0  0  0  0  0
  -50.2781   -1.3728   13.8221 C   0  0  0  0  0  0
  -52.0365   -4.3776   15.3820 C   0  0  0  0  0  0
  -47.8701   -0.7805   14.0800 C   0  0  0  0  0  0
  -51.3326   -2.3387   14.1917 C   0  0  0  0  0  0
  -47.4856   -3.0236   15.7070 C   0  0  0  0  0  0
  -46.4167   -2.1733   15.4223 C   0  0  0  0  0  0
  -46.6088   -1.0543   14.6106 C   0  0  0  0  0  0
  -51.6649   -5.4846   16.1490 C   0  0  0  0  0  0
  -53.3687   -4.2230   14.9904 C   0  0  0  0  0  0
  -52.6195   -6.4310   16.5220 C   0  0  0  0  0  0
  -54.3233   -5.1691   15.3636 C   0  0  0  0  0  0
  -53.9487   -6.2731   16.1294 C   0  0  0  0  0  0
  -48.9224    0.4200   12.9970 H   0  0  0  0  0  0
  -45.2340   -3.2398   16.4817 H   0  0  0  0  0  0
  1  6  1  0  0  0
  1  7  1  0  0  0
  2 10  1  0  0  0
  2 20  1  0  0  0
  3  8  2  0  0  0
  4 13  1  0  0  0
  4 21  1  0  0  0
  5  6  1  0  0  0
  5  8  1  0  0  0
  5 10  2  0  0  0
  6 12  2  0  0  0
  7  9  1  0  0  0
  7 11  2  0  0  0
  8 11  1  0  0  0
  9 15  2  0  0  0
  9 16  1  0  0  0
 10 14  1  0  0  0
 12 13  1  0  0  0
 13 14  2  0  0  0
 15 17  1  0  0  0
 16 18  2  0  0  0
 17 19  2  0  0  0
 18 19  1  0  0  0
M  END
>  <CHROM.0>
-58.94328125,-65.85931533,175.92172293

>  <CHROM.1>
1.01927821,-0.70851475,-2.67355913,-49.92529809,-2.91696322,14.96548897,-2.56516979
-0.21918402,-0.59000868

>  <Name>
5281607

>  <PUBCHEM_ATOM_DEF_STEREO_COUNT>
0

>  <PUBCHEM_ATOM_UDEF_STEREO_COUNT>
0

>  <PUBCHEM_BOND_DEF_STEREO_COUNT>
0

>  <PUBCHEM_BOND_UDEF_STEREO_COUNT>
0

>  <PUBCHEM_CACTVS_TAUTO_COUNT>
12

>  <PUBCHEM_COMPONENT_COUNT>
1

>  <PUBCHEM_COMPOUND_CID>
5281607

>  <PUBCHEM_CONFORMER_DIVERSEORDER>
1

>  <PUBCHEM_CONFORMER_ID>
0050974700000001

>  <PUBCHEM_CONFORMER_RMSD>
0.6

>  <PUBCHEM_COORDINATE_TYPE>
2
5
10

>  <PUBCHEM_EFFECTIVE_ROTOR_COUNT>
1

>  <PUBCHEM_FEATURE_SELFOVERLAP>
35.55

>  <PUBCHEM_HEAVY_ATOM_COUNT>
19

>  <PUBCHEM_ISOTOPIC_ATOM_COUNT>
0

>  <PUBCHEM_MMFF94_ENERGY>
58.6802

>  <PUBCHEM_MMFF94_PARTIAL_CHARGES>
29
1 -0.16
10 0.08
11 -0.14
12 -0.15
13 0.08
14 -0.15
15 -0.15
16 -0.15
17 -0.15
18 -0.15
19 -0.15
2 -0.53
20 0.15
21 0.15
22 0.15
23 0.15
24 0.15
25 0.15
26 0.15
27 0.15
28 0.45
29 0.45
3 -0.57
4 -0.53
5 0.09
6 0.08
7 0.05
8 0.47
9 0.03

>  <PUBCHEM_PHARMACOPHORE_FEATURES>
7
1 1 acceptor
1 2 donor
1 3 acceptor
1 4 donor
6 1 5 6 7 8 11 rings
6 5 6 10 12 13 14 rings
6 9 15 16 17 18 19 rings

>  <PUBCHEM_SHAPE_FINGERPRINT>
10319926 262 18268127809494919170
10411042 1 18265615579738713891
10493431 412 18197507221146397953
10608611 8 18342171134064233104
10616163 171 18411420583546564262
11132069 177 18409449163297457936
11552529 35 17632292436352682015
12032990 46 18410295851770216003
12236239 1 17458347408211182968
12403259 226 18412821387472877168
13140716 1 18411706521194677761
13214271 11 18343016692438145285
13288520 33 18410857667820642214
13296908 3 18411982472727089118
13675066 3 18273492390518142728
14790565 3 17835527016235198305
14866123 147 16905542407924379514
15042514 8 18408611353328975545
15196674 1 18411136944106257192
15219456 202 18273213084594875086
15352361 1 18338516451385899415
15375358 24 18271805692352254134
17492 89 18409448060024340482
17804303 29 18412829079284446544
17834074 16 18342458115019991270
1813 80 17603588547200830588
18186145 218 15864357977667883748
19141452 34 18272937150226625303
200 152 17418085499329608732
20281475 54 18410863191143420508
20510252 161 18270961232888654944
21065198 57 18341612581977734456
21065199 12 18343580759357389514
21065201 7 18335979788261725250
21267235 1 18409175436536850755
221490 88 18264213680320700032
2297311 6 18341061765380641204
23366157 5 17823981353853568324
23402539 116 18410004433933626846
23557571 272 18341902895859977406
23559900 14 18341328882482245094
23845131 108 17547870555410292105
26918003 58 18201434745125223712
2748010 2 18338507659920037029
2871803 45 18408600357965063606
335352 9 18338517426438382605
34934 24 18335413522403504251
4214541 1 18411700959095601360
474 4 16878802641914734316
5104073 3 18342454829459681514
573450 72 18187353303882126634
67856867 119 18187930638177329652
69090 78 18272364239964106078
7364860 26 17979074113022900857
77779 3 18411982460047818098
8809292 202 18408608049860866890
9709674 26 18271529672084392270

>  <PUBCHEM_SHAPE_MULTIPOLES>
367.53
9.79
2.47
0.67
6.66
0.28
0
-3.3
0.48
-2.43
-0.1
0.26
-0.02
0.74

>  <PUBCHEM_SHAPE_SELFOVERLAP>
822.826

>  <PUBCHEM_SHAPE_VOLUME>
193.3

>  <RI>
-7.46781e+08

>  <Rbt.Current_Directory>
/root/miniconda3/envs/rdock/share/rxdock-2013.1.1_148c5bd1-0/data/ligands/prepped_ligands/Chrysin

>  <Rbt.Executable>
rbdock/0.1.0

>  <Rbt.Library>
librxdock.so/0.1.0

>  <Rbt.Parameter_File>
/root/miniconda3/envs/rdock/share/rxdock-2013.1.1_148c5bd1-0/data/scripts/dock.prm

>  <Rbt.Receptor>
def.prm

>  <SCORE>
-15.9695

>  <SCORE.INTER>
-14.7631

>  <SCORE.INTER.CONST>
1

>  <SCORE.INTER.POLAR>
-1.328

>  <SCORE.INTER.REPUL>
0.006149

>  <SCORE.INTER.ROT>
1

>  <SCORE.INTER.VDW>
-16.6786

>  <SCORE.INTER.norm>
-0.777005

>  <SCORE.INTRA>
-0.161159

>  <SCORE.INTRA.DIHEDRAL>
-1.21822

>  <SCORE.INTRA.DIHEDRAL.0>
1.23518

>  <SCORE.INTRA.POLAR>
0

>  <SCORE.INTRA.POLAR.0>
0

>  <SCORE.INTRA.REPUL>
0

>  <SCORE.INTRA.REPUL.0>
0

>  <SCORE.INTRA.VDW>
0.447949

>  <SCORE.INTRA.VDW.0>
0.668012

>  <SCORE.INTRA.norm>
-0.00848207

>  <SCORE.RESTR>
0

>  <SCORE.RESTR.CAVITY>
0

>  <SCORE.RESTR.norm>
0

>  <SCORE.SYSTEM>
-1.04528

>  <SCORE.SYSTEM.CONST>
0

>  <SCORE.SYSTEM.DIHEDRAL>
0.214451

>  <SCORE.SYSTEM.VDW>
-1.15251

>  <SCORE.SYSTEM.norm>
-0.0550148

>  <SCORE.heavy>
19

>  <SCORE.norm>
-0.840502

$$$$
5281607
  RxDock  02242101563D
librxdock.so/0.1.0
 21 23  0  0  0  0  0  0  0  0999 V2000
  -53.1873   -4.8627   16.8406 O   0  0  0  0  0  0
  -53.8439   -9.6453   16.4043 O   0  0  0  0  0  0
  -51.6750   -8.5973   17.4444 O   0  0  0  0  0  0
  -57.1712   -6.5958   14.9262 O   0  0  0  0  0  0
  -53.4598   -7.2686   16.6488 C   0  0  0  0  0  0
  -53.9165   -5.9639   16.4699 C   0  0  0  0  0  0
  -51.9454   -5.0590   17.4254 C   0  0  0  0  0  0
  -52.1391   -7.4805   17.2605 C   0  0  0  0  0  0
  -51.2446   -3.8084   17.7796 C   0  0  0  0  0  0
  -54.2455   -8.3529   16.2513 C   0  0  0  0  0  0
  -51.3950   -6.2638   17.6440 C   0  0  0  0  0  0
  -55.1647   -5.7354   15.8905 C   0  0  0  0  0  0
  -55.9527   -6.8157   15.4922 C   0  0  0  0  0  0
  -55.4939   -8.1214   15.6724 C   0  0  0  0  0  0
  -51.8707   -2.5744   17.5879 C   0  0  0  0  0  0
  -49.9520   -3.8537   18.3081 C   0  0  0  0  0  0
  -51.2086   -1.3931   17.9225 C   0  0  0  0  0  0
  -49.2899   -2.6726   18.6430 C   0  0  0  0  0  0
  -49.9182   -1.4422   18.4502 C   0  0  0  0  0  0
  -54.5258  -10.2540   16.0815 H   0  0  0  0  0  0
  -57.5674   -5.8036   15.3278 H   0  0  0  0  0  0
  1  6  1  0  0  0
  1  7  1  0  0  0
  2 10  1  0  0  0
  2 20  1  0  0  0
  3  8  2  0  0  0
  4 13  1  0  0  0
  4 21  1  0  0  0
  5  6  1  0  0  0
  5  8  1  0  0  0
  5 10  2  0  0  0
  6 12  2  0  0  0
  7  9  1  0  0  0
  7 11  2  0  0  0
  8 11  1  0  0  0
  9 15  2  0  0  0
  9 16  1  0  0  0
 10 14  1  0  0  0
 12 13  1  0  0  0
 13 14  2  0  0  0
 15 17  1  0  0  0
 16 18  2  0  0  0
 17 19  2  0  0  0
 18 19  1  0  0  0
M  END
>  <CHROM.0>
-175.35544529,-64.25388494,67.74017935

>  <CHROM.1>
179.24973692,-33.88163087,3.55945978,-52.86103198,-5.68833441,16.97155538
0.80766351,-0.42982802,0.03243603

>  <Name>
5281607

>  <PUBCHEM_ATOM_DEF_STEREO_COUNT>
0

>  <PUBCHEM_ATOM_UDEF_STEREO_COUNT>
0

>  <PUBCHEM_BOND_DEF_STEREO_COUNT>
0

>  <PUBCHEM_BOND_UDEF_STEREO_COUNT>
0

>  <PUBCHEM_CACTVS_TAUTO_COUNT>
12

>  <PUBCHEM_COMPONENT_COUNT>
1

>  <PUBCHEM_COMPOUND_CID>
5281607

>  <PUBCHEM_CONFORMER_DIVERSEORDER>
1

>  <PUBCHEM_CONFORMER_ID>
0050974700000001

>  <PUBCHEM_CONFORMER_RMSD>
0.6

>  <PUBCHEM_COORDINATE_TYPE>
2
5
10

>  <PUBCHEM_EFFECTIVE_ROTOR_COUNT>
1

>  <PUBCHEM_FEATURE_SELFOVERLAP>
35.55

>  <PUBCHEM_HEAVY_ATOM_COUNT>
19

>  <PUBCHEM_ISOTOPIC_ATOM_COUNT>
0

>  <PUBCHEM_MMFF94_ENERGY>
58.6802

>  <PUBCHEM_MMFF94_PARTIAL_CHARGES>
29
1 -0.16
10 0.08
11 -0.14
12 -0.15
13 0.08
14 -0.15
15 -0.15
16 -0.15
17 -0.15
18 -0.15
19 -0.15
2 -0.53
20 0.15
21 0.15
22 0.15
23 0.15
24 0.15
25 0.15
26 0.15
27 0.15
28 0.45
29 0.45
3 -0.57
4 -0.53
5 0.09
6 0.08
7 0.05
8 0.47
9 0.03

>  <PUBCHEM_PHARMACOPHORE_FEATURES>
7
1 1 acceptor
1 2 donor
1 3 acceptor
1 4 donor
6 1 5 6 7 8 11 rings
6 5 6 10 12 13 14 rings
6 9 15 16 17 18 19 rings

>  <PUBCHEM_SHAPE_FINGERPRINT>
10319926 262 18268127809494919170
10411042 1 18265615579738713891
10493431 412 18197507221146397953
10608611 8 18342171134064233104
10616163 171 18411420583546564262
11132069 177 18409449163297457936
11552529 35 17632292436352682015
12032990 46 18410295851770216003
12236239 1 17458347408211182968
12403259 226 18412821387472877168
13140716 1 18411706521194677761
13214271 11 18343016692438145285
13288520 33 18410857667820642214
13296908 3 18411982472727089118
13675066 3 18273492390518142728
14790565 3 17835527016235198305
14866123 147 16905542407924379514
15042514 8 18408611353328975545
15196674 1 18411136944106257192
15219456 202 18273213084594875086
15352361 1 18338516451385899415
15375358 24 18271805692352254134
17492 89 18409448060024340482
17804303 29 18412829079284446544
17834074 16 18342458115019991270
1813 80 17603588547200830588
18186145 218 15864357977667883748
19141452 34 18272937150226625303
200 152 17418085499329608732
20281475 54 18410863191143420508
20510252 161 18270961232888654944
21065198 57 18341612581977734456
21065199 12 18343580759357389514
21065201 7 18335979788261725250
21267235 1 18409175436536850755
221490 88 18264213680320700032
2297311 6 18341061765380641204
23366157 5 17823981353853568324
23402539 116 18410004433933626846
23557571 272 18341902895859977406
23559900 14 18341328882482245094
23845131 108 17547870555410292105
26918003 58 18201434745125223712
2748010 2 18338507659920037029
2871803 45 18408600357965063606
335352 9 18338517426438382605
34934 24 18335413522403504251
4214541 1 18411700959095601360
474 4 16878802641914734316
5104073 3 18342454829459681514
573450 72 18187353303882126634
67856867 119 18187930638177329652
69090 78 18272364239964106078
7364860 26 17979074113022900857
77779 3 18411982460047818098
8809292 202 18408608049860866890
9709674 26 18271529672084392270

>  <PUBCHEM_SHAPE_MULTIPOLES>
367.53
9.79
2.47
0.67
6.66
0.28
0
-3.3
0.48
-2.43
-0.1
0.26
-0.02
0.74

>  <PUBCHEM_SHAPE_SELFOVERLAP>
822.826

>  <PUBCHEM_SHAPE_VOLUME>
193.3

>  <RI>
-7.46781e+08

>  <Rbt.Current_Directory>
/root/miniconda3/envs/rdock/share/rxdock-2013.1.1_148c5bd1-0/data/ligands/prepped_ligands/Chrysin

>  <Rbt.Executable>
rbdock/0.1.0

>  <Rbt.Library>
librxdock.so/0.1.0

>  <Rbt.Parameter_File>
/root/miniconda3/envs/rdock/share/rxdock-2013.1.1_148c5bd1-0/data/scripts/dock.prm

>  <Rbt.Receptor>
def.prm

>  <SCORE>
-13.209

>  <SCORE.INTER>
-12.8615

>  <SCORE.INTER.CONST>
1

>  <SCORE.INTER.POLAR>
-1.11032

>  <SCORE.INTER.REPUL>
0

>  <SCORE.INTER.ROT>
1

>  <SCORE.INTER.VDW>
-15.4864

>  <SCORE.INTER.norm>
-0.676923

>  <SCORE.INTRA>
0.566191

>  <SCORE.INTRA.DIHEDRAL>
0.270383

>  <SCORE.INTRA.DIHEDRAL.0>
1.23518

>  <SCORE.INTRA.POLAR>
0

>  <SCORE.INTRA.POLAR.0>
0

>  <SCORE.INTRA.REPUL>
0

>  <SCORE.INTRA.REPUL.0>
0

>  <SCORE.INTRA.VDW>
0.431

>  <SCORE.INTRA.VDW.0>
0.668012

>  <SCORE.INTRA.norm>
0.0297995

>  <SCORE.RESTR>
0

>  <SCORE.RESTR.CAVITY>
0

>  <SCORE.RESTR.norm>
0

>  <SCORE.SYSTEM>
-0.913648

>  <SCORE.SYSTEM.CONST>
0

>  <SCORE.SYSTEM.DIHEDRAL>
0.278353

>  <SCORE.SYSTEM.POLAR>
-0.0146206

>  <SCORE.SYSTEM.VDW>
-1.00311

>  <SCORE.SYSTEM.norm>
-0.0480867

>  <SCORE.heavy>
19

>  <SCORE.norm>
-0.69521

$$$$
