5281607
  RxDock  02242101123D
librxdock.so/0.1.0
 21 23  0  0  0  0  0  0  0  0999 V2000
  -47.4828    0.3769   13.5792 O   0  0  0  0  0  0
  -47.9682   -3.9087   15.7912 O   0  0  0  0  0  0
  -49.9621   -2.6920   14.5960 O   0  0  0  0  0  0
  -43.7720   -1.6864   15.7036 O   0  0  0  0  0  0
  -47.7870   -1.7713   14.6711 C   0  0  0  0  0  0
  -46.9949   -0.6889   14.2920 C   0  0  0  0  0  0
  -48.8206    0.3711   13.2148 C   0  0  0  0  0  0
  -49.2087   -1.7767   14.2942 C   0  0  0  0  0  0
  -49.2413    1.5666   12.4569 C   0  0  0  0  0  0
  -47.2364   -2.8297   15.3974 C   0  0  0  0  0  0
  -49.6844   -0.6085   13.5259 C   0  0  0  0  0  0
  -45.6440   -0.6584   14.6385 C   0  0  0  0  0  0
  -45.0900   -1.7136   15.3638 C   0  0  0  0  0  0
  -45.8846   -2.7967   15.7423 C   0  0  0  0  0  0
  -50.5464    2.0502   12.5766 C   0  0  0  0  0  0
  -48.3358    2.2194   11.6167 C   0  0  0  0  0  0
  -50.9437    3.1795   11.8606 C   0  0  0  0  0  0
  -48.7329    3.3489   10.9009 C   0  0  0  0  0  0
  -50.0369    3.8289   11.0228 C   0  0  0  0  0  0
  -47.4365   -4.4943   16.3517 H   0  0  0  0  0  0
  -43.4793   -2.5918   15.9048 H   0  0  0  0  0  0
  1  6  1  0  0  0
  1  7  1  0  0  0
  2 10  1  0  0  0
  2 20  1  0  0  0
  3  8  2  0  0  0
  4 13  1  0  0  0
  4 21  1  0  0  0
  5  6  1  0  0  0
  5  8  1  0  0  0
  5 10  2  0  0  0
  6 12  2  0  0  0
  7  9  1  0  0  0
  7 11  2  0  0  0
  8 11  1  0  0  0
  9 15  2  0  0  0
  9 16  1  0  0  0
 10 14  1  0  0  0
 12 13  1  0  0  0
 13 14  2  0  0  0
 15 17  1  0  0  0
 16 18  2  0  0  0
 17 19  2  0  0  0
 18 19  1  0  0  0
M  END
>  <CHROM.0>
-178.83219264,61.89886973,177.86987500

>  <CHROM.1>
-174.72386487,-159.79521970,-148.45423386,-48.02355123,-0.30822391,13.80969925
-2.07549694,0.17614401,2.61531369

>  <Name>
5281607

>  <PUBCHEM_ATOM_DEF_STEREO_COUNT>
0

>  <PUBCHEM_ATOM_UDEF_STEREO_COUNT>
0

>  <PUBCHEM_BOND_DEF_STEREO_COUNT>
0

>  <PUBCHEM_BOND_UDEF_STEREO_COUNT>
0

>  <PUBCHEM_CACTVS_TAUTO_COUNT>
12

>  <PUBCHEM_COMPONENT_COUNT>
1

>  <PUBCHEM_COMPOUND_CID>
5281607

>  <PUBCHEM_CONFORMER_DIVERSEORDER>
1

>  <PUBCHEM_CONFORMER_ID>
0050974700000001

>  <PUBCHEM_CONFORMER_RMSD>
0.6

>  <PUBCHEM_COORDINATE_TYPE>
2
5
10

>  <PUBCHEM_EFFECTIVE_ROTOR_COUNT>
1

>  <PUBCHEM_FEATURE_SELFOVERLAP>
35.55

>  <PUBCHEM_HEAVY_ATOM_COUNT>
19

>  <PUBCHEM_ISOTOPIC_ATOM_COUNT>
0

>  <PUBCHEM_MMFF94_ENERGY>
58.6802

>  <PUBCHEM_MMFF94_PARTIAL_CHARGES>
29
1 -0.16
10 0.08
11 -0.14
12 -0.15
13 0.08
14 -0.15
15 -0.15
16 -0.15
17 -0.15
18 -0.15
19 -0.15
2 -0.53
20 0.15
21 0.15
22 0.15
23 0.15
24 0.15
25 0.15
26 0.15
27 0.15
28 0.45
29 0.45
3 -0.57
4 -0.53
5 0.09
6 0.08
7 0.05
8 0.47
9 0.03

>  <PUBCHEM_PHARMACOPHORE_FEATURES>
7
1 1 acceptor
1 2 donor
1 3 acceptor
1 4 donor
6 1 5 6 7 8 11 rings
6 5 6 10 12 13 14 rings
6 9 15 16 17 18 19 rings

>  <PUBCHEM_SHAPE_FINGERPRINT>
10319926 262 18268127809494919170
10411042 1 18265615579738713891
10493431 412 18197507221146397953
10608611 8 18342171134064233104
10616163 171 18411420583546564262
11132069 177 18409449163297457936
11552529 35 17632292436352682015
12032990 46 18410295851770216003
12236239 1 17458347408211182968
12403259 226 18412821387472877168
13140716 1 18411706521194677761
13214271 11 18343016692438145285
13288520 33 18410857667820642214
13296908 3 18411982472727089118
13675066 3 18273492390518142728
14790565 3 17835527016235198305
14866123 147 16905542407924379514
15042514 8 18408611353328975545
15196674 1 18411136944106257192
15219456 202 18273213084594875086
15352361 1 18338516451385899415
15375358 24 18271805692352254134
17492 89 18409448060024340482
17804303 29 18412829079284446544
17834074 16 18342458115019991270
1813 80 17603588547200830588
18186145 218 15864357977667883748
19141452 34 18272937150226625303
200 152 17418085499329608732
20281475 54 18410863191143420508
20510252 161 18270961232888654944
21065198 57 18341612581977734456
21065199 12 18343580759357389514
21065201 7 18335979788261725250
21267235 1 18409175436536850755
221490 88 18264213680320700032
2297311 6 18341061765380641204
23366157 5 17823981353853568324
23402539 116 18410004433933626846
23557571 272 18341902895859977406
23559900 14 18341328882482245094
23845131 108 17547870555410292105
26918003 58 18201434745125223712
2748010 2 18338507659920037029
2871803 45 18408600357965063606
335352 9 18338517426438382605
34934 24 18335413522403504251
4214541 1 18411700959095601360
474 4 16878802641914734316
5104073 3 18342454829459681514
573450 72 18187353303882126634
67856867 119 18187930638177329652
69090 78 18272364239964106078
7364860 26 17979074113022900857
77779 3 18411982460047818098
8809292 202 18408608049860866890
9709674 26 18271529672084392270

>  <PUBCHEM_SHAPE_MULTIPOLES>
367.53
9.79
2.47
0.67
6.66
0.28
0
-3.3
0.48
-2.43
-0.1
0.26
-0.02
0.74

>  <PUBCHEM_SHAPE_SELFOVERLAP>
822.826

>  <PUBCHEM_SHAPE_VOLUME>
193.3

>  <RI>
-7.82417e+08

>  <Rbt.Current_Directory>
/root/miniconda3/envs/rdock/share/rxdock-2013.1.1_148c5bd1-0/data/ligands/prepped_ligands/Chrysin

>  <Rbt.Executable>
rbdock/0.1.0

>  <Rbt.Library>
librxdock.so/0.1.0

>  <Rbt.Parameter_File>
/root/miniconda3/envs/rdock/share/rxdock-2013.1.1_148c5bd1-0/data/scripts/dock.prm

>  <Rbt.Receptor>
def.prm

>  <SCORE>
-18.0997

>  <SCORE.INTER>
-17.4901

>  <SCORE.INTER.CONST>
1

>  <SCORE.INTER.POLAR>
-0.817934

>  <SCORE.INTER.REPUL>
0

>  <SCORE.INTER.ROT>
1

>  <SCORE.INTER.VDW>
-21.1092

>  <SCORE.INTER.norm>
-0.920534

>  <SCORE.INTRA>
0.413212

>  <SCORE.INTRA.DIHEDRAL>
0.657639

>  <SCORE.INTRA.DIHEDRAL.0>
1.23518

>  <SCORE.INTRA.POLAR>
0

>  <SCORE.INTRA.POLAR.0>
0

>  <SCORE.INTRA.REPUL>
0

>  <SCORE.INTRA.REPUL.0>
0

>  <SCORE.INTRA.VDW>
0.0843923

>  <SCORE.INTRA.VDW.0>
0.668012

>  <SCORE.INTRA.norm>
0.021748

>  <SCORE.RESTR>
0

>  <SCORE.RESTR.CAVITY>
0

>  <SCORE.RESTR.norm>
0

>  <SCORE.SYSTEM>
-1.0228

>  <SCORE.SYSTEM.CONST>
0

>  <SCORE.SYSTEM.DIHEDRAL>
0.033398

>  <SCORE.SYSTEM.VDW>
-1.0395

>  <SCORE.SYSTEM.norm>
-0.0538317

>  <SCORE.heavy>
19

>  <SCORE.norm>
-0.952617

$$$$
5281607
  RxDock  02242101123D
librxdock.so/0.1.0
 21 23  0  0  0  0  0  0  0  0999 V2000
  -53.7803   -4.9787   16.4545 O   0  0  0  0  0  0
  -53.9559   -9.8202   16.3004 O   0  0  0  0  0  0
  -52.2975   -8.5065   17.8523 O   0  0  0  0  0  0
  -56.8375   -7.2012   13.5816 O   0  0  0  0  0  0
  -53.8226   -7.4069   16.4209 C   0  0  0  0  0  0
  -54.2829   -6.1656   15.9850 C   0  0  0  0  0  0
  -52.7760   -5.0183   17.4097 C   0  0  0  0  0  0
  -52.7511   -7.4530   17.4274 C   0  0  0  0  0  0
  -52.3047   -3.6868   17.8404 C   0  0  0  0  0  0
  -54.3713   -8.5842   15.9071 C   0  0  0  0  0  0
  -52.2459   -6.1490   17.9025 C   0  0  0  0  0  0
  -55.2970   -6.0943   15.0298 C   0  0  0  0  0  0
  -55.8479   -7.2677   14.5141 C   0  0  0  0  0  0
  -55.3859   -8.5098   14.9520 C   0  0  0  0  0  0
  -51.8505   -3.4918   19.1471 C   0  0  0  0  0  0
  -52.3108   -2.6159   16.9431 C   0  0  0  0  0  0
  -51.4053   -2.2339   19.5539 C   0  0  0  0  0  0
  -51.8653   -1.3582   17.3496 C   0  0  0  0  0  0
  -51.4126   -1.1672   18.6551 C   0  0  0  0  0  0
  -54.6390  -10.4831   16.1170 H   0  0  0  0  0  0
  -57.0477   -8.1016   13.2798 H   0  0  0  0  0  0
  1  6  1  0  0  0
  1  7  1  0  0  0
  2 10  1  0  0  0
  2 20  1  0  0  0
  3  8  2  0  0  0
  4 13  1  0  0  0
  4 21  1  0  0  0
  5  6  1  0  0  0
  5  8  1  0  0  0
  5 10  2  0  0  0
  6 12  2  0  0  0
  7  9  1  0  0  0
  7 11  2  0  0  0
  8 11  1  0  0  0
  9 15  2  0  0  0
  9 16  1  0  0  0
 10 14  1  0  0  0
 12 13  1  0  0  0
 13 14  2  0  0  0
 15 17  1  0  0  0
 16 18  2  0  0  0
 17 19  2  0  0  0
 18 19  1  0  0  0
M  END
>  <CHROM.0>
176.23038739,65.71472179,59.11965772

>  <CHROM.1>
158.43843988,175.17407176,148.23292495,-53.45868189,-5.76605788,16.75770097
0.87070346,-0.80439412,-0.05548798

>  <Name>
5281607

>  <PUBCHEM_ATOM_DEF_STEREO_COUNT>
0

>  <PUBCHEM_ATOM_UDEF_STEREO_COUNT>
0

>  <PUBCHEM_BOND_DEF_STEREO_COUNT>
0

>  <PUBCHEM_BOND_UDEF_STEREO_COUNT>
0

>  <PUBCHEM_CACTVS_TAUTO_COUNT>
12

>  <PUBCHEM_COMPONENT_COUNT>
1

>  <PUBCHEM_COMPOUND_CID>
5281607

>  <PUBCHEM_CONFORMER_DIVERSEORDER>
1

>  <PUBCHEM_CONFORMER_ID>
0050974700000001

>  <PUBCHEM_CONFORMER_RMSD>
0.6

>  <PUBCHEM_COORDINATE_TYPE>
2
5
10

>  <PUBCHEM_EFFECTIVE_ROTOR_COUNT>
1

>  <PUBCHEM_FEATURE_SELFOVERLAP>
35.55

>  <PUBCHEM_HEAVY_ATOM_COUNT>
19

>  <PUBCHEM_ISOTOPIC_ATOM_COUNT>
0

>  <PUBCHEM_MMFF94_ENERGY>
58.6802

>  <PUBCHEM_MMFF94_PARTIAL_CHARGES>
29
1 -0.16
10 0.08
11 -0.14
12 -0.15
13 0.08
14 -0.15
15 -0.15
16 -0.15
17 -0.15
18 -0.15
19 -0.15
2 -0.53
20 0.15
21 0.15
22 0.15
23 0.15
24 0.15
25 0.15
26 0.15
27 0.15
28 0.45
29 0.45
3 -0.57
4 -0.53
5 0.09
6 0.08
7 0.05
8 0.47
9 0.03

>  <PUBCHEM_PHARMACOPHORE_FEATURES>
7
1 1 acceptor
1 2 donor
1 3 acceptor
1 4 donor
6 1 5 6 7 8 11 rings
6 5 6 10 12 13 14 rings
6 9 15 16 17 18 19 rings

>  <PUBCHEM_SHAPE_FINGERPRINT>
10319926 262 18268127809494919170
10411042 1 18265615579738713891
10493431 412 18197507221146397953
10608611 8 18342171134064233104
10616163 171 18411420583546564262
11132069 177 18409449163297457936
11552529 35 17632292436352682015
12032990 46 18410295851770216003
12236239 1 17458347408211182968
12403259 226 18412821387472877168
13140716 1 18411706521194677761
13214271 11 18343016692438145285
13288520 33 18410857667820642214
13296908 3 18411982472727089118
13675066 3 18273492390518142728
14790565 3 17835527016235198305
14866123 147 16905542407924379514
15042514 8 18408611353328975545
15196674 1 18411136944106257192
15219456 202 18273213084594875086
15352361 1 18338516451385899415
15375358 24 18271805692352254134
17492 89 18409448060024340482
17804303 29 18412829079284446544
17834074 16 18342458115019991270
1813 80 17603588547200830588
18186145 218 15864357977667883748
19141452 34 18272937150226625303
200 152 17418085499329608732
20281475 54 18410863191143420508
20510252 161 18270961232888654944
21065198 57 18341612581977734456
21065199 12 18343580759357389514
21065201 7 18335979788261725250
21267235 1 18409175436536850755
221490 88 18264213680320700032
2297311 6 18341061765380641204
23366157 5 17823981353853568324
23402539 116 18410004433933626846
23557571 272 18341902895859977406
23559900 14 18341328882482245094
23845131 108 17547870555410292105
26918003 58 18201434745125223712
2748010 2 18338507659920037029
2871803 45 18408600357965063606
335352 9 18338517426438382605
34934 24 18335413522403504251
4214541 1 18411700959095601360
474 4 16878802641914734316
5104073 3 18342454829459681514
573450 72 18187353303882126634
67856867 119 18187930638177329652
69090 78 18272364239964106078
7364860 26 17979074113022900857
77779 3 18411982460047818098
8809292 202 18408608049860866890
9709674 26 18271529672084392270

>  <PUBCHEM_SHAPE_MULTIPOLES>
367.53
9.79
2.47
0.67
6.66
0.28
0
-3.3
0.48
-2.43
-0.1
0.26
-0.02
0.74

>  <PUBCHEM_SHAPE_SELFOVERLAP>
822.826

>  <PUBCHEM_SHAPE_VOLUME>
193.3

>  <RI>
-7.82417e+08

>  <Rbt.Current_Directory>
/root/miniconda3/envs/rdock/share/rxdock-2013.1.1_148c5bd1-0/data/ligands/prepped_ligands/Chrysin

>  <Rbt.Executable>
rbdock/0.1.0

>  <Rbt.Library>
librxdock.so/0.1.0

>  <Rbt.Parameter_File>
/root/miniconda3/envs/rdock/share/rxdock-2013.1.1_148c5bd1-0/data/scripts/dock.prm

>  <Rbt.Receptor>
def.prm

>  <SCORE>
-15.9303

>  <SCORE.INTER>
-15.4074

>  <SCORE.INTER.CONST>
1

>  <SCORE.INTER.POLAR>
-1.18839

>  <SCORE.INTER.REPUL>
0

>  <SCORE.INTER.ROT>
1

>  <SCORE.INTER.VDW>
-17.7669

>  <SCORE.INTER.norm>
-0.810918

>  <SCORE.INTRA>
0.437387

>  <SCORE.INTRA.DIHEDRAL>
0.81337

>  <SCORE.INTRA.DIHEDRAL.0>
1.23518

>  <SCORE.INTRA.POLAR>
0

>  <SCORE.INTRA.POLAR.0>
0

>  <SCORE.INTRA.REPUL>
0

>  <SCORE.INTRA.REPUL.0>
0

>  <SCORE.INTRA.VDW>
0.030702

>  <SCORE.INTRA.VDW.0>
0.668012

>  <SCORE.INTRA.norm>
0.0230204

>  <SCORE.RESTR>
0

>  <SCORE.RESTR.CAVITY>
0

>  <SCORE.RESTR.norm>
0

>  <SCORE.SYSTEM>
-0.960261

>  <SCORE.SYSTEM.CONST>
0

>  <SCORE.SYSTEM.DIHEDRAL>
0.200507

>  <SCORE.SYSTEM.VDW>
-1.06051

>  <SCORE.SYSTEM.norm>
-0.0505401

>  <SCORE.heavy>
19

>  <SCORE.norm>
-0.838437

$$$$
5281607
  RxDock  02242101123D
librxdock.so/0.1.0
 21 23  0  0  0  0  0  0  0  0999 V2000
  -50.2156   -4.3215   15.8233 O   0  0  0  0  0  0
  -47.9189   -0.8014   13.4090 O   0  0  0  0  0  0
  -50.4363   -1.4071   12.9849 O   0  0  0  0  0  0
  -45.6516   -3.3580   16.7072 O   0  0  0  0  0  0
  -49.1181   -2.5456   14.5819 C   0  0  0  0  0  0
  -49.1114   -3.5587   15.5391 C   0  0  0  0  0  0
  -51.3903   -4.0665   15.1321 C   0  0  0  0  0  0
  -50.3598   -2.2782   13.8403 C   0  0  0  0  0  0
  -52.5129   -4.9478   15.5112 C   0  0  0  0  0  0
  -47.9631   -1.8005   14.3335 C   0  0  0  0  0  0
  -51.5203   -3.1245   14.1844 C   0  0  0  0  0  0
  -47.9462   -3.8336   16.2551 C   0  0  0  0  0  0
  -46.7903   -3.0917   16.0102 C   0  0  0  0  0  0
  -46.7990   -2.0775   15.0515 C   0  0  0  0  0  0
  -53.8003   -4.6891   15.0342 C   0  0  0  0  0  0
  -52.2927   -6.0442   16.3487 C   0  0  0  0  0  0
  -54.8607   -5.5216   15.3924 C   0  0  0  0  0  0
  -53.3529   -6.8769   16.7066 C   0  0  0  0  0  0
  -54.6370   -6.6156   16.2285 C   0  0  0  0  0  0
  -48.3155   -1.0929   12.5738 H   0  0  0  0  0  0
  -44.9774   -2.6966   16.4747 H   0  0  0  0  0  0
  1  6  1  0  0  0
  1  7  1  0  0  0
  2 10  1  0  0  0
  2 20  1  0  0  0
  3  8  2  0  0  0
  4 13  1  0  0  0
  4 21  1  0  0  0
  5  6  1  0  0  0
  5  8  1  0  0  0
  5 10  2  0  0  0
  6 12  2  0  0  0
  7  9  1  0  0  0
  7 11  2  0  0  0
  8 11  1  0  0  0
  9 15  2  0  0  0
  9 16  1  0  0  0
 10 14  1  0  0  0
 12 13  1  0  0  0
 13 14  2  0  0  0
 15 17  1  0  0  0
 16 18  2  0  0  0
 17 19  2  0  0  0
 18 19  1  0  0  0
M  END
>  <CHROM.0>
-63.64091130,62.76790881,-177.84229830

>  <CHROM.1>
-47.33467742,-174.52011955,171.21397117,-50.25851009,-3.67621705,15.19242503
-2.69719047,-0.27047298,-0.74023340

>  <Name>
5281607

>  <PUBCHEM_ATOM_DEF_STEREO_COUNT>
0

>  <PUBCHEM_ATOM_UDEF_STEREO_COUNT>
0

>  <PUBCHEM_BOND_DEF_STEREO_COUNT>
0

>  <PUBCHEM_BOND_UDEF_STEREO_COUNT>
0

>  <PUBCHEM_CACTVS_TAUTO_COUNT>
12

>  <PUBCHEM_COMPONENT_COUNT>
1

>  <PUBCHEM_COMPOUND_CID>
5281607

>  <PUBCHEM_CONFORMER_DIVERSEORDER>
1

>  <PUBCHEM_CONFORMER_ID>
0050974700000001

>  <PUBCHEM_CONFORMER_RMSD>
0.6

>  <PUBCHEM_COORDINATE_TYPE>
2
5
10

>  <PUBCHEM_EFFECTIVE_ROTOR_COUNT>
1

>  <PUBCHEM_FEATURE_SELFOVERLAP>
35.55

>  <PUBCHEM_HEAVY_ATOM_COUNT>
19

>  <PUBCHEM_ISOTOPIC_ATOM_COUNT>
0

>  <PUBCHEM_MMFF94_ENERGY>
58.6802

>  <PUBCHEM_MMFF94_PARTIAL_CHARGES>
29
1 -0.16
10 0.08
11 -0.14
12 -0.15
13 0.08
14 -0.15
15 -0.15
16 -0.15
17 -0.15
18 -0.15
19 -0.15
2 -0.53
20 0.15
21 0.15
22 0.15
23 0.15
24 0.15
25 0.15
26 0.15
27 0.15
28 0.45
29 0.45
3 -0.57
4 -0.53
5 0.09
6 0.08
7 0.05
8 0.47
9 0.03

>  <PUBCHEM_PHARMACOPHORE_FEATURES>
7
1 1 acceptor
1 2 donor
1 3 acceptor
1 4 donor
6 1 5 6 7 8 11 rings
6 5 6 10 12 13 14 rings
6 9 15 16 17 18 19 rings

>  <PUBCHEM_SHAPE_FINGERPRINT>
10319926 262 18268127809494919170
10411042 1 18265615579738713891
10493431 412 18197507221146397953
10608611 8 18342171134064233104
10616163 171 18411420583546564262
11132069 177 18409449163297457936
11552529 35 17632292436352682015
12032990 46 18410295851770216003
12236239 1 17458347408211182968
12403259 226 18412821387472877168
13140716 1 18411706521194677761
13214271 11 18343016692438145285
13288520 33 18410857667820642214
13296908 3 18411982472727089118
13675066 3 18273492390518142728
14790565 3 17835527016235198305
14866123 147 16905542407924379514
15042514 8 18408611353328975545
15196674 1 18411136944106257192
15219456 202 18273213084594875086
15352361 1 18338516451385899415
15375358 24 18271805692352254134
17492 89 18409448060024340482
17804303 29 18412829079284446544
17834074 16 18342458115019991270
1813 80 17603588547200830588
18186145 218 15864357977667883748
19141452 34 18272937150226625303
200 152 17418085499329608732
20281475 54 18410863191143420508
20510252 161 18270961232888654944
21065198 57 18341612581977734456
21065199 12 18343580759357389514
21065201 7 18335979788261725250
21267235 1 18409175436536850755
221490 88 18264213680320700032
2297311 6 18341061765380641204
23366157 5 17823981353853568324
23402539 116 18410004433933626846
23557571 272 18341902895859977406
23559900 14 18341328882482245094
23845131 108 17547870555410292105
26918003 58 18201434745125223712
2748010 2 18338507659920037029
2871803 45 18408600357965063606
335352 9 18338517426438382605
34934 24 18335413522403504251
4214541 1 18411700959095601360
474 4 16878802641914734316
5104073 3 18342454829459681514
573450 72 18187353303882126634
67856867 119 18187930638177329652
69090 78 18272364239964106078
7364860 26 17979074113022900857
77779 3 18411982460047818098
8809292 202 18408608049860866890
9709674 26 18271529672084392270

>  <PUBCHEM_SHAPE_MULTIPOLES>
367.53
9.79
2.47
0.67
6.66
0.28
0
-3.3
0.48
-2.43
-0.1
0.26
-0.02
0.74

>  <PUBCHEM_SHAPE_SELFOVERLAP>
822.826

>  <PUBCHEM_SHAPE_VOLUME>
193.3

>  <RI>
-7.82417e+08

>  <Rbt.Current_Directory>
/root/miniconda3/envs/rdock/share/rxdock-2013.1.1_148c5bd1-0/data/ligands/prepped_ligands/Chrysin

>  <Rbt.Executable>
rbdock/0.1.0

>  <Rbt.Library>
librxdock.so/0.1.0

>  <Rbt.Parameter_File>
/root/miniconda3/envs/rdock/share/rxdock-2013.1.1_148c5bd1-0/data/scripts/dock.prm

>  <Rbt.Receptor>
def.prm

>  <SCORE>
-12.3939

>  <SCORE.INTER>
-12.1375

>  <SCORE.INTER.CONST>
1

>  <SCORE.INTER.POLAR>
-0.810678

>  <SCORE.INTER.REPUL>
0.003255

>  <SCORE.INTER.ROT>
1

>  <SCORE.INTER.VDW>
-15.7975

>  <SCORE.INTER.norm>
-0.638815

>  <SCORE.INTRA>
0.753278

>  <SCORE.INTRA.DIHEDRAL>
1.52945

>  <SCORE.INTRA.DIHEDRAL.0>
1.23518

>  <SCORE.INTRA.POLAR>
0

>  <SCORE.INTRA.POLAR.0>
0

>  <SCORE.INTRA.REPUL>
0

>  <SCORE.INTRA.REPUL.0>
0

>  <SCORE.INTRA.VDW>
-0.0114467

>  <SCORE.INTRA.VDW.0>
0.668012

>  <SCORE.INTRA.norm>
0.0396462

>  <SCORE.RESTR>
0

>  <SCORE.RESTR.CAVITY>
0

>  <SCORE.RESTR.norm>
0

>  <SCORE.SYSTEM>
-1.00969

>  <SCORE.SYSTEM.CONST>
0

>  <SCORE.SYSTEM.DIHEDRAL>
0.0829432

>  <SCORE.SYSTEM.POLAR>
-0.00696625

>  <SCORE.SYSTEM.VDW>
-1.02748

>  <SCORE.SYSTEM.norm>
-0.0531418

>  <SCORE.heavy>
19

>  <SCORE.norm>
-0.652311

$$$$
5281607
  RxDock  02242101123D
librxdock.so/0.1.0
 21 23  0  0  0  0  0  0  0  0999 V2000
  -47.9274    0.4595   13.4706 O   0  0  0  0  0  0
  -48.6824   -3.9264   15.3910 O   0  0  0  0  0  0
  -50.5679   -2.5606   14.1813 O   0  0  0  0  0  0
  -44.4056   -1.8759   15.6346 O   0  0  0  0  0  0
  -48.3658   -1.7355   14.4135 C   0  0  0  0  0  0
  -47.5157   -0.6657   14.1386 C   0  0  0  0  0  0
  -49.2451    0.5300   13.0448 C   0  0  0  0  0  0
  -49.7666   -1.6605   13.9714 C   0  0  0  0  0  0
  -49.5826    1.7845   12.3428 C   0  0  0  0  0  0
  -47.8918   -2.8567   15.0985 C   0  0  0  0  0  0
  -50.1595   -0.4303   13.2548 C   0  0  0  0  0  0
  -46.1831   -0.7109   14.5487 C   0  0  0  0  0  0
  -45.7056   -1.8290   15.2329 C   0  0  0  0  0  0
  -46.5582   -2.8994   15.5071 C   0  0  0  0  0  0
  -48.5924    2.4947   11.6596 C   0  0  0  0  0  0
  -50.8938    2.2668   12.3586 C   0  0  0  0  0  0
  -48.9114    3.6798   10.9965 C   0  0  0  0  0  0
  -51.2128    3.4516   11.6953 C   0  0  0  0  0  0
  -50.2216    4.1582   11.0142 C   0  0  0  0  0  0
  -48.1645   -4.6254   15.8189 H   0  0  0  0  0  0
  -43.8922   -1.2315   15.1178 H   0  0  0  0  0  0
  1  6  1  0  0  0
  1  7  1  0  0  0
  2 10  1  0  0  0
  2 20  1  0  0  0
  3  8  2  0  0  0
  4 13  1  0  0  0
  4 21  1  0  0  0
  5  6  1  0  0  0
  5  8  1  0  0  0
  5 10  2  0  0  0
  6 12  2  0  0  0
  7  9  1  0  0  0
  7 11  2  0  0  0
  8 11  1  0  0  0
  9 15  2  0  0  0
  9 16  1  0  0  0
 10 14  1  0  0  0
 12 13  1  0  0  0
 13 14  2  0  0  0
 15 17  1  0  0  0
 16 18  2  0  0  0
 17 19  2  0  0  0
 18 19  1  0  0  0
M  END
>  <CHROM.0>
-61.32894729,67.10970070,-58.56832976

>  <CHROM.1>
176.49650582,-19.45019317,27.34775144,-48.50325265,-0.20949088,13.63009535
-2.01806086,0.20505704,2.66750254

>  <Name>
5281607

>  <PUBCHEM_ATOM_DEF_STEREO_COUNT>
0

>  <PUBCHEM_ATOM_UDEF_STEREO_COUNT>
0

>  <PUBCHEM_BOND_DEF_STEREO_COUNT>
0

>  <PUBCHEM_BOND_UDEF_STEREO_COUNT>
0

>  <PUBCHEM_CACTVS_TAUTO_COUNT>
12

>  <PUBCHEM_COMPONENT_COUNT>
1

>  <PUBCHEM_COMPOUND_CID>
5281607

>  <PUBCHEM_CONFORMER_DIVERSEORDER>
1

>  <PUBCHEM_CONFORMER_ID>
0050974700000001

>  <PUBCHEM_CONFORMER_RMSD>
0.6

>  <PUBCHEM_COORDINATE_TYPE>
2
5
10

>  <PUBCHEM_EFFECTIVE_ROTOR_COUNT>
1

>  <PUBCHEM_FEATURE_SELFOVERLAP>
35.55

>  <PUBCHEM_HEAVY_ATOM_COUNT>
19

>  <PUBCHEM_ISOTOPIC_ATOM_COUNT>
0

>  <PUBCHEM_MMFF94_ENERGY>
58.6802

>  <PUBCHEM_MMFF94_PARTIAL_CHARGES>
29
1 -0.16
10 0.08
11 -0.14
12 -0.15
13 0.08
14 -0.15
15 -0.15
16 -0.15
17 -0.15
18 -0.15
19 -0.15
2 -0.53
20 0.15
21 0.15
22 0.15
23 0.15
24 0.15
25 0.15
26 0.15
27 0.15
28 0.45
29 0.45
3 -0.57
4 -0.53
5 0.09
6 0.08
7 0.05
8 0.47
9 0.03

>  <PUBCHEM_PHARMACOPHORE_FEATURES>
7
1 1 acceptor
1 2 donor
1 3 acceptor
1 4 donor
6 1 5 6 7 8 11 rings
6 5 6 10 12 13 14 rings
6 9 15 16 17 18 19 rings

>  <PUBCHEM_SHAPE_FINGERPRINT>
10319926 262 18268127809494919170
10411042 1 18265615579738713891
10493431 412 18197507221146397953
10608611 8 18342171134064233104
10616163 171 18411420583546564262
11132069 177 18409449163297457936
11552529 35 17632292436352682015
12032990 46 18410295851770216003
12236239 1 17458347408211182968
12403259 226 18412821387472877168
13140716 1 18411706521194677761
13214271 11 18343016692438145285
13288520 33 18410857667820642214
13296908 3 18411982472727089118
13675066 3 18273492390518142728
14790565 3 17835527016235198305
14866123 147 16905542407924379514
15042514 8 18408611353328975545
15196674 1 18411136944106257192
15219456 202 18273213084594875086
15352361 1 18338516451385899415
15375358 24 18271805692352254134
17492 89 18409448060024340482
17804303 29 18412829079284446544
17834074 16 18342458115019991270
1813 80 17603588547200830588
18186145 218 15864357977667883748
19141452 34 18272937150226625303
200 152 17418085499329608732
20281475 54 18410863191143420508
20510252 161 18270961232888654944
21065198 57 18341612581977734456
21065199 12 18343580759357389514
21065201 7 18335979788261725250
21267235 1 18409175436536850755
221490 88 18264213680320700032
2297311 6 18341061765380641204
23366157 5 17823981353853568324
23402539 116 18410004433933626846
23557571 272 18341902895859977406
23559900 14 18341328882482245094
23845131 108 17547870555410292105
26918003 58 18201434745125223712
2748010 2 18338507659920037029
2871803 45 18408600357965063606
335352 9 18338517426438382605
34934 24 18335413522403504251
4214541 1 18411700959095601360
474 4 16878802641914734316
5104073 3 18342454829459681514
573450 72 18187353303882126634
67856867 119 18187930638177329652
69090 78 18272364239964106078
7364860 26 17979074113022900857
77779 3 18411982460047818098
8809292 202 18408608049860866890
9709674 26 18271529672084392270

>  <PUBCHEM_SHAPE_MULTIPOLES>
367.53
9.79
2.47
0.67
6.66
0.28
0
-3.3
0.48
-2.43
-0.1
0.26
-0.02
0.74

>  <PUBCHEM_SHAPE_SELFOVERLAP>
822.826

>  <PUBCHEM_SHAPE_VOLUME>
193.3

>  <RI>
-7.82417e+08

>  <Rbt.Current_Directory>
/root/miniconda3/envs/rdock/share/rxdock-2013.1.1_148c5bd1-0/data/ligands/prepped_ligands/Chrysin

>  <Rbt.Executable>
rbdock/0.1.0

>  <Rbt.Library>
librxdock.so/0.1.0

>  <Rbt.Parameter_File>
/root/miniconda3/envs/rdock/share/rxdock-2013.1.1_148c5bd1-0/data/scripts/dock.prm

>  <Rbt.Receptor>
def.prm

>  <SCORE>
-17.1298

>  <SCORE.INTER>
-16.4968

>  <SCORE.INTER.CONST>
1

>  <SCORE.INTER.POLAR>
-0.442427

>  <SCORE.INTER.REPUL>
0

>  <SCORE.INTER.ROT>
1

>  <SCORE.INTER.VDW>
-21.3926

>  <SCORE.INTER.norm>
-0.868255

>  <SCORE.INTRA>
0.353314

>  <SCORE.INTRA.DIHEDRAL>
0.295297

>  <SCORE.INTRA.DIHEDRAL.0>
1.23518

>  <SCORE.INTRA.POLAR>
0

>  <SCORE.INTRA.POLAR.0>
0

>  <SCORE.INTRA.REPUL>
0

>  <SCORE.INTRA.REPUL.0>
0

>  <SCORE.INTRA.VDW>
0.205666

>  <SCORE.INTRA.VDW.0>
0.668012

>  <SCORE.INTRA.norm>
0.0185955

>  <SCORE.RESTR>
0

>  <SCORE.RESTR.CAVITY>
0

>  <SCORE.RESTR.norm>
0

>  <SCORE.SYSTEM>
-0.986256

>  <SCORE.SYSTEM.CONST>
0

>  <SCORE.SYSTEM.DIHEDRAL>
0.256003

>  <SCORE.SYSTEM.POLAR>
-0.00430799

>  <SCORE.SYSTEM.VDW>
-1.09961

>  <SCORE.SYSTEM.norm>
-0.0519082

>  <SCORE.heavy>
19

>  <SCORE.norm>
-0.901568

$$$$
5281607
  RxDock  02242101123D
librxdock.so/0.1.0
 21 23  0  0  0  0  0  0  0  0999 V2000
  -49.7552   -3.6322   15.7207 O   0  0  0  0  0  0
  -47.6572    0.1327   13.5030 O   0  0  0  0  0  0
  -50.1927   -0.4669   13.1932 O   0  0  0  0  0  0
  -45.1495   -2.6900   16.3837 O   0  0  0  0  0  0
  -48.7594   -1.7314   14.5827 C   0  0  0  0  0  0
  -48.6792   -2.8301   15.4367 C   0  0  0  0  0  0
  -50.9764   -3.3304   15.1372 C   0  0  0  0  0  0
  -50.0510   -1.4135   13.9549 C   0  0  0  0  0  0
  -52.0633   -4.2597   15.5054 C   0  0  0  0  0  0
  -47.6301   -0.9496   14.3292 C   0  0  0  0  0  0
  -51.1783   -2.3053   14.2942 C   0  0  0  0  0  0
  -47.4657   -3.1543   16.0435 C   0  0  0  0  0  0
  -46.3353   -2.3758   15.7932 C   0  0  0  0  0  0
  -46.4176   -1.2760   14.9379 C   0  0  0  0  0  0
  -51.8382   -5.2640   16.4501 C   0  0  0  0  0  0
  -53.3218   -4.1387   14.9107 C   0  0  0  0  0  0
  -52.8651   -6.1418   16.7978 C   0  0  0  0  0  0
  -54.3487   -5.0162   15.2586 C   0  0  0  0  0  0
  -54.1204   -6.0178   16.2022 C   0  0  0  0  0  0
  -46.9323    0.0887   12.8608 H   0  0  0  0  0  0
  -45.2912   -3.4248   17.0049 H   0  0  0  0  0  0
  1  6  1  0  0  0
  1  7  1  0  0  0
  2 10  1  0  0  0
  2 20  1  0  0  0
  3  8  2  0  0  0
  4 13  1  0  0  0
  4 21  1  0  0  0
  5  6  1  0  0  0
  5  8  1  0  0  0
  5 10  2  0  0  0
  6 12  2  0  0  0
  7  9  1  0  0  0
  7 11  2  0  0  0
  8 11  1  0  0  0
  9 15  2  0  0  0
  9 16  1  0  0  0
 10 14  1  0  0  0
 12 13  1  0  0  0
 13 14  2  0  0  0
 15 17  1  0  0  0
 16 18  2  0  0  0
 17 19  2  0  0  0
 18 19  1  0  0  0
M  END
>  <CHROM.0>
58.55314663,-61.14275010,177.45434340

>  <CHROM.1>
-130.30826897,-5.28121415,4.98610865,-49.84484446,-2.93595239,15.16233090
-2.64967594,-0.24014219,-0.65811329

>  <Name>
5281607

>  <PUBCHEM_ATOM_DEF_STEREO_COUNT>
0

>  <PUBCHEM_ATOM_UDEF_STEREO_COUNT>
0

>  <PUBCHEM_BOND_DEF_STEREO_COUNT>
0

>  <PUBCHEM_BOND_UDEF_STEREO_COUNT>
0

>  <PUBCHEM_CACTVS_TAUTO_COUNT>
12

>  <PUBCHEM_COMPONENT_COUNT>
1

>  <PUBCHEM_COMPOUND_CID>
5281607

>  <PUBCHEM_CONFORMER_DIVERSEORDER>
1

>  <PUBCHEM_CONFORMER_ID>
0050974700000001

>  <PUBCHEM_CONFORMER_RMSD>
0.6

>  <PUBCHEM_COORDINATE_TYPE>
2
5
10

>  <PUBCHEM_EFFECTIVE_ROTOR_COUNT>
1

>  <PUBCHEM_FEATURE_SELFOVERLAP>
35.55

>  <PUBCHEM_HEAVY_ATOM_COUNT>
19

>  <PUBCHEM_ISOTOPIC_ATOM_COUNT>
0

>  <PUBCHEM_MMFF94_ENERGY>
58.6802

>  <PUBCHEM_MMFF94_PARTIAL_CHARGES>
29
1 -0.16
10 0.08
11 -0.14
12 -0.15
13 0.08
14 -0.15
15 -0.15
16 -0.15
17 -0.15
18 -0.15
19 -0.15
2 -0.53
20 0.15
21 0.15
22 0.15
23 0.15
24 0.15
25 0.15
26 0.15
27 0.15
28 0.45
29 0.45
3 -0.57
4 -0.53
5 0.09
6 0.08
7 0.05
8 0.47
9 0.03

>  <PUBCHEM_PHARMACOPHORE_FEATURES>
7
1 1 acceptor
1 2 donor
1 3 acceptor
1 4 donor
6 1 5 6 7 8 11 rings
6 5 6 10 12 13 14 rings
6 9 15 16 17 18 19 rings

>  <PUBCHEM_SHAPE_FINGERPRINT>
10319926 262 18268127809494919170
10411042 1 18265615579738713891
10493431 412 18197507221146397953
10608611 8 18342171134064233104
10616163 171 18411420583546564262
11132069 177 18409449163297457936
11552529 35 17632292436352682015
12032990 46 18410295851770216003
12236239 1 17458347408211182968
12403259 226 18412821387472877168
13140716 1 18411706521194677761
13214271 11 18343016692438145285
13288520 33 18410857667820642214
13296908 3 18411982472727089118
13675066 3 18273492390518142728
14790565 3 17835527016235198305
14866123 147 16905542407924379514
15042514 8 18408611353328975545
15196674 1 18411136944106257192
15219456 202 18273213084594875086
15352361 1 18338516451385899415
15375358 24 18271805692352254134
17492 89 18409448060024340482
17804303 29 18412829079284446544
17834074 16 18342458115019991270
1813 80 17603588547200830588
18186145 218 15864357977667883748
19141452 34 18272937150226625303
200 152 17418085499329608732
20281475 54 18410863191143420508
20510252 161 18270961232888654944
21065198 57 18341612581977734456
21065199 12 18343580759357389514
21065201 7 18335979788261725250
21267235 1 18409175436536850755
221490 88 18264213680320700032
2297311 6 18341061765380641204
23366157 5 17823981353853568324
23402539 116 18410004433933626846
23557571 272 18341902895859977406
23559900 14 18341328882482245094
23845131 108 17547870555410292105
26918003 58 18201434745125223712
2748010 2 18338507659920037029
2871803 45 18408600357965063606
335352 9 18338517426438382605
34934 24 18335413522403504251
4214541 1 18411700959095601360
474 4 16878802641914734316
5104073 3 18342454829459681514
573450 72 18187353303882126634
67856867 119 18187930638177329652
69090 78 18272364239964106078
7364860 26 17979074113022900857
77779 3 18411982460047818098
8809292 202 18408608049860866890
9709674 26 18271529672084392270

>  <PUBCHEM_SHAPE_MULTIPOLES>
367.53
9.79
2.47
0.67
6.66
0.28
0
-3.3
0.48
-2.43
-0.1
0.26
-0.02
0.74

>  <PUBCHEM_SHAPE_SELFOVERLAP>
822.826

>  <PUBCHEM_SHAPE_VOLUME>
193.3

>  <RI>
-7.82417e+08

>  <Rbt.Current_Directory>
/root/miniconda3/envs/rdock/share/rxdock-2013.1.1_148c5bd1-0/data/ligands/prepped_ligands/Chrysin

>  <Rbt.Executable>
rbdock/0.1.0

>  <Rbt.Library>
librxdock.so/0.1.0

>  <Rbt.Parameter_File>
/root/miniconda3/envs/rdock/share/rxdock-2013.1.1_148c5bd1-0/data/scripts/dock.prm

>  <Rbt.Receptor>
def.prm

>  <SCORE>
-16.6299

>  <SCORE.INTER>
-16.5757

>  <SCORE.INTER.CONST>
1

>  <SCORE.INTER.POLAR>
-1.82789

>  <SCORE.INTER.REPUL>
0

>  <SCORE.INTER.ROT>
1

>  <SCORE.INTER.VDW>
-16.7609

>  <SCORE.INTER.norm>
-0.872407

>  <SCORE.INTRA>
1.02341

>  <SCORE.INTRA.DIHEDRAL>
1.62591

>  <SCORE.INTRA.DIHEDRAL.0>
1.23518

>  <SCORE.INTRA.POLAR>
0

>  <SCORE.INTRA.POLAR.0>
0

>  <SCORE.INTRA.REPUL>
0

>  <SCORE.INTRA.REPUL.0>
0

>  <SCORE.INTRA.VDW>
0.210454

>  <SCORE.INTRA.VDW.0>
0.668012

>  <SCORE.INTRA.norm>
0.0538635

>  <SCORE.RESTR>
0

>  <SCORE.RESTR.CAVITY>
0

>  <SCORE.RESTR.norm>
0

>  <SCORE.SYSTEM>
-1.0776

>  <SCORE.SYSTEM.CONST>
0

>  <SCORE.SYSTEM.DIHEDRAL>
0.0309094

>  <SCORE.SYSTEM.VDW>
-1.09305

>  <SCORE.SYSTEM.norm>
-0.0567157

>  <SCORE.heavy>
19

>  <SCORE.norm>
-0.875259

$$$$
5281607
  RxDock  02242101123D
librxdock.so/0.1.0
 21 23  0  0  0  0  0  0  0  0999 V2000
  -53.2749   -4.5669   14.7080 O   0  0  0  0  0  0
  -53.8126   -8.9584   16.6880 O   0  0  0  0  0  0
  -51.8511   -7.3391   17.3322 O   0  0  0  0  0  0
  -56.8786   -7.3782   13.4234 O   0  0  0  0  0  0
  -53.4929   -6.7570   15.7353 C   0  0  0  0  0  0
  -53.9248   -5.7660   14.8556 C   0  0  0  0  0  0
  -52.1436   -4.3301   15.4740 C   0  0  0  0  0  0
  -52.2881   -6.5130   16.5429 C   0  0  0  0  0  0
  -51.5201   -3.0135   15.2323 C   0  0  0  0  0  0
  -54.1942   -7.9600   15.8439 C   0  0  0  0  0  0
  -51.6264   -5.2068   16.3493 C   0  0  0  0  0  0
  -55.0635   -5.9730   14.0768 C   0  0  0  0  0  0
  -55.7671   -7.1731   14.1823 C   0  0  0  0  0  0
  -55.3332   -8.1643   15.0640 C   0  0  0  0  0  0
  -50.9215   -2.3165   16.2847 C   0  0  0  0  0  0
  -51.5261   -2.4588   13.9500 C   0  0  0  0  0  0
  -50.3326   -1.0728   16.0563 C   0  0  0  0  0  0
  -50.9369   -1.2153   13.7214 C   0  0  0  0  0  0
  -50.3402   -0.5222   14.7747 C   0  0  0  0  0  0
  -52.8547   -9.0992   16.6374 H   0  0  0  0  0  0
  -57.0542   -8.3335   13.3728 H   0  0  0  0  0  0
  1  6  1  0  0  0
  1  7  1  0  0  0
  2 10  1  0  0  0
  2 20  1  0  0  0
  3  8  2  0  0  0
  4 13  1  0  0  0
  4 21  1  0  0  0
  5  6  1  0  0  0
  5  8  1  0  0  0
  5 10  2  0  0  0
  6 12  2  0  0  0
  7  9  1  0  0  0
  7 11  2  0  0  0
  8 11  1  0  0  0
  9 15  2  0  0  0
  9 16  1  0  0  0
 10 14  1  0  0  0
 12 13  1  0  0  0
 13 14  2  0  0  0
 15 17  1  0  0  0
 16 18  2  0  0  0
 17 19  2  0  0  0
 18 19  1  0  0  0
M  END
>  <CHROM.0>
-59.51729647,63.08977895,179.96645776

>  <CHROM.1>
-44.32795775,159.97382446,144.95930730,-52.96028283,-5.18658123,15.28504974
0.79382061,-0.64977194,-0.55020389

>  <Name>
5281607

>  <PUBCHEM_ATOM_DEF_STEREO_COUNT>
0

>  <PUBCHEM_ATOM_UDEF_STEREO_COUNT>
0

>  <PUBCHEM_BOND_DEF_STEREO_COUNT>
0

>  <PUBCHEM_BOND_UDEF_STEREO_COUNT>
0

>  <PUBCHEM_CACTVS_TAUTO_COUNT>
12

>  <PUBCHEM_COMPONENT_COUNT>
1

>  <PUBCHEM_COMPOUND_CID>
5281607

>  <PUBCHEM_CONFORMER_DIVERSEORDER>
1

>  <PUBCHEM_CONFORMER_ID>
0050974700000001

>  <PUBCHEM_CONFORMER_RMSD>
0.6

>  <PUBCHEM_COORDINATE_TYPE>
2
5
10

>  <PUBCHEM_EFFECTIVE_ROTOR_COUNT>
1

>  <PUBCHEM_FEATURE_SELFOVERLAP>
35.55

>  <PUBCHEM_HEAVY_ATOM_COUNT>
19

>  <PUBCHEM_ISOTOPIC_ATOM_COUNT>
0

>  <PUBCHEM_MMFF94_ENERGY>
58.6802

>  <PUBCHEM_MMFF94_PARTIAL_CHARGES>
29
1 -0.16
10 0.08
11 -0.14
12 -0.15
13 0.08
14 -0.15
15 -0.15
16 -0.15
17 -0.15
18 -0.15
19 -0.15
2 -0.53
20 0.15
21 0.15
22 0.15
23 0.15
24 0.15
25 0.15
26 0.15
27 0.15
28 0.45
29 0.45
3 -0.57
4 -0.53
5 0.09
6 0.08
7 0.05
8 0.47
9 0.03

>  <PUBCHEM_PHARMACOPHORE_FEATURES>
7
1 1 acceptor
1 2 donor
1 3 acceptor
1 4 donor
6 1 5 6 7 8 11 rings
6 5 6 10 12 13 14 rings
6 9 15 16 17 18 19 rings

>  <PUBCHEM_SHAPE_FINGERPRINT>
10319926 262 18268127809494919170
10411042 1 18265615579738713891
10493431 412 18197507221146397953
10608611 8 18342171134064233104
10616163 171 18411420583546564262
11132069 177 18409449163297457936
11552529 35 17632292436352682015
12032990 46 18410295851770216003
12236239 1 17458347408211182968
12403259 226 18412821387472877168
13140716 1 18411706521194677761
13214271 11 18343016692438145285
13288520 33 18410857667820642214
13296908 3 18411982472727089118
13675066 3 18273492390518142728
14790565 3 17835527016235198305
14866123 147 16905542407924379514
15042514 8 18408611353328975545
15196674 1 18411136944106257192
15219456 202 18273213084594875086
15352361 1 18338516451385899415
15375358 24 18271805692352254134
17492 89 18409448060024340482
17804303 29 18412829079284446544
17834074 16 18342458115019991270
1813 80 17603588547200830588
18186145 218 15864357977667883748
19141452 34 18272937150226625303
200 152 17418085499329608732
20281475 54 18410863191143420508
20510252 161 18270961232888654944
21065198 57 18341612581977734456
21065199 12 18343580759357389514
21065201 7 18335979788261725250
21267235 1 18409175436536850755
221490 88 18264213680320700032
2297311 6 18341061765380641204
23366157 5 17823981353853568324
23402539 116 18410004433933626846
23557571 272 18341902895859977406
23559900 14 18341328882482245094
23845131 108 17547870555410292105
26918003 58 18201434745125223712
2748010 2 18338507659920037029
2871803 45 18408600357965063606
335352 9 18338517426438382605
34934 24 18335413522403504251
4214541 1 18411700959095601360
474 4 16878802641914734316
5104073 3 18342454829459681514
573450 72 18187353303882126634
67856867 119 18187930638177329652
69090 78 18272364239964106078
7364860 26 17979074113022900857
77779 3 18411982460047818098
8809292 202 18408608049860866890
9709674 26 18271529672084392270

>  <PUBCHEM_SHAPE_MULTIPOLES>
367.53
9.79
2.47
0.67
6.66
0.28
0
-3.3
0.48
-2.43
-0.1
0.26
-0.02
0.74

>  <PUBCHEM_SHAPE_SELFOVERLAP>
822.826

>  <PUBCHEM_SHAPE_VOLUME>
193.3

>  <RI>
-7.82417e+08

>  <Rbt.Current_Directory>
/root/miniconda3/envs/rdock/share/rxdock-2013.1.1_148c5bd1-0/data/ligands/prepped_ligands/Chrysin

>  <Rbt.Executable>
rbdock/0.1.0

>  <Rbt.Library>
librxdock.so/0.1.0

>  <Rbt.Parameter_File>
/root/miniconda3/envs/rdock/share/rxdock-2013.1.1_148c5bd1-0/data/scripts/dock.prm

>  <Rbt.Receptor>
def.prm

>  <SCORE>
-16.4457

>  <SCORE.INTER>
-16.435

>  <SCORE.INTER.CONST>
1

>  <SCORE.INTER.POLAR>
-0.982777

>  <SCORE.INTER.REPUL>
0

>  <SCORE.INTER.ROT>
1

>  <SCORE.INTER.VDW>
-19.4935

>  <SCORE.INTER.norm>
-0.864998

>  <SCORE.INTRA>
1.03834

>  <SCORE.INTRA.DIHEDRAL>
3.29095

>  <SCORE.INTRA.DIHEDRAL.0>
1.23518

>  <SCORE.INTRA.POLAR>
0

>  <SCORE.INTRA.POLAR.0>
0

>  <SCORE.INTRA.REPUL>
0

>  <SCORE.INTRA.REPUL.0>
0

>  <SCORE.INTRA.VDW>
-0.607133

>  <SCORE.INTRA.VDW.0>
0.668012

>  <SCORE.INTRA.norm>
0.0546496

>  <SCORE.RESTR>
0

>  <SCORE.RESTR.CAVITY>
0

>  <SCORE.RESTR.norm>
0

>  <SCORE.SYSTEM>
-1.04913

>  <SCORE.SYSTEM.CONST>
0

>  <SCORE.SYSTEM.DIHEDRAL>
0.0474579

>  <SCORE.SYSTEM.POLAR>
-0.00190371

>  <SCORE.SYSTEM.VDW>
-1.06638

>  <SCORE.SYSTEM.norm>
-0.0552173

>  <SCORE.heavy>
19

>  <SCORE.norm>
-0.865565

$$$$
5281607
  RxDock  02242101123D
librxdock.so/0.1.0
 21 23  0  0  0  0  0  0  0  0999 V2000
  -52.3780   -3.6733   14.6866 O   0  0  0  0  0  0
  -47.5800   -3.0428   14.9634 O   0  0  0  0  0  0
  -48.7832   -5.2017   15.8442 O   0  0  0  0  0  0
  -50.3590    0.3003   13.0513 O   0  0  0  0  0  0
  -49.9687   -3.4143   14.8522 C   0  0  0  0  0  0
  -51.2300   -2.9508   14.4820 C   0  0  0  0  0  0
  -52.2757   -4.9219   15.2808 C   0  0  0  0  0  0
  -49.8572   -4.7344   15.4911 C   0  0  0  0  0  0
  -53.5702   -5.6097   15.4587 C   0  0  0  0  0  0
  -48.8332   -2.6347   14.6200 C   0  0  0  0  0  0
  -51.1209   -5.4733   15.6868 C   0  0  0  0  0  0
  -51.3634   -1.7014   13.8761 C   0  0  0  0  0  0
  -50.2318   -0.9196   13.6421 C   0  0  0  0  0  0
  -48.9696   -1.3855   14.0133 C   0  0  0  0  0  0
  -53.6053   -6.9437   15.8722 C   0  0  0  0  0  0
  -54.7659   -4.9295   15.2144 C   0  0  0  0  0  0
  -54.8283   -7.5933   16.0402 C   0  0  0  0  0  0
  -55.9888   -5.5789   15.3827 C   0  0  0  0  0  0
  -56.0200   -6.9109   15.7956 C   0  0  0  0  0  0
  -47.3331   -3.8380   14.4670 H   0  0  0  0  0  0
  -51.2563    0.3816   12.6852 H   0  0  0  0  0  0
  1  6  1  0  0  0
  1  7  1  0  0  0
  2 10  1  0  0  0
  2 20  1  0  0  0
  3  8  2  0  0  0
  4 13  1  0  0  0
  4 21  1  0  0  0
  5  6  1  0  0  0
  5  8  1  0  0  0
  5 10  2  0  0  0
  6 12  2  0  0  0
  7  9  1  0  0  0
  7 11  2  0  0  0
  8 11  1  0  0  0
  9 15  2  0  0  0
  9 16  1  0  0  0
 10 14  1  0  0  0
 12 13  1  0  0  0
 13 14  2  0  0  0
 15 17  1  0  0  0
 16 18  2  0  0  0
 17 19  2  0  0  0
 18 19  1  0  0  0
M  END
>  <CHROM.0>
178.59155554,178.27147953,-174.22041283

>  <CHROM.1>
63.27112856,-12.45696071,171.18028288,-51.58494976,-4.00932677,14.93809841
2.43160170,0.09248394,2.71607965

>  <Name>
5281607

>  <PUBCHEM_ATOM_DEF_STEREO_COUNT>
0

>  <PUBCHEM_ATOM_UDEF_STEREO_COUNT>
0

>  <PUBCHEM_BOND_DEF_STEREO_COUNT>
0

>  <PUBCHEM_BOND_UDEF_STEREO_COUNT>
0

>  <PUBCHEM_CACTVS_TAUTO_COUNT>
12

>  <PUBCHEM_COMPONENT_COUNT>
1

>  <PUBCHEM_COMPOUND_CID>
5281607

>  <PUBCHEM_CONFORMER_DIVERSEORDER>
1

>  <PUBCHEM_CONFORMER_ID>
0050974700000001

>  <PUBCHEM_CONFORMER_RMSD>
0.6

>  <PUBCHEM_COORDINATE_TYPE>
2
5
10

>  <PUBCHEM_EFFECTIVE_ROTOR_COUNT>
1

>  <PUBCHEM_FEATURE_SELFOVERLAP>
35.55

>  <PUBCHEM_HEAVY_ATOM_COUNT>
19

>  <PUBCHEM_ISOTOPIC_ATOM_COUNT>
0

>  <PUBCHEM_MMFF94_ENERGY>
58.6802

>  <PUBCHEM_MMFF94_PARTIAL_CHARGES>
29
1 -0.16
10 0.08
11 -0.14
12 -0.15
13 0.08
14 -0.15
15 -0.15
16 -0.15
17 -0.15
18 -0.15
19 -0.15
2 -0.53
20 0.15
21 0.15
22 0.15
23 0.15
24 0.15
25 0.15
26 0.15
27 0.15
28 0.45
29 0.45
3 -0.57
4 -0.53
5 0.09
6 0.08
7 0.05
8 0.47
9 0.03

>  <PUBCHEM_PHARMACOPHORE_FEATURES>
7
1 1 acceptor
1 2 donor
1 3 acceptor
1 4 donor
6 1 5 6 7 8 11 rings
6 5 6 10 12 13 14 rings
6 9 15 16 17 18 19 rings

>  <PUBCHEM_SHAPE_FINGERPRINT>
10319926 262 18268127809494919170
10411042 1 18265615579738713891
10493431 412 18197507221146397953
10608611 8 18342171134064233104
10616163 171 18411420583546564262
11132069 177 18409449163297457936
11552529 35 17632292436352682015
12032990 46 18410295851770216003
12236239 1 17458347408211182968
12403259 226 18412821387472877168
13140716 1 18411706521194677761
13214271 11 18343016692438145285
13288520 33 18410857667820642214
13296908 3 18411982472727089118
13675066 3 18273492390518142728
14790565 3 17835527016235198305
14866123 147 16905542407924379514
15042514 8 18408611353328975545
15196674 1 18411136944106257192
15219456 202 18273213084594875086
15352361 1 18338516451385899415
15375358 24 18271805692352254134
17492 89 18409448060024340482
17804303 29 18412829079284446544
17834074 16 18342458115019991270
1813 80 17603588547200830588
18186145 218 15864357977667883748
19141452 34 18272937150226625303
200 152 17418085499329608732
20281475 54 18410863191143420508
20510252 161 18270961232888654944
21065198 57 18341612581977734456
21065199 12 18343580759357389514
21065201 7 18335979788261725250
21267235 1 18409175436536850755
221490 88 18264213680320700032
2297311 6 18341061765380641204
23366157 5 17823981353853568324
23402539 116 18410004433933626846
23557571 272 18341902895859977406
23559900 14 18341328882482245094
23845131 108 17547870555410292105
26918003 58 18201434745125223712
2748010 2 18338507659920037029
2871803 45 18408600357965063606
335352 9 18338517426438382605
34934 24 18335413522403504251
4214541 1 18411700959095601360
474 4 16878802641914734316
5104073 3 18342454829459681514
573450 72 18187353303882126634
67856867 119 18187930638177329652
69090 78 18272364239964106078
7364860 26 17979074113022900857
77779 3 18411982460047818098
8809292 202 18408608049860866890
9709674 26 18271529672084392270

>  <PUBCHEM_SHAPE_MULTIPOLES>
367.53
9.79
2.47
0.67
6.66
0.28
0
-3.3
0.48
-2.43
-0.1
0.26
-0.02
0.74

>  <PUBCHEM_SHAPE_SELFOVERLAP>
822.826

>  <PUBCHEM_SHAPE_VOLUME>
193.3

>  <RI>
-7.82417e+08

>  <Rbt.Current_Directory>
/root/miniconda3/envs/rdock/share/rxdock-2013.1.1_148c5bd1-0/data/ligands/prepped_ligands/Chrysin

>  <Rbt.Executable>
rbdock/0.1.0

>  <Rbt.Library>
librxdock.so/0.1.0

>  <Rbt.Parameter_File>
/root/miniconda3/envs/rdock/share/rxdock-2013.1.1_148c5bd1-0/data/scripts/dock.prm

>  <Rbt.Receptor>
def.prm

>  <SCORE>
-17.675

>  <SCORE.INTER>
-18.0004

>  <SCORE.INTER.CONST>
1

>  <SCORE.INTER.POLAR>
-1.79672

>  <SCORE.INTER.REPUL>
0.203594

>  <SCORE.INTER.ROT>
1

>  <SCORE.INTER.VDW>
-19.3095

>  <SCORE.INTER.norm>
-0.947388

>  <SCORE.INTRA>
1.37192

>  <SCORE.INTRA.DIHEDRAL>
2.94146

>  <SCORE.INTRA.DIHEDRAL.0>
1.23518

>  <SCORE.INTRA.POLAR>
0

>  <SCORE.INTRA.POLAR.0>
0

>  <SCORE.INTRA.REPUL>
0

>  <SCORE.INTRA.REPUL.0>
0

>  <SCORE.INTRA.VDW>
-0.0988104

>  <SCORE.INTRA.VDW.0>
0.668012

>  <SCORE.INTRA.norm>
0.0722062

>  <SCORE.RESTR>
0

>  <SCORE.RESTR.CAVITY>
0

>  <SCORE.RESTR.norm>
0

>  <SCORE.SYSTEM>
-1.0465

>  <SCORE.SYSTEM.CONST>
0

>  <SCORE.SYSTEM.DIHEDRAL>
0.0980132

>  <SCORE.SYSTEM.POLAR>
-0.0133841

>  <SCORE.SYSTEM.VDW>
-1.05

>  <SCORE.SYSTEM.norm>
-0.055079

>  <SCORE.heavy>
19

>  <SCORE.norm>
-0.930261

$$$$
5281607
  RxDock  02242101123D
librxdock.so/0.1.0
 21 23  0  0  0  0  0  0  0  0999 V2000
  -52.7415   -4.1877   14.7746 O   0  0  0  0  0  0
  -50.8293   -0.8169   17.6859 O   0  0  0  0  0  0
  -52.2876   -2.8063   18.5804 O   0  0  0  0  0  0
  -50.1312   -0.6455   12.9914 O   0  0  0  0  0  0
  -51.8088   -2.5282   16.2831 C   0  0  0  0  0  0
  -52.0050   -3.0540   15.0072 C   0  0  0  0  0  0
  -53.3082   -4.8413   15.8582 C   0  0  0  0  0  0
  -52.4160   -3.2137   17.4341 C   0  0  0  0  0  0
  -54.0833   -6.0445   15.4950 C   0  0  0  0  0  0
  -51.0494   -1.3695   16.4607 C   0  0  0  0  0  0
  -53.1968   -4.4302   17.1314 C   0  0  0  0  0  0
  -51.4415   -2.4221   13.8986 C   0  0  0  0  0  0
  -50.6821   -1.2646   14.0716 C   0  0  0  0  0  0
  -50.4866   -0.7397   15.3499 C   0  0  0  0  0  0
  -53.9705   -7.2091   16.2583 C   0  0  0  0  0  0
  -54.9332   -6.0236   14.3862 C   0  0  0  0  0  0
  -54.7027   -8.3456   15.9150 C   0  0  0  0  0  0
  -55.6658   -7.1600   14.0431 C   0  0  0  0  0  0
  -55.5505   -8.3211   14.8075 C   0  0  0  0  0  0
  -50.2315   -0.0571   17.6141 H   0  0  0  0  0  0
  -49.7178   -1.3156   12.4205 H   0  0  0  0  0  0
  1  6  1  0  0  0
  1  7  1  0  0  0
  2 10  1  0  0  0
  2 20  1  0  0  0
  3  8  2  0  0  0
  4 13  1  0  0  0
  4 21  1  0  0  0
  5  6  1  0  0  0
  5  8  1  0  0  0
  5 10  2  0  0  0
  6 12  2  0  0  0
  7  9  1  0  0  0
  7 11  2  0  0  0
  8 11  1  0  0  0
  9 15  2  0  0  0
  9 16  1  0  0  0
 10 14  1  0  0  0
 12 13  1  0  0  0
 13 14  2  0  0  0
 15 17  1  0  0  0
 16 18  2  0  0  0
 17 19  2  0  0  0
 18 19  1  0  0  0
M  END
>  <CHROM.0>
59.19164243,-58.35422264,177.90898147

>  <CHROM.1>
176.02122699,-45.45140076,137.53171399,-52.63554047,-3.87829565,15.61057962
-3.04971770,0.98010624,1.50430179

>  <Name>
5281607

>  <PUBCHEM_ATOM_DEF_STEREO_COUNT>
0

>  <PUBCHEM_ATOM_UDEF_STEREO_COUNT>
0

>  <PUBCHEM_BOND_DEF_STEREO_COUNT>
0

>  <PUBCHEM_BOND_UDEF_STEREO_COUNT>
0

>  <PUBCHEM_CACTVS_TAUTO_COUNT>
12

>  <PUBCHEM_COMPONENT_COUNT>
1

>  <PUBCHEM_COMPOUND_CID>
5281607

>  <PUBCHEM_CONFORMER_DIVERSEORDER>
1

>  <PUBCHEM_CONFORMER_ID>
0050974700000001

>  <PUBCHEM_CONFORMER_RMSD>
0.6

>  <PUBCHEM_COORDINATE_TYPE>
2
5
10

>  <PUBCHEM_EFFECTIVE_ROTOR_COUNT>
1

>  <PUBCHEM_FEATURE_SELFOVERLAP>
35.55

>  <PUBCHEM_HEAVY_ATOM_COUNT>
19

>  <PUBCHEM_ISOTOPIC_ATOM_COUNT>
0

>  <PUBCHEM_MMFF94_ENERGY>
58.6802

>  <PUBCHEM_MMFF94_PARTIAL_CHARGES>
29
1 -0.16
10 0.08
11 -0.14
12 -0.15
13 0.08
14 -0.15
15 -0.15
16 -0.15
17 -0.15
18 -0.15
19 -0.15
2 -0.53
20 0.15
21 0.15
22 0.15
23 0.15
24 0.15
25 0.15
26 0.15
27 0.15
28 0.45
29 0.45
3 -0.57
4 -0.53
5 0.09
6 0.08
7 0.05
8 0.47
9 0.03

>  <PUBCHEM_PHARMACOPHORE_FEATURES>
7
1 1 acceptor
1 2 donor
1 3 acceptor
1 4 donor
6 1 5 6 7 8 11 rings
6 5 6 10 12 13 14 rings
6 9 15 16 17 18 19 rings

>  <PUBCHEM_SHAPE_FINGERPRINT>
10319926 262 18268127809494919170
10411042 1 18265615579738713891
10493431 412 18197507221146397953
10608611 8 18342171134064233104
10616163 171 18411420583546564262
11132069 177 18409449163297457936
11552529 35 17632292436352682015
12032990 46 18410295851770216003
12236239 1 17458347408211182968
12403259 226 18412821387472877168
13140716 1 18411706521194677761
13214271 11 18343016692438145285
13288520 33 18410857667820642214
13296908 3 18411982472727089118
13675066 3 18273492390518142728
14790565 3 17835527016235198305
14866123 147 16905542407924379514
15042514 8 18408611353328975545
15196674 1 18411136944106257192
15219456 202 18273213084594875086
15352361 1 18338516451385899415
15375358 24 18271805692352254134
17492 89 18409448060024340482
17804303 29 18412829079284446544
17834074 16 18342458115019991270
1813 80 17603588547200830588
18186145 218 15864357977667883748
19141452 34 18272937150226625303
200 152 17418085499329608732
20281475 54 18410863191143420508
20510252 161 18270961232888654944
21065198 57 18341612581977734456
21065199 12 18343580759357389514
21065201 7 18335979788261725250
21267235 1 18409175436536850755
221490 88 18264213680320700032
2297311 6 18341061765380641204
23366157 5 17823981353853568324
23402539 116 18410004433933626846
23557571 272 18341902895859977406
23559900 14 18341328882482245094
23845131 108 17547870555410292105
26918003 58 18201434745125223712
2748010 2 18338507659920037029
2871803 45 18408600357965063606
335352 9 18338517426438382605
34934 24 18335413522403504251
4214541 1 18411700959095601360
474 4 16878802641914734316
5104073 3 18342454829459681514
573450 72 18187353303882126634
67856867 119 18187930638177329652
69090 78 18272364239964106078
7364860 26 17979074113022900857
77779 3 18411982460047818098
8809292 202 18408608049860866890
9709674 26 18271529672084392270

>  <PUBCHEM_SHAPE_MULTIPOLES>
367.53
9.79
2.47
0.67
6.66
0.28
0
-3.3
0.48
-2.43
-0.1
0.26
-0.02
0.74

>  <PUBCHEM_SHAPE_SELFOVERLAP>
822.826

>  <PUBCHEM_SHAPE_VOLUME>
193.3

>  <RI>
-7.82417e+08

>  <Rbt.Current_Directory>
/root/miniconda3/envs/rdock/share/rxdock-2013.1.1_148c5bd1-0/data/ligands/prepped_ligands/Chrysin

>  <Rbt.Executable>
rbdock/0.1.0

>  <Rbt.Library>
librxdock.so/0.1.0

>  <Rbt.Parameter_File>
/root/miniconda3/envs/rdock/share/rxdock-2013.1.1_148c5bd1-0/data/scripts/dock.prm

>  <Rbt.Receptor>
def.prm

>  <SCORE>
-17.4563

>  <SCORE.INTER>
-17.6991

>  <SCORE.INTER.CONST>
1

>  <SCORE.INTER.POLAR>
-1.03437

>  <SCORE.INTER.REPUL>
0

>  <SCORE.INTER.ROT>
1

>  <SCORE.INTER.VDW>
-20.5823

>  <SCORE.INTER.norm>
-0.931532

>  <SCORE.INTRA>
1.28871

>  <SCORE.INTRA.DIHEDRAL>
3.45205

>  <SCORE.INTRA.DIHEDRAL.0>
1.23518

>  <SCORE.INTRA.POLAR>
0

>  <SCORE.INTRA.POLAR.0>
0

>  <SCORE.INTRA.REPUL>
0

>  <SCORE.INTRA.REPUL.0>
0

>  <SCORE.INTRA.VDW>
-0.437314

>  <SCORE.INTRA.VDW.0>
0.668012

>  <SCORE.INTRA.norm>
0.067827

>  <SCORE.RESTR>
0

>  <SCORE.RESTR.CAVITY>
0

>  <SCORE.RESTR.norm>
0

>  <SCORE.SYSTEM>
-1.04591

>  <SCORE.SYSTEM.CONST>
0

>  <SCORE.SYSTEM.DIHEDRAL>
0.0282473

>  <SCORE.SYSTEM.VDW>
-1.06003

>  <SCORE.SYSTEM.norm>
-0.0550479

>  <SCORE.heavy>
19

>  <SCORE.norm>
-0.918753

$$$$
5281607
  RxDock  02242101123D
librxdock.so/0.1.0
 21 23  0  0  0  0  0  0  0  0999 V2000
  -46.8947   -0.3823   14.2629 O   0  0  0  0  0  0
  -47.2584   -3.9520   17.5217 O   0  0  0  0  0  0
  -49.3338   -2.9693   16.2521 O   0  0  0  0  0  0
  -43.0375   -2.0414   16.4785 O   0  0  0  0  0  0
  -47.1393   -2.1727   15.8858 C   0  0  0  0  0  0
  -46.3631   -1.2610   15.1723 C   0  0  0  0  0  0
  -48.2630   -0.4093   14.0401 C   0  0  0  0  0  0
  -48.5923   -2.1981   15.6589 C   0  0  0  0  0  0
  -48.7291    0.5802   13.0480 C   0  0  0  0  0  0
  -46.5437   -3.0441   16.8006 C   0  0  0  0  0  0
  -49.1149   -1.2347   14.6689 C   0  0  0  0  0  0
  -44.9830   -1.2152   15.3703 C   0  0  0  0  0  0
  -44.3841   -2.0840   16.2829 C   0  0  0  0  0  0
  -45.1629   -2.9964   16.9963 C   0  0  0  0  0  0
  -47.9087    0.9390   11.9757 C   0  0  0  0  0  0
  -49.9928    1.1620   13.1773 C   0  0  0  0  0  0
  -48.3491    1.8738   11.0387 C   0  0  0  0  0  0
  -50.4334    2.0965   12.2401 C   0  0  0  0  0  0
  -49.6115    2.4524   11.1707 C   0  0  0  0  0  0
  -48.1939   -3.9269   17.2687 H   0  0  0  0  0  0
  -42.6952   -2.9510   16.5162 H   0  0  0  0  0  0
  1  6  1  0  0  0
  1  7  1  0  0  0
  2 10  1  0  0  0
  2 20  1  0  0  0
  3  8  2  0  0  0
  4 13  1  0  0  0
  4 21  1  0  0  0
  5  6  1  0  0  0
  5  8  1  0  0  0
  5 10  2  0  0  0
  6 12  2  0  0  0
  7  9  1  0  0  0
  7 11  2  0  0  0
  8 11  1  0  0  0
  9 15  2  0  0  0
  9 16  1  0  0  0
 10 14  1  0  0  0
 12 13  1  0  0  0
 13 14  2  0  0  0
 15 17  1  0  0  0
 16 18  2  0  0  0
 17 19  2  0  0  0
 18 19  1  0  0  0
M  END
>  <CHROM.0>
-45.30434834,63.49285496,-61.52399811

>  <CHROM.1>
3.08160091,-136.74166219,32.62494242,-47.43209490,-0.95802121,14.70414630
-2.10576404,0.07004806,2.36462574

>  <Name>
5281607

>  <PUBCHEM_ATOM_DEF_STEREO_COUNT>
0

>  <PUBCHEM_ATOM_UDEF_STEREO_COUNT>
0

>  <PUBCHEM_BOND_DEF_STEREO_COUNT>
0

>  <PUBCHEM_BOND_UDEF_STEREO_COUNT>
0

>  <PUBCHEM_CACTVS_TAUTO_COUNT>
12

>  <PUBCHEM_COMPONENT_COUNT>
1

>  <PUBCHEM_COMPOUND_CID>
5281607

>  <PUBCHEM_CONFORMER_DIVERSEORDER>
1

>  <PUBCHEM_CONFORMER_ID>
0050974700000001

>  <PUBCHEM_CONFORMER_RMSD>
0.6

>  <PUBCHEM_COORDINATE_TYPE>
2
5
10

>  <PUBCHEM_EFFECTIVE_ROTOR_COUNT>
1

>  <PUBCHEM_FEATURE_SELFOVERLAP>
35.55

>  <PUBCHEM_HEAVY_ATOM_COUNT>
19

>  <PUBCHEM_ISOTOPIC_ATOM_COUNT>
0

>  <PUBCHEM_MMFF94_ENERGY>
58.6802

>  <PUBCHEM_MMFF94_PARTIAL_CHARGES>
29
1 -0.16
10 0.08
11 -0.14
12 -0.15
13 0.08
14 -0.15
15 -0.15
16 -0.15
17 -0.15
18 -0.15
19 -0.15
2 -0.53
20 0.15
21 0.15
22 0.15
23 0.15
24 0.15
25 0.15
26 0.15
27 0.15
28 0.45
29 0.45
3 -0.57
4 -0.53
5 0.09
6 0.08
7 0.05
8 0.47
9 0.03

>  <PUBCHEM_PHARMACOPHORE_FEATURES>
7
1 1 acceptor
1 2 donor
1 3 acceptor
1 4 donor
6 1 5 6 7 8 11 rings
6 5 6 10 12 13 14 rings
6 9 15 16 17 18 19 rings

>  <PUBCHEM_SHAPE_FINGERPRINT>
10319926 262 18268127809494919170
10411042 1 18265615579738713891
10493431 412 18197507221146397953
10608611 8 18342171134064233104
10616163 171 18411420583546564262
11132069 177 18409449163297457936
11552529 35 17632292436352682015
12032990 46 18410295851770216003
12236239 1 17458347408211182968
12403259 226 18412821387472877168
13140716 1 18411706521194677761
13214271 11 18343016692438145285
13288520 33 18410857667820642214
13296908 3 18411982472727089118
13675066 3 18273492390518142728
14790565 3 17835527016235198305
14866123 147 16905542407924379514
15042514 8 18408611353328975545
15196674 1 18411136944106257192
15219456 202 18273213084594875086
15352361 1 18338516451385899415
15375358 24 18271805692352254134
17492 89 18409448060024340482
17804303 29 18412829079284446544
17834074 16 18342458115019991270
1813 80 17603588547200830588
18186145 218 15864357977667883748
19141452 34 18272937150226625303
200 152 17418085499329608732
20281475 54 18410863191143420508
20510252 161 18270961232888654944
21065198 57 18341612581977734456
21065199 12 18343580759357389514
21065201 7 18335979788261725250
21267235 1 18409175436536850755
221490 88 18264213680320700032
2297311 6 18341061765380641204
23366157 5 17823981353853568324
23402539 116 18410004433933626846
23557571 272 18341902895859977406
23559900 14 18341328882482245094
23845131 108 17547870555410292105
26918003 58 18201434745125223712
2748010 2 18338507659920037029
2871803 45 18408600357965063606
335352 9 18338517426438382605
34934 24 18335413522403504251
4214541 1 18411700959095601360
474 4 16878802641914734316
5104073 3 18342454829459681514
573450 72 18187353303882126634
67856867 119 18187930638177329652
69090 78 18272364239964106078
7364860 26 17979074113022900857
77779 3 18411982460047818098
8809292 202 18408608049860866890
9709674 26 18271529672084392270

>  <PUBCHEM_SHAPE_MULTIPOLES>
367.53
9.79
2.47
0.67
6.66
0.28
0
-3.3
0.48
-2.43
-0.1
0.26
-0.02
0.74

>  <PUBCHEM_SHAPE_SELFOVERLAP>
822.826

>  <PUBCHEM_SHAPE_VOLUME>
193.3

>  <RI>
-7.82417e+08

>  <Rbt.Current_Directory>
/root/miniconda3/envs/rdock/share/rxdock-2013.1.1_148c5bd1-0/data/ligands/prepped_ligands/Chrysin

>  <Rbt.Executable>
rbdock/0.1.0

>  <Rbt.Library>
librxdock.so/0.1.0

>  <Rbt.Parameter_File>
/root/miniconda3/envs/rdock/share/rxdock-2013.1.1_148c5bd1-0/data/scripts/dock.prm

>  <Rbt.Receptor>
def.prm

>  <SCORE>
-14.6217

>  <SCORE.INTER>
-14.7526

>  <SCORE.INTER.CONST>
1

>  <SCORE.INTER.POLAR>
-0.798587

>  <SCORE.INTER.REPUL>
0

>  <SCORE.INTER.ROT>
1

>  <SCORE.INTER.VDW>
-18.4374

>  <SCORE.INTER.norm>
-0.776452

>  <SCORE.INTRA>
0.823988

>  <SCORE.INTRA.DIHEDRAL>
2.39377

>  <SCORE.INTRA.DIHEDRAL.0>
1.23518

>  <SCORE.INTRA.POLAR>
0

>  <SCORE.INTRA.POLAR.0>
0

>  <SCORE.INTRA.REPUL>
0

>  <SCORE.INTRA.REPUL.0>
0

>  <SCORE.INTRA.VDW>
-0.372899

>  <SCORE.INTRA.VDW.0>
0.668012

>  <SCORE.INTRA.norm>
0.0433678

>  <SCORE.RESTR>
0

>  <SCORE.RESTR.CAVITY>
0

>  <SCORE.RESTR.norm>
0

>  <SCORE.SYSTEM>
-0.693097

>  <SCORE.SYSTEM.CONST>
0

>  <SCORE.SYSTEM.DIHEDRAL>
0.564448

>  <SCORE.SYSTEM.VDW>
-0.975321

>  <SCORE.SYSTEM.norm>
-0.0364788

>  <SCORE.heavy>
19

>  <SCORE.norm>
-0.769563

$$$$
5281607
  RxDock  02242101123D
librxdock.so/0.1.0
 21 23  0  0  0  0  0  0  0  0999 V2000
  -47.5033    0.2717   13.6602 O   0  0  0  0  0  0
  -48.1299   -4.0302   15.8039 O   0  0  0  0  0  0
  -50.0563   -2.7806   14.5343 O   0  0  0  0  0  0
  -43.9115   -1.8518   15.9251 O   0  0  0  0  0  0
  -47.8775   -1.8838   14.7151 C   0  0  0  0  0  0
  -47.0584   -0.8062   14.3827 C   0  0  0  0  0  0
  -48.8237    0.2838   13.2369 C   0  0  0  0  0  0
  -49.2810   -1.8704   14.2756 C   0  0  0  0  0  0
  -49.1981    1.4911   12.4736 C   0  0  0  0  0  0
  -47.3704   -2.9552   15.4541 C   0  0  0  0  0  0
  -49.7103   -0.6897   13.4992 C   0  0  0  0  0  0
  -45.7239   -0.7934   14.7890 C   0  0  0  0  0  0
  -45.2134   -1.8616   15.5270 C   0  0  0  0  0  0
  -46.0350   -2.9399   15.8587 C   0  0  0  0  0  0
  -50.4710    2.0479   12.6208 C   0  0  0  0  0  0
  -48.2812    2.0821   11.6007 C   0  0  0  0  0  0
  -50.8246    3.1884   11.8997 C   0  0  0  0  0  0
  -48.6346    3.2228   10.8798 C   0  0  0  0  0  0
  -49.9064    3.7759   11.0293 C   0  0  0  0  0  0
  -47.5837   -4.7086   16.2296 H   0  0  0  0  0  0
  -43.4455   -1.1343   15.4625 H   0  0  0  0  0  0
  1  6  1  0  0  0
  1  7  1  0  0  0
  2 10  1  0  0  0
  2 20  1  0  0  0
  3  8  2  0  0  0
  4 13  1  0  0  0
  4 21  1  0  0  0
  5  6  1  0  0  0
  5  8  1  0  0  0
  5 10  2  0  0  0
  6 12  2  0  0  0
  7  9  1  0  0  0
  7 11  2  0  0  0
  8 11  1  0  0  0
  9 15  2  0  0  0
  9 16  1  0  0  0
 10 14  1  0  0  0
 12 13  1  0  0  0
 13 14  2  0  0  0
 15 17  1  0  0  0
 16 18  2  0  0  0
 17 19  2  0  0  0
 18 19  1  0  0  0
M  END
>  <CHROM.0>
-176.49025228,-63.88401101,63.78864284

>  <CHROM.1>
174.01256680,-11.56891438,-143.45354461,-48.05977498,-0.40371894,13.85612372
-2.04257831,0.20540804,2.61764557

>  <Name>
5281607

>  <PUBCHEM_ATOM_DEF_STEREO_COUNT>
0

>  <PUBCHEM_ATOM_UDEF_STEREO_COUNT>
0

>  <PUBCHEM_BOND_DEF_STEREO_COUNT>
0

>  <PUBCHEM_BOND_UDEF_STEREO_COUNT>
0

>  <PUBCHEM_CACTVS_TAUTO_COUNT>
12

>  <PUBCHEM_COMPONENT_COUNT>
1

>  <PUBCHEM_COMPOUND_CID>
5281607

>  <PUBCHEM_CONFORMER_DIVERSEORDER>
1

>  <PUBCHEM_CONFORMER_ID>
0050974700000001

>  <PUBCHEM_CONFORMER_RMSD>
0.6

>  <PUBCHEM_COORDINATE_TYPE>
2
5
10

>  <PUBCHEM_EFFECTIVE_ROTOR_COUNT>
1

>  <PUBCHEM_FEATURE_SELFOVERLAP>
35.55

>  <PUBCHEM_HEAVY_ATOM_COUNT>
19

>  <PUBCHEM_ISOTOPIC_ATOM_COUNT>
0

>  <PUBCHEM_MMFF94_ENERGY>
58.6802

>  <PUBCHEM_MMFF94_PARTIAL_CHARGES>
29
1 -0.16
10 0.08
11 -0.14
12 -0.15
13 0.08
14 -0.15
15 -0.15
16 -0.15
17 -0.15
18 -0.15
19 -0.15
2 -0.53
20 0.15
21 0.15
22 0.15
23 0.15
24 0.15
25 0.15
26 0.15
27 0.15
28 0.45
29 0.45
3 -0.57
4 -0.53
5 0.09
6 0.08
7 0.05
8 0.47
9 0.03

>  <PUBCHEM_PHARMACOPHORE_FEATURES>
7
1 1 acceptor
1 2 donor
1 3 acceptor
1 4 donor
6 1 5 6 7 8 11 rings
6 5 6 10 12 13 14 rings
6 9 15 16 17 18 19 rings

>  <PUBCHEM_SHAPE_FINGERPRINT>
10319926 262 18268127809494919170
10411042 1 18265615579738713891
10493431 412 18197507221146397953
10608611 8 18342171134064233104
10616163 171 18411420583546564262
11132069 177 18409449163297457936
11552529 35 17632292436352682015
12032990 46 18410295851770216003
12236239 1 17458347408211182968
12403259 226 18412821387472877168
13140716 1 18411706521194677761
13214271 11 18343016692438145285
13288520 33 18410857667820642214
13296908 3 18411982472727089118
13675066 3 18273492390518142728
14790565 3 17835527016235198305
14866123 147 16905542407924379514
15042514 8 18408611353328975545
15196674 1 18411136944106257192
15219456 202 18273213084594875086
15352361 1 18338516451385899415
15375358 24 18271805692352254134
17492 89 18409448060024340482
17804303 29 18412829079284446544
17834074 16 18342458115019991270
1813 80 17603588547200830588
18186145 218 15864357977667883748
19141452 34 18272937150226625303
200 152 17418085499329608732
20281475 54 18410863191143420508
20510252 161 18270961232888654944
21065198 57 18341612581977734456
21065199 12 18343580759357389514
21065201 7 18335979788261725250
21267235 1 18409175436536850755
221490 88 18264213680320700032
2297311 6 18341061765380641204
23366157 5 17823981353853568324
23402539 116 18410004433933626846
23557571 272 18341902895859977406
23559900 14 18341328882482245094
23845131 108 17547870555410292105
26918003 58 18201434745125223712
2748010 2 18338507659920037029
2871803 45 18408600357965063606
335352 9 18338517426438382605
34934 24 18335413522403504251
4214541 1 18411700959095601360
474 4 16878802641914734316
5104073 3 18342454829459681514
573450 72 18187353303882126634
67856867 119 18187930638177329652
69090 78 18272364239964106078
7364860 26 17979074113022900857
77779 3 18411982460047818098
8809292 202 18408608049860866890
9709674 26 18271529672084392270

>  <PUBCHEM_SHAPE_MULTIPOLES>
367.53
9.79
2.47
0.67
6.66
0.28
0
-3.3
0.48
-2.43
-0.1
0.26
-0.02
0.74

>  <PUBCHEM_SHAPE_SELFOVERLAP>
822.826

>  <PUBCHEM_SHAPE_VOLUME>
193.3

>  <RI>
-7.82417e+08

>  <Rbt.Current_Directory>
/root/miniconda3/envs/rdock/share/rxdock-2013.1.1_148c5bd1-0/data/ligands/prepped_ligands/Chrysin

>  <Rbt.Executable>
rbdock/0.1.0

>  <Rbt.Library>
librxdock.so/0.1.0

>  <Rbt.Parameter_File>
/root/miniconda3/envs/rdock/share/rxdock-2013.1.1_148c5bd1-0/data/scripts/dock.prm

>  <Rbt.Receptor>
def.prm

>  <SCORE>
-16.2941

>  <SCORE.INTER>
-15.6609

>  <SCORE.INTER.CONST>
1

>  <SCORE.INTER.POLAR>
-0.37545

>  <SCORE.INTER.REPUL>
0.00552273

>  <SCORE.INTER.ROT>
1

>  <SCORE.INTER.VDW>
-20.812

>  <SCORE.INTER.norm>
-0.824257

>  <SCORE.INTRA>
0.366833

>  <SCORE.INTRA.DIHEDRAL>
0.674103

>  <SCORE.INTRA.DIHEDRAL.0>
1.23518

>  <SCORE.INTRA.POLAR>
0

>  <SCORE.INTRA.POLAR.0>
0

>  <SCORE.INTRA.REPUL>
0

>  <SCORE.INTRA.REPUL.0>
0

>  <SCORE.INTRA.VDW>
0.0297815

>  <SCORE.INTRA.VDW.0>
0.668012

>  <SCORE.INTRA.norm>
0.019307

>  <SCORE.RESTR>
0

>  <SCORE.RESTR.CAVITY>
0

>  <SCORE.RESTR.norm>
0

>  <SCORE.SYSTEM>
-1.00001

>  <SCORE.SYSTEM.CONST>
0

>  <SCORE.SYSTEM.DIHEDRAL>
0.134345

>  <SCORE.SYSTEM.POLAR>
-0.00898404

>  <SCORE.SYSTEM.VDW>
-1.03664

>  <SCORE.SYSTEM.norm>
-0.052632

>  <SCORE.heavy>
19

>  <SCORE.norm>
-0.857582

$$$$
