5281607
  RxDock  02242112513D
librxdock.so/0.1.0
 21 23  0  0  0  0  0  0  0  0999 V2000
  -51.1272   -4.5135   16.0791 O   0  0  0  0  0  0
  -48.9511   -0.5571   14.3167 O   0  0  0  0  0  0
  -51.3940   -1.2495   13.6555 O   0  0  0  0  0  0
  -46.6953   -3.4073   17.3732 O   0  0  0  0  0  0
  -50.0891   -2.5179   15.1630 C   0  0  0  0  0  0
  -50.0645   -3.6527   15.9719 C   0  0  0  0  0  0
  -52.2774   -4.2363   15.3560 C   0  0  0  0  0  0
  -51.3042   -2.2255   14.3875 C   0  0  0  0  0  0
  -53.3555   -5.2285   15.5398 C   0  0  0  0  0  0
  -48.9764   -1.6766   15.0920 C   0  0  0  0  0  0
  -52.4204   -3.1806   14.5391 C   0  0  0  0  0  0
  -48.9237   -3.9538   16.7162 C   0  0  0  0  0  0
  -47.8102   -3.1160   16.6483 C   0  0  0  0  0  0
  -47.8367   -1.9800   15.8379 C   0  0  0  0  0  0
  -54.6574   -4.9350   15.1269 C   0  0  0  0  0  0
  -53.0783   -6.4654   16.1275 C   0  0  0  0  0  0
  -55.6757   -5.8724   15.3006 C   0  0  0  0  0  0
  -54.0964   -7.4030   16.3008 C   0  0  0  0  0  0
  -55.3952   -7.1065   15.8874 C   0  0  0  0  0  0
  -49.8241   -0.3919   13.9290 H   0  0  0  0  0  0
  -46.6436   -4.3704   17.4993 H   0  0  0  0  0  0
  1  6  1  0  0  0
  1  7  1  0  0  0
  2 10  1  0  0  0
  2 20  1  0  0  0
  3  8  2  0  0  0
  4 13  1  0  0  0
  4 21  1  0  0  0
  5  6  1  0  0  0
  5  8  1  0  0  0
  5 10  2  0  0  0
  6 12  2  0  0  0
  7  9  1  0  0  0
  7 11  2  0  0  0
  8 11  1  0  0  0
  9 15  2  0  0  0
  9 16  1  0  0  0
 10 14  1  0  0  0
 12 13  1  0  0  0
 13 14  2  0  0  0
 15 17  1  0  0  0
 16 18  2  0  0  0
 17 19  2  0  0  0
 18 19  1  0  0  0
M  END
>  <CHROM.0>
-169.43233488,63.07047132,-51.68705392

>  <CHROM.1>
6.61129336,28.48444728,165.54926278,-51.18468325,-3.79542239,15.54338964
-2.67601061,-0.34898903,-0.58026687

>  <Name>
5281607

>  <PUBCHEM_ATOM_DEF_STEREO_COUNT>
0

>  <PUBCHEM_ATOM_UDEF_STEREO_COUNT>
0

>  <PUBCHEM_BOND_DEF_STEREO_COUNT>
0

>  <PUBCHEM_BOND_UDEF_STEREO_COUNT>
0

>  <PUBCHEM_CACTVS_TAUTO_COUNT>
12

>  <PUBCHEM_COMPONENT_COUNT>
1

>  <PUBCHEM_COMPOUND_CID>
5281607

>  <PUBCHEM_CONFORMER_DIVERSEORDER>
1

>  <PUBCHEM_CONFORMER_ID>
0050974700000001

>  <PUBCHEM_CONFORMER_RMSD>
0.6

>  <PUBCHEM_COORDINATE_TYPE>
2
5
10

>  <PUBCHEM_EFFECTIVE_ROTOR_COUNT>
1

>  <PUBCHEM_FEATURE_SELFOVERLAP>
35.55

>  <PUBCHEM_HEAVY_ATOM_COUNT>
19

>  <PUBCHEM_ISOTOPIC_ATOM_COUNT>
0

>  <PUBCHEM_MMFF94_ENERGY>
58.6802

>  <PUBCHEM_MMFF94_PARTIAL_CHARGES>
29
1 -0.16
10 0.08
11 -0.14
12 -0.15
13 0.08
14 -0.15
15 -0.15
16 -0.15
17 -0.15
18 -0.15
19 -0.15
2 -0.53
20 0.15
21 0.15
22 0.15
23 0.15
24 0.15
25 0.15
26 0.15
27 0.15
28 0.45
29 0.45
3 -0.57
4 -0.53
5 0.09
6 0.08
7 0.05
8 0.47
9 0.03

>  <PUBCHEM_PHARMACOPHORE_FEATURES>
7
1 1 acceptor
1 2 donor
1 3 acceptor
1 4 donor
6 1 5 6 7 8 11 rings
6 5 6 10 12 13 14 rings
6 9 15 16 17 18 19 rings

>  <PUBCHEM_SHAPE_FINGERPRINT>
10319926 262 18268127809494919170
10411042 1 18265615579738713891
10493431 412 18197507221146397953
10608611 8 18342171134064233104
10616163 171 18411420583546564262
11132069 177 18409449163297457936
11552529 35 17632292436352682015
12032990 46 18410295851770216003
12236239 1 17458347408211182968
12403259 226 18412821387472877168
13140716 1 18411706521194677761
13214271 11 18343016692438145285
13288520 33 18410857667820642214
13296908 3 18411982472727089118
13675066 3 18273492390518142728
14790565 3 17835527016235198305
14866123 147 16905542407924379514
15042514 8 18408611353328975545
15196674 1 18411136944106257192
15219456 202 18273213084594875086
15352361 1 18338516451385899415
15375358 24 18271805692352254134
17492 89 18409448060024340482
17804303 29 18412829079284446544
17834074 16 18342458115019991270
1813 80 17603588547200830588
18186145 218 15864357977667883748
19141452 34 18272937150226625303
200 152 17418085499329608732
20281475 54 18410863191143420508
20510252 161 18270961232888654944
21065198 57 18341612581977734456
21065199 12 18343580759357389514
21065201 7 18335979788261725250
21267235 1 18409175436536850755
221490 88 18264213680320700032
2297311 6 18341061765380641204
23366157 5 17823981353853568324
23402539 116 18410004433933626846
23557571 272 18341902895859977406
23559900 14 18341328882482245094
23845131 108 17547870555410292105
26918003 58 18201434745125223712
2748010 2 18338507659920037029
2871803 45 18408600357965063606
335352 9 18338517426438382605
34934 24 18335413522403504251
4214541 1 18411700959095601360
474 4 16878802641914734316
5104073 3 18342454829459681514
573450 72 18187353303882126634
67856867 119 18187930638177329652
69090 78 18272364239964106078
7364860 26 17979074113022900857
77779 3 18411982460047818098
8809292 202 18408608049860866890
9709674 26 18271529672084392270

>  <PUBCHEM_SHAPE_MULTIPOLES>
367.53
9.79
2.47
0.67
6.66
0.28
0
-3.3
0.48
-2.43
-0.1
0.26
-0.02
0.74

>  <PUBCHEM_SHAPE_SELFOVERLAP>
822.826

>  <PUBCHEM_SHAPE_VOLUME>
193.3

>  <RI>
-4.51194e+08

>  <Rbt.Current_Directory>
/root/miniconda3/envs/rdock/share/rxdock-2013.1.1_148c5bd1-0/data/ligands/prepped_ligands/Chrysin

>  <Rbt.Executable>
rbdock/0.1.0

>  <Rbt.Library>
librxdock.so/0.1.0

>  <Rbt.Parameter_File>
/root/miniconda3/envs/rdock/share/rxdock-2013.1.1_148c5bd1-0/data/scripts/dock.prm

>  <Rbt.Receptor>
def.prm

>  <SCORE>
-12.0442

>  <SCORE.INTER>
-11.5487

>  <SCORE.INTER.CONST>
1

>  <SCORE.INTER.POLAR>
-0.437698

>  <SCORE.INTER.REPUL>
0.0196847

>  <SCORE.INTER.ROT>
1

>  <SCORE.INTER.VDW>
-16.5589

>  <SCORE.INTER.norm>
-0.607824

>  <SCORE.INTRA>
0.246196

>  <SCORE.INTRA.DIHEDRAL>
0.239802

>  <SCORE.INTRA.DIHEDRAL.0>
1.23518

>  <SCORE.INTRA.POLAR>
0

>  <SCORE.INTRA.POLAR.0>
0

>  <SCORE.INTRA.REPUL>
0

>  <SCORE.INTRA.REPUL.0>
0

>  <SCORE.INTRA.VDW>
0.126295

>  <SCORE.INTRA.VDW.0>
0.668012

>  <SCORE.INTRA.norm>
0.0129577

>  <SCORE.RESTR>
0

>  <SCORE.RESTR.CAVITY>
0

>  <SCORE.RESTR.norm>
0

>  <SCORE.SYSTEM>
-0.741743

>  <SCORE.SYSTEM.CONST>
0

>  <SCORE.SYSTEM.DIHEDRAL>
0.469039

>  <SCORE.SYSTEM.POLAR>
-0.0160497

>  <SCORE.SYSTEM.VDW>
-0.921693

>  <SCORE.SYSTEM.norm>
-0.0390391

>  <SCORE.heavy>
19

>  <SCORE.norm>
-0.633905

$$$$
5281607
  RxDock  02242112513D
librxdock.so/0.1.0
 21 23  0  0  0  0  0  0  0  0999 V2000
  -52.6925   -3.9967   14.7803 O   0  0  0  0  0  0
  -50.5686   -0.8444   17.7881 O   0  0  0  0  0  0
  -51.9907   -2.8802   18.6351 O   0  0  0  0  0  0
  -50.1582   -0.3591   13.0816 O   0  0  0  0  0  0
  -51.6509   -2.4499   16.3365 C   0  0  0  0  0  0
  -51.9307   -2.8864   15.0428 C   0  0  0  0  0  0
  -53.1986   -4.7186   15.8505 C   0  0  0  0  0  0
  -52.1937   -3.2078   17.4742 C   0  0  0  0  0  0
  -54.0077   -5.8891   15.4558 C   0  0  0  0  0  0
  -50.8695   -1.3110   16.5444 C   0  0  0  0  0  0
  -53.0048   -4.3958   17.1392 C   0  0  0  0  0  0
  -51.4296   -2.1844   13.9464 C   0  0  0  0  0  0
  -50.6485   -1.0465   14.1496 C   0  0  0  0  0  0
  -50.3691   -0.6110   15.4459 C   0  0  0  0  0  0
  -54.0154   -7.0376   16.2512 C   0  0  0  0  0  0
  -54.7692   -5.8534   14.2849 C   0  0  0  0  0  0
  -54.7797   -8.1433   15.8782 C   0  0  0  0  0  0
  -55.5338   -6.9589   13.9121 C   0  0  0  0  0  0
  -55.5390   -8.1039   14.7087 C   0  0  0  0  0  0
  -50.0311   -0.0398   17.7288 H   0  0  0  0  0  0
  -50.7774   -0.4495   12.3370 H   0  0  0  0  0  0
  1  6  1  0  0  0
  1  7  1  0  0  0
  2 10  1  0  0  0
  2 20  1  0  0  0
  3  8  2  0  0  0
  4 13  1  0  0  0
  4 21  1  0  0  0
  5  6  1  0  0  0
  5  8  1  0  0  0
  5 10  2  0  0  0
  6 12  2  0  0  0
  7  9  1  0  0  0
  7 11  2  0  0  0
  8 11  1  0  0  0
  9 15  2  0  0  0
  9 16  1  0  0  0
 10 14  1  0  0  0
 12 13  1  0  0  0
 13 14  2  0  0  0
 15 17  1  0  0  0
 16 18  2  0  0  0
 17 19  2  0  0  0
 18 19  1  0  0  0
M  END
>  <CHROM.0>
52.40812109,-178.80899128,-57.48076349

>  <CHROM.1>
-179.06012066,30.57858630,147.36247608,-52.53619424,-3.74323646,15.62669504
3.12449276,0.97202521,1.66012009

>  <Name>
5281607

>  <PUBCHEM_ATOM_DEF_STEREO_COUNT>
0

>  <PUBCHEM_ATOM_UDEF_STEREO_COUNT>
0

>  <PUBCHEM_BOND_DEF_STEREO_COUNT>
0

>  <PUBCHEM_BOND_UDEF_STEREO_COUNT>
0

>  <PUBCHEM_CACTVS_TAUTO_COUNT>
12

>  <PUBCHEM_COMPONENT_COUNT>
1

>  <PUBCHEM_COMPOUND_CID>
5281607

>  <PUBCHEM_CONFORMER_DIVERSEORDER>
1

>  <PUBCHEM_CONFORMER_ID>
0050974700000001

>  <PUBCHEM_CONFORMER_RMSD>
0.6

>  <PUBCHEM_COORDINATE_TYPE>
2
5
10

>  <PUBCHEM_EFFECTIVE_ROTOR_COUNT>
1

>  <PUBCHEM_FEATURE_SELFOVERLAP>
35.55

>  <PUBCHEM_HEAVY_ATOM_COUNT>
19

>  <PUBCHEM_ISOTOPIC_ATOM_COUNT>
0

>  <PUBCHEM_MMFF94_ENERGY>
58.6802

>  <PUBCHEM_MMFF94_PARTIAL_CHARGES>
29
1 -0.16
10 0.08
11 -0.14
12 -0.15
13 0.08
14 -0.15
15 -0.15
16 -0.15
17 -0.15
18 -0.15
19 -0.15
2 -0.53
20 0.15
21 0.15
22 0.15
23 0.15
24 0.15
25 0.15
26 0.15
27 0.15
28 0.45
29 0.45
3 -0.57
4 -0.53
5 0.09
6 0.08
7 0.05
8 0.47
9 0.03

>  <PUBCHEM_PHARMACOPHORE_FEATURES>
7
1 1 acceptor
1 2 donor
1 3 acceptor
1 4 donor
6 1 5 6 7 8 11 rings
6 5 6 10 12 13 14 rings
6 9 15 16 17 18 19 rings

>  <PUBCHEM_SHAPE_FINGERPRINT>
10319926 262 18268127809494919170
10411042 1 18265615579738713891
10493431 412 18197507221146397953
10608611 8 18342171134064233104
10616163 171 18411420583546564262
11132069 177 18409449163297457936
11552529 35 17632292436352682015
12032990 46 18410295851770216003
12236239 1 17458347408211182968
12403259 226 18412821387472877168
13140716 1 18411706521194677761
13214271 11 18343016692438145285
13288520 33 18410857667820642214
13296908 3 18411982472727089118
13675066 3 18273492390518142728
14790565 3 17835527016235198305
14866123 147 16905542407924379514
15042514 8 18408611353328975545
15196674 1 18411136944106257192
15219456 202 18273213084594875086
15352361 1 18338516451385899415
15375358 24 18271805692352254134
17492 89 18409448060024340482
17804303 29 18412829079284446544
17834074 16 18342458115019991270
1813 80 17603588547200830588
18186145 218 15864357977667883748
19141452 34 18272937150226625303
200 152 17418085499329608732
20281475 54 18410863191143420508
20510252 161 18270961232888654944
21065198 57 18341612581977734456
21065199 12 18343580759357389514
21065201 7 18335979788261725250
21267235 1 18409175436536850755
221490 88 18264213680320700032
2297311 6 18341061765380641204
23366157 5 17823981353853568324
23402539 116 18410004433933626846
23557571 272 18341902895859977406
23559900 14 18341328882482245094
23845131 108 17547870555410292105
26918003 58 18201434745125223712
2748010 2 18338507659920037029
2871803 45 18408600357965063606
335352 9 18338517426438382605
34934 24 18335413522403504251
4214541 1 18411700959095601360
474 4 16878802641914734316
5104073 3 18342454829459681514
573450 72 18187353303882126634
67856867 119 18187930638177329652
69090 78 18272364239964106078
7364860 26 17979074113022900857
77779 3 18411982460047818098
8809292 202 18408608049860866890
9709674 26 18271529672084392270

>  <PUBCHEM_SHAPE_MULTIPOLES>
367.53
9.79
2.47
0.67
6.66
0.28
0
-3.3
0.48
-2.43
-0.1
0.26
-0.02
0.74

>  <PUBCHEM_SHAPE_SELFOVERLAP>
822.826

>  <PUBCHEM_SHAPE_VOLUME>
193.3

>  <RI>
-4.51194e+08

>  <Rbt.Current_Directory>
/root/miniconda3/envs/rdock/share/rxdock-2013.1.1_148c5bd1-0/data/ligands/prepped_ligands/Chrysin

>  <Rbt.Executable>
rbdock/0.1.0

>  <Rbt.Library>
librxdock.so/0.1.0

>  <Rbt.Parameter_File>
/root/miniconda3/envs/rdock/share/rxdock-2013.1.1_148c5bd1-0/data/scripts/dock.prm

>  <Rbt.Receptor>
def.prm

>  <SCORE>
-17.2168

>  <SCORE.INTER>
-16.9318

>  <SCORE.INTER.CONST>
1

>  <SCORE.INTER.POLAR>
-0.916515

>  <SCORE.INTER.REPUL>
0.00942217

>  <SCORE.INTER.ROT>
1

>  <SCORE.INTER.VDW>
-20.2628

>  <SCORE.INTER.norm>
-0.891149

>  <SCORE.INTRA>
0.671908

>  <SCORE.INTRA.DIHEDRAL>
1.44185

>  <SCORE.INTRA.DIHEDRAL.0>
1.23518

>  <SCORE.INTRA.POLAR>
0

>  <SCORE.INTRA.POLAR.0>
0

>  <SCORE.INTRA.REPUL>
0

>  <SCORE.INTRA.REPUL.0>
0

>  <SCORE.INTRA.VDW>
-0.0490186

>  <SCORE.INTRA.VDW.0>
0.668012

>  <SCORE.INTRA.norm>
0.0353636

>  <SCORE.RESTR>
0

>  <SCORE.RESTR.CAVITY>
0

>  <SCORE.RESTR.norm>
0

>  <SCORE.SYSTEM>
-0.956875

>  <SCORE.SYSTEM.CONST>
0

>  <SCORE.SYSTEM.DIHEDRAL>
0.166594

>  <SCORE.SYSTEM.POLAR>
-0.00672871

>  <SCORE.SYSTEM.VDW>
-1.01729

>  <SCORE.SYSTEM.norm>
-0.0503618

>  <SCORE.heavy>
19

>  <SCORE.norm>
-0.906148

$$$$
5281607
  RxDock  02242112513D
librxdock.so/0.1.0
 21 23  0  0  0  0  0  0  0  0999 V2000
  -48.9324   -0.3194   15.0762 O   0  0  0  0  0  0
  -49.4859   -5.0011   16.2032 O   0  0  0  0  0  0
  -49.5996   -4.1093   13.7382 O   0  0  0  0  0  0
  -48.7062   -1.7667   19.5922 O   0  0  0  0  0  0
  -49.2169   -2.6784   15.5795 C   0  0  0  0  0  0
  -48.9934   -1.3590   15.9692 C   0  0  0  0  0  0
  -49.0930   -0.5970   13.7272 C   0  0  0  0  0  0
  -49.3968   -2.9755   14.1503 C   0  0  0  0  0  0
  -49.0154    0.5930   12.8564 C   0  0  0  0  0  0
  -49.2699   -3.6975   16.5333 C   0  0  0  0  0  0
  -49.3201   -1.8231   13.2298 C   0  0  0  0  0  0
  -48.8214   -1.0502   17.3186 C   0  0  0  0  0  0
  -48.8734   -2.0651   18.2745 C   0  0  0  0  0  0
  -49.0971   -3.3858   17.8824 C   0  0  0  0  0  0
  -50.0123    1.5702   12.9125 C   0  0  0  0  0  0
  -47.9446    0.7471   11.9722 C   0  0  0  0  0  0
  -49.9389    2.6942   12.0898 C   0  0  0  0  0  0
  -47.8709    1.8713   11.1498 C   0  0  0  0  0  0
  -48.8681    2.8449   11.2085 C   0  0  0  0  0  0
  -49.4588   -5.1175   15.2411 H   0  0  0  0  0  0
  -48.7946   -2.5826   20.1142 H   0  0  0  0  0  0
  1  6  1  0  0  0
  1  7  1  0  0  0
  2 10  1  0  0  0
  2 20  1  0  0  0
  3  8  2  0  0  0
  4 13  1  0  0  0
  4 21  1  0  0  0
  5  6  1  0  0  0
  5  8  1  0  0  0
  5 10  2  0  0  0
  6 12  2  0  0  0
  7  9  1  0  0  0
  7 11  2  0  0  0
  8 11  1  0  0  0
  9 15  2  0  0  0
  9 16  1  0  0  0
 10 14  1  0  0  0
 12 13  1  0  0  0
 13 14  2  0  0  0
 15 17  1  0  0  0
 16 18  2  0  0  0
 17 19  2  0  0  0
 18 19  1  0  0  0
M  END
>  <CHROM.0>
178.11362565,-60.86288778,-60.40458296

>  <CHROM.1>
8.46247897,178.57461575,-67.63357208,-49.08066139,-1.16124099,14.78350001
-1.35259218,1.45642647,2.08536359

>  <Name>
5281607

>  <PUBCHEM_ATOM_DEF_STEREO_COUNT>
0

>  <PUBCHEM_ATOM_UDEF_STEREO_COUNT>
0

>  <PUBCHEM_BOND_DEF_STEREO_COUNT>
0

>  <PUBCHEM_BOND_UDEF_STEREO_COUNT>
0

>  <PUBCHEM_CACTVS_TAUTO_COUNT>
12

>  <PUBCHEM_COMPONENT_COUNT>
1

>  <PUBCHEM_COMPOUND_CID>
5281607

>  <PUBCHEM_CONFORMER_DIVERSEORDER>
1

>  <PUBCHEM_CONFORMER_ID>
0050974700000001

>  <PUBCHEM_CONFORMER_RMSD>
0.6

>  <PUBCHEM_COORDINATE_TYPE>
2
5
10

>  <PUBCHEM_EFFECTIVE_ROTOR_COUNT>
1

>  <PUBCHEM_FEATURE_SELFOVERLAP>
35.55

>  <PUBCHEM_HEAVY_ATOM_COUNT>
19

>  <PUBCHEM_ISOTOPIC_ATOM_COUNT>
0

>  <PUBCHEM_MMFF94_ENERGY>
58.6802

>  <PUBCHEM_MMFF94_PARTIAL_CHARGES>
29
1 -0.16
10 0.08
11 -0.14
12 -0.15
13 0.08
14 -0.15
15 -0.15
16 -0.15
17 -0.15
18 -0.15
19 -0.15
2 -0.53
20 0.15
21 0.15
22 0.15
23 0.15
24 0.15
25 0.15
26 0.15
27 0.15
28 0.45
29 0.45
3 -0.57
4 -0.53
5 0.09
6 0.08
7 0.05
8 0.47
9 0.03

>  <PUBCHEM_PHARMACOPHORE_FEATURES>
7
1 1 acceptor
1 2 donor
1 3 acceptor
1 4 donor
6 1 5 6 7 8 11 rings
6 5 6 10 12 13 14 rings
6 9 15 16 17 18 19 rings

>  <PUBCHEM_SHAPE_FINGERPRINT>
10319926 262 18268127809494919170
10411042 1 18265615579738713891
10493431 412 18197507221146397953
10608611 8 18342171134064233104
10616163 171 18411420583546564262
11132069 177 18409449163297457936
11552529 35 17632292436352682015
12032990 46 18410295851770216003
12236239 1 17458347408211182968
12403259 226 18412821387472877168
13140716 1 18411706521194677761
13214271 11 18343016692438145285
13288520 33 18410857667820642214
13296908 3 18411982472727089118
13675066 3 18273492390518142728
14790565 3 17835527016235198305
14866123 147 16905542407924379514
15042514 8 18408611353328975545
15196674 1 18411136944106257192
15219456 202 18273213084594875086
15352361 1 18338516451385899415
15375358 24 18271805692352254134
17492 89 18409448060024340482
17804303 29 18412829079284446544
17834074 16 18342458115019991270
1813 80 17603588547200830588
18186145 218 15864357977667883748
19141452 34 18272937150226625303
200 152 17418085499329608732
20281475 54 18410863191143420508
20510252 161 18270961232888654944
21065198 57 18341612581977734456
21065199 12 18343580759357389514
21065201 7 18335979788261725250
21267235 1 18409175436536850755
221490 88 18264213680320700032
2297311 6 18341061765380641204
23366157 5 17823981353853568324
23402539 116 18410004433933626846
23557571 272 18341902895859977406
23559900 14 18341328882482245094
23845131 108 17547870555410292105
26918003 58 18201434745125223712
2748010 2 18338507659920037029
2871803 45 18408600357965063606
335352 9 18338517426438382605
34934 24 18335413522403504251
4214541 1 18411700959095601360
474 4 16878802641914734316
5104073 3 18342454829459681514
573450 72 18187353303882126634
67856867 119 18187930638177329652
69090 78 18272364239964106078
7364860 26 17979074113022900857
77779 3 18411982460047818098
8809292 202 18408608049860866890
9709674 26 18271529672084392270

>  <PUBCHEM_SHAPE_MULTIPOLES>
367.53
9.79
2.47
0.67
6.66
0.28
0
-3.3
0.48
-2.43
-0.1
0.26
-0.02
0.74

>  <PUBCHEM_SHAPE_SELFOVERLAP>
822.826

>  <PUBCHEM_SHAPE_VOLUME>
193.3

>  <RI>
-4.51194e+08

>  <Rbt.Current_Directory>
/root/miniconda3/envs/rdock/share/rxdock-2013.1.1_148c5bd1-0/data/ligands/prepped_ligands/Chrysin

>  <Rbt.Executable>
rbdock/0.1.0

>  <Rbt.Library>
librxdock.so/0.1.0

>  <Rbt.Parameter_File>
/root/miniconda3/envs/rdock/share/rxdock-2013.1.1_148c5bd1-0/data/scripts/dock.prm

>  <Rbt.Receptor>
def.prm

>  <SCORE>
-11.8689

>  <SCORE.INTER>
-11.6009

>  <SCORE.INTER.CONST>
1

>  <SCORE.INTER.POLAR>
0

>  <SCORE.INTER.REPUL>
6.25646e-05

>  <SCORE.INTER.ROT>
1

>  <SCORE.INTER.VDW>
-18.0012

>  <SCORE.INTER.norm>
-0.610575

>  <SCORE.INTRA>
0.785684

>  <SCORE.INTRA.DIHEDRAL>
3.00377

>  <SCORE.INTRA.DIHEDRAL.0>
1.23518

>  <SCORE.INTRA.POLAR>
0

>  <SCORE.INTRA.POLAR.0>
0

>  <SCORE.INTRA.REPUL>
0

>  <SCORE.INTRA.REPUL.0>
0

>  <SCORE.INTRA.VDW>
-0.716201

>  <SCORE.INTRA.VDW.0>
0.668012

>  <SCORE.INTRA.norm>
0.0413518

>  <SCORE.RESTR>
0

>  <SCORE.RESTR.CAVITY>
0

>  <SCORE.RESTR.norm>
0

>  <SCORE.SYSTEM>
-1.05363

>  <SCORE.SYSTEM.CONST>
0

>  <SCORE.SYSTEM.DIHEDRAL>
0.014773

>  <SCORE.SYSTEM.VDW>
-1.06101

>  <SCORE.SYSTEM.norm>
-0.055454

>  <SCORE.heavy>
19

>  <SCORE.norm>
-0.624677

$$$$
5281607
  RxDock  02242112513D
librxdock.so/0.1.0
 21 23  0  0  0  0  0  0  0  0999 V2000
  -47.3508   -4.5480   16.8611 O   0  0  0  0  0  0
  -51.4408   -5.2536   19.3647 O   0  0  0  0  0  0
  -50.3654   -2.8828   19.0376 O   0  0  0  0  0  0
  -49.1603   -8.9082   17.3653 O   0  0  0  0  0  0
  -49.4035   -4.8394   18.1264 C   0  0  0  0  0  0
  -48.3434   -5.3435   17.3748 C   0  0  0  0  0  0
  -47.4111   -3.1826   17.0947 C   0  0  0  0  0  0
  -49.4660   -3.3926   18.3839 C   0  0  0  0  0  0
  -46.2920   -2.4225   16.5028 C   0  0  0  0  0  0
  -50.3864   -5.6971   18.6255 C   0  0  0  0  0  0
  -48.3759   -2.5797   17.8076 C   0  0  0  0  0  0
  -48.2597   -6.7120   17.1178 C   0  0  0  0  0  0
  -49.2395   -7.5721   17.6143 C   0  0  0  0  0  0
  -50.3004   -7.0656   18.3664 C   0  0  0  0  0  0
  -45.7885   -2.7768   15.2487 C   0  0  0  0  0  0
  -45.7316   -1.3455   17.1942 C   0  0  0  0  0  0
  -44.7313   -2.0588   14.6897 C   0  0  0  0  0  0
  -44.6747   -0.6272   16.6351 C   0  0  0  0  0  0
  -44.1744   -0.9839   15.3828 C   0  0  0  0  0  0
  -51.3095   -4.3288   19.6242 H   0  0  0  0  0  0
  -48.2825   -9.1093   16.9978 H   0  0  0  0  0  0
  1  6  1  0  0  0
  1  7  1  0  0  0
  2 10  1  0  0  0
  2 20  1  0  0  0
  3  8  2  0  0  0
  4 13  1  0  0  0
  4 21  1  0  0  0
  5  6  1  0  0  0
  5  8  1  0  0  0
  5 10  2  0  0  0
  6 12  2  0  0  0
  7  9  1  0  0  0
  7 11  2  0  0  0
  8 11  1  0  0  0
  9 15  2  0  0  0
  9 16  1  0  0  0
 10 14  1  0  0  0
 12 13  1  0  0  0
 13 14  2  0  0  0
 15 17  1  0  0  0
 16 18  2  0  0  0
 17 19  2  0  0  0
 18 19  1  0  0  0
M  END
>  <CHROM.0>
177.11468422,-59.72269422,172.20384132

>  <CHROM.1>
-10.88504944,11.63544945,38.20098177,-48.01375324,-4.18173674,17.34259773
-0.64499023,-0.59972281,-2.92954613

>  <Name>
5281607

>  <PUBCHEM_ATOM_DEF_STEREO_COUNT>
0

>  <PUBCHEM_ATOM_UDEF_STEREO_COUNT>
0

>  <PUBCHEM_BOND_DEF_STEREO_COUNT>
0

>  <PUBCHEM_BOND_UDEF_STEREO_COUNT>
0

>  <PUBCHEM_CACTVS_TAUTO_COUNT>
12

>  <PUBCHEM_COMPONENT_COUNT>
1

>  <PUBCHEM_COMPOUND_CID>
5281607

>  <PUBCHEM_CONFORMER_DIVERSEORDER>
1

>  <PUBCHEM_CONFORMER_ID>
0050974700000001

>  <PUBCHEM_CONFORMER_RMSD>
0.6

>  <PUBCHEM_COORDINATE_TYPE>
2
5
10

>  <PUBCHEM_EFFECTIVE_ROTOR_COUNT>
1

>  <PUBCHEM_FEATURE_SELFOVERLAP>
35.55

>  <PUBCHEM_HEAVY_ATOM_COUNT>
19

>  <PUBCHEM_ISOTOPIC_ATOM_COUNT>
0

>  <PUBCHEM_MMFF94_ENERGY>
58.6802

>  <PUBCHEM_MMFF94_PARTIAL_CHARGES>
29
1 -0.16
10 0.08
11 -0.14
12 -0.15
13 0.08
14 -0.15
15 -0.15
16 -0.15
17 -0.15
18 -0.15
19 -0.15
2 -0.53
20 0.15
21 0.15
22 0.15
23 0.15
24 0.15
25 0.15
26 0.15
27 0.15
28 0.45
29 0.45
3 -0.57
4 -0.53
5 0.09
6 0.08
7 0.05
8 0.47
9 0.03

>  <PUBCHEM_PHARMACOPHORE_FEATURES>
7
1 1 acceptor
1 2 donor
1 3 acceptor
1 4 donor
6 1 5 6 7 8 11 rings
6 5 6 10 12 13 14 rings
6 9 15 16 17 18 19 rings

>  <PUBCHEM_SHAPE_FINGERPRINT>
10319926 262 18268127809494919170
10411042 1 18265615579738713891
10493431 412 18197507221146397953
10608611 8 18342171134064233104
10616163 171 18411420583546564262
11132069 177 18409449163297457936
11552529 35 17632292436352682015
12032990 46 18410295851770216003
12236239 1 17458347408211182968
12403259 226 18412821387472877168
13140716 1 18411706521194677761
13214271 11 18343016692438145285
13288520 33 18410857667820642214
13296908 3 18411982472727089118
13675066 3 18273492390518142728
14790565 3 17835527016235198305
14866123 147 16905542407924379514
15042514 8 18408611353328975545
15196674 1 18411136944106257192
15219456 202 18273213084594875086
15352361 1 18338516451385899415
15375358 24 18271805692352254134
17492 89 18409448060024340482
17804303 29 18412829079284446544
17834074 16 18342458115019991270
1813 80 17603588547200830588
18186145 218 15864357977667883748
19141452 34 18272937150226625303
200 152 17418085499329608732
20281475 54 18410863191143420508
20510252 161 18270961232888654944
21065198 57 18341612581977734456
21065199 12 18343580759357389514
21065201 7 18335979788261725250
21267235 1 18409175436536850755
221490 88 18264213680320700032
2297311 6 18341061765380641204
23366157 5 17823981353853568324
23402539 116 18410004433933626846
23557571 272 18341902895859977406
23559900 14 18341328882482245094
23845131 108 17547870555410292105
26918003 58 18201434745125223712
2748010 2 18338507659920037029
2871803 45 18408600357965063606
335352 9 18338517426438382605
34934 24 18335413522403504251
4214541 1 18411700959095601360
474 4 16878802641914734316
5104073 3 18342454829459681514
573450 72 18187353303882126634
67856867 119 18187930638177329652
69090 78 18272364239964106078
7364860 26 17979074113022900857
77779 3 18411982460047818098
8809292 202 18408608049860866890
9709674 26 18271529672084392270

>  <PUBCHEM_SHAPE_MULTIPOLES>
367.53
9.79
2.47
0.67
6.66
0.28
0
-3.3
0.48
-2.43
-0.1
0.26
-0.02
0.74

>  <PUBCHEM_SHAPE_SELFOVERLAP>
822.826

>  <PUBCHEM_SHAPE_VOLUME>
193.3

>  <RI>
-4.51194e+08

>  <Rbt.Current_Directory>
/root/miniconda3/envs/rdock/share/rxdock-2013.1.1_148c5bd1-0/data/ligands/prepped_ligands/Chrysin

>  <Rbt.Executable>
rbdock/0.1.0

>  <Rbt.Library>
librxdock.so/0.1.0

>  <Rbt.Parameter_File>
/root/miniconda3/envs/rdock/share/rxdock-2013.1.1_148c5bd1-0/data/scripts/dock.prm

>  <Rbt.Receptor>
def.prm

>  <SCORE>
-12.4948

>  <SCORE.INTER>
-11.7254

>  <SCORE.INTER.CONST>
1

>  <SCORE.INTER.POLAR>
-0.934437

>  <SCORE.INTER.REPUL>
0

>  <SCORE.INTER.ROT>
1

>  <SCORE.INTER.VDW>
-14.9483

>  <SCORE.INTER.norm>
-0.617125

>  <SCORE.INTRA>
0.212792

>  <SCORE.INTRA.DIHEDRAL>
0.929516

>  <SCORE.INTRA.DIHEDRAL.0>
1.23518

>  <SCORE.INTRA.POLAR>
0

>  <SCORE.INTRA.POLAR.0>
0

>  <SCORE.INTRA.REPUL>
0

>  <SCORE.INTRA.REPUL.0>
0

>  <SCORE.INTRA.VDW>
-0.251965

>  <SCORE.INTRA.VDW.0>
0.668012

>  <SCORE.INTRA.norm>
0.0111996

>  <SCORE.RESTR>
0

>  <SCORE.RESTR.CAVITY>
0

>  <SCORE.RESTR.norm>
0

>  <SCORE.SYSTEM>
-0.982173

>  <SCORE.SYSTEM.CONST>
0

>  <SCORE.SYSTEM.DIHEDRAL>
0.177278

>  <SCORE.SYSTEM.VDW>
-1.07081

>  <SCORE.SYSTEM.norm>
-0.0516933

>  <SCORE.heavy>
19

>  <SCORE.norm>
-0.657619

$$$$
5281607
  RxDock  02242112513D
librxdock.so/0.1.0
 21 23  0  0  0  0  0  0  0  0999 V2000
  -53.3303   -4.0251   16.1324 O   0  0  0  0  0  0
  -53.9886   -8.7896   16.7326 O   0  0  0  0  0  0
  -51.6715   -7.6166   17.1058 O   0  0  0  0  0  0
  -57.5901   -5.9919   15.4073 O   0  0  0  0  0  0
  -53.5994   -6.4181   16.4494 C   0  0  0  0  0  0
  -54.1023   -5.1591   16.1259 C   0  0  0  0  0  0
  -51.9937   -4.1378   16.4838 C   0  0  0  0  0  0
  -52.1799   -6.5430   16.8139 C   0  0  0  0  0  0
  -51.2552   -2.8595   16.4524 C   0  0  0  0  0  0
  -54.4322   -7.5391   16.4252 C   0  0  0  0  0  0
  -51.3925   -5.2935   16.8083 C   0  0  0  0  0  0
  -55.4445   -5.0136   15.7749 C   0  0  0  0  0  0
  -56.2798   -6.1307   15.7497 C   0  0  0  0  0  0
  -55.7745   -7.3906   16.0742 C   0  0  0  0  0  0
  -50.3318   -2.6072   15.4348 C   0  0  0  0  0  0
  -51.4765   -1.8965   17.4402 C   0  0  0  0  0  0
  -49.6341   -1.3997   15.4053 C   0  0  0  0  0  0
  -50.7791   -0.6888   17.4105 C   0  0  0  0  0  0
  -49.8579   -0.4404   16.3930 C   0  0  0  0  0  0
  -53.0902   -8.9247   16.3943 H   0  0  0  0  0  0
  -57.8780   -5.0878   15.6208 H   0  0  0  0  0  0
  1  6  1  0  0  0
  1  7  1  0  0  0
  2 10  1  0  0  0
  2 20  1  0  0  0
  3  8  2  0  0  0
  4 13  1  0  0  0
  4 21  1  0  0  0
  5  6  1  0  0  0
  5  8  1  0  0  0
  5 10  2  0  0  0
  6 12  2  0  0  0
  7  9  1  0  0  0
  7 11  2  0  0  0
  8 11  1  0  0  0
  9 15  2  0  0  0
  9 16  1  0  0  0
 10 14  1  0  0  0
 12 13  1  0  0  0
 13 14  2  0  0  0
 15 17  1  0  0  0
 16 18  2  0  0  0
 17 19  2  0  0  0
 18 19  1  0  0  0
M  END
>  <CHROM.0>
176.07524287,177.93822367,-152.51564031

>  <CHROM.1>
-37.74105690,-26.57002736,-107.20483746,-52.96555181,-4.81714431,16.34526894
0.83045811,-0.19617215,-0.12427341

>  <Name>
5281607

>  <PUBCHEM_ATOM_DEF_STEREO_COUNT>
0

>  <PUBCHEM_ATOM_UDEF_STEREO_COUNT>
0

>  <PUBCHEM_BOND_DEF_STEREO_COUNT>
0

>  <PUBCHEM_BOND_UDEF_STEREO_COUNT>
0

>  <PUBCHEM_CACTVS_TAUTO_COUNT>
12

>  <PUBCHEM_COMPONENT_COUNT>
1

>  <PUBCHEM_COMPOUND_CID>
5281607

>  <PUBCHEM_CONFORMER_DIVERSEORDER>
1

>  <PUBCHEM_CONFORMER_ID>
0050974700000001

>  <PUBCHEM_CONFORMER_RMSD>
0.6

>  <PUBCHEM_COORDINATE_TYPE>
2
5
10

>  <PUBCHEM_EFFECTIVE_ROTOR_COUNT>
1

>  <PUBCHEM_FEATURE_SELFOVERLAP>
35.55

>  <PUBCHEM_HEAVY_ATOM_COUNT>
19

>  <PUBCHEM_ISOTOPIC_ATOM_COUNT>
0

>  <PUBCHEM_MMFF94_ENERGY>
58.6802

>  <PUBCHEM_MMFF94_PARTIAL_CHARGES>
29
1 -0.16
10 0.08
11 -0.14
12 -0.15
13 0.08
14 -0.15
15 -0.15
16 -0.15
17 -0.15
18 -0.15
19 -0.15
2 -0.53
20 0.15
21 0.15
22 0.15
23 0.15
24 0.15
25 0.15
26 0.15
27 0.15
28 0.45
29 0.45
3 -0.57
4 -0.53
5 0.09
6 0.08
7 0.05
8 0.47
9 0.03

>  <PUBCHEM_PHARMACOPHORE_FEATURES>
7
1 1 acceptor
1 2 donor
1 3 acceptor
1 4 donor
6 1 5 6 7 8 11 rings
6 5 6 10 12 13 14 rings
6 9 15 16 17 18 19 rings

>  <PUBCHEM_SHAPE_FINGERPRINT>
10319926 262 18268127809494919170
10411042 1 18265615579738713891
10493431 412 18197507221146397953
10608611 8 18342171134064233104
10616163 171 18411420583546564262
11132069 177 18409449163297457936
11552529 35 17632292436352682015
12032990 46 18410295851770216003
12236239 1 17458347408211182968
12403259 226 18412821387472877168
13140716 1 18411706521194677761
13214271 11 18343016692438145285
13288520 33 18410857667820642214
13296908 3 18411982472727089118
13675066 3 18273492390518142728
14790565 3 17835527016235198305
14866123 147 16905542407924379514
15042514 8 18408611353328975545
15196674 1 18411136944106257192
15219456 202 18273213084594875086
15352361 1 18338516451385899415
15375358 24 18271805692352254134
17492 89 18409448060024340482
17804303 29 18412829079284446544
17834074 16 18342458115019991270
1813 80 17603588547200830588
18186145 218 15864357977667883748
19141452 34 18272937150226625303
200 152 17418085499329608732
20281475 54 18410863191143420508
20510252 161 18270961232888654944
21065198 57 18341612581977734456
21065199 12 18343580759357389514
21065201 7 18335979788261725250
21267235 1 18409175436536850755
221490 88 18264213680320700032
2297311 6 18341061765380641204
23366157 5 17823981353853568324
23402539 116 18410004433933626846
23557571 272 18341902895859977406
23559900 14 18341328882482245094
23845131 108 17547870555410292105
26918003 58 18201434745125223712
2748010 2 18338507659920037029
2871803 45 18408600357965063606
335352 9 18338517426438382605
34934 24 18335413522403504251
4214541 1 18411700959095601360
474 4 16878802641914734316
5104073 3 18342454829459681514
573450 72 18187353303882126634
67856867 119 18187930638177329652
69090 78 18272364239964106078
7364860 26 17979074113022900857
77779 3 18411982460047818098
8809292 202 18408608049860866890
9709674 26 18271529672084392270

>  <PUBCHEM_SHAPE_MULTIPOLES>
367.53
9.79
2.47
0.67
6.66
0.28
0
-3.3
0.48
-2.43
-0.1
0.26
-0.02
0.74

>  <PUBCHEM_SHAPE_SELFOVERLAP>
822.826

>  <PUBCHEM_SHAPE_VOLUME>
193.3

>  <RI>
-4.51194e+08

>  <Rbt.Current_Directory>
/root/miniconda3/envs/rdock/share/rxdock-2013.1.1_148c5bd1-0/data/ligands/prepped_ligands/Chrysin

>  <Rbt.Executable>
rbdock/0.1.0

>  <Rbt.Library>
librxdock.so/0.1.0

>  <Rbt.Parameter_File>
/root/miniconda3/envs/rdock/share/rxdock-2013.1.1_148c5bd1-0/data/scripts/dock.prm

>  <Rbt.Receptor>
def.prm

>  <SCORE>
-14.6963

>  <SCORE.INTER>
-16.4347

>  <SCORE.INTER.CONST>
1

>  <SCORE.INTER.POLAR>
-2.37229

>  <SCORE.INTER.REPUL>
0

>  <SCORE.INTER.ROT>
1

>  <SCORE.INTER.VDW>
-14.7689

>  <SCORE.INTER.norm>
-0.864984

>  <SCORE.INTRA>
1.72541

>  <SCORE.INTRA.DIHEDRAL>
5.88025

>  <SCORE.INTRA.DIHEDRAL.0>
1.23518

>  <SCORE.INTRA.POLAR>
0

>  <SCORE.INTRA.POLAR.0>
0

>  <SCORE.INTRA.REPUL>
0

>  <SCORE.INTRA.REPUL.0>
0

>  <SCORE.INTRA.VDW>
-1.21471

>  <SCORE.INTRA.VDW.0>
0.668012

>  <SCORE.INTRA.norm>
0.0908113

>  <SCORE.RESTR>
0

>  <SCORE.RESTR.CAVITY>
0

>  <SCORE.RESTR.norm>
0

>  <SCORE.SYSTEM>
0.0130352

>  <SCORE.SYSTEM.CONST>
0

>  <SCORE.SYSTEM.DIHEDRAL>
1.60996

>  <SCORE.SYSTEM.POLAR>
-0.013584

>  <SCORE.SYSTEM.VDW>
-0.745761

>  <SCORE.SYSTEM.norm>
0.000686063

>  <SCORE.heavy>
19

>  <SCORE.norm>
-0.773487

$$$$
5281607
  RxDock  02242112513D
librxdock.so/0.1.0
 21 23  0  0  0  0  0  0  0  0999 V2000
  -52.6729   -4.0159   14.7488 O   0  0  0  0  0  0
  -50.6628   -0.7516   17.7150 O   0  0  0  0  0  0
  -52.1155   -2.7567   18.5832 O   0  0  0  0  0  0
  -50.0771   -0.4400   13.0124 O   0  0  0  0  0  0
  -51.6902   -2.4111   16.2845 C   0  0  0  0  0  0
  -51.9215   -2.8956   14.9982 C   0  0  0  0  0  0
  -53.2187   -4.6984   15.8253 C   0  0  0  0  0  0
  -52.2750   -3.1272   17.4284 C   0  0  0  0  0  0
  -54.0124   -5.8838   15.4442 C   0  0  0  0  0  0
  -50.9170   -1.2642   16.4791 C   0  0  0  0  0  0
  -53.0731   -4.3279   17.1075 C   0  0  0  0  0  0
  -51.3798   -2.2339   13.8961 C   0  0  0  0  0  0
  -50.6068   -1.0881   14.0861 C   0  0  0  0  0  0
  -50.3761   -0.6046   15.3748 C   0  0  0  0  0  0
  -54.8173   -5.8523   14.3028 C   0  0  0  0  0  0
  -53.9621   -7.0424   16.2235 C   0  0  0  0  0  0
  -55.5671   -6.9722   13.9429 C   0  0  0  0  0  0
  -54.7116   -8.1624   15.8635 C   0  0  0  0  0  0
  -55.5141   -8.1273   14.7231 C   0  0  0  0  0  0
  -50.9960   -1.3455   18.4049 H   0  0  0  0  0  0
  -49.5809    0.3357   13.3253 H   0  0  0  0  0  0
  1  6  1  0  0  0
  1  7  1  0  0  0
  2 10  1  0  0  0
  2 20  1  0  0  0
  3  8  2  0  0  0
  4 13  1  0  0  0
  4 21  1  0  0  0
  5  6  1  0  0  0
  5  8  1  0  0  0
  5 10  2  0  0  0
  6 12  2  0  0  0
  7  9  1  0  0  0
  7 11  2  0  0  0
  8 11  1  0  0  0
  9 15  2  0  0  0
  9 16  1  0  0  0
 10 14  1  0  0  0
 12 13  1  0  0  0
 13 14  2  0  0  0
 15 17  1  0  0  0
 16 18  2  0  0  0
 17 19  2  0  0  0
 18 19  1  0  0  0
M  END
>  <CHROM.0>
-57.31416716,61.32807861,55.01504382

>  <CHROM.1>
6.76491989,179.34628425,-37.95906951,-52.54742014,-3.73309949,15.59776444
-3.09690232,0.97394695,1.57432964

>  <Name>
5281607

>  <PUBCHEM_ATOM_DEF_STEREO_COUNT>
0

>  <PUBCHEM_ATOM_UDEF_STEREO_COUNT>
0

>  <PUBCHEM_BOND_DEF_STEREO_COUNT>
0

>  <PUBCHEM_BOND_UDEF_STEREO_COUNT>
0

>  <PUBCHEM_CACTVS_TAUTO_COUNT>
12

>  <PUBCHEM_COMPONENT_COUNT>
1

>  <PUBCHEM_COMPOUND_CID>
5281607

>  <PUBCHEM_CONFORMER_DIVERSEORDER>
1

>  <PUBCHEM_CONFORMER_ID>
0050974700000001

>  <PUBCHEM_CONFORMER_RMSD>
0.6

>  <PUBCHEM_COORDINATE_TYPE>
2
5
10

>  <PUBCHEM_EFFECTIVE_ROTOR_COUNT>
1

>  <PUBCHEM_FEATURE_SELFOVERLAP>
35.55

>  <PUBCHEM_HEAVY_ATOM_COUNT>
19

>  <PUBCHEM_ISOTOPIC_ATOM_COUNT>
0

>  <PUBCHEM_MMFF94_ENERGY>
58.6802

>  <PUBCHEM_MMFF94_PARTIAL_CHARGES>
29
1 -0.16
10 0.08
11 -0.14
12 -0.15
13 0.08
14 -0.15
15 -0.15
16 -0.15
17 -0.15
18 -0.15
19 -0.15
2 -0.53
20 0.15
21 0.15
22 0.15
23 0.15
24 0.15
25 0.15
26 0.15
27 0.15
28 0.45
29 0.45
3 -0.57
4 -0.53
5 0.09
6 0.08
7 0.05
8 0.47
9 0.03

>  <PUBCHEM_PHARMACOPHORE_FEATURES>
7
1 1 acceptor
1 2 donor
1 3 acceptor
1 4 donor
6 1 5 6 7 8 11 rings
6 5 6 10 12 13 14 rings
6 9 15 16 17 18 19 rings

>  <PUBCHEM_SHAPE_FINGERPRINT>
10319926 262 18268127809494919170
10411042 1 18265615579738713891
10493431 412 18197507221146397953
10608611 8 18342171134064233104
10616163 171 18411420583546564262
11132069 177 18409449163297457936
11552529 35 17632292436352682015
12032990 46 18410295851770216003
12236239 1 17458347408211182968
12403259 226 18412821387472877168
13140716 1 18411706521194677761
13214271 11 18343016692438145285
13288520 33 18410857667820642214
13296908 3 18411982472727089118
13675066 3 18273492390518142728
14790565 3 17835527016235198305
14866123 147 16905542407924379514
15042514 8 18408611353328975545
15196674 1 18411136944106257192
15219456 202 18273213084594875086
15352361 1 18338516451385899415
15375358 24 18271805692352254134
17492 89 18409448060024340482
17804303 29 18412829079284446544
17834074 16 18342458115019991270
1813 80 17603588547200830588
18186145 218 15864357977667883748
19141452 34 18272937150226625303
200 152 17418085499329608732
20281475 54 18410863191143420508
20510252 161 18270961232888654944
21065198 57 18341612581977734456
21065199 12 18343580759357389514
21065201 7 18335979788261725250
21267235 1 18409175436536850755
221490 88 18264213680320700032
2297311 6 18341061765380641204
23366157 5 17823981353853568324
23402539 116 18410004433933626846
23557571 272 18341902895859977406
23559900 14 18341328882482245094
23845131 108 17547870555410292105
26918003 58 18201434745125223712
2748010 2 18338507659920037029
2871803 45 18408600357965063606
335352 9 18338517426438382605
34934 24 18335413522403504251
4214541 1 18411700959095601360
474 4 16878802641914734316
5104073 3 18342454829459681514
573450 72 18187353303882126634
67856867 119 18187930638177329652
69090 78 18272364239964106078
7364860 26 17979074113022900857
77779 3 18411982460047818098
8809292 202 18408608049860866890
9709674 26 18271529672084392270

>  <PUBCHEM_SHAPE_MULTIPOLES>
367.53
9.79
2.47
0.67
6.66
0.28
0
-3.3
0.48
-2.43
-0.1
0.26
-0.02
0.74

>  <PUBCHEM_SHAPE_SELFOVERLAP>
822.826

>  <PUBCHEM_SHAPE_VOLUME>
193.3

>  <RI>
-4.51194e+08

>  <Rbt.Current_Directory>
/root/miniconda3/envs/rdock/share/rxdock-2013.1.1_148c5bd1-0/data/ligands/prepped_ligands/Chrysin

>  <Rbt.Executable>
rbdock/0.1.0

>  <Rbt.Library>
librxdock.so/0.1.0

>  <Rbt.Parameter_File>
/root/miniconda3/envs/rdock/share/rxdock-2013.1.1_148c5bd1-0/data/scripts/dock.prm

>  <Rbt.Receptor>
def.prm

>  <SCORE>
-14.5503

>  <SCORE.INTER>
-13.7138

>  <SCORE.INTER.CONST>
1

>  <SCORE.INTER.POLAR>
0

>  <SCORE.INTER.REPUL>
0.00625106

>  <SCORE.INTER.ROT>
1

>  <SCORE.INTER.VDW>
-20.145

>  <SCORE.INTER.norm>
-0.721778

>  <SCORE.INTRA>
0.13411

>  <SCORE.INTRA.DIHEDRAL>
0.686402

>  <SCORE.INTRA.DIHEDRAL.0>
1.23518

>  <SCORE.INTRA.POLAR>
0

>  <SCORE.INTRA.POLAR.0>
0

>  <SCORE.INTRA.REPUL>
0

>  <SCORE.INTRA.REPUL.0>
0

>  <SCORE.INTRA.VDW>
-0.209092

>  <SCORE.INTRA.VDW.0>
0.668012

>  <SCORE.INTRA.norm>
0.0070584

>  <SCORE.RESTR>
0

>  <SCORE.RESTR.CAVITY>
0

>  <SCORE.RESTR.norm>
0

>  <SCORE.SYSTEM>
-0.97064

>  <SCORE.SYSTEM.CONST>
0

>  <SCORE.SYSTEM.DIHEDRAL>
0.0896747

>  <SCORE.SYSTEM.VDW>
-1.01548

>  <SCORE.SYSTEM.norm>
-0.0510863

>  <SCORE.heavy>
19

>  <SCORE.norm>
-0.765806

$$$$
5281607
  RxDock  02242112513D
librxdock.so/0.1.0
 21 23  0  0  0  0  0  0  0  0999 V2000
  -47.8830   -4.5916   16.2409 O   0  0  0  0  0  0
  -52.5121   -5.8354   16.9609 O   0  0  0  0  0  0
  -51.7906   -3.4410   16.1666 O   0  0  0  0  0  0
  -49.0179   -8.9684   17.6884 O   0  0  0  0  0  0
  -50.2201   -5.1567   16.5842 C   0  0  0  0  0  0
  -48.8652   -5.4837   16.5890 C   0  0  0  0  0  0
  -48.2575   -3.3117   15.8608 C   0  0  0  0  0  0
  -50.6206   -3.7973   16.1904 C   0  0  0  0  0  0
  -47.1229   -2.4330   15.5128 C   0  0  0  0  0  0
  -51.1774   -6.1060   16.9492 C   0  0  0  0  0  0
  -49.5267   -2.8757   15.8225 C   0  0  0  0  0  0
  -48.4587   -6.7654   16.9603 C   0  0  0  0  0  0
  -49.4117   -7.7168   17.3253 C   0  0  0  0  0  0
  -50.7679   -7.3875   17.3197 C   0  0  0  0  0  0
  -45.9328   -2.9817   15.0289 C   0  0  0  0  0  0
  -47.2346   -1.0487   15.6660 C   0  0  0  0  0  0
  -44.8611   -2.1515   14.7002 C   0  0  0  0  0  0
  -46.1631   -0.2184   15.3370 C   0  0  0  0  0  0
  -44.9763   -0.7699   14.8541 C   0  0  0  0  0  0
  -53.0163   -6.6205   17.2239 H   0  0  0  0  0  0
  -48.1868   -9.1828   17.2311 H   0  0  0  0  0  0
  1  6  1  0  0  0
  1  7  1  0  0  0
  2 10  1  0  0  0
  2 20  1  0  0  0
  3  8  2  0  0  0
  4 13  1  0  0  0
  4 21  1  0  0  0
  5  6  1  0  0  0
  5  8  1  0  0  0
  5 10  2  0  0  0
  6 12  2  0  0  0
  7  9  1  0  0  0
  7 11  2  0  0  0
  8 11  1  0  0  0
  9 15  2  0  0  0
  9 16  1  0  0  0
 10 14  1  0  0  0
 12 13  1  0  0  0
 13 14  2  0  0  0
 15 17  1  0  0  0
 16 18  2  0  0  0
 17 19  2  0  0  0
 18 19  1  0  0  0
M  END
>  <CHROM.0>
-64.58198455,-175.14530400,-58.69144862

>  <CHROM.1>
178.91475667,-28.78454888,27.32941930,-48.74562696,-4.34538462,16.22601988
-0.90367157,-0.10886472,2.87673236

>  <Name>
5281607

>  <PUBCHEM_ATOM_DEF_STEREO_COUNT>
0

>  <PUBCHEM_ATOM_UDEF_STEREO_COUNT>
0

>  <PUBCHEM_BOND_DEF_STEREO_COUNT>
0

>  <PUBCHEM_BOND_UDEF_STEREO_COUNT>
0

>  <PUBCHEM_CACTVS_TAUTO_COUNT>
12

>  <PUBCHEM_COMPONENT_COUNT>
1

>  <PUBCHEM_COMPOUND_CID>
5281607

>  <PUBCHEM_CONFORMER_DIVERSEORDER>
1

>  <PUBCHEM_CONFORMER_ID>
0050974700000001

>  <PUBCHEM_CONFORMER_RMSD>
0.6

>  <PUBCHEM_COORDINATE_TYPE>
2
5
10

>  <PUBCHEM_EFFECTIVE_ROTOR_COUNT>
1

>  <PUBCHEM_FEATURE_SELFOVERLAP>
35.55

>  <PUBCHEM_HEAVY_ATOM_COUNT>
19

>  <PUBCHEM_ISOTOPIC_ATOM_COUNT>
0

>  <PUBCHEM_MMFF94_ENERGY>
58.6802

>  <PUBCHEM_MMFF94_PARTIAL_CHARGES>
29
1 -0.16
10 0.08
11 -0.14
12 -0.15
13 0.08
14 -0.15
15 -0.15
16 -0.15
17 -0.15
18 -0.15
19 -0.15
2 -0.53
20 0.15
21 0.15
22 0.15
23 0.15
24 0.15
25 0.15
26 0.15
27 0.15
28 0.45
29 0.45
3 -0.57
4 -0.53
5 0.09
6 0.08
7 0.05
8 0.47
9 0.03

>  <PUBCHEM_PHARMACOPHORE_FEATURES>
7
1 1 acceptor
1 2 donor
1 3 acceptor
1 4 donor
6 1 5 6 7 8 11 rings
6 5 6 10 12 13 14 rings
6 9 15 16 17 18 19 rings

>  <PUBCHEM_SHAPE_FINGERPRINT>
10319926 262 18268127809494919170
10411042 1 18265615579738713891
10493431 412 18197507221146397953
10608611 8 18342171134064233104
10616163 171 18411420583546564262
11132069 177 18409449163297457936
11552529 35 17632292436352682015
12032990 46 18410295851770216003
12236239 1 17458347408211182968
12403259 226 18412821387472877168
13140716 1 18411706521194677761
13214271 11 18343016692438145285
13288520 33 18410857667820642214
13296908 3 18411982472727089118
13675066 3 18273492390518142728
14790565 3 17835527016235198305
14866123 147 16905542407924379514
15042514 8 18408611353328975545
15196674 1 18411136944106257192
15219456 202 18273213084594875086
15352361 1 18338516451385899415
15375358 24 18271805692352254134
17492 89 18409448060024340482
17804303 29 18412829079284446544
17834074 16 18342458115019991270
1813 80 17603588547200830588
18186145 218 15864357977667883748
19141452 34 18272937150226625303
200 152 17418085499329608732
20281475 54 18410863191143420508
20510252 161 18270961232888654944
21065198 57 18341612581977734456
21065199 12 18343580759357389514
21065201 7 18335979788261725250
21267235 1 18409175436536850755
221490 88 18264213680320700032
2297311 6 18341061765380641204
23366157 5 17823981353853568324
23402539 116 18410004433933626846
23557571 272 18341902895859977406
23559900 14 18341328882482245094
23845131 108 17547870555410292105
26918003 58 18201434745125223712
2748010 2 18338507659920037029
2871803 45 18408600357965063606
335352 9 18338517426438382605
34934 24 18335413522403504251
4214541 1 18411700959095601360
474 4 16878802641914734316
5104073 3 18342454829459681514
573450 72 18187353303882126634
67856867 119 18187930638177329652
69090 78 18272364239964106078
7364860 26 17979074113022900857
77779 3 18411982460047818098
8809292 202 18408608049860866890
9709674 26 18271529672084392270

>  <PUBCHEM_SHAPE_MULTIPOLES>
367.53
9.79
2.47
0.67
6.66
0.28
0
-3.3
0.48
-2.43
-0.1
0.26
-0.02
0.74

>  <PUBCHEM_SHAPE_SELFOVERLAP>
822.826

>  <PUBCHEM_SHAPE_VOLUME>
193.3

>  <RI>
-4.51194e+08

>  <Rbt.Current_Directory>
/root/miniconda3/envs/rdock/share/rxdock-2013.1.1_148c5bd1-0/data/ligands/prepped_ligands/Chrysin

>  <Rbt.Executable>
rbdock/0.1.0

>  <Rbt.Library>
librxdock.so/0.1.0

>  <Rbt.Parameter_File>
/root/miniconda3/envs/rdock/share/rxdock-2013.1.1_148c5bd1-0/data/scripts/dock.prm

>  <Rbt.Receptor>
def.prm

>  <SCORE>
-12.5429

>  <SCORE.INTER>
-12.0897

>  <SCORE.INTER.CONST>
1

>  <SCORE.INTER.POLAR>
-0.938083

>  <SCORE.INTER.REPUL>
0

>  <SCORE.INTER.ROT>
1

>  <SCORE.INTER.VDW>
-15.3002

>  <SCORE.INTER.norm>
-0.636301

>  <SCORE.INTRA>
0.548478

>  <SCORE.INTRA.DIHEDRAL>
0.858195

>  <SCORE.INTRA.DIHEDRAL.0>
1.23518

>  <SCORE.INTRA.POLAR>
0

>  <SCORE.INTRA.POLAR.0>
0

>  <SCORE.INTRA.REPUL>
0

>  <SCORE.INTRA.REPUL.0>
0

>  <SCORE.INTRA.VDW>
0.11938

>  <SCORE.INTRA.VDW.0>
0.668012

>  <SCORE.INTRA.norm>
0.0288672

>  <SCORE.RESTR>
0

>  <SCORE.RESTR.CAVITY>
0

>  <SCORE.RESTR.norm>
0

>  <SCORE.SYSTEM>
-1.00166

>  <SCORE.SYSTEM.CONST>
0

>  <SCORE.SYSTEM.DIHEDRAL>
0.173942

>  <SCORE.SYSTEM.POLAR>
-0.00402021

>  <SCORE.SYSTEM.VDW>
-1.07496

>  <SCORE.SYSTEM.norm>
-0.0527189

>  <SCORE.heavy>
19

>  <SCORE.norm>
-0.660153

$$$$
5281607
  RxDock  02242112513D
librxdock.so/0.1.0
 21 23  0  0  0  0  0  0  0  0999 V2000
  -47.5257    0.3349   13.6250 O   0  0  0  0  0  0
  -48.0511   -3.9702   15.7894 O   0  0  0  0  0  0
  -50.0173   -2.7530   14.5497 O   0  0  0  0  0  0
  -43.8645   -1.7285   15.8338 O   0  0  0  0  0  0
  -47.8494   -1.8232   14.6913 C   0  0  0  0  0  0
  -47.0525   -0.7343   14.3425 C   0  0  0  0  0  0
  -48.8530    0.3260   13.2242 C   0  0  0  0  0  0
  -49.2603   -1.8320   14.2757 C   0  0  0  0  0  0
  -49.2585    1.5255   12.4644 C   0  0  0  0  0  0
  -47.3139   -2.8848   15.4242 C   0  0  0  0  0  0
  -49.7203   -0.6599   13.5038 C   0  0  0  0  0  0
  -45.7116   -0.7004   14.7260 C   0  0  0  0  0  0
  -45.1727   -1.7589   15.4579 C   0  0  0  0  0  0
  -45.9722   -2.8485   15.8061 C   0  0  0  0  0  0
  -50.5695    2.0004   12.5496 C   0  0  0  0  0  0
  -48.3327    2.1911   11.6569 C   0  0  0  0  0  0
  -50.9524    3.1336   11.8318 C   0  0  0  0  0  0
  -48.7154    3.3244   10.9394 C   0  0  0  0  0  0
  -50.0253    3.7956   11.0268 C   0  0  0  0  0  0
  -47.5575   -4.5219   16.4153 H   0  0  0  0  0  0
  -43.5801   -2.6307   16.0596 H   0  0  0  0  0  0
  1  6  1  0  0  0
  1  7  1  0  0  0
  2 10  1  0  0  0
  2 20  1  0  0  0
  3  8  2  0  0  0
  4 13  1  0  0  0
  4 21  1  0  0  0
  5  6  1  0  0  0
  5  8  1  0  0  0
  5 10  2  0  0  0
  6 12  2  0  0  0
  7  9  1  0  0  0
  7 11  2  0  0  0
  8 11  1  0  0  0
  9 15  2  0  0  0
  9 16  1  0  0  0
 10 14  1  0  0  0
 12 13  1  0  0  0
 13 14  2  0  0  0
 15 17  1  0  0  0
 16 18  2  0  0  0
 17 19  2  0  0  0
 18 19  1  0  0  0
M  END
>  <CHROM.0>
59.55852765,61.68665292,63.48693048

>  <CHROM.1>
-170.24065949,-161.34706497,-148.61178840,-48.06943249,-0.35428485,13.83557699
-2.06563462,0.20226922,2.62120728

>  <Name>
5281607

>  <PUBCHEM_ATOM_DEF_STEREO_COUNT>
0

>  <PUBCHEM_ATOM_UDEF_STEREO_COUNT>
0

>  <PUBCHEM_BOND_DEF_STEREO_COUNT>
0

>  <PUBCHEM_BOND_UDEF_STEREO_COUNT>
0

>  <PUBCHEM_CACTVS_TAUTO_COUNT>
12

>  <PUBCHEM_COMPONENT_COUNT>
1

>  <PUBCHEM_COMPOUND_CID>
5281607

>  <PUBCHEM_CONFORMER_DIVERSEORDER>
1

>  <PUBCHEM_CONFORMER_ID>
0050974700000001

>  <PUBCHEM_CONFORMER_RMSD>
0.6

>  <PUBCHEM_COORDINATE_TYPE>
2
5
10

>  <PUBCHEM_EFFECTIVE_ROTOR_COUNT>
1

>  <PUBCHEM_FEATURE_SELFOVERLAP>
35.55

>  <PUBCHEM_HEAVY_ATOM_COUNT>
19

>  <PUBCHEM_ISOTOPIC_ATOM_COUNT>
0

>  <PUBCHEM_MMFF94_ENERGY>
58.6802

>  <PUBCHEM_MMFF94_PARTIAL_CHARGES>
29
1 -0.16
10 0.08
11 -0.14
12 -0.15
13 0.08
14 -0.15
15 -0.15
16 -0.15
17 -0.15
18 -0.15
19 -0.15
2 -0.53
20 0.15
21 0.15
22 0.15
23 0.15
24 0.15
25 0.15
26 0.15
27 0.15
28 0.45
29 0.45
3 -0.57
4 -0.53
5 0.09
6 0.08
7 0.05
8 0.47
9 0.03

>  <PUBCHEM_PHARMACOPHORE_FEATURES>
7
1 1 acceptor
1 2 donor
1 3 acceptor
1 4 donor
6 1 5 6 7 8 11 rings
6 5 6 10 12 13 14 rings
6 9 15 16 17 18 19 rings

>  <PUBCHEM_SHAPE_FINGERPRINT>
10319926 262 18268127809494919170
10411042 1 18265615579738713891
10493431 412 18197507221146397953
10608611 8 18342171134064233104
10616163 171 18411420583546564262
11132069 177 18409449163297457936
11552529 35 17632292436352682015
12032990 46 18410295851770216003
12236239 1 17458347408211182968
12403259 226 18412821387472877168
13140716 1 18411706521194677761
13214271 11 18343016692438145285
13288520 33 18410857667820642214
13296908 3 18411982472727089118
13675066 3 18273492390518142728
14790565 3 17835527016235198305
14866123 147 16905542407924379514
15042514 8 18408611353328975545
15196674 1 18411136944106257192
15219456 202 18273213084594875086
15352361 1 18338516451385899415
15375358 24 18271805692352254134
17492 89 18409448060024340482
17804303 29 18412829079284446544
17834074 16 18342458115019991270
1813 80 17603588547200830588
18186145 218 15864357977667883748
19141452 34 18272937150226625303
200 152 17418085499329608732
20281475 54 18410863191143420508
20510252 161 18270961232888654944
21065198 57 18341612581977734456
21065199 12 18343580759357389514
21065201 7 18335979788261725250
21267235 1 18409175436536850755
221490 88 18264213680320700032
2297311 6 18341061765380641204
23366157 5 17823981353853568324
23402539 116 18410004433933626846
23557571 272 18341902895859977406
23559900 14 18341328882482245094
23845131 108 17547870555410292105
26918003 58 18201434745125223712
2748010 2 18338507659920037029
2871803 45 18408600357965063606
335352 9 18338517426438382605
34934 24 18335413522403504251
4214541 1 18411700959095601360
474 4 16878802641914734316
5104073 3 18342454829459681514
573450 72 18187353303882126634
67856867 119 18187930638177329652
69090 78 18272364239964106078
7364860 26 17979074113022900857
77779 3 18411982460047818098
8809292 202 18408608049860866890
9709674 26 18271529672084392270

>  <PUBCHEM_SHAPE_MULTIPOLES>
367.53
9.79
2.47
0.67
6.66
0.28
0
-3.3
0.48
-2.43
-0.1
0.26
-0.02
0.74

>  <PUBCHEM_SHAPE_SELFOVERLAP>
822.826

>  <PUBCHEM_SHAPE_VOLUME>
193.3

>  <RI>
-4.51194e+08

>  <Rbt.Current_Directory>
/root/miniconda3/envs/rdock/share/rxdock-2013.1.1_148c5bd1-0/data/ligands/prepped_ligands/Chrysin

>  <Rbt.Executable>
rbdock/0.1.0

>  <Rbt.Library>
librxdock.so/0.1.0

>  <Rbt.Parameter_File>
/root/miniconda3/envs/rdock/share/rxdock-2013.1.1_148c5bd1-0/data/scripts/dock.prm

>  <Rbt.Receptor>
def.prm

>  <SCORE>
-18.0315

>  <SCORE.INTER>
-17.4826

>  <SCORE.INTER.CONST>
1

>  <SCORE.INTER.POLAR>
-0.783372

>  <SCORE.INTER.REPUL>
0

>  <SCORE.INTER.ROT>
1

>  <SCORE.INTER.VDW>
-21.2192

>  <SCORE.INTER.norm>
-0.920139

>  <SCORE.INTRA>
0.412702

>  <SCORE.INTRA.DIHEDRAL>
0.661604

>  <SCORE.INTRA.DIHEDRAL.0>
1.23518

>  <SCORE.INTRA.POLAR>
0

>  <SCORE.INTRA.POLAR.0>
0

>  <SCORE.INTRA.REPUL>
0

>  <SCORE.INTRA.REPUL.0>
0

>  <SCORE.INTRA.VDW>
0.0818999

>  <SCORE.INTRA.VDW.0>
0.668012

>  <SCORE.INTRA.norm>
0.0217211

>  <SCORE.RESTR>
0

>  <SCORE.RESTR.CAVITY>
0

>  <SCORE.RESTR.norm>
0

>  <SCORE.SYSTEM>
-0.961513

>  <SCORE.SYSTEM.CONST>
0

>  <SCORE.SYSTEM.DIHEDRAL>
0.0421247

>  <SCORE.SYSTEM.POLAR>
-0.00844553

>  <SCORE.SYSTEM.VDW>
-0.953861

>  <SCORE.SYSTEM.norm>
-0.050606

>  <SCORE.heavy>
19

>  <SCORE.norm>
-0.949024

$$$$
5281607
  RxDock  02242112513D
librxdock.so/0.1.0
 21 23  0  0  0  0  0  0  0  0999 V2000
  -51.4549   -5.7930   16.1592 O   0  0  0  0  0  0
  -47.9171   -6.5908   19.3751 O   0  0  0  0  0  0
  -50.2638   -7.7549   19.5253 O   0  0  0  0  0  0
  -47.2660   -3.5968   15.7466 O   0  0  0  0  0  0
  -49.7200   -6.2332   17.8011 C   0  0  0  0  0  0
  -50.1918   -5.5939   16.6560 C   0  0  0  0  0  0
  -52.2943   -6.6748   16.8229 C   0  0  0  0  0  0
  -50.6107   -7.1624   18.5130 C   0  0  0  0  0  0
  -53.6300   -6.8098   16.2078 C   0  0  0  0  0  0
  -48.4238   -5.9916   18.2620 C   0  0  0  0  0  0
  -51.9586   -7.3441   17.9372 C   0  0  0  0  0  0
  -49.3678   -4.7065   15.9634 C   0  0  0  0  0  0
  -48.0724   -4.4625   16.4202 C   0  0  0  0  0  0
  -47.6016   -5.1038   17.5670 C   0  0  0  0  0  0
  -54.1873   -8.0756   16.0108 C   0  0  0  0  0  0
  -54.3424   -5.6722   15.8201 C   0  0  0  0  0  0
  -55.4490   -8.2030   15.4297 C   0  0  0  0  0  0
  -55.6043   -5.7995   15.2394 C   0  0  0  0  0  0
  -56.1576   -7.0650   15.0442 C   0  0  0  0  0  0
  -48.5661   -7.2002   19.7589 H   0  0  0  0  0  0
  -47.0818   -3.9595   14.8632 H   0  0  0  0  0  0
  1  6  1  0  0  0
  1  7  1  0  0  0
  2 10  1  0  0  0
  2 20  1  0  0  0
  3  8  2  0  0  0
  4 13  1  0  0  0
  4 21  1  0  0  0
  5  6  1  0  0  0
  5  8  1  0  0  0
  5 10  2  0  0  0
  6 12  2  0  0  0
  7  9  1  0  0  0
  7 11  2  0  0  0
  8 11  1  0  0  0
  9 15  2  0  0  0
  9 16  1  0  0  0
 10 14  1  0  0  0
 12 13  1  0  0  0
 13 14  2  0  0  0
 15 17  1  0  0  0
 16 18  2  0  0  0
 17 19  2  0  0  0
 18 19  1  0  0  0
M  END
>  <CHROM.0>
68.09997596,178.06446458,-178.40142886

>  <CHROM.1>
1.50350778,-64.82204839,133.72543143,-51.18999687,-6.22713703,16.90074231
-3.09434788,0.35203972,2.28014728

>  <Name>
5281607

>  <PUBCHEM_ATOM_DEF_STEREO_COUNT>
0

>  <PUBCHEM_ATOM_UDEF_STEREO_COUNT>
0

>  <PUBCHEM_BOND_DEF_STEREO_COUNT>
0

>  <PUBCHEM_BOND_UDEF_STEREO_COUNT>
0

>  <PUBCHEM_CACTVS_TAUTO_COUNT>
12

>  <PUBCHEM_COMPONENT_COUNT>
1

>  <PUBCHEM_COMPOUND_CID>
5281607

>  <PUBCHEM_CONFORMER_DIVERSEORDER>
1

>  <PUBCHEM_CONFORMER_ID>
0050974700000001

>  <PUBCHEM_CONFORMER_RMSD>
0.6

>  <PUBCHEM_COORDINATE_TYPE>
2
5
10

>  <PUBCHEM_EFFECTIVE_ROTOR_COUNT>
1

>  <PUBCHEM_FEATURE_SELFOVERLAP>
35.55

>  <PUBCHEM_HEAVY_ATOM_COUNT>
19

>  <PUBCHEM_ISOTOPIC_ATOM_COUNT>
0

>  <PUBCHEM_MMFF94_ENERGY>
58.6802

>  <PUBCHEM_MMFF94_PARTIAL_CHARGES>
29
1 -0.16
10 0.08
11 -0.14
12 -0.15
13 0.08
14 -0.15
15 -0.15
16 -0.15
17 -0.15
18 -0.15
19 -0.15
2 -0.53
20 0.15
21 0.15
22 0.15
23 0.15
24 0.15
25 0.15
26 0.15
27 0.15
28 0.45
29 0.45
3 -0.57
4 -0.53
5 0.09
6 0.08
7 0.05
8 0.47
9 0.03

>  <PUBCHEM_PHARMACOPHORE_FEATURES>
7
1 1 acceptor
1 2 donor
1 3 acceptor
1 4 donor
6 1 5 6 7 8 11 rings
6 5 6 10 12 13 14 rings
6 9 15 16 17 18 19 rings

>  <PUBCHEM_SHAPE_FINGERPRINT>
10319926 262 18268127809494919170
10411042 1 18265615579738713891
10493431 412 18197507221146397953
10608611 8 18342171134064233104
10616163 171 18411420583546564262
11132069 177 18409449163297457936
11552529 35 17632292436352682015
12032990 46 18410295851770216003
12236239 1 17458347408211182968
12403259 226 18412821387472877168
13140716 1 18411706521194677761
13214271 11 18343016692438145285
13288520 33 18410857667820642214
13296908 3 18411982472727089118
13675066 3 18273492390518142728
14790565 3 17835527016235198305
14866123 147 16905542407924379514
15042514 8 18408611353328975545
15196674 1 18411136944106257192
15219456 202 18273213084594875086
15352361 1 18338516451385899415
15375358 24 18271805692352254134
17492 89 18409448060024340482
17804303 29 18412829079284446544
17834074 16 18342458115019991270
1813 80 17603588547200830588
18186145 218 15864357977667883748
19141452 34 18272937150226625303
200 152 17418085499329608732
20281475 54 18410863191143420508
20510252 161 18270961232888654944
21065198 57 18341612581977734456
21065199 12 18343580759357389514
21065201 7 18335979788261725250
21267235 1 18409175436536850755
221490 88 18264213680320700032
2297311 6 18341061765380641204
23366157 5 17823981353853568324
23402539 116 18410004433933626846
23557571 272 18341902895859977406
23559900 14 18341328882482245094
23845131 108 17547870555410292105
26918003 58 18201434745125223712
2748010 2 18338507659920037029
2871803 45 18408600357965063606
335352 9 18338517426438382605
34934 24 18335413522403504251
4214541 1 18411700959095601360
474 4 16878802641914734316
5104073 3 18342454829459681514
573450 72 18187353303882126634
67856867 119 18187930638177329652
69090 78 18272364239964106078
7364860 26 17979074113022900857
77779 3 18411982460047818098
8809292 202 18408608049860866890
9709674 26 18271529672084392270

>  <PUBCHEM_SHAPE_MULTIPOLES>
367.53
9.79
2.47
0.67
6.66
0.28
0
-3.3
0.48
-2.43
-0.1
0.26
-0.02
0.74

>  <PUBCHEM_SHAPE_SELFOVERLAP>
822.826

>  <PUBCHEM_SHAPE_VOLUME>
193.3

>  <RI>
-4.51194e+08

>  <Rbt.Current_Directory>
/root/miniconda3/envs/rdock/share/rxdock-2013.1.1_148c5bd1-0/data/ligands/prepped_ligands/Chrysin

>  <Rbt.Executable>
rbdock/0.1.0

>  <Rbt.Library>
librxdock.so/0.1.0

>  <Rbt.Parameter_File>
/root/miniconda3/envs/rdock/share/rxdock-2013.1.1_148c5bd1-0/data/scripts/dock.prm

>  <Rbt.Receptor>
def.prm

>  <SCORE>
-14.3959

>  <SCORE.INTER>
-15.1743

>  <SCORE.INTER.CONST>
1

>  <SCORE.INTER.POLAR>
-1.20007

>  <SCORE.INTER.REPUL>
0

>  <SCORE.INTER.ROT>
1

>  <SCORE.INTER.VDW>
-17.4941

>  <SCORE.INTER.norm>
-0.798647

>  <SCORE.INTRA>
1.76864

>  <SCORE.INTRA.DIHEDRAL>
5.24445

>  <SCORE.INTRA.DIHEDRAL.0>
1.23518

>  <SCORE.INTRA.POLAR>
0

>  <SCORE.INTRA.POLAR.0>
0

>  <SCORE.INTRA.REPUL>
0

>  <SCORE.INTRA.REPUL.0>
0

>  <SCORE.INTRA.VDW>
-0.853581

>  <SCORE.INTRA.VDW.0>
0.668012

>  <SCORE.INTRA.norm>
0.0930866

>  <SCORE.RESTR>
0

>  <SCORE.RESTR.CAVITY>
0

>  <SCORE.RESTR.norm>
0

>  <SCORE.SYSTEM>
-0.990225

>  <SCORE.SYSTEM.CONST>
0

>  <SCORE.SYSTEM.DIHEDRAL>
0.177327

>  <SCORE.SYSTEM.POLAR>
-0.0057621

>  <SCORE.SYSTEM.VDW>
-1.0593

>  <SCORE.SYSTEM.norm>
-0.0521171

>  <SCORE.heavy>
19

>  <SCORE.norm>
-0.757678

$$$$
5281607
  RxDock  02242112513D
librxdock.so/0.1.0
 21 23  0  0  0  0  0  0  0  0999 V2000
  -52.6610   -4.0273   14.7662 O   0  0  0  0  0  0
  -50.5631   -0.8335   17.7483 O   0  0  0  0  0  0
  -52.0176   -2.8401   18.6100 O   0  0  0  0  0  0
  -50.0657   -0.4456   13.0412 O   0  0  0  0  0  0
  -51.6337   -2.4585   16.3098 C   0  0  0  0  0  0
  -51.8944   -2.9184   15.0201 C   0  0  0  0  0  0
  -53.1923   -4.7235   15.8413 C   0  0  0  0  0  0
  -52.2030   -3.1891   17.4523 C   0  0  0  0  0  0
  -54.0044   -5.8948   15.4554 C   0  0  0  0  0  0
  -50.8461   -1.3223   16.5089 C   0  0  0  0  0  0
  -53.0184   -4.3766   17.1265 C   0  0  0  0  0  0
  -51.3680   -2.2426   13.9192 C   0  0  0  0  0  0
  -50.5806   -1.1074   14.1137 C   0  0  0  0  0  0
  -50.3204   -0.6485   15.4058 C   0  0  0  0  0  0
  -54.8006   -5.8498   14.3083 C   0  0  0  0  0  0
  -53.9802   -7.0535   16.2357 C   0  0  0  0  0  0
  -55.5678   -6.9563   13.9440 C   0  0  0  0  0  0
  -54.7471   -8.1602   15.8712 C   0  0  0  0  0  0
  -55.5409   -8.1116   14.7253 C   0  0  0  0  0  0
  -50.9524   -1.3978   18.4337 H   0  0  0  0  0  0
  -49.4889    0.2701   13.3591 H   0  0  0  0  0  0
  1  6  1  0  0  0
  1  7  1  0  0  0
  2 10  1  0  0  0
  2 20  1  0  0  0
  3  8  2  0  0  0
  4 13  1  0  0  0
  4 21  1  0  0  0
  5  6  1  0  0  0
  5  8  1  0  0  0
  5 10  2  0  0  0
  6 12  2  0  0  0
  7  9  1  0  0  0
  7 11  2  0  0  0
  8 11  1  0  0  0
  9 15  2  0  0  0
  9 16  1  0  0  0
 10 14  1  0  0  0
 12 13  1  0  0  0
 13 14  2  0  0  0
 15 17  1  0  0  0
 16 18  2  0  0  0
 17 19  2  0  0  0
 18 19  1  0  0  0
M  END
>  <CHROM.0>
-178.87944533,-60.80739093,-61.47495823

>  <CHROM.1>
2.05264721,-175.43054173,-36.06348251,-52.51645430,-3.76054367,15.61726453
-3.12754527,0.96397270,1.61526895

>  <Name>
5281607

>  <PUBCHEM_ATOM_DEF_STEREO_COUNT>
0

>  <PUBCHEM_ATOM_UDEF_STEREO_COUNT>
0

>  <PUBCHEM_BOND_DEF_STEREO_COUNT>
0

>  <PUBCHEM_BOND_UDEF_STEREO_COUNT>
0

>  <PUBCHEM_CACTVS_TAUTO_COUNT>
12

>  <PUBCHEM_COMPONENT_COUNT>
1

>  <PUBCHEM_COMPOUND_CID>
5281607

>  <PUBCHEM_CONFORMER_DIVERSEORDER>
1

>  <PUBCHEM_CONFORMER_ID>
0050974700000001

>  <PUBCHEM_CONFORMER_RMSD>
0.6

>  <PUBCHEM_COORDINATE_TYPE>
2
5
10

>  <PUBCHEM_EFFECTIVE_ROTOR_COUNT>
1

>  <PUBCHEM_FEATURE_SELFOVERLAP>
35.55

>  <PUBCHEM_HEAVY_ATOM_COUNT>
19

>  <PUBCHEM_ISOTOPIC_ATOM_COUNT>
0

>  <PUBCHEM_MMFF94_ENERGY>
58.6802

>  <PUBCHEM_MMFF94_PARTIAL_CHARGES>
29
1 -0.16
10 0.08
11 -0.14
12 -0.15
13 0.08
14 -0.15
15 -0.15
16 -0.15
17 -0.15
18 -0.15
19 -0.15
2 -0.53
20 0.15
21 0.15
22 0.15
23 0.15
24 0.15
25 0.15
26 0.15
27 0.15
28 0.45
29 0.45
3 -0.57
4 -0.53
5 0.09
6 0.08
7 0.05
8 0.47
9 0.03

>  <PUBCHEM_PHARMACOPHORE_FEATURES>
7
1 1 acceptor
1 2 donor
1 3 acceptor
1 4 donor
6 1 5 6 7 8 11 rings
6 5 6 10 12 13 14 rings
6 9 15 16 17 18 19 rings

>  <PUBCHEM_SHAPE_FINGERPRINT>
10319926 262 18268127809494919170
10411042 1 18265615579738713891
10493431 412 18197507221146397953
10608611 8 18342171134064233104
10616163 171 18411420583546564262
11132069 177 18409449163297457936
11552529 35 17632292436352682015
12032990 46 18410295851770216003
12236239 1 17458347408211182968
12403259 226 18412821387472877168
13140716 1 18411706521194677761
13214271 11 18343016692438145285
13288520 33 18410857667820642214
13296908 3 18411982472727089118
13675066 3 18273492390518142728
14790565 3 17835527016235198305
14866123 147 16905542407924379514
15042514 8 18408611353328975545
15196674 1 18411136944106257192
15219456 202 18273213084594875086
15352361 1 18338516451385899415
15375358 24 18271805692352254134
17492 89 18409448060024340482
17804303 29 18412829079284446544
17834074 16 18342458115019991270
1813 80 17603588547200830588
18186145 218 15864357977667883748
19141452 34 18272937150226625303
200 152 17418085499329608732
20281475 54 18410863191143420508
20510252 161 18270961232888654944
21065198 57 18341612581977734456
21065199 12 18343580759357389514
21065201 7 18335979788261725250
21267235 1 18409175436536850755
221490 88 18264213680320700032
2297311 6 18341061765380641204
23366157 5 17823981353853568324
23402539 116 18410004433933626846
23557571 272 18341902895859977406
23559900 14 18341328882482245094
23845131 108 17547870555410292105
26918003 58 18201434745125223712
2748010 2 18338507659920037029
2871803 45 18408600357965063606
335352 9 18338517426438382605
34934 24 18335413522403504251
4214541 1 18411700959095601360
474 4 16878802641914734316
5104073 3 18342454829459681514
573450 72 18187353303882126634
67856867 119 18187930638177329652
69090 78 18272364239964106078
7364860 26 17979074113022900857
77779 3 18411982460047818098
8809292 202 18408608049860866890
9709674 26 18271529672084392270

>  <PUBCHEM_SHAPE_MULTIPOLES>
367.53
9.79
2.47
0.67
6.66
0.28
0
-3.3
0.48
-2.43
-0.1
0.26
-0.02
0.74

>  <PUBCHEM_SHAPE_SELFOVERLAP>
822.826

>  <PUBCHEM_SHAPE_VOLUME>
193.3

>  <RI>
-4.51194e+08

>  <Rbt.Current_Directory>
/root/miniconda3/envs/rdock/share/rxdock-2013.1.1_148c5bd1-0/data/ligands/prepped_ligands/Chrysin

>  <Rbt.Executable>
rbdock/0.1.0

>  <Rbt.Library>
librxdock.so/0.1.0

>  <Rbt.Parameter_File>
/root/miniconda3/envs/rdock/share/rxdock-2013.1.1_148c5bd1-0/data/scripts/dock.prm

>  <Rbt.Receptor>
def.prm

>  <SCORE>
-17.648

>  <SCORE.INTER>
-16.6825

>  <SCORE.INTER.CONST>
1

>  <SCORE.INTER.POLAR>
-0.824621

>  <SCORE.INTER.REPUL>
0.00922877

>  <SCORE.INTER.ROT>
1

>  <SCORE.INTER.VDW>
-20.3249

>  <SCORE.INTER.norm>
-0.878024

>  <SCORE.INTRA>
0.0976329

>  <SCORE.INTRA.DIHEDRAL>
0.502839

>  <SCORE.INTRA.DIHEDRAL.0>
1.23518

>  <SCORE.INTRA.POLAR>
0

>  <SCORE.INTRA.POLAR.0>
0

>  <SCORE.INTRA.REPUL>
0

>  <SCORE.INTRA.REPUL.0>
0

>  <SCORE.INTRA.VDW>
-0.153787

>  <SCORE.INTRA.VDW.0>
0.668012

>  <SCORE.INTRA.norm>
0.00513858

>  <SCORE.RESTR>
0

>  <SCORE.RESTR.CAVITY>
0

>  <SCORE.RESTR.norm>
0

>  <SCORE.SYSTEM>
-1.06315

>  <SCORE.SYSTEM.CONST>
0

>  <SCORE.SYSTEM.DIHEDRAL>
0.0122534

>  <SCORE.SYSTEM.VDW>
-1.06928

>  <SCORE.SYSTEM.norm>
-0.0559553

>  <SCORE.heavy>
19

>  <SCORE.norm>
-0.928841

$$$$
