5281607
  RxDock  02242110293D
librxdock.so/0.1.0
 21 23  0  0  0  0  0  0  0  0999 V2000
  -54.0277   -4.7761   16.5138 O   0  0  0  0  0  0
  -53.7216   -9.6086   16.2933 O   0  0  0  0  0  0
  -52.0524   -8.1406   17.6873 O   0  0  0  0  0  0
  -57.1265   -7.2842   13.9356 O   0  0  0  0  0  0
  -53.8244   -7.1954   16.4419 C   0  0  0  0  0  0
  -54.4527   -6.0056   16.0783 C   0  0  0  0  0  0
  -52.9297   -4.7178   17.3586 C   0  0  0  0  0  0
  -52.6538   -7.1369   17.3306 C   0  0  0  0  0  0
  -52.5546   -3.3476   17.7614 C   0  0  0  0  0  0
  -54.3006   -8.4197   15.9673 C   0  0  0  0  0  0
  -52.2376   -5.7908   17.7735 C   0  0  0  0  0  0
  -55.5637   -6.0333   15.2351 C   0  0  0  0  0  0
  -56.0427   -7.2540   14.7589 C   0  0  0  0  0  0
  -55.4123   -8.4444   15.1243 C   0  0  0  0  0  0
  -51.9175   -2.4986   16.8530 C   0  0  0  0  0  0
  -52.8351   -2.8940   19.0527 C   0  0  0  0  0  0
  -51.5631   -1.2042   17.2337 C   0  0  0  0  0  0
  -52.4811   -1.5996   19.4333 C   0  0  0  0  0  0
  -51.8450   -0.7546   18.5237 C   0  0  0  0  0  0
  -52.7825   -9.4845   16.4993 H   0  0  0  0  0  0
  -57.0194   -8.0120   13.2995 H   0  0  0  0  0  0
  1  6  1  0  0  0
  1  7  1  0  0  0
  2 10  1  0  0  0
  2 20  1  0  0  0
  3  8  2  0  0  0
  4 13  1  0  0  0
  4 21  1  0  0  0
  5  6  1  0  0  0
  5  8  1  0  0  0
  5 10  2  0  0  0
  6 12  2  0  0  0
  7  9  1  0  0  0
  7 11  2  0  0  0
  8 11  1  0  0  0
  9 15  2  0  0  0
  9 16  1  0  0  0
 10 14  1  0  0  0
 12 13  1  0  0  0
 13 14  2  0  0  0
 15 17  1  0  0  0
 16 18  2  0  0  0
 17 19  2  0  0  0
 18 19  1  0  0  0
M  END
>  <CHROM.0>
56.53874415,66.72001230,-60.04301866

>  <CHROM.1>
-26.84938590,145.84939716,-74.31241407,-53.58984313,-5.52382585,16.76800152
1.02743275,-0.68241136,0.06906425

>  <Name>
5281607

>  <PUBCHEM_ATOM_DEF_STEREO_COUNT>
0

>  <PUBCHEM_ATOM_UDEF_STEREO_COUNT>
0

>  <PUBCHEM_BOND_DEF_STEREO_COUNT>
0

>  <PUBCHEM_BOND_UDEF_STEREO_COUNT>
0

>  <PUBCHEM_CACTVS_TAUTO_COUNT>
12

>  <PUBCHEM_COMPONENT_COUNT>
1

>  <PUBCHEM_COMPOUND_CID>
5281607

>  <PUBCHEM_CONFORMER_DIVERSEORDER>
1

>  <PUBCHEM_CONFORMER_ID>
0050974700000001

>  <PUBCHEM_CONFORMER_RMSD>
0.6

>  <PUBCHEM_COORDINATE_TYPE>
2
5
10

>  <PUBCHEM_EFFECTIVE_ROTOR_COUNT>
1

>  <PUBCHEM_FEATURE_SELFOVERLAP>
35.55

>  <PUBCHEM_HEAVY_ATOM_COUNT>
19

>  <PUBCHEM_ISOTOPIC_ATOM_COUNT>
0

>  <PUBCHEM_MMFF94_ENERGY>
58.6802

>  <PUBCHEM_MMFF94_PARTIAL_CHARGES>
29
1 -0.16
10 0.08
11 -0.14
12 -0.15
13 0.08
14 -0.15
15 -0.15
16 -0.15
17 -0.15
18 -0.15
19 -0.15
2 -0.53
20 0.15
21 0.15
22 0.15
23 0.15
24 0.15
25 0.15
26 0.15
27 0.15
28 0.45
29 0.45
3 -0.57
4 -0.53
5 0.09
6 0.08
7 0.05
8 0.47
9 0.03

>  <PUBCHEM_PHARMACOPHORE_FEATURES>
7
1 1 acceptor
1 2 donor
1 3 acceptor
1 4 donor
6 1 5 6 7 8 11 rings
6 5 6 10 12 13 14 rings
6 9 15 16 17 18 19 rings

>  <PUBCHEM_SHAPE_FINGERPRINT>
10319926 262 18268127809494919170
10411042 1 18265615579738713891
10493431 412 18197507221146397953
10608611 8 18342171134064233104
10616163 171 18411420583546564262
11132069 177 18409449163297457936
11552529 35 17632292436352682015
12032990 46 18410295851770216003
12236239 1 17458347408211182968
12403259 226 18412821387472877168
13140716 1 18411706521194677761
13214271 11 18343016692438145285
13288520 33 18410857667820642214
13296908 3 18411982472727089118
13675066 3 18273492390518142728
14790565 3 17835527016235198305
14866123 147 16905542407924379514
15042514 8 18408611353328975545
15196674 1 18411136944106257192
15219456 202 18273213084594875086
15352361 1 18338516451385899415
15375358 24 18271805692352254134
17492 89 18409448060024340482
17804303 29 18412829079284446544
17834074 16 18342458115019991270
1813 80 17603588547200830588
18186145 218 15864357977667883748
19141452 34 18272937150226625303
200 152 17418085499329608732
20281475 54 18410863191143420508
20510252 161 18270961232888654944
21065198 57 18341612581977734456
21065199 12 18343580759357389514
21065201 7 18335979788261725250
21267235 1 18409175436536850755
221490 88 18264213680320700032
2297311 6 18341061765380641204
23366157 5 17823981353853568324
23402539 116 18410004433933626846
23557571 272 18341902895859977406
23559900 14 18341328882482245094
23845131 108 17547870555410292105
26918003 58 18201434745125223712
2748010 2 18338507659920037029
2871803 45 18408600357965063606
335352 9 18338517426438382605
34934 24 18335413522403504251
4214541 1 18411700959095601360
474 4 16878802641914734316
5104073 3 18342454829459681514
573450 72 18187353303882126634
67856867 119 18187930638177329652
69090 78 18272364239964106078
7364860 26 17979074113022900857
77779 3 18411982460047818098
8809292 202 18408608049860866890
9709674 26 18271529672084392270

>  <PUBCHEM_SHAPE_MULTIPOLES>
367.53
9.79
2.47
0.67
6.66
0.28
0
-3.3
0.48
-2.43
-0.1
0.26
-0.02
0.74

>  <PUBCHEM_SHAPE_SELFOVERLAP>
822.826

>  <PUBCHEM_SHAPE_VOLUME>
193.3

>  <RI>
-8.11363e+08

>  <Rbt.Current_Directory>
/root/miniconda3/envs/rdock/share/rxdock-2013.1.1_148c5bd1-0/data/ligands/prepped_ligands/Chrysin

>  <Rbt.Executable>
rbdock/0.1.0

>  <Rbt.Library>
librxdock.so/0.1.0

>  <Rbt.Parameter_File>
/root/miniconda3/envs/rdock/share/rxdock-2013.1.1_148c5bd1-0/data/scripts/dock.prm

>  <Rbt.Receptor>
def.prm

>  <SCORE>
-15.5388

>  <SCORE.INTER>
-16.2387

>  <SCORE.INTER.CONST>
1

>  <SCORE.INTER.POLAR>
-1.16657

>  <SCORE.INTER.REPUL>
0

>  <SCORE.INTER.ROT>
1

>  <SCORE.INTER.VDW>
-18.6724

>  <SCORE.INTER.norm>
-0.85467

>  <SCORE.INTRA>
1.66533

>  <SCORE.INTRA.DIHEDRAL>
5.72495

>  <SCORE.INTRA.DIHEDRAL.0>
1.23518

>  <SCORE.INTRA.POLAR>
0

>  <SCORE.INTRA.POLAR.0>
0

>  <SCORE.INTRA.REPUL>
0

>  <SCORE.INTRA.REPUL.0>
0

>  <SCORE.INTRA.VDW>
-1.19715

>  <SCORE.INTRA.VDW.0>
0.668012

>  <SCORE.INTRA.norm>
0.0876488

>  <SCORE.RESTR>
0

>  <SCORE.RESTR.CAVITY>
0

>  <SCORE.RESTR.norm>
0

>  <SCORE.SYSTEM>
-0.965377

>  <SCORE.SYSTEM.CONST>
0

>  <SCORE.SYSTEM.DIHEDRAL>
0.252822

>  <SCORE.SYSTEM.POLAR>
-0.000665176

>  <SCORE.SYSTEM.VDW>
-1.08953

>  <SCORE.SYSTEM.norm>
-0.0508093

>  <SCORE.heavy>
19

>  <SCORE.norm>
-0.817831

$$$$
5281607
  RxDock  02242110293D
librxdock.so/0.1.0
 21 23  0  0  0  0  0  0  0  0999 V2000
  -51.7947   -3.6471   15.1812 O   0  0  0  0  0  0
  -52.3795   -7.9858   17.2616 O   0  0  0  0  0  0
  -50.0198   -6.9236   16.8282 O   0  0  0  0  0  0
  -56.1382   -5.4294   15.8861 O   0  0  0  0  0  0
  -52.0250   -5.8262   16.2290 C   0  0  0  0  0  0
  -52.5666   -4.6782   15.6533 C   0  0  0  0  0  0
  -50.4162   -3.7506   15.2895 C   0  0  0  0  0  0
  -50.5628   -5.9436   16.3373 C   0  0  0  0  0  0
  -49.6827   -2.5899   14.7460 C   0  0  0  0  0  0
  -52.8598   -6.8456   16.6923 C   0  0  0  0  0  0
  -49.7767   -4.8065   15.8172 C   0  0  0  0  0  0
  -53.9501   -4.5428   15.5369 C   0  0  0  0  0  0
  -54.7876   -5.5586   15.9986 C   0  0  0  0  0  0
  -54.2435   -6.7073   16.5750 C   0  0  0  0  0  0
  -50.3758   -1.5560   14.1117 C   0  0  0  0  0  0
  -48.2923   -2.5204   14.8636 C   0  0  0  0  0  0
  -49.6829   -0.4596   13.5983 C   0  0  0  0  0  0
  -47.5993   -1.4240   14.3506 C   0  0  0  0  0  0
  -48.2946   -0.3935   13.7178 C   0  0  0  0  0  0
  -51.4206   -8.0513   17.1353 H   0  0  0  0  0  0
  -56.3364   -4.6413   15.3518 H   0  0  0  0  0  0
  1  6  1  0  0  0
  1  7  1  0  0  0
  2 10  1  0  0  0
  2 20  1  0  0  0
  3  8  2  0  0  0
  4 13  1  0  0  0
  4 21  1  0  0  0
  5  6  1  0  0  0
  5  8  1  0  0  0
  5 10  2  0  0  0
  6 12  2  0  0  0
  7  9  1  0  0  0
  7 11  2  0  0  0
  8 11  1  0  0  0
  9 15  2  0  0  0
  9 16  1  0  0  0
 10 14  1  0  0  0
 12 13  1  0  0  0
 13 14  2  0  0  0
 15 17  1  0  0  0
 16 18  2  0  0  0
 17 19  2  0  0  0
 18 19  1  0  0  0
M  END
>  <CHROM.0>
-177.63086038,-65.36608016,66.80774251

>  <CHROM.1>
-11.00768437,8.14026682,-4.01214582,-51.40385441,-4.36989571,15.54213978
0.83402234,-0.03990533,-0.45760821

>  <Name>
5281607

>  <PUBCHEM_ATOM_DEF_STEREO_COUNT>
0

>  <PUBCHEM_ATOM_UDEF_STEREO_COUNT>
0

>  <PUBCHEM_BOND_DEF_STEREO_COUNT>
0

>  <PUBCHEM_BOND_UDEF_STEREO_COUNT>
0

>  <PUBCHEM_CACTVS_TAUTO_COUNT>
12

>  <PUBCHEM_COMPONENT_COUNT>
1

>  <PUBCHEM_COMPOUND_CID>
5281607

>  <PUBCHEM_CONFORMER_DIVERSEORDER>
1

>  <PUBCHEM_CONFORMER_ID>
0050974700000001

>  <PUBCHEM_CONFORMER_RMSD>
0.6

>  <PUBCHEM_COORDINATE_TYPE>
2
5
10

>  <PUBCHEM_EFFECTIVE_ROTOR_COUNT>
1

>  <PUBCHEM_FEATURE_SELFOVERLAP>
35.55

>  <PUBCHEM_HEAVY_ATOM_COUNT>
19

>  <PUBCHEM_ISOTOPIC_ATOM_COUNT>
0

>  <PUBCHEM_MMFF94_ENERGY>
58.6802

>  <PUBCHEM_MMFF94_PARTIAL_CHARGES>
29
1 -0.16
10 0.08
11 -0.14
12 -0.15
13 0.08
14 -0.15
15 -0.15
16 -0.15
17 -0.15
18 -0.15
19 -0.15
2 -0.53
20 0.15
21 0.15
22 0.15
23 0.15
24 0.15
25 0.15
26 0.15
27 0.15
28 0.45
29 0.45
3 -0.57
4 -0.53
5 0.09
6 0.08
7 0.05
8 0.47
9 0.03

>  <PUBCHEM_PHARMACOPHORE_FEATURES>
7
1 1 acceptor
1 2 donor
1 3 acceptor
1 4 donor
6 1 5 6 7 8 11 rings
6 5 6 10 12 13 14 rings
6 9 15 16 17 18 19 rings

>  <PUBCHEM_SHAPE_FINGERPRINT>
10319926 262 18268127809494919170
10411042 1 18265615579738713891
10493431 412 18197507221146397953
10608611 8 18342171134064233104
10616163 171 18411420583546564262
11132069 177 18409449163297457936
11552529 35 17632292436352682015
12032990 46 18410295851770216003
12236239 1 17458347408211182968
12403259 226 18412821387472877168
13140716 1 18411706521194677761
13214271 11 18343016692438145285
13288520 33 18410857667820642214
13296908 3 18411982472727089118
13675066 3 18273492390518142728
14790565 3 17835527016235198305
14866123 147 16905542407924379514
15042514 8 18408611353328975545
15196674 1 18411136944106257192
15219456 202 18273213084594875086
15352361 1 18338516451385899415
15375358 24 18271805692352254134
17492 89 18409448060024340482
17804303 29 18412829079284446544
17834074 16 18342458115019991270
1813 80 17603588547200830588
18186145 218 15864357977667883748
19141452 34 18272937150226625303
200 152 17418085499329608732
20281475 54 18410863191143420508
20510252 161 18270961232888654944
21065198 57 18341612581977734456
21065199 12 18343580759357389514
21065201 7 18335979788261725250
21267235 1 18409175436536850755
221490 88 18264213680320700032
2297311 6 18341061765380641204
23366157 5 17823981353853568324
23402539 116 18410004433933626846
23557571 272 18341902895859977406
23559900 14 18341328882482245094
23845131 108 17547870555410292105
26918003 58 18201434745125223712
2748010 2 18338507659920037029
2871803 45 18408600357965063606
335352 9 18338517426438382605
34934 24 18335413522403504251
4214541 1 18411700959095601360
474 4 16878802641914734316
5104073 3 18342454829459681514
573450 72 18187353303882126634
67856867 119 18187930638177329652
69090 78 18272364239964106078
7364860 26 17979074113022900857
77779 3 18411982460047818098
8809292 202 18408608049860866890
9709674 26 18271529672084392270

>  <PUBCHEM_SHAPE_MULTIPOLES>
367.53
9.79
2.47
0.67
6.66
0.28
0
-3.3
0.48
-2.43
-0.1
0.26
-0.02
0.74

>  <PUBCHEM_SHAPE_SELFOVERLAP>
822.826

>  <PUBCHEM_SHAPE_VOLUME>
193.3

>  <RI>
-8.11363e+08

>  <Rbt.Current_Directory>
/root/miniconda3/envs/rdock/share/rxdock-2013.1.1_148c5bd1-0/data/ligands/prepped_ligands/Chrysin

>  <Rbt.Executable>
rbdock/0.1.0

>  <Rbt.Library>
librxdock.so/0.1.0

>  <Rbt.Parameter_File>
/root/miniconda3/envs/rdock/share/rxdock-2013.1.1_148c5bd1-0/data/scripts/dock.prm

>  <Rbt.Receptor>
def.prm

>  <SCORE>
-14.8026

>  <SCORE.INTER>
-13.7704

>  <SCORE.INTER.CONST>
1

>  <SCORE.INTER.POLAR>
-0.987435

>  <SCORE.INTER.REPUL>
0.0361213

>  <SCORE.INTER.ROT>
1

>  <SCORE.INTER.VDW>
-16.9937

>  <SCORE.INTER.norm>
-0.724758

>  <SCORE.INTRA>
-0.09001

>  <SCORE.INTRA.DIHEDRAL>
-0.933641

>  <SCORE.INTRA.DIHEDRAL.0>
1.23518

>  <SCORE.INTRA.POLAR>
0

>  <SCORE.INTRA.POLAR.0>
0

>  <SCORE.INTRA.REPUL>
0

>  <SCORE.INTRA.REPUL.0>
0

>  <SCORE.INTRA.VDW>
0.376811

>  <SCORE.INTRA.VDW.0>
0.668012

>  <SCORE.INTRA.norm>
-0.00473737

>  <SCORE.RESTR>
0

>  <SCORE.RESTR.CAVITY>
0

>  <SCORE.RESTR.norm>
0

>  <SCORE.SYSTEM>
-0.942226

>  <SCORE.SYSTEM.CONST>
0

>  <SCORE.SYSTEM.DIHEDRAL>
0.261154

>  <SCORE.SYSTEM.POLAR>
-0.0135227

>  <SCORE.SYSTEM.VDW>
-1.02683

>  <SCORE.SYSTEM.norm>
-0.0495908

>  <SCORE.heavy>
19

>  <SCORE.norm>
-0.779087

$$$$
5281607
  RxDock  02242110303D
librxdock.so/0.1.0
 21 23  0  0  0  0  0  0  0  0999 V2000
  -47.4148    0.3314   13.6160 O   0  0  0  0  0  0
  -47.8850   -3.9371   15.8640 O   0  0  0  0  0  0
  -49.8869   -2.7299   14.6726 O   0  0  0  0  0  0
  -43.6898   -1.7150   15.7318 O   0  0  0  0  0  0
  -47.7115   -1.8084   14.7263 C   0  0  0  0  0  0
  -46.9222   -0.7288   14.3337 C   0  0  0  0  0  0
  -48.7550    0.3226   13.2604 C   0  0  0  0  0  0
  -49.1357   -1.8169   14.3588 C   0  0  0  0  0  0
  -49.1809    1.5122   12.4961 C   0  0  0  0  0  0
  -47.1560   -2.8610   15.4572 C   0  0  0  0  0  0
  -49.6166   -0.6546   13.5846 C   0  0  0  0  0  0
  -45.5690   -0.6954   14.6711 C   0  0  0  0  0  0
  -45.0100   -1.7449   15.4008 C   0  0  0  0  0  0
  -45.8020   -2.8252   15.7929 C   0  0  0  0  0  0
  -50.4747    2.0171   12.6467 C   0  0  0  0  0  0
  -48.2917    2.1381   11.6188 C   0  0  0  0  0  0
  -50.8769    3.1408   11.9247 C   0  0  0  0  0  0
  -48.6936    3.2620   10.8970 C   0  0  0  0  0  0
  -49.9863    3.7633   11.0499 C   0  0  0  0  0  0
  -48.8171   -3.8282   15.6208 H   0  0  0  0  0  0
  -43.4091   -2.6095   15.9907 H   0  0  0  0  0  0
  1  6  1  0  0  0
  1  7  1  0  0  0
  2 10  1  0  0  0
  2 20  1  0  0  0
  3  8  2  0  0  0
  4 13  1  0  0  0
  4 21  1  0  0  0
  5  6  1  0  0  0
  5  8  1  0  0  0
  5 10  2  0  0  0
  6 12  2  0  0  0
  7  9  1  0  0  0
  7 11  2  0  0  0
  8 11  1  0  0  0
  9 15  2  0  0  0
  9 16  1  0  0  0
 10 14  1  0  0  0
 12 13  1  0  0  0
 13 14  2  0  0  0
 15 17  1  0  0  0
 16 18  2  0  0  0
 17 19  2  0  0  0
 18 19  1  0  0  0
M  END
>  <CHROM.0>
178.97048046,-61.43312456,-174.68607860

>  <CHROM.1>
-3.32475294,-163.23167219,-146.80023336,-47.95984958,-0.34922127,13.85226915
-2.07894657,0.16927040,2.60760398

>  <Name>
5281607

>  <PUBCHEM_ATOM_DEF_STEREO_COUNT>
0

>  <PUBCHEM_ATOM_UDEF_STEREO_COUNT>
0

>  <PUBCHEM_BOND_DEF_STEREO_COUNT>
0

>  <PUBCHEM_BOND_UDEF_STEREO_COUNT>
0

>  <PUBCHEM_CACTVS_TAUTO_COUNT>
12

>  <PUBCHEM_COMPONENT_COUNT>
1

>  <PUBCHEM_COMPOUND_CID>
5281607

>  <PUBCHEM_CONFORMER_DIVERSEORDER>
1

>  <PUBCHEM_CONFORMER_ID>
0050974700000001

>  <PUBCHEM_CONFORMER_RMSD>
0.6

>  <PUBCHEM_COORDINATE_TYPE>
2
5
10

>  <PUBCHEM_EFFECTIVE_ROTOR_COUNT>
1

>  <PUBCHEM_FEATURE_SELFOVERLAP>
35.55

>  <PUBCHEM_HEAVY_ATOM_COUNT>
19

>  <PUBCHEM_ISOTOPIC_ATOM_COUNT>
0

>  <PUBCHEM_MMFF94_ENERGY>
58.6802

>  <PUBCHEM_MMFF94_PARTIAL_CHARGES>
29
1 -0.16
10 0.08
11 -0.14
12 -0.15
13 0.08
14 -0.15
15 -0.15
16 -0.15
17 -0.15
18 -0.15
19 -0.15
2 -0.53
20 0.15
21 0.15
22 0.15
23 0.15
24 0.15
25 0.15
26 0.15
27 0.15
28 0.45
29 0.45
3 -0.57
4 -0.53
5 0.09
6 0.08
7 0.05
8 0.47
9 0.03

>  <PUBCHEM_PHARMACOPHORE_FEATURES>
7
1 1 acceptor
1 2 donor
1 3 acceptor
1 4 donor
6 1 5 6 7 8 11 rings
6 5 6 10 12 13 14 rings
6 9 15 16 17 18 19 rings

>  <PUBCHEM_SHAPE_FINGERPRINT>
10319926 262 18268127809494919170
10411042 1 18265615579738713891
10493431 412 18197507221146397953
10608611 8 18342171134064233104
10616163 171 18411420583546564262
11132069 177 18409449163297457936
11552529 35 17632292436352682015
12032990 46 18410295851770216003
12236239 1 17458347408211182968
12403259 226 18412821387472877168
13140716 1 18411706521194677761
13214271 11 18343016692438145285
13288520 33 18410857667820642214
13296908 3 18411982472727089118
13675066 3 18273492390518142728
14790565 3 17835527016235198305
14866123 147 16905542407924379514
15042514 8 18408611353328975545
15196674 1 18411136944106257192
15219456 202 18273213084594875086
15352361 1 18338516451385899415
15375358 24 18271805692352254134
17492 89 18409448060024340482
17804303 29 18412829079284446544
17834074 16 18342458115019991270
1813 80 17603588547200830588
18186145 218 15864357977667883748
19141452 34 18272937150226625303
200 152 17418085499329608732
20281475 54 18410863191143420508
20510252 161 18270961232888654944
21065198 57 18341612581977734456
21065199 12 18343580759357389514
21065201 7 18335979788261725250
21267235 1 18409175436536850755
221490 88 18264213680320700032
2297311 6 18341061765380641204
23366157 5 17823981353853568324
23402539 116 18410004433933626846
23557571 272 18341902895859977406
23559900 14 18341328882482245094
23845131 108 17547870555410292105
26918003 58 18201434745125223712
2748010 2 18338507659920037029
2871803 45 18408600357965063606
335352 9 18338517426438382605
34934 24 18335413522403504251
4214541 1 18411700959095601360
474 4 16878802641914734316
5104073 3 18342454829459681514
573450 72 18187353303882126634
67856867 119 18187930638177329652
69090 78 18272364239964106078
7364860 26 17979074113022900857
77779 3 18411982460047818098
8809292 202 18408608049860866890
9709674 26 18271529672084392270

>  <PUBCHEM_SHAPE_MULTIPOLES>
367.53
9.79
2.47
0.67
6.66
0.28
0
-3.3
0.48
-2.43
-0.1
0.26
-0.02
0.74

>  <PUBCHEM_SHAPE_SELFOVERLAP>
822.826

>  <PUBCHEM_SHAPE_VOLUME>
193.3

>  <RI>
-8.11363e+08

>  <Rbt.Current_Directory>
/root/miniconda3/envs/rdock/share/rxdock-2013.1.1_148c5bd1-0/data/ligands/prepped_ligands/Chrysin

>  <Rbt.Executable>
rbdock/0.1.0

>  <Rbt.Library>
librxdock.so/0.1.0

>  <Rbt.Parameter_File>
/root/miniconda3/envs/rdock/share/rxdock-2013.1.1_148c5bd1-0/data/scripts/dock.prm

>  <Rbt.Receptor>
def.prm

>  <SCORE>
-17.7195

>  <SCORE.INTER>
-16.8354

>  <SCORE.INTER.CONST>
1

>  <SCORE.INTER.POLAR>
-0.830259

>  <SCORE.INTER.REPUL>
0

>  <SCORE.INTER.ROT>
1

>  <SCORE.INTER.VDW>
-20.4125

>  <SCORE.INTER.norm>
-0.886074

>  <SCORE.INTRA>
0.163266

>  <SCORE.INTRA.DIHEDRAL>
0.584519

>  <SCORE.INTRA.DIHEDRAL.0>
1.23518

>  <SCORE.INTRA.POLAR>
0

>  <SCORE.INTRA.POLAR.0>
0

>  <SCORE.INTRA.REPUL>
0

>  <SCORE.INTRA.REPUL.0>
0

>  <SCORE.INTRA.VDW>
-0.128993

>  <SCORE.INTRA.VDW.0>
0.668012

>  <SCORE.INTRA.norm>
0.00859296

>  <SCORE.RESTR>
0

>  <SCORE.RESTR.CAVITY>
0

>  <SCORE.RESTR.norm>
0

>  <SCORE.SYSTEM>
-1.04734

>  <SCORE.SYSTEM.CONST>
0

>  <SCORE.SYSTEM.DIHEDRAL>
0.0786496

>  <SCORE.SYSTEM.POLAR>
-0.0126907

>  <SCORE.SYSTEM.VDW>
-1.04351

>  <SCORE.SYSTEM.norm>
-0.055123

>  <SCORE.heavy>
19

>  <SCORE.norm>
-0.932604

$$$$
5281607
  RxDock  02242110303D
librxdock.so/0.1.0
 21 23  0  0  0  0  0  0  0  0999 V2000
  -53.8897   -4.9221   16.1475 O   0  0  0  0  0  0
  -54.0246   -9.7636   16.3376 O   0  0  0  0  0  0
  -52.3628   -8.3303   17.7758 O   0  0  0  0  0  0
  -56.9550   -7.3667   13.4702 O   0  0  0  0  0  0
  -53.9113   -7.3469   16.2860 C   0  0  0  0  0  0
  -54.3865   -6.1432   15.7682 C   0  0  0  0  0  0
  -52.8760   -4.8860   17.0929 C   0  0  0  0  0  0
  -52.8297   -7.3131   17.2823 C   0  0  0  0  0  0
  -52.4121   -3.5236   17.4236 C   0  0  0  0  0  0
  -54.4546   -8.5619   15.8623 C   0  0  0  0  0  0
  -52.3313   -5.9747   17.6588 C   0  0  0  0  0  0
  -55.4103   -6.1477   14.8208 C   0  0  0  0  0  0
  -55.9559   -7.3591   14.3950 C   0  0  0  0  0  0
  -55.4790   -8.5634   14.9147 C   0  0  0  0  0  0
  -51.7379   -2.7602   16.4673 C   0  0  0  0  0  0
  -52.6454   -2.9919   18.6944 C   0  0  0  0  0  0
  -51.2998   -1.4733   16.7799 C   0  0  0  0  0  0
  -52.2077   -1.7049   19.0068 C   0  0  0  0  0  0
  -51.5348   -0.9456   18.0496 C   0  0  0  0  0  0
  -54.6226  -10.4737   16.0584 H   0  0  0  0  0  0
  -57.1611   -8.2878   13.2358 H   0  0  0  0  0  0
  1  6  1  0  0  0
  1  7  1  0  0  0
  2 10  1  0  0  0
  2 20  1  0  0  0
  3  8  2  0  0  0
  4 13  1  0  0  0
  4 21  1  0  0  0
  5  6  1  0  0  0
  5  8  1  0  0  0
  5 10  2  0  0  0
  6 12  2  0  0  0
  7  9  1  0  0  0
  7 11  2  0  0  0
  8 11  1  0  0  0
  9 15  2  0  0  0
  9 16  1  0  0  0
 10 14  1  0  0  0
 12 13  1  0  0  0
 13 14  2  0  0  0
 15 17  1  0  0  0
 16 18  2  0  0  0
 17 19  2  0  0  0
 18 19  1  0  0  0
M  END
>  <CHROM.0>
177.58617570,-179.42568311,-58.54509835

>  <CHROM.1>
169.39695239,175.24532773,-67.38755096,-53.55811273,-5.68357162,16.50179214
0.89238318,-0.79094988,-0.11179362

>  <Name>
5281607

>  <PUBCHEM_ATOM_DEF_STEREO_COUNT>
0

>  <PUBCHEM_ATOM_UDEF_STEREO_COUNT>
0

>  <PUBCHEM_BOND_DEF_STEREO_COUNT>
0

>  <PUBCHEM_BOND_UDEF_STEREO_COUNT>
0

>  <PUBCHEM_CACTVS_TAUTO_COUNT>
12

>  <PUBCHEM_COMPONENT_COUNT>
1

>  <PUBCHEM_COMPOUND_CID>
5281607

>  <PUBCHEM_CONFORMER_DIVERSEORDER>
1

>  <PUBCHEM_CONFORMER_ID>
0050974700000001

>  <PUBCHEM_CONFORMER_RMSD>
0.6

>  <PUBCHEM_COORDINATE_TYPE>
2
5
10

>  <PUBCHEM_EFFECTIVE_ROTOR_COUNT>
1

>  <PUBCHEM_FEATURE_SELFOVERLAP>
35.55

>  <PUBCHEM_HEAVY_ATOM_COUNT>
19

>  <PUBCHEM_ISOTOPIC_ATOM_COUNT>
0

>  <PUBCHEM_MMFF94_ENERGY>
58.6802

>  <PUBCHEM_MMFF94_PARTIAL_CHARGES>
29
1 -0.16
10 0.08
11 -0.14
12 -0.15
13 0.08
14 -0.15
15 -0.15
16 -0.15
17 -0.15
18 -0.15
19 -0.15
2 -0.53
20 0.15
21 0.15
22 0.15
23 0.15
24 0.15
25 0.15
26 0.15
27 0.15
28 0.45
29 0.45
3 -0.57
4 -0.53
5 0.09
6 0.08
7 0.05
8 0.47
9 0.03

>  <PUBCHEM_PHARMACOPHORE_FEATURES>
7
1 1 acceptor
1 2 donor
1 3 acceptor
1 4 donor
6 1 5 6 7 8 11 rings
6 5 6 10 12 13 14 rings
6 9 15 16 17 18 19 rings

>  <PUBCHEM_SHAPE_FINGERPRINT>
10319926 262 18268127809494919170
10411042 1 18265615579738713891
10493431 412 18197507221146397953
10608611 8 18342171134064233104
10616163 171 18411420583546564262
11132069 177 18409449163297457936
11552529 35 17632292436352682015
12032990 46 18410295851770216003
12236239 1 17458347408211182968
12403259 226 18412821387472877168
13140716 1 18411706521194677761
13214271 11 18343016692438145285
13288520 33 18410857667820642214
13296908 3 18411982472727089118
13675066 3 18273492390518142728
14790565 3 17835527016235198305
14866123 147 16905542407924379514
15042514 8 18408611353328975545
15196674 1 18411136944106257192
15219456 202 18273213084594875086
15352361 1 18338516451385899415
15375358 24 18271805692352254134
17492 89 18409448060024340482
17804303 29 18412829079284446544
17834074 16 18342458115019991270
1813 80 17603588547200830588
18186145 218 15864357977667883748
19141452 34 18272937150226625303
200 152 17418085499329608732
20281475 54 18410863191143420508
20510252 161 18270961232888654944
21065198 57 18341612581977734456
21065199 12 18343580759357389514
21065201 7 18335979788261725250
21267235 1 18409175436536850755
221490 88 18264213680320700032
2297311 6 18341061765380641204
23366157 5 17823981353853568324
23402539 116 18410004433933626846
23557571 272 18341902895859977406
23559900 14 18341328882482245094
23845131 108 17547870555410292105
26918003 58 18201434745125223712
2748010 2 18338507659920037029
2871803 45 18408600357965063606
335352 9 18338517426438382605
34934 24 18335413522403504251
4214541 1 18411700959095601360
474 4 16878802641914734316
5104073 3 18342454829459681514
573450 72 18187353303882126634
67856867 119 18187930638177329652
69090 78 18272364239964106078
7364860 26 17979074113022900857
77779 3 18411982460047818098
8809292 202 18408608049860866890
9709674 26 18271529672084392270

>  <PUBCHEM_SHAPE_MULTIPOLES>
367.53
9.79
2.47
0.67
6.66
0.28
0
-3.3
0.48
-2.43
-0.1
0.26
-0.02
0.74

>  <PUBCHEM_SHAPE_SELFOVERLAP>
822.826

>  <PUBCHEM_SHAPE_VOLUME>
193.3

>  <RI>
-8.11363e+08

>  <Rbt.Current_Directory>
/root/miniconda3/envs/rdock/share/rxdock-2013.1.1_148c5bd1-0/data/ligands/prepped_ligands/Chrysin

>  <Rbt.Executable>
rbdock/0.1.0

>  <Rbt.Library>
librxdock.so/0.1.0

>  <Rbt.Parameter_File>
/root/miniconda3/envs/rdock/share/rxdock-2013.1.1_148c5bd1-0/data/scripts/dock.prm

>  <Rbt.Receptor>
def.prm

>  <SCORE>
-16.7854

>  <SCORE.INTER>
-16.75

>  <SCORE.INTER.CONST>
1

>  <SCORE.INTER.POLAR>
-1.17975

>  <SCORE.INTER.REPUL>
0

>  <SCORE.INTER.ROT>
1

>  <SCORE.INTER.VDW>
-19.1389

>  <SCORE.INTER.norm>
-0.881582

>  <SCORE.INTRA>
1.02276

>  <SCORE.INTRA.DIHEDRAL>
3.07831

>  <SCORE.INTRA.DIHEDRAL.0>
1.23518

>  <SCORE.INTRA.POLAR>
0

>  <SCORE.INTRA.POLAR.0>
0

>  <SCORE.INTRA.REPUL>
0

>  <SCORE.INTRA.REPUL.0>
0

>  <SCORE.INTRA.VDW>
-0.516397

>  <SCORE.INTRA.VDW.0>
0.668012

>  <SCORE.INTRA.norm>
0.0538293

>  <SCORE.RESTR>
0

>  <SCORE.RESTR.CAVITY>
0

>  <SCORE.RESTR.norm>
0

>  <SCORE.SYSTEM>
-1.05808

>  <SCORE.SYSTEM.CONST>
0

>  <SCORE.SYSTEM.DIHEDRAL>
0.0219992

>  <SCORE.SYSTEM.POLAR>
-0.00436198

>  <SCORE.SYSTEM.VDW>
-1.05424

>  <SCORE.SYSTEM.norm>
-0.0556882

>  <SCORE.heavy>
19

>  <SCORE.norm>
-0.88344

$$$$
5281607
  RxDock  02242110303D
librxdock.so/0.1.0
 21 23  0  0  0  0  0  0  0  0999 V2000
  -52.2190   -6.1494   17.9043 O   0  0  0  0  0  0
  -54.8204   -5.8044   13.8290 O   0  0  0  0  0  0
  -53.6130   -3.7478   14.9231 O   0  0  0  0  0  0
  -54.3487   -9.9706   16.0596 O   0  0  0  0  0  0
  -53.5088   -5.9149   15.8597 C   0  0  0  0  0  0
  -53.0005   -6.6787   16.9089 C   0  0  0  0  0  0
  -51.9168   -4.7969   17.8583 C   0  0  0  0  0  0
  -53.1980   -4.4780   15.8124 C   0  0  0  0  0  0
  -51.0759   -4.3314   18.9794 C   0  0  0  0  0  0
  -54.3004   -6.5075   14.8732 C   0  0  0  0  0  0
  -52.3516   -3.9574   16.9051 C   0  0  0  0  0  0
  -53.2820   -8.0433   16.9780 C   0  0  0  0  0  0
  -54.0720   -8.6391   15.9946 C   0  0  0  0  0  0
  -54.5800   -7.8727   14.9446 C   0  0  0  0  0  0
  -50.5890   -5.2446   19.9178 C   0  0  0  0  0  0
  -50.7634   -2.9756   19.1066 C   0  0  0  0  0  0
  -49.7947   -4.8048   20.9768 C   0  0  0  0  0  0
  -49.9688   -2.5358   20.1653 C   0  0  0  0  0  0
  -49.4845   -3.4504   21.1004 C   0  0  0  0  0  0
  -55.2528   -6.4009   13.1989 H   0  0  0  0  0  0
  -55.1616  -10.1489   15.5563 H   0  0  0  0  0  0
  1  6  1  0  0  0
  1  7  1  0  0  0
  2 10  1  0  0  0
  2 20  1  0  0  0
  3  8  2  0  0  0
  4 13  1  0  0  0
  4 21  1  0  0  0
  5  6  1  0  0  0
  5  8  1  0  0  0
  5 10  2  0  0  0
  6 12  2  0  0  0
  7  9  1  0  0  0
  7 11  2  0  0  0
  8 11  1  0  0  0
  9 15  2  0  0  0
  9 16  1  0  0  0
 10 14  1  0  0  0
 12 13  1  0  0  0
 13 14  2  0  0  0
 15 17  1  0  0  0
 16 18  2  0  0  0
 17 19  2  0  0  0
 18 19  1  0  0  0
M  END
>  <CHROM.0>
65.48173319,65.74764158,54.73696508

>  <CHROM.1>
173.50882304,156.99298811,4.00648924,-52.53457521,-5.62562825,17.24022430
-0.26168911,0.95894711,2.80314651

>  <Name>
5281607

>  <PUBCHEM_ATOM_DEF_STEREO_COUNT>
0

>  <PUBCHEM_ATOM_UDEF_STEREO_COUNT>
0

>  <PUBCHEM_BOND_DEF_STEREO_COUNT>
0

>  <PUBCHEM_BOND_UDEF_STEREO_COUNT>
0

>  <PUBCHEM_CACTVS_TAUTO_COUNT>
12

>  <PUBCHEM_COMPONENT_COUNT>
1

>  <PUBCHEM_COMPOUND_CID>
5281607

>  <PUBCHEM_CONFORMER_DIVERSEORDER>
1

>  <PUBCHEM_CONFORMER_ID>
0050974700000001

>  <PUBCHEM_CONFORMER_RMSD>
0.6

>  <PUBCHEM_COORDINATE_TYPE>
2
5
10

>  <PUBCHEM_EFFECTIVE_ROTOR_COUNT>
1

>  <PUBCHEM_FEATURE_SELFOVERLAP>
35.55

>  <PUBCHEM_HEAVY_ATOM_COUNT>
19

>  <PUBCHEM_ISOTOPIC_ATOM_COUNT>
0

>  <PUBCHEM_MMFF94_ENERGY>
58.6802

>  <PUBCHEM_MMFF94_PARTIAL_CHARGES>
29
1 -0.16
10 0.08
11 -0.14
12 -0.15
13 0.08
14 -0.15
15 -0.15
16 -0.15
17 -0.15
18 -0.15
19 -0.15
2 -0.53
20 0.15
21 0.15
22 0.15
23 0.15
24 0.15
25 0.15
26 0.15
27 0.15
28 0.45
29 0.45
3 -0.57
4 -0.53
5 0.09
6 0.08
7 0.05
8 0.47
9 0.03

>  <PUBCHEM_PHARMACOPHORE_FEATURES>
7
1 1 acceptor
1 2 donor
1 3 acceptor
1 4 donor
6 1 5 6 7 8 11 rings
6 5 6 10 12 13 14 rings
6 9 15 16 17 18 19 rings

>  <PUBCHEM_SHAPE_FINGERPRINT>
10319926 262 18268127809494919170
10411042 1 18265615579738713891
10493431 412 18197507221146397953
10608611 8 18342171134064233104
10616163 171 18411420583546564262
11132069 177 18409449163297457936
11552529 35 17632292436352682015
12032990 46 18410295851770216003
12236239 1 17458347408211182968
12403259 226 18412821387472877168
13140716 1 18411706521194677761
13214271 11 18343016692438145285
13288520 33 18410857667820642214
13296908 3 18411982472727089118
13675066 3 18273492390518142728
14790565 3 17835527016235198305
14866123 147 16905542407924379514
15042514 8 18408611353328975545
15196674 1 18411136944106257192
15219456 202 18273213084594875086
15352361 1 18338516451385899415
15375358 24 18271805692352254134
17492 89 18409448060024340482
17804303 29 18412829079284446544
17834074 16 18342458115019991270
1813 80 17603588547200830588
18186145 218 15864357977667883748
19141452 34 18272937150226625303
200 152 17418085499329608732
20281475 54 18410863191143420508
20510252 161 18270961232888654944
21065198 57 18341612581977734456
21065199 12 18343580759357389514
21065201 7 18335979788261725250
21267235 1 18409175436536850755
221490 88 18264213680320700032
2297311 6 18341061765380641204
23366157 5 17823981353853568324
23402539 116 18410004433933626846
23557571 272 18341902895859977406
23559900 14 18341328882482245094
23845131 108 17547870555410292105
26918003 58 18201434745125223712
2748010 2 18338507659920037029
2871803 45 18408600357965063606
335352 9 18338517426438382605
34934 24 18335413522403504251
4214541 1 18411700959095601360
474 4 16878802641914734316
5104073 3 18342454829459681514
573450 72 18187353303882126634
67856867 119 18187930638177329652
69090 78 18272364239964106078
7364860 26 17979074113022900857
77779 3 18411982460047818098
8809292 202 18408608049860866890
9709674 26 18271529672084392270

>  <PUBCHEM_SHAPE_MULTIPOLES>
367.53
9.79
2.47
0.67
6.66
0.28
0
-3.3
0.48
-2.43
-0.1
0.26
-0.02
0.74

>  <PUBCHEM_SHAPE_SELFOVERLAP>
822.826

>  <PUBCHEM_SHAPE_VOLUME>
193.3

>  <RI>
-8.11363e+08

>  <Rbt.Current_Directory>
/root/miniconda3/envs/rdock/share/rxdock-2013.1.1_148c5bd1-0/data/ligands/prepped_ligands/Chrysin

>  <Rbt.Executable>
rbdock/0.1.0

>  <Rbt.Library>
librxdock.so/0.1.0

>  <Rbt.Parameter_File>
/root/miniconda3/envs/rdock/share/rxdock-2013.1.1_148c5bd1-0/data/scripts/dock.prm

>  <Rbt.Receptor>
def.prm

>  <SCORE>
-11.5119

>  <SCORE.INTER>
-10.9273

>  <SCORE.INTER.CONST>
1

>  <SCORE.INTER.POLAR>
-1.26008

>  <SCORE.INTER.REPUL>
0

>  <SCORE.INTER.ROT>
1

>  <SCORE.INTER.VDW>
-13.043

>  <SCORE.INTER.norm>
-0.57512

>  <SCORE.INTRA>
0.304113

>  <SCORE.INTRA.DIHEDRAL>
-0.422869

>  <SCORE.INTRA.DIHEDRAL.0>
1.23518

>  <SCORE.INTRA.POLAR>
0

>  <SCORE.INTRA.POLAR.0>
0

>  <SCORE.INTRA.REPUL>
0

>  <SCORE.INTRA.REPUL.0>
0

>  <SCORE.INTRA.VDW>
0.515547

>  <SCORE.INTRA.VDW.0>
0.668012

>  <SCORE.INTRA.norm>
0.0160059

>  <SCORE.RESTR>
0.0291736

>  <SCORE.RESTR.CAVITY>
0.0291736

>  <SCORE.RESTR.norm>
0.00153545

>  <SCORE.SYSTEM>
-0.917927

>  <SCORE.SYSTEM.CONST>
0

>  <SCORE.SYSTEM.DIHEDRAL>
0.303782

>  <SCORE.SYSTEM.VDW>
-1.06982

>  <SCORE.SYSTEM.norm>
-0.0483119

>  <SCORE.heavy>
19

>  <SCORE.norm>
-0.60589

$$$$
5281607
  RxDock  02242110303D
librxdock.so/0.1.0
 21 23  0  0  0  0  0  0  0  0999 V2000
  -51.4257   -2.9083   14.6452 O   0  0  0  0  0  0
  -46.7499   -1.6515   14.8726 O   0  0  0  0  0  0
  -47.6854   -3.8497   15.9575 O   0  0  0  0  0  0
  -49.8976    1.1115   12.6337 O   0  0  0  0  0  0
  -49.0709   -2.3315   14.7916 C   0  0  0  0  0  0
  -50.3746   -2.0695   14.3740 C   0  0  0  0  0  0
  -51.1763   -4.0704   15.3594 C   0  0  0  0  0  0
  -48.8040   -3.5586   15.5572 C   0  0  0  0  0  0
  -52.3766   -4.8960   15.6002 C   0  0  0  0  0  0
  -48.0390   -1.4406   14.4872 C   0  0  0  0  0  0
  -49.9677   -4.4291   15.8208 C   0  0  0  0  0  0
  -50.6548   -0.9118   13.6481 C   0  0  0  0  0  0
  -49.6271   -0.0194   13.3418 C   0  0  0  0  0  0
  -48.3221   -0.2835   13.7605 C   0  0  0  0  0  0
  -53.6020   -4.5348   15.0348 C   0  0  0  0  0  0
  -52.2923   -6.0423   16.3945 C   0  0  0  0  0  0
  -54.7359   -5.3148   15.2623 C   0  0  0  0  0  0
  -53.4260   -6.8225   16.6218 C   0  0  0  0  0  0
  -54.6478   -6.4587   16.0557 C   0  0  0  0  0  0
  -46.6543   -2.5279   15.2758 H   0  0  0  0  0  0
  -50.8128    1.0682   12.3074 H   0  0  0  0  0  0
  1  6  1  0  0  0
  1  7  1  0  0  0
  2 10  1  0  0  0
  2 20  1  0  0  0
  3  8  2  0  0  0
  4 13  1  0  0  0
  4 21  1  0  0  0
  5  6  1  0  0  0
  5  8  1  0  0  0
  5 10  2  0  0  0
  6 12  2  0  0  0
  7  9  1  0  0  0
  7 11  2  0  0  0
  8 11  1  0  0  0
  9 15  2  0  0  0
  9 16  1  0  0  0
 10 14  1  0  0  0
 12 13  1  0  0  0
 13 14  2  0  0  0
 15 17  1  0  0  0
 16 18  2  0  0  0
 17 19  2  0  0  0
 18 19  1  0  0  0
M  END
>  <CHROM.0>
-57.75235403,66.31529316,-179.22974269

>  <CHROM.1>
6.64702388,-8.80405287,4.92404665,-50.60165188,-3.11551719,14.93414602,2.32514694
0.18072407,2.60926111

>  <Name>
5281607

>  <PUBCHEM_ATOM_DEF_STEREO_COUNT>
0

>  <PUBCHEM_ATOM_UDEF_STEREO_COUNT>
0

>  <PUBCHEM_BOND_DEF_STEREO_COUNT>
0

>  <PUBCHEM_BOND_UDEF_STEREO_COUNT>
0

>  <PUBCHEM_CACTVS_TAUTO_COUNT>
12

>  <PUBCHEM_COMPONENT_COUNT>
1

>  <PUBCHEM_COMPOUND_CID>
5281607

>  <PUBCHEM_CONFORMER_DIVERSEORDER>
1

>  <PUBCHEM_CONFORMER_ID>
0050974700000001

>  <PUBCHEM_CONFORMER_RMSD>
0.6

>  <PUBCHEM_COORDINATE_TYPE>
2
5
10

>  <PUBCHEM_EFFECTIVE_ROTOR_COUNT>
1

>  <PUBCHEM_FEATURE_SELFOVERLAP>
35.55

>  <PUBCHEM_HEAVY_ATOM_COUNT>
19

>  <PUBCHEM_ISOTOPIC_ATOM_COUNT>
0

>  <PUBCHEM_MMFF94_ENERGY>
58.6802

>  <PUBCHEM_MMFF94_PARTIAL_CHARGES>
29
1 -0.16
10 0.08
11 -0.14
12 -0.15
13 0.08
14 -0.15
15 -0.15
16 -0.15
17 -0.15
18 -0.15
19 -0.15
2 -0.53
20 0.15
21 0.15
22 0.15
23 0.15
24 0.15
25 0.15
26 0.15
27 0.15
28 0.45
29 0.45
3 -0.57
4 -0.53
5 0.09
6 0.08
7 0.05
8 0.47
9 0.03

>  <PUBCHEM_PHARMACOPHORE_FEATURES>
7
1 1 acceptor
1 2 donor
1 3 acceptor
1 4 donor
6 1 5 6 7 8 11 rings
6 5 6 10 12 13 14 rings
6 9 15 16 17 18 19 rings

>  <PUBCHEM_SHAPE_FINGERPRINT>
10319926 262 18268127809494919170
10411042 1 18265615579738713891
10493431 412 18197507221146397953
10608611 8 18342171134064233104
10616163 171 18411420583546564262
11132069 177 18409449163297457936
11552529 35 17632292436352682015
12032990 46 18410295851770216003
12236239 1 17458347408211182968
12403259 226 18412821387472877168
13140716 1 18411706521194677761
13214271 11 18343016692438145285
13288520 33 18410857667820642214
13296908 3 18411982472727089118
13675066 3 18273492390518142728
14790565 3 17835527016235198305
14866123 147 16905542407924379514
15042514 8 18408611353328975545
15196674 1 18411136944106257192
15219456 202 18273213084594875086
15352361 1 18338516451385899415
15375358 24 18271805692352254134
17492 89 18409448060024340482
17804303 29 18412829079284446544
17834074 16 18342458115019991270
1813 80 17603588547200830588
18186145 218 15864357977667883748
19141452 34 18272937150226625303
200 152 17418085499329608732
20281475 54 18410863191143420508
20510252 161 18270961232888654944
21065198 57 18341612581977734456
21065199 12 18343580759357389514
21065201 7 18335979788261725250
21267235 1 18409175436536850755
221490 88 18264213680320700032
2297311 6 18341061765380641204
23366157 5 17823981353853568324
23402539 116 18410004433933626846
23557571 272 18341902895859977406
23559900 14 18341328882482245094
23845131 108 17547870555410292105
26918003 58 18201434745125223712
2748010 2 18338507659920037029
2871803 45 18408600357965063606
335352 9 18338517426438382605
34934 24 18335413522403504251
4214541 1 18411700959095601360
474 4 16878802641914734316
5104073 3 18342454829459681514
573450 72 18187353303882126634
67856867 119 18187930638177329652
69090 78 18272364239964106078
7364860 26 17979074113022900857
77779 3 18411982460047818098
8809292 202 18408608049860866890
9709674 26 18271529672084392270

>  <PUBCHEM_SHAPE_MULTIPOLES>
367.53
9.79
2.47
0.67
6.66
0.28
0
-3.3
0.48
-2.43
-0.1
0.26
-0.02
0.74

>  <PUBCHEM_SHAPE_SELFOVERLAP>
822.826

>  <PUBCHEM_SHAPE_VOLUME>
193.3

>  <RI>
-8.11363e+08

>  <Rbt.Current_Directory>
/root/miniconda3/envs/rdock/share/rxdock-2013.1.1_148c5bd1-0/data/ligands/prepped_ligands/Chrysin

>  <Rbt.Executable>
rbdock/0.1.0

>  <Rbt.Library>
librxdock.so/0.1.0

>  <Rbt.Parameter_File>
/root/miniconda3/envs/rdock/share/rxdock-2013.1.1_148c5bd1-0/data/scripts/dock.prm

>  <Rbt.Receptor>
def.prm

>  <SCORE>
-14.7581

>  <SCORE.INTER>
-13.6239

>  <SCORE.INTER.CONST>
1

>  <SCORE.INTER.POLAR>
-0.916515

>  <SCORE.INTER.REPUL>
0.195771

>  <SCORE.INTER.ROT>
1

>  <SCORE.INTER.VDW>
-17.8866

>  <SCORE.INTER.norm>
-0.717049

>  <SCORE.INTRA>
-0.110821

>  <SCORE.INTRA.DIHEDRAL>
-1.02976

>  <SCORE.INTRA.DIHEDRAL.0>
1.23518

>  <SCORE.INTRA.POLAR>
0

>  <SCORE.INTRA.POLAR.0>
0

>  <SCORE.INTRA.REPUL>
0

>  <SCORE.INTRA.REPUL.0>
0

>  <SCORE.INTRA.VDW>
0.404057

>  <SCORE.INTRA.VDW.0>
0.668012

>  <SCORE.INTRA.norm>
-0.00583268

>  <SCORE.RESTR>
0

>  <SCORE.RESTR.CAVITY>
0

>  <SCORE.RESTR.norm>
0

>  <SCORE.SYSTEM>
-1.0234

>  <SCORE.SYSTEM.CONST>
0

>  <SCORE.SYSTEM.DIHEDRAL>
0.206857

>  <SCORE.SYSTEM.POLAR>
-0.00387141

>  <SCORE.SYSTEM.VDW>
-1.11366

>  <SCORE.SYSTEM.norm>
-0.053863

>  <SCORE.heavy>
19

>  <SCORE.norm>
-0.776744

$$$$
5281607
  RxDock  02242110303D
librxdock.so/0.1.0
 21 23  0  0  0  0  0  0  0  0999 V2000
  -46.5879   -0.4973   14.1618 O   0  0  0  0  0  0
  -51.3717   -0.0710   13.5079 O   0  0  0  0  0  0
  -50.3239   -1.3605   15.5386 O   0  0  0  0  0  0
  -48.3208    1.8648   10.4258 O   0  0  0  0  0  0
  -48.9944   -0.3166   13.8873 C   0  0  0  0  0  0
  -47.6893   -0.0581   13.4720 C   0  0  0  0  0  0
  -46.7842   -1.2233   15.3267 C   0  0  0  0  0  0
  -49.2067   -1.0942   15.1176 C   0  0  0  0  0  0
  -45.5337   -1.6509   15.9853 C   0  0  0  0  0  0
  -50.0789    0.1553   13.1443 C   0  0  0  0  0  0
  -47.9897   -1.5417   15.8247 C   0  0  0  0  0  0
  -47.4605    0.6755   12.3077 C   0  0  0  0  0  0
  -48.5409    1.1488   11.5627 C   0  0  0  0  0  0
  -49.8471    0.8892   11.9803 C   0  0  0  0  0  0
  -44.3237   -1.6102   15.2880 C   0  0  0  0  0  0
  -45.5547   -2.0981   17.3088 C   0  0  0  0  0  0
  -43.1425   -2.0142   15.9102 C   0  0  0  0  0  0
  -44.3734   -2.5018   17.9311 C   0  0  0  0  0  0
  -43.1673   -2.4599   17.2318 C   0  0  0  0  0  0
  -51.4552   -0.9288   13.9517 H   0  0  0  0  0  0
  -49.1649    2.2389   10.1202 H   0  0  0  0  0  0
  1  6  1  0  0  0
  1  7  1  0  0  0
  2 10  1  0  0  0
  2 20  1  0  0  0
  3  8  2  0  0  0
  4 13  1  0  0  0
  4 21  1  0  0  0
  5  6  1  0  0  0
  5  8  1  0  0  0
  5 10  2  0  0  0
  6 12  2  0  0  0
  7  9  1  0  0  0
  7 11  2  0  0  0
  8 11  1  0  0  0
  9 15  2  0  0  0
  9 16  1  0  0  0
 10 14  1  0  0  0
 12 13  1  0  0  0
 13 14  2  0  0  0
 15 17  1  0  0  0
 16 18  2  0  0  0
 17 19  2  0  0  0
 18 19  1  0  0  0
M  END
>  <CHROM.0>
-56.93030622,68.98662144,64.25772216

>  <CHROM.1>
-32.56393265,-170.54815597,-15.47409159,-47.41825184,-0.68832423,14.46231301
-0.77638966,0.02305721,-1.03061388

>  <Name>
5281607

>  <PUBCHEM_ATOM_DEF_STEREO_COUNT>
0

>  <PUBCHEM_ATOM_UDEF_STEREO_COUNT>
0

>  <PUBCHEM_BOND_DEF_STEREO_COUNT>
0

>  <PUBCHEM_BOND_UDEF_STEREO_COUNT>
0

>  <PUBCHEM_CACTVS_TAUTO_COUNT>
12

>  <PUBCHEM_COMPONENT_COUNT>
1

>  <PUBCHEM_COMPOUND_CID>
5281607

>  <PUBCHEM_CONFORMER_DIVERSEORDER>
1

>  <PUBCHEM_CONFORMER_ID>
0050974700000001

>  <PUBCHEM_CONFORMER_RMSD>
0.6

>  <PUBCHEM_COORDINATE_TYPE>
2
5
10

>  <PUBCHEM_EFFECTIVE_ROTOR_COUNT>
1

>  <PUBCHEM_FEATURE_SELFOVERLAP>
35.55

>  <PUBCHEM_HEAVY_ATOM_COUNT>
19

>  <PUBCHEM_ISOTOPIC_ATOM_COUNT>
0

>  <PUBCHEM_MMFF94_ENERGY>
58.6802

>  <PUBCHEM_MMFF94_PARTIAL_CHARGES>
29
1 -0.16
10 0.08
11 -0.14
12 -0.15
13 0.08
14 -0.15
15 -0.15
16 -0.15
17 -0.15
18 -0.15
19 -0.15
2 -0.53
20 0.15
21 0.15
22 0.15
23 0.15
24 0.15
25 0.15
26 0.15
27 0.15
28 0.45
29 0.45
3 -0.57
4 -0.53
5 0.09
6 0.08
7 0.05
8 0.47
9 0.03

>  <PUBCHEM_PHARMACOPHORE_FEATURES>
7
1 1 acceptor
1 2 donor
1 3 acceptor
1 4 donor
6 1 5 6 7 8 11 rings
6 5 6 10 12 13 14 rings
6 9 15 16 17 18 19 rings

>  <PUBCHEM_SHAPE_FINGERPRINT>
10319926 262 18268127809494919170
10411042 1 18265615579738713891
10493431 412 18197507221146397953
10608611 8 18342171134064233104
10616163 171 18411420583546564262
11132069 177 18409449163297457936
11552529 35 17632292436352682015
12032990 46 18410295851770216003
12236239 1 17458347408211182968
12403259 226 18412821387472877168
13140716 1 18411706521194677761
13214271 11 18343016692438145285
13288520 33 18410857667820642214
13296908 3 18411982472727089118
13675066 3 18273492390518142728
14790565 3 17835527016235198305
14866123 147 16905542407924379514
15042514 8 18408611353328975545
15196674 1 18411136944106257192
15219456 202 18273213084594875086
15352361 1 18338516451385899415
15375358 24 18271805692352254134
17492 89 18409448060024340482
17804303 29 18412829079284446544
17834074 16 18342458115019991270
1813 80 17603588547200830588
18186145 218 15864357977667883748
19141452 34 18272937150226625303
200 152 17418085499329608732
20281475 54 18410863191143420508
20510252 161 18270961232888654944
21065198 57 18341612581977734456
21065199 12 18343580759357389514
21065201 7 18335979788261725250
21267235 1 18409175436536850755
221490 88 18264213680320700032
2297311 6 18341061765380641204
23366157 5 17823981353853568324
23402539 116 18410004433933626846
23557571 272 18341902895859977406
23559900 14 18341328882482245094
23845131 108 17547870555410292105
26918003 58 18201434745125223712
2748010 2 18338507659920037029
2871803 45 18408600357965063606
335352 9 18338517426438382605
34934 24 18335413522403504251
4214541 1 18411700959095601360
474 4 16878802641914734316
5104073 3 18342454829459681514
573450 72 18187353303882126634
67856867 119 18187930638177329652
69090 78 18272364239964106078
7364860 26 17979074113022900857
77779 3 18411982460047818098
8809292 202 18408608049860866890
9709674 26 18271529672084392270

>  <PUBCHEM_SHAPE_MULTIPOLES>
367.53
9.79
2.47
0.67
6.66
0.28
0
-3.3
0.48
-2.43
-0.1
0.26
-0.02
0.74

>  <PUBCHEM_SHAPE_SELFOVERLAP>
822.826

>  <PUBCHEM_SHAPE_VOLUME>
193.3

>  <RI>
-8.11363e+08

>  <Rbt.Current_Directory>
/root/miniconda3/envs/rdock/share/rxdock-2013.1.1_148c5bd1-0/data/ligands/prepped_ligands/Chrysin

>  <Rbt.Executable>
rbdock/0.1.0

>  <Rbt.Library>
librxdock.so/0.1.0

>  <Rbt.Parameter_File>
/root/miniconda3/envs/rdock/share/rxdock-2013.1.1_148c5bd1-0/data/scripts/dock.prm

>  <Rbt.Receptor>
def.prm

>  <SCORE>
-8.52689

>  <SCORE.INTER>
-7.97988

>  <SCORE.INTER.CONST>
1

>  <SCORE.INTER.POLAR>
-0.928974

>  <SCORE.INTER.REPUL>
0.000181714

>  <SCORE.INTER.ROT>
1

>  <SCORE.INTER.VDW>
-11.2223

>  <SCORE.INTER.norm>
-0.419994

>  <SCORE.INTRA>
0.323375

>  <SCORE.INTRA.DIHEDRAL>
0.648467

>  <SCORE.INTRA.DIHEDRAL.0>
1.23518

>  <SCORE.INTRA.POLAR>
0

>  <SCORE.INTRA.POLAR.0>
0

>  <SCORE.INTRA.REPUL>
0

>  <SCORE.INTRA.REPUL.0>
0

>  <SCORE.INTRA.VDW>
-0.000858389

>  <SCORE.INTRA.VDW.0>
0.668012

>  <SCORE.INTRA.norm>
0.0170197

>  <SCORE.RESTR>
0.00385557

>  <SCORE.RESTR.CAVITY>
0.00385557

>  <SCORE.RESTR.norm>
0.000202925

>  <SCORE.SYSTEM>
-0.874234

>  <SCORE.SYSTEM.CONST>
0

>  <SCORE.SYSTEM.DIHEDRAL>
0.453471

>  <SCORE.SYSTEM.POLAR>
-0.00979019

>  <SCORE.SYSTEM.VDW>
-1.06768

>  <SCORE.SYSTEM.norm>
-0.0460123

>  <SCORE.heavy>
19

>  <SCORE.norm>
-0.448783

$$$$
5281607
  RxDock  02242110303D
librxdock.so/0.1.0
 21 23  0  0  0  0  0  0  0  0999 V2000
  -50.4342   -0.7759   13.3449 O   0  0  0  0  0  0
  -48.6823   -4.5551   15.8236 O   0  0  0  0  0  0
  -47.1647   -2.6006   14.9510 O   0  0  0  0  0  0
  -53.3188   -4.2351   14.8459 O   0  0  0  0  0  0
  -49.4985   -2.6445   14.5829 C   0  0  0  0  0  0
  -50.5737   -1.9681   14.0091 C   0  0  0  0  0  0
  -49.1685   -0.2179   13.2479 C   0  0  0  0  0  0
  -48.1531   -2.0602   14.4742 C   0  0  0  0  0  0
  -49.1312    1.0600   12.5090 C   0  0  0  0  0  0
  -49.6996   -3.8565   15.2473 C   0  0  0  0  0  0
  -48.0562   -0.7755   13.7521 C   0  0  0  0  0  0
  -51.8597   -2.5016   14.0964 C   0  0  0  0  0  0
  -52.0649   -3.7119   14.7594 C   0  0  0  0  0  0
  -50.9871   -4.3876   15.3335 C   0  0  0  0  0  0
  -50.1461    2.0034   12.6867 C   0  0  0  0  0  0
  -48.0806    1.3315   11.6289 C   0  0  0  0  0  0
  -50.1107    3.2106   11.9886 C   0  0  0  0  0  0
  -48.0449    2.5387   10.9311 C   0  0  0  0  0  0
  -49.0601    3.4783   11.1109 C   0  0  0  0  0  0
  -47.8273   -4.2632   15.4722 H   0  0  0  0  0  0
  -53.9102   -3.7364   14.2566 H   0  0  0  0  0  0
  1  6  1  0  0  0
  1  7  1  0  0  0
  2 10  1  0  0  0
  2 20  1  0  0  0
  3  8  2  0  0  0
  4 13  1  0  0  0
  4 21  1  0  0  0
  5  6  1  0  0  0
  5  8  1  0  0  0
  5 10  2  0  0  0
  6 12  2  0  0  0
  7  9  1  0  0  0
  7 11  2  0  0  0
  8 11  1  0  0  0
  9 15  2  0  0  0
  9 16  1  0  0  0
 10 14  1  0  0  0
 12 13  1  0  0  0
 13 14  2  0  0  0
 15 17  1  0  0  0
 16 18  2  0  0  0
 17 19  2  0  0  0
 18 19  1  0  0  0
M  END
>  <CHROM.0>
-60.91148597,-63.03387924,-178.69380543

>  <CHROM.1>
-18.09457787,10.73950434,40.08517864,-49.71377854,-1.17958307,13.69645241
1.33421098,-0.08104280,-0.51084911

>  <Name>
5281607

>  <PUBCHEM_ATOM_DEF_STEREO_COUNT>
0

>  <PUBCHEM_ATOM_UDEF_STEREO_COUNT>
0

>  <PUBCHEM_BOND_DEF_STEREO_COUNT>
0

>  <PUBCHEM_BOND_UDEF_STEREO_COUNT>
0

>  <PUBCHEM_CACTVS_TAUTO_COUNT>
12

>  <PUBCHEM_COMPONENT_COUNT>
1

>  <PUBCHEM_COMPOUND_CID>
5281607

>  <PUBCHEM_CONFORMER_DIVERSEORDER>
1

>  <PUBCHEM_CONFORMER_ID>
0050974700000001

>  <PUBCHEM_CONFORMER_RMSD>
0.6

>  <PUBCHEM_COORDINATE_TYPE>
2
5
10

>  <PUBCHEM_EFFECTIVE_ROTOR_COUNT>
1

>  <PUBCHEM_FEATURE_SELFOVERLAP>
35.55

>  <PUBCHEM_HEAVY_ATOM_COUNT>
19

>  <PUBCHEM_ISOTOPIC_ATOM_COUNT>
0

>  <PUBCHEM_MMFF94_ENERGY>
58.6802

>  <PUBCHEM_MMFF94_PARTIAL_CHARGES>
29
1 -0.16
10 0.08
11 -0.14
12 -0.15
13 0.08
14 -0.15
15 -0.15
16 -0.15
17 -0.15
18 -0.15
19 -0.15
2 -0.53
20 0.15
21 0.15
22 0.15
23 0.15
24 0.15
25 0.15
26 0.15
27 0.15
28 0.45
29 0.45
3 -0.57
4 -0.53
5 0.09
6 0.08
7 0.05
8 0.47
9 0.03

>  <PUBCHEM_PHARMACOPHORE_FEATURES>
7
1 1 acceptor
1 2 donor
1 3 acceptor
1 4 donor
6 1 5 6 7 8 11 rings
6 5 6 10 12 13 14 rings
6 9 15 16 17 18 19 rings

>  <PUBCHEM_SHAPE_FINGERPRINT>
10319926 262 18268127809494919170
10411042 1 18265615579738713891
10493431 412 18197507221146397953
10608611 8 18342171134064233104
10616163 171 18411420583546564262
11132069 177 18409449163297457936
11552529 35 17632292436352682015
12032990 46 18410295851770216003
12236239 1 17458347408211182968
12403259 226 18412821387472877168
13140716 1 18411706521194677761
13214271 11 18343016692438145285
13288520 33 18410857667820642214
13296908 3 18411982472727089118
13675066 3 18273492390518142728
14790565 3 17835527016235198305
14866123 147 16905542407924379514
15042514 8 18408611353328975545
15196674 1 18411136944106257192
15219456 202 18273213084594875086
15352361 1 18338516451385899415
15375358 24 18271805692352254134
17492 89 18409448060024340482
17804303 29 18412829079284446544
17834074 16 18342458115019991270
1813 80 17603588547200830588
18186145 218 15864357977667883748
19141452 34 18272937150226625303
200 152 17418085499329608732
20281475 54 18410863191143420508
20510252 161 18270961232888654944
21065198 57 18341612581977734456
21065199 12 18343580759357389514
21065201 7 18335979788261725250
21267235 1 18409175436536850755
221490 88 18264213680320700032
2297311 6 18341061765380641204
23366157 5 17823981353853568324
23402539 116 18410004433933626846
23557571 272 18341902895859977406
23559900 14 18341328882482245094
23845131 108 17547870555410292105
26918003 58 18201434745125223712
2748010 2 18338507659920037029
2871803 45 18408600357965063606
335352 9 18338517426438382605
34934 24 18335413522403504251
4214541 1 18411700959095601360
474 4 16878802641914734316
5104073 3 18342454829459681514
573450 72 18187353303882126634
67856867 119 18187930638177329652
69090 78 18272364239964106078
7364860 26 17979074113022900857
77779 3 18411982460047818098
8809292 202 18408608049860866890
9709674 26 18271529672084392270

>  <PUBCHEM_SHAPE_MULTIPOLES>
367.53
9.79
2.47
0.67
6.66
0.28
0
-3.3
0.48
-2.43
-0.1
0.26
-0.02
0.74

>  <PUBCHEM_SHAPE_SELFOVERLAP>
822.826

>  <PUBCHEM_SHAPE_VOLUME>
193.3

>  <RI>
-8.11363e+08

>  <Rbt.Current_Directory>
/root/miniconda3/envs/rdock/share/rxdock-2013.1.1_148c5bd1-0/data/ligands/prepped_ligands/Chrysin

>  <Rbt.Executable>
rbdock/0.1.0

>  <Rbt.Library>
librxdock.so/0.1.0

>  <Rbt.Parameter_File>
/root/miniconda3/envs/rdock/share/rxdock-2013.1.1_148c5bd1-0/data/scripts/dock.prm

>  <Rbt.Receptor>
def.prm

>  <SCORE>
-21.8938

>  <SCORE.INTER>
-21.1031

>  <SCORE.INTER.CONST>
1

>  <SCORE.INTER.POLAR>
-1.27316

>  <SCORE.INTER.REPUL>
0

>  <SCORE.INTER.ROT>
1

>  <SCORE.INTER.VDW>
-23.1744

>  <SCORE.INTER.norm>
-1.11069

>  <SCORE.INTRA>
0.312531

>  <SCORE.INTRA.DIHEDRAL>
1.34688

>  <SCORE.INTRA.DIHEDRAL.0>
1.23518

>  <SCORE.INTRA.POLAR>
0

>  <SCORE.INTRA.POLAR.0>
0

>  <SCORE.INTRA.REPUL>
0

>  <SCORE.INTRA.REPUL.0>
0

>  <SCORE.INTRA.VDW>
-0.360908

>  <SCORE.INTRA.VDW.0>
0.668012

>  <SCORE.INTRA.norm>
0.016449

>  <SCORE.RESTR>
0

>  <SCORE.RESTR.CAVITY>
0

>  <SCORE.RESTR.norm>
0

>  <SCORE.SYSTEM>
-1.10324

>  <SCORE.SYSTEM.CONST>
0

>  <SCORE.SYSTEM.DIHEDRAL>
0.0513939

>  <SCORE.SYSTEM.POLAR>
-0.00510932

>  <SCORE.SYSTEM.VDW>
-1.11156

>  <SCORE.SYSTEM.norm>
-0.0580651

>  <SCORE.heavy>
19

>  <SCORE.norm>
-1.15231

$$$$
5281607
  RxDock  02242110303D
librxdock.so/0.1.0
 21 23  0  0  0  0  0  0  0  0999 V2000
  -47.9741    0.4545   13.4891 O   0  0  0  0  0  0
  -48.7427   -3.9627   15.3308 O   0  0  0  0  0  0
  -50.6184   -2.5787   14.1264 O   0  0  0  0  0  0
  -44.4701   -1.9133   15.6468 O   0  0  0  0  0  0
  -48.4191   -1.7559   14.3921 C   0  0  0  0  0  0
  -47.5675   -0.6811   14.1424 C   0  0  0  0  0  0
  -49.2880    0.5309   13.0525 C   0  0  0  0  0  0
  -49.8159   -1.6748   13.9385 C   0  0  0  0  0  0
  -49.6202    1.7965   12.3680 C   0  0  0  0  0  0
  -47.9504   -2.8878   15.0630 C   0  0  0  0  0  0
  -50.2034   -0.4333   13.2385 C   0  0  0  0  0  0
  -46.2387   -0.7321   14.5638 C   0  0  0  0  0  0
  -45.7664   -1.8608   15.2341 C   0  0  0  0  0  0
  -46.6206   -2.9362   15.4830 C   0  0  0  0  0  0
  -50.9363    2.2650   12.3588 C   0  0  0  0  0  0
  -48.6198    2.5311   11.7265 C   0  0  0  0  0  0
  -51.2500    3.4604   11.7121 C   0  0  0  0  0  0
  -48.9334    3.7268   11.0802 C   0  0  0  0  0  0
  -50.2486    4.1914   11.0729 C   0  0  0  0  0  0
  -49.6124   -3.8562   14.9160 H   0  0  0  0  0  0
  -44.0383   -1.0670   15.4389 H   0  0  0  0  0  0
  1  6  1  0  0  0
  1  7  1  0  0  0
  2 10  1  0  0  0
  2 20  1  0  0  0
  3  8  2  0  0  0
  4 13  1  0  0  0
  4 21  1  0  0  0
  5  6  1  0  0  0
  5  8  1  0  0  0
  5 10  2  0  0  0
  6 12  2  0  0  0
  7  9  1  0  0  0
  7 11  2  0  0  0
  8 11  1  0  0  0
  9 15  2  0  0  0
  9 16  1  0  0  0
 10 14  1  0  0  0
 12 13  1  0  0  0
 13 14  2  0  0  0
 15 17  1  0  0  0
 16 18  2  0  0  0
 17 19  2  0  0  0
 18 19  1  0  0  0
M  END
>  <CHROM.0>
55.28400948,64.35551739,-179.56750736

>  <CHROM.1>
5.81775847,3.23702679,-153.83236576,-48.55658319,-0.21339712,13.63031948
-2.01523985,0.21801468,2.68460212

>  <Name>
5281607

>  <PUBCHEM_ATOM_DEF_STEREO_COUNT>
0

>  <PUBCHEM_ATOM_UDEF_STEREO_COUNT>
0

>  <PUBCHEM_BOND_DEF_STEREO_COUNT>
0

>  <PUBCHEM_BOND_UDEF_STEREO_COUNT>
0

>  <PUBCHEM_CACTVS_TAUTO_COUNT>
12

>  <PUBCHEM_COMPONENT_COUNT>
1

>  <PUBCHEM_COMPOUND_CID>
5281607

>  <PUBCHEM_CONFORMER_DIVERSEORDER>
1

>  <PUBCHEM_CONFORMER_ID>
0050974700000001

>  <PUBCHEM_CONFORMER_RMSD>
0.6

>  <PUBCHEM_COORDINATE_TYPE>
2
5
10

>  <PUBCHEM_EFFECTIVE_ROTOR_COUNT>
1

>  <PUBCHEM_FEATURE_SELFOVERLAP>
35.55

>  <PUBCHEM_HEAVY_ATOM_COUNT>
19

>  <PUBCHEM_ISOTOPIC_ATOM_COUNT>
0

>  <PUBCHEM_MMFF94_ENERGY>
58.6802

>  <PUBCHEM_MMFF94_PARTIAL_CHARGES>
29
1 -0.16
10 0.08
11 -0.14
12 -0.15
13 0.08
14 -0.15
15 -0.15
16 -0.15
17 -0.15
18 -0.15
19 -0.15
2 -0.53
20 0.15
21 0.15
22 0.15
23 0.15
24 0.15
25 0.15
26 0.15
27 0.15
28 0.45
29 0.45
3 -0.57
4 -0.53
5 0.09
6 0.08
7 0.05
8 0.47
9 0.03

>  <PUBCHEM_PHARMACOPHORE_FEATURES>
7
1 1 acceptor
1 2 donor
1 3 acceptor
1 4 donor
6 1 5 6 7 8 11 rings
6 5 6 10 12 13 14 rings
6 9 15 16 17 18 19 rings

>  <PUBCHEM_SHAPE_FINGERPRINT>
10319926 262 18268127809494919170
10411042 1 18265615579738713891
10493431 412 18197507221146397953
10608611 8 18342171134064233104
10616163 171 18411420583546564262
11132069 177 18409449163297457936
11552529 35 17632292436352682015
12032990 46 18410295851770216003
12236239 1 17458347408211182968
12403259 226 18412821387472877168
13140716 1 18411706521194677761
13214271 11 18343016692438145285
13288520 33 18410857667820642214
13296908 3 18411982472727089118
13675066 3 18273492390518142728
14790565 3 17835527016235198305
14866123 147 16905542407924379514
15042514 8 18408611353328975545
15196674 1 18411136944106257192
15219456 202 18273213084594875086
15352361 1 18338516451385899415
15375358 24 18271805692352254134
17492 89 18409448060024340482
17804303 29 18412829079284446544
17834074 16 18342458115019991270
1813 80 17603588547200830588
18186145 218 15864357977667883748
19141452 34 18272937150226625303
200 152 17418085499329608732
20281475 54 18410863191143420508
20510252 161 18270961232888654944
21065198 57 18341612581977734456
21065199 12 18343580759357389514
21065201 7 18335979788261725250
21267235 1 18409175436536850755
221490 88 18264213680320700032
2297311 6 18341061765380641204
23366157 5 17823981353853568324
23402539 116 18410004433933626846
23557571 272 18341902895859977406
23559900 14 18341328882482245094
23845131 108 17547870555410292105
26918003 58 18201434745125223712
2748010 2 18338507659920037029
2871803 45 18408600357965063606
335352 9 18338517426438382605
34934 24 18335413522403504251
4214541 1 18411700959095601360
474 4 16878802641914734316
5104073 3 18342454829459681514
573450 72 18187353303882126634
67856867 119 18187930638177329652
69090 78 18272364239964106078
7364860 26 17979074113022900857
77779 3 18411982460047818098
8809292 202 18408608049860866890
9709674 26 18271529672084392270

>  <PUBCHEM_SHAPE_MULTIPOLES>
367.53
9.79
2.47
0.67
6.66
0.28
0
-3.3
0.48
-2.43
-0.1
0.26
-0.02
0.74

>  <PUBCHEM_SHAPE_SELFOVERLAP>
822.826

>  <PUBCHEM_SHAPE_VOLUME>
193.3

>  <RI>
-8.11363e+08

>  <Rbt.Current_Directory>
/root/miniconda3/envs/rdock/share/rxdock-2013.1.1_148c5bd1-0/data/ligands/prepped_ligands/Chrysin

>  <Rbt.Executable>
rbdock/0.1.0

>  <Rbt.Library>
librxdock.so/0.1.0

>  <Rbt.Parameter_File>
/root/miniconda3/envs/rdock/share/rxdock-2013.1.1_148c5bd1-0/data/scripts/dock.prm

>  <Rbt.Receptor>
def.prm

>  <SCORE>
-17.2241

>  <SCORE.INTER>
-16.1804

>  <SCORE.INTER.CONST>
1

>  <SCORE.INTER.POLAR>
-0.427642

>  <SCORE.INTER.REPUL>
0

>  <SCORE.INTER.ROT>
1

>  <SCORE.INTER.VDW>
-21.1264

>  <SCORE.INTER.norm>
-0.851598

>  <SCORE.INTRA>
-0.0393425

>  <SCORE.INTRA.DIHEDRAL>
-0.267923

>  <SCORE.INTRA.DIHEDRAL.0>
1.23518

>  <SCORE.INTRA.POLAR>
0

>  <SCORE.INTRA.POLAR.0>
0

>  <SCORE.INTRA.REPUL>
0

>  <SCORE.INTRA.REPUL.0>
0

>  <SCORE.INTRA.VDW>
0.0946189

>  <SCORE.INTRA.VDW.0>
0.668012

>  <SCORE.INTRA.norm>
-0.00207066

>  <SCORE.RESTR>
0

>  <SCORE.RESTR.CAVITY>
0

>  <SCORE.RESTR.norm>
0

>  <SCORE.SYSTEM>
-1.00436

>  <SCORE.SYSTEM.CONST>
0

>  <SCORE.SYSTEM.DIHEDRAL>
0.151567

>  <SCORE.SYSTEM.POLAR>
-0.00306368

>  <SCORE.SYSTEM.VDW>
-1.06973

>  <SCORE.SYSTEM.norm>
-0.0528612

>  <SCORE.heavy>
19

>  <SCORE.norm>
-0.90653

$$$$
5281607
  RxDock  02242110303D
librxdock.so/0.1.0
 21 23  0  0  0  0  0  0  0  0999 V2000
  -47.3965    0.2609   13.6661 O   0  0  0  0  0  0
  -47.9264   -4.0545   15.8087 O   0  0  0  0  0  0
  -49.8871   -2.8366   14.5610 O   0  0  0  0  0  0
  -43.7454   -1.8034   15.8905 O   0  0  0  0  0  0
  -47.7224   -1.9025   14.7211 C   0  0  0  0  0  0
  -46.9256   -0.8102   14.3822 C   0  0  0  0  0  0
  -48.7211    0.2507   13.2563 C   0  0  0  0  0  0
  -49.1304   -1.9127   14.2960 C   0  0  0  0  0  0
  -49.1242    1.4525   12.4989 C   0  0  0  0  0  0
  -47.1893   -2.9659   15.4530 C   0  0  0  0  0  0
  -49.5880   -0.7384   13.5260 C   0  0  0  0  0  0
  -45.5874   -0.7749   14.7747 C   0  0  0  0  0  0
  -45.0509   -1.8352   15.5058 C   0  0  0  0  0  0
  -45.8503   -2.9281   15.8440 C   0  0  0  0  0  0
  -50.3910    2.0100   12.6894 C   0  0  0  0  0  0
  -48.2406    2.0375   11.5884 C   0  0  0  0  0  0
  -50.7717    3.1453   11.9738 C   0  0  0  0  0  0
  -48.6211    3.1729   10.8731 C   0  0  0  0  0  0
  -49.8867    3.7268   11.0658 C   0  0  0  0  0  0
  -48.8162   -4.0022   15.4276 H   0  0  0  0  0  0
  -43.4450   -2.7123   16.0628 H   0  0  0  0  0  0
  1  6  1  0  0  0
  1  7  1  0  0  0
  2 10  1  0  0  0
  2 20  1  0  0  0
  3  8  2  0  0  0
  4 13  1  0  0  0
  4 21  1  0  0  0
  5  6  1  0  0  0
  5  8  1  0  0  0
  5 10  2  0  0  0
  6 12  2  0  0  0
  7  9  1  0  0  0
  7 11  2  0  0  0
  8 11  1  0  0  0
  9 15  2  0  0  0
  9 16  1  0  0  0
 10 14  1  0  0  0
 12 13  1  0  0  0
 13 14  2  0  0  0
 15 17  1  0  0  0
 16 18  2  0  0  0
 17 19  2  0  0  0
 18 19  1  0  0  0
M  END
>  <CHROM.0>
61.21416612,-64.33548401,-178.12963090

>  <CHROM.1>
4.31296731,-157.97160088,-141.56043331,-47.94545699,-0.42803040,13.86586109
-2.06312672,0.20277915,2.62260976

>  <Name>
5281607

>  <PUBCHEM_ATOM_DEF_STEREO_COUNT>
0

>  <PUBCHEM_ATOM_UDEF_STEREO_COUNT>
0

>  <PUBCHEM_BOND_DEF_STEREO_COUNT>
0

>  <PUBCHEM_BOND_UDEF_STEREO_COUNT>
0

>  <PUBCHEM_CACTVS_TAUTO_COUNT>
12

>  <PUBCHEM_COMPONENT_COUNT>
1

>  <PUBCHEM_COMPOUND_CID>
5281607

>  <PUBCHEM_CONFORMER_DIVERSEORDER>
1

>  <PUBCHEM_CONFORMER_ID>
0050974700000001

>  <PUBCHEM_CONFORMER_RMSD>
0.6

>  <PUBCHEM_COORDINATE_TYPE>
2
5
10

>  <PUBCHEM_EFFECTIVE_ROTOR_COUNT>
1

>  <PUBCHEM_FEATURE_SELFOVERLAP>
35.55

>  <PUBCHEM_HEAVY_ATOM_COUNT>
19

>  <PUBCHEM_ISOTOPIC_ATOM_COUNT>
0

>  <PUBCHEM_MMFF94_ENERGY>
58.6802

>  <PUBCHEM_MMFF94_PARTIAL_CHARGES>
29
1 -0.16
10 0.08
11 -0.14
12 -0.15
13 0.08
14 -0.15
15 -0.15
16 -0.15
17 -0.15
18 -0.15
19 -0.15
2 -0.53
20 0.15
21 0.15
22 0.15
23 0.15
24 0.15
25 0.15
26 0.15
27 0.15
28 0.45
29 0.45
3 -0.57
4 -0.53
5 0.09
6 0.08
7 0.05
8 0.47
9 0.03

>  <PUBCHEM_PHARMACOPHORE_FEATURES>
7
1 1 acceptor
1 2 donor
1 3 acceptor
1 4 donor
6 1 5 6 7 8 11 rings
6 5 6 10 12 13 14 rings
6 9 15 16 17 18 19 rings

>  <PUBCHEM_SHAPE_FINGERPRINT>
10319926 262 18268127809494919170
10411042 1 18265615579738713891
10493431 412 18197507221146397953
10608611 8 18342171134064233104
10616163 171 18411420583546564262
11132069 177 18409449163297457936
11552529 35 17632292436352682015
12032990 46 18410295851770216003
12236239 1 17458347408211182968
12403259 226 18412821387472877168
13140716 1 18411706521194677761
13214271 11 18343016692438145285
13288520 33 18410857667820642214
13296908 3 18411982472727089118
13675066 3 18273492390518142728
14790565 3 17835527016235198305
14866123 147 16905542407924379514
15042514 8 18408611353328975545
15196674 1 18411136944106257192
15219456 202 18273213084594875086
15352361 1 18338516451385899415
15375358 24 18271805692352254134
17492 89 18409448060024340482
17804303 29 18412829079284446544
17834074 16 18342458115019991270
1813 80 17603588547200830588
18186145 218 15864357977667883748
19141452 34 18272937150226625303
200 152 17418085499329608732
20281475 54 18410863191143420508
20510252 161 18270961232888654944
21065198 57 18341612581977734456
21065199 12 18343580759357389514
21065201 7 18335979788261725250
21267235 1 18409175436536850755
221490 88 18264213680320700032
2297311 6 18341061765380641204
23366157 5 17823981353853568324
23402539 116 18410004433933626846
23557571 272 18341902895859977406
23559900 14 18341328882482245094
23845131 108 17547870555410292105
26918003 58 18201434745125223712
2748010 2 18338507659920037029
2871803 45 18408600357965063606
335352 9 18338517426438382605
34934 24 18335413522403504251
4214541 1 18411700959095601360
474 4 16878802641914734316
5104073 3 18342454829459681514
573450 72 18187353303882126634
67856867 119 18187930638177329652
69090 78 18272364239964106078
7364860 26 17979074113022900857
77779 3 18411982460047818098
8809292 202 18408608049860866890
9709674 26 18271529672084392270

>  <PUBCHEM_SHAPE_MULTIPOLES>
367.53
9.79
2.47
0.67
6.66
0.28
0
-3.3
0.48
-2.43
-0.1
0.26
-0.02
0.74

>  <PUBCHEM_SHAPE_SELFOVERLAP>
822.826

>  <PUBCHEM_SHAPE_VOLUME>
193.3

>  <RI>
-8.11363e+08

>  <Rbt.Current_Directory>
/root/miniconda3/envs/rdock/share/rxdock-2013.1.1_148c5bd1-0/data/ligands/prepped_ligands/Chrysin

>  <Rbt.Executable>
rbdock/0.1.0

>  <Rbt.Library>
librxdock.so/0.1.0

>  <Rbt.Parameter_File>
/root/miniconda3/envs/rdock/share/rxdock-2013.1.1_148c5bd1-0/data/scripts/dock.prm

>  <Rbt.Receptor>
def.prm

>  <SCORE>
-17.7923

>  <SCORE.INTER>
-17.0543

>  <SCORE.INTER.CONST>
1

>  <SCORE.INTER.POLAR>
-0.83327

>  <SCORE.INTER.REPUL>
0

>  <SCORE.INTER.ROT>
1

>  <SCORE.INTER.VDW>
-20.6211

>  <SCORE.INTER.norm>
-0.897593

>  <SCORE.INTRA>
0.341989

>  <SCORE.INTRA.DIHEDRAL>
1.28491

>  <SCORE.INTRA.DIHEDRAL.0>
1.23518

>  <SCORE.INTRA.POLAR>
0

>  <SCORE.INTRA.POLAR.0>
0

>  <SCORE.INTRA.REPUL>
0

>  <SCORE.INTRA.REPUL.0>
0

>  <SCORE.INTRA.VDW>
-0.300465

>  <SCORE.INTRA.VDW.0>
0.668012

>  <SCORE.INTRA.norm>
0.0179994

>  <SCORE.RESTR>
0

>  <SCORE.RESTR.CAVITY>
0

>  <SCORE.RESTR.norm>
0

>  <SCORE.SYSTEM>
-1.08005

>  <SCORE.SYSTEM.CONST>
0

>  <SCORE.SYSTEM.DIHEDRAL>
0.1024

>  <SCORE.SYSTEM.POLAR>
-0.00635469

>  <SCORE.SYSTEM.VDW>
-1.10964

>  <SCORE.SYSTEM.norm>
-0.0568446

>  <SCORE.heavy>
19

>  <SCORE.norm>
-0.936438

$$$$
