Baicalin.pdb
  RxDock  02242101523D
librxdock.so/0.1.0
 38 41  0  0  0  0  0  0  0  0999 V2000
  -50.5277   -6.2408   16.3527 O   0  0  0  0  0  0
  -51.7593   -4.9651   14.8356 O   0  0  0  0  0  0
  -53.7121   -8.7435   17.0404 O   0  0  0  0  0  0
  -54.1449   -6.0781   15.8645 O   0  0  0  0  0  0
  -51.5081   -8.6408   18.9325 O   0  0  0  0  0  0
  -48.8959   -8.4514   16.8339 O   0  0  0  0  0  0
  -48.2274   -6.9601   18.4229 O   0  0  0  0  0  0
  -47.6387   -2.7997   15.7442 O   0  0  0  0  0  0
  -52.7802   -2.6448   13.7292 O   0  0  0  0  0  0
  -51.2549   -0.3853   13.6150 O   0  0  0  0  0  0
  -48.9522    0.7171   14.1608 O   0  0  0  0  0  0
  -52.8928   -7.5947   17.2637 C   0  0  0  0  0  0
  -52.8801   -6.7253   16.0061 C   0  0  0  0  0  0
  -51.4879   -8.0778   17.6225 C   0  0  0  0  0  0
  -51.7974   -5.6489   16.0888 C   0  0  0  0  0  0
  -50.4967   -6.9200   17.6031 C   0  0  0  0  0  0
  -49.0906   -7.4177   17.6886 C   0  0  0  0  0  0
  -50.9965   -3.8358   14.7790 C   0  0  0  0  0  0
  -49.6967   -3.8627   15.2845 C   0  0  0  0  0  0
  -51.5072   -2.6626   14.2215 C   0  0  0  0  0  0
  -48.9074   -2.7126   15.2310 C   0  0  0  0  0  0
  -49.4201   -1.5425   14.6742 C   0  0  0  0  0  0
  -50.7211   -1.5116   14.1668 C   0  0  0  0  0  0
  -48.5672   -0.3446   14.6325 C   0  0  0  0  0  0
  -46.8292   -1.6748   15.6982 C   0  0  0  0  0  0
  -47.2089   -0.4906   15.1935 C   0  0  0  0  0  0
  -45.4869   -1.8772   16.2808 C   0  0  0  0  0  0
  -45.3486   -2.1614   17.6421 C   0  0  0  0  0  0
  -44.3505   -1.7872   15.4741 C   0  0  0  0  0  0
  -44.0808   -2.3536   18.1917 C   0  0  0  0  0  0
  -43.0827   -1.9793   16.0237 C   0  0  0  0  0  0
  -42.9482   -2.2631   17.3831 C   0  0  0  0  0  0
  -54.5917   -8.4305   16.7720 H   0  0  0  0  0  0
  -54.3057   -5.5650   16.6738 H   0  0  0  0  0  0
  -50.6162   -8.9738   19.1313 H   0  0  0  0  0  0
  -47.9675   -8.7682   16.8468 H   0  0  0  0  0  0
  -52.9911   -1.7353   13.4543 H   0  0  0  0  0  0
  -51.2568   -0.4430   12.6474 H   0  0  0  0  0  0
  1 15  1  0  0  0
  1 16  1  0  0  0
  2 15  1  0  0  0
  2 18  1  0  0  0
  3 12  1  0  0  0
  3 33  1  0  0  0
  4 13  1  0  0  0
  4 34  1  0  0  0
  5 14  1  0  0  0
  5 35  1  0  0  0
  6 17  1  0  0  0
  6 36  1  0  0  0
  7 17  2  0  0  0
  8 21  1  0  0  0
  8 25  1  0  0  0
  9 20  1  0  0  0
  9 37  1  0  0  0
 10 23  1  0  0  0
 10 38  1  0  0  0
 11 24  2  0  0  0
 12 13  1  0  0  0
 13 15  1  0  0  0
 14 12  1  0  0  0
 16 14  1  0  0  0
 16 17  1  0  0  0
 18 19  2  0  0  0
 18 20  1  0  0  0
 19 21  1  0  0  0
 20 23  2  0  0  0
 21 22  2  0  0  0
 22 23  1  0  0  0
 22 24  1  0  0  0
 24 26  1  0  0  0
 25 26  2  0  0  0
 25 27  1  0  0  0
 27 28  2  0  0  0
 27 29  1  0  0  0
 28 30  1  0  0  0
 29 31  2  0  0  0
 30 32  2  0  0  0
 31 32  1  0  0  0
M  END
>  <CHROM.0>
-67.02003136,176.23953219,178.89946056

>  <CHROM.1>
-69.28169729,47.97047165,-55.86377462,57.19728014,177.83864669,-2.29664735
175.17099616,-77.28860031,-72.88023740,-64.23949127,-49.44339373,-4.14374514
16.03064163,-2.42294541,-0.30412368,-0.50153256

>  <Name>
Baicalin.pdb

>  <RI>
-8.34653e+08

>  <Rbt.Current_Directory>
/root/miniconda3/envs/rdock/share/rxdock-2013.1.1_148c5bd1-0/data/ligands/prepped_ligands/Baicalin

>  <Rbt.Executable>
rbdock/0.1.0

>  <Rbt.Library>
librxdock.so/0.1.0

>  <Rbt.Parameter_File>
/root/miniconda3/envs/rdock/share/rxdock-2013.1.1_148c5bd1-0/data/scripts/dock.prm

>  <Rbt.Receptor>
def.prm

>  <SCORE>
-8.92937

>  <SCORE.INTER>
-11.7374

>  <SCORE.INTER.CONST>
1

>  <SCORE.INTER.POLAR>
-1.81774

>  <SCORE.INTER.REPUL>
0.542914

>  <SCORE.INTER.ROT>
4

>  <SCORE.INTER.VDW>
-17.6717

>  <SCORE.INTER.norm>
-0.366794

>  <SCORE.INTRA>
3.48891

>  <SCORE.INTRA.DIHEDRAL>
6.94827

>  <SCORE.INTRA.DIHEDRAL.0>
5.84004

>  <SCORE.INTRA.POLAR>
0.136432

>  <SCORE.INTRA.POLAR.0>
-0.136432

>  <SCORE.INTRA.REPUL>
0

>  <SCORE.INTRA.REPUL.0>
0

>  <SCORE.INTRA.VDW>
-0.449092

>  <SCORE.INTRA.VDW.0>
-0.289917

>  <SCORE.INTRA.norm>
0.109028

>  <SCORE.RESTR>
0.306724

>  <SCORE.RESTR.CAVITY>
0.306724

>  <SCORE.RESTR.norm>
0.00958511

>  <SCORE.SYSTEM>
-0.9876

>  <SCORE.SYSTEM.CONST>
0

>  <SCORE.SYSTEM.DIHEDRAL>
0.198944

>  <SCORE.SYSTEM.VDW>
-1.08707

>  <SCORE.SYSTEM.norm>
-0.0308625

>  <SCORE.heavy>
32

>  <SCORE.norm>
-0.279043

$$$$
Baicalin.pdb
  RxDock  02242101523D
librxdock.so/0.1.0
 38 41  0  0  0  0  0  0  0  0999 V2000
  -48.0392   -1.1078   16.4151 O   0  0  0  0  0  0
  -49.3369    0.1439   17.8966 O   0  0  0  0  0  0
  -44.5521    0.2510   18.1096 O   0  0  0  0  0  0
  -47.0732    1.7167   18.5217 O   0  0  0  0  0  0
  -44.5163   -0.9216   15.4502 O   0  0  0  0  0  0
  -45.8034   -2.8626   14.3855 O   0  0  0  0  0  0
  -47.9756   -3.2335   14.9682 O   0  0  0  0  0  0
  -52.1036   -3.6591   17.2832 O   0  0  0  0  0  0
  -48.3257   -0.9204   20.2407 O   0  0  0  0  0  0
  -49.1829   -3.3525   21.1322 O   0  0  0  0  0  0
  -50.7456   -5.4002   20.7074 O   0  0  0  0  0  0
  -45.6509    0.2855   17.1973 C   0  0  0  0  0  0
  -46.9595    0.4007   17.9795 C   0  0  0  0  0  0
  -45.6116   -0.9928   16.3604 C   0  0  0  0  0  0
  -48.1675    0.1483   17.0768 C   0  0  0  0  0  0
  -46.9002   -1.1567   15.5629 C   0  0  0  0  0  0
  -46.9842   -2.5190   14.9554 C   0  0  0  0  0  0
  -49.7659   -1.0717   18.3420 C   0  0  0  0  0  0
  -50.7195   -1.7727   17.6037 C   0  0  0  0  0  0
  -49.2585   -1.6131   19.5241 C   0  0  0  0  0  0
  -51.1650   -3.0180   18.0503 C   0  0  0  0  0  0
  -50.6569   -3.5558   19.2314 C   0  0  0  0  0  0
  -49.7018   -2.8571   19.9733 C   0  0  0  0  0  0
  -51.1454   -4.8690   19.6798 C   0  0  0  0  0  0
  -52.5594   -4.9010   17.6985 C   0  0  0  0  0  0
  -52.1521   -5.5202   18.8174 C   0  0  0  0  0  0
  -53.5701   -5.4997   16.8028 C   0  0  0  0  0  0
  -53.5974   -6.8822   16.6006 C   0  0  0  0  0  0
  -54.5037   -4.6874   16.1555 C   0  0  0  0  0  0
  -54.5528   -7.4472   15.7555 C   0  0  0  0  0  0
  -55.4592   -5.2525   15.3104 C   0  0  0  0  0  0
  -55.4837   -6.6331   15.1108 C   0  0  0  0  0  0
  -43.7346    0.2247   17.5855 H   0  0  0  0  0  0
  -47.0141    2.3457   17.7837 H   0  0  0  0  0  0
  -44.5197   -1.7306   14.9104 H   0  0  0  0  0  0
  -45.8382   -3.7545   13.9787 H   0  0  0  0  0  0
  -48.1080   -1.4330   21.0388 H   0  0  0  0  0  0
  -49.3729   -4.2992   21.2181 H   0  0  0  0  0  0
  1 15  1  0  0  0
  1 16  1  0  0  0
  2 15  1  0  0  0
  2 18  1  0  0  0
  3 12  1  0  0  0
  3 33  1  0  0  0
  4 13  1  0  0  0
  4 34  1  0  0  0
  5 14  1  0  0  0
  5 35  1  0  0  0
  6 17  1  0  0  0
  6 36  1  0  0  0
  7 17  2  0  0  0
  8 21  1  0  0  0
  8 25  1  0  0  0
  9 20  1  0  0  0
  9 37  1  0  0  0
 10 23  1  0  0  0
 10 38  1  0  0  0
 11 24  2  0  0  0
 12 13  1  0  0  0
 13 15  1  0  0  0
 14 12  1  0  0  0
 16 14  1  0  0  0
 16 17  1  0  0  0
 18 19  2  0  0  0
 18 20  1  0  0  0
 19 21  1  0  0  0
 20 23  2  0  0  0
 21 22  2  0  0  0
 22 23  1  0  0  0
 22 24  1  0  0  0
 24 26  1  0  0  0
 25 26  2  0  0  0
 25 27  1  0  0  0
 27 28  2  0  0  0
 27 29  1  0  0  0
 28 30  1  0  0  0
 29 31  2  0  0  0
 30 32  2  0  0  0
 31 32  1  0  0  0
M  END
>  <CHROM.0>
171.53653845,178.59489494,-60.22297497

>  <CHROM.1>
25.98887533,-92.79521319,-177.08533621,56.76772713,-178.53072010,0.25935102
178.42050964,-164.63781346,-164.26808276,144.73091826,-49.56464999,-2.66999990
17.47347914,-0.16458609,-0.60432652,-1.82647869

>  <Name>
Baicalin.pdb

>  <RI>
-8.34653e+08

>  <Rbt.Current_Directory>
/root/miniconda3/envs/rdock/share/rxdock-2013.1.1_148c5bd1-0/data/ligands/prepped_ligands/Baicalin

>  <Rbt.Executable>
rbdock/0.1.0

>  <Rbt.Library>
librxdock.so/0.1.0

>  <Rbt.Parameter_File>
/root/miniconda3/envs/rdock/share/rxdock-2013.1.1_148c5bd1-0/data/scripts/dock.prm

>  <Rbt.Receptor>
def.prm

>  <SCORE>
-16.6722

>  <SCORE.INTER>
-16.6002

>  <SCORE.INTER.CONST>
1

>  <SCORE.INTER.POLAR>
-1.20944

>  <SCORE.INTER.REPUL>
0.0684702

>  <SCORE.INTER.ROT>
4

>  <SCORE.INTER.VDW>
-22.2305

>  <SCORE.INTER.norm>
-0.518756

>  <SCORE.INTRA>
0.84403

>  <SCORE.INTRA.DIHEDRAL>
6.41991

>  <SCORE.INTRA.DIHEDRAL.0>
5.84004

>  <SCORE.INTRA.POLAR>
-0.753144

>  <SCORE.INTRA.POLAR.0>
-0.136432

>  <SCORE.INTRA.REPUL>
0

>  <SCORE.INTRA.REPUL.0>
0

>  <SCORE.INTRA.VDW>
0.194764

>  <SCORE.INTRA.VDW.0>
-0.289917

>  <SCORE.INTRA.norm>
0.0263759

>  <SCORE.RESTR>
0.0322289

>  <SCORE.RESTR.CAVITY>
0.0322289

>  <SCORE.RESTR.norm>
0.00100715

>  <SCORE.SYSTEM>
-0.948248

>  <SCORE.SYSTEM.CONST>
0

>  <SCORE.SYSTEM.DIHEDRAL>
0.190155

>  <SCORE.SYSTEM.POLAR>
-0.000201469

>  <SCORE.SYSTEM.VDW>
-1.04264

>  <SCORE.SYSTEM.norm>
-0.0296328

>  <SCORE.heavy>
32

>  <SCORE.norm>
-0.521006

$$$$
Baicalin.pdb
  RxDock  02242101523D
librxdock.so/0.1.0
 38 41  0  0  0  0  0  0  0  0999 V2000
  -49.8535   -4.1523   18.0436 O   0  0  0  0  0  0
  -49.9817   -2.3596   16.5551 O   0  0  0  0  0  0
  -53.8217   -3.7834   19.0408 O   0  0  0  0  0  0
  -52.3918   -1.5374   17.7816 O   0  0  0  0  0  0
  -52.0151   -5.2511   20.7816 O   0  0  0  0  0  0
  -50.2428   -6.9271   18.6399 O   0  0  0  0  0  0
  -48.4617   -6.2515   19.8916 O   0  0  0  0  0  0
  -45.8837   -0.4644   18.0068 O   0  0  0  0  0  0
  -48.7225   -3.5163   14.3811 O   0  0  0  0  0  0
  -46.0446   -3.1662   13.9926 O   0  0  0  0  0  0
  -43.8410   -2.0765   14.8716 O   0  0  0  0  0  0
  -52.4233   -3.5174   19.1616 C   0  0  0  0  0  0
  -51.9122   -2.8795   17.8696 C   0  0  0  0  0  0
  -51.7132   -4.8397   19.4501 C   0  0  0  0  0  0
  -50.3840   -2.8454   17.8364 C   0  0  0  0  0  0
  -50.2029   -4.6824   19.3174 C   0  0  0  0  0  0
  -49.5227   -6.0125   19.3340 C   0  0  0  0  0  0
  -48.6431   -2.1840   16.3612 C   0  0  0  0  0  0
  -47.9157   -1.4155   17.2701 C   0  0  0  0  0  0
  -48.0032   -2.7659   15.2658 C   0  0  0  0  0  0
  -46.5450   -1.2301   17.0812 C   0  0  0  0  0  0
  -45.9088   -1.8118   15.9863 C   0  0  0  0  0  0
  -46.6337   -2.5822   15.0741 C   0  0  0  0  0  0
  -44.4639   -1.5984   15.8105 C   0  0  0  0  0  0
  -44.5200   -0.2689   17.8488 C   0  0  0  0  0  0
  -43.7970   -0.7705   16.8355 C   0  0  0  0  0  0
  -43.9090    0.5733   18.8974 C   0  0  0  0  0  0
  -44.5085    0.6715   20.1560 C   0  0  0  0  0  0
  -42.7292    1.2736   18.6368 C   0  0  0  0  0  0
  -43.9305    1.4661   21.1465 C   0  0  0  0  0  0
  -42.1512    2.0681   19.6272 C   0  0  0  0  0  0
  -42.7522    2.1638   20.8827 C   0  0  0  0  0  0
  -54.2685   -2.9384   18.8674 H   0  0  0  0  0  0
  -53.3625   -1.5720   17.7635 H   0  0  0  0  0  0
  -51.7209   -4.5498   21.3878 H   0  0  0  0  0  0
  -49.8262   -7.8150   18.6612 H   0  0  0  0  0  0
  -49.5767   -3.7397   14.7903 H   0  0  0  0  0  0
  -46.6036   -3.8729   13.6351 H   0  0  0  0  0  0
  1 15  1  0  0  0
  1 16  1  0  0  0
  2 15  1  0  0  0
  2 18  1  0  0  0
  3 12  1  0  0  0
  3 33  1  0  0  0
  4 13  1  0  0  0
  4 34  1  0  0  0
  5 14  1  0  0  0
  5 35  1  0  0  0
  6 17  1  0  0  0
  6 36  1  0  0  0
  7 17  2  0  0  0
  8 21  1  0  0  0
  8 25  1  0  0  0
  9 20  1  0  0  0
  9 37  1  0  0  0
 10 23  1  0  0  0
 10 38  1  0  0  0
 11 24  2  0  0  0
 12 13  1  0  0  0
 13 15  1  0  0  0
 14 12  1  0  0  0
 16 14  1  0  0  0
 16 17  1  0  0  0
 18 19  2  0  0  0
 18 20  1  0  0  0
 19 21  1  0  0  0
 20 23  2  0  0  0
 21 22  2  0  0  0
 22 23  1  0  0  0
 22 24  1  0  0  0
 24 26  1  0  0  0
 25 26  2  0  0  0
 25 27  1  0  0  0
 27 28  2  0  0  0
 27 29  1  0  0  0
 28 30  1  0  0  0
 29 31  2  0  0  0
 30 32  2  0  0  0
 31 32  1  0  0  0
M  END
>  <CHROM.0>
-169.71304981,-179.22842968,68.76418874

>  <CHROM.1>
-63.34194022,-52.93928985,-59.11016208,-61.14549641,-58.66689169,1.85167179
-15.49001209,-18.03002068,-80.02089236,24.61803174,-47.80406083,-2.33989342
17.85518549,-2.99534548,0.54348219,1.21141312

>  <Name>
Baicalin.pdb

>  <RI>
-8.34653e+08

>  <Rbt.Current_Directory>
/root/miniconda3/envs/rdock/share/rxdock-2013.1.1_148c5bd1-0/data/ligands/prepped_ligands/Baicalin

>  <Rbt.Executable>
rbdock/0.1.0

>  <Rbt.Library>
librxdock.so/0.1.0

>  <Rbt.Parameter_File>
/root/miniconda3/envs/rdock/share/rxdock-2013.1.1_148c5bd1-0/data/scripts/dock.prm

>  <Rbt.Receptor>
def.prm

>  <SCORE>
-12.8489

>  <SCORE.INTER>
-12.3105

>  <SCORE.INTER.CONST>
1

>  <SCORE.INTER.POLAR>
-2.16392

>  <SCORE.INTER.REPUL>
0.0683374

>  <SCORE.INTER.ROT>
4

>  <SCORE.INTER.VDW>
-14.6948

>  <SCORE.INTER.norm>
-0.384703

>  <SCORE.INTRA>
0.23394

>  <SCORE.INTRA.DIHEDRAL>
0.174727

>  <SCORE.INTRA.DIHEDRAL.0>
5.84004

>  <SCORE.INTRA.POLAR>
-0.0477954

>  <SCORE.INTRA.POLAR.0>
-0.136432

>  <SCORE.INTRA.REPUL>
0

>  <SCORE.INTRA.REPUL.0>
0

>  <SCORE.INTRA.VDW>
0.30908

>  <SCORE.INTRA.VDW.0>
-0.289917

>  <SCORE.INTRA.norm>
0.00731062

>  <SCORE.RESTR>
0

>  <SCORE.RESTR.CAVITY>
0

>  <SCORE.RESTR.norm>
0

>  <SCORE.SYSTEM>
-0.772359

>  <SCORE.SYSTEM.CONST>
0

>  <SCORE.SYSTEM.DIHEDRAL>
0.430046

>  <SCORE.SYSTEM.POLAR>
-0.0156674

>  <SCORE.SYSTEM.VDW>
-0.934113

>  <SCORE.SYSTEM.norm>
-0.0241362

>  <SCORE.heavy>
32

>  <SCORE.norm>
-0.401528

$$$$
Baicalin.pdb
  RxDock  02242101523D
librxdock.so/0.1.0
 38 41  0  0  0  0  0  0  0  0999 V2000
  -45.9256   -0.7876   16.8882 O   0  0  0  0  0  0
  -47.8939    0.2696   16.2144 O   0  0  0  0  0  0
  -46.9963   -0.5546   20.8475 O   0  0  0  0  0  0
  -48.2790    1.1963   18.8567 O   0  0  0  0  0  0
  -44.2207   -1.0121   20.1161 O   0  0  0  0  0  0
  -44.6349   -3.1423   17.4798 O   0  0  0  0  0  0
  -42.9001   -1.8382   16.7831 O   0  0  0  0  0  0
  -49.7051   -3.9294   17.4720 O   0  0  0  0  0  0
  -48.0698   -0.4110   13.5393 O   0  0  0  0  0  0
  -49.0596   -2.8432   12.7983 O   0  0  0  0  0  0
  -50.0445   -5.1269   13.5924 O   0  0  0  0  0  0
  -46.3940   -0.0935   19.6369 C   0  0  0  0  0  0
  -47.4677    0.0595   18.5594 C   0  0  0  0  0  0
  -45.3279   -1.1074   19.2226 C   0  0  0  0  0  0
  -46.8415    0.2652   17.1798 C   0  0  0  0  0  0
  -44.8387   -0.8290   17.8061 C   0  0  0  0  0  0
  -44.0024   -1.9576   17.2972 C   0  0  0  0  0  0
  -48.3885   -0.9465   15.8445 C   0  0  0  0  0  0
  -48.8047   -1.8433   16.8286 C   0  0  0  0  0  0
  -48.4794   -1.2944   14.4960 C   0  0  0  0  0  0
  -49.3130   -3.0903   16.4608 C   0  0  0  0  0  0
  -49.4021   -3.4352   15.1134 C   0  0  0  0  0  0
  -48.9866   -2.5398   14.1251 C   0  0  0  0  0  0
  -49.9398   -4.7565   14.7542 C   0  0  0  0  0  0
  -50.2208   -5.1720   17.1362 C   0  0  0  0  0  0
  -50.3518   -5.6211   15.8784 C   0  0  0  0  0  0
  -50.6072   -5.9958   18.3000 C   0  0  0  0  0  0
  -50.3080   -5.5643   19.5951 C   0  0  0  0  0  0
  -51.2744   -7.2080   18.1116 C   0  0  0  0  0  0
  -50.6741   -6.3420   20.6940 C   0  0  0  0  0  0
  -51.6405   -7.9857   19.2105 C   0  0  0  0  0  0
  -51.3404   -7.5520   20.5021 C   0  0  0  0  0  0
  -47.4715   -1.3774   20.6456 H   0  0  0  0  0  0
  -48.6657    1.0602   19.7375 H   0  0  0  0  0  0
  -43.5609   -1.6755   19.8503 H   0  0  0  0  0  0
  -44.1430   -3.8873   17.0732 H   0  0  0  0  0  0
  -47.1582   -0.6357   13.2832 H   0  0  0  0  0  0
  -48.9523   -2.0469   12.2561 H   0  0  0  0  0  0
  1 15  1  0  0  0
  1 16  1  0  0  0
  2 15  1  0  0  0
  2 18  1  0  0  0
  3 12  1  0  0  0
  3 33  1  0  0  0
  4 13  1  0  0  0
  4 34  1  0  0  0
  5 14  1  0  0  0
  5 35  1  0  0  0
  6 17  1  0  0  0
  6 36  1  0  0  0
  7 17  2  0  0  0
  8 21  1  0  0  0
  8 25  1  0  0  0
  9 20  1  0  0  0
  9 37  1  0  0  0
 10 23  1  0  0  0
 10 38  1  0  0  0
 11 24  2  0  0  0
 12 13  1  0  0  0
 13 15  1  0  0  0
 14 12  1  0  0  0
 16 14  1  0  0  0
 16 17  1  0  0  0
 18 19  2  0  0  0
 18 20  1  0  0  0
 19 21  1  0  0  0
 20 23  2  0  0  0
 21 22  2  0  0  0
 22 23  1  0  0  0
 22 24  1  0  0  0
 24 26  1  0  0  0
 25 26  2  0  0  0
 25 27  1  0  0  0
 27 28  2  0  0  0
 27 29  1  0  0  0
 28 30  1  0  0  0
 29 31  2  0  0  0
 30 32  2  0  0  0
 31 32  1  0  0  0
M  END
>  <CHROM.0>
66.29828204,67.40814634,64.61854010

>  <CHROM.1>
41.33013162,52.13064545,55.67505643,-58.16706147,178.82003489,-5.48986828
96.54955183,-14.66467074,-69.07108128,-6.91369052,-48.08137815,-2.73445522
17.22129043,0.23307466,-0.80787218,-1.23699760

>  <Name>
Baicalin.pdb

>  <RI>
-8.34653e+08

>  <Rbt.Current_Directory>
/root/miniconda3/envs/rdock/share/rxdock-2013.1.1_148c5bd1-0/data/ligands/prepped_ligands/Baicalin

>  <Rbt.Executable>
rbdock/0.1.0

>  <Rbt.Library>
librxdock.so/0.1.0

>  <Rbt.Parameter_File>
/root/miniconda3/envs/rdock/share/rxdock-2013.1.1_148c5bd1-0/data/scripts/dock.prm

>  <Rbt.Receptor>
def.prm

>  <SCORE>
-14.5323

>  <SCORE.INTER>
-17.3457

>  <SCORE.INTER.CONST>
1

>  <SCORE.INTER.POLAR>
-2.6158

>  <SCORE.INTER.REPUL>
0

>  <SCORE.INTER.ROT>
4

>  <SCORE.INTER.VDW>
-17.852

>  <SCORE.INTER.norm>
-0.542054

>  <SCORE.INTRA>
3.6587

>  <SCORE.INTRA.DIHEDRAL>
5.11206

>  <SCORE.INTRA.DIHEDRAL.0>
5.84004

>  <SCORE.INTRA.POLAR>
0.13206

>  <SCORE.INTRA.POLAR.0>
-0.136432

>  <SCORE.INTRA.REPUL>
0

>  <SCORE.INTRA.REPUL.0>
0

>  <SCORE.INTRA.VDW>
0.653667

>  <SCORE.INTRA.VDW.0>
-0.289917

>  <SCORE.INTRA.norm>
0.114334

>  <SCORE.RESTR>
0.00346453

>  <SCORE.RESTR.CAVITY>
0.00346453

>  <SCORE.RESTR.norm>
0.000108266

>  <SCORE.SYSTEM>
-0.848704

>  <SCORE.SYSTEM.CONST>
0

>  <SCORE.SYSTEM.DIHEDRAL>
0.408708

>  <SCORE.SYSTEM.POLAR>
-0.0103847

>  <SCORE.SYSTEM.VDW>
-1.01775

>  <SCORE.SYSTEM.norm>
-0.026522

>  <SCORE.heavy>
32

>  <SCORE.norm>
-0.454134

$$$$
Baicalin.pdb
  RxDock  02242101523D
librxdock.so/0.1.0
 38 41  0  0  0  0  0  0  0  0999 V2000
  -53.6255   -5.3182   16.2652 O   0  0  0  0  0  0
  -52.1212   -3.6232   16.8217 O   0  0  0  0  0  0
  -51.7098   -8.0066   18.7104 O   0  0  0  0  0  0
  -50.3247   -5.5678   17.8116 O   0  0  0  0  0  0
  -53.4923   -8.9559   16.6200 O   0  0  0  0  0  0
  -55.7098   -5.7509   14.8939 O   0  0  0  0  0  0
  -56.0253   -7.6437   16.1241 O   0  0  0  0  0  0
  -47.6071   -2.1683   16.8217 O   0  0  0  0  0  0
  -52.5589   -2.3942   14.3829 O   0  0  0  0  0  0
  -50.5406   -1.0450   13.1376 O   0  0  0  0  0  0
  -48.0436   -0.2887   13.2331 O   0  0  0  0  0  0
  -51.9578   -7.3148   17.4854 C   0  0  0  0  0  0
  -51.7252   -5.8176   17.6893 C   0  0  0  0  0  0
  -53.3977   -7.6034   17.0619 C   0  0  0  0  0  0
  -52.2545   -5.0092   16.5043 C   0  0  0  0  0  0
  -53.8199   -6.6854   15.9207 C   0  0  0  0  0  0
  -55.2918   -6.7729   15.6800 C   0  0  0  0  0  0
  -51.1120   -2.9486   16.1998 C   0  0  0  0  0  0
  -49.8572   -2.8848   16.8058 C   0  0  0  0  0  0
  -51.3279   -2.3270   14.9690 C   0  0  0  0  0  0
  -48.8173   -2.1974   16.1775 C   0  0  0  0  0  0
  -49.0360   -1.5772   14.9488 C   0  0  0  0  0  0
  -50.2909   -1.6391   14.3386 C   0  0  0  0  0  0
  -47.9230   -0.8581   14.3099 C   0  0  0  0  0  0
  -46.5536   -1.4988   16.2177 C   0  0  0  0  0  0
  -46.6399   -0.8592   15.0410 C   0  0  0  0  0  0
  -45.2994   -1.5258   16.9978 C   0  0  0  0  0  0
  -44.0874   -1.8201   16.3673 C   0  0  0  0  0  0
  -45.3187   -1.2558   18.3678 C   0  0  0  0  0  0
  -42.9030   -1.8444   17.1041 C   0  0  0  0  0  0
  -44.1342   -1.2800   19.1046 C   0  0  0  0  0  0
  -42.9260   -1.5741   18.4720 C   0  0  0  0  0  0
  -52.3315   -7.6640   19.3735 H   0  0  0  0  0  0
  -49.9016   -5.8503   16.9839 H   0  0  0  0  0  0
  -52.9430   -9.0518   15.8232 H   0  0  0  0  0  0
  -54.9992   -5.0925   14.7396 H   0  0  0  0  0  0
  -52.5196   -1.9267   13.5302 H   0  0  0  0  0  0
  -49.7709   -0.5380   12.8371 H   0  0  0  0  0  0
  1 15  1  0  0  0
  1 16  1  0  0  0
  2 15  1  0  0  0
  2 18  1  0  0  0
  3 12  1  0  0  0
  3 33  1  0  0  0
  4 13  1  0  0  0
  4 34  1  0  0  0
  5 14  1  0  0  0
  5 35  1  0  0  0
  6 17  1  0  0  0
  6 36  1  0  0  0
  7 17  2  0  0  0
  8 21  1  0  0  0
  8 25  1  0  0  0
  9 20  1  0  0  0
  9 37  1  0  0  0
 10 23  1  0  0  0
 10 38  1  0  0  0
 11 24  2  0  0  0
 12 13  1  0  0  0
 13 15  1  0  0  0
 14 12  1  0  0  0
 16 14  1  0  0  0
 16 17  1  0  0  0
 18 19  2  0  0  0
 18 20  1  0  0  0
 19 21  1  0  0  0
 20 23  2  0  0  0
 21 22  2  0  0  0
 22 23  1  0  0  0
 22 24  1  0  0  0
 24 26  1  0  0  0
 25 26  2  0  0  0
 25 27  1  0  0  0
 27 28  2  0  0  0
 27 29  1  0  0  0
 28 30  1  0  0  0
 29 31  2  0  0  0
 30 32  2  0  0  0
 31 32  1  0  0  0
M  END
>  <CHROM.0>
67.51298745,-61.68404259,-57.23449440

>  <CHROM.1>
-134.61512156,-90.40554697,60.65096288,61.21091594,-64.40993791,172.34082759
-178.75374790,175.19224323,46.82704982,134.08092036,-50.07921625,-3.74372335
16.24580695,2.73257920,0.40652790,2.45019872

>  <Name>
Baicalin.pdb

>  <RI>
-8.34653e+08

>  <Rbt.Current_Directory>
/root/miniconda3/envs/rdock/share/rxdock-2013.1.1_148c5bd1-0/data/ligands/prepped_ligands/Baicalin

>  <Rbt.Executable>
rbdock/0.1.0

>  <Rbt.Library>
librxdock.so/0.1.0

>  <Rbt.Parameter_File>
/root/miniconda3/envs/rdock/share/rxdock-2013.1.1_148c5bd1-0/data/scripts/dock.prm

>  <Rbt.Receptor>
def.prm

>  <SCORE>
-14.8733

>  <SCORE.INTER>
-18.2626

>  <SCORE.INTER.CONST>
1

>  <SCORE.INTER.POLAR>
-1.7885

>  <SCORE.INTER.REPUL>
0.321717

>  <SCORE.INTER.ROT>
4

>  <SCORE.INTER.VDW>
-23.1903

>  <SCORE.INTER.norm>
-0.570705

>  <SCORE.INTRA>
4.32247

>  <SCORE.INTRA.DIHEDRAL>
9.2544

>  <SCORE.INTRA.DIHEDRAL.0>
5.84004

>  <SCORE.INTRA.POLAR>
-0.21864

>  <SCORE.INTRA.POLAR.0>
-0.136432

>  <SCORE.INTRA.REPUL>
0

>  <SCORE.INTRA.REPUL.0>
0

>  <SCORE.INTRA.VDW>
0.438646

>  <SCORE.INTRA.VDW.0>
-0.289917

>  <SCORE.INTRA.norm>
0.135077

>  <SCORE.RESTR>
0.0179154

>  <SCORE.RESTR.CAVITY>
0.0179154

>  <SCORE.RESTR.norm>
0.000559855

>  <SCORE.SYSTEM>
-0.951071

>  <SCORE.SYSTEM.CONST>
0

>  <SCORE.SYSTEM.DIHEDRAL>
0.162844

>  <SCORE.SYSTEM.POLAR>
-0.0072467

>  <SCORE.SYSTEM.VDW>
-1.00785

>  <SCORE.SYSTEM.norm>
-0.029721

>  <SCORE.heavy>
32

>  <SCORE.norm>
-0.464789

$$$$
Baicalin.pdb
  RxDock  02242101523D
librxdock.so/0.1.0
 38 41  0  0  0  0  0  0  0  0999 V2000
  -46.3734   -0.7713   17.1964 O   0  0  0  0  0  0
  -48.4655    0.2408   16.9852 O   0  0  0  0  0  0
  -45.2334    1.8841   20.1164 O   0  0  0  0  0  0
  -47.4724    2.5287   18.3149 O   0  0  0  0  0  0
  -43.2248    0.3481   18.6830 O   0  0  0  0  0  0
  -45.4102   -2.8725   17.7284 O   0  0  0  0  0  0
  -43.3212   -2.3339   16.9924 O   0  0  0  0  0  0
  -50.0558   -4.1897   17.5643 O   0  0  0  0  0  0
  -48.3262   -0.1247   14.2471 O   0  0  0  0  0  0
  -49.0455   -2.5111   13.1370 O   0  0  0  0  0  0
  -49.9209   -4.9339   13.5608 O   0  0  0  0  0  0
  -45.3812    1.4150   18.7752 C   0  0  0  0  0  0
  -46.8664    1.2435   18.4558 C   0  0  0  0  0  0
  -44.6271    0.0914   18.6508 C   0  0  0  0  0  0
  -47.0661    0.4737   17.1499 C   0  0  0  0  0  0
  -44.9671   -0.6031   17.3373 C   0  0  0  0  0  0
  -44.4506   -2.0050   17.3238 C   0  0  0  0  0  0
  -48.8248   -0.9524   16.4308 C   0  0  0  0  0  0
  -49.2633   -1.9863   17.2583 C   0  0  0  0  0  0
  -48.7565   -1.1416   15.0497 C   0  0  0  0  0  0
  -49.6341   -3.2113   16.7010 C   0  0  0  0  0  0
  -49.5643   -3.3975   15.3216 C   0  0  0  0  0  0
  -49.1260   -2.3646   14.4897 C   0  0  0  0  0  0
  -49.9592   -4.6991   14.7614 C   0  0  0  0  0  0
  -50.4373   -5.4147   17.0384 C   0  0  0  0  0  0
  -50.4096   -5.7176   15.7313 C   0  0  0  0  0  0
  -50.8694   -6.3957   18.0549 C   0  0  0  0  0  0
  -50.6584   -7.7613   17.8459 C   0  0  0  0  0  0
  -51.4889   -5.9633   19.2294 C   0  0  0  0  0  0
  -51.0657   -8.6875   18.8066 C   0  0  0  0  0  0
  -51.8961   -6.8894   20.1900 C   0  0  0  0  0  0
  -51.6839   -8.2520   19.9783 C   0  0  0  0  0  0
  -45.7118    2.7265   20.1885 H   0  0  0  0  0  0
  -48.4196    2.3913   18.1480 H   0  0  0  0  0  0
  -43.0227    0.8147   19.5121 H   0  0  0  0  0  0
  -46.2880   -2.4407   17.8012 H   0  0  0  0  0  0
  -47.3777    0.0173   14.4123 H   0  0  0  0  0  0
  -48.9492   -1.6502   12.7021 H   0  0  0  0  0  0
  1 15  1  0  0  0
  1 16  1  0  0  0
  2 15  1  0  0  0
  2 18  1  0  0  0
  3 12  1  0  0  0
  3 33  1  0  0  0
  4 13  1  0  0  0
  4 34  1  0  0  0
  5 14  1  0  0  0
  5 35  1  0  0  0
  6 17  1  0  0  0
  6 36  1  0  0  0
  7 17  2  0  0  0
  8 21  1  0  0  0
  8 25  1  0  0  0
  9 20  1  0  0  0
  9 37  1  0  0  0
 10 23  1  0  0  0
 10 38  1  0  0  0
 11 24  2  0  0  0
 12 13  1  0  0  0
 13 15  1  0  0  0
 14 12  1  0  0  0
 16 14  1  0  0  0
 16 17  1  0  0  0
 18 19  2  0  0  0
 18 20  1  0  0  0
 19 21  1  0  0  0
 20 23  2  0  0  0
 21 22  2  0  0  0
 22 23  1  0  0  0
 22 24  1  0  0  0
 24 26  1  0  0  0
 25 26  2  0  0  0
 25 27  1  0  0  0
 27 28  2  0  0  0
 27 29  1  0  0  0
 28 30  1  0  0  0
 29 31  2  0  0  0
 30 32  2  0  0  0
 31 32  1  0  0  0
M  END
>  <CHROM.0>
67.25628993,61.36718188,59.39938900

>  <CHROM.1>
-23.16310958,100.42508368,-58.69076515,-177.78643713,57.41979900,-170.06789657
68.87206049,-14.69651663,-24.77670356,-148.59353083,-48.11403019,-2.49182190
17.15180512,-0.38908739,0.85000120,2.12571447

>  <Name>
Baicalin.pdb

>  <RI>
-8.34653e+08

>  <Rbt.Current_Directory>
/root/miniconda3/envs/rdock/share/rxdock-2013.1.1_148c5bd1-0/data/ligands/prepped_ligands/Baicalin

>  <Rbt.Executable>
rbdock/0.1.0

>  <Rbt.Library>
librxdock.so/0.1.0

>  <Rbt.Parameter_File>
/root/miniconda3/envs/rdock/share/rxdock-2013.1.1_148c5bd1-0/data/scripts/dock.prm

>  <Rbt.Receptor>
def.prm

>  <SCORE>
-10.0584

>  <SCORE.INTER>
-14.8796

>  <SCORE.INTER.CONST>
1

>  <SCORE.INTER.POLAR>
-1.70603

>  <SCORE.INTER.REPUL>
0.0270594

>  <SCORE.INTER.ROT>
4

>  <SCORE.INTER.VDW>
-18.6144

>  <SCORE.INTER.norm>
-0.464986

>  <SCORE.INTRA>
5.71831

>  <SCORE.INTRA.DIHEDRAL>
11.9744

>  <SCORE.INTRA.DIHEDRAL.0>
5.84004

>  <SCORE.INTRA.POLAR>
-0.239671

>  <SCORE.INTRA.POLAR.0>
-0.136432

>  <SCORE.INTRA.REPUL>
0

>  <SCORE.INTRA.REPUL.0>
0

>  <SCORE.INTRA.VDW>
0.545973

>  <SCORE.INTRA.VDW.0>
-0.289917

>  <SCORE.INTRA.norm>
0.178697

>  <SCORE.RESTR>
0

>  <SCORE.RESTR.CAVITY>
0

>  <SCORE.RESTR.norm>
0

>  <SCORE.SYSTEM>
-0.897109

>  <SCORE.SYSTEM.CONST>
0

>  <SCORE.SYSTEM.DIHEDRAL>
0.133922

>  <SCORE.SYSTEM.VDW>
-0.964069

>  <SCORE.SYSTEM.norm>
-0.0280346

>  <SCORE.heavy>
32

>  <SCORE.norm>
-0.314324

$$$$
Baicalin.pdb
  RxDock  02242101523D
librxdock.so/0.1.0
 38 41  0  0  0  0  0  0  0  0999 V2000
  -49.5245   -5.6557   17.2586 O   0  0  0  0  0  0
  -50.3528   -3.6268   16.4567 O   0  0  0  0  0  0
  -53.1771   -7.4806   16.8062 O   0  0  0  0  0  0
  -52.9874   -4.5434   16.9123 O   0  0  0  0  0  0
  -51.1660   -8.6622   18.5403 O   0  0  0  0  0  0
  -48.3566   -8.0799   16.6903 O   0  0  0  0  0  0
  -47.6224   -7.7105   18.8163 O   0  0  0  0  0  0
  -46.4998   -1.8347   18.5631 O   0  0  0  0  0  0
  -48.9886   -3.8486   14.0609 O   0  0  0  0  0  0
  -46.3788   -3.0725   13.8841 O   0  0  0  0  0  0
  -44.3145   -2.0750   15.1327 O   0  0  0  0  0  0
  -52.1750   -6.7381   17.5029 C   0  0  0  0  0  0
  -51.8873   -5.4391   16.7499 C   0  0  0  0  0  0
  -50.9252   -7.6117   17.6067 C   0  0  0  0  0  0
  -50.6294   -4.7555   17.2868 C   0  0  0  0  0  0
  -49.7324   -6.7938   18.0877 C   0  0  0  0  0  0
  -48.4606   -7.5636   17.9392 C   0  0  0  0  0  0
  -49.0483   -3.2384   16.3688 C   0  0  0  0  0  0
  -48.4091   -2.7285   17.4989 C   0  0  0  0  0  0
  -48.3557   -3.3486   15.1621 C   0  0  0  0  0  0
  -47.0740   -2.3287   17.4199 C   0  0  0  0  0  0
  -46.3850   -2.4393   16.2136 C   0  0  0  0  0  0
  -47.0215   -2.9497   15.0798 C   0  0  0  0  0  0
  -44.9795   -2.0088   16.1581 C   0  0  0  0  0  0
  -45.1724   -1.4364   18.5162 C   0  0  0  0  0  0
  -44.4061   -1.4884   17.4157 C   0  0  0  0  0  0
  -44.6561   -0.9171   19.7992 C   0  0  0  0  0  0
  -45.5004   -0.2122   20.6613 C   0  0  0  0  0  0
  -43.3230   -1.1295   20.1571 C   0  0  0  0  0  0
  -45.0126    0.2771   21.8734 C   0  0  0  0  0  0
  -42.8353   -0.6402   21.3692 C   0  0  0  0  0  0
  -43.6809    0.0630   22.2276 C   0  0  0  0  0  0
  -53.2973   -8.3239   17.2733 H   0  0  0  0  0  0
  -53.0996   -4.3841   17.8641 H   0  0  0  0  0  0
  -51.3800   -8.2591   19.3991 H   0  0  0  0  0  0
  -47.5692   -8.6574   16.5965 H   0  0  0  0  0  0
  -48.3262   -4.2841   13.4965 H   0  0  0  0  0  0
  -45.4522   -2.7984   13.9609 H   0  0  0  0  0  0
  1 15  1  0  0  0
  1 16  1  0  0  0
  2 15  1  0  0  0
  2 18  1  0  0  0
  3 12  1  0  0  0
  3 33  1  0  0  0
  4 13  1  0  0  0
  4 34  1  0  0  0
  5 14  1  0  0  0
  5 35  1  0  0  0
  6 17  1  0  0  0
  6 36  1  0  0  0
  7 17  2  0  0  0
  8 21  1  0  0  0
  8 25  1  0  0  0
  9 20  1  0  0  0
  9 37  1  0  0  0
 10 23  1  0  0  0
 10 38  1  0  0  0
 11 24  2  0  0  0
 12 13  1  0  0  0
 13 15  1  0  0  0
 14 12  1  0  0  0
 16 14  1  0  0  0
 16 17  1  0  0  0
 18 19  2  0  0  0
 18 20  1  0  0  0
 19 21  1  0  0  0
 20 23  2  0  0  0
 21 22  2  0  0  0
 22 23  1  0  0  0
 22 24  1  0  0  0
 24 26  1  0  0  0
 25 26  2  0  0  0
 25 27  1  0  0  0
 27 28  2  0  0  0
 27 29  1  0  0  0
 28 30  1  0  0  0
 29 31  2  0  0  0
 30 32  2  0  0  0
 31 32  1  0  0  0
M  END
>  <CHROM.0>
-70.61360126,-63.81752336,62.15098229

>  <CHROM.1>
-31.98518996,-66.34796224,176.35271193,58.80359472,-59.31241331,5.38627934
-150.61434884,-177.69925539,-69.12149702,-33.61429197,-47.92248794,-3.90202067
17.55678833,3.00514367,-0.74589066,-1.39320943

>  <Name>
Baicalin.pdb

>  <RI>
-8.34653e+08

>  <Rbt.Current_Directory>
/root/miniconda3/envs/rdock/share/rxdock-2013.1.1_148c5bd1-0/data/ligands/prepped_ligands/Baicalin

>  <Rbt.Executable>
rbdock/0.1.0

>  <Rbt.Library>
librxdock.so/0.1.0

>  <Rbt.Parameter_File>
/root/miniconda3/envs/rdock/share/rxdock-2013.1.1_148c5bd1-0/data/scripts/dock.prm

>  <Rbt.Receptor>
def.prm

>  <SCORE>
-13.7797

>  <SCORE.INTER>
-15.9896

>  <SCORE.INTER.CONST>
1

>  <SCORE.INTER.POLAR>
-1.94941

>  <SCORE.INTER.REPUL>
0

>  <SCORE.INTER.ROT>
4

>  <SCORE.INTER.VDW>
-18.7616

>  <SCORE.INTER.norm>
-0.499674

>  <SCORE.INTRA>
3.06361

>  <SCORE.INTRA.DIHEDRAL>
5.2772

>  <SCORE.INTRA.DIHEDRAL.0>
5.84004

>  <SCORE.INTRA.POLAR>
0.0989

>  <SCORE.INTRA.POLAR.0>
-0.136432

>  <SCORE.INTRA.REPUL>
0

>  <SCORE.INTRA.REPUL.0>
0

>  <SCORE.INTRA.VDW>
0.0887475

>  <SCORE.INTRA.VDW.0>
-0.289917

>  <SCORE.INTRA.norm>
0.0957377

>  <SCORE.RESTR>
0.000663432

>  <SCORE.RESTR.CAVITY>
0.000663432

>  <SCORE.RESTR.norm>
2.07322e-05

>  <SCORE.SYSTEM>
-0.854365

>  <SCORE.SYSTEM.CONST>
0

>  <SCORE.SYSTEM.DIHEDRAL>
0.359835

>  <SCORE.SYSTEM.POLAR>
-0.00587135

>  <SCORE.SYSTEM.VDW>
-1.01432

>  <SCORE.SYSTEM.norm>
-0.0266989

>  <SCORE.heavy>
32

>  <SCORE.norm>
-0.430615

$$$$
Baicalin.pdb
  RxDock  02242101523D
librxdock.so/0.1.0
 38 41  0  0  0  0  0  0  0  0999 V2000
  -49.5376   -5.9354   16.6811 O   0  0  0  0  0  0
  -50.3081   -4.2790   15.2290 O   0  0  0  0  0  0
  -53.2923   -7.5655   17.0301 O   0  0  0  0  0  0
  -52.9564   -4.8029   16.0659 O   0  0  0  0  0  0
  -51.2529   -8.1742   19.0096 O   0  0  0  0  0  0
  -48.6052   -8.3565   19.0465 O   0  0  0  0  0  0
  -47.5922   -7.5079   17.1893 O   0  0  0  0  0  0
  -46.7799   -2.3174   17.7184 O   0  0  0  0  0  0
  -49.8615   -2.5244   13.1380 O   0  0  0  0  0  0
  -47.8811   -0.6551   13.3066 O   0  0  0  0  0  0
  -45.9616    0.3587   14.7570 O   0  0  0  0  0  0
  -52.2208   -6.6883   17.3812 C   0  0  0  0  0  0
  -51.9105   -5.7654   16.2025 C   0  0  0  0  0  0
  -51.0107   -7.5445   17.7534 C   0  0  0  0  0  0
  -50.5951   -5.0164   16.4179 C   0  0  0  0  0  0
  -49.7566   -6.6862   17.8702 C   0  0  0  0  0  0
  -48.5327   -7.5373   17.9692 C   0  0  0  0  0  0
  -49.3182   -3.3446   15.3139 C   0  0  0  0  0  0
  -48.5334   -3.2827   16.4654 C   0  0  0  0  0  0
  -49.0889   -2.4572   14.2613 C   0  0  0  0  0  0
  -47.5172   -2.3305   16.5623 C   0  0  0  0  0  0
  -47.2909   -1.4453   15.5099 C   0  0  0  0  0  0
  -48.0744   -1.5043   14.3551 C   0  0  0  0  0  0
  -46.2147   -0.4507   15.6395 C   0  0  0  0  0  0
  -45.7589   -1.3869   17.8398 C   0  0  0  0  0  0
  -45.4473   -0.4800   16.9009 C   0  0  0  0  0  0
  -45.0326   -1.4572   19.1242 C   0  0  0  0  0  0
  -43.7200   -1.9356   19.1625 C   0  0  0  0  0  0
  -45.6531   -1.0446   20.3053 C   0  0  0  0  0  0
  -43.0340   -2.0008   20.3756 C   0  0  0  0  0  0
  -44.9671   -1.1098   21.5183 C   0  0  0  0  0  0
  -43.6568   -1.5878   21.5530 C   0  0  0  0  0  0
  -54.0780   -7.0191   16.8631 H   0  0  0  0  0  0
  -52.7320   -4.2284   15.3153 H   0  0  0  0  0  0
  -51.9964   -8.7914   18.8991 H   0  0  0  0  0  0
  -49.4696   -8.2843   19.5048 H   0  0  0  0  0  0
  -49.5466   -1.8535   12.5074 H   0  0  0  0  0  0
  -46.9897   -0.7576   12.9397 H   0  0  0  0  0  0
  1 15  1  0  0  0
  1 16  1  0  0  0
  2 15  1  0  0  0
  2 18  1  0  0  0
  3 12  1  0  0  0
  3 33  1  0  0  0
  4 13  1  0  0  0
  4 34  1  0  0  0
  5 14  1  0  0  0
  5 35  1  0  0  0
  6 17  1  0  0  0
  6 36  1  0  0  0
  7 17  2  0  0  0
  8 21  1  0  0  0
  8 25  1  0  0  0
  9 20  1  0  0  0
  9 37  1  0  0  0
 10 23  1  0  0  0
 10 38  1  0  0  0
 11 24  2  0  0  0
 12 13  1  0  0  0
 13 15  1  0  0  0
 14 12  1  0  0  0
 16 14  1  0  0  0
 16 17  1  0  0  0
 18 19  2  0  0  0
 18 20  1  0  0  0
 19 21  1  0  0  0
 20 23  2  0  0  0
 21 22  2  0  0  0
 22 23  1  0  0  0
 22 24  1  0  0  0
 24 26  1  0  0  0
 25 26  2  0  0  0
 25 27  1  0  0  0
 27 28  2  0  0  0
 27 29  1  0  0  0
 28 30  1  0  0  0
 29 31  2  0  0  0
 30 32  2  0  0  0
 31 32  1  0  0  0
M  END
>  <CHROM.0>
-169.87634978,63.70710740,-64.93237845

>  <CHROM.1>
-72.05829769,8.55452405,-62.90687233,179.69541885,65.04571729,-175.22517715
-178.48535222,-119.25341531,-178.09199472,109.23148361,-48.31309811,-3.77309786
17.05528459,-2.76234533,-0.67923036,-0.81266482

>  <Name>
Baicalin.pdb

>  <RI>
-8.34653e+08

>  <Rbt.Current_Directory>
/root/miniconda3/envs/rdock/share/rxdock-2013.1.1_148c5bd1-0/data/ligands/prepped_ligands/Baicalin

>  <Rbt.Executable>
rbdock/0.1.0

>  <Rbt.Library>
librxdock.so/0.1.0

>  <Rbt.Parameter_File>
/root/miniconda3/envs/rdock/share/rxdock-2013.1.1_148c5bd1-0/data/scripts/dock.prm

>  <Rbt.Receptor>
def.prm

>  <SCORE>
-17.6165

>  <SCORE.INTER>
-18.3779

>  <SCORE.INTER.CONST>
1

>  <SCORE.INTER.POLAR>
-2.20824

>  <SCORE.INTER.REPUL>
0.025748

>  <SCORE.INTER.ROT>
4

>  <SCORE.INTER.VDW>
-20.3987

>  <SCORE.INTER.norm>
-0.57431

>  <SCORE.INTRA>
1.60704

>  <SCORE.INTRA.DIHEDRAL>
4.04952

>  <SCORE.INTRA.DIHEDRAL.0>
5.84004

>  <SCORE.INTRA.POLAR>
-0.725026

>  <SCORE.INTRA.POLAR.0>
-0.136432

>  <SCORE.INTRA.REPUL>
0

>  <SCORE.INTRA.REPUL.0>
0

>  <SCORE.INTRA.VDW>
2.04737

>  <SCORE.INTRA.VDW.0>
-0.289917

>  <SCORE.INTRA.norm>
0.0502199

>  <SCORE.RESTR>
0

>  <SCORE.RESTR.CAVITY>
0

>  <SCORE.RESTR.norm>
0

>  <SCORE.SYSTEM>
-0.845635

>  <SCORE.SYSTEM.CONST>
0

>  <SCORE.SYSTEM.DIHEDRAL>
0.371339

>  <SCORE.SYSTEM.VDW>
-1.0313

>  <SCORE.SYSTEM.norm>
-0.0264261

>  <SCORE.heavy>
32

>  <SCORE.norm>
-0.550516

$$$$
Baicalin.pdb
  RxDock  02242101533D
librxdock.so/0.1.0
 38 41  0  0  0  0  0  0  0  0999 V2000
  -46.8317    0.0870   18.0833 O   0  0  0  0  0  0
  -46.1377   -0.7297   16.0104 O   0  0  0  0  0  0
  -43.1351    1.7157   18.8309 O   0  0  0  0  0  0
  -43.4447   -0.3957   16.8011 O   0  0  0  0  0  0
  -44.9931    1.2605   21.0191 O   0  0  0  0  0  0
  -47.6517    1.1382   21.3315 O   0  0  0  0  0  0
  -48.7660    1.1757   19.3434 O   0  0  0  0  0  0
  -48.3375   -4.7710   17.1604 O   0  0  0  0  0  0
  -47.9078   -0.3127   13.9264 O   0  0  0  0  0  0
  -49.9041   -2.1063   13.4341 O   0  0  0  0  0  0
  -51.0428   -4.3459   14.1435 O   0  0  0  0  0  0
  -44.1275    0.6883   18.8466 C   0  0  0  0  0  0
  -44.5127    0.3296   17.4112 C   0  0  0  0  0  0
  -45.3308    1.2046   19.6349 C   0  0  0  0  0  0
  -45.7667   -0.5446   17.3770 C   0  0  0  0  0  0
  -46.5289    0.2785   19.4608 C   0  0  0  0  0  0
  -47.7727    0.9049   20.0019 C   0  0  0  0  0  0
  -47.1353   -1.6268   15.7645 C   0  0  0  0  0  0
  -47.2539   -2.7563   16.5744 C   0  0  0  0  0  0
  -48.0310   -1.4206   14.7143 C   0  0  0  0  0  0
  -48.2717   -3.6803   16.3318 C   0  0  0  0  0  0
  -49.1644   -3.4721   15.2820 C   0  0  0  0  0  0
  -49.0490   -2.3422   14.4690 C   0  0  0  0  0  0
  -50.2262   -4.4629   15.0476 C   0  0  0  0  0  0
  -49.3428   -5.7021   16.9476 C   0  0  0  0  0  0
  -50.2572   -5.6167   15.9690 C   0  0  0  0  0  0
  -49.3191   -6.8373   17.8925 C   0  0  0  0  0  0
  -48.4029   -6.8527   18.9476 C   0  0  0  0  0  0
  -50.2128   -7.8991   17.7370 C   0  0  0  0  0  0
  -48.3815   -7.9245   19.8405 C   0  0  0  0  0  0
  -50.1915   -8.9709   18.6298 C   0  0  0  0  0  0
  -49.2756   -8.9831   19.6822 C   0  0  0  0  0  0
  -43.5248    2.4955   18.4021 H   0  0  0  0  0  0
  -43.7297   -0.6421   15.9055 H   0  0  0  0  0  0
  -45.8054    1.4473   21.5203 H   0  0  0  0  0  0
  -48.4637    1.5389   21.7090 H   0  0  0  0  0  0
  -47.1504   -0.4426   13.3292 H   0  0  0  0  0  0
  -50.7217   -2.6164   13.5393 H   0  0  0  0  0  0
  1 15  1  0  0  0
  1 16  1  0  0  0
  2 15  1  0  0  0
  2 18  1  0  0  0
  3 12  1  0  0  0
  3 33  1  0  0  0
  4 13  1  0  0  0
  4 34  1  0  0  0
  5 14  1  0  0  0
  5 35  1  0  0  0
  6 17  1  0  0  0
  6 36  1  0  0  0
  7 17  2  0  0  0
  8 21  1  0  0  0
  8 25  1  0  0  0
  9 20  1  0  0  0
  9 37  1  0  0  0
 10 23  1  0  0  0
 10 38  1  0  0  0
 11 24  2  0  0  0
 12 13  1  0  0  0
 13 15  1  0  0  0
 14 12  1  0  0  0
 16 14  1  0  0  0
 16 17  1  0  0  0
 18 19  2  0  0  0
 18 20  1  0  0  0
 19 21  1  0  0  0
 20 23  2  0  0  0
 21 22  2  0  0  0
 22 23  1  0  0  0
 22 24  1  0  0  0
 24 26  1  0  0  0
 25 26  2  0  0  0
 25 27  1  0  0  0
 27 28  2  0  0  0
 27 29  1  0  0  0
 28 30  1  0  0  0
 29 31  2  0  0  0
 30 32  2  0  0  0
 31 32  1  0  0  0
M  END
>  <CHROM.0>
-177.92475047,-57.88390925,-174.15957659

>  <CHROM.1>
-67.88712566,-33.75662108,61.53065802,177.69918219,-170.78497191,0.91497539
74.91973300,-160.51852244,179.14623107,4.70025559,-47.62950208,-2.39987409
17.40965653,-0.37448249,1.02216266,2.21895134

>  <Name>
Baicalin.pdb

>  <RI>
-8.34653e+08

>  <Rbt.Current_Directory>
/root/miniconda3/envs/rdock/share/rxdock-2013.1.1_148c5bd1-0/data/ligands/prepped_ligands/Baicalin

>  <Rbt.Executable>
rbdock/0.1.0

>  <Rbt.Library>
librxdock.so/0.1.0

>  <Rbt.Parameter_File>
/root/miniconda3/envs/rdock/share/rxdock-2013.1.1_148c5bd1-0/data/scripts/dock.prm

>  <Rbt.Receptor>
def.prm

>  <SCORE>
-6.97769

>  <SCORE.INTER>
-6.19356

>  <SCORE.INTER.CONST>
1

>  <SCORE.INTER.POLAR>
-0.938083

>  <SCORE.INTER.REPUL>
0.672797

>  <SCORE.INTER.ROT>
4

>  <SCORE.INTER.VDW>
-15.7681

>  <SCORE.INTER.norm>
-0.193549

>  <SCORE.INTRA>
0.206047

>  <SCORE.INTRA.DIHEDRAL>
2.24305

>  <SCORE.INTRA.DIHEDRAL.0>
5.84004

>  <SCORE.INTRA.POLAR>
-0.636988

>  <SCORE.INTRA.POLAR.0>
-0.136432

>  <SCORE.INTRA.REPUL>
0

>  <SCORE.INTRA.REPUL.0>
0

>  <SCORE.INTRA.VDW>
1.25028

>  <SCORE.INTRA.VDW.0>
-0.289917

>  <SCORE.INTRA.norm>
0.00643897

>  <SCORE.RESTR>
0.00115763

>  <SCORE.RESTR.CAVITY>
0.00115763

>  <SCORE.RESTR.norm>
3.6176e-05

>  <SCORE.SYSTEM>
-0.991341

>  <SCORE.SYSTEM.CONST>
0

>  <SCORE.SYSTEM.DIHEDRAL>
0.110176

>  <SCORE.SYSTEM.POLAR>
-0.0134718

>  <SCORE.SYSTEM.VDW>
-1.00063

>  <SCORE.SYSTEM.norm>
-0.0309794

>  <SCORE.heavy>
32

>  <SCORE.norm>
-0.218053

$$$$
Baicalin.pdb
  RxDock  02242101533D
librxdock.so/0.1.0
 38 41  0  0  0  0  0  0  0  0999 V2000
  -46.5546   -0.6809   16.9104 O   0  0  0  0  0  0
  -48.4085    0.7363   16.9276 O   0  0  0  0  0  0
  -46.6619   -1.0926   20.9964 O   0  0  0  0  0  0
  -48.0298    1.1678   19.6951 O   0  0  0  0  0  0
  -44.2412   -1.7565   19.5310 O   0  0  0  0  0  0
  -43.4880   -2.3274   16.7924 O   0  0  0  0  0  0
  -45.5191   -2.8106   15.8777 O   0  0  0  0  0  0
  -50.4797   -3.3893   18.0152 O   0  0  0  0  0  0
  -49.5009    0.6606   14.3877 O   0  0  0  0  0  0
  -51.0876   -1.4264   13.6315 O   0  0  0  0  0  0
  -52.1807   -3.6934   14.3254 O   0  0  0  0  0  0
  -46.2727   -0.4855   19.7633 C   0  0  0  0  0  0
  -47.5155    0.0154   19.0271 C   0  0  0  0  0  0
  -45.5184   -1.5286   18.9394 C   0  0  0  0  0  0
  -47.1853    0.4045   17.5857 C   0  0  0  0  0  0
  -45.3152   -1.0437   17.5087 C   0  0  0  0  0  0
  -44.8223   -2.1498   16.6336 C   0  0  0  0  0  0
  -49.2013   -0.3073   16.5500 C   0  0  0  0  0  0
  -49.4558   -1.3358   17.4573 C   0  0  0  0  0  0
  -49.7550   -0.3499   15.2695 C   0  0  0  0  0  0
  -50.2664   -2.4083   17.0812 C   0  0  0  0  0  0
  -50.8174   -2.4484   15.8018 C   0  0  0  0  0  0
  -50.5652   -1.4203   14.8905 C   0  0  0  0  0  0
  -51.6663   -3.5913   15.4313 C   0  0  0  0  0  0
  -51.2867   -4.4634   17.6720 C   0  0  0  0  0  0
  -51.8688   -4.6186   16.4727 C   0  0  0  0  0  0
  -51.4461   -5.4625   18.7485 C   0  0  0  0  0  0
  -51.7217   -6.7957   18.4330 C   0  0  0  0  0  0
  -51.3204   -5.0798   20.0857 C   0  0  0  0  0  0
  -51.8710   -7.7391   19.4499 C   0  0  0  0  0  0
  -51.4697   -6.0232   21.1026 C   0  0  0  0  0  0
  -51.7447   -7.3534   20.7842 C   0  0  0  0  0  0
  -45.8559   -1.2472   21.5162 H   0  0  0  0  0  0
  -48.3181    0.8909   20.5806 H   0  0  0  0  0  0
  -44.3800   -2.0115   20.4592 H   0  0  0  0  0  0
  -43.1586   -3.1024   16.2892 H   0  0  0  0  0  0
  -49.7224    0.3504   13.4922 H   0  0  0  0  0  0
  -51.7982   -2.0814   13.5562 H   0  0  0  0  0  0
  1 15  1  0  0  0
  1 16  1  0  0  0
  2 15  1  0  0  0
  2 18  1  0  0  0
  3 12  1  0  0  0
  3 33  1  0  0  0
  4 13  1  0  0  0
  4 34  1  0  0  0
  5 14  1  0  0  0
  5 35  1  0  0  0
  6 17  1  0  0  0
  6 36  1  0  0  0
  7 17  2  0  0  0
  8 21  1  0  0  0
  8 25  1  0  0  0
  9 20  1  0  0  0
  9 37  1  0  0  0
 10 23  1  0  0  0
 10 38  1  0  0  0
 11 24  2  0  0  0
 12 13  1  0  0  0
 13 15  1  0  0  0
 14 12  1  0  0  0
 16 14  1  0  0  0
 16 17  1  0  0  0
 18 19  2  0  0  0
 18 20  1  0  0  0
 19 21  1  0  0  0
 20 23  2  0  0  0
 21 22  2  0  0  0
 22 23  1  0  0  0
 22 24  1  0  0  0
 24 26  1  0  0  0
 25 26  2  0  0  0
 25 27  1  0  0  0
 27 28  2  0  0  0
 27 29  1  0  0  0
 28 30  1  0  0  0
 29 31  2  0  0  0
 30 32  2  0  0  0
 31 32  1  0  0  0
M  END
>  <CHROM.0>
-32.06731642,-70.59580456,62.62176342

>  <CHROM.1>
43.77886618,46.72942211,-169.42279416,-64.16285329,55.59802776,-5.11065954
162.90938560,-165.62840286,160.58891198,-153.24925773,-48.84772021,-2.36101575
17.53903893,0.45376357,-0.53708778,-0.87152094

>  <Name>
Baicalin.pdb

>  <RI>
-8.34653e+08

>  <Rbt.Current_Directory>
/root/miniconda3/envs/rdock/share/rxdock-2013.1.1_148c5bd1-0/data/ligands/prepped_ligands/Baicalin

>  <Rbt.Executable>
rbdock/0.1.0

>  <Rbt.Library>
librxdock.so/0.1.0

>  <Rbt.Parameter_File>
/root/miniconda3/envs/rdock/share/rxdock-2013.1.1_148c5bd1-0/data/scripts/dock.prm

>  <Rbt.Receptor>
def.prm

>  <SCORE>
-7.89503

>  <SCORE.INTER>
-10.02

>  <SCORE.INTER.CONST>
1

>  <SCORE.INTER.POLAR>
-1.79571

>  <SCORE.INTER.REPUL>
0.386686

>  <SCORE.INTER.ROT>
4

>  <SCORE.INTER.VDW>
-15.248

>  <SCORE.INTER.norm>
-0.313124

>  <SCORE.INTRA>
1.92829

>  <SCORE.INTRA.DIHEDRAL>
1.71732

>  <SCORE.INTRA.DIHEDRAL.0>
5.84004

>  <SCORE.INTRA.POLAR>
-0.00171271

>  <SCORE.INTRA.POLAR.0>
-0.136432

>  <SCORE.INTRA.REPUL>
0

>  <SCORE.INTRA.REPUL.0>
0

>  <SCORE.INTRA.VDW>
1.07545

>  <SCORE.INTRA.VDW.0>
-0.289917

>  <SCORE.INTRA.norm>
0.060259

>  <SCORE.RESTR>
0

>  <SCORE.RESTR.CAVITY>
0

>  <SCORE.RESTR.norm>
0

>  <SCORE.SYSTEM>
0.196641

>  <SCORE.SYSTEM.CONST>
0

>  <SCORE.SYSTEM.DIHEDRAL>
2.1464

>  <SCORE.SYSTEM.POLAR>
-0.00681395

>  <SCORE.SYSTEM.VDW>
-0.85339

>  <SCORE.SYSTEM.norm>
0.00614504

>  <SCORE.heavy>
32

>  <SCORE.norm>
-0.24672

$$$$
