Baicalin.pdb
  RxDock  02242101083D
librxdock.so/0.1.0
 38 41  0  0  0  0  0  0  0  0999 V2000
  -45.7298    0.0314   17.6682 O   0  0  0  0  0  0
  -46.2191    1.1146   19.6765 O   0  0  0  0  0  0
  -43.0316   -2.4581   19.5119 O   0  0  0  0  0  0
  -43.8499    0.0605   20.8010 O   0  0  0  0  0  0
  -42.9534   -2.1097   16.6273 O   0  0  0  0  0  0
  -45.0088   -0.4362   14.4822 O   0  0  0  0  0  0
  -46.4812   -1.7170   15.6599 O   0  0  0  0  0  0
  -49.4265   -2.3500   20.1268 O   0  0  0  0  0  0
  -48.0465    2.6837   18.3169 O   0  0  0  0  0  0
  -50.5722    1.7645   17.8471 O   0  0  0  0  0  0
  -52.2638   -0.2018   18.1430 O   0  0  0  0  0  0
  -43.4489   -1.2740   18.8302 C   0  0  0  0  0  0
  -44.4905   -0.5398   19.6749 C   0  0  0  0  0  0
  -44.0198   -1.6853   17.4734 C   0  0  0  0  0  0
  -45.1774    0.5638   18.8697 C   0  0  0  0  0  0
  -44.7339   -0.5136   16.8098 C   0  0  0  0  0  0
  -45.5166   -0.9676   15.6209 C   0  0  0  0  0  0
  -47.4814    0.6545   19.4417 C   0  0  0  0  0  0
  -47.8416   -0.6149   19.8940 C   0  0  0  0  0  0
  -48.4071    1.4427   18.7562 C   0  0  0  0  0  0
  -49.1312   -1.0952   19.6594 C   0  0  0  0  0  0
  -50.0533   -0.3061   18.9742 C   0  0  0  0  0  0
  -49.6965    0.9656   18.5200 C   0  0  0  0  0  0
  -51.4046   -0.8378   18.7391 C   0  0  0  0  0  0
  -50.7022   -2.8503   19.9147 C   0  0  0  0  0  0
  -51.6743   -2.1911   19.2653 C   0  0  0  0  0  0
  -50.9112   -4.2096   20.4543 C   0  0  0  0  0  0
  -52.2003   -4.7440   20.5291 C   0  0  0  0  0  0
  -49.8220   -4.9670   20.8903 C   0  0  0  0  0  0
  -52.3971   -6.0281   21.0378 C   0  0  0  0  0  0
  -50.0188   -6.2511   21.3990 C   0  0  0  0  0  0
  -51.3071   -6.7817   21.4722 C   0  0  0  0  0  0
  -42.6246   -2.1870   20.3513 H   0  0  0  0  0  0
  -43.1607    0.6569   20.4647 H   0  0  0  0  0  0
  -42.4744   -2.8241   17.0813 H   0  0  0  0  0  0
  -45.5571   -0.6554   13.6988 H   0  0  0  0  0  0
  -47.1427    2.6330   17.9596 H   0  0  0  0  0  0
  -51.4873    1.5463   18.0804 H   0  0  0  0  0  0
  1 15  1  0  0  0
  1 16  1  0  0  0
  2 15  1  0  0  0
  2 18  1  0  0  0
  3 12  1  0  0  0
  3 33  1  0  0  0
  4 13  1  0  0  0
  4 34  1  0  0  0
  5 14  1  0  0  0
  5 35  1  0  0  0
  6 17  1  0  0  0
  6 36  1  0  0  0
  7 17  2  0  0  0
  8 21  1  0  0  0
  8 25  1  0  0  0
  9 20  1  0  0  0
  9 37  1  0  0  0
 10 23  1  0  0  0
 10 38  1  0  0  0
 11 24  2  0  0  0
 12 13  1  0  0  0
 13 15  1  0  0  0
 14 12  1  0  0  0
 16 14  1  0  0  0
 16 17  1  0  0  0
 18 19  2  0  0  0
 18 20  1  0  0  0
 19 21  1  0  0  0
 20 23  2  0  0  0
 21 22  2  0  0  0
 22 23  1  0  0  0
 22 24  1  0  0  0
 24 26  1  0  0  0
 25 26  2  0  0  0
 25 27  1  0  0  0
 27 28  2  0  0  0
 27 29  1  0  0  0
 28 30  1  0  0  0
 29 31  2  0  0  0
 30 32  2  0  0  0
 31 32  1  0  0  0
M  END
>  <CHROM.0>
-176.33578936,178.13865408,64.05602349

>  <CHROM.1>
21.91699244,75.21572518,-61.61183420,57.69078864,56.01129374,5.37438943,40.95681795
-154.14718779,126.18879548,168.52443392,-47.78528659,-1.34699587,18.83502858
0.54660169,0.16012212,-0.39127650

>  <Name>
Baicalin.pdb

>  <RI>
-1.0144e+09

>  <Rbt.Current_Directory>
/root/miniconda3/envs/rdock/share/rxdock-2013.1.1_148c5bd1-0/data/ligands/prepped_ligands/Baicalin

>  <Rbt.Executable>
rbdock/0.1.0

>  <Rbt.Library>
librxdock.so/0.1.0

>  <Rbt.Parameter_File>
/root/miniconda3/envs/rdock/share/rxdock-2013.1.1_148c5bd1-0/data/scripts/dock.prm

>  <Rbt.Receptor>
def.prm

>  <SCORE>
-14.0067

>  <SCORE.INTER>
-17.7576

>  <SCORE.INTER.CONST>
1

>  <SCORE.INTER.POLAR>
-3.11396

>  <SCORE.INTER.REPUL>
0.0490315

>  <SCORE.INTER.ROT>
4

>  <SCORE.INTER.VDW>
-16.8152

>  <SCORE.INTER.norm>
-0.554924

>  <SCORE.INTRA>
4.75694

>  <SCORE.INTRA.DIHEDRAL>
9.64846

>  <SCORE.INTRA.DIHEDRAL.0>
5.84004

>  <SCORE.INTRA.POLAR>
0.136432

>  <SCORE.INTRA.POLAR.0>
-0.136432

>  <SCORE.INTRA.REPUL>
0

>  <SCORE.INTRA.REPUL.0>
0

>  <SCORE.INTRA.VDW>
-0.531157

>  <SCORE.INTRA.VDW.0>
-0.289917

>  <SCORE.INTRA.norm>
0.148654

>  <SCORE.RESTR>
0.00264765

>  <SCORE.RESTR.CAVITY>
0.00264765

>  <SCORE.RESTR.norm>
8.27392e-05

>  <SCORE.SYSTEM>
-1.00872

>  <SCORE.SYSTEM.CONST>
0

>  <SCORE.SYSTEM.DIHEDRAL>
0.084772

>  <SCORE.SYSTEM.POLAR>
-0.00944818

>  <SCORE.SYSTEM.VDW>
-1.01898

>  <SCORE.SYSTEM.norm>
-0.0315224

>  <SCORE.heavy>
32

>  <SCORE.norm>
-0.437709

$$$$
Baicalin.pdb
  RxDock  02242101083D
librxdock.so/0.1.0
 38 41  0  0  0  0  0  0  0  0999 V2000
  -51.2209   -2.3543   18.2131 O   0  0  0  0  0  0
  -51.4414   -1.6393   16.0027 O   0  0  0  0  0  0
  -52.6436   -6.0953   17.2870 O   0  0  0  0  0  0
  -53.1616   -3.8220   15.4876 O   0  0  0  0  0  0
  -52.6330   -5.1857   20.0476 O   0  0  0  0  0  0
  -49.5372   -3.1407   19.9599 O   0  0  0  0  0  0
  -51.0565   -2.5097   21.5376 O   0  0  0  0  0  0
  -46.9780   -1.6377   17.6064 O   0  0  0  0  0  0
  -50.5975   -2.5682   13.5379 O   0  0  0  0  0  0
  -47.9504   -3.0422   13.0763 O   0  0  0  0  0  0
  -45.5289   -3.0016   14.0510 O   0  0  0  0  0  0
  -52.7521   -4.7281   17.6869 C   0  0  0  0  0  0
  -52.2286   -3.8268   16.5684 C   0  0  0  0  0  0
  -51.9474   -4.5459   18.9734 C   0  0  0  0  0  0
  -52.0512   -2.3881   17.0548 C   0  0  0  0  0  0
  -51.7883   -3.0671   19.3066 C   0  0  0  0  0  0
  -50.7899   -2.8692   20.4004 C   0  0  0  0  0  0
  -50.1180   -1.8758   15.7724 C   0  0  0  0  0  0
  -49.1946   -1.6447   16.7920 C   0  0  0  0  0  0
  -49.6874   -2.3447   14.5304 C   0  0  0  0  0  0
  -47.8379   -1.8841   16.5670 C   0  0  0  0  0  0
  -47.4107   -2.3518   15.3257 C   0  0  0  0  0  0
  -48.3323   -2.5847   14.3022 C   0  0  0  0  0  0
  -45.9750   -2.5937   15.1153 C   0  0  0  0  0  0
  -45.6252   -1.8733   17.4140 C   0  0  0  0  0  0
  -45.0911   -2.3174   16.2657 C   0  0  0  0  0  0
  -44.7897   -1.5713   18.5943 C   0  0  0  0  0  0
  -45.3522   -0.9462   19.7105 C   0  0  0  0  0  0
  -43.4350   -1.9105   18.6009 C   0  0  0  0  0  0
  -44.5630   -0.6621   20.8254 C   0  0  0  0  0  0
  -42.6459   -1.6264   19.7158 C   0  0  0  0  0  0
  -43.2106   -1.0024   20.8285 C   0  0  0  0  0  0
  -53.1140   -6.1938   16.4428 H   0  0  0  0  0  0
  -53.2195   -4.7289   15.1442 H   0  0  0  0  0  0
  -52.0610   -5.1512   20.8334 H   0  0  0  0  0  0
  -49.5183   -3.3208   18.9958 H   0  0  0  0  0  0
  -50.1187   -2.8516   12.7394 H   0  0  0  0  0  0
  -47.0528   -2.7457   12.8619 H   0  0  0  0  0  0
  1 15  1  0  0  0
  1 16  1  0  0  0
  2 15  1  0  0  0
  2 18  1  0  0  0
  3 12  1  0  0  0
  3 33  1  0  0  0
  4 13  1  0  0  0
  4 34  1  0  0  0
  5 14  1  0  0  0
  5 35  1  0  0  0
  6 17  1  0  0  0
  6 36  1  0  0  0
  7 17  2  0  0  0
  8 21  1  0  0  0
  8 25  1  0  0  0
  9 20  1  0  0  0
  9 37  1  0  0  0
 10 23  1  0  0  0
 10 38  1  0  0  0
 11 24  2  0  0  0
 12 13  1  0  0  0
 13 15  1  0  0  0
 14 12  1  0  0  0
 16 14  1  0  0  0
 16 17  1  0  0  0
 18 19  2  0  0  0
 18 20  1  0  0  0
 19 21  1  0  0  0
 20 23  2  0  0  0
 21 22  2  0  0  0
 22 23  1  0  0  0
 22 24  1  0  0  0
 24 26  1  0  0  0
 25 26  2  0  0  0
 25 27  1  0  0  0
 27 28  2  0  0  0
 27 29  1  0  0  0
 28 30  1  0  0  0
 29 31  2  0  0  0
 30 32  2  0  0  0
 31 32  1  0  0  0
M  END
>  <CHROM.0>
68.56729887,175.14482477,-176.80392763

>  <CHROM.1>
46.91720218,-60.10290225,-55.30526732,-62.65664490,173.48054449,-173.92089252
177.52318134,150.29494472,-48.86337252,-7.59953641,-48.83635324,-2.68369565
17.38245734,3.02017739,-0.28197518,-1.58566197

>  <Name>
Baicalin.pdb

>  <RI>
-1.0144e+09

>  <Rbt.Current_Directory>
/root/miniconda3/envs/rdock/share/rxdock-2013.1.1_148c5bd1-0/data/ligands/prepped_ligands/Baicalin

>  <Rbt.Executable>
rbdock/0.1.0

>  <Rbt.Library>
librxdock.so/0.1.0

>  <Rbt.Parameter_File>
/root/miniconda3/envs/rdock/share/rxdock-2013.1.1_148c5bd1-0/data/scripts/dock.prm

>  <Rbt.Receptor>
def.prm

>  <SCORE>
-11.6049

>  <SCORE.INTER>
-12.5803

>  <SCORE.INTER.CONST>
1

>  <SCORE.INTER.POLAR>
-0.8867

>  <SCORE.INTER.REPUL>
0.000362101

>  <SCORE.INTER.ROT>
4

>  <SCORE.INTER.VDW>
-18.9673

>  <SCORE.INTER.norm>
-0.393133

>  <SCORE.INTRA>
1.87069

>  <SCORE.INTRA.DIHEDRAL>
1.38428

>  <SCORE.INTRA.DIHEDRAL.0>
5.84004

>  <SCORE.INTRA.POLAR>
-0.163526

>  <SCORE.INTRA.POLAR.0>
-0.136432

>  <SCORE.INTRA.REPUL>
0

>  <SCORE.INTRA.REPUL.0>
0

>  <SCORE.INTRA.VDW>
1.73454

>  <SCORE.INTRA.VDW.0>
-0.289917

>  <SCORE.INTRA.norm>
0.0584591

>  <SCORE.RESTR>
0

>  <SCORE.RESTR.CAVITY>
0

>  <SCORE.RESTR.norm>
0

>  <SCORE.SYSTEM>
-0.895374

>  <SCORE.SYSTEM.CONST>
0

>  <SCORE.SYSTEM.DIHEDRAL>
0.310408

>  <SCORE.SYSTEM.POLAR>
-0.0090494

>  <SCORE.SYSTEM.VDW>
-1.01981

>  <SCORE.SYSTEM.norm>
-0.0279805

>  <SCORE.heavy>
32

>  <SCORE.norm>
-0.362654

$$$$
Baicalin.pdb
  RxDock  02242101083D
librxdock.so/0.1.0
 38 41  0  0  0  0  0  0  0  0999 V2000
  -48.5887   -2.2689   16.9725 O   0  0  0  0  0  0
  -47.7063   -3.9098   15.5672 O   0  0  0  0  0  0
  -50.5215   -0.4376   13.8439 O   0  0  0  0  0  0
  -48.2795   -2.2777   13.3319 O   0  0  0  0  0  0
  -50.0597    1.0152   16.3187 O   0  0  0  0  0  0
  -49.6343    0.4213   18.9650 O   0  0  0  0  0  0
  -49.7072   -1.8412   19.2314 O   0  0  0  0  0  0
  -51.9567   -6.0088   15.7140 O   0  0  0  0  0  0
  -46.9199   -5.2528   17.8537 O   0  0  0  0  0  0
  -48.6289   -6.9812   19.0933 O   0  0  0  0  0  0
  -50.9970   -8.0803   19.0887 O   0  0  0  0  0  0
  -49.4274   -0.6799   14.7301 C   0  0  0  0  0  0
  -48.9595   -2.1275   14.5785 C   0  0  0  0  0  0
  -49.8998   -0.3923   16.1549 C   0  0  0  0  0  0
  -47.9963   -2.5177   15.6999 C   0  0  0  0  0  0
  -48.8808   -0.8904   17.1731 C   0  0  0  0  0  0
  -49.4456   -0.8569   18.5559 C   0  0  0  0  0  0
  -48.5611   -4.7734   16.1867 C   0  0  0  0  0  0
  -49.8355   -4.9726   15.6556 C   0  0  0  0  0  0
  -48.1688   -5.4536   17.3405 C   0  0  0  0  0  0
  -50.7179   -5.8548   16.2815 C   0  0  0  0  0  0
  -50.3237   -6.5322   17.4338 C   0  0  0  0  0  0
  -49.0483   -6.3357   17.9685 C   0  0  0  0  0  0
  -51.2743   -7.4545   18.0740 C   0  0  0  0  0  0
  -52.8518   -6.8842   16.3100 C   0  0  0  0  0  0
  -52.5929   -7.5886   17.4226 C   0  0  0  0  0  0
  -54.1556   -6.9708   15.6208 C   0  0  0  0  0  0
  -54.2099   -7.0117   14.2250 C   0  0  0  0  0  0
  -55.3393   -7.0139   16.3606 C   0  0  0  0  0  0
  -55.4413   -7.0946   13.5746 C   0  0  0  0  0  0
  -56.5708   -7.0967   15.7102 C   0  0  0  0  0  0
  -56.6214   -7.1376   14.3166 C   0  0  0  0  0  0
  -50.6952    0.5182   13.8445 H   0  0  0  0  0  0
  -48.8940   -2.0136   12.6273 H   0  0  0  0  0  0
  -50.1535    1.1994   17.2690 H   0  0  0  0  0  0
  -49.9585    0.4665   19.8898 H   0  0  0  0  0  0
  -46.4868   -4.5473   17.3421 H   0  0  0  0  0  0
  -47.7000   -7.2462   19.0127 H   0  0  0  0  0  0
  1 15  1  0  0  0
  1 16  1  0  0  0
  2 15  1  0  0  0
  2 18  1  0  0  0
  3 12  1  0  0  0
  3 33  1  0  0  0
  4 13  1  0  0  0
  4 34  1  0  0  0
  5 14  1  0  0  0
  5 35  1  0  0  0
  6 17  1  0  0  0
  6 36  1  0  0  0
  7 17  2  0  0  0
  8 21  1  0  0  0
  8 25  1  0  0  0
  9 20  1  0  0  0
  9 37  1  0  0  0
 10 23  1  0  0  0
 10 38  1  0  0  0
 11 24  2  0  0  0
 12 13  1  0  0  0
 13 15  1  0  0  0
 14 12  1  0  0  0
 16 14  1  0  0  0
 16 17  1  0  0  0
 18 19  2  0  0  0
 18 20  1  0  0  0
 19 21  1  0  0  0
 20 23  2  0  0  0
 21 22  2  0  0  0
 22 23  1  0  0  0
 22 24  1  0  0  0
 24 26  1  0  0  0
 25 26  2  0  0  0
 25 27  1  0  0  0
 27 28  2  0  0  0
 27 29  1  0  0  0
 28 30  1  0  0  0
 29 31  2  0  0  0
 30 32  2  0  0  0
 31 32  1  0  0  0
M  END
>  <CHROM.0>
130.07166556,-63.26501074,-51.85222437

>  <CHROM.1>
32.93306492,72.80505667,-170.19326131,-57.74210578,-166.87719829,3.28766366
5.56567326,-38.98997211,172.83222884,41.74883225,-50.60938439,-4.26874486
16.44305674,-0.72997873,0.52355289,2.73631743

>  <Name>
Baicalin.pdb

>  <RI>
-1.0144e+09

>  <Rbt.Current_Directory>
/root/miniconda3/envs/rdock/share/rxdock-2013.1.1_148c5bd1-0/data/ligands/prepped_ligands/Baicalin

>  <Rbt.Executable>
rbdock/0.1.0

>  <Rbt.Library>
librxdock.so/0.1.0

>  <Rbt.Parameter_File>
/root/miniconda3/envs/rdock/share/rxdock-2013.1.1_148c5bd1-0/data/scripts/dock.prm

>  <Rbt.Receptor>
def.prm

>  <SCORE>
-9.05136

>  <SCORE.INTER>
-11.2564

>  <SCORE.INTER.CONST>
1

>  <SCORE.INTER.POLAR>
-2.41404

>  <SCORE.INTER.REPUL>
0.394133

>  <SCORE.INTER.ROT>
4

>  <SCORE.INTER.VDW>
-14.4194

>  <SCORE.INTER.norm>
-0.351763

>  <SCORE.INTRA>
0.809937

>  <SCORE.INTRA.DIHEDRAL>
7.87901

>  <SCORE.INTRA.DIHEDRAL.0>
5.84004

>  <SCORE.INTRA.POLAR>
-0.717582

>  <SCORE.INTRA.POLAR.0>
-0.136432

>  <SCORE.INTRA.REPUL>
0

>  <SCORE.INTRA.REPUL.0>
0

>  <SCORE.INTRA.VDW>
-0.689791

>  <SCORE.INTRA.VDW.0>
-0.289917

>  <SCORE.INTRA.norm>
0.0253105

>  <SCORE.RESTR>
0

>  <SCORE.RESTR.CAVITY>
0

>  <SCORE.RESTR.norm>
0

>  <SCORE.SYSTEM>
1.39513

>  <SCORE.SYSTEM.CONST>
0

>  <SCORE.SYSTEM.DIHEDRAL>
3.56995

>  <SCORE.SYSTEM.POLAR>
-0.0158641

>  <SCORE.SYSTEM.VDW>
-0.335906

>  <SCORE.SYSTEM.norm>
0.0435979

>  <SCORE.heavy>
32

>  <SCORE.norm>
-0.282855

$$$$
Baicalin.pdb
  RxDock  02242101083D
librxdock.so/0.1.0
 38 41  0  0  0  0  0  0  0  0999 V2000
  -54.1856   -5.1385   15.9439 O   0  0  0  0  0  0
  -52.8102   -3.3837   16.6328 O   0  0  0  0  0  0
  -52.1270   -7.8389   18.2562 O   0  0  0  0  0  0
  -50.8995   -5.2603   17.5362 O   0  0  0  0  0  0
  -53.8079   -8.7739   16.0770 O   0  0  0  0  0  0
  -55.9414   -7.0619   13.9586 O   0  0  0  0  0  0
  -56.6327   -6.4752   16.0498 O   0  0  0  0  0  0
  -48.6579   -1.3743   17.7347 O   0  0  0  0  0  0
  -52.5954   -2.4904   14.0240 O   0  0  0  0  0  0
  -50.4235   -1.0372   13.2393 O   0  0  0  0  0  0
  -48.1513    0.0368   13.9461 O   0  0  0  0  0  0
  -52.4033   -7.0901   17.0714 C   0  0  0  0  0  0
  -52.2774   -5.5963   17.3715 C   0  0  0  0  0  0
  -53.8133   -7.4485   16.6030 C   0  0  0  0  0  0
  -52.8430   -4.7529   16.2283 C   0  0  0  0  0  0
  -54.2802   -6.4915   15.5123 C   0  0  0  0  0  0
  -55.7387   -6.6632   15.2380 C   0  0  0  0  0  0
  -51.7244   -2.6570   16.2412 C   0  0  0  0  0  0
  -50.7236   -2.3690   17.1692 C   0  0  0  0  0  0
  -51.6114   -2.2043   14.9258 C   0  0  0  0  0  0
  -49.6079   -1.6265   16.7786 C   0  0  0  0  0  0
  -49.4980   -1.1753   15.4646 C   0  0  0  0  0  0
  -50.4979   -1.4619   14.5323 C   0  0  0  0  0  0
  -48.3126   -0.3933   15.0806 C   0  0  0  0  0  0
  -47.5351   -0.6451   17.3736 C   0  0  0  0  0  0
  -47.3171   -0.1522   16.1445 C   0  0  0  0  0  0
  -46.5795   -0.4279   18.4790 C   0  0  0  0  0  0
  -46.9473   -0.7283   19.7933 C   0  0  0  0  0  0
  -45.3042    0.0766   18.2157 C   0  0  0  0  0  0
  -46.0441   -0.5241   20.8369 C   0  0  0  0  0  0
  -44.4010    0.2808   19.2593 C   0  0  0  0  0  0
  -44.7714   -0.0202   20.5703 C   0  0  0  0  0  0
  -52.1840   -8.7817   18.0291 H   0  0  0  0  0  0
  -50.8533   -4.4802   18.1134 H   0  0  0  0  0  0
  -54.7249   -9.0170   15.8628 H   0  0  0  0  0  0
  -56.8894   -7.2335   13.7736 H   0  0  0  0  0  0
  -52.9044   -3.3993   14.1837 H   0  0  0  0  0  0
  -49.6260   -0.5050   13.0966 H   0  0  0  0  0  0
  1 15  1  0  0  0
  1 16  1  0  0  0
  2 15  1  0  0  0
  2 18  1  0  0  0
  3 12  1  0  0  0
  3 33  1  0  0  0
  4 13  1  0  0  0
  4 34  1  0  0  0
  5 14  1  0  0  0
  5 35  1  0  0  0
  6 17  1  0  0  0
  6 36  1  0  0  0
  7 17  2  0  0  0
  8 21  1  0  0  0
  8 25  1  0  0  0
  9 20  1  0  0  0
  9 37  1  0  0  0
 10 23  1  0  0  0
 10 38  1  0  0  0
 11 24  2  0  0  0
 12 13  1  0  0  0
 13 15  1  0  0  0
 14 12  1  0  0  0
 16 14  1  0  0  0
 16 17  1  0  0  0
 18 19  2  0  0  0
 18 20  1  0  0  0
 19 21  1  0  0  0
 20 23  2  0  0  0
 21 22  2  0  0  0
 22 23  1  0  0  0
 22 24  1  0  0  0
 24 26  1  0  0  0
 25 26  2  0  0  0
 25 27  1  0  0  0
 27 28  2  0  0  0
 27 29  1  0  0  0
 28 30  1  0  0  0
 29 31  2  0  0  0
 30 32  2  0  0  0
 31 32  1  0  0  0
M  END
>  <CHROM.0>
58.73873554,179.03446991,-176.04220396

>  <CHROM.1>
-144.52215486,-103.61213347,-178.07878040,-153.49615759,174.67762402,-3.34829656
-38.97992263,177.77825216,122.90472721,-11.32320509,-50.75000814,-3.30428987
16.56745388,2.88402370,0.67419118,2.30300850

>  <Name>
Baicalin.pdb

>  <RI>
-1.0144e+09

>  <Rbt.Current_Directory>
/root/miniconda3/envs/rdock/share/rxdock-2013.1.1_148c5bd1-0/data/ligands/prepped_ligands/Baicalin

>  <Rbt.Executable>
rbdock/0.1.0

>  <Rbt.Library>
librxdock.so/0.1.0

>  <Rbt.Parameter_File>
/root/miniconda3/envs/rdock/share/rxdock-2013.1.1_148c5bd1-0/data/scripts/dock.prm

>  <Rbt.Receptor>
def.prm

>  <SCORE>
-10.1221

>  <SCORE.INTER>
-15.0041

>  <SCORE.INTER.CONST>
1

>  <SCORE.INTER.POLAR>
-1.01183

>  <SCORE.INTER.REPUL>
0.432201

>  <SCORE.INTER.ROT>
4

>  <SCORE.INTER.VDW>
-23.1249

>  <SCORE.INTER.norm>
-0.468879

>  <SCORE.INTRA>
5.94139

>  <SCORE.INTRA.DIHEDRAL>
11.0505

>  <SCORE.INTRA.DIHEDRAL.0>
5.84004

>  <SCORE.INTRA.POLAR>
0.136432

>  <SCORE.INTRA.POLAR.0>
-0.136432

>  <SCORE.INTRA.REPUL>
0

>  <SCORE.INTRA.REPUL.0>
0

>  <SCORE.INTRA.VDW>
-0.047734

>  <SCORE.INTRA.VDW.0>
-0.289917

>  <SCORE.INTRA.norm>
0.185668

>  <SCORE.RESTR>
0

>  <SCORE.RESTR.CAVITY>
0

>  <SCORE.RESTR.norm>
0

>  <SCORE.SYSTEM>
-1.05935

>  <SCORE.SYSTEM.CONST>
0

>  <SCORE.SYSTEM.DIHEDRAL>
0.0449599

>  <SCORE.SYSTEM.POLAR>
-0.0104521

>  <SCORE.SYSTEM.VDW>
-1.0463

>  <SCORE.SYSTEM.norm>
-0.0331048

>  <SCORE.heavy>
32

>  <SCORE.norm>
-0.316316

$$$$
Baicalin.pdb
  RxDock  02242101083D
librxdock.so/0.1.0
 38 41  0  0  0  0  0  0  0  0999 V2000
  -45.4590   -1.8437   18.5340 O   0  0  0  0  0  0
  -47.4392   -1.3419   19.6621 O   0  0  0  0  0  0
  -43.1729   -0.5356   21.6868 O   0  0  0  0  0  0
  -45.9861    0.3019   21.4439 O   0  0  0  0  0  0
  -41.9910   -0.8003   19.0446 O   0  0  0  0  0  0
  -43.8641   -2.2199   15.9950 O   0  0  0  0  0  0
  -43.1638   -3.5881   17.6782 O   0  0  0  0  0  0
  -48.7479   -0.0579   15.2881 O   0  0  0  0  0  0
  -49.4462   -3.2433   19.7473 O   0  0  0  0  0  0
  -51.1200   -3.5767   17.6184 O   0  0  0  0  0  0
  -51.7650   -2.7950   15.2125 O   0  0  0  0  0  0
  -43.8949   -0.3967   20.4619 C   0  0  0  0  0  0
  -45.3656   -0.7434   20.6949 C   0  0  0  0  0  0
  -43.2589   -1.3271   19.4295 C   0  0  0  0  0  0
  -46.1149   -0.8940   19.3706 C   0  0  0  0  0  0
  -44.1382   -1.4404   18.1896 C   0  0  0  0  0  0
  -43.6651   -2.5408   17.2966 C   0  0  0  0  0  0
  -48.2759   -1.5080   18.5978 C   0  0  0  0  0  0
  -48.1093   -0.7096   17.4661 C   0  0  0  0  0  0
  -49.2899   -2.4662   18.6359 C   0  0  0  0  0  0
  -48.9597   -0.8718   16.3711 C   0  0  0  0  0  0
  -49.9718   -1.8290   16.4123 C   0  0  0  0  0  0
  -50.1416   -2.6306   17.5435 C   0  0  0  0  0  0
  -50.8548   -1.9774   15.2451 C   0  0  0  0  0  0
  -49.5729   -0.2014   14.1828 C   0  0  0  0  0  0
  -50.5834   -1.0810   14.1032 C   0  0  0  0  0  0
  -49.2606    0.7261   13.0763 C   0  0  0  0  0  0
  -50.1367    1.7703   12.7679 C   0  0  0  0  0  0
  -48.0882    0.5650   12.3348 C   0  0  0  0  0  0
  -49.8408    2.6467   11.7235 C   0  0  0  0  0  0
  -47.7924    1.4414   11.2904 C   0  0  0  0  0  0
  -48.6691    2.4828   10.9851 C   0  0  0  0  0  0
  -43.4809    0.1599   22.2910 H   0  0  0  0  0  0
  -45.5404    0.3515   22.3058 H   0  0  0  0  0  0
  -41.5309   -1.4763   18.5181 H   0  0  0  0  0  0
  -43.5488   -2.9255   15.3908 H   0  0  0  0  0  0
  -48.8830   -2.8846   20.4552 H   0  0  0  0  0  0
  -51.8129   -3.4089   16.9616 H   0  0  0  0  0  0
  1 15  1  0  0  0
  1 16  1  0  0  0
  2 15  1  0  0  0
  2 18  1  0  0  0
  3 12  1  0  0  0
  3 33  1  0  0  0
  4 13  1  0  0  0
  4 34  1  0  0  0
  5 14  1  0  0  0
  5 35  1  0  0  0
  6 17  1  0  0  0
  6 36  1  0  0  0
  7 17  2  0  0  0
  8 21  1  0  0  0
  8 25  1  0  0  0
  9 20  1  0  0  0
  9 37  1  0  0  0
 10 23  1  0  0  0
 10 38  1  0  0  0
 11 24  2  0  0  0
 12 13  1  0  0  0
 13 15  1  0  0  0
 14 12  1  0  0  0
 16 14  1  0  0  0
 16 17  1  0  0  0
 18 19  2  0  0  0
 18 20  1  0  0  0
 19 21  1  0  0  0
 20 23  2  0  0  0
 21 22  2  0  0  0
 22 23  1  0  0  0
 22 24  1  0  0  0
 24 26  1  0  0  0
 25 26  2  0  0  0
 25 27  1  0  0  0
 27 28  2  0  0  0
 27 29  1  0  0  0
 28 30  1  0  0  0
 29 31  2  0  0  0
 30 32  2  0  0  0
 31 32  1  0  0  0
M  END
>  <CHROM.0>
65.48608139,58.73744968,177.30497538

>  <CHROM.1>
-61.01293162,-29.95088923,-67.85725898,-62.26081651,169.80869212,-0.60213757
10.21860048,161.07434686,95.17063827,-109.79468978,-47.32540712,-1.01950609
16.97137165,-0.84315473,-0.25020582,-1.11671217

>  <Name>
Baicalin.pdb

>  <RI>
-1.0144e+09

>  <Rbt.Current_Directory>
/root/miniconda3/envs/rdock/share/rxdock-2013.1.1_148c5bd1-0/data/ligands/prepped_ligands/Baicalin

>  <Rbt.Executable>
rbdock/0.1.0

>  <Rbt.Library>
librxdock.so/0.1.0

>  <Rbt.Parameter_File>
/root/miniconda3/envs/rdock/share/rxdock-2013.1.1_148c5bd1-0/data/scripts/dock.prm

>  <Rbt.Receptor>
def.prm

>  <SCORE>
-18.6441

>  <SCORE.INTER>
-18.6946

>  <SCORE.INTER.CONST>
1

>  <SCORE.INTER.POLAR>
-1.00286

>  <SCORE.INTER.REPUL>
0.0172761

>  <SCORE.INTER.ROT>
4

>  <SCORE.INTER.VDW>
-24.7713

>  <SCORE.INTER.norm>
-0.584207

>  <SCORE.INTRA>
0.952754

>  <SCORE.INTRA.DIHEDRAL>
2.87901

>  <SCORE.INTRA.DIHEDRAL.0>
5.84004

>  <SCORE.INTRA.POLAR>
-0.0234204

>  <SCORE.INTRA.POLAR.0>
-0.136432

>  <SCORE.INTRA.REPUL>
0

>  <SCORE.INTRA.REPUL.0>
0

>  <SCORE.INTRA.VDW>
-0.40712

>  <SCORE.INTRA.VDW.0>
-0.289917

>  <SCORE.INTRA.norm>
0.0297736

>  <SCORE.RESTR>
0.00118571

>  <SCORE.RESTR.CAVITY>
0.00118571

>  <SCORE.RESTR.norm>
3.70535e-05

>  <SCORE.SYSTEM>
-0.903389

>  <SCORE.SYSTEM.CONST>
0

>  <SCORE.SYSTEM.DIHEDRAL>
0.0978947

>  <SCORE.SYSTEM.VDW>
-0.952336

>  <SCORE.SYSTEM.norm>
-0.0282309

>  <SCORE.heavy>
32

>  <SCORE.norm>
-0.582627

$$$$
Baicalin.pdb
  RxDock  02242101083D
librxdock.so/0.1.0
 38 41  0  0  0  0  0  0  0  0999 V2000
  -49.4046   -6.1535   16.9508 O   0  0  0  0  0  0
  -50.1132   -4.7963   15.1896 O   0  0  0  0  0  0
  -53.0753   -7.9817   17.1972 O   0  0  0  0  0  0
  -52.7999   -5.3795   15.8454 O   0  0  0  0  0  0
  -51.2220   -8.1337   19.4312 O   0  0  0  0  0  0
  -47.4768   -6.5998   18.9432 O   0  0  0  0  0  0
  -48.3112   -8.6781   18.5184 O   0  0  0  0  0  0
  -46.6833   -2.4852   17.5108 O   0  0  0  0  0  0
  -49.8917   -3.0574   13.0501 O   0  0  0  0  0  0
  -48.0749   -1.0227   13.1104 O   0  0  0  0  0  0
  -46.2010    0.1836   14.4702 O   0  0  0  0  0  0
  -52.0985   -6.9856   17.5050 C   0  0  0  0  0  0
  -51.7204   -6.2313   16.2300 C   0  0  0  0  0  0
  -50.8867   -7.6851   18.1198 C   0  0  0  0  0  0
  -50.4799   -5.3644   16.4475 C   0  0  0  0  0  0
  -49.7030   -6.7298   18.2175 C   0  0  0  0  0  0
  -48.4493   -7.4646   18.5643 C   0  0  0  0  0  0
  -49.2051   -3.7791   15.2204 C   0  0  0  0  0  0
  -48.3893   -3.6246   16.3413 C   0  0  0  0  0  0
  -49.0894   -2.8993   14.1431 C   0  0  0  0  0  0
  -47.4561   -2.5872   16.3827 C   0  0  0  0  0  0
  -47.3433   -1.7099   15.3058 C   0  0  0  0  0  0
  -48.1581   -1.8615   14.1815 C   0  0  0  0  0  0
  -46.3529   -0.6244   15.3769 C   0  0  0  0  0  0
  -45.7426   -1.4686   17.5770 C   0  0  0  0  0  0
  -45.5428   -0.5597   16.6100 C   0  0  0  0  0  0
  -44.9691   -1.4477   18.8354 C   0  0  0  0  0  0
  -45.5363   -0.9208   19.9988 C   0  0  0  0  0  0
  -43.6687   -1.9558   18.8686 C   0  0  0  0  0  0
  -44.8058   -0.9023   21.1872 C   0  0  0  0  0  0
  -42.9382   -1.9372   20.0571 C   0  0  0  0  0  0
  -43.5075   -1.4106   21.2168 C   0  0  0  0  0  0
  -52.7105   -8.5452   16.4951 H   0  0  0  0  0  0
  -52.5235   -4.8940   15.0506 H   0  0  0  0  0  0
  -51.5158   -7.3635   19.9473 H   0  0  0  0  0  0
  -46.6502   -7.0645   19.1944 H   0  0  0  0  0  0
  -49.6867   -3.9157   12.6396 H   0  0  0  0  0  0
  -48.5556   -1.3850   12.3506 H   0  0  0  0  0  0
  1 15  1  0  0  0
  1 16  1  0  0  0
  2 15  1  0  0  0
  2 18  1  0  0  0
  3 12  1  0  0  0
  3 33  1  0  0  0
  4 13  1  0  0  0
  4 34  1  0  0  0
  5 14  1  0  0  0
  5 35  1  0  0  0
  6 17  1  0  0  0
  6 36  1  0  0  0
  7 17  2  0  0  0
  8 21  1  0  0  0
  8 25  1  0  0  0
  9 20  1  0  0  0
  9 37  1  0  0  0
 10 23  1  0  0  0
 10 38  1  0  0  0
 11 24  2  0  0  0
 12 13  1  0  0  0
 13 15  1  0  0  0
 14 12  1  0  0  0
 16 14  1  0  0  0
 16 17  1  0  0  0
 18 19  2  0  0  0
 18 20  1  0  0  0
 19 21  1  0  0  0
 20 23  2  0  0  0
 21 22  2  0  0  0
 22 23  1  0  0  0
 22 24  1  0  0  0
 24 26  1  0  0  0
 25 26  2  0  0  0
 25 27  1  0  0  0
 27 28  2  0  0  0
 27 29  1  0  0  0
 28 30  1  0  0  0
 29 31  2  0  0  0
 30 32  2  0  0  0
 31 32  1  0  0  0
M  END
>  <CHROM.0>
63.45483765,61.35720281,173.71060816

>  <CHROM.1>
-72.82881204,19.86545858,55.36444062,178.32479885,-56.94388409,-1.11058444
-63.31808683,-13.00389519,74.64538487,-78.09519143,-48.24065372,-3.94804165
17.03311181,-2.75051796,-0.68873947,-0.86300907

>  <Name>
Baicalin.pdb

>  <RI>
-1.0144e+09

>  <Rbt.Current_Directory>
/root/miniconda3/envs/rdock/share/rxdock-2013.1.1_148c5bd1-0/data/ligands/prepped_ligands/Baicalin

>  <Rbt.Executable>
rbdock/0.1.0

>  <Rbt.Library>
librxdock.so/0.1.0

>  <Rbt.Parameter_File>
/root/miniconda3/envs/rdock/share/rxdock-2013.1.1_148c5bd1-0/data/scripts/dock.prm

>  <Rbt.Receptor>
def.prm

>  <SCORE>
-18.1614

>  <SCORE.INTER>
-20.5216

>  <SCORE.INTER.CONST>
1

>  <SCORE.INTER.POLAR>
-2.42746

>  <SCORE.INTER.REPUL>
0.00777805

>  <SCORE.INTER.ROT>
4

>  <SCORE.INTER.VDW>
-21.7072

>  <SCORE.INTER.norm>
-0.641301

>  <SCORE.INTRA>
3.31402

>  <SCORE.INTRA.DIHEDRAL>
5.3632

>  <SCORE.INTRA.DIHEDRAL.0>
5.84004

>  <SCORE.INTRA.POLAR>
0.0653528

>  <SCORE.INTRA.POLAR.0>
-0.136432

>  <SCORE.INTRA.REPUL>
0

>  <SCORE.INTRA.REPUL.0>
0

>  <SCORE.INTRA.VDW>
0.410216

>  <SCORE.INTRA.VDW.0>
-0.289917

>  <SCORE.INTRA.norm>
0.103563

>  <SCORE.RESTR>
0

>  <SCORE.RESTR.CAVITY>
0

>  <SCORE.RESTR.norm>
0

>  <SCORE.SYSTEM>
-0.953756

>  <SCORE.SYSTEM.CONST>
0

>  <SCORE.SYSTEM.DIHEDRAL>
0.137871

>  <SCORE.SYSTEM.VDW>
-1.02269

>  <SCORE.SYSTEM.norm>
-0.0298049

>  <SCORE.heavy>
32

>  <SCORE.norm>
-0.567542

$$$$
Baicalin.pdb
  RxDock  02242101093D
librxdock.so/0.1.0
 38 41  0  0  0  0  0  0  0  0999 V2000
  -45.5849   -1.0166   18.6168 O   0  0  0  0  0  0
  -45.5626   -1.3143   16.3023 O   0  0  0  0  0  0
  -41.4855   -0.7918   18.7629 O   0  0  0  0  0  0
  -42.8244   -2.0021   16.4355 O   0  0  0  0  0  0
  -42.9976   -1.3636   21.1785 O   0  0  0  0  0  0
  -45.6964    0.7353   20.6998 O   0  0  0  0  0  0
  -46.6069   -1.1151   21.6705 O   0  0  0  0  0  0
  -48.2747   -5.1529   16.9372 O   0  0  0  0  0  0
  -47.2588   -0.3948   14.3205 O   0  0  0  0  0  0
  -49.4717   -1.8313   13.6246 O   0  0  0  0  0  0
  -50.8951   -3.9788   14.0466 O   0  0  0  0  0  0
  -42.7502   -1.4558   18.7854 C   0  0  0  0  0  0
  -43.4665   -1.2332   17.4531 C   0  0  0  0  0  0
  -43.5588   -0.8944   19.9545 C   0  0  0  0  0  0
  -44.9297   -1.6697   17.5322 C   0  0  0  0  0  0
  -45.0111   -1.3506   19.8757 C   0  0  0  0  0  0
  -45.8610   -0.6017   20.8499 C   0  0  0  0  0  0
  -46.6685   -2.0329   15.9546 C   0  0  0  0  0  0
  -46.9356   -3.2358   16.6084 C   0  0  0  0  0  0
  -47.5275   -1.5729   14.9554 C   0  0  0  0  0  0
  -48.0651   -3.9788   16.2606 C   0  0  0  0  0  0
  -48.9207   -3.5173   15.2621 C   0  0  0  0  0  0
  -48.6569   -2.3131   14.6053 C   0  0  0  0  0  0
  -50.1026   -4.3212   14.9142 C   0  0  0  0  0  0
  -49.3927   -5.9084   16.6179 C   0  0  0  0  0  0
  -50.2862   -5.5744   15.6738 C   0  0  0  0  0  0
  -49.5197   -7.1537   17.4025 C   0  0  0  0  0  0
  -48.4212   -8.0050   17.5497 C   0  0  0  0  0  0
  -50.7368   -7.4849   18.0018 C   0  0  0  0  0  0
  -48.5412   -9.1804   18.2917 C   0  0  0  0  0  0
  -50.8568   -8.6603   18.7438 C   0  0  0  0  0  0
  -49.7582   -9.5079   18.8889 C   0  0  0  0  0  0
  -40.8828   -1.3240   18.2178 H   0  0  0  0  0  0
  -43.0055   -2.9394   16.6159 H   0  0  0  0  0  0
  -43.0074   -2.3360   21.1614 H   0  0  0  0  0  0
  -46.2225    1.2452   21.3520 H   0  0  0  0  0  0
  -46.5749   -0.5571   13.6473 H   0  0  0  0  0  0
  -49.1066   -1.0195   13.2408 H   0  0  0  0  0  0
  1 15  1  0  0  0
  1 16  1  0  0  0
  2 15  1  0  0  0
  2 18  1  0  0  0
  3 12  1  0  0  0
  3 33  1  0  0  0
  4 13  1  0  0  0
  4 34  1  0  0  0
  5 14  1  0  0  0
  5 35  1  0  0  0
  6 17  1  0  0  0
  6 36  1  0  0  0
  7 17  2  0  0  0
  8 21  1  0  0  0
  8 25  1  0  0  0
  9 20  1  0  0  0
  9 37  1  0  0  0
 10 23  1  0  0  0
 10 38  1  0  0  0
 11 24  2  0  0  0
 12 13  1  0  0  0
 13 15  1  0  0  0
 14 12  1  0  0  0
 16 14  1  0  0  0
 16 17  1  0  0  0
 18 19  2  0  0  0
 18 20  1  0  0  0
 19 21  1  0  0  0
 20 23  2  0  0  0
 21 22  2  0  0  0
 22 23  1  0  0  0
 22 24  1  0  0  0
 24 26  1  0  0  0
 25 26  2  0  0  0
 25 27  1  0  0  0
 27 28  2  0  0  0
 27 29  1  0  0  0
 28 30  1  0  0  0
 29 31  2  0  0  0
 30 32  2  0  0  0
 31 32  1  0  0  0
M  END
>  <CHROM.0>
-169.04470777,63.44680775,-50.07177067

>  <CHROM.1>
-83.97116777,-14.99658461,-75.83961750,69.44703161,-57.93941115,2.15786303
79.56724507,3.75815128,-66.59957877,-47.88618909,-46.95124813,-3.21285327
17.42901228,-0.25283682,0.78361269,2.31960982

>  <Name>
Baicalin.pdb

>  <RI>
-1.0144e+09

>  <Rbt.Current_Directory>
/root/miniconda3/envs/rdock/share/rxdock-2013.1.1_148c5bd1-0/data/ligands/prepped_ligands/Baicalin

>  <Rbt.Executable>
rbdock/0.1.0

>  <Rbt.Library>
librxdock.so/0.1.0

>  <Rbt.Parameter_File>
/root/miniconda3/envs/rdock/share/rxdock-2013.1.1_148c5bd1-0/data/scripts/dock.prm

>  <Rbt.Receptor>
def.prm

>  <SCORE>
-16.824

>  <SCORE.INTER>
-20.5753

>  <SCORE.INTER.CONST>
1

>  <SCORE.INTER.POLAR>
-2.08274

>  <SCORE.INTER.REPUL>
0.00608071

>  <SCORE.INTER.ROT>
4

>  <SCORE.INTER.VDW>
-22.9244

>  <SCORE.INTER.norm>
-0.642978

>  <SCORE.INTRA>
4.36101

>  <SCORE.INTRA.DIHEDRAL>
6.82594

>  <SCORE.INTRA.DIHEDRAL.0>
5.84004

>  <SCORE.INTRA.POLAR>
0.103184

>  <SCORE.INTRA.POLAR.0>
-0.136432

>  <SCORE.INTRA.REPUL>
0

>  <SCORE.INTRA.REPUL.0>
0

>  <SCORE.INTRA.VDW>
0.597218

>  <SCORE.INTRA.VDW.0>
-0.289917

>  <SCORE.INTRA.norm>
0.136282

>  <SCORE.RESTR>
0.0755793

>  <SCORE.RESTR.CAVITY>
0.0755793

>  <SCORE.RESTR.norm>
0.00236185

>  <SCORE.SYSTEM>
-0.685294

>  <SCORE.SYSTEM.CONST>
0

>  <SCORE.SYSTEM.DIHEDRAL>
0.569128

>  <SCORE.SYSTEM.POLAR>
-0.0176307

>  <SCORE.SYSTEM.VDW>
-0.909913

>  <SCORE.SYSTEM.norm>
-0.0214154

>  <SCORE.heavy>
32

>  <SCORE.norm>
-0.52575

$$$$
Baicalin.pdb
  RxDock  02242101093D
librxdock.so/0.1.0
 38 41  0  0  0  0  0  0  0  0999 V2000
  -49.1185   -5.2189   17.8447 O   0  0  0  0  0  0
  -50.0075   -3.2901   16.8777 O   0  0  0  0  0  0
  -52.5677   -7.3317   17.1264 O   0  0  0  0  0  0
  -52.6013   -4.3866   17.1193 O   0  0  0  0  0  0
  -50.6578   -8.2916   19.0960 O   0  0  0  0  0  0
  -47.3919   -6.9030   17.4983 O   0  0  0  0  0  0
  -47.5023   -7.5875   19.6697 O   0  0  0  0  0  0
  -45.8524   -1.7028   18.5237 O   0  0  0  0  0  0
  -48.8988   -3.7212   14.3807 O   0  0  0  0  0  0
  -46.2694   -3.1538   13.9237 O   0  0  0  0  0  0
  -44.0290   -2.2607   14.9231 O   0  0  0  0  0  0
  -51.6954   -6.4897   17.8821 C   0  0  0  0  0  0
  -51.4289   -5.2015   17.1030 C   0  0  0  0  0  0
  -50.4023   -7.2614   18.1438 C   0  0  0  0  0  0
  -50.2827   -4.4048   17.7270 C   0  0  0  0  0  0
  -49.3248   -6.3378   18.6999 C   0  0  0  0  0  0
  -47.9925   -7.0138   18.7083 C   0  0  0  0  0  0
  -48.6931   -3.0060   16.6497 C   0  0  0  0  0  0
  -47.9137   -2.4960   17.6881 C   0  0  0  0  0  0
  -48.1291   -3.2220   15.3915 C   0  0  0  0  0  0
  -46.5673   -2.2024   17.4656 C   0  0  0  0  0  0
  -46.0069   -2.4186   16.2080 C   0  0  0  0  0  0
  -46.7840   -2.9294   15.1657 C   0  0  0  0  0  0
  -44.5861   -2.0986   16.0008 C   0  0  0  0  0  0
  -44.5106   -1.4087   18.3340 C   0  0  0  0  0  0
  -43.8591   -1.5676   17.1715 C   0  0  0  0  0  0
  -43.8379   -0.8733   19.5353 C   0  0  0  0  0  0
  -44.4068   -1.0572   20.7984 C   0  0  0  0  0  0
  -42.6301   -0.1827   19.4145 C   0  0  0  0  0  0
  -43.7706   -0.5523   21.9328 C   0  0  0  0  0  0
  -41.9939    0.3222   20.5489 C   0  0  0  0  0  0
  -42.5645    0.1367   21.8084 C   0  0  0  0  0  0
  -52.1453   -7.4989   16.2678 H   0  0  0  0  0  0
  -52.8034   -4.1796   18.0468 H   0  0  0  0  0  0
  -49.8246   -8.7666   19.2572 H   0  0  0  0  0  0
  -47.9742   -6.4704   16.8380 H   0  0  0  0  0  0
  -49.7711   -3.9535   14.7442 H   0  0  0  0  0  0
  -46.8589   -3.7207   13.4035 H   0  0  0  0  0  0
  1 15  1  0  0  0
  1 16  1  0  0  0
  2 15  1  0  0  0
  2 18  1  0  0  0
  3 12  1  0  0  0
  3 33  1  0  0  0
  4 13  1  0  0  0
  4 34  1  0  0  0
  5 14  1  0  0  0
  5 35  1  0  0  0
  6 17  1  0  0  0
  6 36  1  0  0  0
  7 17  2  0  0  0
  8 21  1  0  0  0
  8 25  1  0  0  0
  9 20  1  0  0  0
  9 37  1  0  0  0
 10 23  1  0  0  0
 10 38  1  0  0  0
 11 24  2  0  0  0
 12 13  1  0  0  0
 13 15  1  0  0  0
 14 12  1  0  0  0
 16 14  1  0  0  0
 16 17  1  0  0  0
 18 19  2  0  0  0
 18 20  1  0  0  0
 19 21  1  0  0  0
 20 23  2  0  0  0
 21 22  2  0  0  0
 22 23  1  0  0  0
 22 24  1  0  0  0
 24 26  1  0  0  0
 25 26  2  0  0  0
 25 27  1  0  0  0
 27 28  2  0  0  0
 27 29  1  0  0  0
 28 30  1  0  0  0
 29 31  2  0  0  0
 30 32  2  0  0  0
 31 32  1  0  0  0
M  END
>  <CHROM.0>
45.38473054,-62.01950744,60.26674297

>  <CHROM.1>
-16.89510745,-69.80507053,57.52433780,60.41142143,-179.47747275,175.42729032
-6.11569681,-15.39507263,-34.97835846,18.51742547,-47.41346448,-3.70909508
17.73075480,-3.12113744,-0.67691921,-1.24961919

>  <Name>
Baicalin.pdb

>  <RI>
-1.0144e+09

>  <Rbt.Current_Directory>
/root/miniconda3/envs/rdock/share/rxdock-2013.1.1_148c5bd1-0/data/ligands/prepped_ligands/Baicalin

>  <Rbt.Executable>
rbdock/0.1.0

>  <Rbt.Library>
librxdock.so/0.1.0

>  <Rbt.Parameter_File>
/root/miniconda3/envs/rdock/share/rxdock-2013.1.1_148c5bd1-0/data/scripts/dock.prm

>  <Rbt.Receptor>
def.prm

>  <SCORE>
-10.5164

>  <SCORE.INTER>
-14.0446

>  <SCORE.INTER.CONST>
1

>  <SCORE.INTER.POLAR>
-1.68902

>  <SCORE.INTER.REPUL>
0.0901736

>  <SCORE.INTER.ROT>
4

>  <SCORE.INTER.VDW>
-18.1528

>  <SCORE.INTER.norm>
-0.438893

>  <SCORE.INTRA>
4.25162

>  <SCORE.INTRA.DIHEDRAL>
6.68224

>  <SCORE.INTRA.DIHEDRAL.0>
5.84004

>  <SCORE.INTRA.POLAR>
-0.187743

>  <SCORE.INTRA.POLAR.0>
-0.136432

>  <SCORE.INTRA.REPUL>
0

>  <SCORE.INTRA.REPUL.0>
0

>  <SCORE.INTRA.VDW>
1.54883

>  <SCORE.INTRA.VDW.0>
-0.289917

>  <SCORE.INTRA.norm>
0.132863

>  <SCORE.RESTR>
0

>  <SCORE.RESTR.CAVITY>
0

>  <SCORE.RESTR.norm>
0

>  <SCORE.SYSTEM>
-0.723414

>  <SCORE.SYSTEM.CONST>
0

>  <SCORE.SYSTEM.DIHEDRAL>
0.531849

>  <SCORE.SYSTEM.POLAR>
-0.00169862

>  <SCORE.SYSTEM.VDW>
-0.983563

>  <SCORE.SYSTEM.norm>
-0.0226067

>  <SCORE.heavy>
32

>  <SCORE.norm>
-0.328637

$$$$
Baicalin.pdb
  RxDock  02242101093D
librxdock.so/0.1.0
 38 41  0  0  0  0  0  0  0  0999 V2000
  -47.0686    0.0137   17.5651 O   0  0  0  0  0  0
  -45.5495   -1.5334   16.7021 O   0  0  0  0  0  0
  -44.0555    2.6283   18.5456 O   0  0  0  0  0  0
  -43.4578   -0.2166   18.0729 O   0  0  0  0  0  0
  -46.6718    2.8941   19.7836 O   0  0  0  0  0  0
  -48.9289    2.6982   18.6517 O   0  0  0  0  0  0
  -49.5788    0.7795   17.6068 O   0  0  0  0  0  0
  -48.4359   -5.2162   17.4763 O   0  0  0  0  0  0
  -46.8722   -0.9411   14.3462 O   0  0  0  0  0  0
  -48.9811   -2.4671   13.5286 O   0  0  0  0  0  0
  -50.5142   -4.5168   14.0424 O   0  0  0  0  0  0
  -44.9557    1.5423   18.7715 C   0  0  0  0  0  0
  -44.6862    0.4361   17.7511 C   0  0  0  0  0  0
  -46.3823    2.0773   18.6512 C   0  0  0  0  0  0
  -45.8017   -0.6096   17.7615 C   0  0  0  0  0  0
  -47.3870    0.9319   18.6049 C   0  0  0  0  0  0
  -48.7444    1.4257   18.2231 C   0  0  0  0  0  0
  -46.6035   -2.2967   16.2936 C   0  0  0  0  0  0
  -47.0076   -3.3788   17.0757 C   0  0  0  0  0  0
  -47.2742   -2.0017   15.1058 C   0  0  0  0  0  0
  -48.0855   -4.1661   16.6671 C   0  0  0  0  0  0
  -48.7530   -3.8695   15.4802 C   0  0  0  0  0  0
  -48.3515   -2.7866   14.6945 C   0  0  0  0  0  0
  -49.8843   -4.7169   15.0725 C   0  0  0  0  0  0
  -49.5075   -6.0114   17.0993 C   0  0  0  0  0  0
  -50.2248   -5.8316   15.9793 C   0  0  0  0  0  0
  -49.7961   -7.1144   18.0386 C   0  0  0  0  0  0
  -50.8272   -6.9880   18.9734 C   0  0  0  0  0  0
  -49.0414   -8.2886   17.9958 C   0  0  0  0  0  0
  -51.1001   -8.0303   19.8597 C   0  0  0  0  0  0
  -49.3143   -9.3310   18.8820 C   0  0  0  0  0  0
  -50.3445   -9.2016   19.8140 C   0  0  0  0  0  0
  -44.3332    3.0766   17.7297 H   0  0  0  0  0  0
  -43.5616   -0.6252   18.9482 H   0  0  0  0  0  0
  -47.5993    3.1798   19.7201 H   0  0  0  0  0  0
  -49.8095    3.0471   18.3967 H   0  0  0  0  0  0
  -46.0583   -0.5753   14.7348 H   0  0  0  0  0  0
  -48.5611   -1.7010   13.1086 H   0  0  0  0  0  0
  1 15  1  0  0  0
  1 16  1  0  0  0
  2 15  1  0  0  0
  2 18  1  0  0  0
  3 12  1  0  0  0
  3 33  1  0  0  0
  4 13  1  0  0  0
  4 34  1  0  0  0
  5 14  1  0  0  0
  5 35  1  0  0  0
  6 17  1  0  0  0
  6 36  1  0  0  0
  7 17  2  0  0  0
  8 21  1  0  0  0
  8 25  1  0  0  0
  9 20  1  0  0  0
  9 37  1  0  0  0
 10 23  1  0  0  0
 10 38  1  0  0  0
 11 24  2  0  0  0
 12 13  1  0  0  0
 13 15  1  0  0  0
 14 12  1  0  0  0
 16 14  1  0  0  0
 16 17  1  0  0  0
 18 19  2  0  0  0
 18 20  1  0  0  0
 19 21  1  0  0  0
 20 23  2  0  0  0
 21 22  2  0  0  0
 22 23  1  0  0  0
 22 24  1  0  0  0
 24 26  1  0  0  0
 25 26  2  0  0  0
 25 27  1  0  0  0
 27 28  2  0  0  0
 27 29  1  0  0  0
 28 30  1  0  0  0
 29 31  2  0  0  0
 30 32  2  0  0  0
 31 32  1  0  0  0
M  END
>  <CHROM.0>
175.96146525,-179.94508828,-69.67181611

>  <CHROM.1>
-41.08239433,-76.28713796,72.00766200,62.39529563,-176.46739709,-0.86545128
5.99267306,1.04975229,-149.68755395,99.65417893,-47.86491435,-2.40605549
17.27707100,-0.35044870,1.13020807,2.01128538

>  <Name>
Baicalin.pdb

>  <RI>
-1.0144e+09

>  <Rbt.Current_Directory>
/root/miniconda3/envs/rdock/share/rxdock-2013.1.1_148c5bd1-0/data/ligands/prepped_ligands/Baicalin

>  <Rbt.Executable>
rbdock/0.1.0

>  <Rbt.Library>
librxdock.so/0.1.0

>  <Rbt.Parameter_File>
/root/miniconda3/envs/rdock/share/rxdock-2013.1.1_148c5bd1-0/data/scripts/dock.prm

>  <Rbt.Receptor>
def.prm

>  <SCORE>
-13.7881

>  <SCORE.INTER>
-14.2008

>  <SCORE.INTER.CONST>
1

>  <SCORE.INTER.POLAR>
-1.15684

>  <SCORE.INTER.REPUL>
0.0485783

>  <SCORE.INTER.ROT>
4

>  <SCORE.INTER.VDW>
-19.9105

>  <SCORE.INTER.norm>
-0.443775

>  <SCORE.INTRA>
1.31074

>  <SCORE.INTRA.DIHEDRAL>
7.43179

>  <SCORE.INTRA.DIHEDRAL.0>
5.84004

>  <SCORE.INTRA.POLAR>
-0.763193

>  <SCORE.INTRA.POLAR.0>
-0.136432

>  <SCORE.INTRA.REPUL>
0

>  <SCORE.INTRA.REPUL.0>
0

>  <SCORE.INTRA.VDW>
0.189696

>  <SCORE.INTRA.VDW.0>
-0.289917

>  <SCORE.INTRA.norm>
0.0409605

>  <SCORE.RESTR>
0

>  <SCORE.RESTR.CAVITY>
0

>  <SCORE.RESTR.norm>
0

>  <SCORE.SYSTEM>
-0.898007

>  <SCORE.SYSTEM.CONST>
0

>  <SCORE.SYSTEM.DIHEDRAL>
0.276731

>  <SCORE.SYSTEM.VDW>
-1.03637

>  <SCORE.SYSTEM.norm>
-0.0280627

>  <SCORE.heavy>
32

>  <SCORE.norm>
-0.430877

$$$$
Baicalin.pdb
  RxDock  02242101093D
librxdock.so/0.1.0
 38 41  0  0  0  0  0  0  0  0999 V2000
  -43.8056    0.4072   18.0338 O   0  0  0  0  0  0
  -44.8510   -1.2877   16.8172 O   0  0  0  0  0  0
  -46.4378   -0.0265   21.1580 O   0  0  0  0  0  0
  -47.1207   -1.0606   18.4861 O   0  0  0  0  0  0
  -44.8726    2.4093   20.9025 O   0  0  0  0  0  0
  -42.0269    2.5659   17.9752 O   0  0  0  0  0  0
  -41.9294    1.8610   20.1407 O   0  0  0  0  0  0
  -47.6754   -5.0882   17.0864 O   0  0  0  0  0  0
  -46.4743   -0.1693   14.8770 O   0  0  0  0  0  0
  -48.7058   -1.4854   14.0209 O   0  0  0  0  0  0
  -50.1938   -3.6193   14.2402 O   0  0  0  0  0  0
  -45.9733    0.5081   19.9173 C   0  0  0  0  0  0
  -45.8258   -0.6221   18.8984 C   0  0  0  0  0  0
  -44.6382    1.2067   20.1731 C   0  0  0  0  0  0
  -45.0615   -0.1540   17.6597 C   0  0  0  0  0  0
  -43.9513    1.5580   18.8586 C   0  0  0  0  0  0
  -42.5414    1.9943   19.0913 C   0  0  0  0  0  0
  -45.9662   -1.9461   16.3894 C   0  0  0  0  0  0
  -46.2799   -3.1888   16.9399 C   0  0  0  0  0  0
  -46.7885   -1.3858   15.4107 C   0  0  0  0  0  0
  -47.4193   -3.8708   16.5096 C   0  0  0  0  0  0
  -48.2383   -3.3091   15.5318 C   0  0  0  0  0  0
  -47.9277   -2.0648   14.9783 C   0  0  0  0  0  0
  -49.4317   -4.0504   15.0955 C   0  0  0  0  0  0
  -48.8044   -5.7852   16.6837 C   0  0  0  0  0  0
  -49.6658   -5.3537   15.7494 C   0  0  0  0  0  0
  -48.9824   -7.0842   17.3644 C   0  0  0  0  0  0
  -47.8670   -7.8272   17.7603 C   0  0  0  0  0  0
  -50.2653   -7.5746   17.6170 C   0  0  0  0  0  0
  -48.0354   -9.0534   18.4041 C   0  0  0  0  0  0
  -50.4338   -8.8007   18.2608 C   0  0  0  0  0  0
  -49.3181   -9.5400   18.6548 C   0  0  0  0  0  0
  -45.7696   -0.6557   21.4764 H   0  0  0  0  0  0
  -47.5884   -1.3809   19.2751 H   0  0  0  0  0  0
  -44.0113    2.8183   21.0944 H   0  0  0  0  0  0
  -41.1119    2.8898   18.1174 H   0  0  0  0  0  0
  -47.2782    0.3790   14.8665 H   0  0  0  0  0  0
  -48.2253   -0.7746   13.5697 H   0  0  0  0  0  0
  1 15  1  0  0  0
  1 16  1  0  0  0
  2 15  1  0  0  0
  2 18  1  0  0  0
  3 12  1  0  0  0
  3 33  1  0  0  0
  4 13  1  0  0  0
  4 34  1  0  0  0
  5 14  1  0  0  0
  5 35  1  0  0  0
  6 17  1  0  0  0
  6 36  1  0  0  0
  7 17  2  0  0  0
  8 21  1  0  0  0
  8 25  1  0  0  0
  9 20  1  0  0  0
  9 37  1  0  0  0
 10 23  1  0  0  0
 10 38  1  0  0  0
 11 24  2  0  0  0
 12 13  1  0  0  0
 13 15  1  0  0  0
 14 12  1  0  0  0
 16 14  1  0  0  0
 16 17  1  0  0  0
 18 19  2  0  0  0
 18 20  1  0  0  0
 19 21  1  0  0  0
 20 23  2  0  0  0
 21 22  2  0  0  0
 22 23  1  0  0  0
 22 24  1  0  0  0
 24 26  1  0  0  0
 25 26  2  0  0  0
 25 27  1  0  0  0
 27 28  2  0  0  0
 27 29  1  0  0  0
 28 30  1  0  0  0
 29 31  2  0  0  0
 30 32  2  0  0  0
 31 32  1  0  0  0
M  END
>  <CHROM.0>
179.16419209,-65.65684204,50.08978941

>  <CHROM.1>
179.15402311,-106.53025580,61.55523906,-60.35609066,177.27574778,-1.97906087
-133.18367987,16.62179025,73.65664265,-32.20412226,-46.69937179,-2.35404684
17.53038328,-0.40474723,0.95862450,2.30535005

>  <Name>
Baicalin.pdb

>  <RI>
-1.0144e+09

>  <Rbt.Current_Directory>
/root/miniconda3/envs/rdock/share/rxdock-2013.1.1_148c5bd1-0/data/ligands/prepped_ligands/Baicalin

>  <Rbt.Executable>
rbdock/0.1.0

>  <Rbt.Library>
librxdock.so/0.1.0

>  <Rbt.Parameter_File>
/root/miniconda3/envs/rdock/share/rxdock-2013.1.1_148c5bd1-0/data/scripts/dock.prm

>  <Rbt.Receptor>
def.prm

>  <SCORE>
-9.44314

>  <SCORE.INTER>
-11.5043

>  <SCORE.INTER.CONST>
1

>  <SCORE.INTER.POLAR>
0

>  <SCORE.INTER.REPUL>
0.0287989

>  <SCORE.INTER.ROT>
4

>  <SCORE.INTER.VDW>
-21.0483

>  <SCORE.INTER.norm>
-0.359508

>  <SCORE.INTRA>
2.9619

>  <SCORE.INTRA.DIHEDRAL>
3.9779

>  <SCORE.INTRA.DIHEDRAL.0>
5.84004

>  <SCORE.INTRA.POLAR>
0.136432

>  <SCORE.INTRA.POLAR.0>
-0.136432

>  <SCORE.INTRA.REPUL>
0

>  <SCORE.INTRA.REPUL.0>
0

>  <SCORE.INTRA.VDW>
0.509083

>  <SCORE.INTRA.VDW.0>
-0.289917

>  <SCORE.INTRA.norm>
0.0925593

>  <SCORE.RESTR>
0

>  <SCORE.RESTR.CAVITY>
0

>  <SCORE.RESTR.norm>
0

>  <SCORE.SYSTEM>
-0.900777

>  <SCORE.SYSTEM.CONST>
0

>  <SCORE.SYSTEM.DIHEDRAL>
0.403954

>  <SCORE.SYSTEM.VDW>
-1.10275

>  <SCORE.SYSTEM.norm>
-0.0281493

>  <SCORE.heavy>
32

>  <SCORE.norm>
-0.295098

$$$$
