Baicalin.pdb
  RxDock  02242112473D
librxdock.so/0.1.0
 38 41  0  0  0  0  0  0  0  0999 V2000
  -46.0603   -1.2111   18.1440 O   0  0  0  0  0  0
  -45.5605   -2.7060   16.4231 O   0  0  0  0  0  0
  -42.0837   -0.7084   19.0447 O   0  0  0  0  0  0
  -42.9722   -3.0556   17.5034 O   0  0  0  0  0  0
  -44.1186    0.0244   20.9865 O   0  0  0  0  0  0
  -46.6406    1.2734   18.7227 O   0  0  0  0  0  0
  -47.6051    0.3726   20.5812 O   0  0  0  0  0  0
  -48.9242   -5.6794   17.9521 O   0  0  0  0  0  0
  -47.0879   -2.0521   14.2118 O   0  0  0  0  0  0
  -49.5381   -3.1943   13.8427 O   0  0  0  0  0  0
  -51.3267   -4.8571   14.7658 O   0  0  0  0  0  0
  -43.3678   -1.3271   19.1409 C   0  0  0  0  0  0
  -43.7618   -1.8982   17.7785 C   0  0  0  0  0  0
  -44.3673   -0.2721   19.6141 C   0  0  0  0  0  0
  -45.2351   -2.3065   17.7551 C   0  0  0  0  0  0
  -45.7972   -0.7813   19.4751 C   0  0  0  0  0  0
  -46.7813    0.3241   19.6797 C   0  0  0  0  0  0
  -46.7852   -3.2775   16.2389 C   0  0  0  0  0  0
  -47.2596   -4.1947   17.1766 C   0  0  0  0  0  0
  -47.5596   -2.9505   15.1248 C   0  0  0  0  0  0
  -48.5119   -4.7850   16.9979 C   0  0  0  0  0  0
  -49.2828   -4.4571   15.8842 C   0  0  0  0  0  0
  -48.8114   -3.5388   14.9432 C   0  0  0  0  0  0
  -50.5979   -5.0955   15.7197 C   0  0  0  0  0  0
  -50.1672   -6.2761   17.8045 C   0  0  0  0  0  0
  -50.9979   -6.0475   16.7756 C   0  0  0  0  0  0
  -50.5097   -7.2242   18.8843 C   0  0  0  0  0  0
  -51.7411   -7.1278   19.5380 C   0  0  0  0  0  0
  -49.6058   -8.2219   19.2556 C   0  0  0  0  0  0
  -52.0647   -8.0240   20.5570 C   0  0  0  0  0  0
  -49.9294   -9.1182   20.2746 C   0  0  0  0  0  0
  -51.1596   -9.0192   20.9251 C   0  0  0  0  0  0
  -42.1662    0.0499   18.4432 H   0  0  0  0  0  0
  -43.2352   -3.3911   16.6304 H   0  0  0  0  0  0
  -43.2237    0.3988   21.0567 H   0  0  0  0  0  0
  -47.3174    1.9790   18.8037 H   0  0  0  0  0  0
  -47.4457   -2.2852   13.3374 H   0  0  0  0  0  0
  -49.3668   -2.2741   13.5906 H   0  0  0  0  0  0
  1 15  1  0  0  0
  1 16  1  0  0  0
  2 15  1  0  0  0
  2 18  1  0  0  0
  3 12  1  0  0  0
  3 33  1  0  0  0
  4 13  1  0  0  0
  4 34  1  0  0  0
  5 14  1  0  0  0
  5 35  1  0  0  0
  6 17  1  0  0  0
  6 36  1  0  0  0
  7 17  2  0  0  0
  8 21  1  0  0  0
  8 25  1  0  0  0
  9 20  1  0  0  0
  9 37  1  0  0  0
 10 23  1  0  0  0
 10 38  1  0  0  0
 11 24  2  0  0  0
 12 13  1  0  0  0
 13 15  1  0  0  0
 14 12  1  0  0  0
 16 14  1  0  0  0
 16 17  1  0  0  0
 18 19  2  0  0  0
 18 20  1  0  0  0
 19 21  1  0  0  0
 20 23  2  0  0  0
 21 22  2  0  0  0
 22 23  1  0  0  0
 22 24  1  0  0  0
 24 26  1  0  0  0
 25 26  2  0  0  0
 25 27  1  0  0  0
 27 28  2  0  0  0
 27 29  1  0  0  0
 28 30  1  0  0  0
 29 31  2  0  0  0
 30 32  2  0  0  0
 31 32  1  0  0  0
M  END
>  <CHROM.0>
53.00215825,65.88391575,176.28714463

>  <CHROM.1>
-68.24109454,-41.35924672,64.74917765,-179.36581934,62.47536197,-3.68012165
149.31007523,-32.25023375,-55.87439302,129.85320192,-47.55688091,-3.49829294
17.84668418,-0.19983028,0.78341330,1.93344972

>  <Name>
Baicalin.pdb

>  <RI>
-5.28854e+08

>  <Rbt.Current_Directory>
/root/miniconda3/envs/rdock/share/rxdock-2013.1.1_148c5bd1-0/data/ligands/prepped_ligands/Baicalin

>  <Rbt.Executable>
rbdock/0.1.0

>  <Rbt.Library>
librxdock.so/0.1.0

>  <Rbt.Parameter_File>
/root/miniconda3/envs/rdock/share/rxdock-2013.1.1_148c5bd1-0/data/scripts/dock.prm

>  <Rbt.Receptor>
def.prm

>  <SCORE>
-11.9949

>  <SCORE.INTER>
-12.8156

>  <SCORE.INTER.CONST>
1

>  <SCORE.INTER.POLAR>
-0.905262

>  <SCORE.INTER.REPUL>
0.0651015

>  <SCORE.INTER.ROT>
4

>  <SCORE.INTER.VDW>
-19.4632

>  <SCORE.INTER.norm>
-0.400486

>  <SCORE.INTRA>
1.74929

>  <SCORE.INTRA.DIHEDRAL>
3.12801

>  <SCORE.INTRA.DIHEDRAL.0>
5.84004

>  <SCORE.INTRA.POLAR>
0.122327

>  <SCORE.INTRA.POLAR.0>
-0.136432

>  <SCORE.INTRA.REPUL>
0

>  <SCORE.INTRA.REPUL.0>
0

>  <SCORE.INTRA.VDW>
-0.230628

>  <SCORE.INTRA.VDW.0>
-0.289917

>  <SCORE.INTRA.norm>
0.0546653

>  <SCORE.RESTR>
0

>  <SCORE.RESTR.CAVITY>
0

>  <SCORE.RESTR.norm>
0

>  <SCORE.SYSTEM>
-0.928582

>  <SCORE.SYSTEM.CONST>
0

>  <SCORE.SYSTEM.DIHEDRAL>
0.331147

>  <SCORE.SYSTEM.VDW>
-1.09416

>  <SCORE.SYSTEM.norm>
-0.0290182

>  <SCORE.heavy>
32

>  <SCORE.norm>
-0.374839

$$$$
Baicalin.pdb
  RxDock  02242112473D
librxdock.so/0.1.0
 38 41  0  0  0  0  0  0  0  0999 V2000
  -53.5346   -5.6767   16.3065 O   0  0  0  0  0  0
  -52.0648   -4.0150   17.0307 O   0  0  0  0  0  0
  -51.6825   -8.5155   18.6275 O   0  0  0  0  0  0
  -50.2875   -6.0124   17.9475 O   0  0  0  0  0  0
  -53.3833   -9.3293   16.4155 O   0  0  0  0  0  0
  -55.4273   -8.1189   14.7124 O   0  0  0  0  0  0
  -56.0189   -6.3508   16.0237 O   0  0  0  0  0  0
  -47.7123   -2.1441   16.8094 O   0  0  0  0  0  0
  -52.7457   -2.8149   14.6336 O   0  0  0  0  0  0
  -50.9316   -1.2739   13.2997 O   0  0  0  0  0  0
  -48.5144   -0.2881   13.2721 O   0  0  0  0  0  0
  -51.8936   -7.7425   17.4449 C   0  0  0  0  0  0
  -51.6808   -6.2615   17.7591 C   0  0  0  0  0  0
  -53.3154   -8.0099   16.9521 C   0  0  0  0  0  0
  -52.1754   -5.3766   16.6145 C   0  0  0  0  0  0
  -53.7054   -7.0181   15.8625 C   0  0  0  0  0  0
  -55.1673   -7.0975   15.5646 C   0  0  0  0  0  0
  -51.1577   -3.2445   16.3645 C   0  0  0  0  0  0
  -49.8835   -3.0679   16.9039 C   0  0  0  0  0  0
  -51.4965   -2.6371   15.1544 C   0  0  0  0  0  0
  -48.9474   -2.2818   16.2298 C   0  0  0  0  0  0
  -49.2887   -1.6760   15.0221 C   0  0  0  0  0  0
  -50.5635   -1.8507   14.4785 C   0  0  0  0  0  0
  -48.2835   -0.8513   14.3339 C   0  0  0  0  0  0
  -46.7597   -1.3747   16.1587 C   0  0  0  0  0  0
  -46.9683   -0.7376   14.9960 C   0  0  0  0  0  0
  -45.4682   -1.2898   16.8708 C   0  0  0  0  0  0
  -44.7772   -2.4557   17.2117 C   0  0  0  0  0  0
  -44.9313   -0.0447   17.2051 C   0  0  0  0  0  0
  -43.5570   -2.3750   17.8833 C   0  0  0  0  0  0
  -43.7112    0.0359   17.8767 C   0  0  0  0  0  0
  -43.0238   -1.1299   18.2154 C   0  0  0  0  0  0
  -52.3205   -8.2135   19.2949 H   0  0  0  0  0  0
  -49.8250   -6.3018   17.1436 H   0  0  0  0  0  0
  -54.2102   -9.4067   15.9093 H   0  0  0  0  0  0
  -56.3658   -8.1286   14.4270 H   0  0  0  0  0  0
  -52.7921   -2.3499   13.7799 H   0  0  0  0  0  0
  -50.2306   -0.6934   12.9661 H   0  0  0  0  0  0
  1 15  1  0  0  0
  1 16  1  0  0  0
  2 15  1  0  0  0
  2 18  1  0  0  0
  3 12  1  0  0  0
  3 33  1  0  0  0
  4 13  1  0  0  0
  4 34  1  0  0  0
  5 14  1  0  0  0
  5 35  1  0  0  0
  6 17  1  0  0  0
  6 36  1  0  0  0
  7 17  2  0  0  0
  8 21  1  0  0  0
  8 25  1  0  0  0
  9 20  1  0  0  0
  9 37  1  0  0  0
 10 23  1  0  0  0
 10 38  1  0  0  0
 11 24  2  0  0  0
 12 13  1  0  0  0
 13 15  1  0  0  0
 14 12  1  0  0  0
 16 14  1  0  0  0
 16 17  1  0  0  0
 18 19  2  0  0  0
 18 20  1  0  0  0
 19 21  1  0  0  0
 20 23  2  0  0  0
 21 22  2  0  0  0
 22 23  1  0  0  0
 22 24  1  0  0  0
 24 26  1  0  0  0
 25 26  2  0  0  0
 25 27  1  0  0  0
 27 28  2  0  0  0
 27 29  1  0  0  0
 28 30  1  0  0  0
 29 31  2  0  0  0
 30 32  2  0  0  0
 31 32  1  0  0  0
M  END
>  <CHROM.0>
-60.46218652,62.53069746,58.57192314

>  <CHROM.1>
-126.13372064,-96.24197226,59.77682961,56.72705490,-165.86417287,6.37175642
-177.98677436,175.06205311,158.68611949,56.03368185,-50.16352369,-3.92298600
16.23549121,2.64262905,0.42810255,2.53294232

>  <Name>
Baicalin.pdb

>  <RI>
-5.28854e+08

>  <Rbt.Current_Directory>
/root/miniconda3/envs/rdock/share/rxdock-2013.1.1_148c5bd1-0/data/ligands/prepped_ligands/Baicalin

>  <Rbt.Executable>
rbdock/0.1.0

>  <Rbt.Library>
librxdock.so/0.1.0

>  <Rbt.Parameter_File>
/root/miniconda3/envs/rdock/share/rxdock-2013.1.1_148c5bd1-0/data/scripts/dock.prm

>  <Rbt.Receptor>
def.prm

>  <SCORE>
-16.8483

>  <SCORE.INTER>
-17.889

>  <SCORE.INTER.CONST>
1

>  <SCORE.INTER.POLAR>
-1.64509

>  <SCORE.INTER.REPUL>
0.264234

>  <SCORE.INTER.ROT>
4

>  <SCORE.INTER.VDW>
-23.0168

>  <SCORE.INTER.norm>
-0.559031

>  <SCORE.INTRA>
2.05089

>  <SCORE.INTRA.DIHEDRAL>
11.8045

>  <SCORE.INTRA.DIHEDRAL.0>
5.84004

>  <SCORE.INTRA.POLAR>
-0.811292

>  <SCORE.INTRA.POLAR.0>
-0.136432

>  <SCORE.INTRA.REPUL>
0

>  <SCORE.INTRA.REPUL.0>
0

>  <SCORE.INTRA.VDW>
-1.09296

>  <SCORE.INTRA.VDW.0>
-0.289917

>  <SCORE.INTRA.norm>
0.0640903

>  <SCORE.RESTR>
0

>  <SCORE.RESTR.CAVITY>
0

>  <SCORE.RESTR.norm>
0

>  <SCORE.SYSTEM>
-1.01017

>  <SCORE.SYSTEM.CONST>
0

>  <SCORE.SYSTEM.DIHEDRAL>
0.0388211

>  <SCORE.SYSTEM.VDW>
-1.02958

>  <SCORE.SYSTEM.norm>
-0.0315677

>  <SCORE.heavy>
32

>  <SCORE.norm>
-0.526508

$$$$
Baicalin.pdb
  RxDock  02242112473D
librxdock.so/0.1.0
 38 41  0  0  0  0  0  0  0  0999 V2000
  -53.6880   -4.5391   16.1611 O   0  0  0  0  0  0
  -52.1018   -2.8498   16.4372 O   0  0  0  0  0  0
  -51.4205   -7.2058   18.3113 O   0  0  0  0  0  0
  -50.1823   -4.7954   17.1576 O   0  0  0  0  0  0
  -53.5243   -8.1716   16.5537 O   0  0  0  0  0  0
  -55.9766   -4.8338   15.4136 O   0  0  0  0  0  0
  -56.0896   -6.9533   16.2448 O   0  0  0  0  0  0
  -47.5175   -1.7706   16.9965 O   0  0  0  0  0  0
  -52.1127   -1.6790   13.9314 O   0  0  0  0  0  0
  -49.8416   -0.5460   12.9298 O   0  0  0  0  0  0
  -47.3224    0.0061   13.3351 O   0  0  0  0  0  0
  -51.8587   -6.5316   17.1305 C   0  0  0  0  0  0
  -51.5858   -5.0336   17.2678 C   0  0  0  0  0  0
  -53.3501   -6.8132   16.9506 C   0  0  0  0  0  0
  -52.2944   -4.2394   16.1700 C   0  0  0  0  0  0
  -53.9450   -5.9098   15.8767 C   0  0  0  0  0  0
  -55.4371   -5.9869   15.8788 C   0  0  0  0  0  0
  -50.9664   -2.2834   15.9371 C   0  0  0  0  0  0
  -49.7998   -2.3005   16.7017 C   0  0  0  0  0  0
  -50.9668   -1.6915   14.6731 C   0  0  0  0  0  0
  -48.6321   -1.7240   16.1990 C   0  0  0  0  0  0
  -48.6356   -1.1333   14.9368 C   0  0  0  0  0  0
  -49.8017   -1.1144   14.1680 C   0  0  0  0  0  0
  -47.3916   -0.5315   14.4324 C   0  0  0  0  0  0
  -46.3410   -1.2123   16.5201 C   0  0  0  0  0  0
  -46.2188   -0.6111   15.3265 C   0  0  0  0  0  0
  -45.2054   -1.3134   17.4595 C   0  0  0  0  0  0
  -45.3832   -1.0047   18.8108 C   0  0  0  0  0  0
  -43.9499   -1.7194   17.0021 C   0  0  0  0  0  0
  -44.3107   -1.1014   19.6978 C   0  0  0  0  0  0
  -42.8774   -1.8160   17.8891 C   0  0  0  0  0  0
  -43.0584   -1.5072   19.2376 C   0  0  0  0  0  0
  -51.6451   -8.1459   18.2146 H   0  0  0  0  0  0
  -49.8981   -5.1079   16.2827 H   0  0  0  0  0  0
  -53.0721   -8.2972   15.7018 H   0  0  0  0  0  0
  -56.9539   -4.8258   15.4981 H   0  0  0  0  0  0
  -51.9954   -1.0542   13.1945 H   0  0  0  0  0  0
  -48.9479   -0.3400   12.6159 H   0  0  0  0  0  0
  1 15  1  0  0  0
  1 16  1  0  0  0
  2 15  1  0  0  0
  2 18  1  0  0  0
  3 12  1  0  0  0
  3 33  1  0  0  0
  4 13  1  0  0  0
  4 34  1  0  0  0
  5 14  1  0  0  0
  5 35  1  0  0  0
  6 17  1  0  0  0
  6 36  1  0  0  0
  7 17  2  0  0  0
  8 21  1  0  0  0
  8 25  1  0  0  0
  9 20  1  0  0  0
  9 37  1  0  0  0
 10 23  1  0  0  0
 10 38  1  0  0  0
 11 24  2  0  0  0
 12 13  1  0  0  0
 13 15  1  0  0  0
 14 12  1  0  0  0
 16 14  1  0  0  0
 16 17  1  0  0  0
 18 19  2  0  0  0
 18 20  1  0  0  0
 19 21  1  0  0  0
 20 23  2  0  0  0
 21 22  2  0  0  0
 22 23  1  0  0  0
 22 24  1  0  0  0
 24 26  1  0  0  0
 25 26  2  0  0  0
 25 27  1  0  0  0
 27 28  2  0  0  0
 27 29  1  0  0  0
 28 30  1  0  0  0
 29 31  2  0  0  0
 30 32  2  0  0  0
 31 32  1  0  0  0
M  END
>  <CHROM.0>
-53.86050743,65.13804844,-56.15208238

>  <CHROM.1>
-152.67536092,-88.81830976,177.27875995,60.35612942,-61.52032332,6.38184756
166.54600517,-168.73653292,33.41444045,-45.38636165,-49.93575225,-3.19878176
16.26556457,2.82959952,0.41097067,2.40422300

>  <Name>
Baicalin.pdb

>  <RI>
-5.28854e+08

>  <Rbt.Current_Directory>
/root/miniconda3/envs/rdock/share/rxdock-2013.1.1_148c5bd1-0/data/ligands/prepped_ligands/Baicalin

>  <Rbt.Executable>
rbdock/0.1.0

>  <Rbt.Library>
librxdock.so/0.1.0

>  <Rbt.Parameter_File>
/root/miniconda3/envs/rdock/share/rxdock-2013.1.1_148c5bd1-0/data/scripts/dock.prm

>  <Rbt.Receptor>
def.prm

>  <SCORE>
-13.6597

>  <SCORE.INTER>
-17.4103

>  <SCORE.INTER.CONST>
1

>  <SCORE.INTER.POLAR>
-1.59026

>  <SCORE.INTER.REPUL>
0.348333

>  <SCORE.INTER.ROT>
4

>  <SCORE.INTER.VDW>
-23.1451

>  <SCORE.INTER.norm>
-0.544071

>  <SCORE.INTRA>
4.58881

>  <SCORE.INTRA.DIHEDRAL>
6.82503

>  <SCORE.INTRA.DIHEDRAL.0>
5.84004

>  <SCORE.INTRA.POLAR>
-0.0288226

>  <SCORE.INTRA.POLAR.0>
-0.136432

>  <SCORE.INTRA.REPUL>
0

>  <SCORE.INTRA.REPUL.0>
0

>  <SCORE.INTRA.VDW>
1.27429

>  <SCORE.INTRA.VDW.0>
-0.289917

>  <SCORE.INTRA.norm>
0.1434

>  <SCORE.RESTR>
0.0921947

>  <SCORE.RESTR.CAVITY>
0.0921947

>  <SCORE.RESTR.norm>
0.00288108

>  <SCORE.SYSTEM>
-0.930443

>  <SCORE.SYSTEM.CONST>
0

>  <SCORE.SYSTEM.DIHEDRAL>
0.250726

>  <SCORE.SYSTEM.POLAR>
-0.00939231

>  <SCORE.SYSTEM.VDW>
-1.02387

>  <SCORE.SYSTEM.norm>
-0.0290764

>  <SCORE.heavy>
32

>  <SCORE.norm>
-0.426866

$$$$
Baicalin.pdb
  RxDock  02242112473D
librxdock.so/0.1.0
 38 41  0  0  0  0  0  0  0  0999 V2000
  -46.0219    0.5275   17.7933 O   0  0  0  0  0  0
  -45.3604   -0.7967   15.9892 O   0  0  0  0  0  0
  -42.1541    0.8696   19.1347 O   0  0  0  0  0  0
  -42.8976   -1.2966   17.2829 O   0  0  0  0  0  0
  -44.3705    1.4399   20.9264 O   0  0  0  0  0  0
  -47.1105    2.1017   20.7192 O   0  0  0  0  0  0
  -47.4213    2.5595   18.5080 O   0  0  0  0  0  0
  -47.9605   -4.6981   16.7044 O   0  0  0  0  0  0
  -47.0678    0.0196   13.9722 O   0  0  0  0  0  0
  -49.2309   -1.5007   13.2982 O   0  0  0  0  0  0
  -50.5923   -3.6787   13.7658 O   0  0  0  0  0  0
  -43.4455    0.2665   19.0385 C   0  0  0  0  0  0
  -43.7031   -0.1590   17.5928 C   0  0  0  0  0  0
  -44.4806    1.2860   19.5131 C   0  0  0  0  0  0
  -45.1691   -0.5377   17.3805 C   0  0  0  0  0  0
  -45.8925    0.8178   19.1806 C   0  0  0  0  0  0
  -46.8845    1.9139   19.3960 C   0  0  0  0  0  0
  -46.4414   -1.5572   15.6525 C   0  0  0  0  0  0
  -46.6772   -2.7504   16.3354 C   0  0  0  0  0  0
  -47.3059   -1.1493   14.6355 C   0  0  0  0  0  0
  -47.7811   -3.5360   15.9990 C   0  0  0  0  0  0
  -48.6423   -3.1265   14.9828 C   0  0  0  0  0  0
  -48.4097   -1.9322   14.2968 C   0  0  0  0  0  0
  -49.7967   -3.9745   14.6476 C   0  0  0  0  0  0
  -49.0528   -5.4951   16.3969 C   0  0  0  0  0  0
  -49.9484   -5.2127   15.4382 C   0  0  0  0  0  0
  -49.1483   -6.7230   17.2126 C   0  0  0  0  0  0
  -48.0475   -7.1596   17.9547 C   0  0  0  0  0  0
  -50.3390   -7.4519   17.2475 C   0  0  0  0  0  0
  -48.1385   -8.3186   18.7258 C   0  0  0  0  0  0
  -50.4300   -8.6110   18.0186 C   0  0  0  0  0  0
  -49.3292   -9.0440   18.7583 C   0  0  0  0  0  0
  -42.1452    1.6426   18.5463 H   0  0  0  0  0  0
  -43.1253   -1.9996   17.9137 H   0  0  0  0  0  0
  -45.1426    1.9439   21.2359 H   0  0  0  0  0  0
  -47.7301    2.8443   20.8837 H   0  0  0  0  0  0
  -46.6885   -0.1925   13.1014 H   0  0  0  0  0  0
  -48.7549   -1.4573   12.4549 H   0  0  0  0  0  0
  1 15  1  0  0  0
  1 16  1  0  0  0
  2 15  1  0  0  0
  2 18  1  0  0  0
  3 12  1  0  0  0
  3 33  1  0  0  0
  4 13  1  0  0  0
  4 34  1  0  0  0
  5 14  1  0  0  0
  5 35  1  0  0  0
  6 17  1  0  0  0
  6 36  1  0  0  0
  7 17  2  0  0  0
  8 21  1  0  0  0
  8 25  1  0  0  0
  9 20  1  0  0  0
  9 37  1  0  0  0
 10 23  1  0  0  0
 10 38  1  0  0  0
 11 24  2  0  0  0
 12 13  1  0  0  0
 13 15  1  0  0  0
 14 12  1  0  0  0
 16 14  1  0  0  0
 16 17  1  0  0  0
 18 19  2  0  0  0
 18 20  1  0  0  0
 19 21  1  0  0  0
 20 23  2  0  0  0
 21 22  2  0  0  0
 22 23  1  0  0  0
 22 24  1  0  0  0
 24 26  1  0  0  0
 25 26  2  0  0  0
 25 27  1  0  0  0
 27 28  2  0  0  0
 27 29  1  0  0  0
 28 30  1  0  0  0
 29 31  2  0  0  0
 30 32  2  0  0  0
 31 32  1  0  0  0
M  END
>  <CHROM.0>
58.68237993,-60.95470013,-61.61421232

>  <CHROM.1>
-80.62288419,-48.28430335,59.87210129,58.19124832,-168.59674823,-2.35454497
103.32991645,63.06618431,166.00621404,-15.23346097,-47.06504216,-2.20878163
17.10706632,0.55321259,-0.93525982,-0.63184960

>  <Name>
Baicalin.pdb

>  <RI>
-5.28854e+08

>  <Rbt.Current_Directory>
/root/miniconda3/envs/rdock/share/rxdock-2013.1.1_148c5bd1-0/data/ligands/prepped_ligands/Baicalin

>  <Rbt.Executable>
rbdock/0.1.0

>  <Rbt.Library>
librxdock.so/0.1.0

>  <Rbt.Parameter_File>
/root/miniconda3/envs/rdock/share/rxdock-2013.1.1_148c5bd1-0/data/scripts/dock.prm

>  <Rbt.Receptor>
def.prm

>  <SCORE>
-19.3818

>  <SCORE.INTER>
-20.9625

>  <SCORE.INTER.CONST>
1

>  <SCORE.INTER.POLAR>
-2.58691

>  <SCORE.INTER.REPUL>
0.0416002

>  <SCORE.INTER.ROT>
4

>  <SCORE.INTER.VDW>
-21.775

>  <SCORE.INTER.norm>
-0.655078

>  <SCORE.INTRA>
2.6343

>  <SCORE.INTRA.DIHEDRAL>
9.17669

>  <SCORE.INTRA.DIHEDRAL.0>
5.84004

>  <SCORE.INTRA.POLAR>
-0.593035

>  <SCORE.INTRA.POLAR.0>
-0.136432

>  <SCORE.INTRA.REPUL>
0

>  <SCORE.INTRA.REPUL.0>
0

>  <SCORE.INTRA.VDW>
0.0622689

>  <SCORE.INTRA.VDW.0>
-0.289917

>  <SCORE.INTRA.norm>
0.0823217

>  <SCORE.RESTR>
0.0081376

>  <SCORE.RESTR.CAVITY>
0.0081376

>  <SCORE.RESTR.norm>
0.0002543

>  <SCORE.SYSTEM>
-1.06172

>  <SCORE.SYSTEM.CONST>
0

>  <SCORE.SYSTEM.DIHEDRAL>
0.0176929

>  <SCORE.SYSTEM.VDW>
-1.07057

>  <SCORE.SYSTEM.norm>
-0.0331788

>  <SCORE.heavy>
32

>  <SCORE.norm>
-0.60568

$$$$
Baicalin.pdb
  RxDock  02242112473D
librxdock.so/0.1.0
 38 41  0  0  0  0  0  0  0  0999 V2000
  -45.5437   -0.3218   17.7540 O   0  0  0  0  0  0
  -45.0167   -1.6402   15.9020 O   0  0  0  0  0  0
  -41.8664   -1.0023   19.4544 O   0  0  0  0  0  0
  -42.8874   -2.7986   17.3556 O   0  0  0  0  0  0
  -44.0697   -0.0432   21.0895 O   0  0  0  0  0  0
  -46.5187    1.2792   20.7086 O   0  0  0  0  0  0
  -46.5264    1.9205   18.5213 O   0  0  0  0  0  0
  -48.3614    0.7228   13.5098 O   0  0  0  0  0  0
  -46.6859   -3.8317   16.1496 O   0  0  0  0  0  0
  -49.1986   -3.7771   15.0875 O   0  0  0  0  0  0
  -50.9747   -2.3925   13.7668 O   0  0  0  0  0  0
  -43.2443   -1.2725   19.1911 C   0  0  0  0  0  0
  -43.4375   -1.5257   17.6958 C   0  0  0  0  0  0
  -44.0611   -0.0704   19.6639 C   0  0  0  0  0  0
  -44.9202   -1.5290   17.3225 C   0  0  0  0  0  0
  -45.4993   -0.1653   19.1679 C   0  0  0  0  0  0
  -46.2293    1.1184   19.3943 C   0  0  0  0  0  0
  -46.2728   -1.6123   15.3711 C   0  0  0  0  0  0
  -46.7070   -0.4679   14.7022 C   0  0  0  0  0  0
  -47.1186   -2.7157   15.4933 C   0  0  0  0  0  0
  -47.9905   -0.4291   14.1547 C   0  0  0  0  0  0
  -48.8332   -1.5322   14.2787 C   0  0  0  0  0  0
  -48.4019   -2.6801   14.9475 C   0  0  0  0  0  0
  -50.1813   -1.4634   13.6939 C   0  0  0  0  0  0
  -49.6283    0.7874   12.9497 C   0  0  0  0  0  0
  -50.5312   -0.2038   13.0068 C   0  0  0  0  0  0
  -49.9255    2.0724   12.2843 C   0  0  0  0  0  0
  -51.2494    2.4913   12.1275 C   0  0  0  0  0  0
  -48.8853    2.8748   11.8106 C   0  0  0  0  0  0
  -51.5297    3.7054   11.5000 C   0  0  0  0  0  0
  -49.1656    4.0889   11.1831 C   0  0  0  0  0  0
  -50.4885    4.5043   11.0283 C   0  0  0  0  0  0
  -41.6117   -0.2279   18.9260 H   0  0  0  0  0  0
  -43.3761   -3.4738   17.8549 H   0  0  0  0  0  0
  -44.6896    0.6501   21.3741 H   0  0  0  0  0  0
  -46.9617    2.1366   20.8845 H   0  0  0  0  0  0
  -47.3948   -4.4979   16.1240 H   0  0  0  0  0  0
  -49.2499   -4.0498   16.0163 H   0  0  0  0  0  0
  1 15  1  0  0  0
  1 16  1  0  0  0
  2 15  1  0  0  0
  2 18  1  0  0  0
  3 12  1  0  0  0
  3 33  1  0  0  0
  4 13  1  0  0  0
  4 34  1  0  0  0
  5 14  1  0  0  0
  5 35  1  0  0  0
  6 17  1  0  0  0
  6 36  1  0  0  0
  7 17  2  0  0  0
  8 21  1  0  0  0
  8 25  1  0  0  0
  9 20  1  0  0  0
  9 37  1  0  0  0
 10 23  1  0  0  0
 10 38  1  0  0  0
 11 24  2  0  0  0
 12 13  1  0  0  0
 13 15  1  0  0  0
 14 12  1  0  0  0
 16 14  1  0  0  0
 16 17  1  0  0  0
 18 19  2  0  0  0
 18 20  1  0  0  0
 19 21  1  0  0  0
 20 23  2  0  0  0
 21 22  2  0  0  0
 22 23  1  0  0  0
 22 24  1  0  0  0
 24 26  1  0  0  0
 25 26  2  0  0  0
 25 27  1  0  0  0
 27 28  2  0  0  0
 27 29  1  0  0  0
 28 30  1  0  0  0
 29 31  2  0  0  0
 30 32  2  0  0  0
 31 32  1  0  0  0
M  END
>  <CHROM.0>
61.51949652,178.10536770,59.62341800

>  <CHROM.1>
-57.40622894,105.98808001,58.59983585,61.80267291,-172.35525932,-2.51192824
-179.07170217,52.23611886,167.39943692,-155.80871056,-47.12359454,-0.25851754
15.80668469,-0.20399281,-0.85595198,0.09412039

>  <Name>
Baicalin.pdb

>  <RI>
-5.28854e+08

>  <Rbt.Current_Directory>
/root/miniconda3/envs/rdock/share/rxdock-2013.1.1_148c5bd1-0/data/ligands/prepped_ligands/Baicalin

>  <Rbt.Executable>
rbdock/0.1.0

>  <Rbt.Library>
librxdock.so/0.1.0

>  <Rbt.Parameter_File>
/root/miniconda3/envs/rdock/share/rxdock-2013.1.1_148c5bd1-0/data/scripts/dock.prm

>  <Rbt.Receptor>
def.prm

>  <SCORE>
-17.5479

>  <SCORE.INTER>
-16.3499

>  <SCORE.INTER.CONST>
1

>  <SCORE.INTER.POLAR>
-0.360966

>  <SCORE.INTER.REPUL>
0.112144

>  <SCORE.INTER.ROT>
4

>  <SCORE.INTER.VDW>
-25.0833

>  <SCORE.INTER.norm>
-0.510933

>  <SCORE.INTRA>
-0.143602

>  <SCORE.INTRA.DIHEDRAL>
3.7705

>  <SCORE.INTRA.DIHEDRAL.0>
5.84004

>  <SCORE.INTRA.POLAR>
-0.542447

>  <SCORE.INTRA.POLAR.0>
-0.136432

>  <SCORE.INTRA.REPUL>
0

>  <SCORE.INTRA.REPUL.0>
0

>  <SCORE.INTRA.VDW>
-0.184532

>  <SCORE.INTRA.VDW.0>
-0.289917

>  <SCORE.INTRA.norm>
-0.00448757

>  <SCORE.RESTR>
0

>  <SCORE.RESTR.CAVITY>
0

>  <SCORE.RESTR.norm>
0

>  <SCORE.SYSTEM>
-1.05441

>  <SCORE.SYSTEM.CONST>
0

>  <SCORE.SYSTEM.DIHEDRAL>
0.0231293

>  <SCORE.SYSTEM.POLAR>
-0.000140712

>  <SCORE.SYSTEM.VDW>
-1.0655

>  <SCORE.SYSTEM.norm>
-0.0329504

>  <SCORE.heavy>
32

>  <SCORE.norm>
-0.548371

$$$$
Baicalin.pdb
  RxDock  02242112473D
librxdock.so/0.1.0
 38 41  0  0  0  0  0  0  0  0999 V2000
  -45.8644   -0.8210   17.6075 O   0  0  0  0  0  0
  -45.3056   -2.5231   16.1121 O   0  0  0  0  0  0
  -41.9623   -0.4310   18.8315 O   0  0  0  0  0  0
  -42.8532   -2.8857   17.4696 O   0  0  0  0  0  0
  -44.1147    0.6205   20.4776 O   0  0  0  0  0  0
  -46.9982    1.2375   20.1553 O   0  0  0  0  0  0
  -46.9961    1.5036   17.8915 O   0  0  0  0  0  0
  -49.9008   -3.5809   15.6030 O   0  0  0  0  0  0
  -45.5627   -0.3905   14.3696 O   0  0  0  0  0  0
  -47.9759    0.1732   13.2279 O   0  0  0  0  0  0
  -50.4909   -0.4926   13.0116 O   0  0  0  0  0  0
  -43.2862   -0.9665   18.8678 C   0  0  0  0  0  0
  -43.5901   -1.6648   17.5421 C   0  0  0  0  0  0
  -44.2560    0.1860   19.1268 C   0  0  0  0  0  0
  -45.0779   -1.9950   17.4192 C   0  0  0  0  0  0
  -45.6966   -0.2595   18.9045 C   0  0  0  0  0  0
  -46.6237    0.9121   18.8940 C   0  0  0  0  0  0
  -46.5121   -2.2419   15.5414 C   0  0  0  0  0  0
  -47.6148   -3.0403   15.8453 C   0  0  0  0  0  0
  -46.6468   -1.1668   14.6617 C   0  0  0  0  0  0
  -48.8543   -2.7609   15.2672 C   0  0  0  0  0  0
  -48.9857   -1.6870   14.3887 C   0  0  0  0  0  0
  -47.8840   -0.8850   14.0821 C   0  0  0  0  0  0
  -50.3030   -1.4164   13.7923 C   0  0  0  0  0  0
  -51.1457   -3.3229   15.0495 C   0  0  0  0  0  0
  -51.3979   -2.3247   14.1886 C   0  0  0  0  0  0
  -52.1989   -4.2677   15.4745 C   0  0  0  0  0  0
  -51.9067   -5.2746   16.3985 C   0  0  0  0  0  0
  -53.4911   -4.1581   14.9564 C   0  0  0  0  0  0
  -52.9018   -6.1659   16.8004 C   0  0  0  0  0  0
  -54.4862   -5.0495   15.3583 C   0  0  0  0  0  0
  -54.1912   -6.0535   16.2811 C   0  0  0  0  0  0
  -41.7676   -0.0663   19.7107 H   0  0  0  0  0  0
  -43.1704   -3.4641   18.1828 H   0  0  0  0  0  0
  -43.2143    0.9709   20.5889 H   0  0  0  0  0  0
  -47.6473    1.9729   20.1670 H   0  0  0  0  0  0
  -45.5161   -0.2779   13.4041 H   0  0  0  0  0  0
  -47.2950    0.1210   12.5399 H   0  0  0  0  0  0
  1 15  1  0  0  0
  1 16  1  0  0  0
  2 15  1  0  0  0
  2 18  1  0  0  0
  3 12  1  0  0  0
  3 33  1  0  0  0
  4 13  1  0  0  0
  4 34  1  0  0  0
  5 14  1  0  0  0
  5 35  1  0  0  0
  6 17  1  0  0  0
  6 36  1  0  0  0
  7 17  2  0  0  0
  8 21  1  0  0  0
  8 25  1  0  0  0
  9 20  1  0  0  0
  9 37  1  0  0  0
 10 23  1  0  0  0
 10 38  1  0  0  0
 11 24  2  0  0  0
 12 13  1  0  0  0
 13 15  1  0  0  0
 14 12  1  0  0  0
 16 14  1  0  0  0
 16 17  1  0  0  0
 18 19  2  0  0  0
 18 20  1  0  0  0
 19 21  1  0  0  0
 20 23  2  0  0  0
 21 22  2  0  0  0
 22 23  1  0  0  0
 22 24  1  0  0  0
 24 26  1  0  0  0
 25 26  2  0  0  0
 25 27  1  0  0  0
 27 28  2  0  0  0
 27 29  1  0  0  0
 28 30  1  0  0  0
 29 31  2  0  0  0
 30 32  2  0  0  0
 31 32  1  0  0  0
M  END
>  <CHROM.0>
60.37761569,-63.51894297,-60.47619210

>  <CHROM.1>
-26.44554436,-84.02440072,-174.92055591,63.54329148,63.70091009,3.37435934
132.17593148,51.75137769,155.58003308,2.46990883,-47.77969984,-1.79909956
16.43161223,0.16034008,0.52742426,1.98352169

>  <Name>
Baicalin.pdb

>  <RI>
-5.28854e+08

>  <Rbt.Current_Directory>
/root/miniconda3/envs/rdock/share/rxdock-2013.1.1_148c5bd1-0/data/ligands/prepped_ligands/Baicalin

>  <Rbt.Executable>
rbdock/0.1.0

>  <Rbt.Library>
librxdock.so/0.1.0

>  <Rbt.Parameter_File>
/root/miniconda3/envs/rdock/share/rxdock-2013.1.1_148c5bd1-0/data/scripts/dock.prm

>  <Rbt.Receptor>
def.prm

>  <SCORE>
-16.6623

>  <SCORE.INTER>
-20.9767

>  <SCORE.INTER.CONST>
1

>  <SCORE.INTER.POLAR>
-1.89747

>  <SCORE.INTER.REPUL>
0.0699871

>  <SCORE.INTER.ROT>
4

>  <SCORE.INTER.VDW>
-24.2752

>  <SCORE.INTER.norm>
-0.655521

>  <SCORE.INTRA>
5.35987

>  <SCORE.INTRA.DIHEDRAL>
10.5435

>  <SCORE.INTRA.DIHEDRAL.0>
5.84004

>  <SCORE.INTRA.POLAR>
0.136432

>  <SCORE.INTRA.POLAR.0>
-0.136432

>  <SCORE.INTRA.REPUL>
0

>  <SCORE.INTRA.REPUL.0>
0

>  <SCORE.INTRA.VDW>
-0.375756

>  <SCORE.INTRA.VDW.0>
-0.289917

>  <SCORE.INTRA.norm>
0.167496

>  <SCORE.RESTR>
0.0152571

>  <SCORE.RESTR.CAVITY>
0.0152571

>  <SCORE.RESTR.norm>
0.000476783

>  <SCORE.SYSTEM>
-1.06074

>  <SCORE.SYSTEM.CONST>
0

>  <SCORE.SYSTEM.DIHEDRAL>
0.0621563

>  <SCORE.SYSTEM.VDW>
-1.09182

>  <SCORE.SYSTEM.norm>
-0.0331481

>  <SCORE.heavy>
32

>  <SCORE.norm>
-0.520696

$$$$
Baicalin.pdb
  RxDock  02242112483D
librxdock.so/0.1.0
 38 41  0  0  0  0  0  0  0  0999 V2000
  -49.6459   -5.5645   17.1950 O   0  0  0  0  0  0
  -50.4800   -3.4761   16.5715 O   0  0  0  0  0  0
  -53.3934   -7.2441   17.0863 O   0  0  0  0  0  0
  -53.0807   -4.3223   17.2850 O   0  0  0  0  0  0
  -51.2486   -8.5665   18.5351 O   0  0  0  0  0  0
  -48.9273   -8.6893   17.0534 O   0  0  0  0  0  0
  -47.4386   -7.2045   17.9335 O   0  0  0  0  0  0
  -46.2925   -1.8799   18.1241 O   0  0  0  0  0  0
  -49.4583   -3.7928   14.0208 O   0  0  0  0  0  0
  -46.8573   -3.1624   13.4899 O   0  0  0  0  0  0
  -44.5958   -2.2688   14.4402 O   0  0  0  0  0  0
  -52.2923   -6.5665   17.6940 C   0  0  0  0  0  0
  -52.0406   -5.2466   16.9647 C   0  0  0  0  0  0
  -51.0731   -7.4854   17.6220 C   0  0  0  0  0  0
  -50.7055   -4.6296   17.3827 C   0  0  0  0  0  0
  -49.8037   -6.7296   17.9971 C   0  0  0  0  0  0
  -48.5868   -7.5347   17.6763 C   0  0  0  0  0  0
  -49.1797   -3.1606   16.3066 C   0  0  0  0  0  0
  -48.3705   -2.6768   17.3346 C   0  0  0  0  0  0
  -48.6596   -3.3189   15.0211 C   0  0  0  0  0  0
  -47.0382   -2.3514   17.0744 C   0  0  0  0  0  0
  -46.5217   -2.5100   15.7897 C   0  0  0  0  0  0
  -47.3287   -2.9944   14.7577 C   0  0  0  0  0  0
  -45.1149   -2.1575   15.5430 C   0  0  0  0  0  0
  -44.9637   -1.5553   17.8968 C   0  0  0  0  0  0
  -44.3535   -1.6586   16.7059 C   0  0  0  0  0  0
  -44.2553   -1.0542   19.0924 C   0  0  0  0  0  0
  -42.9778   -0.5009   18.9703 C   0  0  0  0  0  0
  -44.8593   -1.1293   20.3493 C   0  0  0  0  0  0
  -42.3097   -0.0267   20.0994 C   0  0  0  0  0  0
  -44.1911   -0.6551   21.4784 C   0  0  0  0  0  0
  -42.9159   -0.1032   21.3530 C   0  0  0  0  0  0
  -54.1220   -6.6070   17.0032 H   0  0  0  0  0  0
  -52.8901   -3.4912   16.8192 H   0  0  0  0  0  0
  -50.4674   -9.1426   18.4739 H   0  0  0  0  0  0
  -48.1388   -9.2057   16.7812 H   0  0  0  0  0  0
  -48.9133   -4.3318   13.4211 H   0  0  0  0  0  0
  -46.0867   -2.5963   13.3308 H   0  0  0  0  0  0
  1 15  1  0  0  0
  1 16  1  0  0  0
  2 15  1  0  0  0
  2 18  1  0  0  0
  3 12  1  0  0  0
  3 33  1  0  0  0
  4 13  1  0  0  0
  4 34  1  0  0  0
  5 14  1  0  0  0
  5 35  1  0  0  0
  6 17  1  0  0  0
  6 36  1  0  0  0
  7 17  2  0  0  0
  8 21  1  0  0  0
  8 25  1  0  0  0
  9 20  1  0  0  0
  9 37  1  0  0  0
 10 23  1  0  0  0
 10 38  1  0  0  0
 11 24  2  0  0  0
 12 13  1  0  0  0
 13 15  1  0  0  0
 14 12  1  0  0  0
 16 14  1  0  0  0
 16 17  1  0  0  0
 18 19  2  0  0  0
 18 20  1  0  0  0
 19 21  1  0  0  0
 20 23  2  0  0  0
 21 22  2  0  0  0
 22 23  1  0  0  0
 22 24  1  0  0  0
 24 26  1  0  0  0
 25 26  2  0  0  0
 25 27  1  0  0  0
 27 28  2  0  0  0
 27 29  1  0  0  0
 28 30  1  0  0  0
 29 31  2  0  0  0
 30 32  2  0  0  0
 31 32  1  0  0  0
M  END
>  <CHROM.0>
60.89969114,-65.02428597,-59.03092671

>  <CHROM.1>
-29.36146577,-70.01743408,-49.39169672,179.25766337,179.74374023,-3.59660676
-145.90930749,156.90987072,-115.01542718,-170.32898723,-47.93615474,-3.90108904
17.27586847,-3.11884575,-0.67880777,-1.27544135

>  <Name>
Baicalin.pdb

>  <RI>
-5.28854e+08

>  <Rbt.Current_Directory>
/root/miniconda3/envs/rdock/share/rxdock-2013.1.1_148c5bd1-0/data/ligands/prepped_ligands/Baicalin

>  <Rbt.Executable>
rbdock/0.1.0

>  <Rbt.Library>
librxdock.so/0.1.0

>  <Rbt.Parameter_File>
/root/miniconda3/envs/rdock/share/rxdock-2013.1.1_148c5bd1-0/data/scripts/dock.prm

>  <Rbt.Receptor>
def.prm

>  <SCORE>
-15.2827

>  <SCORE.INTER>
-18.707

>  <SCORE.INTER.CONST>
1

>  <SCORE.INTER.POLAR>
-2.28625

>  <SCORE.INTER.REPUL>
0.00913683

>  <SCORE.INTER.ROT>
4

>  <SCORE.INTER.VDW>
-20.3794

>  <SCORE.INTER.norm>
-0.584594

>  <SCORE.INTRA>
4.46986

>  <SCORE.INTRA.DIHEDRAL>
7.56507

>  <SCORE.INTRA.DIHEDRAL.0>
5.84004

>  <SCORE.INTRA.POLAR>
-0.283775

>  <SCORE.INTRA.POLAR.0>
-0.136432

>  <SCORE.INTRA.REPUL>
0

>  <SCORE.INTRA.REPUL.0>
0

>  <SCORE.INTRA.VDW>
1.65216

>  <SCORE.INTRA.VDW.0>
-0.289917

>  <SCORE.INTRA.norm>
0.139683

>  <SCORE.RESTR>
0

>  <SCORE.RESTR.CAVITY>
0

>  <SCORE.RESTR.norm>
0

>  <SCORE.SYSTEM>
-1.04559

>  <SCORE.SYSTEM.CONST>
0

>  <SCORE.SYSTEM.DIHEDRAL>
0.126914

>  <SCORE.SYSTEM.POLAR>
-0.0032122

>  <SCORE.SYSTEM.VDW>
-1.09812

>  <SCORE.SYSTEM.norm>
-0.0326746

>  <SCORE.heavy>
32

>  <SCORE.norm>
-0.477585

$$$$
Baicalin.pdb
  RxDock  02242112483D
librxdock.so/0.1.0
 38 41  0  0  0  0  0  0  0  0999 V2000
  -49.7691   -5.8808   16.7375 O   0  0  0  0  0  0
  -50.2239   -3.6543   16.2065 O   0  0  0  0  0  0
  -53.7471   -6.6816   17.3786 O   0  0  0  0  0  0
  -52.7665   -3.9047   17.4153 O   0  0  0  0  0  0
  -51.7142   -8.4598   18.4526 O   0  0  0  0  0  0
  -47.8133   -7.6180   17.1454 O   0  0  0  0  0  0
  -49.4436   -9.1374   16.6670 O   0  0  0  0  0  0
  -46.4201   -1.9145   18.4421 O   0  0  0  0  0  0
  -48.7978   -3.8446   13.8442 O   0  0  0  0  0  0
  -46.1809   -3.0784   13.7488 O   0  0  0  0  0  0
  -44.1459   -2.1107   15.0672 O   0  0  0  0  0  0
  -52.4299   -6.2712   17.7494 C   0  0  0  0  0  0
  -52.0345   -5.0352   16.9411 C   0  0  0  0  0  0
  -51.4788   -7.4382   17.4860 C   0  0  0  0  0  0
  -50.5422   -4.7346   17.0847 C   0  0  0  0  0  0
  -50.0268   -6.9873   17.5947 C   0  0  0  0  0  0
  -49.0994   -8.0411   17.0833 C   0  0  0  0  0  0
  -48.9158   -3.2709   16.1592 C   0  0  0  0  0  0
  -48.3045   -2.7821   17.3139 C   0  0  0  0  0  0
  -48.1920   -3.3653   14.9696 C   0  0  0  0  0  0
  -46.9660   -2.3875   17.2765 C   0  0  0  0  0  0
  -46.2459   -2.4823   16.0871 C   0  0  0  0  0  0
  -46.8544   -2.9715   14.9289 C   0  0  0  0  0  0
  -44.8375   -2.0576   16.0756 C   0  0  0  0  0  0
  -45.0902   -1.5219   18.4367 C   0  0  0  0  0  0
  -44.2954   -1.5600   17.3560 C   0  0  0  0  0  0
  -44.6057   -1.0255   19.7410 C   0  0  0  0  0  0
  -45.3255   -0.0455   20.4299 C   0  0  0  0  0  0
  -43.4278   -1.5342   20.2922 C   0  0  0  0  0  0
  -44.8682    0.4222   21.6621 C   0  0  0  0  0  0
  -42.9705   -1.0665   21.5245 C   0  0  0  0  0  0
  -43.6915   -0.0881   22.2097 C   0  0  0  0  0  0
  -53.7427   -6.8585   16.4234 H   0  0  0  0  0  0
  -53.7066   -4.0627   17.2281 H   0  0  0  0  0  0
  -52.5978   -8.8317   18.2891 H   0  0  0  0  0  0
  -47.1880   -8.2939   16.8070 H   0  0  0  0  0  0
  -49.7545   -3.9054   14.0119 H   0  0  0  0  0  0
  -45.3194   -2.6371   13.8022 H   0  0  0  0  0  0
  1 15  1  0  0  0
  1 16  1  0  0  0
  2 15  1  0  0  0
  2 18  1  0  0  0
  3 12  1  0  0  0
  3 33  1  0  0  0
  4 13  1  0  0  0
  4 34  1  0  0  0
  5 14  1  0  0  0
  5 35  1  0  0  0
  6 17  1  0  0  0
  6 36  1  0  0  0
  7 17  2  0  0  0
  8 21  1  0  0  0
  8 25  1  0  0  0
  9 20  1  0  0  0
  9 37  1  0  0  0
 10 23  1  0  0  0
 10 38  1  0  0  0
 11 24  2  0  0  0
 12 13  1  0  0  0
 13 15  1  0  0  0
 14 12  1  0  0  0
 16 14  1  0  0  0
 16 17  1  0  0  0
 18 19  2  0  0  0
 18 20  1  0  0  0
 19 21  1  0  0  0
 20 23  2  0  0  0
 21 22  2  0  0  0
 22 23  1  0  0  0
 22 24  1  0  0  0
 24 26  1  0  0  0
 25 26  2  0  0  0
 25 27  1  0  0  0
 27 28  2  0  0  0
 27 29  1  0  0  0
 28 30  1  0  0  0
 29 31  2  0  0  0
 30 32  2  0  0  0
 31 32  1  0  0  0
M  END
>  <CHROM.0>
179.87148075,173.94622272,-63.12250345

>  <CHROM.1>
-57.38418607,-62.01813319,58.07554986,-64.94822831,67.34623453,0.59820619
10.67551969,170.16251028,59.06260818,-50.63968369,-48.00528404,-3.90810152
17.40570537,-2.82949615,0.66758736,1.45820641

>  <Name>
Baicalin.pdb

>  <RI>
-5.28854e+08

>  <Rbt.Current_Directory>
/root/miniconda3/envs/rdock/share/rxdock-2013.1.1_148c5bd1-0/data/ligands/prepped_ligands/Baicalin

>  <Rbt.Executable>
rbdock/0.1.0

>  <Rbt.Library>
librxdock.so/0.1.0

>  <Rbt.Parameter_File>
/root/miniconda3/envs/rdock/share/rxdock-2013.1.1_148c5bd1-0/data/scripts/dock.prm

>  <Rbt.Receptor>
def.prm

>  <SCORE>
-12.6032

>  <SCORE.INTER>
-12.0803

>  <SCORE.INTER.CONST>
1

>  <SCORE.INTER.POLAR>
-1.44433

>  <SCORE.INTER.REPUL>
0.00797244

>  <SCORE.INTER.ROT>
4

>  <SCORE.INTER.VDW>
-16.6094

>  <SCORE.INTER.norm>
-0.377509

>  <SCORE.INTRA>
0.464921

>  <SCORE.INTRA.DIHEDRAL>
2.36227

>  <SCORE.INTRA.DIHEDRAL.0>
5.84004

>  <SCORE.INTRA.POLAR>
0.0146719

>  <SCORE.INTRA.POLAR.0>
-0.136432

>  <SCORE.INTRA.REPUL>
0

>  <SCORE.INTRA.REPUL.0>
0

>  <SCORE.INTRA.VDW>
-0.766097

>  <SCORE.INTRA.VDW.0>
-0.289917

>  <SCORE.INTRA.norm>
0.0145288

>  <SCORE.RESTR>
0.0031019

>  <SCORE.RESTR.CAVITY>
0.0031019

>  <SCORE.RESTR.norm>
9.69345e-05

>  <SCORE.SYSTEM>
-0.990929

>  <SCORE.SYSTEM.CONST>
0

>  <SCORE.SYSTEM.DIHEDRAL>
0.206217

>  <SCORE.SYSTEM.VDW>
-1.09404

>  <SCORE.SYSTEM.norm>
-0.0309665

>  <SCORE.heavy>
32

>  <SCORE.norm>
-0.39385

$$$$
Baicalin.pdb
  RxDock  02242112483D
librxdock.so/0.1.0
 38 41  0  0  0  0  0  0  0  0999 V2000
  -50.9250   -4.0964   16.7669 O   0  0  0  0  0  0
  -48.9081   -3.6201   15.6940 O   0  0  0  0  0  0
  -48.9759   -5.5439   20.0810 O   0  0  0  0  0  0
  -47.5634   -5.3220   17.5062 O   0  0  0  0  0  0
  -51.7642   -6.2240   19.6210 O   0  0  0  0  0  0
  -52.9269   -3.2362   18.4427 O   0  0  0  0  0  0
  -54.0420   -4.7407   17.1432 O   0  0  0  0  0  0
  -45.8092   -0.7087   17.7951 O   0  0  0  0  0  0
  -50.8932   -1.7026   15.8756 O   0  0  0  0  0  0
  -50.3674    0.7221   17.0110 O   0  0  0  0  0  0
  -48.5890    2.2473   18.1628 O   0  0  0  0  0  0
  -49.5830   -5.6325   18.7908 C   0  0  0  0  0  0
  -48.8288   -4.7345   17.8098 C   0  0  0  0  0  0
  -51.0450   -5.2079   18.9255 C   0  0  0  0  0  0
  -49.6056   -4.5676   16.5035 C   0  0  0  0  0  0
  -51.6794   -5.0117   17.5535 C   0  0  0  0  0  0
  -53.0122   -4.3466   17.6703 C   0  0  0  0  0  0
  -48.6448   -2.4083   16.2620 C   0  0  0  0  0  0
  -47.3648   -2.1456   16.7501 C   0  0  0  0  0  0
  -49.6432   -1.4374   16.3557 C   0  0  0  0  0  0
  -47.0846   -0.9084   17.3327 C   0  0  0  0  0  0
  -48.0836    0.0589   17.4254 C   0  0  0  0  0  0
  -49.3665   -0.2002   16.9375 C   0  0  0  0  0  0
  -47.7614    1.3533   18.0458 C   0  0  0  0  0  0
  -45.4999    0.5136   18.3723 C   0  0  0  0  0  0
  -46.3741    1.5206   18.5239 C   0  0  0  0  0  0
  -44.1025    0.6203   18.8393 C   0  0  0  0  0  0
  -43.3000   -0.5211   18.9176 C   0  0  0  0  0  0
  -43.5766    1.8619   19.2027 C   0  0  0  0  0  0
  -41.9800   -0.4197   19.3577 C   0  0  0  0  0  0
  -42.2566    1.9633   19.6428 C   0  0  0  0  0  0
  -41.4581    0.8218   19.7197 C   0  0  0  0  0  0
  -49.4379   -6.1655   20.6674 H   0  0  0  0  0  0
  -47.7297   -6.2023   17.1302 H   0  0  0  0  0  0
  -51.6923   -7.0481   19.1095 H   0  0  0  0  0  0
  -53.7921   -2.7817   18.5285 H   0  0  0  0  0  0
  -51.0494   -2.6612   15.9371 H   0  0  0  0  0  0
  -50.1340    1.4363   17.6235 H   0  0  0  0  0  0
  1 15  1  0  0  0
  1 16  1  0  0  0
  2 15  1  0  0  0
  2 18  1  0  0  0
  3 12  1  0  0  0
  3 33  1  0  0  0
  4 13  1  0  0  0
  4 34  1  0  0  0
  5 14  1  0  0  0
  5 35  1  0  0  0
  6 17  1  0  0  0
  6 36  1  0  0  0
  7 17  2  0  0  0
  8 21  1  0  0  0
  8 25  1  0  0  0
  9 20  1  0  0  0
  9 37  1  0  0  0
 10 23  1  0  0  0
 10 38  1  0  0  0
 11 24  2  0  0  0
 12 13  1  0  0  0
 13 15  1  0  0  0
 14 12  1  0  0  0
 16 14  1  0  0  0
 16 17  1  0  0  0
 18 19  2  0  0  0
 18 20  1  0  0  0
 19 21  1  0  0  0
 20 23  2  0  0  0
 21 22  2  0  0  0
 22 23  1  0  0  0
 22 24  1  0  0  0
 24 26  1  0  0  0
 25 26  2  0  0  0
 25 27  1  0  0  0
 27 28  2  0  0  0
 27 29  1  0  0  0
 28 30  1  0  0  0
 29 31  2  0  0  0
 30 32  2  0  0  0
 31 32  1  0  0  0
M  END
>  <CHROM.0>
68.92855375,178.74101082,-56.68901453

>  <CHROM.1>
65.94408066,101.49541430,-176.41748266,58.54713691,-59.65319719,-0.12362867
28.62310063,165.45417720,-68.99160700,-12.20881219,-48.33133913,-2.03351776
17.90055895,2.55931828,0.28237208,2.93300265

>  <Name>
Baicalin.pdb

>  <RI>
-5.28854e+08

>  <Rbt.Current_Directory>
/root/miniconda3/envs/rdock/share/rxdock-2013.1.1_148c5bd1-0/data/ligands/prepped_ligands/Baicalin

>  <Rbt.Executable>
rbdock/0.1.0

>  <Rbt.Library>
librxdock.so/0.1.0

>  <Rbt.Parameter_File>
/root/miniconda3/envs/rdock/share/rxdock-2013.1.1_148c5bd1-0/data/scripts/dock.prm

>  <Rbt.Receptor>
def.prm

>  <SCORE>
-17.39

>  <SCORE.INTER>
-14.5719

>  <SCORE.INTER.CONST>
1

>  <SCORE.INTER.POLAR>
-2.11487

>  <SCORE.INTER.REPUL>
0.0735044

>  <SCORE.INTER.ROT>
4

>  <SCORE.INTER.VDW>
-17.1489

>  <SCORE.INTER.norm>
-0.455372

>  <SCORE.INTRA>
-1.91589

>  <SCORE.INTRA.DIHEDRAL>
1.56762

>  <SCORE.INTRA.DIHEDRAL.0>
5.84004

>  <SCORE.INTRA.POLAR>
-0.863568

>  <SCORE.INTRA.POLAR.0>
-0.136432

>  <SCORE.INTRA.REPUL>
0

>  <SCORE.INTRA.REPUL.0>
0

>  <SCORE.INTRA.VDW>
0.236434

>  <SCORE.INTRA.VDW.0>
-0.289917

>  <SCORE.INTRA.norm>
-0.0598715

>  <SCORE.RESTR>
0

>  <SCORE.RESTR.CAVITY>
0

>  <SCORE.RESTR.norm>
0

>  <SCORE.SYSTEM>
-0.902205

>  <SCORE.SYSTEM.CONST>
0

>  <SCORE.SYSTEM.DIHEDRAL>
0.219084

>  <SCORE.SYSTEM.POLAR>
-0.00835459

>  <SCORE.SYSTEM.VDW>
-0.983341

>  <SCORE.SYSTEM.norm>
-0.0281939

>  <SCORE.heavy>
32

>  <SCORE.norm>
-0.543438

$$$$
Baicalin.pdb
  RxDock  02242112483D
librxdock.so/0.1.0
 38 41  0  0  0  0  0  0  0  0999 V2000
  -46.2116   -1.8910   18.3296 O   0  0  0  0  0  0
  -45.4150   -3.2485   16.6067 O   0  0  0  0  0  0
  -43.1691    0.8154   17.7863 O   0  0  0  0  0  0
  -42.9196   -1.9283   16.7452 O   0  0  0  0  0  0
  -44.6682    0.7930   20.2764 O   0  0  0  0  0  0
  -47.6463   -1.4090   21.0110 O   0  0  0  0  0  0
  -47.9108    0.2493   19.4697 O   0  0  0  0  0  0
  -50.0164   -4.0237   15.7588 O   0  0  0  0  0  0
  -45.4147   -1.1010   14.8637 O   0  0  0  0  0  0
  -47.6997   -0.3893   13.5534 O   0  0  0  0  0  0
  -50.2281   -0.9004   13.1509 O   0  0  0  0  0  0
  -43.7903   -0.3438   18.3441 C   0  0  0  0  0  0
  -44.1243   -1.3312   17.2257 C   0  0  0  0  0  0
  -45.0485    0.1046   19.0870 C   0  0  0  0  0  0
  -45.0442   -2.4448   17.7274 C   0  0  0  0  0  0
  -45.9069   -1.0953   19.4697 C   0  0  0  0  0  0
  -47.2516   -0.6591   19.9532 C   0  0  0  0  0  0
  -46.5574   -2.8934   15.9518 C   0  0  0  0  0  0
  -47.7257   -3.6237   16.1698 C   0  0  0  0  0  0
  -46.5623   -1.8103   15.0714 C   0  0  0  0  0  0
  -48.9005   -3.2683   15.5049 C   0  0  0  0  0  0
  -48.9023   -2.1867   14.6260 C   0  0  0  0  0  0
  -47.7346   -1.4527   14.4053 C   0  0  0  0  0  0
  -50.1538   -1.8353   13.9373 C   0  0  0  0  0  0
  -51.1998   -3.6893   15.1180 C   0  0  0  0  0  0
  -51.3277   -2.6760   14.2474 C   0  0  0  0  0  0
  -52.3364   -4.5691   15.4594 C   0  0  0  0  0  0
  -52.1630   -5.6198   16.3643 C   0  0  0  0  0  0
  -53.5892   -4.3539   14.8811 C   0  0  0  0  0  0
  -53.2369   -6.4497   16.6873 C   0  0  0  0  0  0
  -54.6631   -5.1838   15.2041 C   0  0  0  0  0  0
  -54.4866   -6.2318   16.1080 C   0  0  0  0  0  0
  -42.8839    1.3804   18.5233 H   0  0  0  0  0  0
  -43.1677   -2.6426   16.1351 H   0  0  0  0  0  0
  -44.2461    1.6304   20.0183 H   0  0  0  0  0  0
  -48.5258   -1.1343   21.3476 H   0  0  0  0  0  0
  -45.6271   -0.3263   14.3143 H   0  0  0  0  0  0
  -48.5916   -0.1619   13.2490 H   0  0  0  0  0  0
  1 15  1  0  0  0
  1 16  1  0  0  0
  2 15  1  0  0  0
  2 18  1  0  0  0
  3 12  1  0  0  0
  3 33  1  0  0  0
  4 13  1  0  0  0
  4 34  1  0  0  0
  5 14  1  0  0  0
  5 35  1  0  0  0
  6 17  1  0  0  0
  6 36  1  0  0  0
  7 17  2  0  0  0
  8 21  1  0  0  0
  8 25  1  0  0  0
  9 20  1  0  0  0
  9 37  1  0  0  0
 10 23  1  0  0  0
 10 38  1  0  0  0
 11 24  2  0  0  0
 12 13  1  0  0  0
 13 15  1  0  0  0
 14 12  1  0  0  0
 16 14  1  0  0  0
 16 17  1  0  0  0
 18 19  2  0  0  0
 18 20  1  0  0  0
 19 21  1  0  0  0
 20 23  2  0  0  0
 21 22  2  0  0  0
 22 23  1  0  0  0
 22 24  1  0  0  0
 24 26  1  0  0  0
 25 26  2  0  0  0
 25 27  1  0  0  0
 27 28  2  0  0  0
 27 29  1  0  0  0
 28 30  1  0  0  0
 29 31  2  0  0  0
 30 32  2  0  0  0
 31 32  1  0  0  0
M  END
>  <CHROM.0>
-155.09463389,-64.37714439,-175.28852334

>  <CHROM.1>
29.10798481,-102.60079609,-174.10889558,171.62603840,68.09520083,-0.21827223
-173.09532639,-172.05885119,100.91398731,0.45946731,-48.01267172,-2.21653350
16.60183417,0.31439329,0.47749936,1.60383187

>  <Name>
Baicalin.pdb

>  <RI>
-5.28854e+08

>  <Rbt.Current_Directory>
/root/miniconda3/envs/rdock/share/rxdock-2013.1.1_148c5bd1-0/data/ligands/prepped_ligands/Baicalin

>  <Rbt.Executable>
rbdock/0.1.0

>  <Rbt.Library>
librxdock.so/0.1.0

>  <Rbt.Parameter_File>
/root/miniconda3/envs/rdock/share/rxdock-2013.1.1_148c5bd1-0/data/scripts/dock.prm

>  <Rbt.Receptor>
def.prm

>  <SCORE>
-18.8467

>  <SCORE.INTER>
-21.1436

>  <SCORE.INTER.CONST>
1

>  <SCORE.INTER.POLAR>
-2.02313

>  <SCORE.INTER.REPUL>
0

>  <SCORE.INTER.ROT>
4

>  <SCORE.INTER.VDW>
-23.665

>  <SCORE.INTER.norm>
-0.660738

>  <SCORE.INTRA>
2.49368

>  <SCORE.INTRA.DIHEDRAL>
5.52918

>  <SCORE.INTRA.DIHEDRAL.0>
5.84004

>  <SCORE.INTRA.POLAR>
-0.10807

>  <SCORE.INTRA.POLAR.0>
-0.136432

>  <SCORE.INTRA.REPUL>
0

>  <SCORE.INTRA.REPUL.0>
0

>  <SCORE.INTRA.VDW>
0.0965237

>  <SCORE.INTRA.VDW.0>
-0.289917

>  <SCORE.INTRA.norm>
0.0779274

>  <SCORE.RESTR>
0

>  <SCORE.RESTR.CAVITY>
0

>  <SCORE.RESTR.norm>
0

>  <SCORE.SYSTEM>
-0.196726

>  <SCORE.SYSTEM.CONST>
0

>  <SCORE.SYSTEM.DIHEDRAL>
1.45686

>  <SCORE.SYSTEM.POLAR>
-0.0117368

>  <SCORE.SYSTEM.VDW>
-0.885249

>  <SCORE.SYSTEM.norm>
-0.00614768

>  <SCORE.heavy>
32

>  <SCORE.norm>
-0.588959

$$$$
