Baicalin.pdb
  RxDock  02242110263D
librxdock.so/0.1.0
 38 41  0  0  0  0  0  0  0  0999 V2000
  -45.9031   -0.6735   17.2874 O   0  0  0  0  0  0
  -48.0901    0.1388   17.2320 O   0  0  0  0  0  0
  -44.7364    2.2603   19.9159 O   0  0  0  0  0  0
  -47.1885    2.5877   18.3176 O   0  0  0  0  0  0
  -42.7424    0.8096   18.3772 O   0  0  0  0  0  0
  -43.4210   -2.0567   16.0550 O   0  0  0  0  0  0
  -43.7625   -2.4399   18.2758 O   0  0  0  0  0  0
  -50.0530   -4.1305   16.5893 O   0  0  0  0  0  0
  -47.6061    0.3688   14.5186 O   0  0  0  0  0  0
  -48.3344   -1.6336   12.8142 O   0  0  0  0  0  0
  -49.4281   -3.9911   12.5655 O   0  0  0  0  0  0
  -44.9689    1.6912   18.6264 C   0  0  0  0  0  0
  -46.4559    1.3717   18.4708 C   0  0  0  0  0  0
  -44.1116    0.4318   18.5032 C   0  0  0  0  0  0
  -46.7088    0.5015   17.2392 C   0  0  0  0  0  0
  -44.5113   -0.3761   17.2741 C   0  0  0  0  0  0
  -43.8716   -1.7262   17.2898 C   0  0  0  0  0  0
  -48.4541   -0.8626   16.3805 C   0  0  0  0  0  0
  -49.0728   -2.0035   16.8917 C   0  0  0  0  0  0
  -48.2122   -0.7510   15.0105 C   0  0  0  0  0  0
  -49.4499   -3.0340   16.0288 C   0  0  0  0  0  0
  -49.2066   -2.9201   14.6613 C   0  0  0  0  0  0
  -48.5875   -1.7791   14.1456 C   0  0  0  0  0  0
  -49.6126   -4.0219   13.7751 C   0  0  0  0  0  0
  -50.4450   -5.1668   15.7555 C   0  0  0  0  0  0
  -50.2614   -5.1779   14.4261 C   0  0  0  0  0  0
  -51.0794   -6.2984   16.4621 C   0  0  0  0  0  0
  -52.4691   -6.4446   16.4467 C   0  0  0  0  0  0
  -50.2937   -7.2279   17.1469 C   0  0  0  0  0  0
  -53.0678   -7.5140   17.1133 C   0  0  0  0  0  0
  -50.8923   -8.2974   17.8134 C   0  0  0  0  0  0
  -52.2800   -8.4404   17.7960 C   0  0  0  0  0  0
  -45.1078    1.6534   20.5773 H   0  0  0  0  0  0
  -47.1141    3.0834   19.1499 H   0  0  0  0  0  0
  -42.5051    1.3463   19.1528 H   0  0  0  0  0  0
  -43.0613   -2.9690   16.0278 H   0  0  0  0  0  0
  -46.6467    0.2093   14.4838 H   0  0  0  0  0  0
  -48.5777   -2.4358   12.3273 H   0  0  0  0  0  0
  1 15  1  0  0  0
  1 16  1  0  0  0
  2 15  1  0  0  0
  2 18  1  0  0  0
  3 12  1  0  0  0
  3 33  1  0  0  0
  4 13  1  0  0  0
  4 34  1  0  0  0
  5 14  1  0  0  0
  5 35  1  0  0  0
  6 17  1  0  0  0
  6 36  1  0  0  0
  7 17  2  0  0  0
  8 21  1  0  0  0
  8 25  1  0  0  0
  9 20  1  0  0  0
  9 37  1  0  0  0
 10 23  1  0  0  0
 10 38  1  0  0  0
 11 24  2  0  0  0
 12 13  1  0  0  0
 13 15  1  0  0  0
 14 12  1  0  0  0
 16 14  1  0  0  0
 16 17  1  0  0  0
 18 19  2  0  0  0
 18 20  1  0  0  0
 19 21  1  0  0  0
 20 23  2  0  0  0
 21 22  2  0  0  0
 22 23  1  0  0  0
 22 24  1  0  0  0
 24 26  1  0  0  0
 25 26  2  0  0  0
 25 27  1  0  0  0
 27 28  2  0  0  0
 27 29  1  0  0  0
 28 30  1  0  0  0
 29 31  2  0  0  0
 30 32  2  0  0  0
 31 32  1  0  0  0
M  END
>  <CHROM.0>
-56.38906098,-65.11159764,-172.41159209

>  <CHROM.1>
-46.03842295,122.21189635,53.50871066,-65.76796571,57.43259750,4.68026062
92.50242485,175.72732566,102.78762227,101.82514825,-47.81772195,-2.23664384
16.56460197,-0.32020559,0.80969206,2.26567705

>  <Name>
Baicalin.pdb

>  <RI>
-6.60573e+08

>  <Rbt.Current_Directory>
/root/miniconda3/envs/rdock/share/rxdock-2013.1.1_148c5bd1-0/data/ligands/prepped_ligands/Baicalin

>  <Rbt.Executable>
rbdock/0.1.0

>  <Rbt.Library>
librxdock.so/0.1.0

>  <Rbt.Parameter_File>
/root/miniconda3/envs/rdock/share/rxdock-2013.1.1_148c5bd1-0/data/scripts/dock.prm

>  <Rbt.Receptor>
def.prm

>  <SCORE>
-9.43856

>  <SCORE.INTER>
-12.6376

>  <SCORE.INTER.CONST>
1

>  <SCORE.INTER.POLAR>
-1.4678

>  <SCORE.INTER.REPUL>
0.247775

>  <SCORE.INTER.ROT>
4

>  <SCORE.INTER.VDW>
-18.286

>  <SCORE.INTER.norm>
-0.394925

>  <SCORE.INTRA>
4.1122

>  <SCORE.INTRA.DIHEDRAL>
10.6063

>  <SCORE.INTRA.DIHEDRAL.0>
5.84004

>  <SCORE.INTRA.POLAR>
0.136432

>  <SCORE.INTRA.POLAR.0>
-0.136432

>  <SCORE.INTRA.REPUL>
0

>  <SCORE.INTRA.REPUL.0>
0

>  <SCORE.INTRA.VDW>
-1.65481

>  <SCORE.INTRA.VDW.0>
-0.289917

>  <SCORE.INTRA.norm>
0.128506

>  <SCORE.RESTR>
0.0655569

>  <SCORE.RESTR.CAVITY>
0.0655569

>  <SCORE.RESTR.norm>
0.00204865

>  <SCORE.SYSTEM>
-0.978713

>  <SCORE.SYSTEM.CONST>
0

>  <SCORE.SYSTEM.DIHEDRAL>
0.291981

>  <SCORE.SYSTEM.POLAR>
-0.0157214

>  <SCORE.SYSTEM.VDW>
-1.07125

>  <SCORE.SYSTEM.norm>
-0.0305848

>  <SCORE.heavy>
32

>  <SCORE.norm>
-0.294955

$$$$
Baicalin.pdb
  RxDock  02242110263D
librxdock.so/0.1.0
 38 41  0  0  0  0  0  0  0  0999 V2000
  -45.5937   -0.9931   18.1770 O   0  0  0  0  0  0
  -45.1435   -2.8448   16.8301 O   0  0  0  0  0  0
  -41.6990   -0.8188   19.4725 O   0  0  0  0  0  0
  -42.7570   -3.2936   18.2765 O   0  0  0  0  0  0
  -43.7931    0.5238   20.9759 O   0  0  0  0  0  0
  -45.7342    1.7084   18.3526 O   0  0  0  0  0  0
  -47.2340    1.1352   19.9705 O   0  0  0  0  0  0
  -47.9959   -0.2792   14.0417 O   0  0  0  0  0  0
  -47.2128   -4.5848   17.4133 O   0  0  0  0  0  0
  -49.6853   -4.1994   16.3257 O   0  0  0  0  0  0
  -51.1750   -2.7200   14.7740 O   0  0  0  0  0  0
  -43.0623   -1.2437   19.5135 C   0  0  0  0  0  0
  -43.3942   -2.0164   18.2367 C   0  0  0  0  0  0
  -43.9411   -0.0016   19.6586 C   0  0  0  0  0  0
  -44.9010   -2.2366   18.0992 C   0  0  0  0  0  0
  -45.4080   -0.3478   19.4320 C   0  0  0  0  0  0
  -46.2369    0.8890   19.3081 C   0  0  0  0  0  0
  -46.3793   -2.6515   16.2864 C   0  0  0  0  0  0
  -46.5892   -1.5678   15.4335 C   0  0  0  0  0  0
  -47.4266   -3.5269   16.5775 C   0  0  0  0  0  0
  -47.8501   -1.3613   14.8713 C   0  0  0  0  0  0
  -48.8941   -2.2367   15.1642 C   0  0  0  0  0  0
  -48.6879   -3.3232   16.0175 C   0  0  0  0  0  0
  -50.2131   -1.9943   14.5595 C   0  0  0  0  0  0
  -49.2356   -0.0532   13.4630 C   0  0  0  0  0  0
  -50.3176   -0.8194   13.6708 C   0  0  0  0  0  0
  -49.2830    1.1392   12.5922 C   0  0  0  0  0  0
  -48.2230    1.4168   11.7248 C   0  0  0  0  0  0
  -50.3873    1.9932   12.6305 C   0  0  0  0  0  0
  -48.2686    2.5424   10.9017 C   0  0  0  0  0  0
  -50.4329    3.1187   11.8075 C   0  0  0  0  0  0
  -49.3731    3.3929   10.9425 C   0  0  0  0  0  0
  -41.5856   -0.2683   18.6802 H   0  0  0  0  0  0
  -42.9867   -3.7632   17.4576 H   0  0  0  0  0  0
  -44.3032    1.3501   21.0300 H   0  0  0  0  0  0
  -46.2555    2.5349   18.2667 H   0  0  0  0  0  0
  -48.0628   -5.0338   17.5650 H   0  0  0  0  0  0
  -50.5468   -3.8531   16.0472 H   0  0  0  0  0  0
  1 15  1  0  0  0
  1 16  1  0  0  0
  2 15  1  0  0  0
  2 18  1  0  0  0
  3 12  1  0  0  0
  3 33  1  0  0  0
  4 13  1  0  0  0
  4 34  1  0  0  0
  5 14  1  0  0  0
  5 35  1  0  0  0
  6 17  1  0  0  0
  6 36  1  0  0  0
  7 17  2  0  0  0
  8 21  1  0  0  0
  8 25  1  0  0  0
  9 20  1  0  0  0
  9 37  1  0  0  0
 10 23  1  0  0  0
 10 38  1  0  0  0
 11 24  2  0  0  0
 12 13  1  0  0  0
 13 15  1  0  0  0
 14 12  1  0  0  0
 16 14  1  0  0  0
 16 17  1  0  0  0
 18 19  2  0  0  0
 18 20  1  0  0  0
 19 21  1  0  0  0
 20 23  2  0  0  0
 21 22  2  0  0  0
 22 23  1  0  0  0
 22 24  1  0  0  0
 24 26  1  0  0  0
 25 26  2  0  0  0
 25 27  1  0  0  0
 27 28  2  0  0  0
 27 29  1  0  0  0
 28 30  1  0  0  0
 29 31  2  0  0  0
 30 32  2  0  0  0
 31 32  1  0  0  0
M  END
>  <CHROM.0>
-142.05695759,-76.34867354,173.21541772

>  <CHROM.1>
-34.54883808,91.37025552,58.41434007,179.78444474,175.67005599,1.17846277
174.89944579,167.32538706,-65.31479990,41.64801612,-46.96983906,-0.83665333
16.26750620,-0.48636687,-0.76682033,-0.36373530

>  <Name>
Baicalin.pdb

>  <RI>
-6.60573e+08

>  <Rbt.Current_Directory>
/root/miniconda3/envs/rdock/share/rxdock-2013.1.1_148c5bd1-0/data/ligands/prepped_ligands/Baicalin

>  <Rbt.Executable>
rbdock/0.1.0

>  <Rbt.Library>
librxdock.so/0.1.0

>  <Rbt.Parameter_File>
/root/miniconda3/envs/rdock/share/rxdock-2013.1.1_148c5bd1-0/data/scripts/dock.prm

>  <Rbt.Receptor>
def.prm

>  <SCORE>
-18.0601

>  <SCORE.INTER>
-21.1991

>  <SCORE.INTER.CONST>
1

>  <SCORE.INTER.POLAR>
-1.40467

>  <SCORE.INTER.REPUL>
0.0209986

>  <SCORE.INTER.ROT>
4

>  <SCORE.INTER.VDW>
-25.9282

>  <SCORE.INTER.norm>
-0.662471

>  <SCORE.INTRA>
1.72708

>  <SCORE.INTRA.DIHEDRAL>
5.01927

>  <SCORE.INTRA.DIHEDRAL.0>
5.84004

>  <SCORE.INTRA.POLAR>
-0.0891175

>  <SCORE.INTRA.POLAR.0>
-0.136432

>  <SCORE.INTRA.REPUL>
0

>  <SCORE.INTRA.REPUL.0>
0

>  <SCORE.INTRA.VDW>
-0.479551

>  <SCORE.INTRA.VDW.0>
-0.289917

>  <SCORE.INTRA.norm>
0.0539714

>  <SCORE.RESTR>
0.259128

>  <SCORE.RESTR.CAVITY>
0.259128

>  <SCORE.RESTR.norm>
0.00809774

>  <SCORE.SYSTEM>
1.1527

>  <SCORE.SYSTEM.CONST>
0

>  <SCORE.SYSTEM.DIHEDRAL>
3.87255

>  <SCORE.SYSTEM.VDW>
-0.783577

>  <SCORE.SYSTEM.norm>
0.0360218

>  <SCORE.heavy>
32

>  <SCORE.norm>
-0.56438

$$$$
Baicalin.pdb
  RxDock  02242110263D
librxdock.so/0.1.0
 38 41  0  0  0  0  0  0  0  0999 V2000
  -45.5945   -0.7005   17.6410 O   0  0  0  0  0  0
  -45.3379   -2.5249   16.2088 O   0  0  0  0  0  0
  -41.8096   -1.1897   19.1617 O   0  0  0  0  0  0
  -43.1437   -3.4077   17.7563 O   0  0  0  0  0  0
  -43.7742    0.3741   20.6257 O   0  0  0  0  0  0
  -47.3729    1.1043   18.9310 O   0  0  0  0  0  0
  -45.4105    2.2443   18.7198 O   0  0  0  0  0  0
  -48.2996    0.1972   13.6965 O   0  0  0  0  0  0
  -47.3539   -4.3615   16.6703 O   0  0  0  0  0  0
  -49.8535   -3.9476   15.6577 O   0  0  0  0  0  0
  -51.4053   -2.3787   14.2626 O   0  0  0  0  0  0
  -43.2207   -1.4038   19.0995 C   0  0  0  0  0  0
  -43.5800   -2.0481   17.7604 C   0  0  0  0  0  0
  -43.9127   -0.0520   19.2720 C   0  0  0  0  0  0
  -45.0907   -2.0289   17.5250 C   0  0  0  0  0  0
  -45.3970   -0.1585   18.9422 C   0  0  0  0  0  0
  -46.0231    1.1948   18.8491 C   0  0  0  0  0  0
  -46.5873   -2.3174   15.7027 C   0  0  0  0  0  0
  -46.8382   -1.1700   14.9501 C   0  0  0  0  0  0
  -47.6078   -3.2413   15.9326 C   0  0  0  0  0  0
  -48.1132   -0.9483   14.4269 C   0  0  0  0  0  0
  -49.1304   -1.8723   14.6587 C   0  0  0  0  0  0
  -48.8831   -3.0226   15.4115 C   0  0  0  0  0  0
  -50.4651   -1.6127   14.0972 C   0  0  0  0  0  0
  -49.5543    0.4403   13.1584 C   0  0  0  0  0  0
  -50.6136   -0.3686   13.3153 C   0  0  0  0  0  0
  -49.6457    1.7016   12.3949 C   0  0  0  0  0  0
  -50.8500    2.4092   12.3509 C   0  0  0  0  0  0
  -48.5292    2.1935   11.7153 C   0  0  0  0  0  0
  -50.9356    3.6010   11.6307 C   0  0  0  0  0  0
  -48.6149    3.3853   10.9951 C   0  0  0  0  0  0
  -49.8187    4.0893   10.9534 C   0  0  0  0  0  0
  -41.5694   -0.5944   18.4325 H   0  0  0  0  0  0
  -42.1733   -3.4056   17.7082 H   0  0  0  0  0  0
  -42.8255    0.4745   20.8147 H   0  0  0  0  0  0
  -47.8056    1.9799   18.8386 H   0  0  0  0  0  0
  -47.8754   -5.0965   16.3030 H   0  0  0  0  0  0
  -49.7219   -4.3632   16.5235 H   0  0  0  0  0  0
  1 15  1  0  0  0
  1 16  1  0  0  0
  2 15  1  0  0  0
  2 18  1  0  0  0
  3 12  1  0  0  0
  3 33  1  0  0  0
  4 13  1  0  0  0
  4 34  1  0  0  0
  5 14  1  0  0  0
  5 35  1  0  0  0
  6 17  1  0  0  0
  6 36  1  0  0  0
  7 17  2  0  0  0
  8 21  1  0  0  0
  8 25  1  0  0  0
  9 20  1  0  0  0
  9 37  1  0  0  0
 10 23  1  0  0  0
 10 38  1  0  0  0
 11 24  2  0  0  0
 12 13  1  0  0  0
 13 15  1  0  0  0
 14 12  1  0  0  0
 16 14  1  0  0  0
 16 17  1  0  0  0
 18 19  2  0  0  0
 18 20  1  0  0  0
 19 21  1  0  0  0
 20 23  2  0  0  0
 21 22  2  0  0  0
 22 23  1  0  0  0
 22 24  1  0  0  0
 24 26  1  0  0  0
 25 26  2  0  0  0
 25 27  1  0  0  0
 27 28  2  0  0  0
 27 29  1  0  0  0
 28 30  1  0  0  0
 29 31  2  0  0  0
 30 32  2  0  0  0
 31 32  1  0  0  0
M  END
>  <CHROM.0>
-177.57258290,59.99290063,-62.22368006

>  <CHROM.1>
-45.83221349,91.71023554,60.50469623,-70.98017588,61.40953564,2.25774645
-144.76311765,32.26193266,77.98500218,-148.91148846,-47.15261508,-0.56185355
15.86083355,-0.44615368,-0.74707549,-0.23959750

>  <Name>
Baicalin.pdb

>  <RI>
-6.60573e+08

>  <Rbt.Current_Directory>
/root/miniconda3/envs/rdock/share/rxdock-2013.1.1_148c5bd1-0/data/ligands/prepped_ligands/Baicalin

>  <Rbt.Executable>
rbdock/0.1.0

>  <Rbt.Library>
librxdock.so/0.1.0

>  <Rbt.Parameter_File>
/root/miniconda3/envs/rdock/share/rxdock-2013.1.1_148c5bd1-0/data/scripts/dock.prm

>  <Rbt.Receptor>
def.prm

>  <SCORE>
-20.7339

>  <SCORE.INTER>
-22.2534

>  <SCORE.INTER.CONST>
1

>  <SCORE.INTER.POLAR>
-1.25629

>  <SCORE.INTER.REPUL>
0.204006

>  <SCORE.INTER.ROT>
4

>  <SCORE.INTER.VDW>
-28.4021

>  <SCORE.INTER.norm>
-0.695419

>  <SCORE.INTRA>
2.48681

>  <SCORE.INTRA.DIHEDRAL>
5.84604

>  <SCORE.INTRA.DIHEDRAL.0>
5.84004

>  <SCORE.INTRA.POLAR>
0.136432

>  <SCORE.INTRA.POLAR.0>
-0.136432

>  <SCORE.INTRA.REPUL>
0

>  <SCORE.INTRA.REPUL.0>
0

>  <SCORE.INTRA.VDW>
-0.900074

>  <SCORE.INTRA.VDW.0>
-0.289917

>  <SCORE.INTRA.norm>
0.077713

>  <SCORE.RESTR>
0

>  <SCORE.RESTR.CAVITY>
0

>  <SCORE.RESTR.norm>
0

>  <SCORE.SYSTEM>
-0.967327

>  <SCORE.SYSTEM.CONST>
0

>  <SCORE.SYSTEM.DIHEDRAL>
0.0269261

>  <SCORE.SYSTEM.VDW>
-0.98079

>  <SCORE.SYSTEM.norm>
-0.030229

>  <SCORE.heavy>
32

>  <SCORE.norm>
-0.647935

$$$$
Baicalin.pdb
  RxDock  02242110263D
librxdock.so/0.1.0
 38 41  0  0  0  0  0  0  0  0999 V2000
  -45.7384   -0.7912   17.6024 O   0  0  0  0  0  0
  -45.3999   -2.5843   16.1478 O   0  0  0  0  0  0
  -41.9467   -1.1496   19.1423 O   0  0  0  0  0  0
  -43.1820   -3.3998   17.6984 O   0  0  0  0  0  0
  -43.9814    0.3145   20.6135 O   0  0  0  0  0  0
  -46.3290    1.6401   20.0592 O   0  0  0  0  0  0
  -46.6762    1.5793   17.8072 O   0  0  0  0  0  0
  -49.9792   -3.6663   15.5535 O   0  0  0  0  0  0
  -45.6663   -0.3786   14.5003 O   0  0  0  0  0  0
  -48.0764    0.2104   13.3649 O   0  0  0  0  0  0
  -50.5823   -0.4714   13.0980 O   0  0  0  0  0  0
  -43.3476   -1.4190   19.0676 C   0  0  0  0  0  0
  -43.6724   -2.0589   17.7176 C   0  0  0  0  0  0
  -44.0942   -0.0983   19.2533 C   0  0  0  0  0  0
  -45.1811   -2.0968   17.4721 C   0  0  0  0  0  0
  -45.5709   -0.2595   18.9120 C   0  0  0  0  0  0
  -46.2500    1.0689   18.8326 C   0  0  0  0  0  0
  -46.6048   -2.2905   15.5802 C   0  0  0  0  0  0
  -47.7012   -3.1132   15.8388 C   0  0  0  0  0  0
  -46.7443   -1.1785   14.7484 C   0  0  0  0  0  0
  -48.9390   -2.8212   15.2634 C   0  0  0  0  0  0
  -49.0752   -1.7104   14.4328 C   0  0  0  0  0  0
  -47.9798   -0.8840   14.1716 C   0  0  0  0  0  0
  -50.3905   -1.4271   13.8381 C   0  0  0  0  0  0
  -51.2225   -3.3968   15.0017 C   0  0  0  0  0  0
  -51.4787   -2.3638   14.1842 C   0  0  0  0  0  0
  -52.2686   -4.3707   15.3751 C   0  0  0  0  0  0
  -51.9872   -5.3842   16.2952 C   0  0  0  0  0  0
  -53.5435   -4.2821   14.8121 C   0  0  0  0  0  0
  -52.9758   -6.3031   16.6484 C   0  0  0  0  0  0
  -54.5321   -5.2010   15.1653 C   0  0  0  0  0  0
  -54.2478   -6.2115   16.0842 C   0  0  0  0  0  0
  -41.4764   -1.9701   18.9203 H   0  0  0  0  0  0
  -42.2149   -3.3587   17.6149 H   0  0  0  0  0  0
  -44.3092   -0.4081   21.1761 H   0  0  0  0  0  0
  -46.7579    2.5217   20.0263 H   0  0  0  0  0  0
  -45.9564    0.3645   13.9430 H   0  0  0  0  0  0
  -48.9433    0.2446   12.9325 H   0  0  0  0  0  0
  1 15  1  0  0  0
  1 16  1  0  0  0
  2 15  1  0  0  0
  2 18  1  0  0  0
  3 12  1  0  0  0
  3 33  1  0  0  0
  4 13  1  0  0  0
  4 34  1  0  0  0
  5 14  1  0  0  0
  5 35  1  0  0  0
  6 17  1  0  0  0
  6 36  1  0  0  0
  7 17  2  0  0  0
  8 21  1  0  0  0
  8 25  1  0  0  0
  9 20  1  0  0  0
  9 37  1  0  0  0
 10 23  1  0  0  0
 10 38  1  0  0  0
 11 24  2  0  0  0
 12 13  1  0  0  0
 13 15  1  0  0  0
 14 12  1  0  0  0
 16 14  1  0  0  0
 16 17  1  0  0  0
 18 19  2  0  0  0
 18 20  1  0  0  0
 19 21  1  0  0  0
 20 23  2  0  0  0
 21 22  2  0  0  0
 22 23  1  0  0  0
 22 24  1  0  0  0
 24 26  1  0  0  0
 25 26  2  0  0  0
 25 27  1  0  0  0
 27 28  2  0  0  0
 27 29  1  0  0  0
 28 30  1  0  0  0
 29 31  2  0  0  0
 30 32  2  0  0  0
 31 32  1  0  0  0
M  END
>  <CHROM.0>
174.76956945,61.61861947,178.49381710

>  <CHROM.1>
-38.82466505,-84.87724989,-51.94884697,-73.58891011,-55.52136212,-0.88420260
-177.19434761,172.45299081,172.20226082,4.93850694,-47.78665639,-1.90672795
16.45695658,-0.01092642,0.55712919,2.36795030

>  <Name>
Baicalin.pdb

>  <RI>
-6.60573e+08

>  <Rbt.Current_Directory>
/root/miniconda3/envs/rdock/share/rxdock-2013.1.1_148c5bd1-0/data/ligands/prepped_ligands/Baicalin

>  <Rbt.Executable>
rbdock/0.1.0

>  <Rbt.Library>
librxdock.so/0.1.0

>  <Rbt.Parameter_File>
/root/miniconda3/envs/rdock/share/rxdock-2013.1.1_148c5bd1-0/data/scripts/dock.prm

>  <Rbt.Receptor>
def.prm

>  <SCORE>
-24.0983

>  <SCORE.INTER>
-24.5336

>  <SCORE.INTER.CONST>
1

>  <SCORE.INTER.POLAR>
-2.50548

>  <SCORE.INTER.REPUL>
0.0103273

>  <SCORE.INTER.ROT>
4

>  <SCORE.INTER.VDW>
-25.4666

>  <SCORE.INTER.norm>
-0.766675

>  <SCORE.INTRA>
1.4048

>  <SCORE.INTRA.DIHEDRAL>
3.22237

>  <SCORE.INTRA.DIHEDRAL.0>
5.84004

>  <SCORE.INTRA.POLAR>
-0.0769224

>  <SCORE.INTRA.POLAR.0>
-0.136432

>  <SCORE.INTRA.REPUL>
0

>  <SCORE.INTRA.REPUL.0>
0

>  <SCORE.INTRA.VDW>
0.0551505

>  <SCORE.INTRA.VDW.0>
-0.289917

>  <SCORE.INTRA.norm>
0.0439

>  <SCORE.RESTR>
0

>  <SCORE.RESTR.CAVITY>
0

>  <SCORE.RESTR.norm>
0

>  <SCORE.SYSTEM>
-0.969491

>  <SCORE.SYSTEM.CONST>
0

>  <SCORE.SYSTEM.DIHEDRAL>
0.090839

>  <SCORE.SYSTEM.VDW>
-1.01491

>  <SCORE.SYSTEM.norm>
-0.0302966

>  <SCORE.heavy>
32

>  <SCORE.norm>
-0.753072

$$$$
Baicalin.pdb
  RxDock  02242110263D
librxdock.so/0.1.0
 38 41  0  0  0  0  0  0  0  0999 V2000
  -46.0321   -1.1751   18.0262 O   0  0  0  0  0  0
  -45.5347   -2.7142   16.3441 O   0  0  0  0  0  0
  -42.0519   -0.6067   18.8697 O   0  0  0  0  0  0
  -42.9319   -3.0064   17.4065 O   0  0  0  0  0  0
  -44.0740    0.1618   20.8110 O   0  0  0  0  0  0
  -46.5093    1.4102   18.6583 O   0  0  0  0  0  0
  -47.6647    0.3915   20.3385 O   0  0  0  0  0  0
  -48.9595   -5.6063   17.8933 O   0  0  0  0  0  0
  -47.0852   -1.9745   14.1763 O   0  0  0  0  0  0
  -49.5775   -3.0326   13.8395 O   0  0  0  0  0  0
  -51.3989   -4.6540   14.7719 O   0  0  0  0  0  0
  -43.3284   -1.2352   18.9974 C   0  0  0  0  0  0
  -43.7306   -1.8495   17.6564 C   0  0  0  0  0  0
  -44.3338   -0.1769   19.4505 C   0  0  0  0  0  0
  -45.1997   -2.2730   17.6604 C   0  0  0  0  0  0
  -45.7597   -0.7042   19.3415 C   0  0  0  0  0  0
  -46.7530    0.3967   19.5245 C   0  0  0  0  0  0
  -46.7804   -3.2436   16.1760 C   0  0  0  0  0  0
  -47.2646   -4.1616   17.1081 C   0  0  0  0  0  0
  -47.5666   -2.8733   15.0839 C   0  0  0  0  0  0
  -48.5385   -4.7090   16.9458 C   0  0  0  0  0  0
  -49.3210   -4.3378   15.8540 C   0  0  0  0  0  0
  -48.8399   -3.4187   14.9187 C   0  0  0  0  0  0
  -50.6588   -4.9316   15.7064 C   0  0  0  0  0  0
  -50.2236   -6.1610   17.7619 C   0  0  0  0  0  0
  -51.0674   -5.8886   16.7544 C   0  0  0  0  0  0
  -50.5741   -7.1164   18.8327 C   0  0  0  0  0  0
  -49.7799   -8.2449   19.0535 C   0  0  0  0  0  0
  -51.6991   -6.8955   19.6301 C   0  0  0  0  0  0
  -50.1107   -9.1463   20.0656 C   0  0  0  0  0  0
  -52.0298   -7.7969   20.6423 C   0  0  0  0  0  0
  -51.2347   -8.9225   20.8601 C   0  0  0  0  0  0
  -41.8004   -0.2696   19.7454 H   0  0  0  0  0  0
  -43.2125   -3.3798   16.5546 H   0  0  0  0  0  0
  -44.6717    0.8873   21.0605 H   0  0  0  0  0  0
  -47.1394    2.1528   18.7759 H   0  0  0  0  0  0
  -47.0476   -2.4069   13.3053 H   0  0  0  0  0  0
  -49.0772   -2.4171   13.2823 H   0  0  0  0  0  0
  1 15  1  0  0  0
  1 16  1  0  0  0
  2 15  1  0  0  0
  2 18  1  0  0  0
  3 12  1  0  0  0
  3 33  1  0  0  0
  4 13  1  0  0  0
  4 34  1  0  0  0
  5 14  1  0  0  0
  5 35  1  0  0  0
  6 17  1  0  0  0
  6 36  1  0  0  0
  7 17  2  0  0  0
  8 21  1  0  0  0
  8 25  1  0  0  0
  9 20  1  0  0  0
  9 37  1  0  0  0
 10 23  1  0  0  0
 10 38  1  0  0  0
 11 24  2  0  0  0
 12 13  1  0  0  0
 13 15  1  0  0  0
 14 12  1  0  0  0
 16 14  1  0  0  0
 16 17  1  0  0  0
 18 19  2  0  0  0
 18 20  1  0  0  0
 19 21  1  0  0  0
 20 23  2  0  0  0
 21 22  2  0  0  0
 22 23  1  0  0  0
 22 24  1  0  0  0
 24 26  1  0  0  0
 25 26  2  0  0  0
 25 27  1  0  0  0
 27 28  2  0  0  0
 27 29  1  0  0  0
 28 30  1  0  0  0
 29 31  2  0  0  0
 30 32  2  0  0  0
 31 32  1  0  0  0
M  END
>  <CHROM.0>
-60.18861595,178.99457330,177.41850496

>  <CHROM.1>
-65.14317223,-45.05379738,-176.90890121,179.53932564,175.31912792,1.40536373
119.36019954,2.03991797,-64.64355201,-58.41994714,-47.56781765,-3.40843719
17.76801416,-0.21613231,0.76979270,1.93961567

>  <Name>
Baicalin.pdb

>  <RI>
-6.60573e+08

>  <Rbt.Current_Directory>
/root/miniconda3/envs/rdock/share/rxdock-2013.1.1_148c5bd1-0/data/ligands/prepped_ligands/Baicalin

>  <Rbt.Executable>
rbdock/0.1.0

>  <Rbt.Library>
librxdock.so/0.1.0

>  <Rbt.Parameter_File>
/root/miniconda3/envs/rdock/share/rxdock-2013.1.1_148c5bd1-0/data/scripts/dock.prm

>  <Rbt.Receptor>
def.prm

>  <SCORE>
-13.2999

>  <SCORE.INTER>
-14.27

>  <SCORE.INTER.CONST>
1

>  <SCORE.INTER.POLAR>
-1.16944

>  <SCORE.INTER.REPUL>
0.0232788

>  <SCORE.INTER.ROT>
4

>  <SCORE.INTER.VDW>
-19.8103

>  <SCORE.INTER.norm>
-0.445937

>  <SCORE.INTRA>
2.05852

>  <SCORE.INTRA.DIHEDRAL>
4.87404

>  <SCORE.INTRA.DIHEDRAL.0>
5.84004

>  <SCORE.INTRA.POLAR>
0.11793

>  <SCORE.INTRA.POLAR.0>
-0.136432

>  <SCORE.INTRA.REPUL>
0

>  <SCORE.INTRA.REPUL.0>
0

>  <SCORE.INTRA.VDW>
-0.779459

>  <SCORE.INTRA.VDW.0>
-0.289917

>  <SCORE.INTRA.norm>
0.0643289

>  <SCORE.RESTR>
0

>  <SCORE.RESTR.CAVITY>
0

>  <SCORE.RESTR.norm>
0

>  <SCORE.SYSTEM>
-1.08849

>  <SCORE.SYSTEM.CONST>
0

>  <SCORE.SYSTEM.DIHEDRAL>
0.0239317

>  <SCORE.SYSTEM.VDW>
-1.10045

>  <SCORE.SYSTEM.norm>
-0.0340152

>  <SCORE.heavy>
32

>  <SCORE.norm>
-0.415623

$$$$
Baicalin.pdb
  RxDock  02242110263D
librxdock.so/0.1.0
 38 41  0  0  0  0  0  0  0  0999 V2000
  -49.5720   -5.9036   16.9351 O   0  0  0  0  0  0
  -50.2569   -4.6544   15.0868 O   0  0  0  0  0  0
  -53.1331   -7.9490   17.0423 O   0  0  0  0  0  0
  -52.9372   -5.3823   15.6112 O   0  0  0  0  0  0
  -51.4085   -7.9082   19.3816 O   0  0  0  0  0  0
  -47.7193   -7.0849   17.6493 O   0  0  0  0  0  0
  -48.4368   -7.5675   19.7583 O   0  0  0  0  0  0
  -46.7370   -2.4685   17.3944 O   0  0  0  0  0  0
  -50.0568   -2.8550   12.9958 O   0  0  0  0  0  0
  -48.2062   -0.8515   13.0740 O   0  0  0  0  0  0
  -46.2819    0.2836   14.4246 O   0  0  0  0  0  0
  -52.2384   -6.8837   17.3670 C   0  0  0  0  0  0
  -51.8325   -6.1511   16.0880 C   0  0  0  0  0  0
  -51.0245   -7.4845   18.0753 C   0  0  0  0  0  0
  -50.6617   -5.2011   16.3425 C   0  0  0  0  0  0
  -49.9088   -6.4539   18.2037 C   0  0  0  0  0  0
  -48.6353   -7.0964   18.6482 C   0  0  0  0  0  0
  -49.3319   -3.6528   15.1265 C   0  0  0  0  0  0
  -48.4879   -3.5451   16.2320 C   0  0  0  0  0  0
  -49.2269   -2.7426   14.0737 C   0  0  0  0  0  0
  -47.5373   -2.5241   16.2824 C   0  0  0  0  0  0
  -47.4352   -1.6164   15.2299 C   0  0  0  0  0  0
  -48.2782   -1.7210   14.1212 C   0  0  0  0  0  0
  -46.4259   -0.5491   15.3100 C   0  0  0  0  0  0
  -45.7786   -1.4690   17.4688 C   0  0  0  0  0  0
  -45.5865   -0.5344   16.5250 C   0  0  0  0  0  0
  -44.9758   -1.4984   18.7086 C   0  0  0  0  0  0
  -45.5283   -1.0536   19.9127 C   0  0  0  0  0  0
  -43.6624   -1.9722   18.6834 C   0  0  0  0  0  0
  -44.7702   -1.0826   21.0835 C   0  0  0  0  0  0
  -42.9043   -2.0011   19.8543 C   0  0  0  0  0  0
  -43.4589   -1.5564   21.0547 C   0  0  0  0  0  0
  -52.7138   -8.4853   16.3493 H   0  0  0  0  0  0
  -53.6440   -6.0023   15.3664 H   0  0  0  0  0  0
  -52.0412   -8.6408   19.2870 H   0  0  0  0  0  0
  -48.0823   -6.7004   16.8231 H   0  0  0  0  0  0
  -49.5502   -2.6384   12.1936 H   0  0  0  0  0  0
  -48.4186   -1.2977   12.2401 H   0  0  0  0  0  0
  1 15  1  0  0  0
  1 16  1  0  0  0
  2 15  1  0  0  0
  2 18  1  0  0  0
  3 12  1  0  0  0
  3 33  1  0  0  0
  4 13  1  0  0  0
  4 34  1  0  0  0
  5 14  1  0  0  0
  5 35  1  0  0  0
  6 17  1  0  0  0
  6 36  1  0  0  0
  7 17  2  0  0  0
  8 21  1  0  0  0
  8 25  1  0  0  0
  9 20  1  0  0  0
  9 37  1  0  0  0
 10 23  1  0  0  0
 10 38  1  0  0  0
 11 24  2  0  0  0
 12 13  1  0  0  0
 13 15  1  0  0  0
 14 12  1  0  0  0
 16 14  1  0  0  0
 16 17  1  0  0  0
 18 19  2  0  0  0
 18 20  1  0  0  0
 19 21  1  0  0  0
 20 23  2  0  0  0
 21 22  2  0  0  0
 22 23  1  0  0  0
 22 24  1  0  0  0
 24 26  1  0  0  0
 25 26  2  0  0  0
 25 27  1  0  0  0
 27 28  2  0  0  0
 27 29  1  0  0  0
 28 30  1  0  0  0
 29 31  2  0  0  0
 30 32  2  0  0  0
 31 32  1  0  0  0
M  END
>  <CHROM.0>
-49.90339792,-62.66960702,-56.67677035

>  <CHROM.1>
-67.66630550,23.42584475,52.40923285,-64.36948424,65.87912938,177.35987631
-142.02107145,-33.49504675,-8.17970039,-75.22722856,-48.34655496,-3.84872878
16.93762620,-2.78101461,-0.66060704,-0.88125259

>  <Name>
Baicalin.pdb

>  <RI>
-6.60573e+08

>  <Rbt.Current_Directory>
/root/miniconda3/envs/rdock/share/rxdock-2013.1.1_148c5bd1-0/data/ligands/prepped_ligands/Baicalin

>  <Rbt.Executable>
rbdock/0.1.0

>  <Rbt.Library>
librxdock.so/0.1.0

>  <Rbt.Parameter_File>
/root/miniconda3/envs/rdock/share/rxdock-2013.1.1_148c5bd1-0/data/scripts/dock.prm

>  <Rbt.Receptor>
def.prm

>  <SCORE>
-16.7685

>  <SCORE.INTER>
-22.1507

>  <SCORE.INTER.CONST>
1

>  <SCORE.INTER.POLAR>
-2.85982

>  <SCORE.INTER.REPUL>
0.06493

>  <SCORE.INTER.ROT>
4

>  <SCORE.INTER.VDW>
-22.1519

>  <SCORE.INTER.norm>
-0.692209

>  <SCORE.INTRA>
6.27583

>  <SCORE.INTRA.DIHEDRAL>
5.94781

>  <SCORE.INTRA.DIHEDRAL.0>
5.84004

>  <SCORE.INTRA.POLAR>
-0.204036

>  <SCORE.INTRA.POLAR.0>
-0.136432

>  <SCORE.INTRA.REPUL>
0

>  <SCORE.INTRA.REPUL.0>
0

>  <SCORE.INTRA.VDW>
3.99565

>  <SCORE.INTRA.VDW.0>
-0.289917

>  <SCORE.INTRA.norm>
0.19612

>  <SCORE.RESTR>
0

>  <SCORE.RESTR.CAVITY>
0

>  <SCORE.RESTR.norm>
0

>  <SCORE.SYSTEM>
-0.893645

>  <SCORE.SYSTEM.CONST>
0

>  <SCORE.SYSTEM.DIHEDRAL>
0.29839

>  <SCORE.SYSTEM.POLAR>
-0.00837884

>  <SCORE.SYSTEM.VDW>
-1.01435

>  <SCORE.SYSTEM.norm>
-0.0279264

>  <SCORE.heavy>
32

>  <SCORE.norm>
-0.524015

$$$$
Baicalin.pdb
  RxDock  02242110263D
librxdock.so/0.1.0
 38 41  0  0  0  0  0  0  0  0999 V2000
  -50.9629   -4.7159   17.1899 O   0  0  0  0  0  0
  -49.2301   -5.6621   15.9457 O   0  0  0  0  0  0
  -48.9489   -5.3334   20.7168 O   0  0  0  0  0  0
  -48.2111   -6.8473   18.3006 O   0  0  0  0  0  0
  -51.8157   -4.8545   20.7437 O   0  0  0  0  0  0
  -53.6332   -3.6023   19.1776 O   0  0  0  0  0  0
  -52.6622   -2.8119   17.2728 O   0  0  0  0  0  0
  -46.0188   -2.3288   16.9797 O   0  0  0  0  0  0
  -50.2533   -4.0998   13.9055 O   0  0  0  0  0  0
  -49.1805   -1.6473   13.3772 O   0  0  0  0  0  0
  -47.3788    0.1269   14.0266 O   0  0  0  0  0  0
  -49.8351   -5.6790   19.6510 C   0  0  0  0  0  0
  -49.0620   -5.7011   18.3321 C   0  0  0  0  0  0
  -50.9628   -4.6479   19.6198 C   0  0  0  0  0  0
  -50.0113   -5.7759   17.1358 C   0  0  0  0  0  0
  -51.7889   -4.7887   18.3466 C   0  0  0  0  0  0
  -52.7166   -3.6295   18.1795 C   0  0  0  0  0  0
  -48.6937   -4.4362   15.6822 C   0  0  0  0  0  0
  -47.6240   -3.9782   16.4516 C   0  0  0  0  0  0
  -49.2064   -3.6442   14.6536 C   0  0  0  0  0  0
  -47.0672   -2.7252   16.1899 C   0  0  0  0  0  0
  -47.5816   -1.9364   15.1625 C   0  0  0  0  0  0
  -48.6524   -2.3915   14.3897 C   0  0  0  0  0  0
  -46.9771   -0.6193   14.9098 C   0  0  0  0  0  0
  -45.4410   -1.0916   16.7381 C   0  0  0  0  0  0
  -45.8489   -0.2403   15.7841 C   0  0  0  0  0  0
  -44.3245   -0.7627   17.6478 C   0  0  0  0  0  0
  -43.4954   -1.7764   18.1357 C   0  0  0  0  0  0
  -44.0914    0.5621   18.0229 C   0  0  0  0  0  0
  -42.4404   -1.4653   18.9940 C   0  0  0  0  0  0
  -43.0364    0.8732   18.8812 C   0  0  0  0  0  0
  -42.2105   -0.1411   19.3664 C   0  0  0  0  0  0
  -49.4507   -5.3881   21.5469 H   0  0  0  0  0  0
  -48.7763   -7.6356   18.3557 H   0  0  0  0  0  0
  -51.3150   -4.6312   21.5471 H   0  0  0  0  0  0
  -54.3228   -2.9218   19.0238 H   0  0  0  0  0  0
  -50.5078   -4.9792   14.2357 H   0  0  0  0  0  0
  -49.8503   -2.1523   12.8912 H   0  0  0  0  0  0
  1 15  1  0  0  0
  1 16  1  0  0  0
  2 15  1  0  0  0
  2 18  1  0  0  0
  3 12  1  0  0  0
  3 33  1  0  0  0
  4 13  1  0  0  0
  4 34  1  0  0  0
  5 14  1  0  0  0
  5 35  1  0  0  0
  6 17  1  0  0  0
  6 36  1  0  0  0
  7 17  2  0  0  0
  8 21  1  0  0  0
  8 25  1  0  0  0
  9 20  1  0  0  0
  9 37  1  0  0  0
 10 23  1  0  0  0
 10 38  1  0  0  0
 11 24  2  0  0  0
 12 13  1  0  0  0
 13 15  1  0  0  0
 14 12  1  0  0  0
 16 14  1  0  0  0
 16 17  1  0  0  0
 18 19  2  0  0  0
 18 20  1  0  0  0
 19 21  1  0  0  0
 20 23  2  0  0  0
 21 22  2  0  0  0
 22 23  1  0  0  0
 22 24  1  0  0  0
 24 26  1  0  0  0
 25 26  2  0  0  0
 25 27  1  0  0  0
 27 28  2  0  0  0
 27 29  1  0  0  0
 28 30  1  0  0  0
 29 31  2  0  0  0
 30 32  2  0  0  0
 31 32  1  0  0  0
M  END
>  <CHROM.0>
-49.12545902,-179.90164110,55.36462448

>  <CHROM.1>
49.23016204,72.56472383,-176.08146671,61.27549366,67.53281772,7.68697670
0.42131109,-5.96886807,176.46545876,32.75441871,-48.27328189,-3.08688883
17.21061537,2.83728550,0.46308230,1.98257166

>  <Name>
Baicalin.pdb

>  <RI>
-6.60573e+08

>  <Rbt.Current_Directory>
/root/miniconda3/envs/rdock/share/rxdock-2013.1.1_148c5bd1-0/data/ligands/prepped_ligands/Baicalin

>  <Rbt.Executable>
rbdock/0.1.0

>  <Rbt.Library>
librxdock.so/0.1.0

>  <Rbt.Parameter_File>
/root/miniconda3/envs/rdock/share/rxdock-2013.1.1_148c5bd1-0/data/scripts/dock.prm

>  <Rbt.Receptor>
def.prm

>  <SCORE>
-14.813

>  <SCORE.INTER>
-14.6317

>  <SCORE.INTER.CONST>
1

>  <SCORE.INTER.POLAR>
-1.20716

>  <SCORE.INTER.REPUL>
0.0242304

>  <SCORE.INTER.ROT>
4

>  <SCORE.INTER.VDW>
-20.0485

>  <SCORE.INTER.norm>
-0.457239

>  <SCORE.INTRA>
0.688272

>  <SCORE.INTRA.DIHEDRAL>
2.10178

>  <SCORE.INTRA.DIHEDRAL.0>
5.84004

>  <SCORE.INTRA.POLAR>
-0.113836

>  <SCORE.INTRA.POLAR.0>
-0.136432

>  <SCORE.INTRA.REPUL>
0

>  <SCORE.INTRA.REPUL.0>
0

>  <SCORE.INTRA.VDW>
0.0244233

>  <SCORE.INTRA.VDW.0>
-0.289917

>  <SCORE.INTRA.norm>
0.0215085

>  <SCORE.RESTR>
0

>  <SCORE.RESTR.CAVITY>
0

>  <SCORE.RESTR.norm>
0

>  <SCORE.SYSTEM>
-0.869637

>  <SCORE.SYSTEM.CONST>
0

>  <SCORE.SYSTEM.DIHEDRAL>
0.333107

>  <SCORE.SYSTEM.VDW>
-1.03619

>  <SCORE.SYSTEM.norm>
-0.0271762

>  <SCORE.heavy>
32

>  <SCORE.norm>
-0.462907

$$$$
Baicalin.pdb
  RxDock  02242110263D
librxdock.so/0.1.0
 38 41  0  0  0  0  0  0  0  0999 V2000
  -46.3783    0.4852   17.5958 O   0  0  0  0  0  0
  -45.4133   -0.9431   16.0227 O   0  0  0  0  0  0
  -42.6960    1.6652   18.9831 O   0  0  0  0  0  0
  -42.9734   -0.8312   17.4451 O   0  0  0  0  0  0
  -45.0674    2.0907   20.6091 O   0  0  0  0  0  0
  -48.6069    1.3243   19.5513 O   0  0  0  0  0  0
  -47.5444    3.0484   18.5052 O   0  0  0  0  0  0
  -47.9559   -4.8851   16.7226 O   0  0  0  0  0  0
  -47.1948   -0.0902   14.0865 O   0  0  0  0  0  0
  -49.3671   -1.6119   13.4462 O   0  0  0  0  0  0
  -50.6941   -3.8135   13.9021 O   0  0  0  0  0  0
  -43.8633    0.8430   18.9387 C   0  0  0  0  0  0
  -43.9707    0.1838   17.5634 C   0  0  0  0  0  0
  -45.0760    1.7264   19.2305 C   0  0  0  0  0  0
  -45.3409   -0.4653   17.3666 C   0  0  0  0  0  0
  -46.3717    0.9824   18.9294 C   0  0  0  0  0  0
  -47.5410    1.9120   18.9549 C   0  0  0  0  0  0
  -46.4989   -1.7043   15.7028 C   0  0  0  0  0  0
  -46.7017   -2.9170   16.3617 C   0  0  0  0  0  0
  -47.4007   -1.2781   14.7267 C   0  0  0  0  0  0
  -47.8099   -3.7034   16.0423 C   0  0  0  0  0  0
  -48.7085   -3.2755   15.0668 C   0  0  0  0  0  0
  -48.5090   -2.0618   14.4049 C   0  0  0  0  0  0
  -49.8666   -4.1249   14.7486 C   0  0  0  0  0  0
  -49.0514   -5.6837   16.4313 C   0  0  0  0  0  0
  -49.9814   -5.3845   15.5110 C   0  0  0  0  0  0
  -49.1092   -6.9331   17.2173 C   0  0  0  0  0  0
  -50.3416   -7.4418   17.6362 C   0  0  0  0  0  0
  -47.9335   -7.6123   17.5438 C   0  0  0  0  0  0
  -50.3959   -8.6224   18.3776 C   0  0  0  0  0  0
  -47.9878   -8.7929   18.2851 C   0  0  0  0  0  0
  -49.2197   -9.2981   18.7017 C   0  0  0  0  0  0
  -41.9239    1.0877   18.8648 H   0  0  0  0  0  0
  -43.1492   -1.4982   18.1292 H   0  0  0  0  0  0
  -45.1552    1.2781   21.1362 H   0  0  0  0  0  0
  -49.3788    1.9277   19.6001 H   0  0  0  0  0  0
  -47.9464    0.0723   13.4901 H   0  0  0  0  0  0
  -48.9154   -1.5237   12.5931 H   0  0  0  0  0  0
  1 15  1  0  0  0
  1 16  1  0  0  0
  2 15  1  0  0  0
  2 18  1  0  0  0
  3 12  1  0  0  0
  3 33  1  0  0  0
  4 13  1  0  0  0
  4 34  1  0  0  0
  5 14  1  0  0  0
  5 35  1  0  0  0
  6 17  1  0  0  0
  6 36  1  0  0  0
  7 17  2  0  0  0
  8 21  1  0  0  0
  8 25  1  0  0  0
  9 20  1  0  0  0
  9 37  1  0  0  0
 10 23  1  0  0  0
 10 38  1  0  0  0
 11 24  2  0  0  0
 12 13  1  0  0  0
 13 15  1  0  0  0
 14 12  1  0  0  0
 16 14  1  0  0  0
 16 17  1  0  0  0
 18 19  2  0  0  0
 18 20  1  0  0  0
 19 21  1  0  0  0
 20 23  2  0  0  0
 21 22  2  0  0  0
 22 23  1  0  0  0
 22 24  1  0  0  0
 24 26  1  0  0  0
 25 26  2  0  0  0
 25 27  1  0  0  0
 27 28  2  0  0  0
 27 29  1  0  0  0
 28 30  1  0  0  0
 29 31  2  0  0  0
 30 32  2  0  0  0
 31 32  1  0  0  0
M  END
>  <CHROM.0>
-178.13401407,-58.90395775,-60.64023142

>  <CHROM.1>
-67.62049419,-62.01210917,-62.75533753,61.75096598,-62.89354180,-1.41014103
-176.18748512,61.81207966,101.14458558,144.00965957,-47.27826746,-2.21209821
17.04295751,0.76684213,-0.90641487,-0.47522462

>  <Name>
Baicalin.pdb

>  <RI>
-6.60573e+08

>  <Rbt.Current_Directory>
/root/miniconda3/envs/rdock/share/rxdock-2013.1.1_148c5bd1-0/data/ligands/prepped_ligands/Baicalin

>  <Rbt.Executable>
rbdock/0.1.0

>  <Rbt.Library>
librxdock.so/0.1.0

>  <Rbt.Parameter_File>
/root/miniconda3/envs/rdock/share/rxdock-2013.1.1_148c5bd1-0/data/scripts/dock.prm

>  <Rbt.Receptor>
def.prm

>  <SCORE>
-16.4464

>  <SCORE.INTER>
-17.7983

>  <SCORE.INTER.CONST>
1

>  <SCORE.INTER.POLAR>
-1.76972

>  <SCORE.INTER.REPUL>
0.091644

>  <SCORE.INTER.ROT>
4

>  <SCORE.INTER.VDW>
-21.6394

>  <SCORE.INTER.norm>
-0.556196

>  <SCORE.INTRA>
2.3879

>  <SCORE.INTRA.DIHEDRAL>
5.79071

>  <SCORE.INTRA.DIHEDRAL.0>
5.84004

>  <SCORE.INTRA.POLAR>
0.136432

>  <SCORE.INTRA.POLAR.0>
-0.136432

>  <SCORE.INTRA.REPUL>
0

>  <SCORE.INTRA.REPUL.0>
0

>  <SCORE.INTRA.VDW>
-0.971324

>  <SCORE.INTRA.VDW.0>
-0.289917

>  <SCORE.INTRA.norm>
0.0746218

>  <SCORE.RESTR>
0

>  <SCORE.RESTR.CAVITY>
0

>  <SCORE.RESTR.norm>
0

>  <SCORE.SYSTEM>
-1.03604

>  <SCORE.SYSTEM.CONST>
0

>  <SCORE.SYSTEM.DIHEDRAL>
0.0148679

>  <SCORE.SYSTEM.VDW>
-1.04347

>  <SCORE.SYSTEM.norm>
-0.0323762

>  <SCORE.heavy>
32

>  <SCORE.norm>
-0.513951

$$$$
Baicalin.pdb
  RxDock  02242110263D
librxdock.so/0.1.0
 38 41  0  0  0  0  0  0  0  0999 V2000
  -50.1105   -4.7109   18.6058 O   0  0  0  0  0  0
  -50.2291   -3.4165   16.6677 O   0  0  0  0  0  0
  -52.9710   -7.3075   17.2088 O   0  0  0  0  0  0
  -52.7098   -4.6168   16.0399 O   0  0  0  0  0  0
  -52.3538   -7.2139   20.0476 O   0  0  0  0  0  0
  -49.3121   -4.8908   21.3354 O   0  0  0  0  0  0
  -49.2609   -7.0274   20.5430 O   0  0  0  0  0  0
  -46.4080   -0.9637   18.0378 O   0  0  0  0  0  0
  -51.8176   -1.1682   16.9358 O   0  0  0  0  0  0
  -50.7308    1.1976   17.7524 O   0  0  0  0  0  0
  -48.5704    2.4586   18.4994 O   0  0  0  0  0  0
  -52.4948   -6.1477   17.8935 C   0  0  0  0  0  0
  -51.7611   -5.2387   16.9071 C   0  0  0  0  0  0
  -51.5711   -6.6092   19.0204 C   0  0  0  0  0  0
  -50.9874   -4.1405   17.6373 C   0  0  0  0  0  0
  -50.8121   -5.4287   19.6149 C   0  0  0  0  0  0
  -49.7226   -5.8960   20.5242 C   0  0  0  0  0  0
  -49.6854   -2.2342   17.0762 C   0  0  0  0  0  0
  -48.3206   -2.1702   17.3572 C   0  0  0  0  0  0
  -50.4828   -1.0969   17.2128 C   0  0  0  0  0  0
  -47.7540   -0.9649   17.7755 C   0  0  0  0  0  0
  -48.5528    0.1689   17.9115 C   0  0  0  0  0  0
  -49.9198    0.1089   17.6307 C   0  0  0  0  0  0
  -47.9300    1.4254   18.3558 C   0  0  0  0  0  0
  -45.8164    0.2213   18.4481 C   0  0  0  0  0  0
  -46.4781    1.3760   18.6213 C   0  0  0  0  0  0
  -44.3663    0.1099   18.7070 C   0  0  0  0  0  0
  -43.7212   -1.1217   18.5660 C   0  0  0  0  0  0
  -43.6334    1.2345   19.0922 C   0  0  0  0  0  0
  -42.3515   -1.2263   18.8096 C   0  0  0  0  0  0
  -42.2637    1.1299   19.3358 C   0  0  0  0  0  0
  -41.6227   -0.1011   19.1939 C   0  0  0  0  0  0
  -52.2132   -7.7163   16.7591 H   0  0  0  0  0  0
  -53.1203   -5.3149   15.5032 H   0  0  0  0  0  0
  -51.7492   -7.5297   20.7409 H   0  0  0  0  0  0
  -48.5770   -5.1698   21.9220 H   0  0  0  0  0  0
  -52.2643   -0.4273   17.3815 H   0  0  0  0  0  0
  -50.2649    1.9279   18.1874 H   0  0  0  0  0  0
  1 15  1  0  0  0
  1 16  1  0  0  0
  2 15  1  0  0  0
  2 18  1  0  0  0
  3 12  1  0  0  0
  3 33  1  0  0  0
  4 13  1  0  0  0
  4 34  1  0  0  0
  5 14  1  0  0  0
  5 35  1  0  0  0
  6 17  1  0  0  0
  6 36  1  0  0  0
  7 17  2  0  0  0
  8 21  1  0  0  0
  8 25  1  0  0  0
  9 20  1  0  0  0
  9 37  1  0  0  0
 10 23  1  0  0  0
 10 38  1  0  0  0
 11 24  2  0  0  0
 12 13  1  0  0  0
 13 15  1  0  0  0
 14 12  1  0  0  0
 16 14  1  0  0  0
 16 17  1  0  0  0
 18 19  2  0  0  0
 18 20  1  0  0  0
 19 21  1  0  0  0
 20 23  2  0  0  0
 21 22  2  0  0  0
 22 23  1  0  0  0
 22 24  1  0  0  0
 24 26  1  0  0  0
 25 26  2  0  0  0
 25 27  1  0  0  0
 27 28  2  0  0  0
 27 29  1  0  0  0
 28 30  1  0  0  0
 29 31  2  0  0  0
 30 32  2  0  0  0
 31 32  1  0  0  0
M  END
>  <CHROM.0>
-60.17065164,61.33214155,56.21863315

>  <CHROM.1>
-72.50952604,103.84610943,54.31545409,-65.39228797,178.02008370,1.90824343
159.31188778,170.46422139,78.58855520,-1.64379026,-48.76337997,-2.45368614
18.35791160,-2.46649531,-0.31774865,-0.32331423

>  <Name>
Baicalin.pdb

>  <RI>
-6.60573e+08

>  <Rbt.Current_Directory>
/root/miniconda3/envs/rdock/share/rxdock-2013.1.1_148c5bd1-0/data/ligands/prepped_ligands/Baicalin

>  <Rbt.Executable>
rbdock/0.1.0

>  <Rbt.Library>
librxdock.so/0.1.0

>  <Rbt.Parameter_File>
/root/miniconda3/envs/rdock/share/rxdock-2013.1.1_148c5bd1-0/data/scripts/dock.prm

>  <Rbt.Receptor>
def.prm

>  <SCORE>
-10.2745

>  <SCORE.INTER>
-11.5392

>  <SCORE.INTER.CONST>
1

>  <SCORE.INTER.POLAR>
-1.54823

>  <SCORE.INTER.REPUL>
0

>  <SCORE.INTER.ROT>
4

>  <SCORE.INTER.VDW>
-15.6752

>  <SCORE.INTER.norm>
-0.360601

>  <SCORE.INTRA>
2.25606

>  <SCORE.INTRA.DIHEDRAL>
1.64161

>  <SCORE.INTRA.DIHEDRAL.0>
5.84004

>  <SCORE.INTRA.POLAR>
0.0307035

>  <SCORE.INTRA.POLAR.0>
-0.136432

>  <SCORE.INTRA.REPUL>
0.352136

>  <SCORE.INTRA.REPUL.0>
0

>  <SCORE.INTRA.VDW>
-0.42982

>  <SCORE.INTRA.VDW.0>
-0.289917

>  <SCORE.INTRA.norm>
0.0705018

>  <SCORE.RESTR>
0

>  <SCORE.RESTR.CAVITY>
0

>  <SCORE.RESTR.norm>
0

>  <SCORE.SYSTEM>
-0.991312

>  <SCORE.SYSTEM.CONST>
0

>  <SCORE.SYSTEM.DIHEDRAL>
0.0473802

>  <SCORE.SYSTEM.VDW>
-1.015

>  <SCORE.SYSTEM.norm>
-0.0309785

>  <SCORE.heavy>
32

>  <SCORE.norm>
-0.321077

$$$$
Baicalin.pdb
  RxDock  02242110273D
librxdock.so/0.1.0
 38 41  0  0  0  0  0  0  0  0999 V2000
  -50.2936   -5.3868   16.5043 O   0  0  0  0  0  0
  -51.6550   -4.2793   14.9661 O   0  0  0  0  0  0
  -53.1797   -8.2206   17.2227 O   0  0  0  0  0  0
  -53.9044   -5.6379   16.0068 O   0  0  0  0  0  0
  -51.0078   -7.8441   19.1173 O   0  0  0  0  0  0
  -48.3271   -6.3586   19.1516 O   0  0  0  0  0  0
  -48.0135   -6.6340   16.9107 O   0  0  0  0  0  0
  -47.4435   -2.3803   16.0389 O   0  0  0  0  0  0
  -52.1586   -2.2430   13.1634 O   0  0  0  0  0  0
  -50.3241   -0.2609   12.7754 O   0  0  0  0  0  0
  -47.9916    0.7072   13.4374 O   0  0  0  0  0  0
  -52.4952   -6.9841   17.4306 C   0  0  0  0  0  0
  -52.5755   -6.1371   16.1604 C   0  0  0  0  0  0
  -51.0462   -7.3014   17.7992 C   0  0  0  0  0  0
  -51.6207   -4.9449   16.2292 C   0  0  0  0  0  0
  -50.1911   -6.0401   17.7646 C   0  0  0  0  0  0
  -48.7383   -6.3756   17.8602 C   0  0  0  0  0  0
  -50.7377   -3.2886   14.7728 C   0  0  0  0  0  0
  -49.5434   -3.3126   15.4930 C   0  0  0  0  0  0
  -50.9872   -2.2591   13.8640 C   0  0  0  0  0  0
  -48.5976   -2.3038   15.3022 C   0  0  0  0  0  0
  -48.8497   -1.2767   14.3946 C   0  0  0  0  0  0
  -50.0443   -1.2493   13.6713 C   0  0  0  0  0  0
  -47.8365   -0.2254   14.2147 C   0  0  0  0  0  0
  -46.4827   -1.3957   15.8650 C   0  0  0  0  0  0
  -46.6102   -0.3549   15.0273 C   0  0  0  0  0  0
  -45.2833   -1.5719   16.7091 C   0  0  0  0  0  0
  -45.3831   -1.4717   18.0994 C   0  0  0  0  0  0
  -44.0450   -1.8409   16.1221 C   0  0  0  0  0  0
  -44.2503   -1.6393   18.8963 C   0  0  0  0  0  0
  -42.9122   -2.0085   16.9190 C   0  0  0  0  0  0
  -43.0154   -1.9080   18.3067 C   0  0  0  0  0  0
  -52.7665   -8.6621   16.4624 H   0  0  0  0  0  0
  -54.1316   -5.1508   16.8161 H   0  0  0  0  0  0
  -51.5611   -8.6439   19.1302 H   0  0  0  0  0  0
  -49.0434   -6.0794   19.7610 H   0  0  0  0  0  0
  -52.7905   -2.8356   13.6068 H   0  0  0  0  0  0
  -49.5703    0.3409   12.6794 H   0  0  0  0  0  0
  1 15  1  0  0  0
  1 16  1  0  0  0
  2 15  1  0  0  0
  2 18  1  0  0  0
  3 12  1  0  0  0
  3 33  1  0  0  0
  4 13  1  0  0  0
  4 34  1  0  0  0
  5 14  1  0  0  0
  5 35  1  0  0  0
  6 17  1  0  0  0
  6 36  1  0  0  0
  7 17  2  0  0  0
  8 21  1  0  0  0
  8 25  1  0  0  0
  9 20  1  0  0  0
  9 37  1  0  0  0
 10 23  1  0  0  0
 10 38  1  0  0  0
 11 24  2  0  0  0
 12 13  1  0  0  0
 13 15  1  0  0  0
 14 12  1  0  0  0
 16 14  1  0  0  0
 16 17  1  0  0  0
 18 19  2  0  0  0
 18 20  1  0  0  0
 19 21  1  0  0  0
 20 23  2  0  0  0
 21 22  2  0  0  0
 22 23  1  0  0  0
 22 24  1  0  0  0
 24 26  1  0  0  0
 25 26  2  0  0  0
 25 27  1  0  0  0
 27 28  2  0  0  0
 27 29  1  0  0  0
 28 30  1  0  0  0
 29 31  2  0  0  0
 30 32  2  0  0  0
 31 32  1  0  0  0
M  END
>  <CHROM.0>
54.83474739,-66.50673035,-63.39029361

>  <CHROM.1>
-51.43946998,25.28981377,57.90214909,55.98721858,58.68706305,176.74740043
17.23079749,-175.68405878,148.77483002,-65.53535824,-49.07415158,-3.62826684
16.13981104,-2.52912783,-0.40321823,-0.67340443

>  <Name>
Baicalin.pdb

>  <RI>
-6.60573e+08

>  <Rbt.Current_Directory>
/root/miniconda3/envs/rdock/share/rxdock-2013.1.1_148c5bd1-0/data/ligands/prepped_ligands/Baicalin

>  <Rbt.Executable>
rbdock/0.1.0

>  <Rbt.Library>
librxdock.so/0.1.0

>  <Rbt.Parameter_File>
/root/miniconda3/envs/rdock/share/rxdock-2013.1.1_148c5bd1-0/data/scripts/dock.prm

>  <Rbt.Receptor>
def.prm

>  <SCORE>
-17.3233

>  <SCORE.INTER>
-21.8611

>  <SCORE.INTER.CONST>
1

>  <SCORE.INTER.POLAR>
-2.74575

>  <SCORE.INTER.REPUL>
0.126083

>  <SCORE.INTER.ROT>
4

>  <SCORE.INTER.VDW>
-22.556

>  <SCORE.INTER.norm>
-0.683161

>  <SCORE.INTRA>
5.44936

>  <SCORE.INTRA.DIHEDRAL>
1.75976

>  <SCORE.INTRA.DIHEDRAL.0>
5.84004

>  <SCORE.INTRA.POLAR>
0.0202862

>  <SCORE.INTRA.POLAR.0>
-0.136432

>  <SCORE.INTRA.REPUL>
0.0057617

>  <SCORE.INTRA.REPUL.0>
0

>  <SCORE.INTRA.VDW>
4.4717

>  <SCORE.INTRA.VDW.0>
-0.289917

>  <SCORE.INTRA.norm>
0.170293

>  <SCORE.RESTR>
0.058593

>  <SCORE.RESTR.CAVITY>
0.058593

>  <SCORE.RESTR.norm>
0.00183103

>  <SCORE.SYSTEM>
-0.970092

>  <SCORE.SYSTEM.CONST>
0

>  <SCORE.SYSTEM.DIHEDRAL>
0.307348

>  <SCORE.SYSTEM.VDW>
-1.12377

>  <SCORE.SYSTEM.norm>
-0.0303154

>  <SCORE.heavy>
32

>  <SCORE.norm>
-0.541353

$$$$
