5281643
  RxDock  02242109513D
librxdock.so/0.1.0
 41 44  0  0  0  0  0  0  0  0999 V2000
  -50.7109   -4.1181   17.8045 O   0  0  0  0  0  0
  -49.9247   -4.4063   15.6256 O   0  0  0  0  0  0
  -54.5975   -4.8372   16.5780 O   0  0  0  0  0  0
  -52.9437   -5.6893   18.6439 O   0  0  0  0  0  0
  -52.5741   -4.0884   14.6517 O   0  0  0  0  0  0
  -50.0017   -3.2268   20.2827 O   0  0  0  0  0  0
  -46.7125   -4.2132   17.4233 O   0  0  0  0  0  0
  -48.7897   -2.0592   14.6575 O   0  0  0  0  0  0
  -46.8643   -0.2916   14.5797 O   0  0  0  0  0  0
  -43.1386   -1.0890   17.4130 O   0  0  0  0  0  0
  -49.8025   -7.0810   20.7302 O   0  0  0  0  0  0
  -49.6527   -9.4581   19.2987 O   0  0  0  0  0  0
  -53.4329   -4.0836   16.9038 C   0  0  0  0  0  0
  -53.0653   -4.2914   18.3734 C   0  0  0  0  0  0
  -52.2868   -4.5073   15.9858 C   0  0  0  0  0  0
  -51.7278   -3.6065   18.6751 C   0  0  0  0  0  0
  -50.9722   -3.8591   16.4257 C   0  0  0  0  0  0
  -51.2636   -3.8454   20.1069 C   0  0  0  0  0  0
  -48.6863   -3.9736   16.0473 C   0  0  0  0  0  0
  -47.9455   -4.6372   16.9537 C   0  0  0  0  0  0
  -48.1612   -2.7062   15.4845 C   0  0  0  0  0  0
  -46.8458   -2.2689   15.9763 C   0  0  0  0  0  0
  -46.1878   -3.0488   16.9246 C   0  0  0  0  0  0
  -48.3929   -5.8984   17.5710 C   0  0  0  0  0  0
  -46.2627   -1.0900   15.5048 C   0  0  0  0  0  0
  -44.9402   -2.6541   17.4086 C   0  0  0  0  0  0
  -48.8933   -5.8989   18.8733 C   0  0  0  0  0  0
  -48.3166   -7.0922   16.8533 C   0  0  0  0  0  0
  -45.0147   -0.6974   15.9903 C   0  0  0  0  0  0
  -44.3544   -1.4778   16.9403 C   0  0  0  0  0  0
  -49.3171   -7.0927   19.4576 C   0  0  0  0  0  0
  -48.7404   -8.2859   17.4375 C   0  0  0  0  0  0
  -49.2407   -8.2862   18.7397 C   0  0  0  0  0  0
  -54.3892   -5.7751   16.7283 H   0  0  0  0  0  0
  -52.8343   -5.7898   19.6049 H   0  0  0  0  0  0
  -53.4060   -4.5188   14.3908 H   0  0  0  0  0  0
  -50.1136   -2.2758   20.1120 H   0  0  0  0  0  0
  -46.4907   -0.4493   13.6993 H   0  0  0  0  0  0
  -43.1129   -0.1176   17.4562 H   0  0  0  0  0  0
  -50.2924   -7.9085   20.8783 H   0  0  0  0  0  0
  -49.3848   -9.4745   20.2335 H   0  0  0  0  0  0
  1 16  1  0  0  0
  1 17  1  0  0  0
  2 17  1  0  0  0
  2 19  1  0  0  0
  3 13  1  0  0  0
  3 34  1  0  0  0
  4 14  1  0  0  0
  4 35  1  0  0  0
  5 15  1  0  0  0
  5 36  1  0  0  0
  6 18  1  0  0  0
  6 37  1  0  0  0
  7 20  1  0  0  0
  7 23  1  0  0  0
  8 21  2  0  0  0
  9 25  1  0  0  0
  9 38  1  0  0  0
 10 30  1  0  0  0
 10 39  1  0  0  0
 11 31  1  0  0  0
 11 40  1  0  0  0
 12 33  1  0  0  0
 12 41  1  0  0  0
 13 14  1  0  0  0
 13 15  1  0  0  0
 14 16  1  0  0  0
 15 17  1  0  0  0
 16 18  1  0  0  0
 19 20  2  0  0  0
 19 21  1  0  0  0
 20 24  1  0  0  0
 21 22  1  0  0  0
 22 23  1  0  0  0
 22 25  2  0  0  0
 23 26  2  0  0  0
 24 27  2  0  0  0
 24 28  1  0  0  0
 25 29  1  0  0  0
 26 30  1  0  0  0
 27 31  1  0  0  0
 28 32  2  0  0  0
 29 30  2  0  0  0
 31 33  2  0  0  0
 32 33  1  0  0  0
M  END
>  <CHROM.0>
85.31224372,63.93461730,-86.37743293

>  <CHROM.1>
-52.94584319,91.08485946,-60.98932823,-172.21250627,-59.79796248,60.12554922
-100.26936149,-145.60705041,162.89645432,-39.23750482,56.71376830,76.05383968
-49.18094656,-4.24473806,17.30805536,2.50265648,0.13955653,2.52751242

>  <Name>
5281643

>  <PUBCHEM_ATOM_DEF_STEREO_COUNT>
5

>  <PUBCHEM_ATOM_UDEF_STEREO_COUNT>
0

>  <PUBCHEM_BOND_DEF_STEREO_COUNT>
0

>  <PUBCHEM_BOND_UDEF_STEREO_COUNT>
0

>  <PUBCHEM_CACTVS_TAUTO_COUNT>
162

>  <PUBCHEM_COMPONENT_COUNT>
1

>  <PUBCHEM_COMPOUND_CID>
5281643

>  <PUBCHEM_CONFORMER_DIVERSEORDER>
1
86
59
70
75
65
68
80
35
60
72
84
10
81
85
66
61
88
58
63
62
69
39
16
83
52
30
67
49
47
76
25
2
57
64
87
14
71
45
19
53
36
79
27
42
9
34
4
29
40
78
48
43
56
12
11
44
74
17
38
82
37
23
3
8
31
6
50
33
28
55
22
73
77
51
46
5
24
41
26
20
18
32
54
7
21
15
13

>  <PUBCHEM_CONFORMER_ID>
0050976B00000001

>  <PUBCHEM_CONFORMER_RMSD>
0.8

>  <PUBCHEM_COORDINATE_TYPE>
2
5
10

>  <PUBCHEM_EFFECTIVE_ROTOR_COUNT>
5.2

>  <PUBCHEM_FEATURE_SELFOVERLAP>
101.615

>  <PUBCHEM_HEAVY_ATOM_COUNT>
33

>  <PUBCHEM_ISOTOPIC_ATOM_COUNT>
0

>  <PUBCHEM_MMFF94_ENERGY>
104.7486

>  <PUBCHEM_MMFF94_PARTIAL_CHARGES>
46
1 -0.56
10 -0.53
11 -0.53
12 -0.53
13 0.28
14 0.28
15 0.28
16 0.28
17 0.56
18 0.28
19 0.09
2 -0.36
20 0.05
21 0.47
22 0.09
23 0.08
24 0.03
25 0.08
26 -0.15
27 -0.15
28 -0.15
29 -0.15
3 -0.68
30 0.08
31 0.08
32 -0.15
33 0.08
4 -0.68
41 0.4
42 0.4
43 0.4
44 0.4
45 0.15
46 0.15
47 0.15
48 0.15
49 0.15
5 -0.68
50 0.45
51 0.45
52 0.45
53 0.45
6 -0.68
7 -0.16
8 -0.57
9 -0.53

>  <PUBCHEM_PHARMACOPHORE_FEATURES>
20
1 1 acceptor
1 10 donor
1 11 donor
1 12 donor
1 2 acceptor
1 3 acceptor
1 3 donor
1 4 acceptor
1 4 donor
1 5 acceptor
1 5 donor
1 6 acceptor
1 6 donor
1 7 acceptor
1 8 acceptor
1 9 donor
6 1 13 14 15 16 17 rings
6 22 23 25 26 29 30 rings
6 24 27 28 31 32 33 rings
6 7 19 20 21 22 23 rings

>  <PUBCHEM_SHAPE_FINGERPRINT>
10006869 2 18335973191630432171
10050765 1 18411138078758306218
10254770 206 17543629735110429114
10411042 1 18049726522484379307
10688039 33 18122628511688036570
1100329 8 18191865846011046165
11014199 57 18193559101690162847
11115154 58 17485060211102720839
11578080 2 16772653593855117074
12160290 23 18200008716930094571
12422481 6 18057344965791821347
12788726 201 18191291870106976058
13540713 4 18130787898074025568
1361 2 18337097987698836213
13690498 29 18198645374673823918
138480 1 16825304412646788035
13944108 23 17257933693666577220
140371 6 17616249621068240634
14068700 686 18053660567363316456
14508225 48 18194396925319104870
14790565 3 18196095438813983089
15131766 46 15504380113060768694
15463212 79 18262230015331414266
15484559 13 17837767833426351551
17357779 13 17982160420581768986
1813 80 17767144346333510902
19591789 44 18267018367185251353
20101258 96 18119543264584813442
20775438 99 17766234985840219669
21033648 144 18343867719350468664
21033648 29 18339635629996413648
21307412 95 17843144519371973382
21641784 216 18048331221354704092
21703447 108 18196922482976566226
23227448 37 18412825798245716428
23559900 14 18201999920346542688
238 59 17688559707949800469
3298306 158 18050845511872374654
3610482 184 17969243217130771598
38695281 34 18051131393374722297
4058900 60 17977675212157126569
44062 13 18341619213703054494
508706 21 18341040878859799886
59025328 239 17125891581249652975
7164475 11 18193562392178378628

>  <PUBCHEM_SHAPE_MULTIPOLES>
608.69
9.74
6.75
1.2
13.19
0.72
0.16
-1.42
2.09
-9.34
1.15
-0.24
0.37
0.55

>  <PUBCHEM_SHAPE_SELFOVERLAP>
1341.774

>  <PUBCHEM_SHAPE_VOLUME>
322.8

>  <RI>
-4.87673e+08

>  <Rbt.Current_Directory>
/root/miniconda3/envs/rdock/share/rxdock-2013.1.1_148c5bd1-0/data/ligands/prepped_ligands/Hyperoside

>  <Rbt.Executable>
rbdock/0.1.0

>  <Rbt.Library>
librxdock.so/0.1.0

>  <Rbt.Parameter_File>
/root/miniconda3/envs/rdock/share/rxdock-2013.1.1_148c5bd1-0/data/scripts/dock.prm

>  <Rbt.Receptor>
def.prm

>  <SCORE>
-11.7132

>  <SCORE.INTER>
-15.9174

>  <SCORE.INTER.CONST>
1

>  <SCORE.INTER.POLAR>
-2.05746

>  <SCORE.INTER.REPUL>
0.312151

>  <SCORE.INTER.ROT>
4

>  <SCORE.INTER.VDW>
-19.8828

>  <SCORE.INTER.norm>
-0.482347

>  <SCORE.INTRA>
3.45316

>  <SCORE.INTRA.DIHEDRAL>
4.9887

>  <SCORE.INTRA.DIHEDRAL.0>
13.4636

>  <SCORE.INTRA.POLAR>
0.238678

>  <SCORE.INTRA.POLAR.0>
-0.250933

>  <SCORE.INTRA.REPUL>
0

>  <SCORE.INTRA.REPUL.0>
0

>  <SCORE.INTRA.VDW>
0.147311

>  <SCORE.INTRA.VDW.0>
-3.21539

>  <SCORE.INTRA.norm>
0.104641

>  <SCORE.RESTR>
0.00376881

>  <SCORE.RESTR.CAVITY>
0.00376881

>  <SCORE.RESTR.norm>
0.000114206

>  <SCORE.SYSTEM>
0.747271

>  <SCORE.SYSTEM.CONST>
0

>  <SCORE.SYSTEM.DIHEDRAL>
2.90101

>  <SCORE.SYSTEM.VDW>
-0.703234

>  <SCORE.SYSTEM.norm>
0.0226446

>  <SCORE.heavy>
33

>  <SCORE.norm>
-0.354947

$$$$
5281643
  RxDock  02242109513D
librxdock.so/0.1.0
 41 44  0  0  0  0  0  0  0  0999 V2000
  -50.1307   -1.0270   18.5817 O   0  0  0  0  0  0
  -48.1268   -2.2042   18.7994 O   0  0  0  0  0  0
  -48.1213    2.5841   18.8050 O   0  0  0  0  0  0
  -50.0791    1.4619   17.1811 O   0  0  0  0  0  0
  -46.8703    0.1564   19.7573 O   0  0  0  0  0  0
  -52.8305   -1.3153   18.6130 O   0  0  0  0  0  0
  -50.1823   -4.2694   16.5418 O   0  0  0  0  0  0
  -49.1726   -4.1512   20.4877 O   0  0  0  0  0  0
  -50.6411   -6.2684   20.9328 O   0  0  0  0  0  0
  -52.9036   -8.1054   17.1844 O   0  0  0  0  0  0
  -45.8765   -0.4274   15.1613 O   0  0  0  0  0  0
  -47.5810    0.3101   13.0942 O   0  0  0  0  0  0
  -48.8459    1.4449   19.2606 C   0  0  0  0  0  0
  -50.2247    1.3995   18.6013 C   0  0  0  0  0  0
  -48.0453    0.1814   18.9469 C   0  0  0  0  0  0
  -50.9345    0.0930   18.9733 C   0  0  0  0  0  0
  -48.8701   -1.0717   19.2488 C   0  0  0  0  0  0
  -52.2845   -0.0513   18.2809 C   0  0  0  0  0  0
  -48.9554   -3.2001   18.3300 C   0  0  0  0  0  0
  -49.3255   -3.3010   17.0402 C   0  0  0  0  0  0
  -49.4740   -4.1922   19.3024 C   0  0  0  0  0  0
  -50.3715   -5.2260   18.7646 C   0  0  0  0  0  0
  -50.6802   -5.2099   17.4063 C   0  0  0  0  0  0
  -48.8657   -2.3543   16.0085 C   0  0  0  0  0  0
  -50.9101   -6.2089   19.5989 C   0  0  0  0  0  0
  -51.5312   -6.1781   16.8725 C   0  0  0  0  0  0
  -47.5743   -1.8298   16.0684 C   0  0  0  0  0  0
  -49.7214   -1.9827   14.9713 C   0  0  0  0  0  0
  -51.7607   -7.1763   19.0626 C   0  0  0  0  0  0
  -52.0708   -7.1613   17.7021 C   0  0  0  0  0  0
  -47.1390   -0.9340   15.0916 C   0  0  0  0  0  0
  -49.2861   -1.0869   13.9946 C   0  0  0  0  0  0
  -47.9949   -0.5626   14.0547 C   0  0  0  0  0  0
  -47.8355    2.4022   17.8934 H   0  0  0  0  0  0
  -49.6042    0.6601   16.9032 H   0  0  0  0  0  0
  -46.3373    0.9312   19.5104 H   0  0  0  0  0  0
  -52.9849   -1.3262   19.5732 H   0  0  0  0  0  0
  -51.1894   -6.9435   21.3610 H   0  0  0  0  0  0
  -52.7391   -8.1812   16.2287 H   0  0  0  0  0  0
  -45.4073   -0.8743   15.8870 H   0  0  0  0  0  0
  -46.7866   -0.0479   12.6620 H   0  0  0  0  0  0
  1 16  1  0  0  0
  1 17  1  0  0  0
  2 17  1  0  0  0
  2 19  1  0  0  0
  3 13  1  0  0  0
  3 34  1  0  0  0
  4 14  1  0  0  0
  4 35  1  0  0  0
  5 15  1  0  0  0
  5 36  1  0  0  0
  6 18  1  0  0  0
  6 37  1  0  0  0
  7 20  1  0  0  0
  7 23  1  0  0  0
  8 21  2  0  0  0
  9 25  1  0  0  0
  9 38  1  0  0  0
 10 30  1  0  0  0
 10 39  1  0  0  0
 11 31  1  0  0  0
 11 40  1  0  0  0
 12 33  1  0  0  0
 12 41  1  0  0  0
 13 14  1  0  0  0
 13 15  1  0  0  0
 14 16  1  0  0  0
 15 17  1  0  0  0
 16 18  1  0  0  0
 19 20  2  0  0  0
 19 21  1  0  0  0
 20 24  1  0  0  0
 21 22  1  0  0  0
 22 23  1  0  0  0
 22 25  2  0  0  0
 23 26  2  0  0  0
 24 27  2  0  0  0
 24 28  1  0  0  0
 25 29  1  0  0  0
 26 30  1  0  0  0
 27 31  1  0  0  0
 28 32  2  0  0  0
 29 30  2  0  0  0
 31 33  2  0  0  0
 32 33  1  0  0  0
M  END
>  <CHROM.0>
-176.83630661,-60.82068955,178.68139551

>  <CHROM.1>
-25.20944255,91.27340220,-73.93253642,64.12441763,-62.56586787,63.46115593
172.81328411,22.59806783,6.22230650,57.75775766,55.47717190,-145.28598292
-49.59686149,-2.27807371,17.68477075,0.43354750,1.10664533,0.84834852

>  <Name>
5281643

>  <PUBCHEM_ATOM_DEF_STEREO_COUNT>
5

>  <PUBCHEM_ATOM_UDEF_STEREO_COUNT>
0

>  <PUBCHEM_BOND_DEF_STEREO_COUNT>
0

>  <PUBCHEM_BOND_UDEF_STEREO_COUNT>
0

>  <PUBCHEM_CACTVS_TAUTO_COUNT>
162

>  <PUBCHEM_COMPONENT_COUNT>
1

>  <PUBCHEM_COMPOUND_CID>
5281643

>  <PUBCHEM_CONFORMER_DIVERSEORDER>
1
86
59
70
75
65
68
80
35
60
72
84
10
81
85
66
61
88
58
63
62
69
39
16
83
52
30
67
49
47
76
25
2
57
64
87
14
71
45
19
53
36
79
27
42
9
34
4
29
40
78
48
43
56
12
11
44
74
17
38
82
37
23
3
8
31
6
50
33
28
55
22
73
77
51
46
5
24
41
26
20
18
32
54
7
21
15
13

>  <PUBCHEM_CONFORMER_ID>
0050976B00000001

>  <PUBCHEM_CONFORMER_RMSD>
0.8

>  <PUBCHEM_COORDINATE_TYPE>
2
5
10

>  <PUBCHEM_EFFECTIVE_ROTOR_COUNT>
5.2

>  <PUBCHEM_FEATURE_SELFOVERLAP>
101.615

>  <PUBCHEM_HEAVY_ATOM_COUNT>
33

>  <PUBCHEM_ISOTOPIC_ATOM_COUNT>
0

>  <PUBCHEM_MMFF94_ENERGY>
104.7486

>  <PUBCHEM_MMFF94_PARTIAL_CHARGES>
46
1 -0.56
10 -0.53
11 -0.53
12 -0.53
13 0.28
14 0.28
15 0.28
16 0.28
17 0.56
18 0.28
19 0.09
2 -0.36
20 0.05
21 0.47
22 0.09
23 0.08
24 0.03
25 0.08
26 -0.15
27 -0.15
28 -0.15
29 -0.15
3 -0.68
30 0.08
31 0.08
32 -0.15
33 0.08
4 -0.68
41 0.4
42 0.4
43 0.4
44 0.4
45 0.15
46 0.15
47 0.15
48 0.15
49 0.15
5 -0.68
50 0.45
51 0.45
52 0.45
53 0.45
6 -0.68
7 -0.16
8 -0.57
9 -0.53

>  <PUBCHEM_PHARMACOPHORE_FEATURES>
20
1 1 acceptor
1 10 donor
1 11 donor
1 12 donor
1 2 acceptor
1 3 acceptor
1 3 donor
1 4 acceptor
1 4 donor
1 5 acceptor
1 5 donor
1 6 acceptor
1 6 donor
1 7 acceptor
1 8 acceptor
1 9 donor
6 1 13 14 15 16 17 rings
6 22 23 25 26 29 30 rings
6 24 27 28 31 32 33 rings
6 7 19 20 21 22 23 rings

>  <PUBCHEM_SHAPE_FINGERPRINT>
10006869 2 18335973191630432171
10050765 1 18411138078758306218
10254770 206 17543629735110429114
10411042 1 18049726522484379307
10688039 33 18122628511688036570
1100329 8 18191865846011046165
11014199 57 18193559101690162847
11115154 58 17485060211102720839
11578080 2 16772653593855117074
12160290 23 18200008716930094571
12422481 6 18057344965791821347
12788726 201 18191291870106976058
13540713 4 18130787898074025568
1361 2 18337097987698836213
13690498 29 18198645374673823918
138480 1 16825304412646788035
13944108 23 17257933693666577220
140371 6 17616249621068240634
14068700 686 18053660567363316456
14508225 48 18194396925319104870
14790565 3 18196095438813983089
15131766 46 15504380113060768694
15463212 79 18262230015331414266
15484559 13 17837767833426351551
17357779 13 17982160420581768986
1813 80 17767144346333510902
19591789 44 18267018367185251353
20101258 96 18119543264584813442
20775438 99 17766234985840219669
21033648 144 18343867719350468664
21033648 29 18339635629996413648
21307412 95 17843144519371973382
21641784 216 18048331221354704092
21703447 108 18196922482976566226
23227448 37 18412825798245716428
23559900 14 18201999920346542688
238 59 17688559707949800469
3298306 158 18050845511872374654
3610482 184 17969243217130771598
38695281 34 18051131393374722297
4058900 60 17977675212157126569
44062 13 18341619213703054494
508706 21 18341040878859799886
59025328 239 17125891581249652975
7164475 11 18193562392178378628

>  <PUBCHEM_SHAPE_MULTIPOLES>
608.69
9.74
6.75
1.2
13.19
0.72
0.16
-1.42
2.09
-9.34
1.15
-0.24
0.37
0.55

>  <PUBCHEM_SHAPE_SELFOVERLAP>
1341.774

>  <PUBCHEM_SHAPE_VOLUME>
322.8

>  <RI>
-4.87673e+08

>  <Rbt.Current_Directory>
/root/miniconda3/envs/rdock/share/rxdock-2013.1.1_148c5bd1-0/data/ligands/prepped_ligands/Hyperoside

>  <Rbt.Executable>
rbdock/0.1.0

>  <Rbt.Library>
librxdock.so/0.1.0

>  <Rbt.Parameter_File>
/root/miniconda3/envs/rdock/share/rxdock-2013.1.1_148c5bd1-0/data/scripts/dock.prm

>  <Rbt.Receptor>
def.prm

>  <SCORE>
-16.2862

>  <SCORE.INTER>
-19.6301

>  <SCORE.INTER.CONST>
1

>  <SCORE.INTER.POLAR>
-4.03825

>  <SCORE.INTER.REPUL>
0.0299542

>  <SCORE.INTER.ROT>
4

>  <SCORE.INTER.VDW>
-15.4498

>  <SCORE.INTER.norm>
-0.59485

>  <SCORE.INTRA>
4.41437

>  <SCORE.INTRA.DIHEDRAL>
2.87581

>  <SCORE.INTRA.DIHEDRAL.0>
13.4636

>  <SCORE.INTRA.POLAR>
0.248005

>  <SCORE.INTRA.POLAR.0>
-0.250933

>  <SCORE.INTRA.REPUL>
0

>  <SCORE.INTRA.REPUL.0>
0

>  <SCORE.INTRA.VDW>
2.13325

>  <SCORE.INTRA.VDW.0>
-3.21539

>  <SCORE.INTRA.norm>
0.133769

>  <SCORE.RESTR>
0

>  <SCORE.RESTR.CAVITY>
0

>  <SCORE.RESTR.norm>
0

>  <SCORE.SYSTEM>
-1.07054

>  <SCORE.SYSTEM.CONST>
0

>  <SCORE.SYSTEM.DIHEDRAL>
0.0311977

>  <SCORE.SYSTEM.VDW>
-1.08614

>  <SCORE.SYSTEM.norm>
-0.0324406

>  <SCORE.heavy>
33

>  <SCORE.norm>
-0.493522

$$$$
5281643
  RxDock  02242109513D
librxdock.so/0.1.0
 41 44  0  0  0  0  0  0  0  0999 V2000
  -47.7031   -1.0552   18.8422 O   0  0  0  0  0  0
  -49.9301   -1.6607   18.4925 O   0  0  0  0  0  0
  -48.7157    2.9575   18.8469 O   0  0  0  0  0  0
  -47.1758    1.2637   20.4245 O   0  0  0  0  0  0
  -50.5041    1.0023   17.6875 O   0  0  0  0  0  0
  -45.1135   -1.9916   18.7804 O   0  0  0  0  0  0
  -48.6017   -4.6183   16.7390 O   0  0  0  0  0  0
  -50.3569   -3.7252   20.3063 O   0  0  0  0  0  0
  -50.2128   -6.2386   21.0130 O   0  0  0  0  0  0
  -48.2813   -9.2193   17.8620 O   0  0  0  0  0  0
  -45.7647   -0.7287   14.4678 O   0  0  0  0  0  0
  -47.8295    0.3599   12.9600 O   0  0  0  0  0  0
  -48.2874    1.7036   18.3229 C   0  0  0  0  0  0
  -46.9935    1.2613   19.0071 C   0  0  0  0  0  0
  -49.3954    0.6702   18.5231 C   0  0  0  0  0  0
  -46.6254   -0.1557   18.5536 C   0  0  0  0  0  0
  -48.9054   -0.7297   18.1460 C   0  0  0  0  0  0
  -45.3858   -0.6881   19.2628 C   0  0  0  0  0  0
  -49.5518   -2.9566   18.2163 C   0  0  0  0  0  0
  -48.9645   -3.3203   17.0616 C   0  0  0  0  0  0
  -49.8254   -3.9960   19.2378 C   0  0  0  0  0  0
  -49.4250   -5.3693   18.8955 C   0  0  0  0  0  0
  -48.8319   -5.6094   17.6581 C   0  0  0  0  0  0
  -48.6639   -2.3561   15.9883 C   0  0  0  0  0  0
  -49.6363   -6.4195   19.7923 C   0  0  0  0  0  0
  -48.4456   -6.9038   17.3087 C   0  0  0  0  0  0
  -47.3428   -1.9910   15.7280 C   0  0  0  0  0  0
  -49.7003   -1.8082   15.2320 C   0  0  0  0  0  0
  -49.2489   -7.7132   19.4408 C   0  0  0  0  0  0
  -48.6546   -7.9552   18.2015 C   0  0  0  0  0  0
  -47.0583   -1.0786   14.7119 C   0  0  0  0  0  0
  -49.4157   -0.8957   14.2160 C   0  0  0  0  0  0
  -48.0947   -0.5310   13.9559 C   0  0  0  0  0  0
  -49.5975    3.1407   18.4799 H   0  0  0  0  0  0
  -46.2995    1.1462   20.8294 H   0  0  0  0  0  0
  -50.8682    1.8413   18.0173 H   0  0  0  0  0  0
  -44.9732   -1.9269   17.8201 H   0  0  0  0  0  0
  -50.3090   -5.2939   21.2075 H   0  0  0  0  0  0
  -48.4810   -9.8170   18.6031 H   0  0  0  0  0  0
  -45.6161   -0.7577   13.5067 H   0  0  0  0  0  0
  -47.0586    0.0497   12.4546 H   0  0  0  0  0  0
  1 16  1  0  0  0
  1 17  1  0  0  0
  2 17  1  0  0  0
  2 19  1  0  0  0
  3 13  1  0  0  0
  3 34  1  0  0  0
  4 14  1  0  0  0
  4 35  1  0  0  0
  5 15  1  0  0  0
  5 36  1  0  0  0
  6 18  1  0  0  0
  6 37  1  0  0  0
  7 20  1  0  0  0
  7 23  1  0  0  0
  8 21  2  0  0  0
  9 25  1  0  0  0
  9 38  1  0  0  0
 10 30  1  0  0  0
 10 39  1  0  0  0
 11 31  1  0  0  0
 11 40  1  0  0  0
 12 33  1  0  0  0
 12 41  1  0  0  0
 13 14  1  0  0  0
 13 15  1  0  0  0
 14 16  1  0  0  0
 15 17  1  0  0  0
 16 18  1  0  0  0
 19 20  2  0  0  0
 19 21  1  0  0  0
 20 24  1  0  0  0
 21 22  1  0  0  0
 22 23  1  0  0  0
 22 25  2  0  0  0
 23 26  2  0  0  0
 24 27  2  0  0  0
 24 28  1  0  0  0
 25 29  1  0  0  0
 26 30  1  0  0  0
 27 31  1  0  0  0
 28 32  2  0  0  0
 29 30  2  0  0  0
 31 33  2  0  0  0
 32 33  1  0  0  0
M  END
>  <CHROM.0>
60.37074997,-62.07997301,173.92976856

>  <CHROM.1>
-57.34865386,-45.49561863,-172.21486418,-169.38879098,-66.21921378,59.22836060
-9.14466369,178.74527098,134.23923198,42.73687156,59.43648423,-72.38100416
-48.41107562,-2.34930116,17.72875360,0.71361381,1.35384412,0.62487171

>  <Name>
5281643

>  <PUBCHEM_ATOM_DEF_STEREO_COUNT>
5

>  <PUBCHEM_ATOM_UDEF_STEREO_COUNT>
0

>  <PUBCHEM_BOND_DEF_STEREO_COUNT>
0

>  <PUBCHEM_BOND_UDEF_STEREO_COUNT>
0

>  <PUBCHEM_CACTVS_TAUTO_COUNT>
162

>  <PUBCHEM_COMPONENT_COUNT>
1

>  <PUBCHEM_COMPOUND_CID>
5281643

>  <PUBCHEM_CONFORMER_DIVERSEORDER>
1
86
59
70
75
65
68
80
35
60
72
84
10
81
85
66
61
88
58
63
62
69
39
16
83
52
30
67
49
47
76
25
2
57
64
87
14
71
45
19
53
36
79
27
42
9
34
4
29
40
78
48
43
56
12
11
44
74
17
38
82
37
23
3
8
31
6
50
33
28
55
22
73
77
51
46
5
24
41
26
20
18
32
54
7
21
15
13

>  <PUBCHEM_CONFORMER_ID>
0050976B00000001

>  <PUBCHEM_CONFORMER_RMSD>
0.8

>  <PUBCHEM_COORDINATE_TYPE>
2
5
10

>  <PUBCHEM_EFFECTIVE_ROTOR_COUNT>
5.2

>  <PUBCHEM_FEATURE_SELFOVERLAP>
101.615

>  <PUBCHEM_HEAVY_ATOM_COUNT>
33

>  <PUBCHEM_ISOTOPIC_ATOM_COUNT>
0

>  <PUBCHEM_MMFF94_ENERGY>
104.7486

>  <PUBCHEM_MMFF94_PARTIAL_CHARGES>
46
1 -0.56
10 -0.53
11 -0.53
12 -0.53
13 0.28
14 0.28
15 0.28
16 0.28
17 0.56
18 0.28
19 0.09
2 -0.36
20 0.05
21 0.47
22 0.09
23 0.08
24 0.03
25 0.08
26 -0.15
27 -0.15
28 -0.15
29 -0.15
3 -0.68
30 0.08
31 0.08
32 -0.15
33 0.08
4 -0.68
41 0.4
42 0.4
43 0.4
44 0.4
45 0.15
46 0.15
47 0.15
48 0.15
49 0.15
5 -0.68
50 0.45
51 0.45
52 0.45
53 0.45
6 -0.68
7 -0.16
8 -0.57
9 -0.53

>  <PUBCHEM_PHARMACOPHORE_FEATURES>
20
1 1 acceptor
1 10 donor
1 11 donor
1 12 donor
1 2 acceptor
1 3 acceptor
1 3 donor
1 4 acceptor
1 4 donor
1 5 acceptor
1 5 donor
1 6 acceptor
1 6 donor
1 7 acceptor
1 8 acceptor
1 9 donor
6 1 13 14 15 16 17 rings
6 22 23 25 26 29 30 rings
6 24 27 28 31 32 33 rings
6 7 19 20 21 22 23 rings

>  <PUBCHEM_SHAPE_FINGERPRINT>
10006869 2 18335973191630432171
10050765 1 18411138078758306218
10254770 206 17543629735110429114
10411042 1 18049726522484379307
10688039 33 18122628511688036570
1100329 8 18191865846011046165
11014199 57 18193559101690162847
11115154 58 17485060211102720839
11578080 2 16772653593855117074
12160290 23 18200008716930094571
12422481 6 18057344965791821347
12788726 201 18191291870106976058
13540713 4 18130787898074025568
1361 2 18337097987698836213
13690498 29 18198645374673823918
138480 1 16825304412646788035
13944108 23 17257933693666577220
140371 6 17616249621068240634
14068700 686 18053660567363316456
14508225 48 18194396925319104870
14790565 3 18196095438813983089
15131766 46 15504380113060768694
15463212 79 18262230015331414266
15484559 13 17837767833426351551
17357779 13 17982160420581768986
1813 80 17767144346333510902
19591789 44 18267018367185251353
20101258 96 18119543264584813442
20775438 99 17766234985840219669
21033648 144 18343867719350468664
21033648 29 18339635629996413648
21307412 95 17843144519371973382
21641784 216 18048331221354704092
21703447 108 18196922482976566226
23227448 37 18412825798245716428
23559900 14 18201999920346542688
238 59 17688559707949800469
3298306 158 18050845511872374654
3610482 184 17969243217130771598
38695281 34 18051131393374722297
4058900 60 17977675212157126569
44062 13 18341619213703054494
508706 21 18341040878859799886
59025328 239 17125891581249652975
7164475 11 18193562392178378628

>  <PUBCHEM_SHAPE_MULTIPOLES>
608.69
9.74
6.75
1.2
13.19
0.72
0.16
-1.42
2.09
-9.34
1.15
-0.24
0.37
0.55

>  <PUBCHEM_SHAPE_SELFOVERLAP>
1341.774

>  <PUBCHEM_SHAPE_VOLUME>
322.8

>  <RI>
-4.87673e+08

>  <Rbt.Current_Directory>
/root/miniconda3/envs/rdock/share/rxdock-2013.1.1_148c5bd1-0/data/ligands/prepped_ligands/Hyperoside

>  <Rbt.Executable>
rbdock/0.1.0

>  <Rbt.Library>
librxdock.so/0.1.0

>  <Rbt.Parameter_File>
/root/miniconda3/envs/rdock/share/rxdock-2013.1.1_148c5bd1-0/data/scripts/dock.prm

>  <Rbt.Receptor>
def.prm

>  <SCORE>
-19.1196

>  <SCORE.INTER>
-20.9092

>  <SCORE.INTER.CONST>
1

>  <SCORE.INTER.POLAR>
-3.46143

>  <SCORE.INTER.REPUL>
0.0128017

>  <SCORE.INTER.ROT>
4

>  <SCORE.INTER.VDW>
-18.6043

>  <SCORE.INTER.norm>
-0.633611

>  <SCORE.INTRA>
2.83607

>  <SCORE.INTRA.DIHEDRAL>
-0.834006

>  <SCORE.INTRA.DIHEDRAL.0>
13.4636

>  <SCORE.INTRA.POLAR>
0.250933

>  <SCORE.INTRA.POLAR.0>
-0.250933

>  <SCORE.INTRA.REPUL>
0

>  <SCORE.INTRA.REPUL.0>
0

>  <SCORE.INTRA.VDW>
2.39991

>  <SCORE.INTRA.VDW.0>
-3.21539

>  <SCORE.INTRA.norm>
0.0859417

>  <SCORE.RESTR>
0

>  <SCORE.RESTR.CAVITY>
0

>  <SCORE.RESTR.norm>
0

>  <SCORE.SYSTEM>
-1.0465

>  <SCORE.SYSTEM.CONST>
0

>  <SCORE.SYSTEM.DIHEDRAL>
0.116612

>  <SCORE.SYSTEM.VDW>
-1.10481

>  <SCORE.SYSTEM.norm>
-0.0317121

>  <SCORE.heavy>
33

>  <SCORE.norm>
-0.579382

$$$$
5281643
  RxDock  02242109513D
librxdock.so/0.1.0
 41 44  0  0  0  0  0  0  0  0999 V2000
  -48.4790   -1.7588   17.0355 O   0  0  0  0  0  0
  -47.9606   -3.8447   16.1250 O   0  0  0  0  0  0
  -44.4924   -1.0604   17.8990 O   0  0  0  0  0  0
  -46.5791    0.3511   16.7233 O   0  0  0  0  0  0
  -45.4305   -3.7528   17.4130 O   0  0  0  0  0  0
  -50.5510   -0.1810   17.9744 O   0  0  0  0  0  0
  -51.4683   -3.3433   15.1092 O   0  0  0  0  0  0
  -49.2825   -5.9845   17.3116 O   0  0  0  0  0  0
  -51.4479   -7.3576   17.8245 O   0  0  0  0  0  0
  -55.4928   -5.7122   15.9604 O   0  0  0  0  0  0
  -50.7731    1.1126   13.1091 O   0  0  0  0  0  0
  -48.0483    1.3163   12.6030 O   0  0  0  0  0  0
  -45.8363   -1.4825   18.1133 C   0  0  0  0  0  0
  -46.7890   -0.2938   17.9812 C   0  0  0  0  0  0
  -46.1849   -2.5799   17.1083 C   0  0  0  0  0  0
  -48.2401   -0.7815   18.0561 C   0  0  0  0  0  0
  -47.6734   -2.9277   17.1802 C   0  0  0  0  0  0
  -49.2429    0.3473   17.8492 C   0  0  0  0  0  0
  -49.3171   -4.0323   15.9719 C   0  0  0  0  0  0
  -50.0975   -3.2022   15.2560 C   0  0  0  0  0  0
  -49.9410   -5.1958   16.6470 C   0  0  0  0  0  0
  -51.3939   -5.3481   16.4757 C   0  0  0  0  0  0
  -52.0843   -4.4092   15.7126 C   0  0  0  0  0  0
  -49.5640   -2.0176   14.5602 C   0  0  0  0  0  0
  -52.0752   -6.4141   17.0686 C   0  0  0  0  0  0
  -53.4632   -4.5303   15.5373 C   0  0  0  0  0  0
  -50.4263   -0.9976   14.1572 C   0  0  0  0  0  0
  -48.1963   -1.9155   14.3046 C   0  0  0  0  0  0
  -53.4542   -6.5332   16.8916 C   0  0  0  0  0  0
  -54.1472   -5.5934   16.1275 C   0  0  0  0  0  0
  -49.9212    0.1238   13.4990 C   0  0  0  0  0  0
  -47.6913   -0.7941   13.6464 C   0  0  0  0  0  0
  -48.5538    0.2256   13.2436 C   0  0  0  0  0  0
  -44.4510   -0.6569   17.0151 H   0  0  0  0  0  0
  -46.7557   -0.3057   16.0282 H   0  0  0  0  0  0
  -44.5126   -3.5794   17.1430 H   0  0  0  0  0  0
  -51.1753    0.5629   17.9219 H   0  0  0  0  0  0
  -51.3235   -7.0397   18.7318 H   0  0  0  0  0  0
  -55.7195   -6.6552   15.8865 H   0  0  0  0  0  0
  -50.2466    1.8389   12.7322 H   0  0  0  0  0  0
  -47.3949    1.0226   11.9451 H   0  0  0  0  0  0
  1 16  1  0  0  0
  1 17  1  0  0  0
  2 17  1  0  0  0
  2 19  1  0  0  0
  3 13  1  0  0  0
  3 34  1  0  0  0
  4 14  1  0  0  0
  4 35  1  0  0  0
  5 15  1  0  0  0
  5 36  1  0  0  0
  6 18  1  0  0  0
  6 37  1  0  0  0
  7 20  1  0  0  0
  7 23  1  0  0  0
  8 21  2  0  0  0
  9 25  1  0  0  0
  9 38  1  0  0  0
 10 30  1  0  0  0
 10 39  1  0  0  0
 11 31  1  0  0  0
 11 40  1  0  0  0
 12 33  1  0  0  0
 12 41  1  0  0  0
 13 14  1  0  0  0
 13 15  1  0  0  0
 14 16  1  0  0  0
 15 17  1  0  0  0
 16 18  1  0  0  0
 19 20  2  0  0  0
 19 21  1  0  0  0
 20 24  1  0  0  0
 21 22  1  0  0  0
 22 23  1  0  0  0
 22 25  2  0  0  0
 23 26  2  0  0  0
 24 27  2  0  0  0
 24 28  1  0  0  0
 25 29  1  0  0  0
 26 30  1  0  0  0
 27 31  1  0  0  0
 28 32  2  0  0  0
 29 30  2  0  0  0
 31 33  2  0  0  0
 32 33  1  0  0  0
M  END
>  <CHROM.0>
81.04431309,-63.04527413,53.55217657

>  <CHROM.1>
-48.52685869,83.58845950,-57.76517165,59.97623989,-73.44821304,174.87729444
82.33468530,143.50959122,175.70584247,-136.94031400,60.82646306,16.97284203
-49.46033731,-2.63045825,16.10374975,-0.63724868,0.43327069,2.54412481

>  <Name>
5281643

>  <PUBCHEM_ATOM_DEF_STEREO_COUNT>
5

>  <PUBCHEM_ATOM_UDEF_STEREO_COUNT>
0

>  <PUBCHEM_BOND_DEF_STEREO_COUNT>
0

>  <PUBCHEM_BOND_UDEF_STEREO_COUNT>
0

>  <PUBCHEM_CACTVS_TAUTO_COUNT>
162

>  <PUBCHEM_COMPONENT_COUNT>
1

>  <PUBCHEM_COMPOUND_CID>
5281643

>  <PUBCHEM_CONFORMER_DIVERSEORDER>
1
86
59
70
75
65
68
80
35
60
72
84
10
81
85
66
61
88
58
63
62
69
39
16
83
52
30
67
49
47
76
25
2
57
64
87
14
71
45
19
53
36
79
27
42
9
34
4
29
40
78
48
43
56
12
11
44
74
17
38
82
37
23
3
8
31
6
50
33
28
55
22
73
77
51
46
5
24
41
26
20
18
32
54
7
21
15
13

>  <PUBCHEM_CONFORMER_ID>
0050976B00000001

>  <PUBCHEM_CONFORMER_RMSD>
0.8

>  <PUBCHEM_COORDINATE_TYPE>
2
5
10

>  <PUBCHEM_EFFECTIVE_ROTOR_COUNT>
5.2

>  <PUBCHEM_FEATURE_SELFOVERLAP>
101.615

>  <PUBCHEM_HEAVY_ATOM_COUNT>
33

>  <PUBCHEM_ISOTOPIC_ATOM_COUNT>
0

>  <PUBCHEM_MMFF94_ENERGY>
104.7486

>  <PUBCHEM_MMFF94_PARTIAL_CHARGES>
46
1 -0.56
10 -0.53
11 -0.53
12 -0.53
13 0.28
14 0.28
15 0.28
16 0.28
17 0.56
18 0.28
19 0.09
2 -0.36
20 0.05
21 0.47
22 0.09
23 0.08
24 0.03
25 0.08
26 -0.15
27 -0.15
28 -0.15
29 -0.15
3 -0.68
30 0.08
31 0.08
32 -0.15
33 0.08
4 -0.68
41 0.4
42 0.4
43 0.4
44 0.4
45 0.15
46 0.15
47 0.15
48 0.15
49 0.15
5 -0.68
50 0.45
51 0.45
52 0.45
53 0.45
6 -0.68
7 -0.16
8 -0.57
9 -0.53

>  <PUBCHEM_PHARMACOPHORE_FEATURES>
20
1 1 acceptor
1 10 donor
1 11 donor
1 12 donor
1 2 acceptor
1 3 acceptor
1 3 donor
1 4 acceptor
1 4 donor
1 5 acceptor
1 5 donor
1 6 acceptor
1 6 donor
1 7 acceptor
1 8 acceptor
1 9 donor
6 1 13 14 15 16 17 rings
6 22 23 25 26 29 30 rings
6 24 27 28 31 32 33 rings
6 7 19 20 21 22 23 rings

>  <PUBCHEM_SHAPE_FINGERPRINT>
10006869 2 18335973191630432171
10050765 1 18411138078758306218
10254770 206 17543629735110429114
10411042 1 18049726522484379307
10688039 33 18122628511688036570
1100329 8 18191865846011046165
11014199 57 18193559101690162847
11115154 58 17485060211102720839
11578080 2 16772653593855117074
12160290 23 18200008716930094571
12422481 6 18057344965791821347
12788726 201 18191291870106976058
13540713 4 18130787898074025568
1361 2 18337097987698836213
13690498 29 18198645374673823918
138480 1 16825304412646788035
13944108 23 17257933693666577220
140371 6 17616249621068240634
14068700 686 18053660567363316456
14508225 48 18194396925319104870
14790565 3 18196095438813983089
15131766 46 15504380113060768694
15463212 79 18262230015331414266
15484559 13 17837767833426351551
17357779 13 17982160420581768986
1813 80 17767144346333510902
19591789 44 18267018367185251353
20101258 96 18119543264584813442
20775438 99 17766234985840219669
21033648 144 18343867719350468664
21033648 29 18339635629996413648
21307412 95 17843144519371973382
21641784 216 18048331221354704092
21703447 108 18196922482976566226
23227448 37 18412825798245716428
23559900 14 18201999920346542688
238 59 17688559707949800469
3298306 158 18050845511872374654
3610482 184 17969243217130771598
38695281 34 18051131393374722297
4058900 60 17977675212157126569
44062 13 18341619213703054494
508706 21 18341040878859799886
59025328 239 17125891581249652975
7164475 11 18193562392178378628

>  <PUBCHEM_SHAPE_MULTIPOLES>
608.69
9.74
6.75
1.2
13.19
0.72
0.16
-1.42
2.09
-9.34
1.15
-0.24
0.37
0.55

>  <PUBCHEM_SHAPE_SELFOVERLAP>
1341.774

>  <PUBCHEM_SHAPE_VOLUME>
322.8

>  <RI>
-4.87673e+08

>  <Rbt.Current_Directory>
/root/miniconda3/envs/rdock/share/rxdock-2013.1.1_148c5bd1-0/data/ligands/prepped_ligands/Hyperoside

>  <Rbt.Executable>
rbdock/0.1.0

>  <Rbt.Library>
librxdock.so/0.1.0

>  <Rbt.Parameter_File>
/root/miniconda3/envs/rdock/share/rxdock-2013.1.1_148c5bd1-0/data/scripts/dock.prm

>  <Rbt.Receptor>
def.prm

>  <SCORE>
-18.3322

>  <SCORE.INTER>
-21.0775

>  <SCORE.INTER.CONST>
1

>  <SCORE.INTER.POLAR>
-2.67119

>  <SCORE.INTER.REPUL>
0.0841474

>  <SCORE.INTER.ROT>
4

>  <SCORE.INTER.VDW>
-21.8162

>  <SCORE.INTER.norm>
-0.638712

>  <SCORE.INTRA>
3.08605

>  <SCORE.INTRA.DIHEDRAL>
2.07003

>  <SCORE.INTRA.DIHEDRAL.0>
13.4636

>  <SCORE.INTRA.POLAR>
0.130129

>  <SCORE.INTRA.POLAR.0>
-0.250933

>  <SCORE.INTRA.REPUL>
0

>  <SCORE.INTRA.REPUL.0>
0

>  <SCORE.INTRA.VDW>
1.6086

>  <SCORE.INTRA.VDW.0>
-3.21539

>  <SCORE.INTRA.norm>
0.0935168

>  <SCORE.RESTR>
0

>  <SCORE.RESTR.CAVITY>
0

>  <SCORE.RESTR.norm>
0

>  <SCORE.SYSTEM>
-0.340727

>  <SCORE.SYSTEM.CONST>
0

>  <SCORE.SYSTEM.DIHEDRAL>
1.12653

>  <SCORE.SYSTEM.VDW>
-0.903992

>  <SCORE.SYSTEM.norm>
-0.0103251

>  <SCORE.heavy>
33

>  <SCORE.norm>
-0.55552

$$$$
5281643
  RxDock  02242109513D
librxdock.so/0.1.0
 41 44  0  0  0  0  0  0  0  0999 V2000
  -47.9203   -1.2753   17.6637 O   0  0  0  0  0  0
  -46.9792   -2.8156   16.1837 O   0  0  0  0  0  0
  -44.2727    0.6244   18.1251 O   0  0  0  0  0  0
  -46.9018    1.3933   17.6499 O   0  0  0  0  0  0
  -44.3922   -2.0751   17.0936 O   0  0  0  0  0  0
  -50.1305   -0.7616   19.2423 O   0  0  0  0  0  0
  -50.3614   -4.2164   15.7532 O   0  0  0  0  0  0
  -46.9126   -5.1328   17.7202 O   0  0  0  0  0  0
  -48.0307   -7.2894   18.6878 O   0  0  0  0  0  0
  -52.5426   -8.0808   17.4388 O   0  0  0  0  0  0
  -47.4797    0.3348   13.0938 O   0  0  0  0  0  0
  -50.0579    1.0945   12.3880 O   0  0  0  0  0  0
  -45.3335   -0.2849   18.4047 C   0  0  0  0  0  0
  -46.6181    0.4840   18.7153 C   0  0  0  0  0  0
  -45.5263   -1.2157   17.2080 C   0  0  0  0  0  0
  -47.7873   -0.4965   18.8593 C   0  0  0  0  0  0
  -46.7750   -2.0814   17.3904 C   0  0  0  0  0  0
  -49.1155    0.2144   19.0897 C   0  0  0  0  0  0
  -48.0695   -3.6529   16.2785 C   0  0  0  0  0  0
  -49.2365   -3.4133   15.6529 C   0  0  0  0  0  0
  -47.9483   -4.8628   17.1270 C   0  0  0  0  0  0
  -49.1411   -5.7187   17.2180 C   0  0  0  0  0  0
  -50.2904   -5.3484   16.5234 C   0  0  0  0  0  0
  -49.4483   -2.2316   14.7981 C   0  0  0  0  0  0
  -49.1272   -6.8837   17.9891 C   0  0  0  0  0  0
  -51.4356   -6.1421   16.5957 C   0  0  0  0  0  0
  -48.3546   -1.4953   14.3417 C   0  0  0  0  0  0
  -50.7424   -1.8489   14.4446 C   0  0  0  0  0  0
  -50.2738   -7.6760   18.0596 C   0  0  0  0  0  0
  -51.4258   -7.3062   17.3643 C   0  0  0  0  0  0
  -48.5551   -0.3770   13.5322 C   0  0  0  0  0  0
  -50.9429   -0.7307   13.6352 C   0  0  0  0  0  0
  -49.8492    0.0053   13.1790 C   0  0  0  0  0  0
  -43.4545    0.1039   18.0515 H   0  0  0  0  0  0
  -47.0026    0.8664   16.8388 H   0  0  0  0  0  0
  -44.3213   -2.5661   17.9298 H   0  0  0  0  0  0
  -50.9614   -0.2946   19.4358 H   0  0  0  0  0  0
  -47.2949   -6.6724   18.5551 H   0  0  0  0  0  0
  -52.3392   -8.8786   17.9568 H   0  0  0  0  0  0
  -46.7328   -0.2783   12.9803 H   0  0  0  0  0  0
  -49.2105    1.3695   11.9977 H   0  0  0  0  0  0
  1 16  1  0  0  0
  1 17  1  0  0  0
  2 17  1  0  0  0
  2 19  1  0  0  0
  3 13  1  0  0  0
  3 34  1  0  0  0
  4 14  1  0  0  0
  4 35  1  0  0  0
  5 15  1  0  0  0
  5 36  1  0  0  0
  6 18  1  0  0  0
  6 37  1  0  0  0
  7 20  1  0  0  0
  7 23  1  0  0  0
  8 21  2  0  0  0
  9 25  1  0  0  0
  9 38  1  0  0  0
 10 30  1  0  0  0
 10 39  1  0  0  0
 11 31  1  0  0  0
 11 40  1  0  0  0
 12 33  1  0  0  0
 12 41  1  0  0  0
 13 14  1  0  0  0
 13 15  1  0  0  0
 14 16  1  0  0  0
 15 17  1  0  0  0
 16 18  1  0  0  0
 19 20  2  0  0  0
 19 21  1  0  0  0
 20 24  1  0  0  0
 21 22  1  0  0  0
 22 23  1  0  0  0
 22 25  2  0  0  0
 23 26  2  0  0  0
 24 27  2  0  0  0
 24 28  1  0  0  0
 25 29  1  0  0  0
 26 30  1  0  0  0
 27 31  1  0  0  0
 28 32  2  0  0  0
 29 30  2  0  0  0
 31 33  2  0  0  0
 32 33  1  0  0  0
M  END
>  <CHROM.0>
53.91150973,55.79689758,-60.57184819

>  <CHROM.1>
-60.63846756,106.76983482,172.56798201,59.63354361,58.51600366,177.00947100
-0.86079133,175.77453510,31.77625014,12.57040549,60.41135542,-165.16052387
-48.47206343,-2.63211030,16.62312496,-0.99010159,0.71660919,2.57069836

>  <Name>
5281643

>  <PUBCHEM_ATOM_DEF_STEREO_COUNT>
5

>  <PUBCHEM_ATOM_UDEF_STEREO_COUNT>
0

>  <PUBCHEM_BOND_DEF_STEREO_COUNT>
0

>  <PUBCHEM_BOND_UDEF_STEREO_COUNT>
0

>  <PUBCHEM_CACTVS_TAUTO_COUNT>
162

>  <PUBCHEM_COMPONENT_COUNT>
1

>  <PUBCHEM_COMPOUND_CID>
5281643

>  <PUBCHEM_CONFORMER_DIVERSEORDER>
1
86
59
70
75
65
68
80
35
60
72
84
10
81
85
66
61
88
58
63
62
69
39
16
83
52
30
67
49
47
76
25
2
57
64
87
14
71
45
19
53
36
79
27
42
9
34
4
29
40
78
48
43
56
12
11
44
74
17
38
82
37
23
3
8
31
6
50
33
28
55
22
73
77
51
46
5
24
41
26
20
18
32
54
7
21
15
13

>  <PUBCHEM_CONFORMER_ID>
0050976B00000001

>  <PUBCHEM_CONFORMER_RMSD>
0.8

>  <PUBCHEM_COORDINATE_TYPE>
2
5
10

>  <PUBCHEM_EFFECTIVE_ROTOR_COUNT>
5.2

>  <PUBCHEM_FEATURE_SELFOVERLAP>
101.615

>  <PUBCHEM_HEAVY_ATOM_COUNT>
33

>  <PUBCHEM_ISOTOPIC_ATOM_COUNT>
0

>  <PUBCHEM_MMFF94_ENERGY>
104.7486

>  <PUBCHEM_MMFF94_PARTIAL_CHARGES>
46
1 -0.56
10 -0.53
11 -0.53
12 -0.53
13 0.28
14 0.28
15 0.28
16 0.28
17 0.56
18 0.28
19 0.09
2 -0.36
20 0.05
21 0.47
22 0.09
23 0.08
24 0.03
25 0.08
26 -0.15
27 -0.15
28 -0.15
29 -0.15
3 -0.68
30 0.08
31 0.08
32 -0.15
33 0.08
4 -0.68
41 0.4
42 0.4
43 0.4
44 0.4
45 0.15
46 0.15
47 0.15
48 0.15
49 0.15
5 -0.68
50 0.45
51 0.45
52 0.45
53 0.45
6 -0.68
7 -0.16
8 -0.57
9 -0.53

>  <PUBCHEM_PHARMACOPHORE_FEATURES>
20
1 1 acceptor
1 10 donor
1 11 donor
1 12 donor
1 2 acceptor
1 3 acceptor
1 3 donor
1 4 acceptor
1 4 donor
1 5 acceptor
1 5 donor
1 6 acceptor
1 6 donor
1 7 acceptor
1 8 acceptor
1 9 donor
6 1 13 14 15 16 17 rings
6 22 23 25 26 29 30 rings
6 24 27 28 31 32 33 rings
6 7 19 20 21 22 23 rings

>  <PUBCHEM_SHAPE_FINGERPRINT>
10006869 2 18335973191630432171
10050765 1 18411138078758306218
10254770 206 17543629735110429114
10411042 1 18049726522484379307
10688039 33 18122628511688036570
1100329 8 18191865846011046165
11014199 57 18193559101690162847
11115154 58 17485060211102720839
11578080 2 16772653593855117074
12160290 23 18200008716930094571
12422481 6 18057344965791821347
12788726 201 18191291870106976058
13540713 4 18130787898074025568
1361 2 18337097987698836213
13690498 29 18198645374673823918
138480 1 16825304412646788035
13944108 23 17257933693666577220
140371 6 17616249621068240634
14068700 686 18053660567363316456
14508225 48 18194396925319104870
14790565 3 18196095438813983089
15131766 46 15504380113060768694
15463212 79 18262230015331414266
15484559 13 17837767833426351551
17357779 13 17982160420581768986
1813 80 17767144346333510902
19591789 44 18267018367185251353
20101258 96 18119543264584813442
20775438 99 17766234985840219669
21033648 144 18343867719350468664
21033648 29 18339635629996413648
21307412 95 17843144519371973382
21641784 216 18048331221354704092
21703447 108 18196922482976566226
23227448 37 18412825798245716428
23559900 14 18201999920346542688
238 59 17688559707949800469
3298306 158 18050845511872374654
3610482 184 17969243217130771598
38695281 34 18051131393374722297
4058900 60 17977675212157126569
44062 13 18341619213703054494
508706 21 18341040878859799886
59025328 239 17125891581249652975
7164475 11 18193562392178378628

>  <PUBCHEM_SHAPE_MULTIPOLES>
608.69
9.74
6.75
1.2
13.19
0.72
0.16
-1.42
2.09
-9.34
1.15
-0.24
0.37
0.55

>  <PUBCHEM_SHAPE_SELFOVERLAP>
1341.774

>  <PUBCHEM_SHAPE_VOLUME>
322.8

>  <RI>
-4.87673e+08

>  <Rbt.Current_Directory>
/root/miniconda3/envs/rdock/share/rxdock-2013.1.1_148c5bd1-0/data/ligands/prepped_ligands/Hyperoside

>  <Rbt.Executable>
rbdock/0.1.0

>  <Rbt.Library>
librxdock.so/0.1.0

>  <Rbt.Parameter_File>
/root/miniconda3/envs/rdock/share/rxdock-2013.1.1_148c5bd1-0/data/scripts/dock.prm

>  <Rbt.Receptor>
def.prm

>  <SCORE>
-18.3707

>  <SCORE.INTER>
-17.6309

>  <SCORE.INTER.CONST>
1

>  <SCORE.INTER.POLAR>
-1.57832

>  <SCORE.INTER.REPUL>
0.237444

>  <SCORE.INTER.ROT>
4

>  <SCORE.INTER.VDW>
-22.8518

>  <SCORE.INTER.norm>
-0.534269

>  <SCORE.INTRA>
0.0214634

>  <SCORE.INTRA.DIHEDRAL>
-6.81136

>  <SCORE.INTRA.DIHEDRAL.0>
13.4636

>  <SCORE.INTRA.POLAR>
0.161605

>  <SCORE.INTRA.POLAR.0>
-0.250933

>  <SCORE.INTRA.REPUL>
0

>  <SCORE.INTRA.REPUL.0>
0

>  <SCORE.INTRA.VDW>
2.87769

>  <SCORE.INTRA.VDW.0>
-3.21539

>  <SCORE.INTRA.norm>
0.000650406

>  <SCORE.RESTR>
0

>  <SCORE.RESTR.CAVITY>
0

>  <SCORE.RESTR.norm>
0

>  <SCORE.SYSTEM>
-0.761288

>  <SCORE.SYSTEM.CONST>
0

>  <SCORE.SYSTEM.DIHEDRAL>
0.183415

>  <SCORE.SYSTEM.VDW>
-0.852996

>  <SCORE.SYSTEM.norm>
-0.0230693

>  <SCORE.heavy>
33

>  <SCORE.norm>
-0.556688

$$$$
5281643
  RxDock  02242109513D
librxdock.so/0.1.0
 41 44  0  0  0  0  0  0  0  0999 V2000
  -47.7317   -1.0297   19.3331 O   0  0  0  0  0  0
  -49.8800   -1.7045   18.7180 O   0  0  0  0  0  0
  -48.7110    2.9388   18.6856 O   0  0  0  0  0  0
  -47.4458    1.4727   20.6803 O   0  0  0  0  0  0
  -50.3067    0.8315   17.5115 O   0  0  0  0  0  0
  -44.3656    0.2195   19.8114 O   0  0  0  0  0  0
  -48.7206   -4.6717   16.8636 O   0  0  0  0  0  0
  -50.2794   -3.7830   20.5220 O   0  0  0  0  0  0
  -50.1737   -6.3096   21.1872 O   0  0  0  0  0  0
  -48.4787   -9.2959   17.9080 O   0  0  0  0  0  0
  -45.8868   -0.7800   14.5566 O   0  0  0  0  0  0
  -47.9859    0.3383   13.1193 O   0  0  0  0  0  0
  -48.2127    1.6362   18.3933 C   0  0  0  0  0  0
  -47.0441    1.2993   19.3199 C   0  0  0  0  0  0
  -49.3440    0.6198   18.5441 C   0  0  0  0  0  0
  -46.6173   -0.1574   19.1074 C   0  0  0  0  0  0
  -48.8086   -0.8088   18.4233 C   0  0  0  0  0  0
  -45.5067   -0.5815   20.0611 C   0  0  0  0  0  0
  -49.5521   -3.0062   18.4067 C   0  0  0  0  0  0
  -49.0306   -3.3690   17.2205 C   0  0  0  0  0  0
  -49.8067   -4.0526   19.4259 C   0  0  0  0  0  0
  -49.4623   -5.4313   19.0464 C   0  0  0  0  0  0
  -48.9353   -5.6694   17.7791 C   0  0  0  0  0  0
  -48.7536   -2.3977   16.1473 C   0  0  0  0  0  0
  -49.6609   -6.4884   19.9381 C   0  0  0  0  0  0
  -48.6030   -6.9687   17.3944 C   0  0  0  0  0  0
  -47.4377   -2.0408   15.8515 C   0  0  0  0  0  0
  -49.8071   -1.8349   15.4264 C   0  0  0  0  0  0
  -49.3275   -7.7870   19.5511 C   0  0  0  0  0  0
  -48.7995   -8.0270   18.2819 C   0  0  0  0  0  0
  -47.1755   -1.1217   14.8354 C   0  0  0  0  0  0
  -49.5449   -0.9158   14.4103 C   0  0  0  0  0  0
  -48.2291   -0.5592   14.1148 C   0  0  0  0  0  0
  -49.5371    3.0538   18.1856 H   0  0  0  0  0  0
  -47.7716    2.3843   20.7721 H   0  0  0  0  0  0
  -49.8524    0.6861   16.6643 H   0  0  0  0  0  0
  -43.6492   -0.1017   20.3854 H   0  0  0  0  0  0
  -49.9223   -7.0446   21.7670 H   0  0  0  0  0  0
  -47.9781   -9.2623   17.0747 H   0  0  0  0  0  0
  -45.7855   -0.7312   13.5901 H   0  0  0  0  0  0
  -48.7615    0.3799   12.5340 H   0  0  0  0  0  0
  1 16  1  0  0  0
  1 17  1  0  0  0
  2 17  1  0  0  0
  2 19  1  0  0  0
  3 13  1  0  0  0
  3 34  1  0  0  0
  4 14  1  0  0  0
  4 35  1  0  0  0
  5 15  1  0  0  0
  5 36  1  0  0  0
  6 18  1  0  0  0
  6 37  1  0  0  0
  7 20  1  0  0  0
  7 23  1  0  0  0
  8 21  2  0  0  0
  9 25  1  0  0  0
  9 38  1  0  0  0
 10 30  1  0  0  0
 10 39  1  0  0  0
 11 31  1  0  0  0
 11 40  1  0  0  0
 12 33  1  0  0  0
 12 41  1  0  0  0
 13 14  1  0  0  0
 13 15  1  0  0  0
 14 16  1  0  0  0
 15 17  1  0  0  0
 16 18  1  0  0  0
 19 20  2  0  0  0
 19 21  1  0  0  0
 20 24  1  0  0  0
 21 22  1  0  0  0
 22 23  1  0  0  0
 22 25  2  0  0  0
 23 26  2  0  0  0
 24 27  2  0  0  0
 24 28  1  0  0  0
 25 29  1  0  0  0
 26 30  1  0  0  0
 27 31  1  0  0  0
 28 32  2  0  0  0
 29 30  2  0  0  0
 31 33  2  0  0  0
 32 33  1  0  0  0
M  END
>  <CHROM.0>
63.33984679,-63.62063633,-66.14701786

>  <CHROM.1>
-69.54087124,-49.64905292,-170.63354022,-55.81087277,61.63926332,-176.32349301
-157.64013574,10.59239217,138.76509664,159.97535562,176.97229617,-73.96413518
-48.43605990,-2.30397875,17.93091656,-0.16673978,1.36970464,1.56978504

>  <Name>
5281643

>  <PUBCHEM_ATOM_DEF_STEREO_COUNT>
5

>  <PUBCHEM_ATOM_UDEF_STEREO_COUNT>
0

>  <PUBCHEM_BOND_DEF_STEREO_COUNT>
0

>  <PUBCHEM_BOND_UDEF_STEREO_COUNT>
0

>  <PUBCHEM_CACTVS_TAUTO_COUNT>
162

>  <PUBCHEM_COMPONENT_COUNT>
1

>  <PUBCHEM_COMPOUND_CID>
5281643

>  <PUBCHEM_CONFORMER_DIVERSEORDER>
1
86
59
70
75
65
68
80
35
60
72
84
10
81
85
66
61
88
58
63
62
69
39
16
83
52
30
67
49
47
76
25
2
57
64
87
14
71
45
19
53
36
79
27
42
9
34
4
29
40
78
48
43
56
12
11
44
74
17
38
82
37
23
3
8
31
6
50
33
28
55
22
73
77
51
46
5
24
41
26
20
18
32
54
7
21
15
13

>  <PUBCHEM_CONFORMER_ID>
0050976B00000001

>  <PUBCHEM_CONFORMER_RMSD>
0.8

>  <PUBCHEM_COORDINATE_TYPE>
2
5
10

>  <PUBCHEM_EFFECTIVE_ROTOR_COUNT>
5.2

>  <PUBCHEM_FEATURE_SELFOVERLAP>
101.615

>  <PUBCHEM_HEAVY_ATOM_COUNT>
33

>  <PUBCHEM_ISOTOPIC_ATOM_COUNT>
0

>  <PUBCHEM_MMFF94_ENERGY>
104.7486

>  <PUBCHEM_MMFF94_PARTIAL_CHARGES>
46
1 -0.56
10 -0.53
11 -0.53
12 -0.53
13 0.28
14 0.28
15 0.28
16 0.28
17 0.56
18 0.28
19 0.09
2 -0.36
20 0.05
21 0.47
22 0.09
23 0.08
24 0.03
25 0.08
26 -0.15
27 -0.15
28 -0.15
29 -0.15
3 -0.68
30 0.08
31 0.08
32 -0.15
33 0.08
4 -0.68
41 0.4
42 0.4
43 0.4
44 0.4
45 0.15
46 0.15
47 0.15
48 0.15
49 0.15
5 -0.68
50 0.45
51 0.45
52 0.45
53 0.45
6 -0.68
7 -0.16
8 -0.57
9 -0.53

>  <PUBCHEM_PHARMACOPHORE_FEATURES>
20
1 1 acceptor
1 10 donor
1 11 donor
1 12 donor
1 2 acceptor
1 3 acceptor
1 3 donor
1 4 acceptor
1 4 donor
1 5 acceptor
1 5 donor
1 6 acceptor
1 6 donor
1 7 acceptor
1 8 acceptor
1 9 donor
6 1 13 14 15 16 17 rings
6 22 23 25 26 29 30 rings
6 24 27 28 31 32 33 rings
6 7 19 20 21 22 23 rings

>  <PUBCHEM_SHAPE_FINGERPRINT>
10006869 2 18335973191630432171
10050765 1 18411138078758306218
10254770 206 17543629735110429114
10411042 1 18049726522484379307
10688039 33 18122628511688036570
1100329 8 18191865846011046165
11014199 57 18193559101690162847
11115154 58 17485060211102720839
11578080 2 16772653593855117074
12160290 23 18200008716930094571
12422481 6 18057344965791821347
12788726 201 18191291870106976058
13540713 4 18130787898074025568
1361 2 18337097987698836213
13690498 29 18198645374673823918
138480 1 16825304412646788035
13944108 23 17257933693666577220
140371 6 17616249621068240634
14068700 686 18053660567363316456
14508225 48 18194396925319104870
14790565 3 18196095438813983089
15131766 46 15504380113060768694
15463212 79 18262230015331414266
15484559 13 17837767833426351551
17357779 13 17982160420581768986
1813 80 17767144346333510902
19591789 44 18267018367185251353
20101258 96 18119543264584813442
20775438 99 17766234985840219669
21033648 144 18343867719350468664
21033648 29 18339635629996413648
21307412 95 17843144519371973382
21641784 216 18048331221354704092
21703447 108 18196922482976566226
23227448 37 18412825798245716428
23559900 14 18201999920346542688
238 59 17688559707949800469
3298306 158 18050845511872374654
3610482 184 17969243217130771598
38695281 34 18051131393374722297
4058900 60 17977675212157126569
44062 13 18341619213703054494
508706 21 18341040878859799886
59025328 239 17125891581249652975
7164475 11 18193562392178378628

>  <PUBCHEM_SHAPE_MULTIPOLES>
608.69
9.74
6.75
1.2
13.19
0.72
0.16
-1.42
2.09
-9.34
1.15
-0.24
0.37
0.55

>  <PUBCHEM_SHAPE_SELFOVERLAP>
1341.774

>  <PUBCHEM_SHAPE_VOLUME>
322.8

>  <RI>
-4.87673e+08

>  <Rbt.Current_Directory>
/root/miniconda3/envs/rdock/share/rxdock-2013.1.1_148c5bd1-0/data/ligands/prepped_ligands/Hyperoside

>  <Rbt.Executable>
rbdock/0.1.0

>  <Rbt.Library>
librxdock.so/0.1.0

>  <Rbt.Parameter_File>
/root/miniconda3/envs/rdock/share/rxdock-2013.1.1_148c5bd1-0/data/scripts/dock.prm

>  <Rbt.Receptor>
def.prm

>  <SCORE>
-18.9644

>  <SCORE.INTER>
-19.353

>  <SCORE.INTER.CONST>
1

>  <SCORE.INTER.POLAR>
-3.43196

>  <SCORE.INTER.REPUL>
0.0272746

>  <SCORE.INTER.ROT>
4

>  <SCORE.INTER.VDW>
-17.2208

>  <SCORE.INTER.norm>
-0.586456

>  <SCORE.INTRA>
1.39842

>  <SCORE.INTRA.DIHEDRAL>
-1.71056

>  <SCORE.INTRA.DIHEDRAL.0>
13.4636

>  <SCORE.INTRA.POLAR>
0.210751

>  <SCORE.INTRA.POLAR.0>
-0.250933

>  <SCORE.INTRA.REPUL>
0

>  <SCORE.INTRA.REPUL.0>
0

>  <SCORE.INTRA.VDW>
1.53715

>  <SCORE.INTRA.VDW.0>
-3.21539

>  <SCORE.INTRA.norm>
0.0423765

>  <SCORE.RESTR>
0

>  <SCORE.RESTR.CAVITY>
0

>  <SCORE.RESTR.norm>
0

>  <SCORE.SYSTEM>
-1.00978

>  <SCORE.SYSTEM.CONST>
0

>  <SCORE.SYSTEM.DIHEDRAL>
0.187046

>  <SCORE.SYSTEM.VDW>
-1.1033

>  <SCORE.SYSTEM.norm>
-0.0305993

>  <SCORE.heavy>
33

>  <SCORE.norm>
-0.574679

$$$$
5281643
  RxDock  02242109523D
librxdock.so/0.1.0
 41 44  0  0  0  0  0  0  0  0999 V2000
  -47.6723   -1.0824   18.8089 O   0  0  0  0  0  0
  -49.8987   -1.6707   18.4273 O   0  0  0  0  0  0
  -48.6536    2.9381   18.7975 O   0  0  0  0  0  0
  -47.1499    1.2331   20.3978 O   0  0  0  0  0  0
  -50.4402    0.9963   17.6131 O   0  0  0  0  0  0
  -44.6594   -1.5999   18.3875 O   0  0  0  0  0  0
  -48.5982   -4.6063   16.6168 O   0  0  0  0  0  0
  -50.3956   -3.7739   20.1777 O   0  0  0  0  0  0
  -50.3118   -6.3075   20.8189 O   0  0  0  0  0  0
  -48.3854   -9.2409   17.6208 O   0  0  0  0  0  0
  -50.3011   -0.0430   13.6278 O   0  0  0  0  0  0
  -47.6415    0.4545   12.9944 O   0  0  0  0  0  0
  -48.2275    1.6806   18.2802 C   0  0  0  0  0  0
  -46.9471    1.2286   18.9832 C   0  0  0  0  0  0
  -49.3463    0.6560   18.4647 C   0  0  0  0  0  0
  -46.5835   -0.1915   18.5356 C   0  0  0  0  0  0
  -48.8618   -0.7478   18.0952 C   0  0  0  0  0  0
  -45.3585   -0.7332   19.2628 C   0  0  0  0  0  0
  -49.5408   -2.9659   18.1226 C   0  0  0  0  0  0
  -48.9413   -3.3104   16.9681 C   0  0  0  0  0  0
  -49.8515   -4.0265   19.1112 C   0  0  0  0  0  0
  -49.4720   -5.3979   18.7386 C   0  0  0  0  0  0
  -48.8629   -5.6167   17.5050 C   0  0  0  0  0  0
  -48.6042   -2.3241   15.9263 C   0  0  0  0  0  0
  -49.7185   -6.4672   19.6033 C   0  0  0  0  0  0
  -48.4958   -6.9087   17.1274 C   0  0  0  0  0  0
  -49.6199   -1.6388   15.2592 C   0  0  0  0  0  0
  -47.2692   -2.0750   15.6069 C   0  0  0  0  0  0
  -49.3502   -7.7585   19.2235 C   0  0  0  0  0  0
  -48.7399   -7.9791   17.9880 C   0  0  0  0  0  0
  -49.3008   -0.7049   14.2733 C   0  0  0  0  0  0
  -46.9501   -1.1412   14.6210 C   0  0  0  0  0  0
  -47.9659   -0.4561   13.9542 C   0  0  0  0  0  0
  -49.5597    3.0920   18.4797 H   0  0  0  0  0  0
  -47.9249    0.6750   20.5809 H   0  0  0  0  0  0
  -51.1428    0.3446   17.7775 H   0  0  0  0  0  0
  -45.2656   -2.3186   18.1385 H   0  0  0  0  0  0
  -50.7171   -5.4296   20.8872 H   0  0  0  0  0  0
  -48.5828   -9.8498   18.3532 H   0  0  0  0  0  0
  -51.1483   -0.3015   14.0302 H   0  0  0  0  0  0
  -46.7948    0.1996   12.5893 H   0  0  0  0  0  0
  1 16  1  0  0  0
  1 17  1  0  0  0
  2 17  1  0  0  0
  2 19  1  0  0  0
  3 13  1  0  0  0
  3 34  1  0  0  0
  4 14  1  0  0  0
  4 35  1  0  0  0
  5 15  1  0  0  0
  5 36  1  0  0  0
  6 18  1  0  0  0
  6 37  1  0  0  0
  7 20  1  0  0  0
  7 23  1  0  0  0
  8 21  2  0  0  0
  9 25  1  0  0  0
  9 38  1  0  0  0
 10 30  1  0  0  0
 10 39  1  0  0  0
 11 31  1  0  0  0
 11 40  1  0  0  0
 12 33  1  0  0  0
 12 41  1  0  0  0
 13 14  1  0  0  0
 13 15  1  0  0  0
 14 16  1  0  0  0
 15 17  1  0  0  0
 16 18  1  0  0  0
 19 20  2  0  0  0
 19 21  1  0  0  0
 20 24  1  0  0  0
 21 22  1  0  0  0
 22 23  1  0  0  0
 22 25  2  0  0  0
 23 26  2  0  0  0
 24 27  2  0  0  0
 24 28  1  0  0  0
 25 29  1  0  0  0
 26 30  1  0  0  0
 27 31  1  0  0  0
 28 32  2  0  0  0
 29 30  2  0  0  0
 31 33  2  0  0  0
 32 33  1  0  0  0
M  END
>  <CHROM.0>
-64.20236285,-65.40069061,57.46690650

>  <CHROM.1>
-59.02522265,-44.20893105,-167.38771251,55.37456328,-178.10245809,-59.58928415
13.90119323,176.95508647,4.15166731,-151.58081086,91.07622835,113.92035389
-48.54578133,-2.32263994,17.60763866,-0.49982289,1.41268463,1.86961632

>  <Name>
5281643

>  <PUBCHEM_ATOM_DEF_STEREO_COUNT>
5

>  <PUBCHEM_ATOM_UDEF_STEREO_COUNT>
0

>  <PUBCHEM_BOND_DEF_STEREO_COUNT>
0

>  <PUBCHEM_BOND_UDEF_STEREO_COUNT>
0

>  <PUBCHEM_CACTVS_TAUTO_COUNT>
162

>  <PUBCHEM_COMPONENT_COUNT>
1

>  <PUBCHEM_COMPOUND_CID>
5281643

>  <PUBCHEM_CONFORMER_DIVERSEORDER>
1
86
59
70
75
65
68
80
35
60
72
84
10
81
85
66
61
88
58
63
62
69
39
16
83
52
30
67
49
47
76
25
2
57
64
87
14
71
45
19
53
36
79
27
42
9
34
4
29
40
78
48
43
56
12
11
44
74
17
38
82
37
23
3
8
31
6
50
33
28
55
22
73
77
51
46
5
24
41
26
20
18
32
54
7
21
15
13

>  <PUBCHEM_CONFORMER_ID>
0050976B00000001

>  <PUBCHEM_CONFORMER_RMSD>
0.8

>  <PUBCHEM_COORDINATE_TYPE>
2
5
10

>  <PUBCHEM_EFFECTIVE_ROTOR_COUNT>
5.2

>  <PUBCHEM_FEATURE_SELFOVERLAP>
101.615

>  <PUBCHEM_HEAVY_ATOM_COUNT>
33

>  <PUBCHEM_ISOTOPIC_ATOM_COUNT>
0

>  <PUBCHEM_MMFF94_ENERGY>
104.7486

>  <PUBCHEM_MMFF94_PARTIAL_CHARGES>
46
1 -0.56
10 -0.53
11 -0.53
12 -0.53
13 0.28
14 0.28
15 0.28
16 0.28
17 0.56
18 0.28
19 0.09
2 -0.36
20 0.05
21 0.47
22 0.09
23 0.08
24 0.03
25 0.08
26 -0.15
27 -0.15
28 -0.15
29 -0.15
3 -0.68
30 0.08
31 0.08
32 -0.15
33 0.08
4 -0.68
41 0.4
42 0.4
43 0.4
44 0.4
45 0.15
46 0.15
47 0.15
48 0.15
49 0.15
5 -0.68
50 0.45
51 0.45
52 0.45
53 0.45
6 -0.68
7 -0.16
8 -0.57
9 -0.53

>  <PUBCHEM_PHARMACOPHORE_FEATURES>
20
1 1 acceptor
1 10 donor
1 11 donor
1 12 donor
1 2 acceptor
1 3 acceptor
1 3 donor
1 4 acceptor
1 4 donor
1 5 acceptor
1 5 donor
1 6 acceptor
1 6 donor
1 7 acceptor
1 8 acceptor
1 9 donor
6 1 13 14 15 16 17 rings
6 22 23 25 26 29 30 rings
6 24 27 28 31 32 33 rings
6 7 19 20 21 22 23 rings

>  <PUBCHEM_SHAPE_FINGERPRINT>
10006869 2 18335973191630432171
10050765 1 18411138078758306218
10254770 206 17543629735110429114
10411042 1 18049726522484379307
10688039 33 18122628511688036570
1100329 8 18191865846011046165
11014199 57 18193559101690162847
11115154 58 17485060211102720839
11578080 2 16772653593855117074
12160290 23 18200008716930094571
12422481 6 18057344965791821347
12788726 201 18191291870106976058
13540713 4 18130787898074025568
1361 2 18337097987698836213
13690498 29 18198645374673823918
138480 1 16825304412646788035
13944108 23 17257933693666577220
140371 6 17616249621068240634
14068700 686 18053660567363316456
14508225 48 18194396925319104870
14790565 3 18196095438813983089
15131766 46 15504380113060768694
15463212 79 18262230015331414266
15484559 13 17837767833426351551
17357779 13 17982160420581768986
1813 80 17767144346333510902
19591789 44 18267018367185251353
20101258 96 18119543264584813442
20775438 99 17766234985840219669
21033648 144 18343867719350468664
21033648 29 18339635629996413648
21307412 95 17843144519371973382
21641784 216 18048331221354704092
21703447 108 18196922482976566226
23227448 37 18412825798245716428
23559900 14 18201999920346542688
238 59 17688559707949800469
3298306 158 18050845511872374654
3610482 184 17969243217130771598
38695281 34 18051131393374722297
4058900 60 17977675212157126569
44062 13 18341619213703054494
508706 21 18341040878859799886
59025328 239 17125891581249652975
7164475 11 18193562392178378628

>  <PUBCHEM_SHAPE_MULTIPOLES>
608.69
9.74
6.75
1.2
13.19
0.72
0.16
-1.42
2.09
-9.34
1.15
-0.24
0.37
0.55

>  <PUBCHEM_SHAPE_SELFOVERLAP>
1341.774

>  <PUBCHEM_SHAPE_VOLUME>
322.8

>  <RI>
-4.87673e+08

>  <Rbt.Current_Directory>
/root/miniconda3/envs/rdock/share/rxdock-2013.1.1_148c5bd1-0/data/ligands/prepped_ligands/Hyperoside

>  <Rbt.Executable>
rbdock/0.1.0

>  <Rbt.Library>
librxdock.so/0.1.0

>  <Rbt.Parameter_File>
/root/miniconda3/envs/rdock/share/rxdock-2013.1.1_148c5bd1-0/data/scripts/dock.prm

>  <Rbt.Receptor>
def.prm

>  <SCORE>
-18.5865

>  <SCORE.INTER>
-20.1864

>  <SCORE.INTER.CONST>
1

>  <SCORE.INTER.POLAR>
-3.34678

>  <SCORE.INTER.REPUL>
0.0286805

>  <SCORE.INTER.ROT>
4

>  <SCORE.INTER.VDW>
-18.3508

>  <SCORE.INTER.norm>
-0.61171

>  <SCORE.INTRA>
2.6074

>  <SCORE.INTRA.DIHEDRAL>
-2.09539

>  <SCORE.INTRA.DIHEDRAL.0>
13.4636

>  <SCORE.INTRA.POLAR>
0.223382

>  <SCORE.INTRA.POLAR.0>
-0.250933

>  <SCORE.INTRA.REPUL>
0

>  <SCORE.INTRA.REPUL.0>
0

>  <SCORE.INTRA.VDW>
2.8956

>  <SCORE.INTRA.VDW.0>
-3.21539

>  <SCORE.INTRA.norm>
0.0790122

>  <SCORE.RESTR>
0

>  <SCORE.RESTR.CAVITY>
0

>  <SCORE.RESTR.norm>
0

>  <SCORE.SYSTEM>
-1.00741

>  <SCORE.SYSTEM.CONST>
0

>  <SCORE.SYSTEM.DIHEDRAL>
0.207526

>  <SCORE.SYSTEM.VDW>
-1.11118

>  <SCORE.SYSTEM.norm>
-0.0305276

>  <SCORE.heavy>
33

>  <SCORE.norm>
-0.563226

$$$$
5281643
  RxDock  02242109523D
librxdock.so/0.1.0
 41 44  0  0  0  0  0  0  0  0999 V2000
  -51.1216   -5.9145   18.3133 O   0  0  0  0  0  0
  -52.9374   -4.4881   18.6551 O   0  0  0  0  0  0
  -52.1068   -8.1004   21.6864 O   0  0  0  0  0  0
  -51.4130   -8.6580   19.0527 O   0  0  0  0  0  0
  -53.1385   -5.4220   21.3302 O   0  0  0  0  0  0
  -48.8025   -6.2137   16.8934 O   0  0  0  0  0  0
  -52.2850   -3.6980   15.1143 O   0  0  0  0  0  0
  -51.4346   -2.1517   18.7871 O   0  0  0  0  0  0
  -50.1183   -0.1916   17.6635 O   0  0  0  0  0  0
  -49.9183   -0.2173   12.9197 O   0  0  0  0  0  0
  -53.3978   -9.0934   16.7986 O   0  0  0  0  0  0
  -55.7314   -8.9644   15.2952 O   0  0  0  0  0  0
  -51.4629   -7.1007   20.9014 C   0  0  0  0  0  0
  -50.6095   -7.7539   19.8137 C   0  0  0  0  0  0
  -52.5209   -6.1818   20.2915 C   0  0  0  0  0  0
  -50.0480   -6.6770   18.8788 C   0  0  0  0  0  0
  -51.8855   -5.2119   19.2926 C   0  0  0  0  0  0
  -49.2526   -7.2704   17.7221 C   0  0  0  0  0  0
  -52.4947   -3.8470   17.5185 C   0  0  0  0  0  0
  -52.7426   -4.2997   16.2758 C   0  0  0  0  0  0
  -51.6923   -2.6109   17.6825 C   0  0  0  0  0  0
  -51.2216   -1.9692   16.4455 C   0  0  0  0  0  0
  -51.5439   -2.5494   15.2208 C   0  0  0  0  0  0
  -53.5229   -5.5235   16.0202 C   0  0  0  0  0  0
  -50.4614   -0.7979   16.4930 C   0  0  0  0  0  0
  -51.1071   -1.9613   14.0334 C   0  0  0  0  0  0
  -53.0912   -6.7465   16.5343 C   0  0  0  0  0  0
  -54.6937   -5.4595   15.2644 C   0  0  0  0  0  0
  -50.0259   -0.2113   15.3041 C   0  0  0  0  0  0
  -50.3481   -0.7916   14.0765 C   0  0  0  0  0  0
  -53.8300   -7.9049   16.2927 C   0  0  0  0  0  0
  -55.4324   -6.6179   15.0227 C   0  0  0  0  0  0
  -55.0005   -7.8406   15.5369 C   0  0  0  0  0  0
  -51.4108   -8.6352   22.1052 H   0  0  0  0  0  0
  -52.2661   -8.2206   18.8900 H   0  0  0  0  0  0
  -53.5453   -6.0567   21.9442 H   0  0  0  0  0  0
  -48.2495   -5.6275   17.4379 H   0  0  0  0  0  0
  -50.5642   -0.6178   18.4112 H   0  0  0  0  0  0
  -49.6393    0.6958   13.1055 H   0  0  0  0  0  0
  -52.5468   -8.9442   17.2458 H   0  0  0  0  0  0
  -55.3056   -9.7199   15.7357 H   0  0  0  0  0  0
  1 16  1  0  0  0
  1 17  1  0  0  0
  2 17  1  0  0  0
  2 19  1  0  0  0
  3 13  1  0  0  0
  3 34  1  0  0  0
  4 14  1  0  0  0
  4 35  1  0  0  0
  5 15  1  0  0  0
  5 36  1  0  0  0
  6 18  1  0  0  0
  6 37  1  0  0  0
  7 20  1  0  0  0
  7 23  1  0  0  0
  8 21  2  0  0  0
  9 25  1  0  0  0
  9 38  1  0  0  0
 10 30  1  0  0  0
 10 39  1  0  0  0
 11 31  1  0  0  0
 11 40  1  0  0  0
 12 33  1  0  0  0
 12 41  1  0  0  0
 13 14  1  0  0  0
 13 15  1  0  0  0
 14 16  1  0  0  0
 15 17  1  0  0  0
 16 18  1  0  0  0
 19 20  2  0  0  0
 19 21  1  0  0  0
 20 24  1  0  0  0
 21 22  1  0  0  0
 22 23  1  0  0  0
 22 25  2  0  0  0
 23 26  2  0  0  0
 24 27  2  0  0  0
 24 28  1  0  0  0
 25 29  1  0  0  0
 26 30  1  0  0  0
 27 31  1  0  0  0
 28 32  2  0  0  0
 29 30  2  0  0  0
 31 33  2  0  0  0
 32 33  1  0  0  0
M  END
>  <CHROM.0>
-59.91282656,178.67748437,55.01885567

>  <CHROM.1>
-43.66816229,103.12474255,61.21642990,42.53862848,-60.00229572,59.41677652
-7.19222154,163.81503191,-3.24438950,1.07949167,57.55162451,119.46661202
-51.95521079,-4.99436842,17.26564990,-2.02482245,-0.90991489,-0.82830359

>  <Name>
5281643

>  <PUBCHEM_ATOM_DEF_STEREO_COUNT>
5

>  <PUBCHEM_ATOM_UDEF_STEREO_COUNT>
0

>  <PUBCHEM_BOND_DEF_STEREO_COUNT>
0

>  <PUBCHEM_BOND_UDEF_STEREO_COUNT>
0

>  <PUBCHEM_CACTVS_TAUTO_COUNT>
162

>  <PUBCHEM_COMPONENT_COUNT>
1

>  <PUBCHEM_COMPOUND_CID>
5281643

>  <PUBCHEM_CONFORMER_DIVERSEORDER>
1
86
59
70
75
65
68
80
35
60
72
84
10
81
85
66
61
88
58
63
62
69
39
16
83
52
30
67
49
47
76
25
2
57
64
87
14
71
45
19
53
36
79
27
42
9
34
4
29
40
78
48
43
56
12
11
44
74
17
38
82
37
23
3
8
31
6
50
33
28
55
22
73
77
51
46
5
24
41
26
20
18
32
54
7
21
15
13

>  <PUBCHEM_CONFORMER_ID>
0050976B00000001

>  <PUBCHEM_CONFORMER_RMSD>
0.8

>  <PUBCHEM_COORDINATE_TYPE>
2
5
10

>  <PUBCHEM_EFFECTIVE_ROTOR_COUNT>
5.2

>  <PUBCHEM_FEATURE_SELFOVERLAP>
101.615

>  <PUBCHEM_HEAVY_ATOM_COUNT>
33

>  <PUBCHEM_ISOTOPIC_ATOM_COUNT>
0

>  <PUBCHEM_MMFF94_ENERGY>
104.7486

>  <PUBCHEM_MMFF94_PARTIAL_CHARGES>
46
1 -0.56
10 -0.53
11 -0.53
12 -0.53
13 0.28
14 0.28
15 0.28
16 0.28
17 0.56
18 0.28
19 0.09
2 -0.36
20 0.05
21 0.47
22 0.09
23 0.08
24 0.03
25 0.08
26 -0.15
27 -0.15
28 -0.15
29 -0.15
3 -0.68
30 0.08
31 0.08
32 -0.15
33 0.08
4 -0.68
41 0.4
42 0.4
43 0.4
44 0.4
45 0.15
46 0.15
47 0.15
48 0.15
49 0.15
5 -0.68
50 0.45
51 0.45
52 0.45
53 0.45
6 -0.68
7 -0.16
8 -0.57
9 -0.53

>  <PUBCHEM_PHARMACOPHORE_FEATURES>
20
1 1 acceptor
1 10 donor
1 11 donor
1 12 donor
1 2 acceptor
1 3 acceptor
1 3 donor
1 4 acceptor
1 4 donor
1 5 acceptor
1 5 donor
1 6 acceptor
1 6 donor
1 7 acceptor
1 8 acceptor
1 9 donor
6 1 13 14 15 16 17 rings
6 22 23 25 26 29 30 rings
6 24 27 28 31 32 33 rings
6 7 19 20 21 22 23 rings

>  <PUBCHEM_SHAPE_FINGERPRINT>
10006869 2 18335973191630432171
10050765 1 18411138078758306218
10254770 206 17543629735110429114
10411042 1 18049726522484379307
10688039 33 18122628511688036570
1100329 8 18191865846011046165
11014199 57 18193559101690162847
11115154 58 17485060211102720839
11578080 2 16772653593855117074
12160290 23 18200008716930094571
12422481 6 18057344965791821347
12788726 201 18191291870106976058
13540713 4 18130787898074025568
1361 2 18337097987698836213
13690498 29 18198645374673823918
138480 1 16825304412646788035
13944108 23 17257933693666577220
140371 6 17616249621068240634
14068700 686 18053660567363316456
14508225 48 18194396925319104870
14790565 3 18196095438813983089
15131766 46 15504380113060768694
15463212 79 18262230015331414266
15484559 13 17837767833426351551
17357779 13 17982160420581768986
1813 80 17767144346333510902
19591789 44 18267018367185251353
20101258 96 18119543264584813442
20775438 99 17766234985840219669
21033648 144 18343867719350468664
21033648 29 18339635629996413648
21307412 95 17843144519371973382
21641784 216 18048331221354704092
21703447 108 18196922482976566226
23227448 37 18412825798245716428
23559900 14 18201999920346542688
238 59 17688559707949800469
3298306 158 18050845511872374654
3610482 184 17969243217130771598
38695281 34 18051131393374722297
4058900 60 17977675212157126569
44062 13 18341619213703054494
508706 21 18341040878859799886
59025328 239 17125891581249652975
7164475 11 18193562392178378628

>  <PUBCHEM_SHAPE_MULTIPOLES>
608.69
9.74
6.75
1.2
13.19
0.72
0.16
-1.42
2.09
-9.34
1.15
-0.24
0.37
0.55

>  <PUBCHEM_SHAPE_SELFOVERLAP>
1341.774

>  <PUBCHEM_SHAPE_VOLUME>
322.8

>  <RI>
-4.87673e+08

>  <Rbt.Current_Directory>
/root/miniconda3/envs/rdock/share/rxdock-2013.1.1_148c5bd1-0/data/ligands/prepped_ligands/Hyperoside

>  <Rbt.Executable>
rbdock/0.1.0

>  <Rbt.Library>
librxdock.so/0.1.0

>  <Rbt.Parameter_File>
/root/miniconda3/envs/rdock/share/rxdock-2013.1.1_148c5bd1-0/data/scripts/dock.prm

>  <Rbt.Receptor>
def.prm

>  <SCORE>
-20.2573

>  <SCORE.INTER>
-17.6138

>  <SCORE.INTER.CONST>
1

>  <SCORE.INTER.POLAR>
-0.487998

>  <SCORE.INTER.REPUL>
0.123881

>  <SCORE.INTER.ROT>
4

>  <SCORE.INTER.VDW>
-25.974

>  <SCORE.INTER.norm>
-0.533752

>  <SCORE.INTRA>
-1.60134

>  <SCORE.INTRA.DIHEDRAL>
-2.16369

>  <SCORE.INTRA.DIHEDRAL.0>
13.4636

>  <SCORE.INTRA.POLAR>
-0.801764

>  <SCORE.INTRA.POLAR.0>
-0.250933

>  <SCORE.INTRA.REPUL>
0

>  <SCORE.INTRA.REPUL.0>
0

>  <SCORE.INTRA.VDW>
2.2065

>  <SCORE.INTRA.VDW.0>
-3.21539

>  <SCORE.INTRA.norm>
-0.0485254

>  <SCORE.RESTR>
0

>  <SCORE.RESTR.CAVITY>
0

>  <SCORE.RESTR.norm>
0

>  <SCORE.SYSTEM>
-1.0421

>  <SCORE.SYSTEM.CONST>
0

>  <SCORE.SYSTEM.DIHEDRAL>
0.0736704

>  <SCORE.SYSTEM.VDW>
-1.07894

>  <SCORE.SYSTEM.norm>
-0.0315788

>  <SCORE.heavy>
33

>  <SCORE.norm>
-0.613857

$$$$
5281643
  RxDock  02242109523D
librxdock.so/0.1.0
 41 44  0  0  0  0  0  0  0  0999 V2000
  -49.9484   -0.0590   17.8526 O   0  0  0  0  0  0
  -48.6747   -1.7848   16.9317 O   0  0  0  0  0  0
  -46.6820    1.3123   19.9919 O   0  0  0  0  0  0
  -48.6519    2.4309   18.3804 O   0  0  0  0  0  0
  -46.7160   -1.3855   18.9498 O   0  0  0  0  0  0
  -51.0062    2.5040   17.5580 O   0  0  0  0  0  0
  -51.5187   -2.6258   14.7428 O   0  0  0  0  0  0
  -50.0480   -3.7200   18.3819 O   0  0  0  0  0  0
  -52.0239   -5.4065   18.6798 O   0  0  0  0  0  0
  -55.1759   -5.6263   15.1357 O   0  0  0  0  0  0
  -50.5768    2.1996   12.9246 O   0  0  0  0  0  0
  -48.0673    1.7561   11.8163 O   0  0  0  0  0  0
  -47.8750    0.5796   19.7274 C   0  0  0  0  0  0
  -49.0280    1.5395   19.4321 C   0  0  0  0  0  0
  -47.6336   -0.3669   18.5520 C   0  0  0  0  0  0
  -50.2644    0.7458   18.9955 C   0  0  0  0  0  0
  -48.9401   -1.0337   18.1160 C   0  0  0  0  0  0
  -51.4275    1.6510   18.6073 C   0  0  0  0  0  0
  -49.8170   -2.3805   16.4430 C   0  0  0  0  0  0
  -50.3545   -2.0701   15.2490 C   0  0  0  0  0  0
  -50.4897   -3.3970   17.2874 C   0  0  0  0  0  0
  -51.7170   -3.9934   16.7383 C   0  0  0  0  0  0
  -52.1693   -3.5741   15.4893 C   0  0  0  0  0  0
  -49.7584   -1.0662   14.3497 C   0  0  0  0  0  0
  -52.4225   -4.9632   17.4551 C   0  0  0  0  0  0
  -53.3323   -4.1227   14.9479 C   0  0  0  0  0  0
  -50.4530    0.1076   14.0560 C   0  0  0  0  0  0
  -48.4993   -1.2890   13.7919 C   0  0  0  0  0  0
  -53.5853   -5.5107   16.9114 C   0  0  0  0  0  0
  -54.0395   -5.0915   15.6603 C   0  0  0  0  0  0
  -49.8886    1.0580   13.2051 C   0  0  0  0  0  0
  -47.9350   -0.3386   12.9410 C   0  0  0  0  0  0
  -48.6296    0.8350   12.6475 C   0  0  0  0  0  0
  -46.4772    1.8327   19.1963 H   0  0  0  0  0  0
  -49.4478    2.9268   18.1227 H   0  0  0  0  0  0
  -45.8797   -0.9436   19.1750 H   0  0  0  0  0  0
  -51.6945    3.1799   17.4337 H   0  0  0  0  0  0
  -52.3737   -6.2942   18.8510 H   0  0  0  0  0  0
  -55.3768   -6.4574   15.5995 H   0  0  0  0  0  0
  -50.0782    2.7009   12.2562 H   0  0  0  0  0  0
  -47.3884    1.3200   11.2733 H   0  0  0  0  0  0
  1 16  1  0  0  0
  1 17  1  0  0  0
  2 17  1  0  0  0
  2 19  1  0  0  0
  3 13  1  0  0  0
  3 34  1  0  0  0
  4 14  1  0  0  0
  4 35  1  0  0  0
  5 15  1  0  0  0
  5 36  1  0  0  0
  6 18  1  0  0  0
  6 37  1  0  0  0
  7 20  1  0  0  0
  7 23  1  0  0  0
  8 21  2  0  0  0
  9 25  1  0  0  0
  9 38  1  0  0  0
 10 30  1  0  0  0
 10 39  1  0  0  0
 11 31  1  0  0  0
 11 40  1  0  0  0
 12 33  1  0  0  0
 12 41  1  0  0  0
 13 14  1  0  0  0
 13 15  1  0  0  0
 14 16  1  0  0  0
 15 17  1  0  0  0
 16 18  1  0  0  0
 19 20  2  0  0  0
 19 21  1  0  0  0
 20 24  1  0  0  0
 21 22  1  0  0  0
 22 23  1  0  0  0
 22 25  2  0  0  0
 23 26  2  0  0  0
 24 27  2  0  0  0
 24 28  1  0  0  0
 25 29  1  0  0  0
 26 30  1  0  0  0
 27 31  1  0  0  0
 28 32  2  0  0  0
 29 30  2  0  0  0
 31 33  2  0  0  0
 32 33  1  0  0  0
M  END
>  <CHROM.0>
-62.43212499,-60.54898575,55.65678543

>  <CHROM.1>
-56.73967903,115.86149552,-60.69643987,171.10934110,-62.26769748,-169.70926542
-155.78628127,162.02153223,-174.61162307,-158.85098903,-62.78541055,63.73299124
-50.18035428,-1.22137882,16.47705726,-0.16986889,0.92932504,1.89247778

>  <Name>
5281643

>  <PUBCHEM_ATOM_DEF_STEREO_COUNT>
5

>  <PUBCHEM_ATOM_UDEF_STEREO_COUNT>
0

>  <PUBCHEM_BOND_DEF_STEREO_COUNT>
0

>  <PUBCHEM_BOND_UDEF_STEREO_COUNT>
0

>  <PUBCHEM_CACTVS_TAUTO_COUNT>
162

>  <PUBCHEM_COMPONENT_COUNT>
1

>  <PUBCHEM_COMPOUND_CID>
5281643

>  <PUBCHEM_CONFORMER_DIVERSEORDER>
1
86
59
70
75
65
68
80
35
60
72
84
10
81
85
66
61
88
58
63
62
69
39
16
83
52
30
67
49
47
76
25
2
57
64
87
14
71
45
19
53
36
79
27
42
9
34
4
29
40
78
48
43
56
12
11
44
74
17
38
82
37
23
3
8
31
6
50
33
28
55
22
73
77
51
46
5
24
41
26
20
18
32
54
7
21
15
13

>  <PUBCHEM_CONFORMER_ID>
0050976B00000001

>  <PUBCHEM_CONFORMER_RMSD>
0.8

>  <PUBCHEM_COORDINATE_TYPE>
2
5
10

>  <PUBCHEM_EFFECTIVE_ROTOR_COUNT>
5.2

>  <PUBCHEM_FEATURE_SELFOVERLAP>
101.615

>  <PUBCHEM_HEAVY_ATOM_COUNT>
33

>  <PUBCHEM_ISOTOPIC_ATOM_COUNT>
0

>  <PUBCHEM_MMFF94_ENERGY>
104.7486

>  <PUBCHEM_MMFF94_PARTIAL_CHARGES>
46
1 -0.56
10 -0.53
11 -0.53
12 -0.53
13 0.28
14 0.28
15 0.28
16 0.28
17 0.56
18 0.28
19 0.09
2 -0.36
20 0.05
21 0.47
22 0.09
23 0.08
24 0.03
25 0.08
26 -0.15
27 -0.15
28 -0.15
29 -0.15
3 -0.68
30 0.08
31 0.08
32 -0.15
33 0.08
4 -0.68
41 0.4
42 0.4
43 0.4
44 0.4
45 0.15
46 0.15
47 0.15
48 0.15
49 0.15
5 -0.68
50 0.45
51 0.45
52 0.45
53 0.45
6 -0.68
7 -0.16
8 -0.57
9 -0.53

>  <PUBCHEM_PHARMACOPHORE_FEATURES>
20
1 1 acceptor
1 10 donor
1 11 donor
1 12 donor
1 2 acceptor
1 3 acceptor
1 3 donor
1 4 acceptor
1 4 donor
1 5 acceptor
1 5 donor
1 6 acceptor
1 6 donor
1 7 acceptor
1 8 acceptor
1 9 donor
6 1 13 14 15 16 17 rings
6 22 23 25 26 29 30 rings
6 24 27 28 31 32 33 rings
6 7 19 20 21 22 23 rings

>  <PUBCHEM_SHAPE_FINGERPRINT>
10006869 2 18335973191630432171
10050765 1 18411138078758306218
10254770 206 17543629735110429114
10411042 1 18049726522484379307
10688039 33 18122628511688036570
1100329 8 18191865846011046165
11014199 57 18193559101690162847
11115154 58 17485060211102720839
11578080 2 16772653593855117074
12160290 23 18200008716930094571
12422481 6 18057344965791821347
12788726 201 18191291870106976058
13540713 4 18130787898074025568
1361 2 18337097987698836213
13690498 29 18198645374673823918
138480 1 16825304412646788035
13944108 23 17257933693666577220
140371 6 17616249621068240634
14068700 686 18053660567363316456
14508225 48 18194396925319104870
14790565 3 18196095438813983089
15131766 46 15504380113060768694
15463212 79 18262230015331414266
15484559 13 17837767833426351551
17357779 13 17982160420581768986
1813 80 17767144346333510902
19591789 44 18267018367185251353
20101258 96 18119543264584813442
20775438 99 17766234985840219669
21033648 144 18343867719350468664
21033648 29 18339635629996413648
21307412 95 17843144519371973382
21641784 216 18048331221354704092
21703447 108 18196922482976566226
23227448 37 18412825798245716428
23559900 14 18201999920346542688
238 59 17688559707949800469
3298306 158 18050845511872374654
3610482 184 17969243217130771598
38695281 34 18051131393374722297
4058900 60 17977675212157126569
44062 13 18341619213703054494
508706 21 18341040878859799886
59025328 239 17125891581249652975
7164475 11 18193562392178378628

>  <PUBCHEM_SHAPE_MULTIPOLES>
608.69
9.74
6.75
1.2
13.19
0.72
0.16
-1.42
2.09
-9.34
1.15
-0.24
0.37
0.55

>  <PUBCHEM_SHAPE_SELFOVERLAP>
1341.774

>  <PUBCHEM_SHAPE_VOLUME>
322.8

>  <RI>
-4.87673e+08

>  <Rbt.Current_Directory>
/root/miniconda3/envs/rdock/share/rxdock-2013.1.1_148c5bd1-0/data/ligands/prepped_ligands/Hyperoside

>  <Rbt.Executable>
rbdock/0.1.0

>  <Rbt.Library>
librxdock.so/0.1.0

>  <Rbt.Parameter_File>
/root/miniconda3/envs/rdock/share/rxdock-2013.1.1_148c5bd1-0/data/scripts/dock.prm

>  <Rbt.Receptor>
def.prm

>  <SCORE>
-15.5905

>  <SCORE.INTER>
-14.4106

>  <SCORE.INTER.CONST>
1

>  <SCORE.INTER.POLAR>
-1.49978

>  <SCORE.INTER.REPUL>
0.0763268

>  <SCORE.INTER.ROT>
4

>  <SCORE.INTER.VDW>
-19.093

>  <SCORE.INTER.norm>
-0.436685

>  <SCORE.INTRA>
-0.148231

>  <SCORE.INTRA.DIHEDRAL>
-2.7466

>  <SCORE.INTRA.DIHEDRAL.0>
13.4636

>  <SCORE.INTRA.POLAR>
-0.609038

>  <SCORE.INTRA.POLAR.0>
-0.250933

>  <SCORE.INTRA.REPUL>
0

>  <SCORE.INTRA.REPUL.0>
0

>  <SCORE.INTRA.VDW>
3.2958

>  <SCORE.INTRA.VDW.0>
-3.21539

>  <SCORE.INTRA.norm>
-0.00449184

>  <SCORE.RESTR>
0.0073299

>  <SCORE.RESTR.CAVITY>
0.0073299

>  <SCORE.RESTR.norm>
0.000222118

>  <SCORE.SYSTEM>
-1.03894

>  <SCORE.SYSTEM.CONST>
0

>  <SCORE.SYSTEM.DIHEDRAL>
0.0679085

>  <SCORE.SYSTEM.VDW>
-1.0729

>  <SCORE.SYSTEM.norm>
-0.0314832

>  <SCORE.heavy>
33

>  <SCORE.norm>
-0.472438

$$$$
5281643
  RxDock  02242109523D
librxdock.so/0.1.0
 41 44  0  0  0  0  0  0  0  0999 V2000
  -48.4790   -1.8832   16.0887 O   0  0  0  0  0  0
  -50.7686   -1.5397   15.7911 O   0  0  0  0  0  0
  -47.6203    0.4807   12.8022 O   0  0  0  0  0  0
  -46.7037    0.2512   15.4168 O   0  0  0  0  0  0
  -50.2662   -0.6360   13.1454 O   0  0  0  0  0  0
  -46.6797   -3.3686   17.4603 O   0  0  0  0  0  0
  -50.4811   -2.7605   19.2572 O   0  0  0  0  0  0
  -52.0805   -3.9908   15.7172 O   0  0  0  0  0  0
  -52.9266   -6.1872   16.8562 O   0  0  0  0  0  0
  -51.9328   -6.7010   21.4705 O   0  0  0  0  0  0
  -46.4007    0.4270   19.5000 O   0  0  0  0  0  0
  -47.6396    2.8530   18.9505 O   0  0  0  0  0  0
  -47.8896   -0.7077   13.5407 C   0  0  0  0  0  0
  -46.8139   -0.9206   14.6063 C   0  0  0  0  0  0
  -49.2766   -0.6028   14.1738 C   0  0  0  0  0  0
  -47.1939   -2.1092   15.4963 C   0  0  0  0  0  0
  -49.5273   -1.7737   15.1268 C   0  0  0  0  0  0
  -46.2005   -2.3244   16.6320 C   0  0  0  0  0  0
  -50.8975   -2.3259   16.9154 C   0  0  0  0  0  0
  -50.3978   -1.9792   18.1157 C   0  0  0  0  0  0
  -51.6054   -3.6221   16.7829 C   0  0  0  0  0  0
  -51.7030   -4.4403   18.0013 C   0  0  0  0  0  0
  -51.1326   -3.9644   19.1797 C   0  0  0  0  0  0
  -49.6728   -0.7152   18.3361 C   0  0  0  0  0  0
  -52.3540   -5.6764   17.9815 C   0  0  0  0  0  0
  -51.2095   -4.7230   20.3482 C   0  0  0  0  0  0
  -48.3640   -0.7363   18.8188 C   0  0  0  0  0  0
  -50.2948    0.5030   18.0617 C   0  0  0  0  0  0
  -52.4298   -6.4331   19.1514 C   0  0  0  0  0  0
  -51.8588   -5.9576   20.3327 C   0  0  0  0  0  0
  -47.6777    0.4602   19.0270 C   0  0  0  0  0  0
  -49.6085    1.6994   18.2700 C   0  0  0  0  0  0
  -48.2998    1.6780   18.7526 C   0  0  0  0  0  0
  -46.7801    0.3470   12.3311 H   0  0  0  0  0  0
  -45.9201    0.1398   15.9818 H   0  0  0  0  0  0
  -50.0494   -1.3857   12.5655 H   0  0  0  0  0  0
  -46.7699   -4.1643   16.9084 H   0  0  0  0  0  0
  -52.5154   -5.8101   16.0635 H   0  0  0  0  0  0
  -51.7548   -6.1263   22.2349 H   0  0  0  0  0  0
  -46.2020   -0.4831   19.7807 H   0  0  0  0  0  0
  -46.7226    2.6609   19.2117 H   0  0  0  0  0  0
  1 16  1  0  0  0
  1 17  1  0  0  0
  2 17  1  0  0  0
  2 19  1  0  0  0
  3 13  1  0  0  0
  3 34  1  0  0  0
  4 14  1  0  0  0
  4 35  1  0  0  0
  5 15  1  0  0  0
  5 36  1  0  0  0
  6 18  1  0  0  0
  6 37  1  0  0  0
  7 20  1  0  0  0
  7 23  1  0  0  0
  8 21  2  0  0  0
  9 25  1  0  0  0
  9 38  1  0  0  0
 10 30  1  0  0  0
 10 39  1  0  0  0
 11 31  1  0  0  0
 11 40  1  0  0  0
 12 33  1  0  0  0
 12 41  1  0  0  0
 13 14  1  0  0  0
 13 15  1  0  0  0
 14 16  1  0  0  0
 15 17  1  0  0  0
 16 18  1  0  0  0
 19 20  2  0  0  0
 19 21  1  0  0  0
 20 24  1  0  0  0
 21 22  1  0  0  0
 22 23  1  0  0  0
 22 25  2  0  0  0
 23 26  2  0  0  0
 24 27  2  0  0  0
 24 28  1  0  0  0
 25 29  1  0  0  0
 26 30  1  0  0  0
 27 31  1  0  0  0
 28 32  2  0  0  0
 29 30  2  0  0  0
 31 33  2  0  0  0
 32 33  1  0  0  0
M  END
>  <CHROM.0>
-51.01716192,-66.22434947,174.51523055

>  <CHROM.1>
-42.11859024,85.11893356,64.00405122,-170.83760252,48.45260644,59.04673505
24.07658136,18.17830218,-10.10590913,4.83313647,54.56824779,57.17520086,-49.51763184
-2.02628581,17.21346363,0.39870251,-0.92996161,-1.57557285

>  <Name>
5281643

>  <PUBCHEM_ATOM_DEF_STEREO_COUNT>
5

>  <PUBCHEM_ATOM_UDEF_STEREO_COUNT>
0

>  <PUBCHEM_BOND_DEF_STEREO_COUNT>
0

>  <PUBCHEM_BOND_UDEF_STEREO_COUNT>
0

>  <PUBCHEM_CACTVS_TAUTO_COUNT>
162

>  <PUBCHEM_COMPONENT_COUNT>
1

>  <PUBCHEM_COMPOUND_CID>
5281643

>  <PUBCHEM_CONFORMER_DIVERSEORDER>
1
86
59
70
75
65
68
80
35
60
72
84
10
81
85
66
61
88
58
63
62
69
39
16
83
52
30
67
49
47
76
25
2
57
64
87
14
71
45
19
53
36
79
27
42
9
34
4
29
40
78
48
43
56
12
11
44
74
17
38
82
37
23
3
8
31
6
50
33
28
55
22
73
77
51
46
5
24
41
26
20
18
32
54
7
21
15
13

>  <PUBCHEM_CONFORMER_ID>
0050976B00000001

>  <PUBCHEM_CONFORMER_RMSD>
0.8

>  <PUBCHEM_COORDINATE_TYPE>
2
5
10

>  <PUBCHEM_EFFECTIVE_ROTOR_COUNT>
5.2

>  <PUBCHEM_FEATURE_SELFOVERLAP>
101.615

>  <PUBCHEM_HEAVY_ATOM_COUNT>
33

>  <PUBCHEM_ISOTOPIC_ATOM_COUNT>
0

>  <PUBCHEM_MMFF94_ENERGY>
104.7486

>  <PUBCHEM_MMFF94_PARTIAL_CHARGES>
46
1 -0.56
10 -0.53
11 -0.53
12 -0.53
13 0.28
14 0.28
15 0.28
16 0.28
17 0.56
18 0.28
19 0.09
2 -0.36
20 0.05
21 0.47
22 0.09
23 0.08
24 0.03
25 0.08
26 -0.15
27 -0.15
28 -0.15
29 -0.15
3 -0.68
30 0.08
31 0.08
32 -0.15
33 0.08
4 -0.68
41 0.4
42 0.4
43 0.4
44 0.4
45 0.15
46 0.15
47 0.15
48 0.15
49 0.15
5 -0.68
50 0.45
51 0.45
52 0.45
53 0.45
6 -0.68
7 -0.16
8 -0.57
9 -0.53

>  <PUBCHEM_PHARMACOPHORE_FEATURES>
20
1 1 acceptor
1 10 donor
1 11 donor
1 12 donor
1 2 acceptor
1 3 acceptor
1 3 donor
1 4 acceptor
1 4 donor
1 5 acceptor
1 5 donor
1 6 acceptor
1 6 donor
1 7 acceptor
1 8 acceptor
1 9 donor
6 1 13 14 15 16 17 rings
6 22 23 25 26 29 30 rings
6 24 27 28 31 32 33 rings
6 7 19 20 21 22 23 rings

>  <PUBCHEM_SHAPE_FINGERPRINT>
10006869 2 18335973191630432171
10050765 1 18411138078758306218
10254770 206 17543629735110429114
10411042 1 18049726522484379307
10688039 33 18122628511688036570
1100329 8 18191865846011046165
11014199 57 18193559101690162847
11115154 58 17485060211102720839
11578080 2 16772653593855117074
12160290 23 18200008716930094571
12422481 6 18057344965791821347
12788726 201 18191291870106976058
13540713 4 18130787898074025568
1361 2 18337097987698836213
13690498 29 18198645374673823918
138480 1 16825304412646788035
13944108 23 17257933693666577220
140371 6 17616249621068240634
14068700 686 18053660567363316456
14508225 48 18194396925319104870
14790565 3 18196095438813983089
15131766 46 15504380113060768694
15463212 79 18262230015331414266
15484559 13 17837767833426351551
17357779 13 17982160420581768986
1813 80 17767144346333510902
19591789 44 18267018367185251353
20101258 96 18119543264584813442
20775438 99 17766234985840219669
21033648 144 18343867719350468664
21033648 29 18339635629996413648
21307412 95 17843144519371973382
21641784 216 18048331221354704092
21703447 108 18196922482976566226
23227448 37 18412825798245716428
23559900 14 18201999920346542688
238 59 17688559707949800469
3298306 158 18050845511872374654
3610482 184 17969243217130771598
38695281 34 18051131393374722297
4058900 60 17977675212157126569
44062 13 18341619213703054494
508706 21 18341040878859799886
59025328 239 17125891581249652975
7164475 11 18193562392178378628

>  <PUBCHEM_SHAPE_MULTIPOLES>
608.69
9.74
6.75
1.2
13.19
0.72
0.16
-1.42
2.09
-9.34
1.15
-0.24
0.37
0.55

>  <PUBCHEM_SHAPE_SELFOVERLAP>
1341.774

>  <PUBCHEM_SHAPE_VOLUME>
322.8

>  <RI>
-4.87673e+08

>  <Rbt.Current_Directory>
/root/miniconda3/envs/rdock/share/rxdock-2013.1.1_148c5bd1-0/data/ligands/prepped_ligands/Hyperoside

>  <Rbt.Executable>
rbdock/0.1.0

>  <Rbt.Library>
librxdock.so/0.1.0

>  <Rbt.Parameter_File>
/root/miniconda3/envs/rdock/share/rxdock-2013.1.1_148c5bd1-0/data/scripts/dock.prm

>  <Rbt.Receptor>
def.prm

>  <SCORE>
-20.4572

>  <SCORE.INTER>
-20.1315

>  <SCORE.INTER.CONST>
1

>  <SCORE.INTER.POLAR>
-3.66359

>  <SCORE.INTER.REPUL>
0.0236296

>  <SCORE.INTER.ROT>
4

>  <SCORE.INTER.VDW>
-17.1934

>  <SCORE.INTER.norm>
-0.610045

>  <SCORE.INTRA>
0.570421

>  <SCORE.INTRA.DIHEDRAL>
-1.09296

>  <SCORE.INTRA.DIHEDRAL.0>
13.4636

>  <SCORE.INTRA.POLAR>
0.110316

>  <SCORE.INTRA.POLAR.0>
-0.250933

>  <SCORE.INTRA.REPUL>
0

>  <SCORE.INTRA.REPUL.0>
0

>  <SCORE.INTRA.VDW>
0.741826

>  <SCORE.INTRA.VDW.0>
-3.21539

>  <SCORE.INTRA.norm>
0.0172855

>  <SCORE.RESTR>
0

>  <SCORE.RESTR.CAVITY>
0

>  <SCORE.RESTR.norm>
0

>  <SCORE.SYSTEM>
-0.896201

>  <SCORE.SYSTEM.CONST>
0

>  <SCORE.SYSTEM.DIHEDRAL>
0.456874

>  <SCORE.SYSTEM.VDW>
-1.12464

>  <SCORE.SYSTEM.norm>
-0.0271576

>  <SCORE.heavy>
33

>  <SCORE.norm>
-0.619917

$$$$
