5281643
  RxDock  02242101233D
librxdock.so/0.1.0
 41 44  0  0  0  0  0  0  0  0999 V2000
  -48.9813   -3.9723   15.6026 O   0  0  0  0  0  0
  -48.6342   -4.6896   17.7967 O   0  0  0  0  0  0
  -53.0695   -4.4741   16.0050 O   0  0  0  0  0  0
  -51.3648   -2.5053   15.0319 O   0  0  0  0  0  0
  -51.2508   -5.7949   17.8252 O   0  0  0  0  0  0
  -47.6979   -3.0569   13.6177 O   0  0  0  0  0  0
  -49.1826   -1.2936   19.1209 O   0  0  0  0  0  0
  -46.5730   -3.2154   16.6510 O   0  0  0  0  0  0
  -45.2732   -0.9781   16.2740 O   0  0  0  0  0  0
  -46.9459    2.8512   18.5284 O   0  0  0  0  0  0
  -51.1714   -6.2222   21.5864 O   0  0  0  0  0  0
  -53.6719   -5.0133   21.4953 O   0  0  0  0  0  0
  -51.7233   -4.8074   15.6779 C   0  0  0  0  0  0
  -51.1918   -3.8577   14.6039 C   0  0  0  0  0  0
  -50.8674   -4.7408   16.9423 C   0  0  0  0  0  0
  -49.6998   -4.1207   14.3716 C   0  0  0  0  0  0
  -49.3846   -4.9072   16.6023 C   0  0  0  0  0  0
  -49.0890   -3.1498   13.3681 C   0  0  0  0  0  0
  -48.4742   -3.3459   18.0566 C   0  0  0  0  0  0
  -49.2957   -2.6507   18.8644 C   0  0  0  0  0  0
  -47.3522   -2.6363   17.3959 C   0  0  0  0  0  0
  -47.2290   -1.1990   17.6833 C   0  0  0  0  0  0
  -48.1553   -0.6004   18.5343 C   0  0  0  0  0  0
  -50.4401   -3.2725   19.5540 C   0  0  0  0  0  0
  -46.2028   -0.4419   17.1127 C   0  0  0  0  0  0
  -48.0614    0.7619   18.8206 C   0  0  0  0  0  0
  -50.2681   -4.4670   20.2541 C   0  0  0  0  0  0
  -51.6960   -2.6668   19.5075 C   0  0  0  0  0  0
  -46.1108    0.9204   17.4007 C   0  0  0  0  0  0
  -47.0381    1.5214   18.2530 C   0  0  0  0  0  0
  -51.3513   -5.0553   20.9072 C   0  0  0  0  0  0
  -52.7791   -3.2551   20.1605 C   0  0  0  0  0  0
  -52.6067   -4.4494   20.8605 C   0  0  0  0  0  0
  -53.0752   -3.5506   16.3096 H   0  0  0  0  0  0
  -50.8474   -2.3913   15.8474 H   0  0  0  0  0  0
  -52.1893   -5.6594   18.0402 H   0  0  0  0  0  0
  -47.3049   -2.5288   12.9017 H   0  0  0  0  0  0
  -45.7018   -1.3814   15.5037 H   0  0  0  0  0  0
  -46.2040    3.2272   18.0240 H   0  0  0  0  0  0
  -50.2157   -6.3893   21.6597 H   0  0  0  0  0  0
  -53.3530   -5.7218   22.0805 H   0  0  0  0  0  0
  1 16  1  0  0  0
  1 17  1  0  0  0
  2 17  1  0  0  0
  2 19  1  0  0  0
  3 13  1  0  0  0
  3 34  1  0  0  0
  4 14  1  0  0  0
  4 35  1  0  0  0
  5 15  1  0  0  0
  5 36  1  0  0  0
  6 18  1  0  0  0
  6 37  1  0  0  0
  7 20  1  0  0  0
  7 23  1  0  0  0
  8 21  2  0  0  0
  9 25  1  0  0  0
  9 38  1  0  0  0
 10 30  1  0  0  0
 10 39  1  0  0  0
 11 31  1  0  0  0
 11 40  1  0  0  0
 12 33  1  0  0  0
 12 41  1  0  0  0
 13 14  1  0  0  0
 13 15  1  0  0  0
 14 16  1  0  0  0
 15 17  1  0  0  0
 16 18  1  0  0  0
 19 20  2  0  0  0
 19 21  1  0  0  0
 20 24  1  0  0  0
 21 22  1  0  0  0
 22 23  1  0  0  0
 22 25  2  0  0  0
 23 26  2  0  0  0
 24 27  2  0  0  0
 24 28  1  0  0  0
 25 29  1  0  0  0
 26 30  1  0  0  0
 27 31  1  0  0  0
 28 32  2  0  0  0
 29 30  2  0  0  0
 31 33  2  0  0  0
 32 33  1  0  0  0
M  END
>  <CHROM.0>
52.84137875,-59.20654443,179.30352481

>  <CHROM.1>
40.68201616,94.37451689,-58.27593075,61.35989767,-60.24633308,172.71392793
58.21515106,-177.67054720,11.50024309,11.74738003,34.42040288,-132.67346232
-49.50038731,-2.91526433,17.65761227,0.09310414,-0.79058003,-1.92736978

>  <Name>
5281643

>  <PUBCHEM_ATOM_DEF_STEREO_COUNT>
5

>  <PUBCHEM_ATOM_UDEF_STEREO_COUNT>
0

>  <PUBCHEM_BOND_DEF_STEREO_COUNT>
0

>  <PUBCHEM_BOND_UDEF_STEREO_COUNT>
0

>  <PUBCHEM_CACTVS_TAUTO_COUNT>
162

>  <PUBCHEM_COMPONENT_COUNT>
1

>  <PUBCHEM_COMPOUND_CID>
5281643

>  <PUBCHEM_CONFORMER_DIVERSEORDER>
1
86
59
70
75
65
68
80
35
60
72
84
10
81
85
66
61
88
58
63
62
69
39
16
83
52
30
67
49
47
76
25
2
57
64
87
14
71
45
19
53
36
79
27
42
9
34
4
29
40
78
48
43
56
12
11
44
74
17
38
82
37
23
3
8
31
6
50
33
28
55
22
73
77
51
46
5
24
41
26
20
18
32
54
7
21
15
13

>  <PUBCHEM_CONFORMER_ID>
0050976B00000001

>  <PUBCHEM_CONFORMER_RMSD>
0.8

>  <PUBCHEM_COORDINATE_TYPE>
2
5
10

>  <PUBCHEM_EFFECTIVE_ROTOR_COUNT>
5.2

>  <PUBCHEM_FEATURE_SELFOVERLAP>
101.615

>  <PUBCHEM_HEAVY_ATOM_COUNT>
33

>  <PUBCHEM_ISOTOPIC_ATOM_COUNT>
0

>  <PUBCHEM_MMFF94_ENERGY>
104.7486

>  <PUBCHEM_MMFF94_PARTIAL_CHARGES>
46
1 -0.56
10 -0.53
11 -0.53
12 -0.53
13 0.28
14 0.28
15 0.28
16 0.28
17 0.56
18 0.28
19 0.09
2 -0.36
20 0.05
21 0.47
22 0.09
23 0.08
24 0.03
25 0.08
26 -0.15
27 -0.15
28 -0.15
29 -0.15
3 -0.68
30 0.08
31 0.08
32 -0.15
33 0.08
4 -0.68
41 0.4
42 0.4
43 0.4
44 0.4
45 0.15
46 0.15
47 0.15
48 0.15
49 0.15
5 -0.68
50 0.45
51 0.45
52 0.45
53 0.45
6 -0.68
7 -0.16
8 -0.57
9 -0.53

>  <PUBCHEM_PHARMACOPHORE_FEATURES>
20
1 1 acceptor
1 10 donor
1 11 donor
1 12 donor
1 2 acceptor
1 3 acceptor
1 3 donor
1 4 acceptor
1 4 donor
1 5 acceptor
1 5 donor
1 6 acceptor
1 6 donor
1 7 acceptor
1 8 acceptor
1 9 donor
6 1 13 14 15 16 17 rings
6 22 23 25 26 29 30 rings
6 24 27 28 31 32 33 rings
6 7 19 20 21 22 23 rings

>  <PUBCHEM_SHAPE_FINGERPRINT>
10006869 2 18335973191630432171
10050765 1 18411138078758306218
10254770 206 17543629735110429114
10411042 1 18049726522484379307
10688039 33 18122628511688036570
1100329 8 18191865846011046165
11014199 57 18193559101690162847
11115154 58 17485060211102720839
11578080 2 16772653593855117074
12160290 23 18200008716930094571
12422481 6 18057344965791821347
12788726 201 18191291870106976058
13540713 4 18130787898074025568
1361 2 18337097987698836213
13690498 29 18198645374673823918
138480 1 16825304412646788035
13944108 23 17257933693666577220
140371 6 17616249621068240634
14068700 686 18053660567363316456
14508225 48 18194396925319104870
14790565 3 18196095438813983089
15131766 46 15504380113060768694
15463212 79 18262230015331414266
15484559 13 17837767833426351551
17357779 13 17982160420581768986
1813 80 17767144346333510902
19591789 44 18267018367185251353
20101258 96 18119543264584813442
20775438 99 17766234985840219669
21033648 144 18343867719350468664
21033648 29 18339635629996413648
21307412 95 17843144519371973382
21641784 216 18048331221354704092
21703447 108 18196922482976566226
23227448 37 18412825798245716428
23559900 14 18201999920346542688
238 59 17688559707949800469
3298306 158 18050845511872374654
3610482 184 17969243217130771598
38695281 34 18051131393374722297
4058900 60 17977675212157126569
44062 13 18341619213703054494
508706 21 18341040878859799886
59025328 239 17125891581249652975
7164475 11 18193562392178378628

>  <PUBCHEM_SHAPE_MULTIPOLES>
608.69
9.74
6.75
1.2
13.19
0.72
0.16
-1.42
2.09
-9.34
1.15
-0.24
0.37
0.55

>  <PUBCHEM_SHAPE_SELFOVERLAP>
1341.774

>  <PUBCHEM_SHAPE_VOLUME>
322.8

>  <RI>
-8.67556e+08

>  <Rbt.Current_Directory>
/root/miniconda3/envs/rdock/share/rxdock-2013.1.1_148c5bd1-0/data/ligands/prepped_ligands/Hyperoside

>  <Rbt.Executable>
rbdock/0.1.0

>  <Rbt.Library>
librxdock.so/0.1.0

>  <Rbt.Parameter_File>
/root/miniconda3/envs/rdock/share/rxdock-2013.1.1_148c5bd1-0/data/scripts/dock.prm

>  <Rbt.Receptor>
def.prm

>  <SCORE>
-13.0105

>  <SCORE.INTER>
-13.9429

>  <SCORE.INTER.CONST>
1

>  <SCORE.INTER.POLAR>
-2.02453

>  <SCORE.INTER.REPUL>
0

>  <SCORE.INTER.ROT>
4

>  <SCORE.INTER.VDW>
-16.4595

>  <SCORE.INTER.norm>
-0.422511

>  <SCORE.INTRA>
1.83296

>  <SCORE.INTRA.DIHEDRAL>
1.84184

>  <SCORE.INTRA.DIHEDRAL.0>
13.4636

>  <SCORE.INTRA.POLAR>
0.138389

>  <SCORE.INTRA.POLAR.0>
-0.250933

>  <SCORE.INTRA.REPUL>
0

>  <SCORE.INTRA.REPUL.0>
0

>  <SCORE.INTRA.VDW>
0.441517

>  <SCORE.INTRA.VDW.0>
-3.21539

>  <SCORE.INTRA.norm>
0.0555443

>  <SCORE.RESTR>
0.0824414

>  <SCORE.RESTR.CAVITY>
0.0824414

>  <SCORE.RESTR.norm>
0.00249822

>  <SCORE.SYSTEM>
-0.983028

>  <SCORE.SYSTEM.CONST>
0

>  <SCORE.SYSTEM.DIHEDRAL>
0.135205

>  <SCORE.SYSTEM.POLAR>
-0.000204452

>  <SCORE.SYSTEM.VDW>
-1.04994

>  <SCORE.SYSTEM.norm>
-0.0297887

>  <SCORE.heavy>
33

>  <SCORE.norm>
-0.394257

$$$$
5281643
  RxDock  02242101233D
librxdock.so/0.1.0
 41 44  0  0  0  0  0  0  0  0999 V2000
  -47.3549   -1.7807   17.5311 O   0  0  0  0  0  0
  -46.4287   -3.6960   16.5707 O   0  0  0  0  0  0
  -43.5868   -0.2605   18.3170 O   0  0  0  0  0  0
  -45.9559    0.6895   17.2151 O   0  0  0  0  0  0
  -43.9433   -3.0843   17.8026 O   0  0  0  0  0  0
  -48.2069    1.4021   18.8660 O   0  0  0  0  0  0
  -49.9802   -4.2394   15.7473 O   0  0  0  0  0  0
  -47.0679   -6.0030   17.9861 O   0  0  0  0  0  0
  -48.7549   -7.8568   18.7307 O   0  0  0  0  0  0
  -53.1698   -7.5178   17.0168 O   0  0  0  0  0  0
  -45.9248   -0.0989   14.1035 O   0  0  0  0  0  0
  -48.0895    0.9337   12.6999 O   0  0  0  0  0  0
  -44.8043   -0.9620   18.5537 C   0  0  0  0  0  0
  -45.9910   -0.0019   18.4652 C   0  0  0  0  0  0
  -44.9375   -2.0950   17.5368 C   0  0  0  0  0  0
  -47.3027   -0.7885   18.5639 C   0  0  0  0  0  0
  -46.3157   -2.7529   17.6360 C   0  0  0  0  0  0
  -48.5277    0.1034   18.4006 C   0  0  0  0  0  0
  -47.6883   -4.2519   16.5177 C   0  0  0  0  0  0
  -48.6945   -3.7247   15.7964 C   0  0  0  0  0  0
  -47.9435   -5.4784   17.3110 C   0  0  0  0  0  0
  -49.3062   -6.0280   17.2436 C   0  0  0  0  0  0
  -50.2574   -5.3762   16.4620 C   0  0  0  0  0  0
  -48.5329   -2.5039   14.9867 C   0  0  0  0  0  0
  -49.6464   -7.1832   17.9519 C   0  0  0  0  0  0
  -51.5576   -5.8762   16.3836 C   0  0  0  0  0  0
  -47.2929   -1.8676   14.9233 C   0  0  0  0  0  0
  -49.6196   -1.9843   14.2830 C   0  0  0  0  0  0
  -50.9474   -7.6815   17.8718 C   0  0  0  0  0  0
  -51.9013   -7.0296   17.0892 C   0  0  0  0  0  0
  -47.1399   -0.7123   14.1566 C   0  0  0  0  0  0
  -49.4666   -0.8290   13.5164 C   0  0  0  0  0  0
  -48.2267   -0.1930   13.4532 C   0  0  0  0  0  0
  -43.6447    0.1323   17.4293 H   0  0  0  0  0  0
  -46.6882    1.3292   17.2173 H   0  0  0  0  0  0
  -43.9398   -3.6952   17.0462 H   0  0  0  0  0  0
  -49.0280    1.9234   18.8734 H   0  0  0  0  0  0
  -49.2155   -8.4731   19.3204 H   0  0  0  0  0  0
  -53.1646   -8.4513   17.2902 H   0  0  0  0  0  0
  -45.9683    0.6087   13.4372 H   0  0  0  0  0  0
  -48.9405    1.1356   12.2743 H   0  0  0  0  0  0
  1 16  1  0  0  0
  1 17  1  0  0  0
  2 17  1  0  0  0
  2 19  1  0  0  0
  3 13  1  0  0  0
  3 34  1  0  0  0
  4 14  1  0  0  0
  4 35  1  0  0  0
  5 15  1  0  0  0
  5 36  1  0  0  0
  6 18  1  0  0  0
  6 37  1  0  0  0
  7 20  1  0  0  0
  7 23  1  0  0  0
  8 21  2  0  0  0
  9 25  1  0  0  0
  9 38  1  0  0  0
 10 30  1  0  0  0
 10 39  1  0  0  0
 11 31  1  0  0  0
 11 40  1  0  0  0
 12 33  1  0  0  0
 12 41  1  0  0  0
 13 14  1  0  0  0
 13 15  1  0  0  0
 14 16  1  0  0  0
 15 17  1  0  0  0
 16 18  1  0  0  0
 19 20  2  0  0  0
 19 21  1  0  0  0
 20 24  1  0  0  0
 21 22  1  0  0  0
 22 23  1  0  0  0
 22 25  2  0  0  0
 23 26  2  0  0  0
 24 27  2  0  0  0
 24 28  1  0  0  0
 25 29  1  0  0  0
 26 30  1  0  0  0
 27 31  1  0  0  0
 28 32  2  0  0  0
 29 30  2  0  0  0
 31 33  2  0  0  0
 32 33  1  0  0  0
M  END
>  <CHROM.0>
151.81877141,-58.49642770,54.54281343

>  <CHROM.1>
-53.72927103,89.97582492,-59.40602199,-176.43549122,-169.15449872,-172.14551267
164.66406222,160.44045559,172.42155744,179.04446021,-150.15677947,-179.55310459
-47.94090652,-2.91129200,16.68973208,-0.83060432,0.64182037,2.53027531

>  <Name>
5281643

>  <PUBCHEM_ATOM_DEF_STEREO_COUNT>
5

>  <PUBCHEM_ATOM_UDEF_STEREO_COUNT>
0

>  <PUBCHEM_BOND_DEF_STEREO_COUNT>
0

>  <PUBCHEM_BOND_UDEF_STEREO_COUNT>
0

>  <PUBCHEM_CACTVS_TAUTO_COUNT>
162

>  <PUBCHEM_COMPONENT_COUNT>
1

>  <PUBCHEM_COMPOUND_CID>
5281643

>  <PUBCHEM_CONFORMER_DIVERSEORDER>
1
86
59
70
75
65
68
80
35
60
72
84
10
81
85
66
61
88
58
63
62
69
39
16
83
52
30
67
49
47
76
25
2
57
64
87
14
71
45
19
53
36
79
27
42
9
34
4
29
40
78
48
43
56
12
11
44
74
17
38
82
37
23
3
8
31
6
50
33
28
55
22
73
77
51
46
5
24
41
26
20
18
32
54
7
21
15
13

>  <PUBCHEM_CONFORMER_ID>
0050976B00000001

>  <PUBCHEM_CONFORMER_RMSD>
0.8

>  <PUBCHEM_COORDINATE_TYPE>
2
5
10

>  <PUBCHEM_EFFECTIVE_ROTOR_COUNT>
5.2

>  <PUBCHEM_FEATURE_SELFOVERLAP>
101.615

>  <PUBCHEM_HEAVY_ATOM_COUNT>
33

>  <PUBCHEM_ISOTOPIC_ATOM_COUNT>
0

>  <PUBCHEM_MMFF94_ENERGY>
104.7486

>  <PUBCHEM_MMFF94_PARTIAL_CHARGES>
46
1 -0.56
10 -0.53
11 -0.53
12 -0.53
13 0.28
14 0.28
15 0.28
16 0.28
17 0.56
18 0.28
19 0.09
2 -0.36
20 0.05
21 0.47
22 0.09
23 0.08
24 0.03
25 0.08
26 -0.15
27 -0.15
28 -0.15
29 -0.15
3 -0.68
30 0.08
31 0.08
32 -0.15
33 0.08
4 -0.68
41 0.4
42 0.4
43 0.4
44 0.4
45 0.15
46 0.15
47 0.15
48 0.15
49 0.15
5 -0.68
50 0.45
51 0.45
52 0.45
53 0.45
6 -0.68
7 -0.16
8 -0.57
9 -0.53

>  <PUBCHEM_PHARMACOPHORE_FEATURES>
20
1 1 acceptor
1 10 donor
1 11 donor
1 12 donor
1 2 acceptor
1 3 acceptor
1 3 donor
1 4 acceptor
1 4 donor
1 5 acceptor
1 5 donor
1 6 acceptor
1 6 donor
1 7 acceptor
1 8 acceptor
1 9 donor
6 1 13 14 15 16 17 rings
6 22 23 25 26 29 30 rings
6 24 27 28 31 32 33 rings
6 7 19 20 21 22 23 rings

>  <PUBCHEM_SHAPE_FINGERPRINT>
10006869 2 18335973191630432171
10050765 1 18411138078758306218
10254770 206 17543629735110429114
10411042 1 18049726522484379307
10688039 33 18122628511688036570
1100329 8 18191865846011046165
11014199 57 18193559101690162847
11115154 58 17485060211102720839
11578080 2 16772653593855117074
12160290 23 18200008716930094571
12422481 6 18057344965791821347
12788726 201 18191291870106976058
13540713 4 18130787898074025568
1361 2 18337097987698836213
13690498 29 18198645374673823918
138480 1 16825304412646788035
13944108 23 17257933693666577220
140371 6 17616249621068240634
14068700 686 18053660567363316456
14508225 48 18194396925319104870
14790565 3 18196095438813983089
15131766 46 15504380113060768694
15463212 79 18262230015331414266
15484559 13 17837767833426351551
17357779 13 17982160420581768986
1813 80 17767144346333510902
19591789 44 18267018367185251353
20101258 96 18119543264584813442
20775438 99 17766234985840219669
21033648 144 18343867719350468664
21033648 29 18339635629996413648
21307412 95 17843144519371973382
21641784 216 18048331221354704092
21703447 108 18196922482976566226
23227448 37 18412825798245716428
23559900 14 18201999920346542688
238 59 17688559707949800469
3298306 158 18050845511872374654
3610482 184 17969243217130771598
38695281 34 18051131393374722297
4058900 60 17977675212157126569
44062 13 18341619213703054494
508706 21 18341040878859799886
59025328 239 17125891581249652975
7164475 11 18193562392178378628

>  <PUBCHEM_SHAPE_MULTIPOLES>
608.69
9.74
6.75
1.2
13.19
0.72
0.16
-1.42
2.09
-9.34
1.15
-0.24
0.37
0.55

>  <PUBCHEM_SHAPE_SELFOVERLAP>
1341.774

>  <PUBCHEM_SHAPE_VOLUME>
322.8

>  <RI>
-8.67556e+08

>  <Rbt.Current_Directory>
/root/miniconda3/envs/rdock/share/rxdock-2013.1.1_148c5bd1-0/data/ligands/prepped_ligands/Hyperoside

>  <Rbt.Executable>
rbdock/0.1.0

>  <Rbt.Library>
librxdock.so/0.1.0

>  <Rbt.Parameter_File>
/root/miniconda3/envs/rdock/share/rxdock-2013.1.1_148c5bd1-0/data/scripts/dock.prm

>  <Rbt.Receptor>
def.prm

>  <SCORE>
-14.4006

>  <SCORE.INTER>
-17.2637

>  <SCORE.INTER.CONST>
1

>  <SCORE.INTER.POLAR>
-1.65479

>  <SCORE.INTER.REPUL>
0.27692

>  <SCORE.INTER.ROT>
4

>  <SCORE.INTER.VDW>
-22.422

>  <SCORE.INTER.norm>
-0.523143

>  <SCORE.INTRA>
2.50518

>  <SCORE.INTRA.DIHEDRAL>
-3.94462

>  <SCORE.INTRA.DIHEDRAL.0>
13.4636

>  <SCORE.INTRA.POLAR>
-0.135876

>  <SCORE.INTRA.POLAR.0>
-0.250933

>  <SCORE.INTRA.REPUL>
0

>  <SCORE.INTRA.REPUL.0>
0

>  <SCORE.INTRA.VDW>
4.93947

>  <SCORE.INTRA.VDW.0>
-3.21539

>  <SCORE.INTRA.norm>
0.0759146

>  <SCORE.RESTR>
0.230527

>  <SCORE.RESTR.CAVITY>
0.230527

>  <SCORE.RESTR.norm>
0.00698566

>  <SCORE.SYSTEM>
0.127403

>  <SCORE.SYSTEM.CONST>
0

>  <SCORE.SYSTEM.DIHEDRAL>
1.73154

>  <SCORE.SYSTEM.VDW>
-0.738365

>  <SCORE.SYSTEM.norm>
0.00386071

>  <SCORE.heavy>
33

>  <SCORE.norm>
-0.436382

$$$$
5281643
  RxDock  02242101233D
librxdock.so/0.1.0
 41 44  0  0  0  0  0  0  0  0999 V2000
  -51.0128   -5.8371   17.7613 O   0  0  0  0  0  0
  -52.7727   -4.3557   18.1577 O   0  0  0  0  0  0
  -51.6999   -7.7384   21.3724 O   0  0  0  0  0  0
  -51.2633   -8.5098   18.7374 O   0  0  0  0  0  0
  -52.7312   -5.0770   20.9049 O   0  0  0  0  0  0
  -48.1801   -8.0876   17.6048 O   0  0  0  0  0  0
  -52.4314   -3.0429   14.7303 O   0  0  0  0  0  0
  -50.9017   -2.3171   18.4367 O   0  0  0  0  0  0
  -49.4265   -0.3930   17.4573 O   0  0  0  0  0  0
  -49.8072    0.4055   12.7924 O   0  0  0  0  0  0
  -57.3214   -5.6211   16.2426 O   0  0  0  0  0  0
  -56.6314   -7.7301   14.5697 O   0  0  0  0  0  0
  -51.1219   -6.8140   20.4549 C   0  0  0  0  0  0
  -50.3820   -7.5645   19.3472 C   0  0  0  0  0  0
  -52.2225   -5.9257   19.8759 C   0  0  0  0  0  0
  -49.8992   -6.5733   18.2825 C   0  0  0  0  0  0
  -51.6734   -5.0474   18.7494 C   0  0  0  0  0  0
  -49.2228   -7.2684   17.1069 C   0  0  0  0  0  0
  -52.3711   -3.5900   17.0848 C   0  0  0  0  0  0
  -52.8380   -3.7726   15.8360 C   0  0  0  0  0  0
  -51.3626   -2.5294   17.3231 C   0  0  0  0  0  0
  -50.9456   -1.7490   16.1482 C   0  0  0  0  0  0
  -51.5043   -2.0485   14.9077 C   0  0  0  0  0  0
  -53.8338   -4.8080   15.5068 C   0  0  0  0  0  0
  -50.0032   -0.7246   16.2688 C   0  0  0  0  0  0
  -51.1233   -1.3243   13.7776 C   0  0  0  0  0  0
  -55.1233   -4.7286   16.0334 C   0  0  0  0  0  0
  -53.4875   -5.8677   14.6682 C   0  0  0  0  0  0
  -49.6240   -0.0016   15.1371 C   0  0  0  0  0  0
  -50.1828   -0.3006   13.8939 C   0  0  0  0  0  0
  -56.0660   -5.7084   15.7214 C   0  0  0  0  0  0
  -54.4301   -6.8475   14.3563 C   0  0  0  0  0  0
  -55.7194   -6.7679   14.8829 C   0  0  0  0  0  0
  -52.3330   -8.2846   20.8758 H   0  0  0  0  0  0
  -50.7443   -9.0106   18.0851 H   0  0  0  0  0  0
  -51.9889   -4.5330   21.2185 H   0  0  0  0  0  0
  -47.7821   -8.5504   16.8475 H   0  0  0  0  0  0
  -49.9598   -0.7203   18.1977 H   0  0  0  0  0  0
  -50.4560    0.2533   12.0838 H   0  0  0  0  0  0
  -57.7615   -4.8463   15.8520 H   0  0  0  0  0  0
  -56.2857   -8.2674   13.8364 H   0  0  0  0  0  0
  1 16  1  0  0  0
  1 17  1  0  0  0
  2 17  1  0  0  0
  2 19  1  0  0  0
  3 13  1  0  0  0
  3 34  1  0  0  0
  4 14  1  0  0  0
  4 35  1  0  0  0
  5 15  1  0  0  0
  5 36  1  0  0  0
  6 18  1  0  0  0
  6 37  1  0  0  0
  7 20  1  0  0  0
  7 23  1  0  0  0
  8 21  2  0  0  0
  9 25  1  0  0  0
  9 38  1  0  0  0
 10 30  1  0  0  0
 10 39  1  0  0  0
 11 31  1  0  0  0
 11 40  1  0  0  0
 12 33  1  0  0  0
 12 41  1  0  0  0
 13 14  1  0  0  0
 13 15  1  0  0  0
 14 16  1  0  0  0
 15 17  1  0  0  0
 16 18  1  0  0  0
 19 20  2  0  0  0
 19 21  1  0  0  0
 20 24  1  0  0  0
 21 22  1  0  0  0
 22 23  1  0  0  0
 22 25  2  0  0  0
 23 26  2  0  0  0
 24 27  2  0  0  0
 24 28  1  0  0  0
 25 29  1  0  0  0
 26 30  1  0  0  0
 27 31  1  0  0  0
 28 32  2  0  0  0
 29 30  2  0  0  0
 31 33  2  0  0  0
 32 33  1  0  0  0
M  END
>  <CHROM.0>
61.19390255,-176.57414848,-30.17641686

>  <CHROM.1>
-55.90310802,119.65606358,-61.03538904,-176.00476017,60.59858726,177.79660935
-19.69675527,16.19909879,67.31660854,167.73981057,-175.51985285,-115.82502317
-52.02439550,-4.57257239,16.86739033,-1.89120602,-0.54470175,-0.66973027

>  <Name>
5281643

>  <PUBCHEM_ATOM_DEF_STEREO_COUNT>
5

>  <PUBCHEM_ATOM_UDEF_STEREO_COUNT>
0

>  <PUBCHEM_BOND_DEF_STEREO_COUNT>
0

>  <PUBCHEM_BOND_UDEF_STEREO_COUNT>
0

>  <PUBCHEM_CACTVS_TAUTO_COUNT>
162

>  <PUBCHEM_COMPONENT_COUNT>
1

>  <PUBCHEM_COMPOUND_CID>
5281643

>  <PUBCHEM_CONFORMER_DIVERSEORDER>
1
86
59
70
75
65
68
80
35
60
72
84
10
81
85
66
61
88
58
63
62
69
39
16
83
52
30
67
49
47
76
25
2
57
64
87
14
71
45
19
53
36
79
27
42
9
34
4
29
40
78
48
43
56
12
11
44
74
17
38
82
37
23
3
8
31
6
50
33
28
55
22
73
77
51
46
5
24
41
26
20
18
32
54
7
21
15
13

>  <PUBCHEM_CONFORMER_ID>
0050976B00000001

>  <PUBCHEM_CONFORMER_RMSD>
0.8

>  <PUBCHEM_COORDINATE_TYPE>
2
5
10

>  <PUBCHEM_EFFECTIVE_ROTOR_COUNT>
5.2

>  <PUBCHEM_FEATURE_SELFOVERLAP>
101.615

>  <PUBCHEM_HEAVY_ATOM_COUNT>
33

>  <PUBCHEM_ISOTOPIC_ATOM_COUNT>
0

>  <PUBCHEM_MMFF94_ENERGY>
104.7486

>  <PUBCHEM_MMFF94_PARTIAL_CHARGES>
46
1 -0.56
10 -0.53
11 -0.53
12 -0.53
13 0.28
14 0.28
15 0.28
16 0.28
17 0.56
18 0.28
19 0.09
2 -0.36
20 0.05
21 0.47
22 0.09
23 0.08
24 0.03
25 0.08
26 -0.15
27 -0.15
28 -0.15
29 -0.15
3 -0.68
30 0.08
31 0.08
32 -0.15
33 0.08
4 -0.68
41 0.4
42 0.4
43 0.4
44 0.4
45 0.15
46 0.15
47 0.15
48 0.15
49 0.15
5 -0.68
50 0.45
51 0.45
52 0.45
53 0.45
6 -0.68
7 -0.16
8 -0.57
9 -0.53

>  <PUBCHEM_PHARMACOPHORE_FEATURES>
20
1 1 acceptor
1 10 donor
1 11 donor
1 12 donor
1 2 acceptor
1 3 acceptor
1 3 donor
1 4 acceptor
1 4 donor
1 5 acceptor
1 5 donor
1 6 acceptor
1 6 donor
1 7 acceptor
1 8 acceptor
1 9 donor
6 1 13 14 15 16 17 rings
6 22 23 25 26 29 30 rings
6 24 27 28 31 32 33 rings
6 7 19 20 21 22 23 rings

>  <PUBCHEM_SHAPE_FINGERPRINT>
10006869 2 18335973191630432171
10050765 1 18411138078758306218
10254770 206 17543629735110429114
10411042 1 18049726522484379307
10688039 33 18122628511688036570
1100329 8 18191865846011046165
11014199 57 18193559101690162847
11115154 58 17485060211102720839
11578080 2 16772653593855117074
12160290 23 18200008716930094571
12422481 6 18057344965791821347
12788726 201 18191291870106976058
13540713 4 18130787898074025568
1361 2 18337097987698836213
13690498 29 18198645374673823918
138480 1 16825304412646788035
13944108 23 17257933693666577220
140371 6 17616249621068240634
14068700 686 18053660567363316456
14508225 48 18194396925319104870
14790565 3 18196095438813983089
15131766 46 15504380113060768694
15463212 79 18262230015331414266
15484559 13 17837767833426351551
17357779 13 17982160420581768986
1813 80 17767144346333510902
19591789 44 18267018367185251353
20101258 96 18119543264584813442
20775438 99 17766234985840219669
21033648 144 18343867719350468664
21033648 29 18339635629996413648
21307412 95 17843144519371973382
21641784 216 18048331221354704092
21703447 108 18196922482976566226
23227448 37 18412825798245716428
23559900 14 18201999920346542688
238 59 17688559707949800469
3298306 158 18050845511872374654
3610482 184 17969243217130771598
38695281 34 18051131393374722297
4058900 60 17977675212157126569
44062 13 18341619213703054494
508706 21 18341040878859799886
59025328 239 17125891581249652975
7164475 11 18193562392178378628

>  <PUBCHEM_SHAPE_MULTIPOLES>
608.69
9.74
6.75
1.2
13.19
0.72
0.16
-1.42
2.09
-9.34
1.15
-0.24
0.37
0.55

>  <PUBCHEM_SHAPE_SELFOVERLAP>
1341.774

>  <PUBCHEM_SHAPE_VOLUME>
322.8

>  <RI>
-8.67556e+08

>  <Rbt.Current_Directory>
/root/miniconda3/envs/rdock/share/rxdock-2013.1.1_148c5bd1-0/data/ligands/prepped_ligands/Hyperoside

>  <Rbt.Executable>
rbdock/0.1.0

>  <Rbt.Library>
librxdock.so/0.1.0

>  <Rbt.Parameter_File>
/root/miniconda3/envs/rdock/share/rxdock-2013.1.1_148c5bd1-0/data/scripts/dock.prm

>  <Rbt.Receptor>
def.prm

>  <SCORE>
-25.0847

>  <SCORE.INTER>
-28.3055

>  <SCORE.INTER.CONST>
1

>  <SCORE.INTER.POLAR>
-3.85352

>  <SCORE.INTER.REPUL>
0.377914

>  <SCORE.INTER.ROT>
4

>  <SCORE.INTER.VDW>
-26.4931

>  <SCORE.INTER.norm>
-0.857743

>  <SCORE.INTRA>
3.01607

>  <SCORE.INTRA.DIHEDRAL>
-0.447487

>  <SCORE.INTRA.DIHEDRAL.0>
13.4636

>  <SCORE.INTRA.POLAR>
0.238401

>  <SCORE.INTRA.POLAR.0>
-0.250933

>  <SCORE.INTRA.REPUL>
0

>  <SCORE.INTRA.REPUL.0>
0

>  <SCORE.INTRA.VDW>
2.42925

>  <SCORE.INTRA.VDW.0>
-3.21539

>  <SCORE.INTRA.norm>
0.091396

>  <SCORE.RESTR>
0

>  <SCORE.RESTR.CAVITY>
0

>  <SCORE.RESTR.norm>
0

>  <SCORE.SYSTEM>
0.204723

>  <SCORE.SYSTEM.CONST>
0

>  <SCORE.SYSTEM.DIHEDRAL>
1.82828

>  <SCORE.SYSTEM.POLAR>
-0.0122585

>  <SCORE.SYSTEM.VDW>
-0.66774

>  <SCORE.SYSTEM.norm>
0.00620373

>  <SCORE.heavy>
33

>  <SCORE.norm>
-0.760143

$$$$
5281643
  RxDock  02242101233D
librxdock.so/0.1.0
 41 44  0  0  0  0  0  0  0  0999 V2000
  -51.4737   -5.0024   18.2572 O   0  0  0  0  0  0
  -50.6715   -6.2131   16.4298 O   0  0  0  0  0  0
  -51.6918   -8.4474   20.5401 O   0  0  0  0  0  0
  -50.7185   -5.8646   20.8736 O   0  0  0  0  0  0
  -51.5685   -8.6137   17.6553 O   0  0  0  0  0  0
  -52.5387   -2.5789   19.0178 O   0  0  0  0  0  0
  -51.8906   -3.3081   14.5162 O   0  0  0  0  0  0
  -48.3624   -4.7311   15.9759 O   0  0  0  0  0  0
  -47.1105   -2.6607   14.9842 O   0  0  0  0  0  0
  -49.7670    0.5000   12.6397 O   0  0  0  0  0  0
  -54.6301   -8.4666   15.0756 O   0  0  0  0  0  0
  -56.8515   -6.9644   15.8042 O   0  0  0  0  0  0
  -52.1318   -7.4111   19.6667 C   0  0  0  0  0  0
  -52.0420   -6.0563   20.3699 C   0  0  0  0  0  0
  -51.2810   -7.4285   18.3973 C   0  0  0  0  0  0
  -52.3655   -4.9345   19.3769 C   0  0  0  0  0  0
  -51.5956   -6.2165   17.5175 C   0  0  0  0  0  0
  -52.2141   -3.5501   19.9962 C   0  0  0  0  0  0
  -50.7013   -5.0186   15.7435 C   0  0  0  0  0  0
  -51.8307   -4.4892   15.2386 C   0  0  0  0  0  0
  -49.4211   -4.2987   15.5403 C   0  0  0  0  0  0
  -49.4933   -3.0386   14.7850 C   0  0  0  0  0  0
  -50.7300   -2.6078   14.3101 C   0  0  0  0  0  0
  -53.1446   -5.1405   15.3853 C   0  0  0  0  0  0
  -48.3428   -2.2836   14.5433 C   0  0  0  0  0  0
  -50.8245   -1.4172   13.5889 C   0  0  0  0  0  0
  -53.2731   -6.5113   15.1601 C   0  0  0  0  0  0
  -54.2604   -4.3865   15.7497 C   0  0  0  0  0  0
  -48.4398   -1.0931   13.8219 C   0  0  0  0  0  0
  -49.6781   -0.6604   13.3455 C   0  0  0  0  0  0
  -54.5167   -7.1278   15.2994 C   0  0  0  0  0  0
  -55.5039   -5.0030   15.8889 C   0  0  0  0  0  0
  -55.6321   -6.3737   15.6637 C   0  0  0  0  0  0
  -52.3354   -8.5092   21.2665 H   0  0  0  0  0  0
  -50.1128   -5.8905   20.1132 H   0  0  0  0  0  0
  -51.0096   -8.5944   16.8598 H   0  0  0  0  0  0
  -53.4576   -2.7359   18.7405 H   0  0  0  0  0  0
  -47.0159   -3.6247   14.9476 H   0  0  0  0  0  0
  -50.6766    0.5998   12.3099 H   0  0  0  0  0  0
  -55.5586   -8.7223   15.2141 H   0  0  0  0  0  0
  -57.5247   -6.2743   15.9334 H   0  0  0  0  0  0
  1 16  1  0  0  0
  1 17  1  0  0  0
  2 17  1  0  0  0
  2 19  1  0  0  0
  3 13  1  0  0  0
  3 34  1  0  0  0
  4 14  1  0  0  0
  4 35  1  0  0  0
  5 15  1  0  0  0
  5 36  1  0  0  0
  6 18  1  0  0  0
  6 37  1  0  0  0
  7 20  1  0  0  0
  7 23  1  0  0  0
  8 21  2  0  0  0
  9 25  1  0  0  0
  9 38  1  0  0  0
 10 30  1  0  0  0
 10 39  1  0  0  0
 11 31  1  0  0  0
 11 40  1  0  0  0
 12 33  1  0  0  0
 12 41  1  0  0  0
 13 14  1  0  0  0
 13 15  1  0  0  0
 14 16  1  0  0  0
 15 17  1  0  0  0
 16 18  1  0  0  0
 19 20  2  0  0  0
 19 21  1  0  0  0
 20 24  1  0  0  0
 21 22  1  0  0  0
 22 23  1  0  0  0
 22 25  2  0  0  0
 23 26  2  0  0  0
 24 27  2  0  0  0
 24 28  1  0  0  0
 25 29  1  0  0  0
 26 30  1  0  0  0
 27 31  1  0  0  0
 28 32  2  0  0  0
 29 30  2  0  0  0
 31 33  2  0  0  0
 32 33  1  0  0  0
M  END
>  <CHROM.0>
-57.62720900,64.40890177,-160.65827843

>  <CHROM.1>
-46.57500088,-54.05967333,66.89373053,60.24229408,-179.75337484,59.88636818
35.72304111,-5.64587540,-179.81421274,-171.94466621,59.42892513,134.03645886
-51.65822349,-4.82641043,16.47833118,-2.17594295,-0.50358534,-0.97369481

>  <Name>
5281643

>  <PUBCHEM_ATOM_DEF_STEREO_COUNT>
5

>  <PUBCHEM_ATOM_UDEF_STEREO_COUNT>
0

>  <PUBCHEM_BOND_DEF_STEREO_COUNT>
0

>  <PUBCHEM_BOND_UDEF_STEREO_COUNT>
0

>  <PUBCHEM_CACTVS_TAUTO_COUNT>
162

>  <PUBCHEM_COMPONENT_COUNT>
1

>  <PUBCHEM_COMPOUND_CID>
5281643

>  <PUBCHEM_CONFORMER_DIVERSEORDER>
1
86
59
70
75
65
68
80
35
60
72
84
10
81
85
66
61
88
58
63
62
69
39
16
83
52
30
67
49
47
76
25
2
57
64
87
14
71
45
19
53
36
79
27
42
9
34
4
29
40
78
48
43
56
12
11
44
74
17
38
82
37
23
3
8
31
6
50
33
28
55
22
73
77
51
46
5
24
41
26
20
18
32
54
7
21
15
13

>  <PUBCHEM_CONFORMER_ID>
0050976B00000001

>  <PUBCHEM_CONFORMER_RMSD>
0.8

>  <PUBCHEM_COORDINATE_TYPE>
2
5
10

>  <PUBCHEM_EFFECTIVE_ROTOR_COUNT>
5.2

>  <PUBCHEM_FEATURE_SELFOVERLAP>
101.615

>  <PUBCHEM_HEAVY_ATOM_COUNT>
33

>  <PUBCHEM_ISOTOPIC_ATOM_COUNT>
0

>  <PUBCHEM_MMFF94_ENERGY>
104.7486

>  <PUBCHEM_MMFF94_PARTIAL_CHARGES>
46
1 -0.56
10 -0.53
11 -0.53
12 -0.53
13 0.28
14 0.28
15 0.28
16 0.28
17 0.56
18 0.28
19 0.09
2 -0.36
20 0.05
21 0.47
22 0.09
23 0.08
24 0.03
25 0.08
26 -0.15
27 -0.15
28 -0.15
29 -0.15
3 -0.68
30 0.08
31 0.08
32 -0.15
33 0.08
4 -0.68
41 0.4
42 0.4
43 0.4
44 0.4
45 0.15
46 0.15
47 0.15
48 0.15
49 0.15
5 -0.68
50 0.45
51 0.45
52 0.45
53 0.45
6 -0.68
7 -0.16
8 -0.57
9 -0.53

>  <PUBCHEM_PHARMACOPHORE_FEATURES>
20
1 1 acceptor
1 10 donor
1 11 donor
1 12 donor
1 2 acceptor
1 3 acceptor
1 3 donor
1 4 acceptor
1 4 donor
1 5 acceptor
1 5 donor
1 6 acceptor
1 6 donor
1 7 acceptor
1 8 acceptor
1 9 donor
6 1 13 14 15 16 17 rings
6 22 23 25 26 29 30 rings
6 24 27 28 31 32 33 rings
6 7 19 20 21 22 23 rings

>  <PUBCHEM_SHAPE_FINGERPRINT>
10006869 2 18335973191630432171
10050765 1 18411138078758306218
10254770 206 17543629735110429114
10411042 1 18049726522484379307
10688039 33 18122628511688036570
1100329 8 18191865846011046165
11014199 57 18193559101690162847
11115154 58 17485060211102720839
11578080 2 16772653593855117074
12160290 23 18200008716930094571
12422481 6 18057344965791821347
12788726 201 18191291870106976058
13540713 4 18130787898074025568
1361 2 18337097987698836213
13690498 29 18198645374673823918
138480 1 16825304412646788035
13944108 23 17257933693666577220
140371 6 17616249621068240634
14068700 686 18053660567363316456
14508225 48 18194396925319104870
14790565 3 18196095438813983089
15131766 46 15504380113060768694
15463212 79 18262230015331414266
15484559 13 17837767833426351551
17357779 13 17982160420581768986
1813 80 17767144346333510902
19591789 44 18267018367185251353
20101258 96 18119543264584813442
20775438 99 17766234985840219669
21033648 144 18343867719350468664
21033648 29 18339635629996413648
21307412 95 17843144519371973382
21641784 216 18048331221354704092
21703447 108 18196922482976566226
23227448 37 18412825798245716428
23559900 14 18201999920346542688
238 59 17688559707949800469
3298306 158 18050845511872374654
3610482 184 17969243217130771598
38695281 34 18051131393374722297
4058900 60 17977675212157126569
44062 13 18341619213703054494
508706 21 18341040878859799886
59025328 239 17125891581249652975
7164475 11 18193562392178378628

>  <PUBCHEM_SHAPE_MULTIPOLES>
608.69
9.74
6.75
1.2
13.19
0.72
0.16
-1.42
2.09
-9.34
1.15
-0.24
0.37
0.55

>  <PUBCHEM_SHAPE_SELFOVERLAP>
1341.774

>  <PUBCHEM_SHAPE_VOLUME>
322.8

>  <RI>
-8.67556e+08

>  <Rbt.Current_Directory>
/root/miniconda3/envs/rdock/share/rxdock-2013.1.1_148c5bd1-0/data/ligands/prepped_ligands/Hyperoside

>  <Rbt.Executable>
rbdock/0.1.0

>  <Rbt.Library>
librxdock.so/0.1.0

>  <Rbt.Parameter_File>
/root/miniconda3/envs/rdock/share/rxdock-2013.1.1_148c5bd1-0/data/scripts/dock.prm

>  <Rbt.Receptor>
def.prm

>  <SCORE>
-22.823

>  <SCORE.INTER>
-22.6746

>  <SCORE.INTER.CONST>
1

>  <SCORE.INTER.POLAR>
-2.43783

>  <SCORE.INTER.REPUL>
0.437218

>  <SCORE.INTER.ROT>
4

>  <SCORE.INTER.VDW>
-25.972

>  <SCORE.INTER.norm>
-0.687108

>  <SCORE.INTRA>
0.341649

>  <SCORE.INTRA.DIHEDRAL>
-5.02407

>  <SCORE.INTRA.DIHEDRAL.0>
13.4636

>  <SCORE.INTRA.POLAR>
0.0724743

>  <SCORE.INTRA.POLAR.0>
-0.250933

>  <SCORE.INTRA.REPUL>
0

>  <SCORE.INTRA.REPUL.0>
0

>  <SCORE.INTRA.VDW>
2.60727

>  <SCORE.INTRA.VDW.0>
-3.21539

>  <SCORE.INTRA.norm>
0.010353

>  <SCORE.RESTR>
0

>  <SCORE.RESTR.CAVITY>
0

>  <SCORE.RESTR.norm>
0

>  <SCORE.SYSTEM>
-0.490123

>  <SCORE.SYSTEM.CONST>
0

>  <SCORE.SYSTEM.DIHEDRAL>
0.941374

>  <SCORE.SYSTEM.POLAR>
-0.0191209

>  <SCORE.SYSTEM.VDW>
-0.895799

>  <SCORE.SYSTEM.norm>
-0.0148522

>  <SCORE.heavy>
33

>  <SCORE.norm>
-0.691607

$$$$
5281643
  RxDock  02242101243D
librxdock.so/0.1.0
 41 44  0  0  0  0  0  0  0  0999 V2000
  -48.7554   -2.0477   15.9113 O   0  0  0  0  0  0
  -51.0196   -1.6024   15.5594 O   0  0  0  0  0  0
  -47.7004    0.4500   12.7848 O   0  0  0  0  0  0
  -46.8820    0.0498   15.4114 O   0  0  0  0  0  0
  -50.3951   -0.5816   12.9831 O   0  0  0  0  0  0
  -45.2279   -2.8707   15.9737 O   0  0  0  0  0  0
  -50.9654   -2.7767   19.0529 O   0  0  0  0  0  0
  -52.0798   -4.1677   15.3887 O   0  0  0  0  0  0
  -52.8239   -6.4304   16.4675 O   0  0  0  0  0  0
  -52.2517   -6.8291   21.1641 O   0  0  0  0  0  0
  -46.9891    0.8712   18.6988 O   0  0  0  0  0  0
  -48.6536    3.0812   18.9591 O   0  0  0  0  0  0
  -48.0375   -0.7642   13.4498 C   0  0  0  0  0  0
  -47.0070   -1.0731   14.5364 C   0  0  0  0  0  0
  -49.4405   -0.6398   14.0429 C   0  0  0  0  0  0
  -47.4599   -2.2912   15.3490 C   0  0  0  0  0  0
  -49.7657   -1.8483   14.9235 C   0  0  0  0  0  0
  -46.5141   -2.6029   16.5028 C   0  0  0  0  0  0
  -51.1851   -2.3929   16.6758 C   0  0  0  0  0  0
  -50.8428   -1.9954   17.9149 C   0  0  0  0  0  0
  -51.7505   -3.7512   16.4912 C   0  0  0  0  0  0
  -51.8914   -4.5703   17.7047 C   0  0  0  0  0  0
  -51.4892   -4.0376   18.9274 C   0  0  0  0  0  0
  -50.2663   -0.6671   18.1891 C   0  0  0  0  0  0
  -52.4173   -5.8629   17.6371 C   0  0  0  0  0  0
  -51.6102   -4.7955   20.0926 C   0  0  0  0  0  0
  -48.8849   -0.5186   18.3162 C   0  0  0  0  0  0
  -51.1015    0.4424   18.3213 C   0  0  0  0  0  0
  -52.5377   -6.6189   18.8038 C   0  0  0  0  0  0
  -52.1351   -6.0865   20.0293 C   0  0  0  0  0  0
  -48.3392    0.7388   18.5753 C   0  0  0  0  0  0
  -50.5558    1.6997   18.5804 C   0  0  0  0  0  0
  -49.1746    1.8479   18.7074 C   0  0  0  0  0  0
  -46.8453    0.3123   12.3424 H   0  0  0  0  0  0
  -47.7495    0.1903   15.8278 H   0  0  0  0  0  0
  -50.2060    0.2243   12.4732 H   0  0  0  0  0  0
  -44.6247   -3.0123   16.7235 H   0  0  0  0  0  0
  -52.3355   -7.2507   16.2992 H   0  0  0  0  0  0
  -52.5809   -7.7139   20.9297 H   0  0  0  0  0  0
  -46.7870    1.8097   18.8568 H   0  0  0  0  0  0
  -49.3653    3.6691   19.2655 H   0  0  0  0  0  0
  1 16  1  0  0  0
  1 17  1  0  0  0
  2 17  1  0  0  0
  2 19  1  0  0  0
  3 13  1  0  0  0
  3 34  1  0  0  0
  4 14  1  0  0  0
  4 35  1  0  0  0
  5 15  1  0  0  0
  5 36  1  0  0  0
  6 18  1  0  0  0
  6 37  1  0  0  0
  7 20  1  0  0  0
  7 23  1  0  0  0
  8 21  2  0  0  0
  9 25  1  0  0  0
  9 38  1  0  0  0
 10 30  1  0  0  0
 10 39  1  0  0  0
 11 31  1  0  0  0
 11 40  1  0  0  0
 12 33  1  0  0  0
 12 41  1  0  0  0
 13 14  1  0  0  0
 13 15  1  0  0  0
 14 16  1  0  0  0
 15 17  1  0  0  0
 16 18  1  0  0  0
 19 20  2  0  0  0
 19 21  1  0  0  0
 20 24  1  0  0  0
 21 22  1  0  0  0
 22 23  1  0  0  0
 22 25  2  0  0  0
 23 26  2  0  0  0
 24 27  2  0  0  0
 24 28  1  0  0  0
 25 29  1  0  0  0
 26 30  1  0  0  0
 27 31  1  0  0  0
 28 32  2  0  0  0
 29 30  2  0  0  0
 31 33  2  0  0  0
 32 33  1  0  0  0
M  END
>  <CHROM.0>
-72.99526943,-171.23239406,179.59726817

>  <CHROM.1>
-39.01995726,92.71747140,63.39879291,61.73394948,-62.91737719,176.50297169
121.52055643,-176.52501827,178.77122858,-164.13110295,179.02188657,81.17921335
-49.80310855,-2.04412783,16.96355894,-0.08192999,-0.98520451,-2.13086749

>  <Name>
5281643

>  <PUBCHEM_ATOM_DEF_STEREO_COUNT>
5

>  <PUBCHEM_ATOM_UDEF_STEREO_COUNT>
0

>  <PUBCHEM_BOND_DEF_STEREO_COUNT>
0

>  <PUBCHEM_BOND_UDEF_STEREO_COUNT>
0

>  <PUBCHEM_CACTVS_TAUTO_COUNT>
162

>  <PUBCHEM_COMPONENT_COUNT>
1

>  <PUBCHEM_COMPOUND_CID>
5281643

>  <PUBCHEM_CONFORMER_DIVERSEORDER>
1
86
59
70
75
65
68
80
35
60
72
84
10
81
85
66
61
88
58
63
62
69
39
16
83
52
30
67
49
47
76
25
2
57
64
87
14
71
45
19
53
36
79
27
42
9
34
4
29
40
78
48
43
56
12
11
44
74
17
38
82
37
23
3
8
31
6
50
33
28
55
22
73
77
51
46
5
24
41
26
20
18
32
54
7
21
15
13

>  <PUBCHEM_CONFORMER_ID>
0050976B00000001

>  <PUBCHEM_CONFORMER_RMSD>
0.8

>  <PUBCHEM_COORDINATE_TYPE>
2
5
10

>  <PUBCHEM_EFFECTIVE_ROTOR_COUNT>
5.2

>  <PUBCHEM_FEATURE_SELFOVERLAP>
101.615

>  <PUBCHEM_HEAVY_ATOM_COUNT>
33

>  <PUBCHEM_ISOTOPIC_ATOM_COUNT>
0

>  <PUBCHEM_MMFF94_ENERGY>
104.7486

>  <PUBCHEM_MMFF94_PARTIAL_CHARGES>
46
1 -0.56
10 -0.53
11 -0.53
12 -0.53
13 0.28
14 0.28
15 0.28
16 0.28
17 0.56
18 0.28
19 0.09
2 -0.36
20 0.05
21 0.47
22 0.09
23 0.08
24 0.03
25 0.08
26 -0.15
27 -0.15
28 -0.15
29 -0.15
3 -0.68
30 0.08
31 0.08
32 -0.15
33 0.08
4 -0.68
41 0.4
42 0.4
43 0.4
44 0.4
45 0.15
46 0.15
47 0.15
48 0.15
49 0.15
5 -0.68
50 0.45
51 0.45
52 0.45
53 0.45
6 -0.68
7 -0.16
8 -0.57
9 -0.53

>  <PUBCHEM_PHARMACOPHORE_FEATURES>
20
1 1 acceptor
1 10 donor
1 11 donor
1 12 donor
1 2 acceptor
1 3 acceptor
1 3 donor
1 4 acceptor
1 4 donor
1 5 acceptor
1 5 donor
1 6 acceptor
1 6 donor
1 7 acceptor
1 8 acceptor
1 9 donor
6 1 13 14 15 16 17 rings
6 22 23 25 26 29 30 rings
6 24 27 28 31 32 33 rings
6 7 19 20 21 22 23 rings

>  <PUBCHEM_SHAPE_FINGERPRINT>
10006869 2 18335973191630432171
10050765 1 18411138078758306218
10254770 206 17543629735110429114
10411042 1 18049726522484379307
10688039 33 18122628511688036570
1100329 8 18191865846011046165
11014199 57 18193559101690162847
11115154 58 17485060211102720839
11578080 2 16772653593855117074
12160290 23 18200008716930094571
12422481 6 18057344965791821347
12788726 201 18191291870106976058
13540713 4 18130787898074025568
1361 2 18337097987698836213
13690498 29 18198645374673823918
138480 1 16825304412646788035
13944108 23 17257933693666577220
140371 6 17616249621068240634
14068700 686 18053660567363316456
14508225 48 18194396925319104870
14790565 3 18196095438813983089
15131766 46 15504380113060768694
15463212 79 18262230015331414266
15484559 13 17837767833426351551
17357779 13 17982160420581768986
1813 80 17767144346333510902
19591789 44 18267018367185251353
20101258 96 18119543264584813442
20775438 99 17766234985840219669
21033648 144 18343867719350468664
21033648 29 18339635629996413648
21307412 95 17843144519371973382
21641784 216 18048331221354704092
21703447 108 18196922482976566226
23227448 37 18412825798245716428
23559900 14 18201999920346542688
238 59 17688559707949800469
3298306 158 18050845511872374654
3610482 184 17969243217130771598
38695281 34 18051131393374722297
4058900 60 17977675212157126569
44062 13 18341619213703054494
508706 21 18341040878859799886
59025328 239 17125891581249652975
7164475 11 18193562392178378628

>  <PUBCHEM_SHAPE_MULTIPOLES>
608.69
9.74
6.75
1.2
13.19
0.72
0.16
-1.42
2.09
-9.34
1.15
-0.24
0.37
0.55

>  <PUBCHEM_SHAPE_SELFOVERLAP>
1341.774

>  <PUBCHEM_SHAPE_VOLUME>
322.8

>  <RI>
-8.67556e+08

>  <Rbt.Current_Directory>
/root/miniconda3/envs/rdock/share/rxdock-2013.1.1_148c5bd1-0/data/ligands/prepped_ligands/Hyperoside

>  <Rbt.Executable>
rbdock/0.1.0

>  <Rbt.Library>
librxdock.so/0.1.0

>  <Rbt.Parameter_File>
/root/miniconda3/envs/rdock/share/rxdock-2013.1.1_148c5bd1-0/data/scripts/dock.prm

>  <Rbt.Receptor>
def.prm

>  <SCORE>
-16.6808

>  <SCORE.INTER>
-17.8966

>  <SCORE.INTER.CONST>
1

>  <SCORE.INTER.POLAR>
-2.77713

>  <SCORE.INTER.REPUL>
0.103064

>  <SCORE.INTER.ROT>
4

>  <SCORE.INTER.VDW>
-18.3697

>  <SCORE.INTER.norm>
-0.542322

>  <SCORE.INTRA>
1.88304

>  <SCORE.INTRA.DIHEDRAL>
2.04831

>  <SCORE.INTRA.DIHEDRAL.0>
13.4636

>  <SCORE.INTRA.POLAR>
0.0899228

>  <SCORE.INTRA.POLAR.0>
-0.250933

>  <SCORE.INTRA.REPUL>
0

>  <SCORE.INTRA.REPUL.0>
0

>  <SCORE.INTRA.VDW>
0.55315

>  <SCORE.INTRA.VDW.0>
-3.21539

>  <SCORE.INTRA.norm>
0.0570619

>  <SCORE.RESTR>
0

>  <SCORE.RESTR.CAVITY>
0

>  <SCORE.RESTR.norm>
0

>  <SCORE.SYSTEM>
-0.667263

>  <SCORE.SYSTEM.CONST>
0

>  <SCORE.SYSTEM.DIHEDRAL>
0.783375

>  <SCORE.SYSTEM.POLAR>
-0.000960853

>  <SCORE.SYSTEM.VDW>
-1.05568

>  <SCORE.SYSTEM.norm>
-0.0202201

>  <SCORE.heavy>
33

>  <SCORE.norm>
-0.50548

$$$$
5281643
  RxDock  02242101243D
librxdock.so/0.1.0
 41 44  0  0  0  0  0  0  0  0999 V2000
  -50.9606   -1.4176   17.1431 O   0  0  0  0  0  0
  -51.0527   -3.0854   15.5125 O   0  0  0  0  0  0
  -52.8002   -3.9011   19.8953 O   0  0  0  0  0  0
  -50.5887   -2.2167   19.8600 O   0  0  0  0  0  0
  -52.9912   -4.4643   17.0648 O   0  0  0  0  0  0
  -50.3720    1.1668   17.4999 O   0  0  0  0  0  0
  -47.6474   -3.8454   16.7012 O   0  0  0  0  0  0
  -49.5040   -1.1023   14.3280 O   0  0  0  0  0  0
  -47.2112    0.0740   13.8842 O   0  0  0  0  0  0
  -43.4111   -1.8179   16.0112 O   0  0  0  0  0  0
  -50.2507   -6.1676   20.5890 O   0  0  0  0  0  0
  -51.5435   -8.1538   19.1378 O   0  0  0  0  0  0
  -52.6881   -2.9077   18.8799 C   0  0  0  0  0  0
  -51.8461   -1.7343   19.3819 C   0  0  0  0  0  0
  -52.0688   -3.5334   17.6307 C   0  0  0  0  0  0
  -51.5988   -0.7463   18.2366 C   0  0  0  0  0  0
  -51.7582   -2.4607   16.5844 C   0  0  0  0  0  0
  -50.6950    0.4086   18.6517 C   0  0  0  0  0  0
  -49.6890   -3.0237   15.6996 C   0  0  0  0  0  0
  -49.0121   -3.8984   16.4660 C   0  0  0  0  0  0
  -48.9427   -1.9273   15.0364 C   0  0  0  0  0  0
  -47.4925   -1.8849   15.2784 C   0  0  0  0  0  0
  -46.9186   -2.8505   16.1023 C   0  0  0  0  0  0
  -49.6736   -5.0121   17.1688 C   0  0  0  0  0  0
  -46.6997   -0.8930   14.6957 C   0  0  0  0  0  0
  -45.5456   -2.8303   16.3495 C   0  0  0  0  0  0
  -49.6526   -5.0685   18.5627 C   0  0  0  0  0  0
  -50.3216   -6.0102   16.4407 C   0  0  0  0  0  0
  -45.3267   -0.8750   14.9442 C   0  0  0  0  0  0
  -44.7504   -1.8416   15.7694 C   0  0  0  0  0  0
  -50.2791   -6.1224   19.2280 C   0  0  0  0  0  0
  -50.9480   -7.0641   17.1060 C   0  0  0  0  0  0
  -50.9269   -7.1202   18.4997 C   0  0  0  0  0  0
  -53.4483   -3.5810   20.5459 H   0  0  0  0  0  0
  -50.7737   -2.8393   20.5837 H   0  0  0  0  0  0
  -52.5809   -4.8166   16.2568 H   0  0  0  0  0  0
  -49.9262    0.5728   16.8718 H   0  0  0  0  0  0
  -48.1787    0.0196   13.8576 H   0  0  0  0  0  0
  -43.1105   -2.7213   16.2105 H   0  0  0  0  0  0
  -49.5766   -5.5397   20.9019 H   0  0  0  0  0  0
  -51.1120   -8.2978   19.9975 H   0  0  0  0  0  0
  1 16  1  0  0  0
  1 17  1  0  0  0
  2 17  1  0  0  0
  2 19  1  0  0  0
  3 13  1  0  0  0
  3 34  1  0  0  0
  4 14  1  0  0  0
  4 35  1  0  0  0
  5 15  1  0  0  0
  5 36  1  0  0  0
  6 18  1  0  0  0
  6 37  1  0  0  0
  7 20  1  0  0  0
  7 23  1  0  0  0
  8 21  2  0  0  0
  9 25  1  0  0  0
  9 38  1  0  0  0
 10 30  1  0  0  0
 10 39  1  0  0  0
 11 31  1  0  0  0
 11 40  1  0  0  0
 12 33  1  0  0  0
 12 41  1  0  0  0
 13 14  1  0  0  0
 13 15  1  0  0  0
 14 16  1  0  0  0
 15 17  1  0  0  0
 16 18  1  0  0  0
 19 20  2  0  0  0
 19 21  1  0  0  0
 20 24  1  0  0  0
 21 22  1  0  0  0
 22 23  1  0  0  0
 22 25  2  0  0  0
 23 26  2  0  0  0
 24 27  2  0  0  0
 24 28  1  0  0  0
 25 29  1  0  0  0
 26 30  1  0  0  0
 27 31  1  0  0  0
 28 32  2  0  0  0
 29 30  2  0  0  0
 31 33  2  0  0  0
 32 33  1  0  0  0
M  END
>  <CHROM.0>
-53.38642700,66.20826423,-173.73193995

>  <CHROM.1>
29.31598641,82.96948724,76.54577507,-59.85727890,177.87667960,-59.11742984
5.85971740,27.17570463,-14.45584731,-26.74439468,51.19212945,61.70220104
-49.60607213,-3.07604589,17.15366099,2.44612690,-0.42795084,2.88908580

>  <Name>
5281643

>  <PUBCHEM_ATOM_DEF_STEREO_COUNT>
5

>  <PUBCHEM_ATOM_UDEF_STEREO_COUNT>
0

>  <PUBCHEM_BOND_DEF_STEREO_COUNT>
0

>  <PUBCHEM_BOND_UDEF_STEREO_COUNT>
0

>  <PUBCHEM_CACTVS_TAUTO_COUNT>
162

>  <PUBCHEM_COMPONENT_COUNT>
1

>  <PUBCHEM_COMPOUND_CID>
5281643

>  <PUBCHEM_CONFORMER_DIVERSEORDER>
1
86
59
70
75
65
68
80
35
60
72
84
10
81
85
66
61
88
58
63
62
69
39
16
83
52
30
67
49
47
76
25
2
57
64
87
14
71
45
19
53
36
79
27
42
9
34
4
29
40
78
48
43
56
12
11
44
74
17
38
82
37
23
3
8
31
6
50
33
28
55
22
73
77
51
46
5
24
41
26
20
18
32
54
7
21
15
13

>  <PUBCHEM_CONFORMER_ID>
0050976B00000001

>  <PUBCHEM_CONFORMER_RMSD>
0.8

>  <PUBCHEM_COORDINATE_TYPE>
2
5
10

>  <PUBCHEM_EFFECTIVE_ROTOR_COUNT>
5.2

>  <PUBCHEM_FEATURE_SELFOVERLAP>
101.615

>  <PUBCHEM_HEAVY_ATOM_COUNT>
33

>  <PUBCHEM_ISOTOPIC_ATOM_COUNT>
0

>  <PUBCHEM_MMFF94_ENERGY>
104.7486

>  <PUBCHEM_MMFF94_PARTIAL_CHARGES>
46
1 -0.56
10 -0.53
11 -0.53
12 -0.53
13 0.28
14 0.28
15 0.28
16 0.28
17 0.56
18 0.28
19 0.09
2 -0.36
20 0.05
21 0.47
22 0.09
23 0.08
24 0.03
25 0.08
26 -0.15
27 -0.15
28 -0.15
29 -0.15
3 -0.68
30 0.08
31 0.08
32 -0.15
33 0.08
4 -0.68
41 0.4
42 0.4
43 0.4
44 0.4
45 0.15
46 0.15
47 0.15
48 0.15
49 0.15
5 -0.68
50 0.45
51 0.45
52 0.45
53 0.45
6 -0.68
7 -0.16
8 -0.57
9 -0.53

>  <PUBCHEM_PHARMACOPHORE_FEATURES>
20
1 1 acceptor
1 10 donor
1 11 donor
1 12 donor
1 2 acceptor
1 3 acceptor
1 3 donor
1 4 acceptor
1 4 donor
1 5 acceptor
1 5 donor
1 6 acceptor
1 6 donor
1 7 acceptor
1 8 acceptor
1 9 donor
6 1 13 14 15 16 17 rings
6 22 23 25 26 29 30 rings
6 24 27 28 31 32 33 rings
6 7 19 20 21 22 23 rings

>  <PUBCHEM_SHAPE_FINGERPRINT>
10006869 2 18335973191630432171
10050765 1 18411138078758306218
10254770 206 17543629735110429114
10411042 1 18049726522484379307
10688039 33 18122628511688036570
1100329 8 18191865846011046165
11014199 57 18193559101690162847
11115154 58 17485060211102720839
11578080 2 16772653593855117074
12160290 23 18200008716930094571
12422481 6 18057344965791821347
12788726 201 18191291870106976058
13540713 4 18130787898074025568
1361 2 18337097987698836213
13690498 29 18198645374673823918
138480 1 16825304412646788035
13944108 23 17257933693666577220
140371 6 17616249621068240634
14068700 686 18053660567363316456
14508225 48 18194396925319104870
14790565 3 18196095438813983089
15131766 46 15504380113060768694
15463212 79 18262230015331414266
15484559 13 17837767833426351551
17357779 13 17982160420581768986
1813 80 17767144346333510902
19591789 44 18267018367185251353
20101258 96 18119543264584813442
20775438 99 17766234985840219669
21033648 144 18343867719350468664
21033648 29 18339635629996413648
21307412 95 17843144519371973382
21641784 216 18048331221354704092
21703447 108 18196922482976566226
23227448 37 18412825798245716428
23559900 14 18201999920346542688
238 59 17688559707949800469
3298306 158 18050845511872374654
3610482 184 17969243217130771598
38695281 34 18051131393374722297
4058900 60 17977675212157126569
44062 13 18341619213703054494
508706 21 18341040878859799886
59025328 239 17125891581249652975
7164475 11 18193562392178378628

>  <PUBCHEM_SHAPE_MULTIPOLES>
608.69
9.74
6.75
1.2
13.19
0.72
0.16
-1.42
2.09
-9.34
1.15
-0.24
0.37
0.55

>  <PUBCHEM_SHAPE_SELFOVERLAP>
1341.774

>  <PUBCHEM_SHAPE_VOLUME>
322.8

>  <RI>
-8.67556e+08

>  <Rbt.Current_Directory>
/root/miniconda3/envs/rdock/share/rxdock-2013.1.1_148c5bd1-0/data/ligands/prepped_ligands/Hyperoside

>  <Rbt.Executable>
rbdock/0.1.0

>  <Rbt.Library>
librxdock.so/0.1.0

>  <Rbt.Parameter_File>
/root/miniconda3/envs/rdock/share/rxdock-2013.1.1_148c5bd1-0/data/scripts/dock.prm

>  <Rbt.Receptor>
def.prm

>  <SCORE>
-13.043

>  <SCORE.INTER>
-14.0936

>  <SCORE.INTER.CONST>
1

>  <SCORE.INTER.POLAR>
-1.49019

>  <SCORE.INTER.REPUL>
0.0128403

>  <SCORE.INTER.ROT>
4

>  <SCORE.INTER.VDW>
-18.4912

>  <SCORE.INTER.norm>
-0.42708

>  <SCORE.INTRA>
1.95609

>  <SCORE.INTRA.DIHEDRAL>
2.66348

>  <SCORE.INTRA.DIHEDRAL.0>
13.4636

>  <SCORE.INTRA.POLAR>
0.140649

>  <SCORE.INTRA.POLAR.0>
-0.250933

>  <SCORE.INTRA.REPUL>
0

>  <SCORE.INTRA.REPUL.0>
0

>  <SCORE.INTRA.VDW>
0.146145

>  <SCORE.INTRA.VDW.0>
-3.21539

>  <SCORE.INTRA.norm>
0.0592755

>  <SCORE.RESTR>
0

>  <SCORE.RESTR.CAVITY>
0

>  <SCORE.RESTR.norm>
0

>  <SCORE.SYSTEM>
-0.905499

>  <SCORE.SYSTEM.CONST>
0

>  <SCORE.SYSTEM.DIHEDRAL>
0.38183

>  <SCORE.SYSTEM.POLAR>
-0.0140707

>  <SCORE.SYSTEM.VDW>
-1.04857

>  <SCORE.SYSTEM.norm>
-0.0274394

>  <SCORE.heavy>
33

>  <SCORE.norm>
-0.395243

$$$$
5281643
  RxDock  02242101243D
librxdock.so/0.1.0
 41 44  0  0  0  0  0  0  0  0999 V2000
  -50.8573   -3.7270   17.5436 O   0  0  0  0  0  0
  -49.6886   -5.3758   16.3756 O   0  0  0  0  0  0
  -47.4570   -1.3801   17.7835 O   0  0  0  0  0  0
  -50.1266   -1.0004   17.1067 O   0  0  0  0  0  0
  -47.2411   -4.2093   17.2229 O   0  0  0  0  0  0
  -52.6019   -1.6388   17.3871 O   0  0  0  0  0  0
  -52.8423   -4.7340   14.5786 O   0  0  0  0  0  0
  -51.3117   -7.4956   17.1544 O   0  0  0  0  0  0
  -53.5740   -8.8059   17.1029 O   0  0  0  0  0  0
  -57.0178   -6.9840   14.3891 O   0  0  0  0  0  0
  -47.4065   -2.4147   13.7745 O   0  0  0  0  0  0
  -48.8231   -0.1283   13.0761 O   0  0  0  0  0  0
  -48.4281   -2.3437   18.1820 C   0  0  0  0  0  0
  -49.8001   -1.6829   18.3191 C   0  0  0  0  0  0
  -48.4637   -3.4756   17.1557 C   0  0  0  0  0  0
  -50.8649   -2.7509   18.5929 C   0  0  0  0  0  0
  -49.6214   -4.4336   17.4455 C   0  0  0  0  0  0
  -52.2703   -2.1652   18.6596 C   0  0  0  0  0  0
  -50.9753   -5.5141   15.9024 C   0  0  0  0  0  0
  -51.5415   -4.6425   15.0477 C   0  0  0  0  0  0
  -51.7728   -6.6705   16.3771 C   0  0  0  0  0  0
  -53.1478   -6.7699   15.8645 C   0  0  0  0  0  0
  -53.6125   -5.7916   14.9884 C   0  0  0  0  0  0
  -50.8264   -3.4615   14.5322 C   0  0  0  0  0  0
  -53.9789   -7.8252   16.2488 C   0  0  0  0  0  0
  -54.9139   -5.8622   14.4903 C   0  0  0  0  0  0
  -49.4385   -3.4917   14.3930 C   0  0  0  0  0  0
  -51.5370   -2.3129   14.1828 C   0  0  0  0  0  0
  -55.2800   -7.8937   15.7490 C   0  0  0  0  0  0
  -55.7468   -6.9143   14.8714 C   0  0  0  0  0  0
  -48.7617   -2.3739   13.9047 C   0  0  0  0  0  0
  -50.8601   -1.1952   13.6946 C   0  0  0  0  0  0
  -49.4725   -1.2257   13.5554 C   0  0  0  0  0  0
  -47.7371   -1.0224   16.9237 H   0  0  0  0  0  0
  -50.0430   -1.6427   16.3814 H   0  0  0  0  0  0
  -47.2273   -4.6620   18.0832 H   0  0  0  0  0  0
  -51.9877   -0.9079   17.2017 H   0  0  0  0  0  0
  -52.6966   -9.1339   16.8534 H   0  0  0  0  0  0
  -57.0481   -7.6423   13.6737 H   0  0  0  0  0  0
  -47.1473   -3.3271   13.5579 H   0  0  0  0  0  0
  -48.3329   -0.3759   12.2734 H   0  0  0  0  0  0
  1 16  1  0  0  0
  1 17  1  0  0  0
  2 17  1  0  0  0
  2 19  1  0  0  0
  3 13  1  0  0  0
  3 34  1  0  0  0
  4 14  1  0  0  0
  4 35  1  0  0  0
  5 15  1  0  0  0
  5 36  1  0  0  0
  6 18  1  0  0  0
  6 37  1  0  0  0
  7 20  1  0  0  0
  7 23  1  0  0  0
  8 21  2  0  0  0
  9 25  1  0  0  0
  9 38  1  0  0  0
 10 30  1  0  0  0
 10 39  1  0  0  0
 11 31  1  0  0  0
 11 40  1  0  0  0
 12 33  1  0  0  0
 12 41  1  0  0  0
 13 14  1  0  0  0
 13 15  1  0  0  0
 14 16  1  0  0  0
 15 17  1  0  0  0
 16 18  1  0  0  0
 19 20  2  0  0  0
 19 21  1  0  0  0
 20 24  1  0  0  0
 21 22  1  0  0  0
 22 23  1  0  0  0
 22 25  2  0  0  0
 23 26  2  0  0  0
 24 27  2  0  0  0
 24 28  1  0  0  0
 25 29  1  0  0  0
 26 30  1  0  0  0
 27 31  1  0  0  0
 28 32  2  0  0  0
 29 30  2  0  0  0
 31 33  2  0  0  0
 32 33  1  0  0  0
M  END
>  <CHROM.0>
-56.80524080,59.35156359,60.47885222

>  <CHROM.1>
-10.88451990,80.20812605,-60.47630396,53.94996749,67.45029238,-63.81416625
-46.44818110,101.70099416,32.22447558,58.51174404,-56.52454509,-151.91489508
-51.15285572,-4.09541725,15.96182427,-0.39026174,0.65420920,2.23247559

>  <Name>
5281643

>  <PUBCHEM_ATOM_DEF_STEREO_COUNT>
5

>  <PUBCHEM_ATOM_UDEF_STEREO_COUNT>
0

>  <PUBCHEM_BOND_DEF_STEREO_COUNT>
0

>  <PUBCHEM_BOND_UDEF_STEREO_COUNT>
0

>  <PUBCHEM_CACTVS_TAUTO_COUNT>
162

>  <PUBCHEM_COMPONENT_COUNT>
1

>  <PUBCHEM_COMPOUND_CID>
5281643

>  <PUBCHEM_CONFORMER_DIVERSEORDER>
1
86
59
70
75
65
68
80
35
60
72
84
10
81
85
66
61
88
58
63
62
69
39
16
83
52
30
67
49
47
76
25
2
57
64
87
14
71
45
19
53
36
79
27
42
9
34
4
29
40
78
48
43
56
12
11
44
74
17
38
82
37
23
3
8
31
6
50
33
28
55
22
73
77
51
46
5
24
41
26
20
18
32
54
7
21
15
13

>  <PUBCHEM_CONFORMER_ID>
0050976B00000001

>  <PUBCHEM_CONFORMER_RMSD>
0.8

>  <PUBCHEM_COORDINATE_TYPE>
2
5
10

>  <PUBCHEM_EFFECTIVE_ROTOR_COUNT>
5.2

>  <PUBCHEM_FEATURE_SELFOVERLAP>
101.615

>  <PUBCHEM_HEAVY_ATOM_COUNT>
33

>  <PUBCHEM_ISOTOPIC_ATOM_COUNT>
0

>  <PUBCHEM_MMFF94_ENERGY>
104.7486

>  <PUBCHEM_MMFF94_PARTIAL_CHARGES>
46
1 -0.56
10 -0.53
11 -0.53
12 -0.53
13 0.28
14 0.28
15 0.28
16 0.28
17 0.56
18 0.28
19 0.09
2 -0.36
20 0.05
21 0.47
22 0.09
23 0.08
24 0.03
25 0.08
26 -0.15
27 -0.15
28 -0.15
29 -0.15
3 -0.68
30 0.08
31 0.08
32 -0.15
33 0.08
4 -0.68
41 0.4
42 0.4
43 0.4
44 0.4
45 0.15
46 0.15
47 0.15
48 0.15
49 0.15
5 -0.68
50 0.45
51 0.45
52 0.45
53 0.45
6 -0.68
7 -0.16
8 -0.57
9 -0.53

>  <PUBCHEM_PHARMACOPHORE_FEATURES>
20
1 1 acceptor
1 10 donor
1 11 donor
1 12 donor
1 2 acceptor
1 3 acceptor
1 3 donor
1 4 acceptor
1 4 donor
1 5 acceptor
1 5 donor
1 6 acceptor
1 6 donor
1 7 acceptor
1 8 acceptor
1 9 donor
6 1 13 14 15 16 17 rings
6 22 23 25 26 29 30 rings
6 24 27 28 31 32 33 rings
6 7 19 20 21 22 23 rings

>  <PUBCHEM_SHAPE_FINGERPRINT>
10006869 2 18335973191630432171
10050765 1 18411138078758306218
10254770 206 17543629735110429114
10411042 1 18049726522484379307
10688039 33 18122628511688036570
1100329 8 18191865846011046165
11014199 57 18193559101690162847
11115154 58 17485060211102720839
11578080 2 16772653593855117074
12160290 23 18200008716930094571
12422481 6 18057344965791821347
12788726 201 18191291870106976058
13540713 4 18130787898074025568
1361 2 18337097987698836213
13690498 29 18198645374673823918
138480 1 16825304412646788035
13944108 23 17257933693666577220
140371 6 17616249621068240634
14068700 686 18053660567363316456
14508225 48 18194396925319104870
14790565 3 18196095438813983089
15131766 46 15504380113060768694
15463212 79 18262230015331414266
15484559 13 17837767833426351551
17357779 13 17982160420581768986
1813 80 17767144346333510902
19591789 44 18267018367185251353
20101258 96 18119543264584813442
20775438 99 17766234985840219669
21033648 144 18343867719350468664
21033648 29 18339635629996413648
21307412 95 17843144519371973382
21641784 216 18048331221354704092
21703447 108 18196922482976566226
23227448 37 18412825798245716428
23559900 14 18201999920346542688
238 59 17688559707949800469
3298306 158 18050845511872374654
3610482 184 17969243217130771598
38695281 34 18051131393374722297
4058900 60 17977675212157126569
44062 13 18341619213703054494
508706 21 18341040878859799886
59025328 239 17125891581249652975
7164475 11 18193562392178378628

>  <PUBCHEM_SHAPE_MULTIPOLES>
608.69
9.74
6.75
1.2
13.19
0.72
0.16
-1.42
2.09
-9.34
1.15
-0.24
0.37
0.55

>  <PUBCHEM_SHAPE_SELFOVERLAP>
1341.774

>  <PUBCHEM_SHAPE_VOLUME>
322.8

>  <RI>
-8.67556e+08

>  <Rbt.Current_Directory>
/root/miniconda3/envs/rdock/share/rxdock-2013.1.1_148c5bd1-0/data/ligands/prepped_ligands/Hyperoside

>  <Rbt.Executable>
rbdock/0.1.0

>  <Rbt.Library>
librxdock.so/0.1.0

>  <Rbt.Parameter_File>
/root/miniconda3/envs/rdock/share/rxdock-2013.1.1_148c5bd1-0/data/scripts/dock.prm

>  <Rbt.Receptor>
def.prm

>  <SCORE>
-9.81179

>  <SCORE.INTER>
-15.6408

>  <SCORE.INTER.CONST>
1

>  <SCORE.INTER.POLAR>
-1.71139

>  <SCORE.INTER.REPUL>
0.243763

>  <SCORE.INTER.ROT>
4

>  <SCORE.INTER.VDW>
-20.4409

>  <SCORE.INTER.norm>
-0.473963

>  <SCORE.INTRA>
6.7684

>  <SCORE.INTRA.DIHEDRAL>
11.5023

>  <SCORE.INTRA.DIHEDRAL.0>
13.4636

>  <SCORE.INTRA.POLAR>
-0.125238

>  <SCORE.INTRA.POLAR.0>
-0.250933

>  <SCORE.INTRA.REPUL>
0

>  <SCORE.INTRA.REPUL.0>
0

>  <SCORE.INTRA.VDW>
1.44306

>  <SCORE.INTRA.VDW.0>
-3.21539

>  <SCORE.INTRA.norm>
0.205103

>  <SCORE.RESTR>
0.00292518

>  <SCORE.RESTR.CAVITY>
0.00292518

>  <SCORE.RESTR.norm>
8.86417e-05

>  <SCORE.SYSTEM>
-0.942317

>  <SCORE.SYSTEM.CONST>
0

>  <SCORE.SYSTEM.DIHEDRAL>
0.0252242

>  <SCORE.SYSTEM.POLAR>
-0.0022066

>  <SCORE.SYSTEM.VDW>
-0.947427

>  <SCORE.SYSTEM.norm>
-0.0285551

>  <SCORE.heavy>
33

>  <SCORE.norm>
-0.297327

$$$$
5281643
  RxDock  02242101243D
librxdock.so/0.1.0
 41 44  0  0  0  0  0  0  0  0999 V2000
  -48.7195   -1.4907   15.1427 O   0  0  0  0  0  0
  -48.6590    0.2908   16.6497 O   0  0  0  0  0  0
  -44.6445   -2.0803   15.5591 O   0  0  0  0  0  0
  -46.9245   -3.6711   15.5701 O   0  0  0  0  0  0
  -45.8407    0.4386   16.3268 O   0  0  0  0  0  0
  -49.4609   -4.0146   14.7885 O   0  0  0  0  0  0
  -48.5046   -1.7332   19.7265 O   0  0  0  0  0  0
  -50.9779   -1.2394   16.5260 O   0  0  0  0  0  0
  -52.6003   -3.0474   17.4936 O   0  0  0  0  0  0
  -51.3339   -5.0471   21.6096 O   0  0  0  0  0  0
  -43.4613   -0.8157   19.7463 O   0  0  0  0  0  0
  -43.4018    1.9581   19.5901 O   0  0  0  0  0  0
  -45.8568   -1.5768   15.0049 C   0  0  0  0  0  0
  -46.7296   -2.7312   14.5115 C   0  0  0  0  0  0
  -46.5870   -0.7491   16.0619 C   0  0  0  0  0  0
  -48.0935   -2.1948   14.0629 C   0  0  0  0  0  0
  -47.9793   -0.3478   15.5694 C   0  0  0  0  0  0
  -49.0423   -3.3080   13.6346 C   0  0  0  0  0  0
  -48.9879   -0.6064   17.6425 C   0  0  0  0  0  0
  -48.2199   -0.8161   18.7273 C   0  0  0  0  0  0
  -50.2396   -1.3867   17.4908 C   0  0  0  0  0  0
  -50.5434   -2.3482   18.5616 C   0  0  0  0  0  0
  -49.6555   -2.4717   19.6279 C   0  0  0  0  0  0
  -46.9563   -0.0924   18.9545 C   0  0  0  0  0  0
  -51.7012   -3.1288   18.5135 C   0  0  0  0  0  0
  -49.9199   -3.3785   20.6548 C   0  0  0  0  0  0
  -45.7897   -0.7996   19.2462 C   0  0  0  0  0  0
  -46.9262    1.3002   18.8775 C   0  0  0  0  0  0
  -51.9636   -4.0348   19.5418 C   0  0  0  0  0  0
  -51.0750   -4.1596   20.6105 C   0  0  0  0  0  0
  -44.5936   -0.1145   19.4608 C   0  0  0  0  0  0
  -45.7302    1.9852   19.0922 C   0  0  0  0  0  0
  -44.5638    1.2778   19.3838 C   0  0  0  0  0  0
  -44.0602   -1.3200   15.7212 H   0  0  0  0  0  0
  -47.4092   -3.2134   16.2781 H   0  0  0  0  0  0
  -44.9946    0.1622   16.7181 H   0  0  0  0  0  0
  -49.7900   -3.3619   15.4301 H   0  0  0  0  0  0
  -52.3162   -2.3895   16.8409 H   0  0  0  0  0  0
  -50.6879   -4.9144   22.3247 H   0  0  0  0  0  0
  -42.9683   -0.3342   20.4331 H   0  0  0  0  0  0
  -42.6526    1.3510   19.4629 H   0  0  0  0  0  0
  1 16  1  0  0  0
  1 17  1  0  0  0
  2 17  1  0  0  0
  2 19  1  0  0  0
  3 13  1  0  0  0
  3 34  1  0  0  0
  4 14  1  0  0  0
  4 35  1  0  0  0
  5 15  1  0  0  0
  5 36  1  0  0  0
  6 18  1  0  0  0
  6 37  1  0  0  0
  7 20  1  0  0  0
  7 23  1  0  0  0
  8 21  2  0  0  0
  9 25  1  0  0  0
  9 38  1  0  0  0
 10 30  1  0  0  0
 10 39  1  0  0  0
 11 31  1  0  0  0
 11 40  1  0  0  0
 12 33  1  0  0  0
 12 41  1  0  0  0
 13 14  1  0  0  0
 13 15  1  0  0  0
 14 16  1  0  0  0
 15 17  1  0  0  0
 16 18  1  0  0  0
 19 20  2  0  0  0
 19 21  1  0  0  0
 20 24  1  0  0  0
 21 22  1  0  0  0
 22 23  1  0  0  0
 22 25  2  0  0  0
 23 26  2  0  0  0
 24 27  2  0  0  0
 24 28  1  0  0  0
 25 29  1  0  0  0
 26 30  1  0  0  0
 27 31  1  0  0  0
 28 32  2  0  0  0
 29 30  2  0  0  0
 31 33  2  0  0  0
 32 33  1  0  0  0
M  END
>  <CHROM.0>
61.54412070,-60.02637092,-173.01537697

>  <CHROM.1>
50.72994306,94.99953216,170.65891229,63.19331481,-64.55330776,51.55210891
-0.05954656,8.10682587,-139.82474189,20.03755873,-48.99782424,50.27903268
-48.00601548,-1.54432294,17.64119203,-3.10007975,0.54222430,1.41722228

>  <Name>
5281643

>  <PUBCHEM_ATOM_DEF_STEREO_COUNT>
5

>  <PUBCHEM_ATOM_UDEF_STEREO_COUNT>
0

>  <PUBCHEM_BOND_DEF_STEREO_COUNT>
0

>  <PUBCHEM_BOND_UDEF_STEREO_COUNT>
0

>  <PUBCHEM_CACTVS_TAUTO_COUNT>
162

>  <PUBCHEM_COMPONENT_COUNT>
1

>  <PUBCHEM_COMPOUND_CID>
5281643

>  <PUBCHEM_CONFORMER_DIVERSEORDER>
1
86
59
70
75
65
68
80
35
60
72
84
10
81
85
66
61
88
58
63
62
69
39
16
83
52
30
67
49
47
76
25
2
57
64
87
14
71
45
19
53
36
79
27
42
9
34
4
29
40
78
48
43
56
12
11
44
74
17
38
82
37
23
3
8
31
6
50
33
28
55
22
73
77
51
46
5
24
41
26
20
18
32
54
7
21
15
13

>  <PUBCHEM_CONFORMER_ID>
0050976B00000001

>  <PUBCHEM_CONFORMER_RMSD>
0.8

>  <PUBCHEM_COORDINATE_TYPE>
2
5
10

>  <PUBCHEM_EFFECTIVE_ROTOR_COUNT>
5.2

>  <PUBCHEM_FEATURE_SELFOVERLAP>
101.615

>  <PUBCHEM_HEAVY_ATOM_COUNT>
33

>  <PUBCHEM_ISOTOPIC_ATOM_COUNT>
0

>  <PUBCHEM_MMFF94_ENERGY>
104.7486

>  <PUBCHEM_MMFF94_PARTIAL_CHARGES>
46
1 -0.56
10 -0.53
11 -0.53
12 -0.53
13 0.28
14 0.28
15 0.28
16 0.28
17 0.56
18 0.28
19 0.09
2 -0.36
20 0.05
21 0.47
22 0.09
23 0.08
24 0.03
25 0.08
26 -0.15
27 -0.15
28 -0.15
29 -0.15
3 -0.68
30 0.08
31 0.08
32 -0.15
33 0.08
4 -0.68
41 0.4
42 0.4
43 0.4
44 0.4
45 0.15
46 0.15
47 0.15
48 0.15
49 0.15
5 -0.68
50 0.45
51 0.45
52 0.45
53 0.45
6 -0.68
7 -0.16
8 -0.57
9 -0.53

>  <PUBCHEM_PHARMACOPHORE_FEATURES>
20
1 1 acceptor
1 10 donor
1 11 donor
1 12 donor
1 2 acceptor
1 3 acceptor
1 3 donor
1 4 acceptor
1 4 donor
1 5 acceptor
1 5 donor
1 6 acceptor
1 6 donor
1 7 acceptor
1 8 acceptor
1 9 donor
6 1 13 14 15 16 17 rings
6 22 23 25 26 29 30 rings
6 24 27 28 31 32 33 rings
6 7 19 20 21 22 23 rings

>  <PUBCHEM_SHAPE_FINGERPRINT>
10006869 2 18335973191630432171
10050765 1 18411138078758306218
10254770 206 17543629735110429114
10411042 1 18049726522484379307
10688039 33 18122628511688036570
1100329 8 18191865846011046165
11014199 57 18193559101690162847
11115154 58 17485060211102720839
11578080 2 16772653593855117074
12160290 23 18200008716930094571
12422481 6 18057344965791821347
12788726 201 18191291870106976058
13540713 4 18130787898074025568
1361 2 18337097987698836213
13690498 29 18198645374673823918
138480 1 16825304412646788035
13944108 23 17257933693666577220
140371 6 17616249621068240634
14068700 686 18053660567363316456
14508225 48 18194396925319104870
14790565 3 18196095438813983089
15131766 46 15504380113060768694
15463212 79 18262230015331414266
15484559 13 17837767833426351551
17357779 13 17982160420581768986
1813 80 17767144346333510902
19591789 44 18267018367185251353
20101258 96 18119543264584813442
20775438 99 17766234985840219669
21033648 144 18343867719350468664
21033648 29 18339635629996413648
21307412 95 17843144519371973382
21641784 216 18048331221354704092
21703447 108 18196922482976566226
23227448 37 18412825798245716428
23559900 14 18201999920346542688
238 59 17688559707949800469
3298306 158 18050845511872374654
3610482 184 17969243217130771598
38695281 34 18051131393374722297
4058900 60 17977675212157126569
44062 13 18341619213703054494
508706 21 18341040878859799886
59025328 239 17125891581249652975
7164475 11 18193562392178378628

>  <PUBCHEM_SHAPE_MULTIPOLES>
608.69
9.74
6.75
1.2
13.19
0.72
0.16
-1.42
2.09
-9.34
1.15
-0.24
0.37
0.55

>  <PUBCHEM_SHAPE_SELFOVERLAP>
1341.774

>  <PUBCHEM_SHAPE_VOLUME>
322.8

>  <RI>
-8.67556e+08

>  <Rbt.Current_Directory>
/root/miniconda3/envs/rdock/share/rxdock-2013.1.1_148c5bd1-0/data/ligands/prepped_ligands/Hyperoside

>  <Rbt.Executable>
rbdock/0.1.0

>  <Rbt.Library>
librxdock.so/0.1.0

>  <Rbt.Parameter_File>
/root/miniconda3/envs/rdock/share/rxdock-2013.1.1_148c5bd1-0/data/scripts/dock.prm

>  <Rbt.Receptor>
def.prm

>  <SCORE>
-7.28925

>  <SCORE.INTER>
-6.36338

>  <SCORE.INTER.CONST>
1

>  <SCORE.INTER.POLAR>
0

>  <SCORE.INTER.REPUL>
0

>  <SCORE.INTER.ROT>
4

>  <SCORE.INTER.VDW>
-15.7634

>  <SCORE.INTER.norm>
-0.19283

>  <SCORE.INTRA>
0.0811616

>  <SCORE.INTRA.DIHEDRAL>
-1.38988

>  <SCORE.INTRA.DIHEDRAL.0>
13.4636

>  <SCORE.INTRA.POLAR>
0.0835962

>  <SCORE.INTRA.POLAR.0>
-0.250933

>  <SCORE.INTRA.REPUL>
0

>  <SCORE.INTRA.REPUL.0>
0

>  <SCORE.INTRA.VDW>
0.491873

>  <SCORE.INTRA.VDW.0>
-3.21539

>  <SCORE.INTRA.norm>
0.00245944

>  <SCORE.RESTR>
0

>  <SCORE.RESTR.CAVITY>
0

>  <SCORE.RESTR.norm>
0

>  <SCORE.SYSTEM>
-1.00703

>  <SCORE.SYSTEM.CONST>
0

>  <SCORE.SYSTEM.DIHEDRAL>
0.118402

>  <SCORE.SYSTEM.POLAR>
-0.0150033

>  <SCORE.SYSTEM.VDW>
-1.01522

>  <SCORE.SYSTEM.norm>
-0.030516

>  <SCORE.heavy>
33

>  <SCORE.norm>
-0.220886

$$$$
5281643
  RxDock  02242101243D
librxdock.so/0.1.0
 41 44  0  0  0  0  0  0  0  0999 V2000
  -49.9893   -2.1210   15.6277 O   0  0  0  0  0  0
  -50.4106   -1.3594   17.7937 O   0  0  0  0  0  0
  -53.7455   -3.8461   15.4224 O   0  0  0  0  0  0
  -52.1769   -2.2283   13.7941 O   0  0  0  0  0  0
  -52.5846   -3.1776   17.9858 O   0  0  0  0  0  0
  -47.9693   -2.8712   13.6718 O   0  0  0  0  0  0
  -46.8407   -1.9246   18.5172 O   0  0  0  0  0  0
  -49.4078    1.2144   18.1170 O   0  0  0  0  0  0
  -47.4538    2.8820   18.6049 O   0  0  0  0  0  0
  -43.1898    0.9664   19.4368 O   0  0  0  0  0  0
  -50.6238   -6.0402   19.7330 O   0  0  0  0  0  0
  -49.5360   -7.5520   17.6705 O   0  0  0  0  0  0
  -52.3431   -3.7582   15.6589 C   0  0  0  0  0  0
  -51.6111   -3.4113   14.3621 C   0  0  0  0  0  0
  -52.0800   -2.7066   16.7362 C   0  0  0  0  0  0
  -50.1271   -3.1640   14.6547 C   0  0  0  0  0  0
  -50.5792   -2.4474   16.8854 C   0  0  0  0  0  0
  -49.3550   -2.7333   13.4132 C   0  0  0  0  0  0
  -49.0799   -1.1302   18.0682 C   0  0  0  0  0  0
  -48.1778   -2.1188   18.2090 C   0  0  0  0  0  0
  -48.6334    0.2741   18.2331 C   0  0  0  0  0  0
  -47.2101    0.4742   18.5460 C   0  0  0  0  0  0
  -46.3850   -0.6409   18.6726 C   0  0  0  0  0  0
  -48.5351   -3.5419   18.0711 C   0  0  0  0  0  0
  -46.6902    1.7597   18.7167 C   0  0  0  0  0  0
  -45.0319   -0.4776   18.9714 C   0  0  0  0  0  0
  -49.4207   -4.1299   18.9747 C   0  0  0  0  0  0
  -47.9882   -4.3016   17.0368 C   0  0  0  0  0  0
  -45.3366    1.9206   19.0153 C   0  0  0  0  0  0
  -44.5088    0.8043   19.1424 C   0  0  0  0  0  0
  -49.7592   -5.4768   18.8439 C   0  0  0  0  0  0
  -48.3267   -5.6485   16.9061 C   0  0  0  0  0  0
  -49.2122   -6.2362   17.8096 C   0  0  0  0  0  0
  -53.8833   -4.5189   14.7339 H   0  0  0  0  0  0
  -53.0926   -2.4374   13.5423 H   0  0  0  0  0  0
  -53.5540   -3.1152   17.9433 H   0  0  0  0  0  0
  -47.7724   -3.8224   13.7223 H   0  0  0  0  0  0
  -47.0452    3.6208   19.0813 H   0  0  0  0  0  0
  -42.9843    1.9170   19.4514 H   0  0  0  0  0  0
  -50.7691   -6.9665   19.4732 H   0  0  0  0  0  0
  -48.9824   -7.9423   16.9726 H   0  0  0  0  0  0
  1 16  1  0  0  0
  1 17  1  0  0  0
  2 17  1  0  0  0
  2 19  1  0  0  0
  3 13  1  0  0  0
  3 34  1  0  0  0
  4 14  1  0  0  0
  4 35  1  0  0  0
  5 15  1  0  0  0
  5 36  1  0  0  0
  6 18  1  0  0  0
  6 37  1  0  0  0
  7 20  1  0  0  0
  7 23  1  0  0  0
  8 21  2  0  0  0
  9 25  1  0  0  0
  9 38  1  0  0  0
 10 30  1  0  0  0
 10 39  1  0  0  0
 11 31  1  0  0  0
 11 40  1  0  0  0
 12 33  1  0  0  0
 12 41  1  0  0  0
 13 14  1  0  0  0
 13 15  1  0  0  0
 14 16  1  0  0  0
 15 17  1  0  0  0
 16 18  1  0  0  0
 19 20  2  0  0  0
 19 21  1  0  0  0
 20 24  1  0  0  0
 21 22  1  0  0  0
 22 23  1  0  0  0
 22 25  2  0  0  0
 23 26  2  0  0  0
 24 27  2  0  0  0
 24 28  1  0  0  0
 25 29  1  0  0  0
 26 30  1  0  0  0
 27 31  1  0  0  0
 28 32  2  0  0  0
 29 30  2  0  0  0
 31 33  2  0  0  0
 32 33  1  0  0  0
M  END
>  <CHROM.0>
-55.79091591,63.72982541,-179.64038884

>  <CHROM.1>
-63.85093809,-37.87611321,57.67771660,-65.02495256,-73.61238595,69.73380147
157.55309942,175.59249507,177.96535094,-173.07485599,74.44374150,114.64005308
-49.00251182,-2.22879039,17.31893721,2.55677297,0.63827350,2.86789425

>  <Name>
5281643

>  <PUBCHEM_ATOM_DEF_STEREO_COUNT>
5

>  <PUBCHEM_ATOM_UDEF_STEREO_COUNT>
0

>  <PUBCHEM_BOND_DEF_STEREO_COUNT>
0

>  <PUBCHEM_BOND_UDEF_STEREO_COUNT>
0

>  <PUBCHEM_CACTVS_TAUTO_COUNT>
162

>  <PUBCHEM_COMPONENT_COUNT>
1

>  <PUBCHEM_COMPOUND_CID>
5281643

>  <PUBCHEM_CONFORMER_DIVERSEORDER>
1
86
59
70
75
65
68
80
35
60
72
84
10
81
85
66
61
88
58
63
62
69
39
16
83
52
30
67
49
47
76
25
2
57
64
87
14
71
45
19
53
36
79
27
42
9
34
4
29
40
78
48
43
56
12
11
44
74
17
38
82
37
23
3
8
31
6
50
33
28
55
22
73
77
51
46
5
24
41
26
20
18
32
54
7
21
15
13

>  <PUBCHEM_CONFORMER_ID>
0050976B00000001

>  <PUBCHEM_CONFORMER_RMSD>
0.8

>  <PUBCHEM_COORDINATE_TYPE>
2
5
10

>  <PUBCHEM_EFFECTIVE_ROTOR_COUNT>
5.2

>  <PUBCHEM_FEATURE_SELFOVERLAP>
101.615

>  <PUBCHEM_HEAVY_ATOM_COUNT>
33

>  <PUBCHEM_ISOTOPIC_ATOM_COUNT>
0

>  <PUBCHEM_MMFF94_ENERGY>
104.7486

>  <PUBCHEM_MMFF94_PARTIAL_CHARGES>
46
1 -0.56
10 -0.53
11 -0.53
12 -0.53
13 0.28
14 0.28
15 0.28
16 0.28
17 0.56
18 0.28
19 0.09
2 -0.36
20 0.05
21 0.47
22 0.09
23 0.08
24 0.03
25 0.08
26 -0.15
27 -0.15
28 -0.15
29 -0.15
3 -0.68
30 0.08
31 0.08
32 -0.15
33 0.08
4 -0.68
41 0.4
42 0.4
43 0.4
44 0.4
45 0.15
46 0.15
47 0.15
48 0.15
49 0.15
5 -0.68
50 0.45
51 0.45
52 0.45
53 0.45
6 -0.68
7 -0.16
8 -0.57
9 -0.53

>  <PUBCHEM_PHARMACOPHORE_FEATURES>
20
1 1 acceptor
1 10 donor
1 11 donor
1 12 donor
1 2 acceptor
1 3 acceptor
1 3 donor
1 4 acceptor
1 4 donor
1 5 acceptor
1 5 donor
1 6 acceptor
1 6 donor
1 7 acceptor
1 8 acceptor
1 9 donor
6 1 13 14 15 16 17 rings
6 22 23 25 26 29 30 rings
6 24 27 28 31 32 33 rings
6 7 19 20 21 22 23 rings

>  <PUBCHEM_SHAPE_FINGERPRINT>
10006869 2 18335973191630432171
10050765 1 18411138078758306218
10254770 206 17543629735110429114
10411042 1 18049726522484379307
10688039 33 18122628511688036570
1100329 8 18191865846011046165
11014199 57 18193559101690162847
11115154 58 17485060211102720839
11578080 2 16772653593855117074
12160290 23 18200008716930094571
12422481 6 18057344965791821347
12788726 201 18191291870106976058
13540713 4 18130787898074025568
1361 2 18337097987698836213
13690498 29 18198645374673823918
138480 1 16825304412646788035
13944108 23 17257933693666577220
140371 6 17616249621068240634
14068700 686 18053660567363316456
14508225 48 18194396925319104870
14790565 3 18196095438813983089
15131766 46 15504380113060768694
15463212 79 18262230015331414266
15484559 13 17837767833426351551
17357779 13 17982160420581768986
1813 80 17767144346333510902
19591789 44 18267018367185251353
20101258 96 18119543264584813442
20775438 99 17766234985840219669
21033648 144 18343867719350468664
21033648 29 18339635629996413648
21307412 95 17843144519371973382
21641784 216 18048331221354704092
21703447 108 18196922482976566226
23227448 37 18412825798245716428
23559900 14 18201999920346542688
238 59 17688559707949800469
3298306 158 18050845511872374654
3610482 184 17969243217130771598
38695281 34 18051131393374722297
4058900 60 17977675212157126569
44062 13 18341619213703054494
508706 21 18341040878859799886
59025328 239 17125891581249652975
7164475 11 18193562392178378628

>  <PUBCHEM_SHAPE_MULTIPOLES>
608.69
9.74
6.75
1.2
13.19
0.72
0.16
-1.42
2.09
-9.34
1.15
-0.24
0.37
0.55

>  <PUBCHEM_SHAPE_SELFOVERLAP>
1341.774

>  <PUBCHEM_SHAPE_VOLUME>
322.8

>  <RI>
-8.67556e+08

>  <Rbt.Current_Directory>
/root/miniconda3/envs/rdock/share/rxdock-2013.1.1_148c5bd1-0/data/ligands/prepped_ligands/Hyperoside

>  <Rbt.Executable>
rbdock/0.1.0

>  <Rbt.Library>
librxdock.so/0.1.0

>  <Rbt.Parameter_File>
/root/miniconda3/envs/rdock/share/rxdock-2013.1.1_148c5bd1-0/data/scripts/dock.prm

>  <Rbt.Receptor>
def.prm

>  <SCORE>
-23.3131

>  <SCORE.INTER>
-23.7054

>  <SCORE.INTER.CONST>
1

>  <SCORE.INTER.POLAR>
-4.00094

>  <SCORE.INTER.REPUL>
0.170504

>  <SCORE.INTER.ROT>
4

>  <SCORE.INTER.VDW>
-20.3547

>  <SCORE.INTER.norm>
-0.718344

>  <SCORE.INTRA>
1.38773

>  <SCORE.INTRA.DIHEDRAL>
-4.65775

>  <SCORE.INTRA.DIHEDRAL.0>
13.4636

>  <SCORE.INTRA.POLAR>
0.0867303

>  <SCORE.INTRA.POLAR.0>
-0.250933

>  <SCORE.INTRA.REPUL>
0

>  <SCORE.INTRA.REPUL.0>
0

>  <SCORE.INTRA.VDW>
3.42172

>  <SCORE.INTRA.VDW.0>
-3.21539

>  <SCORE.INTRA.norm>
0.0420524

>  <SCORE.RESTR>
0.0293658

>  <SCORE.RESTR.CAVITY>
0.0293658

>  <SCORE.RESTR.norm>
0.000889874

>  <SCORE.SYSTEM>
-1.02481

>  <SCORE.SYSTEM.CONST>
0

>  <SCORE.SYSTEM.DIHEDRAL>
0.109109

>  <SCORE.SYSTEM.POLAR>
-0.00288659

>  <SCORE.SYSTEM.VDW>
-1.06955

>  <SCORE.SYSTEM.norm>
-0.0310548

>  <SCORE.heavy>
33

>  <SCORE.norm>
-0.706457

$$$$
5281643
  RxDock  02242101243D
librxdock.so/0.1.0
 41 44  0  0  0  0  0  0  0  0999 V2000
  -45.9672   -2.2125   17.3676 O   0  0  0  0  0  0
  -47.9993   -2.4820   16.2511 O   0  0  0  0  0  0
  -43.9607   -1.7938   13.7724 O   0  0  0  0  0  0
  -44.0239   -0.4657   16.2140 O   0  0  0  0  0  0
  -46.5822   -3.0135   13.8473 O   0  0  0  0  0  0
  -44.3108   -0.5100   18.7436 O   0  0  0  0  0  0
  -49.7453   -3.0712   19.4435 O   0  0  0  0  0  0
  -48.4652   -5.2237   16.2291 O   0  0  0  0  0  0
  -49.3992   -7.4114   17.3149 O   0  0  0  0  0  0
  -51.4789   -6.9513   21.5584 O   0  0  0  0  0  0
  -46.4291    1.3703   19.7155 O   0  0  0  0  0  0
  -48.5059    3.0902   19.0441 O   0  0  0  0  0  0
  -44.4971   -2.4508   14.9174 C   0  0  0  0  0  0
  -43.8680   -1.8860   16.1915 C   0  0  0  0  0  0
  -46.0154   -2.2775   14.9312 C   0  0  0  0  0  0
  -44.5611   -2.4837   17.4209 C   0  0  0  0  0  0
  -46.6092   -2.8050   16.2393 C   0  0  0  0  0  0
  -44.0337   -1.8989   18.7257 C   0  0  0  0  0  0
  -48.6572   -3.1127   17.2846 C   0  0  0  0  0  0
  -49.1097   -2.4631   18.3727 C   0  0  0  0  0  0
  -48.8550   -4.5794   17.1937 C   0  0  0  0  0  0
  -49.5429   -5.2169   18.3268 C   0  0  0  0  0  0
  -49.9533   -4.4256   19.3973 C   0  0  0  0  0  0
  -48.9486   -1.0090   18.5504 C   0  0  0  0  0  0
  -49.7809   -6.5936   18.3350 C   0  0  0  0  0  0
  -50.6056   -5.0070   20.4851 C   0  0  0  0  0  0
  -47.7530   -0.4956   19.0539 C   0  0  0  0  0  0
  -49.9914   -0.1452   18.2148 C   0  0  0  0  0  0
  -50.4337   -7.1727   19.4240 C   0  0  0  0  0  0
  -50.8453   -6.3812   20.4971 C   0  0  0  0  0  0
  -47.6004    0.8808   19.2217 C   0  0  0  0  0  0
  -49.8388    1.2312   18.3827 C   0  0  0  0  0  0
  -48.6433    1.7442   18.8861 C   0  0  0  0  0  0
  -43.0009   -1.9504   13.7695 H   0  0  0  0  0  0
  -43.6257   -0.1177   15.3979 H   0  0  0  0  0  0
  -47.5469   -2.9060   13.9035 H   0  0  0  0  0  0
  -43.8390   -0.1254   19.5022 H   0  0  0  0  0  0
  -48.7418   -6.9721   16.7541 H   0  0  0  0  0  0
  -51.8036   -7.8302   21.2970 H   0  0  0  0  0  0
  -45.7486    0.6804   19.6287 H   0  0  0  0  0  0
  -47.6428    3.2747   19.4529 H   0  0  0  0  0  0
  1 16  1  0  0  0
  1 17  1  0  0  0
  2 17  1  0  0  0
  2 19  1  0  0  0
  3 13  1  0  0  0
  3 34  1  0  0  0
  4 14  1  0  0  0
  4 35  1  0  0  0
  5 15  1  0  0  0
  5 36  1  0  0  0
  6 18  1  0  0  0
  6 37  1  0  0  0
  7 20  1  0  0  0
  7 23  1  0  0  0
  8 21  2  0  0  0
  9 25  1  0  0  0
  9 38  1  0  0  0
 10 30  1  0  0  0
 10 39  1  0  0  0
 11 31  1  0  0  0
 11 40  1  0  0  0
 12 33  1  0  0  0
 12 41  1  0  0  0
 13 14  1  0  0  0
 13 15  1  0  0  0
 14 16  1  0  0  0
 15 17  1  0  0  0
 16 18  1  0  0  0
 19 20  2  0  0  0
 19 21  1  0  0  0
 20 24  1  0  0  0
 21 22  1  0  0  0
 22 23  1  0  0  0
 22 25  2  0  0  0
 23 26  2  0  0  0
 24 27  2  0  0  0
 24 28  1  0  0  0
 25 29  1  0  0  0
 26 30  1  0  0  0
 27 31  1  0  0  0
 28 32  2  0  0  0
 29 30  2  0  0  0
 31 33  2  0  0  0
 32 33  1  0  0  0
M  END
>  <CHROM.0>
60.43447584,-63.07600821,-178.08594792

>  <CHROM.1>
-69.09250998,108.14801265,60.04126714,-56.34615441,178.14392508,-170.46068746
16.72420223,162.85957479,17.38311727,-3.53394750,-58.50046462,95.79975305
-47.68478614,-2.54434147,17.81272639,-0.62189416,-0.69786231,-2.81332609

>  <Name>
5281643

>  <PUBCHEM_ATOM_DEF_STEREO_COUNT>
5

>  <PUBCHEM_ATOM_UDEF_STEREO_COUNT>
0

>  <PUBCHEM_BOND_DEF_STEREO_COUNT>
0

>  <PUBCHEM_BOND_UDEF_STEREO_COUNT>
0

>  <PUBCHEM_CACTVS_TAUTO_COUNT>
162

>  <PUBCHEM_COMPONENT_COUNT>
1

>  <PUBCHEM_COMPOUND_CID>
5281643

>  <PUBCHEM_CONFORMER_DIVERSEORDER>
1
86
59
70
75
65
68
80
35
60
72
84
10
81
85
66
61
88
58
63
62
69
39
16
83
52
30
67
49
47
76
25
2
57
64
87
14
71
45
19
53
36
79
27
42
9
34
4
29
40
78
48
43
56
12
11
44
74
17
38
82
37
23
3
8
31
6
50
33
28
55
22
73
77
51
46
5
24
41
26
20
18
32
54
7
21
15
13

>  <PUBCHEM_CONFORMER_ID>
0050976B00000001

>  <PUBCHEM_CONFORMER_RMSD>
0.8

>  <PUBCHEM_COORDINATE_TYPE>
2
5
10

>  <PUBCHEM_EFFECTIVE_ROTOR_COUNT>
5.2

>  <PUBCHEM_FEATURE_SELFOVERLAP>
101.615

>  <PUBCHEM_HEAVY_ATOM_COUNT>
33

>  <PUBCHEM_ISOTOPIC_ATOM_COUNT>
0

>  <PUBCHEM_MMFF94_ENERGY>
104.7486

>  <PUBCHEM_MMFF94_PARTIAL_CHARGES>
46
1 -0.56
10 -0.53
11 -0.53
12 -0.53
13 0.28
14 0.28
15 0.28
16 0.28
17 0.56
18 0.28
19 0.09
2 -0.36
20 0.05
21 0.47
22 0.09
23 0.08
24 0.03
25 0.08
26 -0.15
27 -0.15
28 -0.15
29 -0.15
3 -0.68
30 0.08
31 0.08
32 -0.15
33 0.08
4 -0.68
41 0.4
42 0.4
43 0.4
44 0.4
45 0.15
46 0.15
47 0.15
48 0.15
49 0.15
5 -0.68
50 0.45
51 0.45
52 0.45
53 0.45
6 -0.68
7 -0.16
8 -0.57
9 -0.53

>  <PUBCHEM_PHARMACOPHORE_FEATURES>
20
1 1 acceptor
1 10 donor
1 11 donor
1 12 donor
1 2 acceptor
1 3 acceptor
1 3 donor
1 4 acceptor
1 4 donor
1 5 acceptor
1 5 donor
1 6 acceptor
1 6 donor
1 7 acceptor
1 8 acceptor
1 9 donor
6 1 13 14 15 16 17 rings
6 22 23 25 26 29 30 rings
6 24 27 28 31 32 33 rings
6 7 19 20 21 22 23 rings

>  <PUBCHEM_SHAPE_FINGERPRINT>
10006869 2 18335973191630432171
10050765 1 18411138078758306218
10254770 206 17543629735110429114
10411042 1 18049726522484379307
10688039 33 18122628511688036570
1100329 8 18191865846011046165
11014199 57 18193559101690162847
11115154 58 17485060211102720839
11578080 2 16772653593855117074
12160290 23 18200008716930094571
12422481 6 18057344965791821347
12788726 201 18191291870106976058
13540713 4 18130787898074025568
1361 2 18337097987698836213
13690498 29 18198645374673823918
138480 1 16825304412646788035
13944108 23 17257933693666577220
140371 6 17616249621068240634
14068700 686 18053660567363316456
14508225 48 18194396925319104870
14790565 3 18196095438813983089
15131766 46 15504380113060768694
15463212 79 18262230015331414266
15484559 13 17837767833426351551
17357779 13 17982160420581768986
1813 80 17767144346333510902
19591789 44 18267018367185251353
20101258 96 18119543264584813442
20775438 99 17766234985840219669
21033648 144 18343867719350468664
21033648 29 18339635629996413648
21307412 95 17843144519371973382
21641784 216 18048331221354704092
21703447 108 18196922482976566226
23227448 37 18412825798245716428
23559900 14 18201999920346542688
238 59 17688559707949800469
3298306 158 18050845511872374654
3610482 184 17969243217130771598
38695281 34 18051131393374722297
4058900 60 17977675212157126569
44062 13 18341619213703054494
508706 21 18341040878859799886
59025328 239 17125891581249652975
7164475 11 18193562392178378628

>  <PUBCHEM_SHAPE_MULTIPOLES>
608.69
9.74
6.75
1.2
13.19
0.72
0.16
-1.42
2.09
-9.34
1.15
-0.24
0.37
0.55

>  <PUBCHEM_SHAPE_SELFOVERLAP>
1341.774

>  <PUBCHEM_SHAPE_VOLUME>
322.8

>  <RI>
-8.67556e+08

>  <Rbt.Current_Directory>
/root/miniconda3/envs/rdock/share/rxdock-2013.1.1_148c5bd1-0/data/ligands/prepped_ligands/Hyperoside

>  <Rbt.Executable>
rbdock/0.1.0

>  <Rbt.Library>
librxdock.so/0.1.0

>  <Rbt.Parameter_File>
/root/miniconda3/envs/rdock/share/rxdock-2013.1.1_148c5bd1-0/data/scripts/dock.prm

>  <Rbt.Receptor>
def.prm

>  <SCORE>
-15.6121

>  <SCORE.INTER>
-11.1243

>  <SCORE.INTER.CONST>
1

>  <SCORE.INTER.POLAR>
-0.87178

>  <SCORE.INTER.REPUL>
0.0276572

>  <SCORE.INTER.ROT>
4

>  <SCORE.INTER.VDW>
-17.6985

>  <SCORE.INTER.norm>
-0.337099

>  <SCORE.INTRA>
-3.39497

>  <SCORE.INTRA.DIHEDRAL>
-2.1916

>  <SCORE.INTRA.DIHEDRAL.0>
13.4636

>  <SCORE.INTRA.POLAR>
-0.906741

>  <SCORE.INTRA.POLAR.0>
-0.250933

>  <SCORE.INTRA.REPUL>
0

>  <SCORE.INTRA.REPUL.0>
0

>  <SCORE.INTRA.VDW>
0.78375

>  <SCORE.INTRA.VDW.0>
-3.21539

>  <SCORE.INTRA.norm>
-0.102878

>  <SCORE.RESTR>
0

>  <SCORE.RESTR.CAVITY>
0

>  <SCORE.RESTR.norm>
0

>  <SCORE.SYSTEM>
-1.09285

>  <SCORE.SYSTEM.CONST>
0

>  <SCORE.SYSTEM.DIHEDRAL>
0.05441

>  <SCORE.SYSTEM.POLAR>
-0.00644865

>  <SCORE.SYSTEM.VDW>
-1.09813

>  <SCORE.SYSTEM.norm>
-0.0331167

>  <SCORE.heavy>
33

>  <SCORE.norm>
-0.473094

$$$$
