5281643
  RxDock  02242113013D
librxdock.so/0.1.0
 41 44  0  0  0  0  0  0  0  0999 V2000
  -49.1530   -1.6034   17.4712 O   0  0  0  0  0  0
  -48.3759   -3.4546   16.2804 O   0  0  0  0  0  0
  -45.2773   -0.4340   18.3305 O   0  0  0  0  0  0
  -47.5939    0.7889   17.3995 O   0  0  0  0  0  0
  -45.8343   -3.1517   17.5125 O   0  0  0  0  0  0
  -50.2877    0.7730   17.2648 O   0  0  0  0  0  0
  -51.8711   -3.2300   15.1315 O   0  0  0  0  0  0
  -49.5801   -5.6674   17.4583 O   0  0  0  0  0  0
  -51.6564   -7.1887   17.9191 O   0  0  0  0  0  0
  -55.7397   -5.8763   15.8823 O   0  0  0  0  0  0
  -46.9205   -0.0010   13.9772 O   0  0  0  0  0  0
  -48.7365    1.6340   12.6539 O   0  0  0  0  0  0
  -46.5357   -1.0759   18.5168 C   0  0  0  0  0  0
  -47.6553   -0.0357   18.5650 C   0  0  0  0  0  0
  -46.7630   -2.0753   17.3831 C   0  0  0  0  0  0
  -49.0159   -0.7401   18.6068 C   0  0  0  0  0  0
  -48.1810   -2.6477   17.4414 C   0  0  0  0  0  0
  -50.1796    0.2435   18.5740 C   0  0  0  0  0  0
  -49.7084   -3.7443   16.0827 C   0  0  0  0  0  0
  -50.5207   -2.9856   15.3243 C   0  0  0  0  0  0
  -50.2698   -4.9400   16.7564 C   0  0  0  0  0  0
  -51.7003   -5.2021   16.5363 C   0  0  0  0  0  0
  -52.4291   -4.3289   15.7321 C   0  0  0  0  0  0
  -50.0502   -1.7759   14.6264 C   0  0  0  0  0  0
  -52.3230   -6.3061   17.1241 C   0  0  0  0  0  0
  -53.7880   -4.5544   15.5101 C   0  0  0  0  0  0
  -48.6931   -1.4523   14.6283 C   0  0  0  0  0  0
  -50.9616   -0.9539   13.9631 C   0  0  0  0  0  0
  -53.6821   -6.5296   16.9004 C   0  0  0  0  0  0
  -54.4135   -5.6557   16.0950 C   0  0  0  0  0  0
  -48.2477   -0.3074   13.9673 C   0  0  0  0  0  0
  -50.5162    0.1909   13.3022 C   0  0  0  0  0  0
  -49.1593    0.5142   13.3042 C   0  0  0  0  0  0
  -44.5943   -1.1263   18.3301 H   0  0  0  0  0  0
  -46.7108    1.1956   17.3788 H   0  0  0  0  0  0
  -45.9675   -3.7364   16.7471 H   0  0  0  0  0  0
  -49.4191    1.1368   17.0217 H   0  0  0  0  0  0
  -52.2176   -7.9514   18.1263 H   0  0  0  0  0  0
  -56.0120   -5.4074   15.0748 H   0  0  0  0  0  0
  -46.5258   -0.3244   13.1488 H   0  0  0  0  0  0
  -49.5094    2.1791   12.4267 H   0  0  0  0  0  0
  1 16  1  0  0  0
  1 17  1  0  0  0
  2 17  1  0  0  0
  2 19  1  0  0  0
  3 13  1  0  0  0
  3 34  1  0  0  0
  4 14  1  0  0  0
  4 35  1  0  0  0
  5 15  1  0  0  0
  5 36  1  0  0  0
  6 18  1  0  0  0
  6 37  1  0  0  0
  7 20  1  0  0  0
  7 23  1  0  0  0
  8 21  2  0  0  0
  9 25  1  0  0  0
  9 38  1  0  0  0
 10 30  1  0  0  0
 10 39  1  0  0  0
 11 31  1  0  0  0
 11 40  1  0  0  0
 12 33  1  0  0  0
 12 41  1  0  0  0
 13 14  1  0  0  0
 13 15  1  0  0  0
 14 16  1  0  0  0
 15 17  1  0  0  0
 16 18  1  0  0  0
 19 20  2  0  0  0
 19 21  1  0  0  0
 20 24  1  0  0  0
 21 22  1  0  0  0
 22 23  1  0  0  0
 22 25  2  0  0  0
 23 26  2  0  0  0
 24 27  2  0  0  0
 24 28  1  0  0  0
 25 29  1  0  0  0
 26 30  1  0  0  0
 27 31  1  0  0  0
 28 32  2  0  0  0
 29 30  2  0  0  0
 31 33  2  0  0  0
 32 33  1  0  0  0
M  END
>  <CHROM.0>
-172.04100009,-177.17860454,54.55083591

>  <CHROM.1>
-44.34565331,91.57001895,178.48559796,-57.67198705,-176.42460655,-53.92804615
-171.75244475,21.02129271,97.33368748,-167.48925390,-47.57950360,-174.67469222
-49.78681661,-2.42299320,16.28017294,-0.58859429,0.56193992,2.43996478

>  <Name>
5281643

>  <PUBCHEM_ATOM_DEF_STEREO_COUNT>
5

>  <PUBCHEM_ATOM_UDEF_STEREO_COUNT>
0

>  <PUBCHEM_BOND_DEF_STEREO_COUNT>
0

>  <PUBCHEM_BOND_UDEF_STEREO_COUNT>
0

>  <PUBCHEM_CACTVS_TAUTO_COUNT>
162

>  <PUBCHEM_COMPONENT_COUNT>
1

>  <PUBCHEM_COMPOUND_CID>
5281643

>  <PUBCHEM_CONFORMER_DIVERSEORDER>
1
86
59
70
75
65
68
80
35
60
72
84
10
81
85
66
61
88
58
63
62
69
39
16
83
52
30
67
49
47
76
25
2
57
64
87
14
71
45
19
53
36
79
27
42
9
34
4
29
40
78
48
43
56
12
11
44
74
17
38
82
37
23
3
8
31
6
50
33
28
55
22
73
77
51
46
5
24
41
26
20
18
32
54
7
21
15
13

>  <PUBCHEM_CONFORMER_ID>
0050976B00000001

>  <PUBCHEM_CONFORMER_RMSD>
0.8

>  <PUBCHEM_COORDINATE_TYPE>
2
5
10

>  <PUBCHEM_EFFECTIVE_ROTOR_COUNT>
5.2

>  <PUBCHEM_FEATURE_SELFOVERLAP>
101.615

>  <PUBCHEM_HEAVY_ATOM_COUNT>
33

>  <PUBCHEM_ISOTOPIC_ATOM_COUNT>
0

>  <PUBCHEM_MMFF94_ENERGY>
104.7486

>  <PUBCHEM_MMFF94_PARTIAL_CHARGES>
46
1 -0.56
10 -0.53
11 -0.53
12 -0.53
13 0.28
14 0.28
15 0.28
16 0.28
17 0.56
18 0.28
19 0.09
2 -0.36
20 0.05
21 0.47
22 0.09
23 0.08
24 0.03
25 0.08
26 -0.15
27 -0.15
28 -0.15
29 -0.15
3 -0.68
30 0.08
31 0.08
32 -0.15
33 0.08
4 -0.68
41 0.4
42 0.4
43 0.4
44 0.4
45 0.15
46 0.15
47 0.15
48 0.15
49 0.15
5 -0.68
50 0.45
51 0.45
52 0.45
53 0.45
6 -0.68
7 -0.16
8 -0.57
9 -0.53

>  <PUBCHEM_PHARMACOPHORE_FEATURES>
20
1 1 acceptor
1 10 donor
1 11 donor
1 12 donor
1 2 acceptor
1 3 acceptor
1 3 donor
1 4 acceptor
1 4 donor
1 5 acceptor
1 5 donor
1 6 acceptor
1 6 donor
1 7 acceptor
1 8 acceptor
1 9 donor
6 1 13 14 15 16 17 rings
6 22 23 25 26 29 30 rings
6 24 27 28 31 32 33 rings
6 7 19 20 21 22 23 rings

>  <PUBCHEM_SHAPE_FINGERPRINT>
10006869 2 18335973191630432171
10050765 1 18411138078758306218
10254770 206 17543629735110429114
10411042 1 18049726522484379307
10688039 33 18122628511688036570
1100329 8 18191865846011046165
11014199 57 18193559101690162847
11115154 58 17485060211102720839
11578080 2 16772653593855117074
12160290 23 18200008716930094571
12422481 6 18057344965791821347
12788726 201 18191291870106976058
13540713 4 18130787898074025568
1361 2 18337097987698836213
13690498 29 18198645374673823918
138480 1 16825304412646788035
13944108 23 17257933693666577220
140371 6 17616249621068240634
14068700 686 18053660567363316456
14508225 48 18194396925319104870
14790565 3 18196095438813983089
15131766 46 15504380113060768694
15463212 79 18262230015331414266
15484559 13 17837767833426351551
17357779 13 17982160420581768986
1813 80 17767144346333510902
19591789 44 18267018367185251353
20101258 96 18119543264584813442
20775438 99 17766234985840219669
21033648 144 18343867719350468664
21033648 29 18339635629996413648
21307412 95 17843144519371973382
21641784 216 18048331221354704092
21703447 108 18196922482976566226
23227448 37 18412825798245716428
23559900 14 18201999920346542688
238 59 17688559707949800469
3298306 158 18050845511872374654
3610482 184 17969243217130771598
38695281 34 18051131393374722297
4058900 60 17977675212157126569
44062 13 18341619213703054494
508706 21 18341040878859799886
59025328 239 17125891581249652975
7164475 11 18193562392178378628

>  <PUBCHEM_SHAPE_MULTIPOLES>
608.69
9.74
6.75
1.2
13.19
0.72
0.16
-1.42
2.09
-9.34
1.15
-0.24
0.37
0.55

>  <PUBCHEM_SHAPE_SELFOVERLAP>
1341.774

>  <PUBCHEM_SHAPE_VOLUME>
322.8

>  <RI>
-1.01143e+09

>  <Rbt.Current_Directory>
/root/miniconda3/envs/rdock/share/rxdock-2013.1.1_148c5bd1-0/data/ligands/prepped_ligands/Hyperoside

>  <Rbt.Executable>
rbdock/0.1.0

>  <Rbt.Library>
librxdock.so/0.1.0

>  <Rbt.Parameter_File>
/root/miniconda3/envs/rdock/share/rxdock-2013.1.1_148c5bd1-0/data/scripts/dock.prm

>  <Rbt.Receptor>
def.prm

>  <SCORE>
-25.3099

>  <SCORE.INTER>
-24.7425

>  <SCORE.INTER.CONST>
1

>  <SCORE.INTER.POLAR>
-3.64836

>  <SCORE.INTER.REPUL>
0.161995

>  <SCORE.INTER.ROT>
4

>  <SCORE.INTER.VDW>
-22.5481

>  <SCORE.INTER.norm>
-0.749773

>  <SCORE.INTRA>
0.364672

>  <SCORE.INTRA.DIHEDRAL>
-0.975766

>  <SCORE.INTRA.DIHEDRAL.0>
13.4636

>  <SCORE.INTRA.POLAR>
-0.541185

>  <SCORE.INTRA.POLAR.0>
-0.250933

>  <SCORE.INTRA.REPUL>
0.0174415

>  <SCORE.INTRA.REPUL.0>
0

>  <SCORE.INTRA.VDW>
2.60538

>  <SCORE.INTRA.VDW.0>
-3.21539

>  <SCORE.INTRA.norm>
0.0110507

>  <SCORE.RESTR>
0

>  <SCORE.RESTR.CAVITY>
0

>  <SCORE.RESTR.norm>
0

>  <SCORE.SYSTEM>
-0.93207

>  <SCORE.SYSTEM.CONST>
0

>  <SCORE.SYSTEM.DIHEDRAL>
0.26489

>  <SCORE.SYSTEM.VDW>
-1.06451

>  <SCORE.SYSTEM.norm>
-0.0282445

>  <SCORE.heavy>
33

>  <SCORE.norm>
-0.766966

$$$$
5281643
  RxDock  02242113013D
librxdock.so/0.1.0
 41 44  0  0  0  0  0  0  0  0999 V2000
  -50.8336   -3.8029   17.2948 O   0  0  0  0  0  0
  -49.8038   -5.3361   15.8673 O   0  0  0  0  0  0
  -54.5657   -5.3332   16.3693 O   0  0  0  0  0  0
  -53.1891   -4.6331   18.6809 O   0  0  0  0  0  0
  -52.3111   -5.8317   14.6276 O   0  0  0  0  0  0
  -50.3750   -1.5760   18.7606 O   0  0  0  0  0  0
  -46.7735   -4.5939   17.8303 O   0  0  0  0  0  0
  -48.7420   -3.1072   14.5871 O   0  0  0  0  0  0
  -46.9327   -1.2357   14.3396 O   0  0  0  0  0  0
  -43.4165   -1.2512   17.5302 O   0  0  0  0  0  0
  -49.1372   -9.8903   17.6607 O   0  0  0  0  0  0
  -49.5231   -9.6398   20.4012 O   0  0  0  0  0  0
  -53.4288   -4.4790   16.2800 C   0  0  0  0  0  0
  -53.2423   -3.7120   17.5896 C   0  0  0  0  0  0
  -52.1938   -5.3182   15.9544 C   0  0  0  0  0  0
  -51.9326   -2.9173   17.5429 C   0  0  0  0  0  0
  -50.9240   -4.4679   16.0354 C   0  0  0  0  0  0
  -51.6466   -2.1929   18.8530 C   0  0  0  0  0  0
  -48.6353   -4.7441   16.2949 C   0  0  0  0  0  0
  -47.9331   -5.1851   17.3546 C   0  0  0  0  0  0
  -48.1459   -3.5541   15.5579 C   0  0  0  0  0  0
  -46.9070   -2.9397   16.0590 C   0  0  0  0  0  0
  -46.2833   -3.4942   17.1743 C   0  0  0  0  0  0
  -48.3503   -6.3537   18.1497 C   0  0  0  0  0  0
  -46.3620   -1.8166   15.4314 C   0  0  0  0  0  0
  -45.1085   -2.9283   17.6704 C   0  0  0  0  0  0
  -48.5497   -7.5862   17.5271 C   0  0  0  0  0  0
  -48.5455   -6.2282   19.5253 C   0  0  0  0  0  0
  -45.1868   -1.2525   15.9292 C   0  0  0  0  0  0
  -44.5610   -1.8070   17.0465 C   0  0  0  0  0  0
  -48.9442   -8.6925   18.2798 C   0  0  0  0  0  0
  -48.9400   -7.3344   20.2779 C   0  0  0  0  0  0
  -49.1393   -8.5666   19.6552 C   0  0  0  0  0  0
  -55.3529   -4.7654   16.4291 H   0  0  0  0  0  0
  -52.4085   -5.1972   18.5459 H   0  0  0  0  0  0
  -51.6357   -6.5241   14.5293 H   0  0  0  0  0  0
  -49.7304   -2.2644   18.5226 H   0  0  0  0  0  0
  -46.3039   -1.2048   13.6025 H   0  0  0  0  0  0
  -43.0773   -1.8064   18.2532 H   0  0  0  0  0  0
  -48.9041  -10.5987   18.2856 H   0  0  0  0  0  0
  -50.0026  -10.2661   19.8320 H   0  0  0  0  0  0
  1 16  1  0  0  0
  1 17  1  0  0  0
  2 17  1  0  0  0
  2 19  1  0  0  0
  3 13  1  0  0  0
  3 34  1  0  0  0
  4 14  1  0  0  0
  4 35  1  0  0  0
  5 15  1  0  0  0
  5 36  1  0  0  0
  6 18  1  0  0  0
  6 37  1  0  0  0
  7 20  1  0  0  0
  7 23  1  0  0  0
  8 21  2  0  0  0
  9 25  1  0  0  0
  9 38  1  0  0  0
 10 30  1  0  0  0
 10 39  1  0  0  0
 11 31  1  0  0  0
 11 40  1  0  0  0
 12 33  1  0  0  0
 12 41  1  0  0  0
 13 14  1  0  0  0
 13 15  1  0  0  0
 14 16  1  0  0  0
 15 17  1  0  0  0
 16 18  1  0  0  0
 19 20  2  0  0  0
 19 21  1  0  0  0
 20 24  1  0  0  0
 21 22  1  0  0  0
 22 23  1  0  0  0
 22 25  2  0  0  0
 23 26  2  0  0  0
 24 27  2  0  0  0
 24 28  1  0  0  0
 25 29  1  0  0  0
 26 30  1  0  0  0
 27 31  1  0  0  0
 28 32  2  0  0  0
 29 30  2  0  0  0
 31 33  2  0  0  0
 32 33  1  0  0  0
M  END
>  <CHROM.0>
17.60914205,64.46306051,-166.82442210

>  <CHROM.1>
-41.86043023,113.88434929,66.99885876,62.74742836,-166.41128660,-54.91770272
-123.11953310,5.20099254,148.08755685,-26.01401810,54.43150135,-124.75989237
-49.19819710,-4.61159121,17.20598344,2.48736690,0.11160287,2.70817283

>  <Name>
5281643

>  <PUBCHEM_ATOM_DEF_STEREO_COUNT>
5

>  <PUBCHEM_ATOM_UDEF_STEREO_COUNT>
0

>  <PUBCHEM_BOND_DEF_STEREO_COUNT>
0

>  <PUBCHEM_BOND_UDEF_STEREO_COUNT>
0

>  <PUBCHEM_CACTVS_TAUTO_COUNT>
162

>  <PUBCHEM_COMPONENT_COUNT>
1

>  <PUBCHEM_COMPOUND_CID>
5281643

>  <PUBCHEM_CONFORMER_DIVERSEORDER>
1
86
59
70
75
65
68
80
35
60
72
84
10
81
85
66
61
88
58
63
62
69
39
16
83
52
30
67
49
47
76
25
2
57
64
87
14
71
45
19
53
36
79
27
42
9
34
4
29
40
78
48
43
56
12
11
44
74
17
38
82
37
23
3
8
31
6
50
33
28
55
22
73
77
51
46
5
24
41
26
20
18
32
54
7
21
15
13

>  <PUBCHEM_CONFORMER_ID>
0050976B00000001

>  <PUBCHEM_CONFORMER_RMSD>
0.8

>  <PUBCHEM_COORDINATE_TYPE>
2
5
10

>  <PUBCHEM_EFFECTIVE_ROTOR_COUNT>
5.2

>  <PUBCHEM_FEATURE_SELFOVERLAP>
101.615

>  <PUBCHEM_HEAVY_ATOM_COUNT>
33

>  <PUBCHEM_ISOTOPIC_ATOM_COUNT>
0

>  <PUBCHEM_MMFF94_ENERGY>
104.7486

>  <PUBCHEM_MMFF94_PARTIAL_CHARGES>
46
1 -0.56
10 -0.53
11 -0.53
12 -0.53
13 0.28
14 0.28
15 0.28
16 0.28
17 0.56
18 0.28
19 0.09
2 -0.36
20 0.05
21 0.47
22 0.09
23 0.08
24 0.03
25 0.08
26 -0.15
27 -0.15
28 -0.15
29 -0.15
3 -0.68
30 0.08
31 0.08
32 -0.15
33 0.08
4 -0.68
41 0.4
42 0.4
43 0.4
44 0.4
45 0.15
46 0.15
47 0.15
48 0.15
49 0.15
5 -0.68
50 0.45
51 0.45
52 0.45
53 0.45
6 -0.68
7 -0.16
8 -0.57
9 -0.53

>  <PUBCHEM_PHARMACOPHORE_FEATURES>
20
1 1 acceptor
1 10 donor
1 11 donor
1 12 donor
1 2 acceptor
1 3 acceptor
1 3 donor
1 4 acceptor
1 4 donor
1 5 acceptor
1 5 donor
1 6 acceptor
1 6 donor
1 7 acceptor
1 8 acceptor
1 9 donor
6 1 13 14 15 16 17 rings
6 22 23 25 26 29 30 rings
6 24 27 28 31 32 33 rings
6 7 19 20 21 22 23 rings

>  <PUBCHEM_SHAPE_FINGERPRINT>
10006869 2 18335973191630432171
10050765 1 18411138078758306218
10254770 206 17543629735110429114
10411042 1 18049726522484379307
10688039 33 18122628511688036570
1100329 8 18191865846011046165
11014199 57 18193559101690162847
11115154 58 17485060211102720839
11578080 2 16772653593855117074
12160290 23 18200008716930094571
12422481 6 18057344965791821347
12788726 201 18191291870106976058
13540713 4 18130787898074025568
1361 2 18337097987698836213
13690498 29 18198645374673823918
138480 1 16825304412646788035
13944108 23 17257933693666577220
140371 6 17616249621068240634
14068700 686 18053660567363316456
14508225 48 18194396925319104870
14790565 3 18196095438813983089
15131766 46 15504380113060768694
15463212 79 18262230015331414266
15484559 13 17837767833426351551
17357779 13 17982160420581768986
1813 80 17767144346333510902
19591789 44 18267018367185251353
20101258 96 18119543264584813442
20775438 99 17766234985840219669
21033648 144 18343867719350468664
21033648 29 18339635629996413648
21307412 95 17843144519371973382
21641784 216 18048331221354704092
21703447 108 18196922482976566226
23227448 37 18412825798245716428
23559900 14 18201999920346542688
238 59 17688559707949800469
3298306 158 18050845511872374654
3610482 184 17969243217130771598
38695281 34 18051131393374722297
4058900 60 17977675212157126569
44062 13 18341619213703054494
508706 21 18341040878859799886
59025328 239 17125891581249652975
7164475 11 18193562392178378628

>  <PUBCHEM_SHAPE_MULTIPOLES>
608.69
9.74
6.75
1.2
13.19
0.72
0.16
-1.42
2.09
-9.34
1.15
-0.24
0.37
0.55

>  <PUBCHEM_SHAPE_SELFOVERLAP>
1341.774

>  <PUBCHEM_SHAPE_VOLUME>
322.8

>  <RI>
-1.01143e+09

>  <Rbt.Current_Directory>
/root/miniconda3/envs/rdock/share/rxdock-2013.1.1_148c5bd1-0/data/ligands/prepped_ligands/Hyperoside

>  <Rbt.Executable>
rbdock/0.1.0

>  <Rbt.Library>
librxdock.so/0.1.0

>  <Rbt.Parameter_File>
/root/miniconda3/envs/rdock/share/rxdock-2013.1.1_148c5bd1-0/data/scripts/dock.prm

>  <Rbt.Receptor>
def.prm

>  <SCORE>
-11.7696

>  <SCORE.INTER>
-16.3832

>  <SCORE.INTER.CONST>
1

>  <SCORE.INTER.POLAR>
-1.95021

>  <SCORE.INTER.REPUL>
0.0715628

>  <SCORE.INTER.ROT>
4

>  <SCORE.INTER.VDW>
-19.5103

>  <SCORE.INTER.norm>
-0.496461

>  <SCORE.INTRA>
3.43864

>  <SCORE.INTRA.DIHEDRAL>
2.39089

>  <SCORE.INTRA.DIHEDRAL.0>
13.4636

>  <SCORE.INTRA.POLAR>
0.152045

>  <SCORE.INTRA.POLAR.0>
-0.250933

>  <SCORE.INTRA.REPUL>
0

>  <SCORE.INTRA.REPUL.0>
0

>  <SCORE.INTRA.VDW>
1.72624

>  <SCORE.INTRA.VDW.0>
-3.21539

>  <SCORE.INTRA.norm>
0.104201

>  <SCORE.RESTR>
0.0119699

>  <SCORE.RESTR.CAVITY>
0.0119699

>  <SCORE.RESTR.norm>
0.000362723

>  <SCORE.SYSTEM>
1.16297

>  <SCORE.SYSTEM.CONST>
0

>  <SCORE.SYSTEM.DIHEDRAL>
3.39842

>  <SCORE.SYSTEM.POLAR>
-0.0196246

>  <SCORE.SYSTEM.VDW>
-0.469521

>  <SCORE.SYSTEM.norm>
0.0352414

>  <SCORE.heavy>
33

>  <SCORE.norm>
-0.356655

$$$$
5281643
  RxDock  02242113013D
librxdock.so/0.1.0
 41 44  0  0  0  0  0  0  0  0999 V2000
  -49.6865   -2.3122   17.3074 O   0  0  0  0  0  0
  -48.5283   -4.2847   16.8423 O   0  0  0  0  0  0
  -46.1315   -0.2443   17.7688 O   0  0  0  0  0  0
  -48.5390    0.1545   16.4368 O   0  0  0  0  0  0
  -46.1723   -3.1316   17.9324 O   0  0  0  0  0  0
  -50.9518    0.9704   17.9339 O   0  0  0  0  0  0
  -51.6545   -4.1943   14.8915 O   0  0  0  0  0  0
  -50.0057   -6.3885   17.9033 O   0  0  0  0  0  0
  -52.1535   -7.8767   18.0027 O   0  0  0  0  0  0
  -55.6285   -6.7898   14.9553 O   0  0  0  0  0  0
  -50.6344    0.5420   13.4517 O   0  0  0  0  0  0
  -47.9369    0.4379   12.7921 O   0  0  0  0  0  0
  -47.2785   -1.0009   18.1461 C   0  0  0  0  0  0
  -48.5536   -0.2250   17.8145 C   0  0  0  0  0  0
  -47.2519   -2.3478   17.4246 C   0  0  0  0  0  0
  -49.7798   -1.1065   18.0764 C   0  0  0  0  0  0
  -48.5574   -3.1122   17.6555 C   0  0  0  0  0  0
  -51.0828   -0.4182   17.6877 C   0  0  0  0  0  0
  -49.7816   -4.6018   16.3656 C   0  0  0  0  0  0
  -50.3833   -3.9227   15.3718 C   0  0  0  0  0  0
  -50.5018   -5.7344   16.9958 C   0  0  0  0  0  0
  -51.8448   -6.0268   16.4720 C   0  0  0  0  0  0
  -52.3530   -5.2373   15.4429 C   0  0  0  0  0  0
  -49.7456   -2.7790   14.6955 C   0  0  0  0  0  0
  -52.6032   -7.0765   16.9963 C   0  0  0  0  0  0
  -53.6254   -5.4928   14.9306 C   0  0  0  0  0  0
  -50.4955   -1.6435   14.3880 C   0  0  0  0  0  0
  -48.3918   -2.8313   14.3629 C   0  0  0  0  0  0
  -53.8754   -7.3303   16.4821 C   0  0  0  0  0  0
  -54.3857   -6.5402   15.4513 C   0  0  0  0  0  0
  -49.8918   -0.5608   13.7482 C   0  0  0  0  0  0
  -47.7882   -1.7487   13.7231 C   0  0  0  0  0  0
  -48.5381   -0.6134   13.4158 C   0  0  0  0  0  0
  -46.1767   -0.1066   16.8071 H   0  0  0  0  0  0
  -48.5086   -0.6634   15.9116 H   0  0  0  0  0  0
  -46.1838   -3.9773   17.4528 H   0  0  0  0  0  0
  -50.8854    1.0938   18.8964 H   0  0  0  0  0  0
  -51.2807   -7.5839   18.3064 H   0  0  0  0  0  0
  -55.9811   -5.9730   14.5620 H   0  0  0  0  0  0
  -50.0678    1.1732   12.9751 H   0  0  0  0  0  0
  -47.0475    0.1691   12.5046 H   0  0  0  0  0  0
  1 16  1  0  0  0
  1 17  1  0  0  0
  2 17  1  0  0  0
  2 19  1  0  0  0
  3 13  1  0  0  0
  3 34  1  0  0  0
  4 14  1  0  0  0
  4 35  1  0  0  0
  5 15  1  0  0  0
  5 36  1  0  0  0
  6 18  1  0  0  0
  6 37  1  0  0  0
  7 20  1  0  0  0
  7 23  1  0  0  0
  8 21  2  0  0  0
  9 25  1  0  0  0
  9 38  1  0  0  0
 10 30  1  0  0  0
 10 39  1  0  0  0
 11 31  1  0  0  0
 11 40  1  0  0  0
 12 33  1  0  0  0
 12 41  1  0  0  0
 13 14  1  0  0  0
 13 15  1  0  0  0
 14 16  1  0  0  0
 15 17  1  0  0  0
 16 18  1  0  0  0
 19 20  2  0  0  0
 19 21  1  0  0  0
 20 24  1  0  0  0
 21 22  1  0  0  0
 22 23  1  0  0  0
 22 25  2  0  0  0
 23 26  2  0  0  0
 24 27  2  0  0  0
 24 28  1  0  0  0
 25 29  1  0  0  0
 26 30  1  0  0  0
 27 31  1  0  0  0
 28 32  2  0  0  0
 29 30  2  0  0  0
 31 33  2  0  0  0
 32 33  1  0  0  0
M  END
>  <CHROM.0>
61.95744498,63.84754845,169.82182028

>  <CHROM.1>
-24.05662242,74.84296953,-61.43960750,61.03287064,-179.91648238,-67.18318622
2.53528254,-24.52477875,-177.38478308,-170.37979676,-154.56401246,40.64622525
-50.09215353,-3.05506523,16.14877392,-0.67119364,0.65116144,2.46180733

>  <Name>
5281643

>  <PUBCHEM_ATOM_DEF_STEREO_COUNT>
5

>  <PUBCHEM_ATOM_UDEF_STEREO_COUNT>
0

>  <PUBCHEM_BOND_DEF_STEREO_COUNT>
0

>  <PUBCHEM_BOND_UDEF_STEREO_COUNT>
0

>  <PUBCHEM_CACTVS_TAUTO_COUNT>
162

>  <PUBCHEM_COMPONENT_COUNT>
1

>  <PUBCHEM_COMPOUND_CID>
5281643

>  <PUBCHEM_CONFORMER_DIVERSEORDER>
1
86
59
70
75
65
68
80
35
60
72
84
10
81
85
66
61
88
58
63
62
69
39
16
83
52
30
67
49
47
76
25
2
57
64
87
14
71
45
19
53
36
79
27
42
9
34
4
29
40
78
48
43
56
12
11
44
74
17
38
82
37
23
3
8
31
6
50
33
28
55
22
73
77
51
46
5
24
41
26
20
18
32
54
7
21
15
13

>  <PUBCHEM_CONFORMER_ID>
0050976B00000001

>  <PUBCHEM_CONFORMER_RMSD>
0.8

>  <PUBCHEM_COORDINATE_TYPE>
2
5
10

>  <PUBCHEM_EFFECTIVE_ROTOR_COUNT>
5.2

>  <PUBCHEM_FEATURE_SELFOVERLAP>
101.615

>  <PUBCHEM_HEAVY_ATOM_COUNT>
33

>  <PUBCHEM_ISOTOPIC_ATOM_COUNT>
0

>  <PUBCHEM_MMFF94_ENERGY>
104.7486

>  <PUBCHEM_MMFF94_PARTIAL_CHARGES>
46
1 -0.56
10 -0.53
11 -0.53
12 -0.53
13 0.28
14 0.28
15 0.28
16 0.28
17 0.56
18 0.28
19 0.09
2 -0.36
20 0.05
21 0.47
22 0.09
23 0.08
24 0.03
25 0.08
26 -0.15
27 -0.15
28 -0.15
29 -0.15
3 -0.68
30 0.08
31 0.08
32 -0.15
33 0.08
4 -0.68
41 0.4
42 0.4
43 0.4
44 0.4
45 0.15
46 0.15
47 0.15
48 0.15
49 0.15
5 -0.68
50 0.45
51 0.45
52 0.45
53 0.45
6 -0.68
7 -0.16
8 -0.57
9 -0.53

>  <PUBCHEM_PHARMACOPHORE_FEATURES>
20
1 1 acceptor
1 10 donor
1 11 donor
1 12 donor
1 2 acceptor
1 3 acceptor
1 3 donor
1 4 acceptor
1 4 donor
1 5 acceptor
1 5 donor
1 6 acceptor
1 6 donor
1 7 acceptor
1 8 acceptor
1 9 donor
6 1 13 14 15 16 17 rings
6 22 23 25 26 29 30 rings
6 24 27 28 31 32 33 rings
6 7 19 20 21 22 23 rings

>  <PUBCHEM_SHAPE_FINGERPRINT>
10006869 2 18335973191630432171
10050765 1 18411138078758306218
10254770 206 17543629735110429114
10411042 1 18049726522484379307
10688039 33 18122628511688036570
1100329 8 18191865846011046165
11014199 57 18193559101690162847
11115154 58 17485060211102720839
11578080 2 16772653593855117074
12160290 23 18200008716930094571
12422481 6 18057344965791821347
12788726 201 18191291870106976058
13540713 4 18130787898074025568
1361 2 18337097987698836213
13690498 29 18198645374673823918
138480 1 16825304412646788035
13944108 23 17257933693666577220
140371 6 17616249621068240634
14068700 686 18053660567363316456
14508225 48 18194396925319104870
14790565 3 18196095438813983089
15131766 46 15504380113060768694
15463212 79 18262230015331414266
15484559 13 17837767833426351551
17357779 13 17982160420581768986
1813 80 17767144346333510902
19591789 44 18267018367185251353
20101258 96 18119543264584813442
20775438 99 17766234985840219669
21033648 144 18343867719350468664
21033648 29 18339635629996413648
21307412 95 17843144519371973382
21641784 216 18048331221354704092
21703447 108 18196922482976566226
23227448 37 18412825798245716428
23559900 14 18201999920346542688
238 59 17688559707949800469
3298306 158 18050845511872374654
3610482 184 17969243217130771598
38695281 34 18051131393374722297
4058900 60 17977675212157126569
44062 13 18341619213703054494
508706 21 18341040878859799886
59025328 239 17125891581249652975
7164475 11 18193562392178378628

>  <PUBCHEM_SHAPE_MULTIPOLES>
608.69
9.74
6.75
1.2
13.19
0.72
0.16
-1.42
2.09
-9.34
1.15
-0.24
0.37
0.55

>  <PUBCHEM_SHAPE_SELFOVERLAP>
1341.774

>  <PUBCHEM_SHAPE_VOLUME>
322.8

>  <RI>
-1.01143e+09

>  <Rbt.Current_Directory>
/root/miniconda3/envs/rdock/share/rxdock-2013.1.1_148c5bd1-0/data/ligands/prepped_ligands/Hyperoside

>  <Rbt.Executable>
rbdock/0.1.0

>  <Rbt.Library>
librxdock.so/0.1.0

>  <Rbt.Parameter_File>
/root/miniconda3/envs/rdock/share/rxdock-2013.1.1_148c5bd1-0/data/scripts/dock.prm

>  <Rbt.Receptor>
def.prm

>  <SCORE>
-15.8015

>  <SCORE.INTER>
-18.3044

>  <SCORE.INTER.CONST>
1

>  <SCORE.INTER.POLAR>
-2.34459

>  <SCORE.INTER.REPUL>
0.148103

>  <SCORE.INTER.ROT>
4

>  <SCORE.INTER.VDW>
-20.4733

>  <SCORE.INTER.norm>
-0.554678

>  <SCORE.INTRA>
3.38269

>  <SCORE.INTRA.DIHEDRAL>
1.08916

>  <SCORE.INTRA.DIHEDRAL.0>
13.4636

>  <SCORE.INTRA.POLAR>
0.0746824

>  <SCORE.INTRA.POLAR.0>
-0.250933

>  <SCORE.INTRA.REPUL>
0

>  <SCORE.INTRA.REPUL.0>
0

>  <SCORE.INTRA.VDW>
2.58419

>  <SCORE.INTRA.VDW.0>
-3.21539

>  <SCORE.INTRA.norm>
0.102506

>  <SCORE.RESTR>
0

>  <SCORE.RESTR.CAVITY>
0

>  <SCORE.RESTR.norm>
0

>  <SCORE.SYSTEM>
-0.879771

>  <SCORE.SYSTEM.CONST>
0

>  <SCORE.SYSTEM.DIHEDRAL>
0.338525

>  <SCORE.SYSTEM.VDW>
-1.04903

>  <SCORE.SYSTEM.norm>
-0.0266597

>  <SCORE.heavy>
33

>  <SCORE.norm>
-0.478832

$$$$
5281643
  RxDock  02242113013D
librxdock.so/0.1.0
 41 44  0  0  0  0  0  0  0  0999 V2000
  -47.5755   -0.9676   18.1320 O   0  0  0  0  0  0
  -46.6486   -1.9034   16.2048 O   0  0  0  0  0  0
  -44.4094    1.6771   18.4618 O   0  0  0  0  0  0
  -47.1827    1.8243   18.5902 O   0  0  0  0  0  0
  -44.1523   -0.7142   16.8552 O   0  0  0  0  0  0
  -49.4589   -1.3532   20.1388 O   0  0  0  0  0  0
  -49.6528   -3.9581   15.6213 O   0  0  0  0  0  0
  -46.2137   -4.1401   17.7993 O   0  0  0  0  0  0
  -46.9358   -6.4641   18.7559 O   0  0  0  0  0  0
  -51.1175   -8.1586   17.2775 O   0  0  0  0  0  0
  -47.5259    0.7775   12.6634 O   0  0  0  0  0  0
  -50.2135    1.2632   12.1505 O   0  0  0  0  0  0
  -45.1680    0.4906   18.6791 C   0  0  0  0  0  0
  -46.4964    0.8314   19.3552 C   0  0  0  0  0  0
  -45.3970   -0.2117   17.3412 C   0  0  0  0  0  0
  -47.3709   -0.4243   19.4423 C   0  0  0  0  0  0
  -46.3643   -1.3863   17.5043 C   0  0  0  0  0  0
  -48.7449   -0.1344   20.0345 C   0  0  0  0  0  0
  -47.5542   -2.9406   16.2593 C   0  0  0  0  0  0
  -48.7062   -2.9475   15.5640 C   0  0  0  0  0  0
  -47.2453   -4.0907   17.1428 C   0  0  0  0  0  0
  -48.2471   -5.1666   17.1883 C   0  0  0  0  0  0
  -49.4038   -5.0429   16.4219 C   0  0  0  0  0  0
  -49.0977   -1.8433   14.6699 C   0  0  0  0  0  0
  -48.0476   -6.2952   17.9874 C   0  0  0  0  0  0
  -50.3704   -6.0487   16.4498 C   0  0  0  0  0  0
  -48.1194   -1.0429   14.0796 C   0  0  0  0  0  0
  -50.4469   -1.5982   14.4132 C   0  0  0  0  0  0
  -49.0157   -7.2999   18.0135 C   0  0  0  0  0  0
  -50.1748   -7.1772   17.2463 C   0  0  0  0  0  0
  -48.4900    0.0020   13.2329 C   0  0  0  0  0  0
  -50.8175   -0.5532   13.5667 C   0  0  0  0  0  0
  -49.8390    0.2468   12.9765 C   0  0  0  0  0  0
  -44.1786    2.0393   19.3343 H   0  0  0  0  0  0
  -47.3685    1.4395   17.7167 H   0  0  0  0  0  0
  -44.3380   -1.1754   16.0197 H   0  0  0  0  0  0
  -48.9485   -1.9448   20.7180 H   0  0  0  0  0  0
  -46.9378   -7.3407   19.1698 H   0  0  0  0  0  0
  -50.9214   -8.7611   18.0155 H   0  0  0  0  0  0
  -47.8325    1.0473   11.7803 H   0  0  0  0  0  0
  -49.4863    1.9063   12.0898 H   0  0  0  0  0  0
  1 16  1  0  0  0
  1 17  1  0  0  0
  2 17  1  0  0  0
  2 19  1  0  0  0
  3 13  1  0  0  0
  3 34  1  0  0  0
  4 14  1  0  0  0
  4 35  1  0  0  0
  5 15  1  0  0  0
  5 36  1  0  0  0
  6 18  1  0  0  0
  6 37  1  0  0  0
  7 20  1  0  0  0
  7 23  1  0  0  0
  8 21  2  0  0  0
  9 25  1  0  0  0
  9 38  1  0  0  0
 10 30  1  0  0  0
 10 39  1  0  0  0
 11 31  1  0  0  0
 11 40  1  0  0  0
 12 33  1  0  0  0
 12 41  1  0  0  0
 13 14  1  0  0  0
 13 15  1  0  0  0
 14 16  1  0  0  0
 15 17  1  0  0  0
 16 18  1  0  0  0
 19 20  2  0  0  0
 19 21  1  0  0  0
 20 24  1  0  0  0
 21 22  1  0  0  0
 22 23  1  0  0  0
 22 25  2  0  0  0
 23 26  2  0  0  0
 24 27  2  0  0  0
 24 28  1  0  0  0
 25 29  1  0  0  0
 26 30  1  0  0  0
 27 31  1  0  0  0
 28 32  2  0  0  0
 29 30  2  0  0  0
 31 33  2  0  0  0
 32 33  1  0  0  0
M  END
>  <CHROM.0>
-61.44061437,58.64682979,178.75240501

>  <CHROM.1>
-56.86263691,124.57932753,65.12448271,62.21623121,178.37490023,59.81868761
-174.57189495,-167.62764650,146.30727828,-20.81420265,61.87895849,-154.51369634
-48.00841918,-2.18908544,16.71773932,-1.04612327,0.92354775,2.56212842

>  <Name>
5281643

>  <PUBCHEM_ATOM_DEF_STEREO_COUNT>
5

>  <PUBCHEM_ATOM_UDEF_STEREO_COUNT>
0

>  <PUBCHEM_BOND_DEF_STEREO_COUNT>
0

>  <PUBCHEM_BOND_UDEF_STEREO_COUNT>
0

>  <PUBCHEM_CACTVS_TAUTO_COUNT>
162

>  <PUBCHEM_COMPONENT_COUNT>
1

>  <PUBCHEM_COMPOUND_CID>
5281643

>  <PUBCHEM_CONFORMER_DIVERSEORDER>
1
86
59
70
75
65
68
80
35
60
72
84
10
81
85
66
61
88
58
63
62
69
39
16
83
52
30
67
49
47
76
25
2
57
64
87
14
71
45
19
53
36
79
27
42
9
34
4
29
40
78
48
43
56
12
11
44
74
17
38
82
37
23
3
8
31
6
50
33
28
55
22
73
77
51
46
5
24
41
26
20
18
32
54
7
21
15
13

>  <PUBCHEM_CONFORMER_ID>
0050976B00000001

>  <PUBCHEM_CONFORMER_RMSD>
0.8

>  <PUBCHEM_COORDINATE_TYPE>
2
5
10

>  <PUBCHEM_EFFECTIVE_ROTOR_COUNT>
5.2

>  <PUBCHEM_FEATURE_SELFOVERLAP>
101.615

>  <PUBCHEM_HEAVY_ATOM_COUNT>
33

>  <PUBCHEM_ISOTOPIC_ATOM_COUNT>
0

>  <PUBCHEM_MMFF94_ENERGY>
104.7486

>  <PUBCHEM_MMFF94_PARTIAL_CHARGES>
46
1 -0.56
10 -0.53
11 -0.53
12 -0.53
13 0.28
14 0.28
15 0.28
16 0.28
17 0.56
18 0.28
19 0.09
2 -0.36
20 0.05
21 0.47
22 0.09
23 0.08
24 0.03
25 0.08
26 -0.15
27 -0.15
28 -0.15
29 -0.15
3 -0.68
30 0.08
31 0.08
32 -0.15
33 0.08
4 -0.68
41 0.4
42 0.4
43 0.4
44 0.4
45 0.15
46 0.15
47 0.15
48 0.15
49 0.15
5 -0.68
50 0.45
51 0.45
52 0.45
53 0.45
6 -0.68
7 -0.16
8 -0.57
9 -0.53

>  <PUBCHEM_PHARMACOPHORE_FEATURES>
20
1 1 acceptor
1 10 donor
1 11 donor
1 12 donor
1 2 acceptor
1 3 acceptor
1 3 donor
1 4 acceptor
1 4 donor
1 5 acceptor
1 5 donor
1 6 acceptor
1 6 donor
1 7 acceptor
1 8 acceptor
1 9 donor
6 1 13 14 15 16 17 rings
6 22 23 25 26 29 30 rings
6 24 27 28 31 32 33 rings
6 7 19 20 21 22 23 rings

>  <PUBCHEM_SHAPE_FINGERPRINT>
10006869 2 18335973191630432171
10050765 1 18411138078758306218
10254770 206 17543629735110429114
10411042 1 18049726522484379307
10688039 33 18122628511688036570
1100329 8 18191865846011046165
11014199 57 18193559101690162847
11115154 58 17485060211102720839
11578080 2 16772653593855117074
12160290 23 18200008716930094571
12422481 6 18057344965791821347
12788726 201 18191291870106976058
13540713 4 18130787898074025568
1361 2 18337097987698836213
13690498 29 18198645374673823918
138480 1 16825304412646788035
13944108 23 17257933693666577220
140371 6 17616249621068240634
14068700 686 18053660567363316456
14508225 48 18194396925319104870
14790565 3 18196095438813983089
15131766 46 15504380113060768694
15463212 79 18262230015331414266
15484559 13 17837767833426351551
17357779 13 17982160420581768986
1813 80 17767144346333510902
19591789 44 18267018367185251353
20101258 96 18119543264584813442
20775438 99 17766234985840219669
21033648 144 18343867719350468664
21033648 29 18339635629996413648
21307412 95 17843144519371973382
21641784 216 18048331221354704092
21703447 108 18196922482976566226
23227448 37 18412825798245716428
23559900 14 18201999920346542688
238 59 17688559707949800469
3298306 158 18050845511872374654
3610482 184 17969243217130771598
38695281 34 18051131393374722297
4058900 60 17977675212157126569
44062 13 18341619213703054494
508706 21 18341040878859799886
59025328 239 17125891581249652975
7164475 11 18193562392178378628

>  <PUBCHEM_SHAPE_MULTIPOLES>
608.69
9.74
6.75
1.2
13.19
0.72
0.16
-1.42
2.09
-9.34
1.15
-0.24
0.37
0.55

>  <PUBCHEM_SHAPE_SELFOVERLAP>
1341.774

>  <PUBCHEM_SHAPE_VOLUME>
322.8

>  <RI>
-1.01143e+09

>  <Rbt.Current_Directory>
/root/miniconda3/envs/rdock/share/rxdock-2013.1.1_148c5bd1-0/data/ligands/prepped_ligands/Hyperoside

>  <Rbt.Executable>
rbdock/0.1.0

>  <Rbt.Library>
librxdock.so/0.1.0

>  <Rbt.Parameter_File>
/root/miniconda3/envs/rdock/share/rxdock-2013.1.1_148c5bd1-0/data/scripts/dock.prm

>  <Rbt.Receptor>
def.prm

>  <SCORE>
-15.084

>  <SCORE.INTER>
-15.4636

>  <SCORE.INTER.CONST>
1

>  <SCORE.INTER.POLAR>
-1.21204

>  <SCORE.INTER.REPUL>
0.486611

>  <SCORE.INTER.ROT>
4

>  <SCORE.INTER.VDW>
-23.1757

>  <SCORE.INTER.norm>
-0.468595

>  <SCORE.INTRA>
1.33869

>  <SCORE.INTRA.DIHEDRAL>
-6.7254

>  <SCORE.INTRA.DIHEDRAL.0>
13.4636

>  <SCORE.INTRA.POLAR>
0.229254

>  <SCORE.INTRA.POLAR.0>
-0.250933

>  <SCORE.INTRA.REPUL>
0

>  <SCORE.INTRA.REPUL.0>
0

>  <SCORE.INTRA.VDW>
3.92192

>  <SCORE.INTRA.VDW.0>
-3.21539

>  <SCORE.INTRA.norm>
0.0405662

>  <SCORE.RESTR>
0.00429123

>  <SCORE.RESTR.CAVITY>
0.00429123

>  <SCORE.RESTR.norm>
0.000130037

>  <SCORE.SYSTEM>
-0.963403

>  <SCORE.SYSTEM.CONST>
0

>  <SCORE.SYSTEM.DIHEDRAL>
0.0202708

>  <SCORE.SYSTEM.VDW>
-0.973538

>  <SCORE.SYSTEM.norm>
-0.029194

>  <SCORE.heavy>
33

>  <SCORE.norm>
-0.457092

$$$$
5281643
  RxDock  02242113013D
librxdock.so/0.1.0
 41 44  0  0  0  0  0  0  0  0999 V2000
  -49.9172   -1.2109   18.5105 O   0  0  0  0  0  0
  -48.2073   -2.6402   17.8162 O   0  0  0  0  0  0
  -47.1562    1.5268   19.9277 O   0  0  0  0  0  0
  -49.4545    1.6040   18.3654 O   0  0  0  0  0  0
  -46.3820   -1.2215   19.4667 O   0  0  0  0  0  0
  -51.7396    0.8463   17.8671 O   0  0  0  0  0  0
  -50.9303   -3.9915   15.7314 O   0  0  0  0  0  0
  -49.1447   -4.7941   19.3051 O   0  0  0  0  0  0
  -50.7640   -6.8151   19.6668 O   0  0  0  0  0  0
  -53.9557   -7.6133   16.2435 O   0  0  0  0  0  0
  -46.5170   -0.3359   14.1808 O   0  0  0  0  0  0
  -48.4833    0.9522   12.6987 O   0  0  0  0  0  0
  -48.0661    0.4308   19.9596 C   0  0  0  0  0  0
  -49.4770    0.9075   19.6130 C   0  0  0  0  0  0
  -47.5935   -0.6436   18.9809 C   0  0  0  0  0  0
  -50.4169   -0.2974   19.4951 C   0  0  0  0  0  0
  -48.6401   -1.7519   18.8460 C   0  0  0  0  0  0
  -51.8245    0.1043   19.0706 C   0  0  0  0  0  0
  -49.2386   -3.4363   17.3674 C   0  0  0  0  0  0
  -49.8694   -3.2309   16.1967 C   0  0  0  0  0  0
  -49.6799   -4.5586   18.2301 C   0  0  0  0  0  0
  -50.7969   -5.3709   17.7242 C   0  0  0  0  0  0
  -51.3662   -5.0428   16.4959 C   0  0  0  0  0  0
  -49.5031   -2.1351   15.2818 C   0  0  0  0  0  0
  -51.2840   -6.4535   18.4610 C   0  0  0  0  0  0
  -52.4285   -5.7964   15.9955 C   0  0  0  0  0  0
  -48.1692   -1.7454   15.1583 C   0  0  0  0  0  0
  -50.4900   -1.4871   14.5386 C   0  0  0  0  0  0
  -52.3463   -7.2058   17.9584 C   0  0  0  0  0  0
  -52.9176   -6.8782   16.7280 C   0  0  0  0  0  0
  -47.8224   -0.7085   14.2920 C   0  0  0  0  0  0
  -50.1433   -0.4502   13.6724 C   0  0  0  0  0  0
  -48.8094   -0.0609   13.5490 C   0  0  0  0  0  0
  -47.2443    1.9536   19.0583 H   0  0  0  0  0  0
  -50.3623    1.9015   18.1835 H   0  0  0  0  0  0
  -46.5233   -1.4327   20.4052 H   0  0  0  0  0  0
  -52.6335    1.1649   17.6540 H   0  0  0  0  0  0
  -49.8904   -6.4148   19.7948 H   0  0  0  0  0  0
  -54.2059   -7.2679   15.3692 H   0  0  0  0  0  0
  -46.4531    0.3553   13.4991 H   0  0  0  0  0  0
  -49.2896    1.2627   12.2520 H   0  0  0  0  0  0
  1 16  1  0  0  0
  1 17  1  0  0  0
  2 17  1  0  0  0
  2 19  1  0  0  0
  3 13  1  0  0  0
  3 34  1  0  0  0
  4 14  1  0  0  0
  4 35  1  0  0  0
  5 15  1  0  0  0
  5 36  1  0  0  0
  6 18  1  0  0  0
  6 37  1  0  0  0
  7 20  1  0  0  0
  7 23  1  0  0  0
  8 21  2  0  0  0
  9 25  1  0  0  0
  9 38  1  0  0  0
 10 30  1  0  0  0
 10 39  1  0  0  0
 11 31  1  0  0  0
 11 40  1  0  0  0
 12 33  1  0  0  0
 12 41  1  0  0  0
 13 14  1  0  0  0
 13 15  1  0  0  0
 14 16  1  0  0  0
 15 17  1  0  0  0
 16 18  1  0  0  0
 19 20  2  0  0  0
 19 21  1  0  0  0
 20 24  1  0  0  0
 21 22  1  0  0  0
 22 23  1  0  0  0
 22 25  2  0  0  0
 23 26  2  0  0  0
 24 27  2  0  0  0
 24 28  1  0  0  0
 25 29  1  0  0  0
 26 30  1  0  0  0
 27 31  1  0  0  0
 28 32  2  0  0  0
 29 30  2  0  0  0
 31 33  2  0  0  0
 32 33  1  0  0  0
M  END
>  <CHROM.0>
60.69323787,-176.75827307,-58.83648876

>  <CHROM.1>
-41.89970163,104.10195231,-54.00971134,-179.26702482,47.76290652,-174.82893656
-16.97010612,2.16433605,176.51017484,178.38672274,-66.11436011,-145.92044474
-49.76537035,-2.31691244,17.23364742,-0.16727075,1.08612459,1.72238528

>  <Name>
5281643

>  <PUBCHEM_ATOM_DEF_STEREO_COUNT>
5

>  <PUBCHEM_ATOM_UDEF_STEREO_COUNT>
0

>  <PUBCHEM_BOND_DEF_STEREO_COUNT>
0

>  <PUBCHEM_BOND_UDEF_STEREO_COUNT>
0

>  <PUBCHEM_CACTVS_TAUTO_COUNT>
162

>  <PUBCHEM_COMPONENT_COUNT>
1

>  <PUBCHEM_COMPOUND_CID>
5281643

>  <PUBCHEM_CONFORMER_DIVERSEORDER>
1
86
59
70
75
65
68
80
35
60
72
84
10
81
85
66
61
88
58
63
62
69
39
16
83
52
30
67
49
47
76
25
2
57
64
87
14
71
45
19
53
36
79
27
42
9
34
4
29
40
78
48
43
56
12
11
44
74
17
38
82
37
23
3
8
31
6
50
33
28
55
22
73
77
51
46
5
24
41
26
20
18
32
54
7
21
15
13

>  <PUBCHEM_CONFORMER_ID>
0050976B00000001

>  <PUBCHEM_CONFORMER_RMSD>
0.8

>  <PUBCHEM_COORDINATE_TYPE>
2
5
10

>  <PUBCHEM_EFFECTIVE_ROTOR_COUNT>
5.2

>  <PUBCHEM_FEATURE_SELFOVERLAP>
101.615

>  <PUBCHEM_HEAVY_ATOM_COUNT>
33

>  <PUBCHEM_ISOTOPIC_ATOM_COUNT>
0

>  <PUBCHEM_MMFF94_ENERGY>
104.7486

>  <PUBCHEM_MMFF94_PARTIAL_CHARGES>
46
1 -0.56
10 -0.53
11 -0.53
12 -0.53
13 0.28
14 0.28
15 0.28
16 0.28
17 0.56
18 0.28
19 0.09
2 -0.36
20 0.05
21 0.47
22 0.09
23 0.08
24 0.03
25 0.08
26 -0.15
27 -0.15
28 -0.15
29 -0.15
3 -0.68
30 0.08
31 0.08
32 -0.15
33 0.08
4 -0.68
41 0.4
42 0.4
43 0.4
44 0.4
45 0.15
46 0.15
47 0.15
48 0.15
49 0.15
5 -0.68
50 0.45
51 0.45
52 0.45
53 0.45
6 -0.68
7 -0.16
8 -0.57
9 -0.53

>  <PUBCHEM_PHARMACOPHORE_FEATURES>
20
1 1 acceptor
1 10 donor
1 11 donor
1 12 donor
1 2 acceptor
1 3 acceptor
1 3 donor
1 4 acceptor
1 4 donor
1 5 acceptor
1 5 donor
1 6 acceptor
1 6 donor
1 7 acceptor
1 8 acceptor
1 9 donor
6 1 13 14 15 16 17 rings
6 22 23 25 26 29 30 rings
6 24 27 28 31 32 33 rings
6 7 19 20 21 22 23 rings

>  <PUBCHEM_SHAPE_FINGERPRINT>
10006869 2 18335973191630432171
10050765 1 18411138078758306218
10254770 206 17543629735110429114
10411042 1 18049726522484379307
10688039 33 18122628511688036570
1100329 8 18191865846011046165
11014199 57 18193559101690162847
11115154 58 17485060211102720839
11578080 2 16772653593855117074
12160290 23 18200008716930094571
12422481 6 18057344965791821347
12788726 201 18191291870106976058
13540713 4 18130787898074025568
1361 2 18337097987698836213
13690498 29 18198645374673823918
138480 1 16825304412646788035
13944108 23 17257933693666577220
140371 6 17616249621068240634
14068700 686 18053660567363316456
14508225 48 18194396925319104870
14790565 3 18196095438813983089
15131766 46 15504380113060768694
15463212 79 18262230015331414266
15484559 13 17837767833426351551
17357779 13 17982160420581768986
1813 80 17767144346333510902
19591789 44 18267018367185251353
20101258 96 18119543264584813442
20775438 99 17766234985840219669
21033648 144 18343867719350468664
21033648 29 18339635629996413648
21307412 95 17843144519371973382
21641784 216 18048331221354704092
21703447 108 18196922482976566226
23227448 37 18412825798245716428
23559900 14 18201999920346542688
238 59 17688559707949800469
3298306 158 18050845511872374654
3610482 184 17969243217130771598
38695281 34 18051131393374722297
4058900 60 17977675212157126569
44062 13 18341619213703054494
508706 21 18341040878859799886
59025328 239 17125891581249652975
7164475 11 18193562392178378628

>  <PUBCHEM_SHAPE_MULTIPOLES>
608.69
9.74
6.75
1.2
13.19
0.72
0.16
-1.42
2.09
-9.34
1.15
-0.24
0.37
0.55

>  <PUBCHEM_SHAPE_SELFOVERLAP>
1341.774

>  <PUBCHEM_SHAPE_VOLUME>
322.8

>  <RI>
-1.01143e+09

>  <Rbt.Current_Directory>
/root/miniconda3/envs/rdock/share/rxdock-2013.1.1_148c5bd1-0/data/ligands/prepped_ligands/Hyperoside

>  <Rbt.Executable>
rbdock/0.1.0

>  <Rbt.Library>
librxdock.so/0.1.0

>  <Rbt.Parameter_File>
/root/miniconda3/envs/rdock/share/rxdock-2013.1.1_148c5bd1-0/data/scripts/dock.prm

>  <Rbt.Receptor>
def.prm

>  <SCORE>
-13.8716

>  <SCORE.INTER>
-12.9729

>  <SCORE.INTER.CONST>
1

>  <SCORE.INTER.POLAR>
-1.69975

>  <SCORE.INTER.REPUL>
0.130291

>  <SCORE.INTER.ROT>
4

>  <SCORE.INTER.VDW>
-17.2452

>  <SCORE.INTER.norm>
-0.393118

>  <SCORE.INTRA>
0.153201

>  <SCORE.INTRA.DIHEDRAL>
-4.30243

>  <SCORE.INTRA.DIHEDRAL.0>
13.4636

>  <SCORE.INTRA.POLAR>
-0.471854

>  <SCORE.INTRA.POLAR.0>
-0.250933

>  <SCORE.INTRA.REPUL>
0

>  <SCORE.INTRA.REPUL.0>
0

>  <SCORE.INTRA.VDW>
3.90872

>  <SCORE.INTRA.VDW.0>
-3.21539

>  <SCORE.INTRA.norm>
0.00464246

>  <SCORE.RESTR>
0.00117423

>  <SCORE.RESTR.CAVITY>
0.00117423

>  <SCORE.RESTR.norm>
3.55827e-05

>  <SCORE.SYSTEM>
-1.05305

>  <SCORE.SYSTEM.CONST>
0

>  <SCORE.SYSTEM.DIHEDRAL>
0.0549994

>  <SCORE.SYSTEM.POLAR>
-0.0036776

>  <SCORE.SYSTEM.VDW>
-1.06804

>  <SCORE.SYSTEM.norm>
-0.0319105

>  <SCORE.heavy>
33

>  <SCORE.norm>
-0.420351

$$$$
5281643
  RxDock  02242113013D
librxdock.so/0.1.0
 41 44  0  0  0  0  0  0  0  0999 V2000
  -49.9583   -2.6914   17.2572 O   0  0  0  0  0  0
  -49.2305   -4.0164   15.4787 O   0  0  0  0  0  0
  -53.8242   -4.1044   16.8269 O   0  0  0  0  0  0
  -52.0422   -3.7100   18.9240 O   0  0  0  0  0  0
  -51.9284   -4.3560   14.6571 O   0  0  0  0  0  0
  -49.3477   -0.4565   18.8636 O   0  0  0  0  0  0
  -46.2706   -4.0368   17.6754 O   0  0  0  0  0  0
  -47.7655   -1.8223   14.5989 O   0  0  0  0  0  0
  -45.6885   -0.2386   14.7220 O   0  0  0  0  0  0
  -42.4470   -1.2476   18.0415 O   0  0  0  0  0  0
  -51.4470   -6.7381   18.5548 O   0  0  0  0  0  0
  -49.8964   -8.9159   19.3134 O   0  0  0  0  0  0
  -52.7058   -3.2401   16.6471 C   0  0  0  0  0  0
  -52.2729   -2.6526   17.9908 C   0  0  0  0  0  0
  -51.5653   -4.0224   15.9968 C   0  0  0  0  0  0
  -50.9780   -1.8520   17.8136 C   0  0  0  0  0  0
  -50.2857   -3.1839   15.9585 C   0  0  0  0  0  0
  -50.4480   -1.3063   19.1342 C   0  0  0  0  0  0
  -48.0210   -3.6790   16.0461 C   0  0  0  0  0  0
  -47.4678   -4.3680   17.0610 C   0  0  0  0  0  0
  -47.3116   -2.4880   15.5199 C   0  0  0  0  0  0
  -46.0345   -2.1500   16.1667 C   0  0  0  0  0  0
  -45.5794   -2.9456   17.2156 C   0  0  0  0  0  0
  -48.1069   -5.5575   17.6513 C   0  0  0  0  0  0
  -45.2878   -1.0485   15.7412 C   0  0  0  0  0  0
  -44.3723   -2.6443   17.8472 C   0  0  0  0  0  0
  -49.4905   -5.5912   17.8277 C   0  0  0  0  0  0
  -47.3288   -6.6505   18.0336 C   0  0  0  0  0  0
  -44.0807   -0.7493   16.3743 C   0  0  0  0  0  0
  -43.6236   -1.5455   17.4252 C   0  0  0  0  0  0
  -50.0955   -6.7173   18.3861 C   0  0  0  0  0  0
  -47.9339   -7.7765   18.5920 C   0  0  0  0  0  0
  -49.3172   -7.8100   18.7683 C   0  0  0  0  0  0
  -53.5607   -4.7942   17.4597 H   0  0  0  0  0  0
  -51.1473   -4.0525   18.7582 H   0  0  0  0  0  0
  -52.7507   -4.8725   14.7050 H   0  0  0  0  0  0
  -49.0270   -0.1102   19.7140 H   0  0  0  0  0  0
  -46.0529   -0.7634   13.9931 H   0  0  0  0  0  0
  -42.3124   -1.8662   18.7800 H   0  0  0  0  0  0
  -51.7391   -5.8417   18.7948 H   0  0  0  0  0  0
  -50.8565   -8.7728   19.3749 H   0  0  0  0  0  0
  1 16  1  0  0  0
  1 17  1  0  0  0
  2 17  1  0  0  0
  2 19  1  0  0  0
  3 13  1  0  0  0
  3 34  1  0  0  0
  4 14  1  0  0  0
  4 35  1  0  0  0
  5 15  1  0  0  0
  5 36  1  0  0  0
  6 18  1  0  0  0
  6 37  1  0  0  0
  7 20  1  0  0  0
  7 23  1  0  0  0
  8 21  2  0  0  0
  9 25  1  0  0  0
  9 38  1  0  0  0
 10 30  1  0  0  0
 10 39  1  0  0  0
 11 31  1  0  0  0
 11 40  1  0  0  0
 12 33  1  0  0  0
 12 41  1  0  0  0
 13 14  1  0  0  0
 13 15  1  0  0  0
 14 16  1  0  0  0
 15 17  1  0  0  0
 16 18  1  0  0  0
 19 20  2  0  0  0
 19 21  1  0  0  0
 20 24  1  0  0  0
 21 22  1  0  0  0
 22 23  1  0  0  0
 22 25  2  0  0  0
 23 26  2  0  0  0
 24 27  2  0  0  0
 24 28  1  0  0  0
 25 29  1  0  0  0
 26 30  1  0  0  0
 27 31  1  0  0  0
 28 32  2  0  0  0
 29 30  2  0  0  0
 31 33  2  0  0  0
 32 33  1  0  0  0
M  END
>  <CHROM.0>
68.19028471,173.59367851,-53.40879378

>  <CHROM.1>
-26.28215209,100.97571364,-57.64948911,82.04204948,-58.13622321,179.45929677
-41.73408529,-3.38467931,-35.87613631,-0.69176198,65.78644451,140.05938299
-48.65217449,-3.63178090,17.19395894,2.61680639,0.05565625,2.77420046

>  <Name>
5281643

>  <PUBCHEM_ATOM_DEF_STEREO_COUNT>
5

>  <PUBCHEM_ATOM_UDEF_STEREO_COUNT>
0

>  <PUBCHEM_BOND_DEF_STEREO_COUNT>
0

>  <PUBCHEM_BOND_UDEF_STEREO_COUNT>
0

>  <PUBCHEM_CACTVS_TAUTO_COUNT>
162

>  <PUBCHEM_COMPONENT_COUNT>
1

>  <PUBCHEM_COMPOUND_CID>
5281643

>  <PUBCHEM_CONFORMER_DIVERSEORDER>
1
86
59
70
75
65
68
80
35
60
72
84
10
81
85
66
61
88
58
63
62
69
39
16
83
52
30
67
49
47
76
25
2
57
64
87
14
71
45
19
53
36
79
27
42
9
34
4
29
40
78
48
43
56
12
11
44
74
17
38
82
37
23
3
8
31
6
50
33
28
55
22
73
77
51
46
5
24
41
26
20
18
32
54
7
21
15
13

>  <PUBCHEM_CONFORMER_ID>
0050976B00000001

>  <PUBCHEM_CONFORMER_RMSD>
0.8

>  <PUBCHEM_COORDINATE_TYPE>
2
5
10

>  <PUBCHEM_EFFECTIVE_ROTOR_COUNT>
5.2

>  <PUBCHEM_FEATURE_SELFOVERLAP>
101.615

>  <PUBCHEM_HEAVY_ATOM_COUNT>
33

>  <PUBCHEM_ISOTOPIC_ATOM_COUNT>
0

>  <PUBCHEM_MMFF94_ENERGY>
104.7486

>  <PUBCHEM_MMFF94_PARTIAL_CHARGES>
46
1 -0.56
10 -0.53
11 -0.53
12 -0.53
13 0.28
14 0.28
15 0.28
16 0.28
17 0.56
18 0.28
19 0.09
2 -0.36
20 0.05
21 0.47
22 0.09
23 0.08
24 0.03
25 0.08
26 -0.15
27 -0.15
28 -0.15
29 -0.15
3 -0.68
30 0.08
31 0.08
32 -0.15
33 0.08
4 -0.68
41 0.4
42 0.4
43 0.4
44 0.4
45 0.15
46 0.15
47 0.15
48 0.15
49 0.15
5 -0.68
50 0.45
51 0.45
52 0.45
53 0.45
6 -0.68
7 -0.16
8 -0.57
9 -0.53

>  <PUBCHEM_PHARMACOPHORE_FEATURES>
20
1 1 acceptor
1 10 donor
1 11 donor
1 12 donor
1 2 acceptor
1 3 acceptor
1 3 donor
1 4 acceptor
1 4 donor
1 5 acceptor
1 5 donor
1 6 acceptor
1 6 donor
1 7 acceptor
1 8 acceptor
1 9 donor
6 1 13 14 15 16 17 rings
6 22 23 25 26 29 30 rings
6 24 27 28 31 32 33 rings
6 7 19 20 21 22 23 rings

>  <PUBCHEM_SHAPE_FINGERPRINT>
10006869 2 18335973191630432171
10050765 1 18411138078758306218
10254770 206 17543629735110429114
10411042 1 18049726522484379307
10688039 33 18122628511688036570
1100329 8 18191865846011046165
11014199 57 18193559101690162847
11115154 58 17485060211102720839
11578080 2 16772653593855117074
12160290 23 18200008716930094571
12422481 6 18057344965791821347
12788726 201 18191291870106976058
13540713 4 18130787898074025568
1361 2 18337097987698836213
13690498 29 18198645374673823918
138480 1 16825304412646788035
13944108 23 17257933693666577220
140371 6 17616249621068240634
14068700 686 18053660567363316456
14508225 48 18194396925319104870
14790565 3 18196095438813983089
15131766 46 15504380113060768694
15463212 79 18262230015331414266
15484559 13 17837767833426351551
17357779 13 17982160420581768986
1813 80 17767144346333510902
19591789 44 18267018367185251353
20101258 96 18119543264584813442
20775438 99 17766234985840219669
21033648 144 18343867719350468664
21033648 29 18339635629996413648
21307412 95 17843144519371973382
21641784 216 18048331221354704092
21703447 108 18196922482976566226
23227448 37 18412825798245716428
23559900 14 18201999920346542688
238 59 17688559707949800469
3298306 158 18050845511872374654
3610482 184 17969243217130771598
38695281 34 18051131393374722297
4058900 60 17977675212157126569
44062 13 18341619213703054494
508706 21 18341040878859799886
59025328 239 17125891581249652975
7164475 11 18193562392178378628

>  <PUBCHEM_SHAPE_MULTIPOLES>
608.69
9.74
6.75
1.2
13.19
0.72
0.16
-1.42
2.09
-9.34
1.15
-0.24
0.37
0.55

>  <PUBCHEM_SHAPE_SELFOVERLAP>
1341.774

>  <PUBCHEM_SHAPE_VOLUME>
322.8

>  <RI>
-1.01143e+09

>  <Rbt.Current_Directory>
/root/miniconda3/envs/rdock/share/rxdock-2013.1.1_148c5bd1-0/data/ligands/prepped_ligands/Hyperoside

>  <Rbt.Executable>
rbdock/0.1.0

>  <Rbt.Library>
librxdock.so/0.1.0

>  <Rbt.Parameter_File>
/root/miniconda3/envs/rdock/share/rxdock-2013.1.1_148c5bd1-0/data/scripts/dock.prm

>  <Rbt.Receptor>
def.prm

>  <SCORE>
-13.5582

>  <SCORE.INTER>
-14.3495

>  <SCORE.INTER.CONST>
1

>  <SCORE.INTER.POLAR>
-1.17347

>  <SCORE.INTER.REPUL>
0.151699

>  <SCORE.INTER.ROT>
4

>  <SCORE.INTER.VDW>
-20.5182

>  <SCORE.INTER.norm>
-0.434832

>  <SCORE.INTRA>
1.59271

>  <SCORE.INTRA.DIHEDRAL>
3.50079

>  <SCORE.INTRA.DIHEDRAL.0>
13.4636

>  <SCORE.INTRA.POLAR>
-0.683397

>  <SCORE.INTRA.POLAR.0>
-0.250933

>  <SCORE.INTRA.REPUL>
0

>  <SCORE.INTRA.REPUL.0>
0

>  <SCORE.INTRA.VDW>
2.16587

>  <SCORE.INTRA.VDW.0>
-3.21539

>  <SCORE.INTRA.norm>
0.048264

>  <SCORE.RESTR>
0

>  <SCORE.RESTR.CAVITY>
0

>  <SCORE.RESTR.norm>
0

>  <SCORE.SYSTEM>
-0.801454

>  <SCORE.SYSTEM.CONST>
0

>  <SCORE.SYSTEM.DIHEDRAL>
0.458812

>  <SCORE.SYSTEM.POLAR>
-0.0138912

>  <SCORE.SYSTEM.VDW>
-0.98363

>  <SCORE.SYSTEM.norm>
-0.0242865

>  <SCORE.heavy>
33

>  <SCORE.norm>
-0.410855

$$$$
5281643
  RxDock  02242113023D
librxdock.so/0.1.0
 41 44  0  0  0  0  0  0  0  0999 V2000
  -51.8626   -4.1436   18.8990 O   0  0  0  0  0  0
  -50.6877   -5.2079   17.1856 O   0  0  0  0  0  0
  -48.8461   -4.9975   21.6006 O   0  0  0  0  0  0
  -50.3607   -2.7725   20.9048 O   0  0  0  0  0  0
  -49.0553   -6.4843   19.1285 O   0  0  0  0  0  0
  -54.4346   -3.2586   19.8133 O   0  0  0  0  0  0
  -53.3136   -4.7627   14.6374 O   0  0  0  0  0  0
  -52.1494   -7.5679   17.3538 O   0  0  0  0  0  0
  -54.1144   -9.1203   16.6014 O   0  0  0  0  0  0
  -56.9388   -7.4522   13.1685 O   0  0  0  0  0  0
  -50.8942   -0.1569   17.0323 O   0  0  0  0  0  0
  -49.7012    0.3944   14.5838 O   0  0  0  0  0  0
  -50.0634   -5.1718   20.8808 C   0  0  0  0  0  0
  -51.0177   -4.0131   21.1719 C   0  0  0  0  0  0
  -49.7549   -5.2671   19.3870 C   0  0  0  0  0  0
  -52.2568   -4.1246   20.2767 C   0  0  0  0  0  0
  -51.0463   -5.2656   18.5659 C   0  0  0  0  0  0
  -53.2127   -2.9519   20.4605 C   0  0  0  0  0  0
  -51.7723   -5.4473   16.3701 C   0  0  0  0  0  0
  -52.2081   -4.5675   15.4499 C   0  0  0  0  0  0
  -52.4988   -6.7295   16.5338 C   0  0  0  0  0  0
  -53.6627   -6.9369   15.6587 C   0  0  0  0  0  0
  -54.0107   -5.9377   14.7526 C   0  0  0  0  0  0
  -51.5528   -3.2665   15.2260 C   0  0  0  0  0  0
  -54.4115   -8.1141   15.7329 C   0  0  0  0  0  0
  -55.1120   -6.1094   13.9133 C   0  0  0  0  0  0
  -51.5298   -2.3124   16.2436 C   0  0  0  0  0  0
  -50.9549   -2.9887   13.9966 C   0  0  0  0  0  0
  -55.5124   -8.2836   14.8923 C   0  0  0  0  0  0
  -55.8622   -7.2834   13.9842 C   0  0  0  0  0  0
  -50.9092   -1.0811   16.0318 C   0  0  0  0  0  0
  -50.3344   -1.7575   13.7848 C   0  0  0  0  0  0
  -50.3115   -0.8037   14.8024 C   0  0  0  0  0  0
  -49.0592   -5.0404   22.5485 H   0  0  0  0  0  0
  -50.9342   -2.0628   21.2414 H   0  0  0  0  0  0
  -49.6421   -7.2124   19.3948 H   0  0  0  0  0  0
  -54.3082   -3.1108   18.8603 H   0  0  0  0  0  0
  -54.6459   -9.9071   16.4057 H   0  0  0  0  0  0
  -57.2452   -8.3729   13.2371 H   0  0  0  0  0  0
  -51.3818   -0.5204   17.7917 H   0  0  0  0  0  0
  -50.1676    0.8618   13.8698 H   0  0  0  0  0  0
  1 16  1  0  0  0
  1 17  1  0  0  0
  2 17  1  0  0  0
  2 19  1  0  0  0
  3 13  1  0  0  0
  3 34  1  0  0  0
  4 14  1  0  0  0
  4 35  1  0  0  0
  5 15  1  0  0  0
  5 36  1  0  0  0
  6 18  1  0  0  0
  6 37  1  0  0  0
  7 20  1  0  0  0
  7 23  1  0  0  0
  8 21  2  0  0  0
  9 25  1  0  0  0
  9 38  1  0  0  0
 10 30  1  0  0  0
 10 39  1  0  0  0
 11 31  1  0  0  0
 11 40  1  0  0  0
 12 33  1  0  0  0
 12 41  1  0  0  0
 13 14  1  0  0  0
 13 15  1  0  0  0
 14 16  1  0  0  0
 15 17  1  0  0  0
 16 18  1  0  0  0
 19 20  2  0  0  0
 19 21  1  0  0  0
 20 24  1  0  0  0
 21 22  1  0  0  0
 22 23  1  0  0  0
 22 25  2  0  0  0
 23 26  2  0  0  0
 24 27  2  0  0  0
 24 28  1  0  0  0
 25 29  1  0  0  0
 26 30  1  0  0  0
 27 31  1  0  0  0
 28 32  2  0  0  0
 29 30  2  0  0  0
 31 33  2  0  0  0
 32 33  1  0  0  0
M  END
>  <CHROM.0>
48.69936796,67.09271986,-59.33579368

>  <CHROM.1>
-69.98314230,121.37429686,64.03449904,-170.50185644,60.88848826,-78.53822718
-170.45327909,170.17040788,-1.78698679,-117.15838836,70.60767369,115.40768373
-52.10152245,-4.64647169,17.04599882,0.11542473,0.93538844,2.22912195

>  <Name>
5281643

>  <PUBCHEM_ATOM_DEF_STEREO_COUNT>
5

>  <PUBCHEM_ATOM_UDEF_STEREO_COUNT>
0

>  <PUBCHEM_BOND_DEF_STEREO_COUNT>
0

>  <PUBCHEM_BOND_UDEF_STEREO_COUNT>
0

>  <PUBCHEM_CACTVS_TAUTO_COUNT>
162

>  <PUBCHEM_COMPONENT_COUNT>
1

>  <PUBCHEM_COMPOUND_CID>
5281643

>  <PUBCHEM_CONFORMER_DIVERSEORDER>
1
86
59
70
75
65
68
80
35
60
72
84
10
81
85
66
61
88
58
63
62
69
39
16
83
52
30
67
49
47
76
25
2
57
64
87
14
71
45
19
53
36
79
27
42
9
34
4
29
40
78
48
43
56
12
11
44
74
17
38
82
37
23
3
8
31
6
50
33
28
55
22
73
77
51
46
5
24
41
26
20
18
32
54
7
21
15
13

>  <PUBCHEM_CONFORMER_ID>
0050976B00000001

>  <PUBCHEM_CONFORMER_RMSD>
0.8

>  <PUBCHEM_COORDINATE_TYPE>
2
5
10

>  <PUBCHEM_EFFECTIVE_ROTOR_COUNT>
5.2

>  <PUBCHEM_FEATURE_SELFOVERLAP>
101.615

>  <PUBCHEM_HEAVY_ATOM_COUNT>
33

>  <PUBCHEM_ISOTOPIC_ATOM_COUNT>
0

>  <PUBCHEM_MMFF94_ENERGY>
104.7486

>  <PUBCHEM_MMFF94_PARTIAL_CHARGES>
46
1 -0.56
10 -0.53
11 -0.53
12 -0.53
13 0.28
14 0.28
15 0.28
16 0.28
17 0.56
18 0.28
19 0.09
2 -0.36
20 0.05
21 0.47
22 0.09
23 0.08
24 0.03
25 0.08
26 -0.15
27 -0.15
28 -0.15
29 -0.15
3 -0.68
30 0.08
31 0.08
32 -0.15
33 0.08
4 -0.68
41 0.4
42 0.4
43 0.4
44 0.4
45 0.15
46 0.15
47 0.15
48 0.15
49 0.15
5 -0.68
50 0.45
51 0.45
52 0.45
53 0.45
6 -0.68
7 -0.16
8 -0.57
9 -0.53

>  <PUBCHEM_PHARMACOPHORE_FEATURES>
20
1 1 acceptor
1 10 donor
1 11 donor
1 12 donor
1 2 acceptor
1 3 acceptor
1 3 donor
1 4 acceptor
1 4 donor
1 5 acceptor
1 5 donor
1 6 acceptor
1 6 donor
1 7 acceptor
1 8 acceptor
1 9 donor
6 1 13 14 15 16 17 rings
6 22 23 25 26 29 30 rings
6 24 27 28 31 32 33 rings
6 7 19 20 21 22 23 rings

>  <PUBCHEM_SHAPE_FINGERPRINT>
10006869 2 18335973191630432171
10050765 1 18411138078758306218
10254770 206 17543629735110429114
10411042 1 18049726522484379307
10688039 33 18122628511688036570
1100329 8 18191865846011046165
11014199 57 18193559101690162847
11115154 58 17485060211102720839
11578080 2 16772653593855117074
12160290 23 18200008716930094571
12422481 6 18057344965791821347
12788726 201 18191291870106976058
13540713 4 18130787898074025568
1361 2 18337097987698836213
13690498 29 18198645374673823918
138480 1 16825304412646788035
13944108 23 17257933693666577220
140371 6 17616249621068240634
14068700 686 18053660567363316456
14508225 48 18194396925319104870
14790565 3 18196095438813983089
15131766 46 15504380113060768694
15463212 79 18262230015331414266
15484559 13 17837767833426351551
17357779 13 17982160420581768986
1813 80 17767144346333510902
19591789 44 18267018367185251353
20101258 96 18119543264584813442
20775438 99 17766234985840219669
21033648 144 18343867719350468664
21033648 29 18339635629996413648
21307412 95 17843144519371973382
21641784 216 18048331221354704092
21703447 108 18196922482976566226
23227448 37 18412825798245716428
23559900 14 18201999920346542688
238 59 17688559707949800469
3298306 158 18050845511872374654
3610482 184 17969243217130771598
38695281 34 18051131393374722297
4058900 60 17977675212157126569
44062 13 18341619213703054494
508706 21 18341040878859799886
59025328 239 17125891581249652975
7164475 11 18193562392178378628

>  <PUBCHEM_SHAPE_MULTIPOLES>
608.69
9.74
6.75
1.2
13.19
0.72
0.16
-1.42
2.09
-9.34
1.15
-0.24
0.37
0.55

>  <PUBCHEM_SHAPE_SELFOVERLAP>
1341.774

>  <PUBCHEM_SHAPE_VOLUME>
322.8

>  <RI>
-1.01143e+09

>  <Rbt.Current_Directory>
/root/miniconda3/envs/rdock/share/rxdock-2013.1.1_148c5bd1-0/data/ligands/prepped_ligands/Hyperoside

>  <Rbt.Executable>
rbdock/0.1.0

>  <Rbt.Library>
librxdock.so/0.1.0

>  <Rbt.Parameter_File>
/root/miniconda3/envs/rdock/share/rxdock-2013.1.1_148c5bd1-0/data/scripts/dock.prm

>  <Rbt.Receptor>
def.prm

>  <SCORE>
-18.5662

>  <SCORE.INTER>
-21.1148

>  <SCORE.INTER.CONST>
1

>  <SCORE.INTER.POLAR>
-2.78579

>  <SCORE.INTER.REPUL>
0.133393

>  <SCORE.INTER.ROT>
4

>  <SCORE.INTER.VDW>
-21.7101

>  <SCORE.INTER.norm>
-0.639843

>  <SCORE.INTRA>
3.32425

>  <SCORE.INTRA.DIHEDRAL>
0.950849

>  <SCORE.INTRA.DIHEDRAL.0>
13.4636

>  <SCORE.INTRA.POLAR>
0.250933

>  <SCORE.INTRA.POLAR.0>
-0.250933

>  <SCORE.INTRA.REPUL>
0

>  <SCORE.INTRA.REPUL.0>
0

>  <SCORE.INTRA.VDW>
1.99565

>  <SCORE.INTRA.VDW.0>
-3.21539

>  <SCORE.INTRA.norm>
0.100735

>  <SCORE.RESTR>
0.00126875

>  <SCORE.RESTR.CAVITY>
0.00126875

>  <SCORE.RESTR.norm>
3.8447e-05

>  <SCORE.SYSTEM>
-0.776937

>  <SCORE.SYSTEM.CONST>
0

>  <SCORE.SYSTEM.DIHEDRAL>
0.560031

>  <SCORE.SYSTEM.POLAR>
-0.00246758

>  <SCORE.SYSTEM.VDW>
-1.04856

>  <SCORE.SYSTEM.norm>
-0.0235435

>  <SCORE.heavy>
33

>  <SCORE.norm>
-0.562613

$$$$
5281643
  RxDock  02242113023D
librxdock.so/0.1.0
 41 44  0  0  0  0  0  0  0  0999 V2000
  -48.7055   -1.8615   17.1545 O   0  0  0  0  0  0
  -48.0068   -3.7545   15.9810 O   0  0  0  0  0  0
  -44.8011   -0.5280   17.4779 O   0  0  0  0  0  0
  -47.2550    0.5685   16.7670 O   0  0  0  0  0  0
  -45.3504   -3.3041   16.8808 O   0  0  0  0  0  0
  -49.9513    0.4537   16.9561 O   0  0  0  0  0  0
  -51.5351   -3.2583   15.0363 O   0  0  0  0  0  0
  -49.2935   -5.9258   17.1490 O   0  0  0  0  0  0
  -51.4403   -7.3236   17.6730 O   0  0  0  0  0  0
  -55.5282   -5.6711   15.9117 O   0  0  0  0  0  0
  -50.9152    1.2030   13.0378 O   0  0  0  0  0  0
  -48.1907    1.4725   12.5615 O   0  0  0  0  0  0
  -46.0042   -1.1956   17.8483 C   0  0  0  0  0  0
  -47.1479   -0.1885   17.9743 C   0  0  0  0  0  0
  -46.3269   -2.2655   16.8058 C   0  0  0  0  0  0
  -48.4671   -0.9300   18.2172 C   0  0  0  0  0  0
  -47.7060   -2.8760   17.0648 C   0  0  0  0  0  0
  -49.6620    0.0145   18.2712 C   0  0  0  0  0  0
  -49.3645   -3.9486   15.8480 C   0  0  0  0  0  0
  -50.1629   -3.1104   15.1619 C   0  0  0  0  0  0
  -49.9688   -5.1291   16.5113 C   0  0  0  0  0  0
  -51.4234   -5.2883   16.3624 C   0  0  0  0  0  0
  -52.1334   -4.3399   15.6297 C   0  0  0  0  0  0
  -49.6496   -1.9090   14.4799 C   0  0  0  0  0  0
  -52.0871   -6.3702   16.9465 C   0  0  0  0  0  0
  -53.5143   -4.4672   15.4762 C   0  0  0  0  0  0
  -50.5309   -0.9062   14.0749 C   0  0  0  0  0  0
  -48.2821   -1.7738   14.2393 C   0  0  0  0  0  0
  -53.4682   -6.4955   16.7913 C   0  0  0  0  0  0
  -54.1807   -5.5461   16.0576 C   0  0  0  0  0  0
  -50.0450    0.2312   13.4297 C   0  0  0  0  0  0
  -47.7962   -0.6366   13.5941 C   0  0  0  0  0  0
  -48.6776    0.3660   13.1893 C   0  0  0  0  0  0
  -44.9571   -0.1022   16.6176 H   0  0  0  0  0  0
  -46.4476    1.1049   16.6890 H   0  0  0  0  0  0
  -45.4073   -3.6847   17.7737 H   0  0  0  0  0  0
  -50.0179   -0.3346   16.3904 H   0  0  0  0  0  0
  -50.5391   -7.0367   17.8857 H   0  0  0  0  0  0
  -55.7603   -6.6157   15.9214 H   0  0  0  0  0  0
  -51.3106    0.9356   12.1899 H   0  0  0  0  0  0
  -48.9364    2.0109   12.2450 H   0  0  0  0  0  0
  1 16  1  0  0  0
  1 17  1  0  0  0
  2 17  1  0  0  0
  2 19  1  0  0  0
  3 13  1  0  0  0
  3 34  1  0  0  0
  4 14  1  0  0  0
  4 35  1  0  0  0
  5 15  1  0  0  0
  5 36  1  0  0  0
  6 18  1  0  0  0
  6 37  1  0  0  0
  7 20  1  0  0  0
  7 23  1  0  0  0
  8 21  2  0  0  0
  9 25  1  0  0  0
  9 38  1  0  0  0
 10 30  1  0  0  0
 10 39  1  0  0  0
 11 31  1  0  0  0
 11 40  1  0  0  0
 12 33  1  0  0  0
 12 41  1  0  0  0
 13 14  1  0  0  0
 13 15  1  0  0  0
 14 16  1  0  0  0
 15 17  1  0  0  0
 16 18  1  0  0  0
 19 20  2  0  0  0
 19 21  1  0  0  0
 20 24  1  0  0  0
 21 22  1  0  0  0
 22 23  1  0  0  0
 22 25  2  0  0  0
 23 26  2  0  0  0
 24 27  2  0  0  0
 24 28  1  0  0  0
 25 29  1  0  0  0
 26 30  1  0  0  0
 27 31  1  0  0  0
 28 32  2  0  0  0
 29 30  2  0  0  0
 31 33  2  0  0  0
 32 33  1  0  0  0
M  END
>  <CHROM.0>
174.71780889,173.31392183,168.70698781

>  <CHROM.1>
-36.00887259,84.70842650,-60.68027699,-66.11839115,61.08926644,51.19380175
12.85487697,149.63585049,-81.83605434,-7.40841598,-47.03688198,15.00232975
-49.56182817,-2.50733571,15.97722268,-0.68762579,0.44273145,2.56441942

>  <Name>
5281643

>  <PUBCHEM_ATOM_DEF_STEREO_COUNT>
5

>  <PUBCHEM_ATOM_UDEF_STEREO_COUNT>
0

>  <PUBCHEM_BOND_DEF_STEREO_COUNT>
0

>  <PUBCHEM_BOND_UDEF_STEREO_COUNT>
0

>  <PUBCHEM_CACTVS_TAUTO_COUNT>
162

>  <PUBCHEM_COMPONENT_COUNT>
1

>  <PUBCHEM_COMPOUND_CID>
5281643

>  <PUBCHEM_CONFORMER_DIVERSEORDER>
1
86
59
70
75
65
68
80
35
60
72
84
10
81
85
66
61
88
58
63
62
69
39
16
83
52
30
67
49
47
76
25
2
57
64
87
14
71
45
19
53
36
79
27
42
9
34
4
29
40
78
48
43
56
12
11
44
74
17
38
82
37
23
3
8
31
6
50
33
28
55
22
73
77
51
46
5
24
41
26
20
18
32
54
7
21
15
13

>  <PUBCHEM_CONFORMER_ID>
0050976B00000001

>  <PUBCHEM_CONFORMER_RMSD>
0.8

>  <PUBCHEM_COORDINATE_TYPE>
2
5
10

>  <PUBCHEM_EFFECTIVE_ROTOR_COUNT>
5.2

>  <PUBCHEM_FEATURE_SELFOVERLAP>
101.615

>  <PUBCHEM_HEAVY_ATOM_COUNT>
33

>  <PUBCHEM_ISOTOPIC_ATOM_COUNT>
0

>  <PUBCHEM_MMFF94_ENERGY>
104.7486

>  <PUBCHEM_MMFF94_PARTIAL_CHARGES>
46
1 -0.56
10 -0.53
11 -0.53
12 -0.53
13 0.28
14 0.28
15 0.28
16 0.28
17 0.56
18 0.28
19 0.09
2 -0.36
20 0.05
21 0.47
22 0.09
23 0.08
24 0.03
25 0.08
26 -0.15
27 -0.15
28 -0.15
29 -0.15
3 -0.68
30 0.08
31 0.08
32 -0.15
33 0.08
4 -0.68
41 0.4
42 0.4
43 0.4
44 0.4
45 0.15
46 0.15
47 0.15
48 0.15
49 0.15
5 -0.68
50 0.45
51 0.45
52 0.45
53 0.45
6 -0.68
7 -0.16
8 -0.57
9 -0.53

>  <PUBCHEM_PHARMACOPHORE_FEATURES>
20
1 1 acceptor
1 10 donor
1 11 donor
1 12 donor
1 2 acceptor
1 3 acceptor
1 3 donor
1 4 acceptor
1 4 donor
1 5 acceptor
1 5 donor
1 6 acceptor
1 6 donor
1 7 acceptor
1 8 acceptor
1 9 donor
6 1 13 14 15 16 17 rings
6 22 23 25 26 29 30 rings
6 24 27 28 31 32 33 rings
6 7 19 20 21 22 23 rings

>  <PUBCHEM_SHAPE_FINGERPRINT>
10006869 2 18335973191630432171
10050765 1 18411138078758306218
10254770 206 17543629735110429114
10411042 1 18049726522484379307
10688039 33 18122628511688036570
1100329 8 18191865846011046165
11014199 57 18193559101690162847
11115154 58 17485060211102720839
11578080 2 16772653593855117074
12160290 23 18200008716930094571
12422481 6 18057344965791821347
12788726 201 18191291870106976058
13540713 4 18130787898074025568
1361 2 18337097987698836213
13690498 29 18198645374673823918
138480 1 16825304412646788035
13944108 23 17257933693666577220
140371 6 17616249621068240634
14068700 686 18053660567363316456
14508225 48 18194396925319104870
14790565 3 18196095438813983089
15131766 46 15504380113060768694
15463212 79 18262230015331414266
15484559 13 17837767833426351551
17357779 13 17982160420581768986
1813 80 17767144346333510902
19591789 44 18267018367185251353
20101258 96 18119543264584813442
20775438 99 17766234985840219669
21033648 144 18343867719350468664
21033648 29 18339635629996413648
21307412 95 17843144519371973382
21641784 216 18048331221354704092
21703447 108 18196922482976566226
23227448 37 18412825798245716428
23559900 14 18201999920346542688
238 59 17688559707949800469
3298306 158 18050845511872374654
3610482 184 17969243217130771598
38695281 34 18051131393374722297
4058900 60 17977675212157126569
44062 13 18341619213703054494
508706 21 18341040878859799886
59025328 239 17125891581249652975
7164475 11 18193562392178378628

>  <PUBCHEM_SHAPE_MULTIPOLES>
608.69
9.74
6.75
1.2
13.19
0.72
0.16
-1.42
2.09
-9.34
1.15
-0.24
0.37
0.55

>  <PUBCHEM_SHAPE_SELFOVERLAP>
1341.774

>  <PUBCHEM_SHAPE_VOLUME>
322.8

>  <RI>
-1.01143e+09

>  <Rbt.Current_Directory>
/root/miniconda3/envs/rdock/share/rxdock-2013.1.1_148c5bd1-0/data/ligands/prepped_ligands/Hyperoside

>  <Rbt.Executable>
rbdock/0.1.0

>  <Rbt.Library>
librxdock.so/0.1.0

>  <Rbt.Parameter_File>
/root/miniconda3/envs/rdock/share/rxdock-2013.1.1_148c5bd1-0/data/scripts/dock.prm

>  <Rbt.Receptor>
def.prm

>  <SCORE>
-19.4215

>  <SCORE.INTER>
-22.0248

>  <SCORE.INTER.CONST>
1

>  <SCORE.INTER.POLAR>
-3.08663

>  <SCORE.INTER.REPUL>
0.296451

>  <SCORE.INTER.ROT>
4

>  <SCORE.INTER.VDW>
-22.4125

>  <SCORE.INTER.norm>
-0.667419

>  <SCORE.INTRA>
3.34518

>  <SCORE.INTRA.DIHEDRAL>
1.55578

>  <SCORE.INTRA.DIHEDRAL.0>
13.4636

>  <SCORE.INTRA.POLAR>
0.055711

>  <SCORE.INTRA.POLAR.0>
-0.250933

>  <SCORE.INTRA.REPUL>
0

>  <SCORE.INTRA.REPUL.0>
0

>  <SCORE.INTRA.VDW>
2.37787

>  <SCORE.INTRA.VDW.0>
-3.21539

>  <SCORE.INTRA.norm>
0.101369

>  <SCORE.RESTR>
0

>  <SCORE.RESTR.CAVITY>
0

>  <SCORE.RESTR.norm>
0

>  <SCORE.SYSTEM>
-0.741836

>  <SCORE.SYSTEM.CONST>
0

>  <SCORE.SYSTEM.DIHEDRAL>
0.605094

>  <SCORE.SYSTEM.VDW>
-1.04438

>  <SCORE.SYSTEM.norm>
-0.0224799

>  <SCORE.heavy>
33

>  <SCORE.norm>
-0.58853

$$$$
5281643
  RxDock  02242113023D
librxdock.so/0.1.0
 41 44  0  0  0  0  0  0  0  0999 V2000
  -48.6078   -3.9030   16.3396 O   0  0  0  0  0  0
  -47.8617   -1.7084   16.0642 O   0  0  0  0  0  0
  -52.0003   -3.1100   14.1060 O   0  0  0  0  0  0
  -50.0647   -5.1036   14.1960 O   0  0  0  0  0  0
  -50.4787   -0.9424   15.2685 O   0  0  0  0  0  0
  -50.1927   -7.1123   16.8990 O   0  0  0  0  0  0
  -46.9484   -0.8572   19.5324 O   0  0  0  0  0  0
  -45.1260   -2.2024   16.1452 O   0  0  0  0  0  0
  -42.8309   -2.2620   17.3968 O   0  0  0  0  0  0
  -42.8590   -0.8914   21.9426 O   0  0  0  0  0  0
  -51.4011    1.9884   17.8479 O   0  0  0  0  0  0
  -53.1413    0.0901   18.8922 O   0  0  0  0  0  0
  -51.1845   -3.2471   15.2661 C   0  0  0  0  0  0
  -50.7056   -4.6925   15.4053 C   0  0  0  0  0  0
  -50.0020   -2.2841   15.1657 C   0  0  0  0  0  0
  -49.7049   -4.7980   16.5614 C   0  0  0  0  0  0
  -49.0032   -2.5325   16.2982 C   0  0  0  0  0  0
  -49.1265   -6.2011   16.7017 C   0  0  0  0  0  0
  -47.1264   -1.5229   17.2147 C   0  0  0  0  0  0
  -47.6643   -1.0855   18.3680 C   0  0  0  0  0  0
  -45.6711   -1.8030   17.1654 C   0  0  0  0  0  0
  -44.9193   -1.5724   18.4084 C   0  0  0  0  0  0
  -45.6006   -1.1090   19.5316 C   0  0  0  0  0  0
  -49.0983   -0.7742   18.5046 C   0  0  0  0  0  0
  -43.5438   -1.8104   18.4659 C   0  0  0  0  0  0
  -44.9096   -0.8801   20.7219 C   0  0  0  0  0  0
  -49.5826    0.4726   18.1081 C   0  0  0  0  0  0
  -49.9721   -1.7263   19.0301 C   0  0  0  0  0  0
  -42.8548   -1.5809   19.6575 C   0  0  0  0  0  0
  -43.5361   -1.1167   20.7835 C   0  0  0  0  0  0
  -50.9401    0.7672   18.2371 C   0  0  0  0  0  0
  -51.3295   -1.4317   19.1591 C   0  0  0  0  0  0
  -51.8135   -0.1850   18.7625 C   0  0  0  0  0  0
  -52.7590   -3.7094   14.2107 H   0  0  0  0  0  0
  -49.2496   -4.5806   14.1081 H   0  0  0  0  0  0
  -50.9170   -0.8612   16.1326 H   0  0  0  0  0  0
  -49.8061   -7.9972   17.0149 H   0  0  0  0  0  0
  -42.1260   -2.8613   17.6861 H   0  0  0  0  0  0
  -42.0456   -0.3973   21.7419 H   0  0  0  0  0  0
  -51.6209    2.5007   18.6453 H   0  0  0  0  0  0
  -53.6107   -0.7246   19.1409 H   0  0  0  0  0  0
  1 16  1  0  0  0
  1 17  1  0  0  0
  2 17  1  0  0  0
  2 19  1  0  0  0
  3 13  1  0  0  0
  3 34  1  0  0  0
  4 14  1  0  0  0
  4 35  1  0  0  0
  5 15  1  0  0  0
  5 36  1  0  0  0
  6 18  1  0  0  0
  6 37  1  0  0  0
  7 20  1  0  0  0
  7 23  1  0  0  0
  8 21  2  0  0  0
  9 25  1  0  0  0
  9 38  1  0  0  0
 10 30  1  0  0  0
 10 39  1  0  0  0
 11 31  1  0  0  0
 11 40  1  0  0  0
 12 33  1  0  0  0
 12 41  1  0  0  0
 13 14  1  0  0  0
 13 15  1  0  0  0
 14 16  1  0  0  0
 15 17  1  0  0  0
 16 18  1  0  0  0
 19 20  2  0  0  0
 19 21  1  0  0  0
 20 24  1  0  0  0
 21 22  1  0  0  0
 22 23  1  0  0  0
 22 25  2  0  0  0
 23 26  2  0  0  0
 24 27  2  0  0  0
 24 28  1  0  0  0
 25 29  1  0  0  0
 26 30  1  0  0  0
 27 31  1  0  0  0
 28 32  2  0  0  0
 29 30  2  0  0  0
 31 33  2  0  0  0
 32 33  1  0  0  0
M  END
>  <CHROM.0>
-175.56524448,-172.61929387,54.80780475

>  <CHROM.1>
-79.00881330,-52.58856525,59.74081011,66.82015687,60.03563409,-178.22515825
-144.77738523,-133.68373139,-107.75794519,171.29365453,-178.99065247,95.45720741
-48.24003053,-2.02456338,17.56855928,-2.73886608,-0.25617030,0.61637788

>  <Name>
5281643

>  <PUBCHEM_ATOM_DEF_STEREO_COUNT>
5

>  <PUBCHEM_ATOM_UDEF_STEREO_COUNT>
0

>  <PUBCHEM_BOND_DEF_STEREO_COUNT>
0

>  <PUBCHEM_BOND_UDEF_STEREO_COUNT>
0

>  <PUBCHEM_CACTVS_TAUTO_COUNT>
162

>  <PUBCHEM_COMPONENT_COUNT>
1

>  <PUBCHEM_COMPOUND_CID>
5281643

>  <PUBCHEM_CONFORMER_DIVERSEORDER>
1
86
59
70
75
65
68
80
35
60
72
84
10
81
85
66
61
88
58
63
62
69
39
16
83
52
30
67
49
47
76
25
2
57
64
87
14
71
45
19
53
36
79
27
42
9
34
4
29
40
78
48
43
56
12
11
44
74
17
38
82
37
23
3
8
31
6
50
33
28
55
22
73
77
51
46
5
24
41
26
20
18
32
54
7
21
15
13

>  <PUBCHEM_CONFORMER_ID>
0050976B00000001

>  <PUBCHEM_CONFORMER_RMSD>
0.8

>  <PUBCHEM_COORDINATE_TYPE>
2
5
10

>  <PUBCHEM_EFFECTIVE_ROTOR_COUNT>
5.2

>  <PUBCHEM_FEATURE_SELFOVERLAP>
101.615

>  <PUBCHEM_HEAVY_ATOM_COUNT>
33

>  <PUBCHEM_ISOTOPIC_ATOM_COUNT>
0

>  <PUBCHEM_MMFF94_ENERGY>
104.7486

>  <PUBCHEM_MMFF94_PARTIAL_CHARGES>
46
1 -0.56
10 -0.53
11 -0.53
12 -0.53
13 0.28
14 0.28
15 0.28
16 0.28
17 0.56
18 0.28
19 0.09
2 -0.36
20 0.05
21 0.47
22 0.09
23 0.08
24 0.03
25 0.08
26 -0.15
27 -0.15
28 -0.15
29 -0.15
3 -0.68
30 0.08
31 0.08
32 -0.15
33 0.08
4 -0.68
41 0.4
42 0.4
43 0.4
44 0.4
45 0.15
46 0.15
47 0.15
48 0.15
49 0.15
5 -0.68
50 0.45
51 0.45
52 0.45
53 0.45
6 -0.68
7 -0.16
8 -0.57
9 -0.53

>  <PUBCHEM_PHARMACOPHORE_FEATURES>
20
1 1 acceptor
1 10 donor
1 11 donor
1 12 donor
1 2 acceptor
1 3 acceptor
1 3 donor
1 4 acceptor
1 4 donor
1 5 acceptor
1 5 donor
1 6 acceptor
1 6 donor
1 7 acceptor
1 8 acceptor
1 9 donor
6 1 13 14 15 16 17 rings
6 22 23 25 26 29 30 rings
6 24 27 28 31 32 33 rings
6 7 19 20 21 22 23 rings

>  <PUBCHEM_SHAPE_FINGERPRINT>
10006869 2 18335973191630432171
10050765 1 18411138078758306218
10254770 206 17543629735110429114
10411042 1 18049726522484379307
10688039 33 18122628511688036570
1100329 8 18191865846011046165
11014199 57 18193559101690162847
11115154 58 17485060211102720839
11578080 2 16772653593855117074
12160290 23 18200008716930094571
12422481 6 18057344965791821347
12788726 201 18191291870106976058
13540713 4 18130787898074025568
1361 2 18337097987698836213
13690498 29 18198645374673823918
138480 1 16825304412646788035
13944108 23 17257933693666577220
140371 6 17616249621068240634
14068700 686 18053660567363316456
14508225 48 18194396925319104870
14790565 3 18196095438813983089
15131766 46 15504380113060768694
15463212 79 18262230015331414266
15484559 13 17837767833426351551
17357779 13 17982160420581768986
1813 80 17767144346333510902
19591789 44 18267018367185251353
20101258 96 18119543264584813442
20775438 99 17766234985840219669
21033648 144 18343867719350468664
21033648 29 18339635629996413648
21307412 95 17843144519371973382
21641784 216 18048331221354704092
21703447 108 18196922482976566226
23227448 37 18412825798245716428
23559900 14 18201999920346542688
238 59 17688559707949800469
3298306 158 18050845511872374654
3610482 184 17969243217130771598
38695281 34 18051131393374722297
4058900 60 17977675212157126569
44062 13 18341619213703054494
508706 21 18341040878859799886
59025328 239 17125891581249652975
7164475 11 18193562392178378628

>  <PUBCHEM_SHAPE_MULTIPOLES>
608.69
9.74
6.75
1.2
13.19
0.72
0.16
-1.42
2.09
-9.34
1.15
-0.24
0.37
0.55

>  <PUBCHEM_SHAPE_SELFOVERLAP>
1341.774

>  <PUBCHEM_SHAPE_VOLUME>
322.8

>  <RI>
-1.01143e+09

>  <Rbt.Current_Directory>
/root/miniconda3/envs/rdock/share/rxdock-2013.1.1_148c5bd1-0/data/ligands/prepped_ligands/Hyperoside

>  <Rbt.Executable>
rbdock/0.1.0

>  <Rbt.Library>
librxdock.so/0.1.0

>  <Rbt.Parameter_File>
/root/miniconda3/envs/rdock/share/rxdock-2013.1.1_148c5bd1-0/data/scripts/dock.prm

>  <Rbt.Receptor>
def.prm

>  <SCORE>
-11.0626

>  <SCORE.INTER>
-14.6888

>  <SCORE.INTER.CONST>
1

>  <SCORE.INTER.POLAR>
-1.33889

>  <SCORE.INTER.REPUL>
0.0511526

>  <SCORE.INTER.ROT>
4

>  <SCORE.INTER.VDW>
-19.7924

>  <SCORE.INTER.norm>
-0.445116

>  <SCORE.INTRA>
3.96651

>  <SCORE.INTRA.DIHEDRAL>
4.74992

>  <SCORE.INTRA.DIHEDRAL.0>
13.4636

>  <SCORE.INTRA.POLAR>
0.245781

>  <SCORE.INTRA.POLAR.0>
-0.250933

>  <SCORE.INTRA.REPUL>
0

>  <SCORE.INTRA.REPUL.0>
0

>  <SCORE.INTRA.VDW>
0.75589

>  <SCORE.INTRA.VDW.0>
-3.21539

>  <SCORE.INTRA.norm>
0.120197

>  <SCORE.RESTR>
0.560335

>  <SCORE.RESTR.CAVITY>
0.560335

>  <SCORE.RESTR.norm>
0.0169799

>  <SCORE.SYSTEM>
-0.900582

>  <SCORE.SYSTEM.CONST>
0

>  <SCORE.SYSTEM.DIHEDRAL>
0.381041

>  <SCORE.SYSTEM.VDW>
-1.0911

>  <SCORE.SYSTEM.norm>
-0.0272904

>  <SCORE.heavy>
33

>  <SCORE.norm>
-0.335229

$$$$
5281643
  RxDock  02242113023D
librxdock.so/0.1.0
 41 44  0  0  0  0  0  0  0  0999 V2000
  -48.6439   -2.0547   15.7506 O   0  0  0  0  0  0
  -50.8809   -1.5068   16.1306 O   0  0  0  0  0  0
  -48.3150    0.9367   12.9099 O   0  0  0  0  0  0
  -46.8377    0.0587   15.0952 O   0  0  0  0  0  0
  -50.9173   -0.0574   13.6879 O   0  0  0  0  0  0
  -46.0640   -1.8434   16.6271 O   0  0  0  0  0  0
  -50.5029   -3.8111   18.9827 O   0  0  0  0  0  0
  -52.1900   -3.8060   15.2736 O   0  0  0  0  0  0
  -53.0029   -6.2651   15.6337 O   0  0  0  0  0  0
  -51.8907   -8.2787   19.7873 O   0  0  0  0  0  0
  -46.9311    0.6649   18.0079 O   0  0  0  0  0  0
  -47.6796    1.6044   20.5137 O   0  0  0  0  0  0
  -48.5408   -0.3691   13.4333 C   0  0  0  0  0  0
  -47.2761   -0.8878   14.1184 C   0  0  0  0  0  0
  -49.7151   -0.3230   14.4104 C   0  0  0  0  0  0
  -47.5726   -2.2212   14.8135 C   0  0  0  0  0  0
  -49.8699   -1.6619   15.1352 C   0  0  0  0  0  0
  -46.3709   -2.7528   15.5855 C   0  0  0  0  0  0
  -50.9797   -2.6243   16.9307 C   0  0  0  0  0  0
  -50.4501   -2.6929   18.1658 C   0  0  0  0  0  0
  -51.6885   -3.8091   16.3898 C   0  0  0  0  0  0
  -51.7535   -4.9879   17.2672 C   0  0  0  0  0  0
  -51.1541   -4.9267   18.5231 C   0  0  0  0  0  0
  -49.7219   -1.5675   18.7783 C   0  0  0  0  0  0
  -52.4026   -6.1531   16.8512 C   0  0  0  0  0  0
  -51.1997   -6.0324   19.3729 C   0  0  0  0  0  0
  -48.6580   -0.9726   18.0997 C   0  0  0  0  0  0
  -50.0964   -1.0963   20.0369 C   0  0  0  0  0  0
  -52.4472   -7.2576   17.7029 C   0  0  0  0  0  0
  -51.8471   -7.1976   18.9614 C   0  0  0  0  0  0
  -47.9690    0.0929   18.6794 C   0  0  0  0  0  0
  -49.4074   -0.0309   20.6165 C   0  0  0  0  0  0
  -48.3437    0.5638   19.9377 C   0  0  0  0  0  0
  -47.5962    0.8693   12.2584 H   0  0  0  0  0  0
  -45.9772   -0.2473   15.4293 H   0  0  0  0  0  0
  -51.0390   -0.7886   13.0587 H   0  0  0  0  0  0
  -45.3772   -2.2517   17.1816 H   0  0  0  0  0  0
  -52.8479   -7.1447   15.2572 H   0  0  0  0  0  0
  -51.0959   -8.2795   20.3481 H   0  0  0  0  0  0
  -46.7308    0.1163   17.2297 H   0  0  0  0  0  0
  -46.9741    1.9009   19.9134 H   0  0  0  0  0  0
  1 16  1  0  0  0
  1 17  1  0  0  0
  2 17  1  0  0  0
  2 19  1  0  0  0
  3 13  1  0  0  0
  3 34  1  0  0  0
  4 14  1  0  0  0
  4 35  1  0  0  0
  5 15  1  0  0  0
  5 36  1  0  0  0
  6 18  1  0  0  0
  6 37  1  0  0  0
  7 20  1  0  0  0
  7 23  1  0  0  0
  8 21  2  0  0  0
  9 25  1  0  0  0
  9 38  1  0  0  0
 10 30  1  0  0  0
 10 39  1  0  0  0
 11 31  1  0  0  0
 11 40  1  0  0  0
 12 33  1  0  0  0
 12 41  1  0  0  0
 13 14  1  0  0  0
 13 15  1  0  0  0
 14 16  1  0  0  0
 15 17  1  0  0  0
 16 18  1  0  0  0
 19 20  2  0  0  0
 19 21  1  0  0  0
 20 24  1  0  0  0
 21 22  1  0  0  0
 22 23  1  0  0  0
 22 25  2  0  0  0
 23 26  2  0  0  0
 24 27  2  0  0  0
 24 28  1  0  0  0
 25 29  1  0  0  0
 26 30  1  0  0  0
 27 31  1  0  0  0
 28 32  2  0  0  0
 29 30  2  0  0  0
 31 33  2  0  0  0
 32 33  1  0  0  0
M  END
>  <CHROM.0>
-61.64328938,67.26638292,-57.13296047

>  <CHROM.1>
-52.21710601,101.48204288,60.72882962,-173.03128630,61.07292112,172.47629419
140.53744856,-29.90817171,-9.02351671,0.03098265,-57.27090460,125.65737472
-49.66882558,-2.40267151,16.96060083,0.33212250,-0.96676532,-1.47241370

>  <Name>
5281643

>  <PUBCHEM_ATOM_DEF_STEREO_COUNT>
5

>  <PUBCHEM_ATOM_UDEF_STEREO_COUNT>
0

>  <PUBCHEM_BOND_DEF_STEREO_COUNT>
0

>  <PUBCHEM_BOND_UDEF_STEREO_COUNT>
0

>  <PUBCHEM_CACTVS_TAUTO_COUNT>
162

>  <PUBCHEM_COMPONENT_COUNT>
1

>  <PUBCHEM_COMPOUND_CID>
5281643

>  <PUBCHEM_CONFORMER_DIVERSEORDER>
1
86
59
70
75
65
68
80
35
60
72
84
10
81
85
66
61
88
58
63
62
69
39
16
83
52
30
67
49
47
76
25
2
57
64
87
14
71
45
19
53
36
79
27
42
9
34
4
29
40
78
48
43
56
12
11
44
74
17
38
82
37
23
3
8
31
6
50
33
28
55
22
73
77
51
46
5
24
41
26
20
18
32
54
7
21
15
13

>  <PUBCHEM_CONFORMER_ID>
0050976B00000001

>  <PUBCHEM_CONFORMER_RMSD>
0.8

>  <PUBCHEM_COORDINATE_TYPE>
2
5
10

>  <PUBCHEM_EFFECTIVE_ROTOR_COUNT>
5.2

>  <PUBCHEM_FEATURE_SELFOVERLAP>
101.615

>  <PUBCHEM_HEAVY_ATOM_COUNT>
33

>  <PUBCHEM_ISOTOPIC_ATOM_COUNT>
0

>  <PUBCHEM_MMFF94_ENERGY>
104.7486

>  <PUBCHEM_MMFF94_PARTIAL_CHARGES>
46
1 -0.56
10 -0.53
11 -0.53
12 -0.53
13 0.28
14 0.28
15 0.28
16 0.28
17 0.56
18 0.28
19 0.09
2 -0.36
20 0.05
21 0.47
22 0.09
23 0.08
24 0.03
25 0.08
26 -0.15
27 -0.15
28 -0.15
29 -0.15
3 -0.68
30 0.08
31 0.08
32 -0.15
33 0.08
4 -0.68
41 0.4
42 0.4
43 0.4
44 0.4
45 0.15
46 0.15
47 0.15
48 0.15
49 0.15
5 -0.68
50 0.45
51 0.45
52 0.45
53 0.45
6 -0.68
7 -0.16
8 -0.57
9 -0.53

>  <PUBCHEM_PHARMACOPHORE_FEATURES>
20
1 1 acceptor
1 10 donor
1 11 donor
1 12 donor
1 2 acceptor
1 3 acceptor
1 3 donor
1 4 acceptor
1 4 donor
1 5 acceptor
1 5 donor
1 6 acceptor
1 6 donor
1 7 acceptor
1 8 acceptor
1 9 donor
6 1 13 14 15 16 17 rings
6 22 23 25 26 29 30 rings
6 24 27 28 31 32 33 rings
6 7 19 20 21 22 23 rings

>  <PUBCHEM_SHAPE_FINGERPRINT>
10006869 2 18335973191630432171
10050765 1 18411138078758306218
10254770 206 17543629735110429114
10411042 1 18049726522484379307
10688039 33 18122628511688036570
1100329 8 18191865846011046165
11014199 57 18193559101690162847
11115154 58 17485060211102720839
11578080 2 16772653593855117074
12160290 23 18200008716930094571
12422481 6 18057344965791821347
12788726 201 18191291870106976058
13540713 4 18130787898074025568
1361 2 18337097987698836213
13690498 29 18198645374673823918
138480 1 16825304412646788035
13944108 23 17257933693666577220
140371 6 17616249621068240634
14068700 686 18053660567363316456
14508225 48 18194396925319104870
14790565 3 18196095438813983089
15131766 46 15504380113060768694
15463212 79 18262230015331414266
15484559 13 17837767833426351551
17357779 13 17982160420581768986
1813 80 17767144346333510902
19591789 44 18267018367185251353
20101258 96 18119543264584813442
20775438 99 17766234985840219669
21033648 144 18343867719350468664
21033648 29 18339635629996413648
21307412 95 17843144519371973382
21641784 216 18048331221354704092
21703447 108 18196922482976566226
23227448 37 18412825798245716428
23559900 14 18201999920346542688
238 59 17688559707949800469
3298306 158 18050845511872374654
3610482 184 17969243217130771598
38695281 34 18051131393374722297
4058900 60 17977675212157126569
44062 13 18341619213703054494
508706 21 18341040878859799886
59025328 239 17125891581249652975
7164475 11 18193562392178378628

>  <PUBCHEM_SHAPE_MULTIPOLES>
608.69
9.74
6.75
1.2
13.19
0.72
0.16
-1.42
2.09
-9.34
1.15
-0.24
0.37
0.55

>  <PUBCHEM_SHAPE_SELFOVERLAP>
1341.774

>  <PUBCHEM_SHAPE_VOLUME>
322.8

>  <RI>
-1.01143e+09

>  <Rbt.Current_Directory>
/root/miniconda3/envs/rdock/share/rxdock-2013.1.1_148c5bd1-0/data/ligands/prepped_ligands/Hyperoside

>  <Rbt.Executable>
rbdock/0.1.0

>  <Rbt.Library>
librxdock.so/0.1.0

>  <Rbt.Parameter_File>
/root/miniconda3/envs/rdock/share/rxdock-2013.1.1_148c5bd1-0/data/scripts/dock.prm

>  <Rbt.Receptor>
def.prm

>  <SCORE>
-18.0444

>  <SCORE.INTER>
-12.0294

>  <SCORE.INTER.CONST>
1

>  <SCORE.INTER.POLAR>
-1.48474

>  <SCORE.INTER.REPUL>
0.000725211

>  <SCORE.INTER.ROT>
4

>  <SCORE.INTER.VDW>
-16.3849

>  <SCORE.INTER.norm>
-0.364526

>  <SCORE.INTRA>
-5.05711

>  <SCORE.INTRA.DIHEDRAL>
-1.62111

>  <SCORE.INTRA.DIHEDRAL.0>
13.4636

>  <SCORE.INTRA.POLAR>
-1.8296

>  <SCORE.INTRA.POLAR.0>
-0.250933

>  <SCORE.INTRA.REPUL>
0

>  <SCORE.INTRA.REPUL.0>
0

>  <SCORE.INTRA.VDW>
1.97409

>  <SCORE.INTRA.VDW.0>
-3.21539

>  <SCORE.INTRA.norm>
-0.153246

>  <SCORE.RESTR>
0

>  <SCORE.RESTR.CAVITY>
0

>  <SCORE.RESTR.norm>
0

>  <SCORE.SYSTEM>
-0.957953

>  <SCORE.SYSTEM.CONST>
0

>  <SCORE.SYSTEM.DIHEDRAL>
0.283417

>  <SCORE.SYSTEM.POLAR>
-0.00745703

>  <SCORE.SYSTEM.VDW>
-1.07431

>  <SCORE.SYSTEM.norm>
-0.0290289

>  <SCORE.heavy>
33

>  <SCORE.norm>
-0.546801

$$$$
