5281643
  RxDock  02242111003D
librxdock.so/0.1.0
 41 44  0  0  0  0  0  0  0  0999 V2000
  -47.9083   -0.6756   17.8903 O   0  0  0  0  0  0
  -46.6848   -1.8466   16.2838 O   0  0  0  0  0  0
  -44.8094    2.0206   18.3946 O   0  0  0  0  0  0
  -47.5633    2.1560   18.0384 O   0  0  0  0  0  0
  -44.3174   -0.5578   17.1802 O   0  0  0  0  0  0
  -50.1490   -0.7900   19.3532 O   0  0  0  0  0  0
  -49.7202   -3.8414   15.6559 O   0  0  0  0  0  0
  -46.2934   -4.1156   17.8435 O   0  0  0  0  0  0
  -47.0577   -6.4423   18.7598 O   0  0  0  0  0  0
  -51.2610   -8.0430   17.2387 O   0  0  0  0  0  0
  -47.5023    0.8595   12.7238 O   0  0  0  0  0  0
  -50.1805    1.4439   12.2681 O   0  0  0  0  0  0
  -45.6080    0.8654   18.6357 C   0  0  0  0  0  0
  -47.0262    1.2786   19.0304 C   0  0  0  0  0  0
  -45.6194   -0.0083   17.3818 C   0  0  0  0  0  0
  -47.9182    0.0366   19.1338 C   0  0  0  0  0  0
  -46.6147   -1.1609   17.5336 C   0  0  0  0  0  0
  -49.3681    0.3880   19.4456 C   0  0  0  0  0  0
  -47.6076   -2.8693   16.3182 C   0  0  0  0  0  0
  -48.7568   -2.8459   15.6186 C   0  0  0  0  0  0
  -47.3213   -4.0384   17.1841 C   0  0  0  0  0  0
  -48.3411   -5.0981   17.2085 C   0  0  0  0  0  0
  -49.4924   -4.9429   16.4399 C   0  0  0  0  0  0
  -49.1264   -1.7211   14.7409 C   0  0  0  0  0  0
  -48.1635   -6.2426   17.9901 C   0  0  0  0  0  0
  -50.4756   -5.9328   16.4479 C   0  0  0  0  0  0
  -48.1320   -0.9508   14.1374 C   0  0  0  0  0  0
  -50.4708   -1.4264   14.5129 C   0  0  0  0  0  0
  -49.1481   -7.2313   17.9963 C   0  0  0  0  0  0
  -50.3020   -7.0771   17.2268 C   0  0  0  0  0  0
  -48.4819    0.1136   13.3064 C   0  0  0  0  0  0
  -50.8206   -0.3620   13.6820 C   0  0  0  0  0  0
  -49.8262    0.4080   13.0786 C   0  0  0  0  0  0
  -43.8898    1.7223   18.2887 H   0  0  0  0  0  0
  -46.8651    2.7915   17.8054 H   0  0  0  0  0  0
  -43.7135    0.1888   17.0280 H   0  0  0  0  0  0
  -50.0140   -1.1639   18.4656 H   0  0  0  0  0  0
  -46.8619   -7.3886   18.8357 H   0  0  0  0  0  0
  -50.9058   -8.8348   17.6782 H   0  0  0  0  0  0
  -46.7359    0.2831   12.5595 H   0  0  0  0  0  0
  -49.4014    1.7301   11.7610 H   0  0  0  0  0  0
  1 16  1  0  0  0
  1 17  1  0  0  0
  2 17  1  0  0  0
  2 19  1  0  0  0
  3 13  1  0  0  0
  3 34  1  0  0  0
  4 14  1  0  0  0
  4 35  1  0  0  0
  5 15  1  0  0  0
  5 36  1  0  0  0
  6 18  1  0  0  0
  6 37  1  0  0  0
  7 20  1  0  0  0
  7 23  1  0  0  0
  8 21  2  0  0  0
  9 25  1  0  0  0
  9 38  1  0  0  0
 10 30  1  0  0  0
 10 39  1  0  0  0
 11 31  1  0  0  0
 11 40  1  0  0  0
 12 33  1  0  0  0
 12 41  1  0  0  0
 13 14  1  0  0  0
 13 15  1  0  0  0
 14 16  1  0  0  0
 15 17  1  0  0  0
 16 18  1  0  0  0
 19 20  2  0  0  0
 19 21  1  0  0  0
 20 24  1  0  0  0
 21 22  1  0  0  0
 22 23  1  0  0  0
 22 25  2  0  0  0
 23 26  2  0  0  0
 24 27  2  0  0  0
 24 28  1  0  0  0
 25 29  1  0  0  0
 26 30  1  0  0  0
 27 31  1  0  0  0
 28 32  2  0  0  0
 29 30  2  0  0  0
 31 33  2  0  0  0
 32 33  1  0  0  0
M  END
>  <CHROM.0>
171.05248035,61.58876224,-59.88336929

>  <CHROM.1>
-56.34714227,111.70786276,171.07356464,-43.62514859,-62.87117775,-56.07031142
-149.54549639,168.59936826,31.61292778,13.93517500,51.62238926,-152.72757022
-48.18448476,-1.99972064,16.66057149,-1.12420488,0.90645745,2.63871537

>  <Name>
5281643

>  <PUBCHEM_ATOM_DEF_STEREO_COUNT>
5

>  <PUBCHEM_ATOM_UDEF_STEREO_COUNT>
0

>  <PUBCHEM_BOND_DEF_STEREO_COUNT>
0

>  <PUBCHEM_BOND_UDEF_STEREO_COUNT>
0

>  <PUBCHEM_CACTVS_TAUTO_COUNT>
162

>  <PUBCHEM_COMPONENT_COUNT>
1

>  <PUBCHEM_COMPOUND_CID>
5281643

>  <PUBCHEM_CONFORMER_DIVERSEORDER>
1
86
59
70
75
65
68
80
35
60
72
84
10
81
85
66
61
88
58
63
62
69
39
16
83
52
30
67
49
47
76
25
2
57
64
87
14
71
45
19
53
36
79
27
42
9
34
4
29
40
78
48
43
56
12
11
44
74
17
38
82
37
23
3
8
31
6
50
33
28
55
22
73
77
51
46
5
24
41
26
20
18
32
54
7
21
15
13

>  <PUBCHEM_CONFORMER_ID>
0050976B00000001

>  <PUBCHEM_CONFORMER_RMSD>
0.8

>  <PUBCHEM_COORDINATE_TYPE>
2
5
10

>  <PUBCHEM_EFFECTIVE_ROTOR_COUNT>
5.2

>  <PUBCHEM_FEATURE_SELFOVERLAP>
101.615

>  <PUBCHEM_HEAVY_ATOM_COUNT>
33

>  <PUBCHEM_ISOTOPIC_ATOM_COUNT>
0

>  <PUBCHEM_MMFF94_ENERGY>
104.7486

>  <PUBCHEM_MMFF94_PARTIAL_CHARGES>
46
1 -0.56
10 -0.53
11 -0.53
12 -0.53
13 0.28
14 0.28
15 0.28
16 0.28
17 0.56
18 0.28
19 0.09
2 -0.36
20 0.05
21 0.47
22 0.09
23 0.08
24 0.03
25 0.08
26 -0.15
27 -0.15
28 -0.15
29 -0.15
3 -0.68
30 0.08
31 0.08
32 -0.15
33 0.08
4 -0.68
41 0.4
42 0.4
43 0.4
44 0.4
45 0.15
46 0.15
47 0.15
48 0.15
49 0.15
5 -0.68
50 0.45
51 0.45
52 0.45
53 0.45
6 -0.68
7 -0.16
8 -0.57
9 -0.53

>  <PUBCHEM_PHARMACOPHORE_FEATURES>
20
1 1 acceptor
1 10 donor
1 11 donor
1 12 donor
1 2 acceptor
1 3 acceptor
1 3 donor
1 4 acceptor
1 4 donor
1 5 acceptor
1 5 donor
1 6 acceptor
1 6 donor
1 7 acceptor
1 8 acceptor
1 9 donor
6 1 13 14 15 16 17 rings
6 22 23 25 26 29 30 rings
6 24 27 28 31 32 33 rings
6 7 19 20 21 22 23 rings

>  <PUBCHEM_SHAPE_FINGERPRINT>
10006869 2 18335973191630432171
10050765 1 18411138078758306218
10254770 206 17543629735110429114
10411042 1 18049726522484379307
10688039 33 18122628511688036570
1100329 8 18191865846011046165
11014199 57 18193559101690162847
11115154 58 17485060211102720839
11578080 2 16772653593855117074
12160290 23 18200008716930094571
12422481 6 18057344965791821347
12788726 201 18191291870106976058
13540713 4 18130787898074025568
1361 2 18337097987698836213
13690498 29 18198645374673823918
138480 1 16825304412646788035
13944108 23 17257933693666577220
140371 6 17616249621068240634
14068700 686 18053660567363316456
14508225 48 18194396925319104870
14790565 3 18196095438813983089
15131766 46 15504380113060768694
15463212 79 18262230015331414266
15484559 13 17837767833426351551
17357779 13 17982160420581768986
1813 80 17767144346333510902
19591789 44 18267018367185251353
20101258 96 18119543264584813442
20775438 99 17766234985840219669
21033648 144 18343867719350468664
21033648 29 18339635629996413648
21307412 95 17843144519371973382
21641784 216 18048331221354704092
21703447 108 18196922482976566226
23227448 37 18412825798245716428
23559900 14 18201999920346542688
238 59 17688559707949800469
3298306 158 18050845511872374654
3610482 184 17969243217130771598
38695281 34 18051131393374722297
4058900 60 17977675212157126569
44062 13 18341619213703054494
508706 21 18341040878859799886
59025328 239 17125891581249652975
7164475 11 18193562392178378628

>  <PUBCHEM_SHAPE_MULTIPOLES>
608.69
9.74
6.75
1.2
13.19
0.72
0.16
-1.42
2.09
-9.34
1.15
-0.24
0.37
0.55

>  <PUBCHEM_SHAPE_SELFOVERLAP>
1341.774

>  <PUBCHEM_SHAPE_VOLUME>
322.8

>  <RI>
-1.72645e+08

>  <Rbt.Current_Directory>
/root/miniconda3/envs/rdock/share/rxdock-2013.1.1_148c5bd1-0/data/ligands/prepped_ligands/Hyperoside

>  <Rbt.Executable>
rbdock/0.1.0

>  <Rbt.Library>
librxdock.so/0.1.0

>  <Rbt.Parameter_File>
/root/miniconda3/envs/rdock/share/rxdock-2013.1.1_148c5bd1-0/data/scripts/dock.prm

>  <Rbt.Receptor>
def.prm

>  <SCORE>
-21.5531

>  <SCORE.INTER>
-21.6593

>  <SCORE.INTER.CONST>
1

>  <SCORE.INTER.POLAR>
-3.02253

>  <SCORE.INTER.REPUL>
0.350123

>  <SCORE.INTER.ROT>
4

>  <SCORE.INTER.VDW>
-22.5333

>  <SCORE.INTER.norm>
-0.656343

>  <SCORE.INTRA>
0.965824

>  <SCORE.INTRA.DIHEDRAL>
-3.19347

>  <SCORE.INTRA.DIHEDRAL.0>
13.4636

>  <SCORE.INTRA.POLAR>
-0.0596932

>  <SCORE.INTRA.POLAR.0>
-0.250933

>  <SCORE.INTRA.REPUL>
0

>  <SCORE.INTRA.REPUL.0>
0

>  <SCORE.INTRA.VDW>
2.76552

>  <SCORE.INTRA.VDW.0>
-3.21539

>  <SCORE.INTRA.norm>
0.0292674

>  <SCORE.RESTR>
0

>  <SCORE.RESTR.CAVITY>
0

>  <SCORE.RESTR.norm>
0

>  <SCORE.SYSTEM>
-0.859604

>  <SCORE.SYSTEM.CONST>
0

>  <SCORE.SYSTEM.DIHEDRAL>
0.212902

>  <SCORE.SYSTEM.POLAR>
-0.0010749

>  <SCORE.SYSTEM.VDW>
-0.9624

>  <SCORE.SYSTEM.norm>
-0.0260486

>  <SCORE.heavy>
33

>  <SCORE.norm>
-0.653124

$$$$
5281643
  RxDock  02242111013D
librxdock.so/0.1.0
 41 44  0  0  0  0  0  0  0  0999 V2000
  -49.1337   -1.7887   17.1326 O   0  0  0  0  0  0
  -48.3271   -3.7786   16.2168 O   0  0  0  0  0  0
  -45.2940   -0.5933   18.1095 O   0  0  0  0  0  0
  -47.5150    0.5523   16.8914 O   0  0  0  0  0  0
  -45.8637   -3.3778   17.5732 O   0  0  0  0  0  0
  -51.3999   -0.5278   17.8427 O   0  0  0  0  0  0
  -51.7188   -3.4439   14.8129 O   0  0  0  0  0  0
  -49.6966   -5.9262   17.3333 O   0  0  0  0  0  0
  -51.8570   -7.3622   17.6616 O   0  0  0  0  0  0
  -55.7293   -5.9333   15.3148 O   0  0  0  0  0  0
  -46.5768   -0.4251   13.9702 O   0  0  0  0  0  0
  -48.2308    1.2606   12.5056 O   0  0  0  0  0  0
  -46.5772   -1.1878   18.2836 C   0  0  0  0  0  0
  -47.6717   -0.1302   18.1371 C   0  0  0  0  0  0
  -46.7553   -2.3080   17.2594 C   0  0  0  0  0  0
  -49.0490   -0.8019   18.1683 C   0  0  0  0  0  0
  -48.1878   -2.8457   17.2880 C   0  0  0  0  0  0
  -50.1837    0.1908   17.9451 C   0  0  0  0  0  0
  -49.6518   -4.0221   15.9263 C   0  0  0  0  0  0
  -50.3776   -3.2463   15.1005 C   0  0  0  0  0  0
  -50.3055   -5.1853   16.5731 C   0  0  0  0  0  0
  -51.7252   -5.3980   16.2528 C   0  0  0  0  0  0
  -52.3602   -4.5117   15.3858 C   0  0  0  0  0  0
  -49.8123   -2.0662   14.4225 C   0  0  0  0  0  0
  -52.4303   -6.4686   16.8084 C   0  0  0  0  0  0
  -53.7071   -4.6904   15.0683 C   0  0  0  0  0  0
  -48.4466   -1.7961   14.5143 C   0  0  0  0  0  0
  -50.6424   -1.2188   13.6883 C   0  0  0  0  0  0
  -53.7771   -6.6455   16.4891 C   0  0  0  0  0  0
  -54.4145   -5.7583   15.6207 C   0  0  0  0  0  0
  -47.9114   -0.6793   13.8722 C   0  0  0  0  0  0
  -50.1072   -0.1020   13.0463 C   0  0  0  0  0  0
  -48.7417    0.1677   13.1382 C   0  0  0  0  0  0
  -45.2410   -0.2779   17.1911 H   0  0  0  0  0  0
  -46.7145    1.1003   16.9602 H   0  0  0  0  0  0
  -44.9597   -3.0360   17.4664 H   0  0  0  0  0  0
  -51.2980   -1.1786   17.1271 H   0  0  0  0  0  0
  -50.9432   -7.1062   17.8594 H   0  0  0  0  0  0
  -56.0443   -6.7527   15.7338 H   0  0  0  0  0  0
  -46.3659    0.3289   13.3926 H   0  0  0  0  0  0
  -47.6051    0.9668   11.8213 H   0  0  0  0  0  0
  1 16  1  0  0  0
  1 17  1  0  0  0
  2 17  1  0  0  0
  2 19  1  0  0  0
  3 13  1  0  0  0
  3 34  1  0  0  0
  4 14  1  0  0  0
  4 35  1  0  0  0
  5 15  1  0  0  0
  5 36  1  0  0  0
  6 18  1  0  0  0
  6 37  1  0  0  0
  7 20  1  0  0  0
  7 23  1  0  0  0
  8 21  2  0  0  0
  9 25  1  0  0  0
  9 38  1  0  0  0
 10 30  1  0  0  0
 10 39  1  0  0  0
 11 31  1  0  0  0
 11 40  1  0  0  0
 12 33  1  0  0  0
 12 41  1  0  0  0
 13 14  1  0  0  0
 13 15  1  0  0  0
 14 16  1  0  0  0
 15 17  1  0  0  0
 16 18  1  0  0  0
 19 20  2  0  0  0
 19 21  1  0  0  0
 20 24  1  0  0  0
 21 22  1  0  0  0
 22 23  1  0  0  0
 22 25  2  0  0  0
 23 26  2  0  0  0
 24 27  2  0  0  0
 24 28  1  0  0  0
 25 29  1  0  0  0
 26 30  1  0  0  0
 27 31  1  0  0  0
 28 32  2  0  0  0
 29 30  2  0  0  0
 31 33  2  0  0  0
 32 33  1  0  0  0
M  END
>  <CHROM.0>
77.20178058,-177.65311099,53.73493277

>  <CHROM.1>
-41.70777887,85.26306636,-64.96466205,-70.10458503,-64.48846400,-56.17232032
3.95471341,176.11120475,174.20827674,63.63488756,52.72165780,-174.39604851
-49.74133425,-2.67919252,16.04971591,-0.52101939,0.56532546,2.37501813

>  <Name>
5281643

>  <PUBCHEM_ATOM_DEF_STEREO_COUNT>
5

>  <PUBCHEM_ATOM_UDEF_STEREO_COUNT>
0

>  <PUBCHEM_BOND_DEF_STEREO_COUNT>
0

>  <PUBCHEM_BOND_UDEF_STEREO_COUNT>
0

>  <PUBCHEM_CACTVS_TAUTO_COUNT>
162

>  <PUBCHEM_COMPONENT_COUNT>
1

>  <PUBCHEM_COMPOUND_CID>
5281643

>  <PUBCHEM_CONFORMER_DIVERSEORDER>
1
86
59
70
75
65
68
80
35
60
72
84
10
81
85
66
61
88
58
63
62
69
39
16
83
52
30
67
49
47
76
25
2
57
64
87
14
71
45
19
53
36
79
27
42
9
34
4
29
40
78
48
43
56
12
11
44
74
17
38
82
37
23
3
8
31
6
50
33
28
55
22
73
77
51
46
5
24
41
26
20
18
32
54
7
21
15
13

>  <PUBCHEM_CONFORMER_ID>
0050976B00000001

>  <PUBCHEM_CONFORMER_RMSD>
0.8

>  <PUBCHEM_COORDINATE_TYPE>
2
5
10

>  <PUBCHEM_EFFECTIVE_ROTOR_COUNT>
5.2

>  <PUBCHEM_FEATURE_SELFOVERLAP>
101.615

>  <PUBCHEM_HEAVY_ATOM_COUNT>
33

>  <PUBCHEM_ISOTOPIC_ATOM_COUNT>
0

>  <PUBCHEM_MMFF94_ENERGY>
104.7486

>  <PUBCHEM_MMFF94_PARTIAL_CHARGES>
46
1 -0.56
10 -0.53
11 -0.53
12 -0.53
13 0.28
14 0.28
15 0.28
16 0.28
17 0.56
18 0.28
19 0.09
2 -0.36
20 0.05
21 0.47
22 0.09
23 0.08
24 0.03
25 0.08
26 -0.15
27 -0.15
28 -0.15
29 -0.15
3 -0.68
30 0.08
31 0.08
32 -0.15
33 0.08
4 -0.68
41 0.4
42 0.4
43 0.4
44 0.4
45 0.15
46 0.15
47 0.15
48 0.15
49 0.15
5 -0.68
50 0.45
51 0.45
52 0.45
53 0.45
6 -0.68
7 -0.16
8 -0.57
9 -0.53

>  <PUBCHEM_PHARMACOPHORE_FEATURES>
20
1 1 acceptor
1 10 donor
1 11 donor
1 12 donor
1 2 acceptor
1 3 acceptor
1 3 donor
1 4 acceptor
1 4 donor
1 5 acceptor
1 5 donor
1 6 acceptor
1 6 donor
1 7 acceptor
1 8 acceptor
1 9 donor
6 1 13 14 15 16 17 rings
6 22 23 25 26 29 30 rings
6 24 27 28 31 32 33 rings
6 7 19 20 21 22 23 rings

>  <PUBCHEM_SHAPE_FINGERPRINT>
10006869 2 18335973191630432171
10050765 1 18411138078758306218
10254770 206 17543629735110429114
10411042 1 18049726522484379307
10688039 33 18122628511688036570
1100329 8 18191865846011046165
11014199 57 18193559101690162847
11115154 58 17485060211102720839
11578080 2 16772653593855117074
12160290 23 18200008716930094571
12422481 6 18057344965791821347
12788726 201 18191291870106976058
13540713 4 18130787898074025568
1361 2 18337097987698836213
13690498 29 18198645374673823918
138480 1 16825304412646788035
13944108 23 17257933693666577220
140371 6 17616249621068240634
14068700 686 18053660567363316456
14508225 48 18194396925319104870
14790565 3 18196095438813983089
15131766 46 15504380113060768694
15463212 79 18262230015331414266
15484559 13 17837767833426351551
17357779 13 17982160420581768986
1813 80 17767144346333510902
19591789 44 18267018367185251353
20101258 96 18119543264584813442
20775438 99 17766234985840219669
21033648 144 18343867719350468664
21033648 29 18339635629996413648
21307412 95 17843144519371973382
21641784 216 18048331221354704092
21703447 108 18196922482976566226
23227448 37 18412825798245716428
23559900 14 18201999920346542688
238 59 17688559707949800469
3298306 158 18050845511872374654
3610482 184 17969243217130771598
38695281 34 18051131393374722297
4058900 60 17977675212157126569
44062 13 18341619213703054494
508706 21 18341040878859799886
59025328 239 17125891581249652975
7164475 11 18193562392178378628

>  <PUBCHEM_SHAPE_MULTIPOLES>
608.69
9.74
6.75
1.2
13.19
0.72
0.16
-1.42
2.09
-9.34
1.15
-0.24
0.37
0.55

>  <PUBCHEM_SHAPE_SELFOVERLAP>
1341.774

>  <PUBCHEM_SHAPE_VOLUME>
322.8

>  <RI>
-1.72645e+08

>  <Rbt.Current_Directory>
/root/miniconda3/envs/rdock/share/rxdock-2013.1.1_148c5bd1-0/data/ligands/prepped_ligands/Hyperoside

>  <Rbt.Executable>
rbdock/0.1.0

>  <Rbt.Library>
librxdock.so/0.1.0

>  <Rbt.Parameter_File>
/root/miniconda3/envs/rdock/share/rxdock-2013.1.1_148c5bd1-0/data/scripts/dock.prm

>  <Rbt.Receptor>
def.prm

>  <SCORE>
-16.0356

>  <SCORE.INTER>
-17.6464

>  <SCORE.INTER.CONST>
1

>  <SCORE.INTER.POLAR>
-1.09358

>  <SCORE.INTER.REPUL>
0.198929

>  <SCORE.INTER.ROT>
4

>  <SCORE.INTER.VDW>
-24.3229

>  <SCORE.INTER.norm>
-0.534741

>  <SCORE.INTRA>
2.16097

>  <SCORE.INTRA.DIHEDRAL>
-2.15822

>  <SCORE.INTRA.DIHEDRAL.0>
13.4636

>  <SCORE.INTRA.POLAR>
0.160526

>  <SCORE.INTRA.POLAR.0>
-0.250933

>  <SCORE.INTRA.REPUL>
0

>  <SCORE.INTRA.REPUL.0>
0

>  <SCORE.INTRA.VDW>
2.69429

>  <SCORE.INTRA.VDW.0>
-3.21539

>  <SCORE.INTRA.norm>
0.0654841

>  <SCORE.RESTR>
0

>  <SCORE.RESTR.CAVITY>
0

>  <SCORE.RESTR.norm>
0

>  <SCORE.SYSTEM>
-0.550093

>  <SCORE.SYSTEM.CONST>
0

>  <SCORE.SYSTEM.DIHEDRAL>
0.79931

>  <SCORE.SYSTEM.VDW>
-0.949748

>  <SCORE.SYSTEM.norm>
-0.0166695

>  <SCORE.heavy>
33

>  <SCORE.norm>
-0.485926

$$$$
5281643
  RxDock  02242111013D
librxdock.so/0.1.0
 41 44  0  0  0  0  0  0  0  0999 V2000
  -46.8114   -1.5004   18.4488 O   0  0  0  0  0  0
  -49.1357   -1.4365   18.6546 O   0  0  0  0  0  0
  -46.4991    2.3535   19.9240 O   0  0  0  0  0  0
  -45.2540   -0.0894   20.3833 O   0  0  0  0  0  0
  -49.0160    1.3932   18.8714 O   0  0  0  0  0  0
  -44.7457   -2.9138   17.3490 O   0  0  0  0  0  0
  -48.6286   -4.4271   16.5602 O   0  0  0  0  0  0
  -49.6563   -3.5370   20.4014 O   0  0  0  0  0  0
  -49.8633   -6.0867   20.9430 O   0  0  0  0  0  0
  -48.9772   -9.0906   17.3743 O   0  0  0  0  0  0
  -50.1002    0.4173   13.9637 O   0  0  0  0  0  0
  -47.5103    0.6302   12.9791 O   0  0  0  0  0  0
  -46.6085    1.3146   18.9551 C   0  0  0  0  0  0
  -45.3988    0.3834   19.0425 C   0  0  0  0  0  0
  -47.9099    0.5473   19.1855 C   0  0  0  0  0  0
  -45.5991   -0.8158   18.1093 C   0  0  0  0  0  0
  -47.9753   -0.6907   18.2882 C   0  0  0  0  0  0
  -44.4622   -1.8257   18.2104 C   0  0  0  0  0  0
  -49.0399   -2.7515   18.2543 C   0  0  0  0  0  0
  -48.7021   -3.1162   17.0039 C   0  0  0  0  0  0
  -49.3434   -3.8077   19.2498 C   0  0  0  0  0  0
  -49.2498   -5.1973   18.7767 C   0  0  0  0  0  0
  -48.8961   -5.4349   17.4504 C   0  0  0  0  0  0
  -48.3933   -2.1343   15.9491 C   0  0  0  0  0  0
  -49.5127   -6.2647   19.6389 C   0  0  0  0  0  0
  -48.8030   -6.7440   16.9768 C   0  0  0  0  0  0
  -49.4006   -1.3104   15.4461 C   0  0  0  0  0  0
  -47.0936   -2.0280   15.4535 C   0  0  0  0  0  0
  -49.4187   -7.5731   19.1629 C   0  0  0  0  0  0
  -49.0645   -7.8126   17.8346 C   0  0  0  0  0  0
  -49.1082   -0.3807   14.4480 C   0  0  0  0  0  0
  -46.8013   -1.0984   14.4554 C   0  0  0  0  0  0
  -47.8086   -0.2747   13.9527 C   0  0  0  0  0  0
  -47.2273    2.9781   19.7651 H   0  0  0  0  0  0
  -44.4168   -0.5822   20.4276 H   0  0  0  0  0  0
  -49.0294    2.1032   19.5356 H   0  0  0  0  0  0
  -43.9633   -3.4914   17.3369 H   0  0  0  0  0  0
  -49.8753   -5.1436   21.1667 H   0  0  0  0  0  0
  -48.1957   -9.1664   16.8001 H   0  0  0  0  0  0
  -49.7460    0.9236   13.2122 H   0  0  0  0  0  0
  -46.7273    0.3232   12.4906 H   0  0  0  0  0  0
  1 16  1  0  0  0
  1 17  1  0  0  0
  2 17  1  0  0  0
  2 19  1  0  0  0
  3 13  1  0  0  0
  3 34  1  0  0  0
  4 14  1  0  0  0
  4 35  1  0  0  0
  5 15  1  0  0  0
  5 36  1  0  0  0
  6 18  1  0  0  0
  6 37  1  0  0  0
  7 20  1  0  0  0
  7 23  1  0  0  0
  8 21  2  0  0  0
  9 25  1  0  0  0
  9 38  1  0  0  0
 10 30  1  0  0  0
 10 39  1  0  0  0
 11 31  1  0  0  0
 11 40  1  0  0  0
 12 33  1  0  0  0
 12 41  1  0  0  0
 13 14  1  0  0  0
 13 15  1  0  0  0
 14 16  1  0  0  0
 15 17  1  0  0  0
 16 18  1  0  0  0
 19 20  2  0  0  0
 19 21  1  0  0  0
 20 24  1  0  0  0
 21 22  1  0  0  0
 22 23  1  0  0  0
 22 25  2  0  0  0
 23 26  2  0  0  0
 24 27  2  0  0  0
 24 28  1  0  0  0
 25 29  1  0  0  0
 26 30  1  0  0  0
 27 31  1  0  0  0
 28 32  2  0  0  0
 29 30  2  0  0  0
 31 33  2  0  0  0
 32 33  1  0  0  0
M  END
>  <CHROM.0>
59.61367747,59.71219249,179.41825253

>  <CHROM.1>
-38.00399321,-49.90326661,173.37964247,-172.87563513,-67.30444900,172.84773981
-1.46953904,41.29654306,-173.50155379,-155.16638913,57.36711980,111.04810201
-47.98541056,-2.38463080,17.66366179,-0.74948803,1.19682582,2.16514544

>  <Name>
5281643

>  <PUBCHEM_ATOM_DEF_STEREO_COUNT>
5

>  <PUBCHEM_ATOM_UDEF_STEREO_COUNT>
0

>  <PUBCHEM_BOND_DEF_STEREO_COUNT>
0

>  <PUBCHEM_BOND_UDEF_STEREO_COUNT>
0

>  <PUBCHEM_CACTVS_TAUTO_COUNT>
162

>  <PUBCHEM_COMPONENT_COUNT>
1

>  <PUBCHEM_COMPOUND_CID>
5281643

>  <PUBCHEM_CONFORMER_DIVERSEORDER>
1
86
59
70
75
65
68
80
35
60
72
84
10
81
85
66
61
88
58
63
62
69
39
16
83
52
30
67
49
47
76
25
2
57
64
87
14
71
45
19
53
36
79
27
42
9
34
4
29
40
78
48
43
56
12
11
44
74
17
38
82
37
23
3
8
31
6
50
33
28
55
22
73
77
51
46
5
24
41
26
20
18
32
54
7
21
15
13

>  <PUBCHEM_CONFORMER_ID>
0050976B00000001

>  <PUBCHEM_CONFORMER_RMSD>
0.8

>  <PUBCHEM_COORDINATE_TYPE>
2
5
10

>  <PUBCHEM_EFFECTIVE_ROTOR_COUNT>
5.2

>  <PUBCHEM_FEATURE_SELFOVERLAP>
101.615

>  <PUBCHEM_HEAVY_ATOM_COUNT>
33

>  <PUBCHEM_ISOTOPIC_ATOM_COUNT>
0

>  <PUBCHEM_MMFF94_ENERGY>
104.7486

>  <PUBCHEM_MMFF94_PARTIAL_CHARGES>
46
1 -0.56
10 -0.53
11 -0.53
12 -0.53
13 0.28
14 0.28
15 0.28
16 0.28
17 0.56
18 0.28
19 0.09
2 -0.36
20 0.05
21 0.47
22 0.09
23 0.08
24 0.03
25 0.08
26 -0.15
27 -0.15
28 -0.15
29 -0.15
3 -0.68
30 0.08
31 0.08
32 -0.15
33 0.08
4 -0.68
41 0.4
42 0.4
43 0.4
44 0.4
45 0.15
46 0.15
47 0.15
48 0.15
49 0.15
5 -0.68
50 0.45
51 0.45
52 0.45
53 0.45
6 -0.68
7 -0.16
8 -0.57
9 -0.53

>  <PUBCHEM_PHARMACOPHORE_FEATURES>
20
1 1 acceptor
1 10 donor
1 11 donor
1 12 donor
1 2 acceptor
1 3 acceptor
1 3 donor
1 4 acceptor
1 4 donor
1 5 acceptor
1 5 donor
1 6 acceptor
1 6 donor
1 7 acceptor
1 8 acceptor
1 9 donor
6 1 13 14 15 16 17 rings
6 22 23 25 26 29 30 rings
6 24 27 28 31 32 33 rings
6 7 19 20 21 22 23 rings

>  <PUBCHEM_SHAPE_FINGERPRINT>
10006869 2 18335973191630432171
10050765 1 18411138078758306218
10254770 206 17543629735110429114
10411042 1 18049726522484379307
10688039 33 18122628511688036570
1100329 8 18191865846011046165
11014199 57 18193559101690162847
11115154 58 17485060211102720839
11578080 2 16772653593855117074
12160290 23 18200008716930094571
12422481 6 18057344965791821347
12788726 201 18191291870106976058
13540713 4 18130787898074025568
1361 2 18337097987698836213
13690498 29 18198645374673823918
138480 1 16825304412646788035
13944108 23 17257933693666577220
140371 6 17616249621068240634
14068700 686 18053660567363316456
14508225 48 18194396925319104870
14790565 3 18196095438813983089
15131766 46 15504380113060768694
15463212 79 18262230015331414266
15484559 13 17837767833426351551
17357779 13 17982160420581768986
1813 80 17767144346333510902
19591789 44 18267018367185251353
20101258 96 18119543264584813442
20775438 99 17766234985840219669
21033648 144 18343867719350468664
21033648 29 18339635629996413648
21307412 95 17843144519371973382
21641784 216 18048331221354704092
21703447 108 18196922482976566226
23227448 37 18412825798245716428
23559900 14 18201999920346542688
238 59 17688559707949800469
3298306 158 18050845511872374654
3610482 184 17969243217130771598
38695281 34 18051131393374722297
4058900 60 17977675212157126569
44062 13 18341619213703054494
508706 21 18341040878859799886
59025328 239 17125891581249652975
7164475 11 18193562392178378628

>  <PUBCHEM_SHAPE_MULTIPOLES>
608.69
9.74
6.75
1.2
13.19
0.72
0.16
-1.42
2.09
-9.34
1.15
-0.24
0.37
0.55

>  <PUBCHEM_SHAPE_SELFOVERLAP>
1341.774

>  <PUBCHEM_SHAPE_VOLUME>
322.8

>  <RI>
-1.72645e+08

>  <Rbt.Current_Directory>
/root/miniconda3/envs/rdock/share/rxdock-2013.1.1_148c5bd1-0/data/ligands/prepped_ligands/Hyperoside

>  <Rbt.Executable>
rbdock/0.1.0

>  <Rbt.Library>
librxdock.so/0.1.0

>  <Rbt.Parameter_File>
/root/miniconda3/envs/rdock/share/rxdock-2013.1.1_148c5bd1-0/data/scripts/dock.prm

>  <Rbt.Receptor>
def.prm

>  <SCORE>
-18.6268

>  <SCORE.INTER>
-19.9737

>  <SCORE.INTER.CONST>
1

>  <SCORE.INTER.POLAR>
-2.97414

>  <SCORE.INTER.REPUL>
0.032874

>  <SCORE.INTER.ROT>
4

>  <SCORE.INTER.VDW>
-19.426

>  <SCORE.INTER.norm>
-0.605263

>  <SCORE.INTRA>
2.33446

>  <SCORE.INTRA.DIHEDRAL>
-0.390233

>  <SCORE.INTRA.DIHEDRAL.0>
13.4636

>  <SCORE.INTRA.POLAR>
0.114152

>  <SCORE.INTRA.POLAR.0>
-0.250933

>  <SCORE.INTRA.REPUL>
0

>  <SCORE.INTRA.REPUL.0>
0

>  <SCORE.INTRA.VDW>
2.14146

>  <SCORE.INTRA.VDW.0>
-3.21539

>  <SCORE.INTRA.norm>
0.0707413

>  <SCORE.RESTR>
0

>  <SCORE.RESTR.CAVITY>
0

>  <SCORE.RESTR.norm>
0

>  <SCORE.SYSTEM>
-0.98763

>  <SCORE.SYSTEM.CONST>
0

>  <SCORE.SYSTEM.DIHEDRAL>
0.00257287

>  <SCORE.SYSTEM.POLAR>
-0.000500513

>  <SCORE.SYSTEM.VDW>
-0.987215

>  <SCORE.SYSTEM.norm>
-0.0299282

>  <SCORE.heavy>
33

>  <SCORE.norm>
-0.564449

$$$$
5281643
  RxDock  02242111013D
librxdock.so/0.1.0
 41 44  0  0  0  0  0  0  0  0999 V2000
  -50.2188   -3.2604   19.3564 O   0  0  0  0  0  0
  -50.4064   -1.1477   18.3817 O   0  0  0  0  0  0
  -54.3283   -3.5158   19.7741 O   0  0  0  0  0  0
  -52.2886   -5.1617   18.8465 O   0  0  0  0  0  0
  -53.0581   -0.9474   19.3802 O   0  0  0  0  0  0
  -50.2126   -6.3618   21.2289 O   0  0  0  0  0  0
  -47.6323   -2.9326   16.7368 O   0  0  0  0  0  0
  -48.1468    0.1633   19.3358 O   0  0  0  0  0  0
  -45.5561    0.4941   19.4635 O   0  0  0  0  0  0
  -42.9094   -2.4756   16.8712 O   0  0  0  0  0  0
  -51.2453   -6.7499   16.6073 O   0  0  0  0  0  0
  -53.0221   -5.5725   14.8244 O   0  0  0  0  0  0
  -52.9785   -3.2353   20.1344 C   0  0  0  0  0  0
  -52.1506   -4.5206   20.1162 C   0  0  0  0  0  0
  -52.4053   -2.1991   19.1682 C   0  0  0  0  0  0
  -50.6726   -4.1886   20.3496 C   0  0  0  0  0  0
  -50.9051   -2.0102   19.4037 C   0  0  0  0  0  0
  -49.7804   -5.4211   20.2623 C   0  0  0  0  0  0
  -49.1375   -1.5115   17.9864 C   0  0  0  0  0  0
  -48.8958   -2.5202   17.1292 C   0  0  0  0  0  0
  -47.9891   -0.7630   18.5518 C   0  0  0  0  0  0
  -46.6513   -1.1962   18.1204 C   0  0  0  0  0  0
  -46.5428   -2.2635   17.2318 C   0  0  0  0  0  0
  -49.9752   -3.3226   16.5267 C   0  0  0  0  0  0
  -45.5050   -0.5525   18.5933 C   0  0  0  0  0  0
  -45.2849   -2.6950   16.8097 C   0  0  0  0  0  0
  -50.1062   -4.6728   16.8526 C   0  0  0  0  0  0
  -50.8666   -2.7324   15.6305 C   0  0  0  0  0  0
  -44.2480   -0.9857   18.1694 C   0  0  0  0  0  0
  -44.1379   -2.0547   17.2793 C   0  0  0  0  0  0
  -51.1282   -5.4323   16.2826 C   0  0  0  0  0  0
  -51.8884   -3.4918   15.0605 C   0  0  0  0  0  0
  -52.0193   -4.8418   15.3866 C   0  0  0  0  0  0
  -54.8060   -2.6691   19.7518 H   0  0  0  0  0  0
  -53.2372   -5.3230   18.7052 H   0  0  0  0  0  0
  -53.9919   -1.0684   19.1378 H   0  0  0  0  0  0
  -49.6357   -7.1418   21.1592 H   0  0  0  0  0  0
  -46.4756    0.7157   19.6759 H   0  0  0  0  0  0
  -42.3750   -2.6949   17.6539 H   0  0  0  0  0  0
  -51.6093   -7.2231   15.8391 H   0  0  0  0  0  0
  -53.3129   -6.2510   15.4577 H   0  0  0  0  0  0
  1 16  1  0  0  0
  1 17  1  0  0  0
  2 17  1  0  0  0
  2 19  1  0  0  0
  3 13  1  0  0  0
  3 34  1  0  0  0
  4 14  1  0  0  0
  4 35  1  0  0  0
  5 15  1  0  0  0
  5 36  1  0  0  0
  6 18  1  0  0  0
  6 37  1  0  0  0
  7 20  1  0  0  0
  7 23  1  0  0  0
  8 21  2  0  0  0
  9 25  1  0  0  0
  9 38  1  0  0  0
 10 30  1  0  0  0
 10 39  1  0  0  0
 11 31  1  0  0  0
 11 40  1  0  0  0
 12 33  1  0  0  0
 12 41  1  0  0  0
 13 14  1  0  0  0
 13 15  1  0  0  0
 14 16  1  0  0  0
 15 17  1  0  0  0
 16 18  1  0  0  0
 19 20  2  0  0  0
 19 21  1  0  0  0
 20 24  1  0  0  0
 21 22  1  0  0  0
 22 23  1  0  0  0
 22 25  2  0  0  0
 23 26  2  0  0  0
 24 27  2  0  0  0
 24 28  1  0  0  0
 25 29  1  0  0  0
 26 30  1  0  0  0
 27 31  1  0  0  0
 28 32  2  0  0  0
 29 30  2  0  0  0
 31 33  2  0  0  0
 32 33  1  0  0  0
M  END
>  <CHROM.0>
174.93838468,62.84291044,62.53571526

>  <CHROM.1>
-22.64933645,80.03628748,-177.03143934,-57.22898394,-64.86617579,179.87268984
-0.96263870,-123.90127391,-148.79037996,32.31824925,-179.59981880,65.44932646
-49.54779610,-3.01750474,18.11002680,2.91024016,-0.34334121,-2.27525999

>  <Name>
5281643

>  <PUBCHEM_ATOM_DEF_STEREO_COUNT>
5

>  <PUBCHEM_ATOM_UDEF_STEREO_COUNT>
0

>  <PUBCHEM_BOND_DEF_STEREO_COUNT>
0

>  <PUBCHEM_BOND_UDEF_STEREO_COUNT>
0

>  <PUBCHEM_CACTVS_TAUTO_COUNT>
162

>  <PUBCHEM_COMPONENT_COUNT>
1

>  <PUBCHEM_COMPOUND_CID>
5281643

>  <PUBCHEM_CONFORMER_DIVERSEORDER>
1
86
59
70
75
65
68
80
35
60
72
84
10
81
85
66
61
88
58
63
62
69
39
16
83
52
30
67
49
47
76
25
2
57
64
87
14
71
45
19
53
36
79
27
42
9
34
4
29
40
78
48
43
56
12
11
44
74
17
38
82
37
23
3
8
31
6
50
33
28
55
22
73
77
51
46
5
24
41
26
20
18
32
54
7
21
15
13

>  <PUBCHEM_CONFORMER_ID>
0050976B00000001

>  <PUBCHEM_CONFORMER_RMSD>
0.8

>  <PUBCHEM_COORDINATE_TYPE>
2
5
10

>  <PUBCHEM_EFFECTIVE_ROTOR_COUNT>
5.2

>  <PUBCHEM_FEATURE_SELFOVERLAP>
101.615

>  <PUBCHEM_HEAVY_ATOM_COUNT>
33

>  <PUBCHEM_ISOTOPIC_ATOM_COUNT>
0

>  <PUBCHEM_MMFF94_ENERGY>
104.7486

>  <PUBCHEM_MMFF94_PARTIAL_CHARGES>
46
1 -0.56
10 -0.53
11 -0.53
12 -0.53
13 0.28
14 0.28
15 0.28
16 0.28
17 0.56
18 0.28
19 0.09
2 -0.36
20 0.05
21 0.47
22 0.09
23 0.08
24 0.03
25 0.08
26 -0.15
27 -0.15
28 -0.15
29 -0.15
3 -0.68
30 0.08
31 0.08
32 -0.15
33 0.08
4 -0.68
41 0.4
42 0.4
43 0.4
44 0.4
45 0.15
46 0.15
47 0.15
48 0.15
49 0.15
5 -0.68
50 0.45
51 0.45
52 0.45
53 0.45
6 -0.68
7 -0.16
8 -0.57
9 -0.53

>  <PUBCHEM_PHARMACOPHORE_FEATURES>
20
1 1 acceptor
1 10 donor
1 11 donor
1 12 donor
1 2 acceptor
1 3 acceptor
1 3 donor
1 4 acceptor
1 4 donor
1 5 acceptor
1 5 donor
1 6 acceptor
1 6 donor
1 7 acceptor
1 8 acceptor
1 9 donor
6 1 13 14 15 16 17 rings
6 22 23 25 26 29 30 rings
6 24 27 28 31 32 33 rings
6 7 19 20 21 22 23 rings

>  <PUBCHEM_SHAPE_FINGERPRINT>
10006869 2 18335973191630432171
10050765 1 18411138078758306218
10254770 206 17543629735110429114
10411042 1 18049726522484379307
10688039 33 18122628511688036570
1100329 8 18191865846011046165
11014199 57 18193559101690162847
11115154 58 17485060211102720839
11578080 2 16772653593855117074
12160290 23 18200008716930094571
12422481 6 18057344965791821347
12788726 201 18191291870106976058
13540713 4 18130787898074025568
1361 2 18337097987698836213
13690498 29 18198645374673823918
138480 1 16825304412646788035
13944108 23 17257933693666577220
140371 6 17616249621068240634
14068700 686 18053660567363316456
14508225 48 18194396925319104870
14790565 3 18196095438813983089
15131766 46 15504380113060768694
15463212 79 18262230015331414266
15484559 13 17837767833426351551
17357779 13 17982160420581768986
1813 80 17767144346333510902
19591789 44 18267018367185251353
20101258 96 18119543264584813442
20775438 99 17766234985840219669
21033648 144 18343867719350468664
21033648 29 18339635629996413648
21307412 95 17843144519371973382
21641784 216 18048331221354704092
21703447 108 18196922482976566226
23227448 37 18412825798245716428
23559900 14 18201999920346542688
238 59 17688559707949800469
3298306 158 18050845511872374654
3610482 184 17969243217130771598
38695281 34 18051131393374722297
4058900 60 17977675212157126569
44062 13 18341619213703054494
508706 21 18341040878859799886
59025328 239 17125891581249652975
7164475 11 18193562392178378628

>  <PUBCHEM_SHAPE_MULTIPOLES>
608.69
9.74
6.75
1.2
13.19
0.72
0.16
-1.42
2.09
-9.34
1.15
-0.24
0.37
0.55

>  <PUBCHEM_SHAPE_SELFOVERLAP>
1341.774

>  <PUBCHEM_SHAPE_VOLUME>
322.8

>  <RI>
-1.72645e+08

>  <Rbt.Current_Directory>
/root/miniconda3/envs/rdock/share/rxdock-2013.1.1_148c5bd1-0/data/ligands/prepped_ligands/Hyperoside

>  <Rbt.Executable>
rbdock/0.1.0

>  <Rbt.Library>
librxdock.so/0.1.0

>  <Rbt.Parameter_File>
/root/miniconda3/envs/rdock/share/rxdock-2013.1.1_148c5bd1-0/data/scripts/dock.prm

>  <Rbt.Receptor>
def.prm

>  <SCORE>
-8.06412

>  <SCORE.INTER>
-11.8049

>  <SCORE.INTER.CONST>
1

>  <SCORE.INTER.POLAR>
-1.98451

>  <SCORE.INTER.REPUL>
0.0350785

>  <SCORE.INTER.ROT>
4

>  <SCORE.INTER.VDW>
-14.633

>  <SCORE.INTER.norm>
-0.357725

>  <SCORE.INTRA>
4.67074

>  <SCORE.INTRA.DIHEDRAL>
6.33957

>  <SCORE.INTRA.DIHEDRAL.0>
13.4636

>  <SCORE.INTRA.POLAR>
0.218315

>  <SCORE.INTRA.POLAR.0>
-0.250933

>  <SCORE.INTRA.REPUL>
0

>  <SCORE.INTRA.REPUL.0>
0

>  <SCORE.INTRA.VDW>
0.758685

>  <SCORE.INTRA.VDW.0>
-3.21539

>  <SCORE.INTRA.norm>
0.141538

>  <SCORE.RESTR>
0

>  <SCORE.RESTR.CAVITY>
0

>  <SCORE.RESTR.norm>
0

>  <SCORE.SYSTEM>
-0.929937

>  <SCORE.SYSTEM.CONST>
0

>  <SCORE.SYSTEM.DIHEDRAL>
0.12033

>  <SCORE.SYSTEM.POLAR>
-0.00664456

>  <SCORE.SYSTEM.VDW>
-0.96751

>  <SCORE.SYSTEM.norm>
-0.0281799

>  <SCORE.heavy>
33

>  <SCORE.norm>
-0.244367

$$$$
5281643
  RxDock  02242111013D
librxdock.so/0.1.0
 41 44  0  0  0  0  0  0  0  0999 V2000
  -46.7309   -0.7519   18.4582 O   0  0  0  0  0  0
  -48.7530   -1.8765   18.7663 O   0  0  0  0  0  0
  -48.5816    2.8993   19.0672 O   0  0  0  0  0  0
  -46.2773    1.6306   19.9671 O   0  0  0  0  0  0
  -50.1461    0.5677   18.3736 O   0  0  0  0  0  0
  -44.3599   -0.1169   19.5476 O   0  0  0  0  0  0
  -50.4058   -3.0679   15.6945 O   0  0  0  0  0  0
  -51.1953   -2.8383   19.6855 O   0  0  0  0  0  0
  -53.5338   -3.9401   19.2921 O   0  0  0  0  0  0
  -54.6220   -5.0607   14.8084 O   0  0  0  0  0  0
  -47.1987    0.3152   13.3772 O   0  0  0  0  0  0
  -44.7538   -0.8003   14.0846 O   0  0  0  0  0  0
  -48.0652    1.7837   18.3467 C   0  0  0  0  0  0
  -46.5564    1.6678   18.5660 C   0  0  0  0  0  0
  -48.7853    0.5147   18.8015 C   0  0  0  0  0  0
  -46.0359    0.3795   17.9191 C   0  0  0  0  0  0
  -48.1324   -0.7273   18.1908 C   0  0  0  0  0  0
  -44.5487    0.1632   18.1721 C   0  0  0  0  0  0
  -49.6797   -2.4331   17.9118 C   0  0  0  0  0  0
  -49.4825   -2.5439   16.5853 C   0  0  0  0  0  0
  -50.9593   -2.9130   18.4870 C   0  0  0  0  0  0
  -51.9293   -3.4810   17.5384 C   0  0  0  0  0  0
  -51.6001   -3.5284   16.1857 C   0  0  0  0  0  0
  -48.2458   -2.0855   15.9279 C   0  0  0  0  0  0
  -53.1630   -3.9643   17.9817 C   0  0  0  0  0  0
  -52.5042   -4.0602   15.2656 C   0  0  0  0  0  0
  -48.3019   -1.0903   14.9518 C   0  0  0  0  0  0
  -47.0183   -2.6462   16.2816 C   0  0  0  0  0  0
  -54.0655   -4.4960   17.0597 C   0  0  0  0  0  0
  -53.7370   -4.5440   15.7043 C   0  0  0  0  0  0
  -47.1312   -0.6560   14.3298 C   0  0  0  0  0  0
  -45.8476   -2.2120   15.6596 C   0  0  0  0  0  0
  -45.9041   -1.2169   14.6837 C   0  0  0  0  0  0
  -48.3934    2.7501   20.0095 H   0  0  0  0  0  0
  -46.6608    0.8083   20.3170 H   0  0  0  0  0  0
  -50.5997   -0.1950   18.7710 H   0  0  0  0  0  0
  -43.4034   -0.2016   19.7023 H   0  0  0  0  0  0
  -52.8597   -3.4958   19.8286 H   0  0  0  0  0  0
  -54.1512   -5.2656   13.9822 H   0  0  0  0  0  0
  -48.1212    0.3848   13.0761 H   0  0  0  0  0  0
  -44.0807   -1.4969   14.1724 H   0  0  0  0  0  0
  1 16  1  0  0  0
  1 17  1  0  0  0
  2 17  1  0  0  0
  2 19  1  0  0  0
  3 13  1  0  0  0
  3 34  1  0  0  0
  4 14  1  0  0  0
  4 35  1  0  0  0
  5 15  1  0  0  0
  5 36  1  0  0  0
  6 18  1  0  0  0
  6 37  1  0  0  0
  7 20  1  0  0  0
  7 23  1  0  0  0
  8 21  2  0  0  0
  9 25  1  0  0  0
  9 38  1  0  0  0
 10 30  1  0  0  0
 10 39  1  0  0  0
 11 31  1  0  0  0
 11 40  1  0  0  0
 12 33  1  0  0  0
 12 41  1  0  0  0
 13 14  1  0  0  0
 13 15  1  0  0  0
 14 16  1  0  0  0
 15 17  1  0  0  0
 16 18  1  0  0  0
 19 20  2  0  0  0
 19 21  1  0  0  0
 20 24  1  0  0  0
 21 22  1  0  0  0
 22 23  1  0  0  0
 22 25  2  0  0  0
 23 26  2  0  0  0
 24 27  2  0  0  0
 24 28  1  0  0  0
 25 29  1  0  0  0
 26 30  1  0  0  0
 27 31  1  0  0  0
 28 32  2  0  0  0
 29 30  2  0  0  0
 31 33  2  0  0  0
 32 33  1  0  0  0
M  END
>  <CHROM.0>
-52.09590193,-60.00505885,58.95490108

>  <CHROM.1>
-137.52029395,40.12885859,-60.22891437,65.47355367,-173.10890128,-176.80285644
3.89817447,17.05221718,-16.99092903,-157.85242058,-52.36590209,59.72931247
-48.98238783,-1.47189722,17.19774983,0.32502604,0.48755172,1.11868231

>  <Name>
5281643

>  <PUBCHEM_ATOM_DEF_STEREO_COUNT>
5

>  <PUBCHEM_ATOM_UDEF_STEREO_COUNT>
0

>  <PUBCHEM_BOND_DEF_STEREO_COUNT>
0

>  <PUBCHEM_BOND_UDEF_STEREO_COUNT>
0

>  <PUBCHEM_CACTVS_TAUTO_COUNT>
162

>  <PUBCHEM_COMPONENT_COUNT>
1

>  <PUBCHEM_COMPOUND_CID>
5281643

>  <PUBCHEM_CONFORMER_DIVERSEORDER>
1
86
59
70
75
65
68
80
35
60
72
84
10
81
85
66
61
88
58
63
62
69
39
16
83
52
30
67
49
47
76
25
2
57
64
87
14
71
45
19
53
36
79
27
42
9
34
4
29
40
78
48
43
56
12
11
44
74
17
38
82
37
23
3
8
31
6
50
33
28
55
22
73
77
51
46
5
24
41
26
20
18
32
54
7
21
15
13

>  <PUBCHEM_CONFORMER_ID>
0050976B00000001

>  <PUBCHEM_CONFORMER_RMSD>
0.8

>  <PUBCHEM_COORDINATE_TYPE>
2
5
10

>  <PUBCHEM_EFFECTIVE_ROTOR_COUNT>
5.2

>  <PUBCHEM_FEATURE_SELFOVERLAP>
101.615

>  <PUBCHEM_HEAVY_ATOM_COUNT>
33

>  <PUBCHEM_ISOTOPIC_ATOM_COUNT>
0

>  <PUBCHEM_MMFF94_ENERGY>
104.7486

>  <PUBCHEM_MMFF94_PARTIAL_CHARGES>
46
1 -0.56
10 -0.53
11 -0.53
12 -0.53
13 0.28
14 0.28
15 0.28
16 0.28
17 0.56
18 0.28
19 0.09
2 -0.36
20 0.05
21 0.47
22 0.09
23 0.08
24 0.03
25 0.08
26 -0.15
27 -0.15
28 -0.15
29 -0.15
3 -0.68
30 0.08
31 0.08
32 -0.15
33 0.08
4 -0.68
41 0.4
42 0.4
43 0.4
44 0.4
45 0.15
46 0.15
47 0.15
48 0.15
49 0.15
5 -0.68
50 0.45
51 0.45
52 0.45
53 0.45
6 -0.68
7 -0.16
8 -0.57
9 -0.53

>  <PUBCHEM_PHARMACOPHORE_FEATURES>
20
1 1 acceptor
1 10 donor
1 11 donor
1 12 donor
1 2 acceptor
1 3 acceptor
1 3 donor
1 4 acceptor
1 4 donor
1 5 acceptor
1 5 donor
1 6 acceptor
1 6 donor
1 7 acceptor
1 8 acceptor
1 9 donor
6 1 13 14 15 16 17 rings
6 22 23 25 26 29 30 rings
6 24 27 28 31 32 33 rings
6 7 19 20 21 22 23 rings

>  <PUBCHEM_SHAPE_FINGERPRINT>
10006869 2 18335973191630432171
10050765 1 18411138078758306218
10254770 206 17543629735110429114
10411042 1 18049726522484379307
10688039 33 18122628511688036570
1100329 8 18191865846011046165
11014199 57 18193559101690162847
11115154 58 17485060211102720839
11578080 2 16772653593855117074
12160290 23 18200008716930094571
12422481 6 18057344965791821347
12788726 201 18191291870106976058
13540713 4 18130787898074025568
1361 2 18337097987698836213
13690498 29 18198645374673823918
138480 1 16825304412646788035
13944108 23 17257933693666577220
140371 6 17616249621068240634
14068700 686 18053660567363316456
14508225 48 18194396925319104870
14790565 3 18196095438813983089
15131766 46 15504380113060768694
15463212 79 18262230015331414266
15484559 13 17837767833426351551
17357779 13 17982160420581768986
1813 80 17767144346333510902
19591789 44 18267018367185251353
20101258 96 18119543264584813442
20775438 99 17766234985840219669
21033648 144 18343867719350468664
21033648 29 18339635629996413648
21307412 95 17843144519371973382
21641784 216 18048331221354704092
21703447 108 18196922482976566226
23227448 37 18412825798245716428
23559900 14 18201999920346542688
238 59 17688559707949800469
3298306 158 18050845511872374654
3610482 184 17969243217130771598
38695281 34 18051131393374722297
4058900 60 17977675212157126569
44062 13 18341619213703054494
508706 21 18341040878859799886
59025328 239 17125891581249652975
7164475 11 18193562392178378628

>  <PUBCHEM_SHAPE_MULTIPOLES>
608.69
9.74
6.75
1.2
13.19
0.72
0.16
-1.42
2.09
-9.34
1.15
-0.24
0.37
0.55

>  <PUBCHEM_SHAPE_SELFOVERLAP>
1341.774

>  <PUBCHEM_SHAPE_VOLUME>
322.8

>  <RI>
-1.72645e+08

>  <Rbt.Current_Directory>
/root/miniconda3/envs/rdock/share/rxdock-2013.1.1_148c5bd1-0/data/ligands/prepped_ligands/Hyperoside

>  <Rbt.Executable>
rbdock/0.1.0

>  <Rbt.Library>
librxdock.so/0.1.0

>  <Rbt.Parameter_File>
/root/miniconda3/envs/rdock/share/rxdock-2013.1.1_148c5bd1-0/data/scripts/dock.prm

>  <Rbt.Receptor>
def.prm

>  <SCORE>
-9.83017

>  <SCORE.INTER>
-13.2307

>  <SCORE.INTER.CONST>
1

>  <SCORE.INTER.POLAR>
-1.37763

>  <SCORE.INTER.REPUL>
0

>  <SCORE.INTER.ROT>
4

>  <SCORE.INTER.VDW>
-17.9468

>  <SCORE.INTER.norm>
-0.40093

>  <SCORE.INTRA>
4.18323

>  <SCORE.INTRA.DIHEDRAL>
0.153153

>  <SCORE.INTRA.DIHEDRAL.0>
13.4636

>  <SCORE.INTRA.POLAR>
0.24597

>  <SCORE.INTRA.POLAR.0>
-0.250933

>  <SCORE.INTRA.REPUL>
0

>  <SCORE.INTRA.REPUL.0>
0

>  <SCORE.INTRA.VDW>
3.27035

>  <SCORE.INTRA.VDW.0>
-3.21539

>  <SCORE.INTRA.norm>
0.126764

>  <SCORE.RESTR>
0.173999

>  <SCORE.RESTR.CAVITY>
0.173999

>  <SCORE.RESTR.norm>
0.00527271

>  <SCORE.SYSTEM>
-0.956706

>  <SCORE.SYSTEM.CONST>
0

>  <SCORE.SYSTEM.DIHEDRAL>
0.150025

>  <SCORE.SYSTEM.VDW>
-1.03172

>  <SCORE.SYSTEM.norm>
-0.0289911

>  <SCORE.heavy>
33

>  <SCORE.norm>
-0.297884

$$$$
5281643
  RxDock  02242111013D
librxdock.so/0.1.0
 41 44  0  0  0  0  0  0  0  0999 V2000
  -49.8018   -5.2956   19.0434 O   0  0  0  0  0  0
  -50.6800   -3.1425   18.8393 O   0  0  0  0  0  0
  -52.9365   -6.4231   21.4990 O   0  0  0  0  0  0
  -51.6334   -7.4747   19.2797 O   0  0  0  0  0  0
  -52.3262   -3.6237   21.1037 O   0  0  0  0  0  0
  -48.4559   -8.5591   19.8570 O   0  0  0  0  0  0
  -48.9455   -3.4491   15.6013 O   0  0  0  0  0  0
  -48.1326   -2.1680   19.3831 O   0  0  0  0  0  0
  -45.6904   -1.5730   18.6628 O   0  0  0  0  0  0
  -44.5440   -2.4404   14.1376 O   0  0  0  0  0  0
  -53.4946   -6.7484   16.9337 O   0  0  0  0  0  0
  -54.8341   -5.5374   14.8214 O   0  0  0  0  0  0
  -51.6455   -5.9355   21.1442 C   0  0  0  0  0  0
  -50.8640   -7.0132   20.3920 C   0  0  0  0  0  0
  -51.8003   -4.6751   20.2939 C   0  0  0  0  0  0
  -49.5425   -6.4315   19.8778 C   0  0  0  0  0  0
  -50.4472   -4.2280   19.7362 C   0  0  0  0  0  0
  -48.7511   -7.4350   19.0474 C   0  0  0  0  0  0
  -49.7083   -3.0732   17.8648 C   0  0  0  0  0  0
  -49.9097   -3.4746   16.5964 C   0  0  0  0  0  0
  -48.3750   -2.5476   18.2453 C   0  0  0  0  0  0
  -47.3601   -2.5098   17.1812 C   0  0  0  0  0  0
  -47.7003   -2.9650   15.9094 C   0  0  0  0  0  0
  -51.1991   -4.0178   16.1334 C   0  0  0  0  0  0
  -46.0739   -2.0281   17.4377 C   0  0  0  0  0  0
  -46.7546   -2.9418   14.8838 C   0  0  0  0  0  0
  -51.7483   -5.1387   16.7565 C   0  0  0  0  0  0
  -51.8713   -3.4111   15.0721 C   0  0  0  0  0  0
  -45.1299   -2.0057   16.4102 C   0  0  0  0  0  0
  -45.4693   -2.4615   15.1357 C   0  0  0  0  0  0
  -52.9690   -5.6527   16.3185 C   0  0  0  0  0  0
  -53.0919   -3.9250   14.6341 C   0  0  0  0  0  0
  -53.6408   -5.0458   15.2573 C   0  0  0  0  0  0
  -52.8079   -7.2101   22.0557 H   0  0  0  0  0  0
  -52.4295   -7.9042   19.6367 H   0  0  0  0  0  0
  -51.6958   -3.4809   21.8300 H   0  0  0  0  0  0
  -49.2988   -8.9875   20.0848 H   0  0  0  0  0  0
  -44.7550   -1.3190   18.6542 H   0  0  0  0  0  0
  -43.6854   -2.1737   14.5090 H   0  0  0  0  0  0
  -52.8777   -7.0337   17.6298 H   0  0  0  0  0  0
  -55.0009   -6.3929   15.2531 H   0  0  0  0  0  0
  1 16  1  0  0  0
  1 17  1  0  0  0
  2 17  1  0  0  0
  2 19  1  0  0  0
  3 13  1  0  0  0
  3 34  1  0  0  0
  4 14  1  0  0  0
  4 35  1  0  0  0
  5 15  1  0  0  0
  5 36  1  0  0  0
  6 18  1  0  0  0
  6 37  1  0  0  0
  7 20  1  0  0  0
  7 23  1  0  0  0
  8 21  2  0  0  0
  9 25  1  0  0  0
  9 38  1  0  0  0
 10 30  1  0  0  0
 10 39  1  0  0  0
 11 31  1  0  0  0
 11 40  1  0  0  0
 12 33  1  0  0  0
 12 41  1  0  0  0
 13 14  1  0  0  0
 13 15  1  0  0  0
 14 16  1  0  0  0
 15 17  1  0  0  0
 16 18  1  0  0  0
 19 20  2  0  0  0
 19 21  1  0  0  0
 20 24  1  0  0  0
 21 22  1  0  0  0
 22 23  1  0  0  0
 22 25  2  0  0  0
 23 26  2  0  0  0
 24 27  2  0  0  0
 24 28  1  0  0  0
 25 29  1  0  0  0
 26 30  1  0  0  0
 27 31  1  0  0  0
 28 32  2  0  0  0
 29 30  2  0  0  0
 31 33  2  0  0  0
 32 33  1  0  0  0
M  END
>  <CHROM.0>
160.60004556,177.67565167,-178.63370482

>  <CHROM.1>
-31.19209256,104.05361094,59.12995418,-64.47860773,59.60750199,64.81275426
177.47652407,-173.67081431,-1.05462695,-9.42356366,178.80383539,121.30551679
-49.90338431,-4.42048656,17.77041640,-2.63730969,-0.38467688,-1.18413067

>  <Name>
5281643

>  <PUBCHEM_ATOM_DEF_STEREO_COUNT>
5

>  <PUBCHEM_ATOM_UDEF_STEREO_COUNT>
0

>  <PUBCHEM_BOND_DEF_STEREO_COUNT>
0

>  <PUBCHEM_BOND_UDEF_STEREO_COUNT>
0

>  <PUBCHEM_CACTVS_TAUTO_COUNT>
162

>  <PUBCHEM_COMPONENT_COUNT>
1

>  <PUBCHEM_COMPOUND_CID>
5281643

>  <PUBCHEM_CONFORMER_DIVERSEORDER>
1
86
59
70
75
65
68
80
35
60
72
84
10
81
85
66
61
88
58
63
62
69
39
16
83
52
30
67
49
47
76
25
2
57
64
87
14
71
45
19
53
36
79
27
42
9
34
4
29
40
78
48
43
56
12
11
44
74
17
38
82
37
23
3
8
31
6
50
33
28
55
22
73
77
51
46
5
24
41
26
20
18
32
54
7
21
15
13

>  <PUBCHEM_CONFORMER_ID>
0050976B00000001

>  <PUBCHEM_CONFORMER_RMSD>
0.8

>  <PUBCHEM_COORDINATE_TYPE>
2
5
10

>  <PUBCHEM_EFFECTIVE_ROTOR_COUNT>
5.2

>  <PUBCHEM_FEATURE_SELFOVERLAP>
101.615

>  <PUBCHEM_HEAVY_ATOM_COUNT>
33

>  <PUBCHEM_ISOTOPIC_ATOM_COUNT>
0

>  <PUBCHEM_MMFF94_ENERGY>
104.7486

>  <PUBCHEM_MMFF94_PARTIAL_CHARGES>
46
1 -0.56
10 -0.53
11 -0.53
12 -0.53
13 0.28
14 0.28
15 0.28
16 0.28
17 0.56
18 0.28
19 0.09
2 -0.36
20 0.05
21 0.47
22 0.09
23 0.08
24 0.03
25 0.08
26 -0.15
27 -0.15
28 -0.15
29 -0.15
3 -0.68
30 0.08
31 0.08
32 -0.15
33 0.08
4 -0.68
41 0.4
42 0.4
43 0.4
44 0.4
45 0.15
46 0.15
47 0.15
48 0.15
49 0.15
5 -0.68
50 0.45
51 0.45
52 0.45
53 0.45
6 -0.68
7 -0.16
8 -0.57
9 -0.53

>  <PUBCHEM_PHARMACOPHORE_FEATURES>
20
1 1 acceptor
1 10 donor
1 11 donor
1 12 donor
1 2 acceptor
1 3 acceptor
1 3 donor
1 4 acceptor
1 4 donor
1 5 acceptor
1 5 donor
1 6 acceptor
1 6 donor
1 7 acceptor
1 8 acceptor
1 9 donor
6 1 13 14 15 16 17 rings
6 22 23 25 26 29 30 rings
6 24 27 28 31 32 33 rings
6 7 19 20 21 22 23 rings

>  <PUBCHEM_SHAPE_FINGERPRINT>
10006869 2 18335973191630432171
10050765 1 18411138078758306218
10254770 206 17543629735110429114
10411042 1 18049726522484379307
10688039 33 18122628511688036570
1100329 8 18191865846011046165
11014199 57 18193559101690162847
11115154 58 17485060211102720839
11578080 2 16772653593855117074
12160290 23 18200008716930094571
12422481 6 18057344965791821347
12788726 201 18191291870106976058
13540713 4 18130787898074025568
1361 2 18337097987698836213
13690498 29 18198645374673823918
138480 1 16825304412646788035
13944108 23 17257933693666577220
140371 6 17616249621068240634
14068700 686 18053660567363316456
14508225 48 18194396925319104870
14790565 3 18196095438813983089
15131766 46 15504380113060768694
15463212 79 18262230015331414266
15484559 13 17837767833426351551
17357779 13 17982160420581768986
1813 80 17767144346333510902
19591789 44 18267018367185251353
20101258 96 18119543264584813442
20775438 99 17766234985840219669
21033648 144 18343867719350468664
21033648 29 18339635629996413648
21307412 95 17843144519371973382
21641784 216 18048331221354704092
21703447 108 18196922482976566226
23227448 37 18412825798245716428
23559900 14 18201999920346542688
238 59 17688559707949800469
3298306 158 18050845511872374654
3610482 184 17969243217130771598
38695281 34 18051131393374722297
4058900 60 17977675212157126569
44062 13 18341619213703054494
508706 21 18341040878859799886
59025328 239 17125891581249652975
7164475 11 18193562392178378628

>  <PUBCHEM_SHAPE_MULTIPOLES>
608.69
9.74
6.75
1.2
13.19
0.72
0.16
-1.42
2.09
-9.34
1.15
-0.24
0.37
0.55

>  <PUBCHEM_SHAPE_SELFOVERLAP>
1341.774

>  <PUBCHEM_SHAPE_VOLUME>
322.8

>  <RI>
-1.72645e+08

>  <Rbt.Current_Directory>
/root/miniconda3/envs/rdock/share/rxdock-2013.1.1_148c5bd1-0/data/ligands/prepped_ligands/Hyperoside

>  <Rbt.Executable>
rbdock/0.1.0

>  <Rbt.Library>
librxdock.so/0.1.0

>  <Rbt.Parameter_File>
/root/miniconda3/envs/rdock/share/rxdock-2013.1.1_148c5bd1-0/data/scripts/dock.prm

>  <Rbt.Receptor>
def.prm

>  <SCORE>
-12.8708

>  <SCORE.INTER>
-10.4694

>  <SCORE.INTER.CONST>
1

>  <SCORE.INTER.POLAR>
-0.485835

>  <SCORE.INTER.REPUL>
0.0415828

>  <SCORE.INTER.ROT>
4

>  <SCORE.INTER.VDW>
-18.4255

>  <SCORE.INTER.norm>
-0.317255

>  <SCORE.INTRA>
-1.88979

>  <SCORE.INTRA.DIHEDRAL>
-1.68559

>  <SCORE.INTRA.DIHEDRAL.0>
13.4636

>  <SCORE.INTRA.POLAR>
-0.876102

>  <SCORE.INTRA.POLAR.0>
-0.250933

>  <SCORE.INTRA.REPUL>
0

>  <SCORE.INTRA.REPUL.0>
0

>  <SCORE.INTRA.VDW>
1.93175

>  <SCORE.INTRA.VDW.0>
-3.21539

>  <SCORE.INTRA.norm>
-0.0572663

>  <SCORE.RESTR>
0.000189681

>  <SCORE.RESTR.CAVITY>
0.000189681

>  <SCORE.RESTR.norm>
5.7479e-06

>  <SCORE.SYSTEM>
-0.511765

>  <SCORE.SYSTEM.CONST>
0

>  <SCORE.SYSTEM.DIHEDRAL>
0.893751

>  <SCORE.SYSTEM.POLAR>
-0.00524481

>  <SCORE.SYSTEM.VDW>
-0.940808

>  <SCORE.SYSTEM.norm>
-0.015508

>  <SCORE.heavy>
33

>  <SCORE.norm>
-0.390023

$$$$
5281643
  RxDock  02242111013D
librxdock.so/0.1.0
 41 44  0  0  0  0  0  0  0  0999 V2000
  -48.1953   -2.2786   17.5868 O   0  0  0  0  0  0
  -47.2711   -4.0527   16.3839 O   0  0  0  0  0  0
  -44.5059   -0.4189   17.8252 O   0  0  0  0  0  0
  -47.1046    0.3299   17.1810 O   0  0  0  0  0  0
  -44.6809   -3.2423   17.2225 O   0  0  0  0  0  0
  -50.4182   -1.4731   19.0145 O   0  0  0  0  0  0
  -50.8610   -4.0906   15.5485 O   0  0  0  0  0  0
  -48.1856   -6.3827   17.5960 O   0  0  0  0  0  0
  -50.0847   -8.0793   18.1896 O   0  0  0  0  0  0
  -54.4241   -7.0619   16.5528 O   0  0  0  0  0  0
  -46.3268   -0.3594   14.2032 O   0  0  0  0  0  0
  -48.3566    1.0680   12.9524 O   0  0  0  0  0  0
  -45.5956   -1.2478   18.2199 C   0  0  0  0  0  0
  -46.8640   -0.4091   18.3803 C   0  0  0  0  0  0
  -45.7931   -2.3485   17.1782 C   0  0  0  0  0  0
  -48.0617   -1.3268   18.6498 C   0  0  0  0  0  0
  -47.0677   -3.1448   17.4662 C   0  0  0  0  0  0
  -49.3739   -0.5568   18.7390 C   0  0  0  0  0  0
  -48.5884   -4.4465   16.2937 C   0  0  0  0  0  0
  -49.5227   -3.7404   15.6309 C   0  0  0  0  0  0
  -48.9906   -5.6990   16.9779 C   0  0  0  0  0  0
  -50.4095   -6.0728   16.8747 C   0  0  0  0  0  0
  -51.2741   -5.2448   16.1625 C   0  0  0  0  0  0
  -49.2140   -2.4809   14.9307 C   0  0  0  0  0  0
  -50.8874   -7.2370   17.4815 C   0  0  0  0  0  0
  -52.6249   -5.5761   16.0523 C   0  0  0  0  0  0
  -47.9027   -2.0059   14.8942 C   0  0  0  0  0  0
  -50.2329   -1.7631   14.3038 C   0  0  0  0  0  0
  -52.2388   -7.5664   17.3696 C   0  0  0  0  0  0
  -53.1061   -6.7379   16.6564 C   0  0  0  0  0  0
  -47.6105   -0.8139   14.2310 C   0  0  0  0  0  0
  -49.9407   -0.5712   13.6408 C   0  0  0  0  0  0
  -48.6295   -0.0965   13.6043 C   0  0  0  0  0  0
  -44.3537    0.2224   18.5402 H   0  0  0  0  0  0
  -47.8272    0.9541   17.3656 H   0  0  0  0  0  0
  -43.8838   -2.7143   17.0463 H   0  0  0  0  0  0
  -50.2812   -1.8136   19.9152 H   0  0  0  0  0  0
  -49.1843   -7.7246   18.2458 H   0  0  0  0  0  0
  -54.9030   -6.3129   16.1582 H   0  0  0  0  0  0
  -45.9322   -0.6094   13.3497 H   0  0  0  0  0  0
  -49.1939    1.5083   12.7267 H   0  0  0  0  0  0
  1 16  1  0  0  0
  1 17  1  0  0  0
  2 17  1  0  0  0
  2 19  1  0  0  0
  3 13  1  0  0  0
  3 34  1  0  0  0
  4 14  1  0  0  0
  4 35  1  0  0  0
  5 15  1  0  0  0
  5 36  1  0  0  0
  6 18  1  0  0  0
  6 37  1  0  0  0
  7 20  1  0  0  0
  7 23  1  0  0  0
  8 21  2  0  0  0
  9 25  1  0  0  0
  9 38  1  0  0  0
 10 30  1  0  0  0
 10 39  1  0  0  0
 11 31  1  0  0  0
 11 40  1  0  0  0
 12 33  1  0  0  0
 12 41  1  0  0  0
 13 14  1  0  0  0
 13 15  1  0  0  0
 14 16  1  0  0  0
 15 17  1  0  0  0
 16 18  1  0  0  0
 19 20  2  0  0  0
 19 21  1  0  0  0
 20 24  1  0  0  0
 21 22  1  0  0  0
 22 23  1  0  0  0
 22 25  2  0  0  0
 23 26  2  0  0  0
 24 27  2  0  0  0
 24 28  1  0  0  0
 25 29  1  0  0  0
 26 30  1  0  0  0
 27 31  1  0  0  0
 28 32  2  0  0  0
 29 30  2  0  0  0
 31 33  2  0  0  0
 32 33  1  0  0  0
M  END
>  <CHROM.0>
-80.34989742,-62.25552726,-55.50088772

>  <CHROM.1>
-36.83472392,85.42208258,62.59662353,-171.06325035,-58.62984376,67.83994680
3.38056860,-9.21795356,98.89036311,-169.46202242,60.19066977,-178.52989348
-48.84579839,-3.12317704,16.52145441,-0.73856600,0.54176910,2.50520785

>  <Name>
5281643

>  <PUBCHEM_ATOM_DEF_STEREO_COUNT>
5

>  <PUBCHEM_ATOM_UDEF_STEREO_COUNT>
0

>  <PUBCHEM_BOND_DEF_STEREO_COUNT>
0

>  <PUBCHEM_BOND_UDEF_STEREO_COUNT>
0

>  <PUBCHEM_CACTVS_TAUTO_COUNT>
162

>  <PUBCHEM_COMPONENT_COUNT>
1

>  <PUBCHEM_COMPOUND_CID>
5281643

>  <PUBCHEM_CONFORMER_DIVERSEORDER>
1
86
59
70
75
65
68
80
35
60
72
84
10
81
85
66
61
88
58
63
62
69
39
16
83
52
30
67
49
47
76
25
2
57
64
87
14
71
45
19
53
36
79
27
42
9
34
4
29
40
78
48
43
56
12
11
44
74
17
38
82
37
23
3
8
31
6
50
33
28
55
22
73
77
51
46
5
24
41
26
20
18
32
54
7
21
15
13

>  <PUBCHEM_CONFORMER_ID>
0050976B00000001

>  <PUBCHEM_CONFORMER_RMSD>
0.8

>  <PUBCHEM_COORDINATE_TYPE>
2
5
10

>  <PUBCHEM_EFFECTIVE_ROTOR_COUNT>
5.2

>  <PUBCHEM_FEATURE_SELFOVERLAP>
101.615

>  <PUBCHEM_HEAVY_ATOM_COUNT>
33

>  <PUBCHEM_ISOTOPIC_ATOM_COUNT>
0

>  <PUBCHEM_MMFF94_ENERGY>
104.7486

>  <PUBCHEM_MMFF94_PARTIAL_CHARGES>
46
1 -0.56
10 -0.53
11 -0.53
12 -0.53
13 0.28
14 0.28
15 0.28
16 0.28
17 0.56
18 0.28
19 0.09
2 -0.36
20 0.05
21 0.47
22 0.09
23 0.08
24 0.03
25 0.08
26 -0.15
27 -0.15
28 -0.15
29 -0.15
3 -0.68
30 0.08
31 0.08
32 -0.15
33 0.08
4 -0.68
41 0.4
42 0.4
43 0.4
44 0.4
45 0.15
46 0.15
47 0.15
48 0.15
49 0.15
5 -0.68
50 0.45
51 0.45
52 0.45
53 0.45
6 -0.68
7 -0.16
8 -0.57
9 -0.53

>  <PUBCHEM_PHARMACOPHORE_FEATURES>
20
1 1 acceptor
1 10 donor
1 11 donor
1 12 donor
1 2 acceptor
1 3 acceptor
1 3 donor
1 4 acceptor
1 4 donor
1 5 acceptor
1 5 donor
1 6 acceptor
1 6 donor
1 7 acceptor
1 8 acceptor
1 9 donor
6 1 13 14 15 16 17 rings
6 22 23 25 26 29 30 rings
6 24 27 28 31 32 33 rings
6 7 19 20 21 22 23 rings

>  <PUBCHEM_SHAPE_FINGERPRINT>
10006869 2 18335973191630432171
10050765 1 18411138078758306218
10254770 206 17543629735110429114
10411042 1 18049726522484379307
10688039 33 18122628511688036570
1100329 8 18191865846011046165
11014199 57 18193559101690162847
11115154 58 17485060211102720839
11578080 2 16772653593855117074
12160290 23 18200008716930094571
12422481 6 18057344965791821347
12788726 201 18191291870106976058
13540713 4 18130787898074025568
1361 2 18337097987698836213
13690498 29 18198645374673823918
138480 1 16825304412646788035
13944108 23 17257933693666577220
140371 6 17616249621068240634
14068700 686 18053660567363316456
14508225 48 18194396925319104870
14790565 3 18196095438813983089
15131766 46 15504380113060768694
15463212 79 18262230015331414266
15484559 13 17837767833426351551
17357779 13 17982160420581768986
1813 80 17767144346333510902
19591789 44 18267018367185251353
20101258 96 18119543264584813442
20775438 99 17766234985840219669
21033648 144 18343867719350468664
21033648 29 18339635629996413648
21307412 95 17843144519371973382
21641784 216 18048331221354704092
21703447 108 18196922482976566226
23227448 37 18412825798245716428
23559900 14 18201999920346542688
238 59 17688559707949800469
3298306 158 18050845511872374654
3610482 184 17969243217130771598
38695281 34 18051131393374722297
4058900 60 17977675212157126569
44062 13 18341619213703054494
508706 21 18341040878859799886
59025328 239 17125891581249652975
7164475 11 18193562392178378628

>  <PUBCHEM_SHAPE_MULTIPOLES>
608.69
9.74
6.75
1.2
13.19
0.72
0.16
-1.42
2.09
-9.34
1.15
-0.24
0.37
0.55

>  <PUBCHEM_SHAPE_SELFOVERLAP>
1341.774

>  <PUBCHEM_SHAPE_VOLUME>
322.8

>  <RI>
-1.72645e+08

>  <Rbt.Current_Directory>
/root/miniconda3/envs/rdock/share/rxdock-2013.1.1_148c5bd1-0/data/ligands/prepped_ligands/Hyperoside

>  <Rbt.Executable>
rbdock/0.1.0

>  <Rbt.Library>
librxdock.so/0.1.0

>  <Rbt.Parameter_File>
/root/miniconda3/envs/rdock/share/rxdock-2013.1.1_148c5bd1-0/data/scripts/dock.prm

>  <Rbt.Receptor>
def.prm

>  <SCORE>
-12.6515

>  <SCORE.INTER>
-16.3681

>  <SCORE.INTER.CONST>
1

>  <SCORE.INTER.POLAR>
-1.54098

>  <SCORE.INTER.REPUL>
0.0685152

>  <SCORE.INTER.ROT>
4

>  <SCORE.INTER.VDW>
-20.8714

>  <SCORE.INTER.norm>
-0.496004

>  <SCORE.INTRA>
4.14861

>  <SCORE.INTRA.DIHEDRAL>
-0.603414

>  <SCORE.INTRA.DIHEDRAL.0>
13.4636

>  <SCORE.INTRA.POLAR>
0.250933

>  <SCORE.INTRA.POLAR.0>
-0.250933

>  <SCORE.INTRA.REPUL>
0.0200201

>  <SCORE.INTRA.REPUL.0>
0

>  <SCORE.INTRA.VDW>
3.49705

>  <SCORE.INTRA.VDW.0>
-3.21539

>  <SCORE.INTRA.norm>
0.125716

>  <SCORE.RESTR>
0

>  <SCORE.RESTR.CAVITY>
0

>  <SCORE.RESTR.norm>
0

>  <SCORE.SYSTEM>
-0.431989

>  <SCORE.SYSTEM.CONST>
0

>  <SCORE.SYSTEM.DIHEDRAL>
1.01237

>  <SCORE.SYSTEM.POLAR>
-0.0105811

>  <SCORE.SYSTEM.VDW>
-0.902197

>  <SCORE.SYSTEM.norm>
-0.0130906

>  <SCORE.heavy>
33

>  <SCORE.norm>
-0.383379

$$$$
5281643
  RxDock  02242111023D
librxdock.so/0.1.0
 41 44  0  0  0  0  0  0  0  0999 V2000
  -49.0099   -1.5913   17.3014 O   0  0  0  0  0  0
  -48.3098   -3.5524   16.2465 O   0  0  0  0  0  0
  -45.0943   -0.5704   18.1690 O   0  0  0  0  0  0
  -47.3257    0.7081   17.1130 O   0  0  0  0  0  0
  -45.7788   -3.3026   17.5117 O   0  0  0  0  0  0
  -49.9957    0.8422   16.9277 O   0  0  0  0  0  0
  -51.7850   -3.2113   15.0660 O   0  0  0  0  0  0
  -49.6104   -5.6907   17.4592 O   0  0  0  0  0  0
  -51.7493   -7.1179   17.9341 O   0  0  0  0  0  0
  -55.7622   -5.6846   15.8395 O   0  0  0  0  0  0
  -46.7764    0.0208   14.2043 O   0  0  0  0  0  0
  -48.4392    1.4704   12.5144 O   0  0  0  0  0  0
  -46.3880   -1.1334   18.3681 C   0  0  0  0  0  0
  -47.4519   -0.0360   18.3265 C   0  0  0  0  0  0
  -46.6469   -2.1902   17.2948 C   0  0  0  0  0  0
  -48.8483   -0.6653   18.3832 C   0  0  0  0  0  0
  -48.0940   -2.6840   17.3584 C   0  0  0  0  0  0
  -49.9577    0.3728   18.2634 C   0  0  0  0  0  0
  -49.6515   -3.7925   16.0443 C   0  0  0  0  0  0
  -50.4273   -3.0173   15.2645 C   0  0  0  0  0  0
  -50.2652   -4.9507   16.7373 C   0  0  0  0  0  0
  -51.7036   -5.1597   16.5114 C   0  0  0  0  0  0
  -52.3911   -4.2746   15.6841 C   0  0  0  0  0  0
  -49.9036   -1.8419   14.5461 C   0  0  0  0  0  0
  -52.3743   -6.2257   17.1164 C   0  0  0  0  0  0
  -53.7563   -4.4498   15.4561 C   0  0  0  0  0  0
  -48.5728   -1.4578   14.7128 C   0  0  0  0  0  0
  -50.7384   -1.1130   13.6986 C   0  0  0  0  0  0
  -53.7397   -6.3990   16.8866 C   0  0  0  0  0  0
  -54.4296   -5.5131   16.0581 C   0  0  0  0  0  0
  -48.0771   -0.3454   14.0325 C   0  0  0  0  0  0
  -50.2426   -0.0007   13.0184 C   0  0  0  0  0  0
  -48.9119    0.3831   13.1853 C   0  0  0  0  0  0
  -44.4435   -1.2800   18.3059 H   0  0  0  0  0  0
  -47.3520    0.0711   16.3787 H   0  0  0  0  0  0
  -45.9420   -3.9359   16.7922 H   0  0  0  0  0  0
  -49.9777    0.0659   16.3421 H   0  0  0  0  0  0
  -52.3159   -7.8880   18.0940 H   0  0  0  0  0  0
  -56.0415   -5.0970   15.1165 H   0  0  0  0  0  0
  -46.2733   -0.2605   13.4205 H   0  0  0  0  0  0
  -47.6730    1.2031   11.9782 H   0  0  0  0  0  0
  1 16  1  0  0  0
  1 17  1  0  0  0
  2 17  1  0  0  0
  2 19  1  0  0  0
  3 13  1  0  0  0
  3 34  1  0  0  0
  4 14  1  0  0  0
  4 35  1  0  0  0
  5 15  1  0  0  0
  5 36  1  0  0  0
  6 18  1  0  0  0
  6 37  1  0  0  0
  7 20  1  0  0  0
  7 23  1  0  0  0
  8 21  2  0  0  0
  9 25  1  0  0  0
  9 38  1  0  0  0
 10 30  1  0  0  0
 10 39  1  0  0  0
 11 31  1  0  0  0
 11 40  1  0  0  0
 12 33  1  0  0  0
 12 41  1  0  0  0
 13 14  1  0  0  0
 13 15  1  0  0  0
 14 16  1  0  0  0
 15 17  1  0  0  0
 16 18  1  0  0  0
 19 20  2  0  0  0
 19 21  1  0  0  0
 20 24  1  0  0  0
 21 22  1  0  0  0
 22 23  1  0  0  0
 22 25  2  0  0  0
 23 26  2  0  0  0
 24 27  2  0  0  0
 24 28  1  0  0  0
 25 29  1  0  0  0
 26 30  1  0  0  0
 27 31  1  0  0  0
 28 32  2  0  0  0
 29 30  2  0  0  0
 31 33  2  0  0  0
 32 33  1  0  0  0
M  END
>  <CHROM.0>
-46.76171803,63.24521540,59.26953885

>  <CHROM.1>
-44.75529478,89.07553788,173.50329173,53.84395719,-177.58708457,47.80491797
-167.16095790,11.01542754,103.38753117,56.81362307,-48.75839374,175.76145073
-49.67562947,-2.44234982,16.18620920,-0.56721188,0.53120507,2.42092376

>  <Name>
5281643

>  <PUBCHEM_ATOM_DEF_STEREO_COUNT>
5

>  <PUBCHEM_ATOM_UDEF_STEREO_COUNT>
0

>  <PUBCHEM_BOND_DEF_STEREO_COUNT>
0

>  <PUBCHEM_BOND_UDEF_STEREO_COUNT>
0

>  <PUBCHEM_CACTVS_TAUTO_COUNT>
162

>  <PUBCHEM_COMPONENT_COUNT>
1

>  <PUBCHEM_COMPOUND_CID>
5281643

>  <PUBCHEM_CONFORMER_DIVERSEORDER>
1
86
59
70
75
65
68
80
35
60
72
84
10
81
85
66
61
88
58
63
62
69
39
16
83
52
30
67
49
47
76
25
2
57
64
87
14
71
45
19
53
36
79
27
42
9
34
4
29
40
78
48
43
56
12
11
44
74
17
38
82
37
23
3
8
31
6
50
33
28
55
22
73
77
51
46
5
24
41
26
20
18
32
54
7
21
15
13

>  <PUBCHEM_CONFORMER_ID>
0050976B00000001

>  <PUBCHEM_CONFORMER_RMSD>
0.8

>  <PUBCHEM_COORDINATE_TYPE>
2
5
10

>  <PUBCHEM_EFFECTIVE_ROTOR_COUNT>
5.2

>  <PUBCHEM_FEATURE_SELFOVERLAP>
101.615

>  <PUBCHEM_HEAVY_ATOM_COUNT>
33

>  <PUBCHEM_ISOTOPIC_ATOM_COUNT>
0

>  <PUBCHEM_MMFF94_ENERGY>
104.7486

>  <PUBCHEM_MMFF94_PARTIAL_CHARGES>
46
1 -0.56
10 -0.53
11 -0.53
12 -0.53
13 0.28
14 0.28
15 0.28
16 0.28
17 0.56
18 0.28
19 0.09
2 -0.36
20 0.05
21 0.47
22 0.09
23 0.08
24 0.03
25 0.08
26 -0.15
27 -0.15
28 -0.15
29 -0.15
3 -0.68
30 0.08
31 0.08
32 -0.15
33 0.08
4 -0.68
41 0.4
42 0.4
43 0.4
44 0.4
45 0.15
46 0.15
47 0.15
48 0.15
49 0.15
5 -0.68
50 0.45
51 0.45
52 0.45
53 0.45
6 -0.68
7 -0.16
8 -0.57
9 -0.53

>  <PUBCHEM_PHARMACOPHORE_FEATURES>
20
1 1 acceptor
1 10 donor
1 11 donor
1 12 donor
1 2 acceptor
1 3 acceptor
1 3 donor
1 4 acceptor
1 4 donor
1 5 acceptor
1 5 donor
1 6 acceptor
1 6 donor
1 7 acceptor
1 8 acceptor
1 9 donor
6 1 13 14 15 16 17 rings
6 22 23 25 26 29 30 rings
6 24 27 28 31 32 33 rings
6 7 19 20 21 22 23 rings

>  <PUBCHEM_SHAPE_FINGERPRINT>
10006869 2 18335973191630432171
10050765 1 18411138078758306218
10254770 206 17543629735110429114
10411042 1 18049726522484379307
10688039 33 18122628511688036570
1100329 8 18191865846011046165
11014199 57 18193559101690162847
11115154 58 17485060211102720839
11578080 2 16772653593855117074
12160290 23 18200008716930094571
12422481 6 18057344965791821347
12788726 201 18191291870106976058
13540713 4 18130787898074025568
1361 2 18337097987698836213
13690498 29 18198645374673823918
138480 1 16825304412646788035
13944108 23 17257933693666577220
140371 6 17616249621068240634
14068700 686 18053660567363316456
14508225 48 18194396925319104870
14790565 3 18196095438813983089
15131766 46 15504380113060768694
15463212 79 18262230015331414266
15484559 13 17837767833426351551
17357779 13 17982160420581768986
1813 80 17767144346333510902
19591789 44 18267018367185251353
20101258 96 18119543264584813442
20775438 99 17766234985840219669
21033648 144 18343867719350468664
21033648 29 18339635629996413648
21307412 95 17843144519371973382
21641784 216 18048331221354704092
21703447 108 18196922482976566226
23227448 37 18412825798245716428
23559900 14 18201999920346542688
238 59 17688559707949800469
3298306 158 18050845511872374654
3610482 184 17969243217130771598
38695281 34 18051131393374722297
4058900 60 17977675212157126569
44062 13 18341619213703054494
508706 21 18341040878859799886
59025328 239 17125891581249652975
7164475 11 18193562392178378628

>  <PUBCHEM_SHAPE_MULTIPOLES>
608.69
9.74
6.75
1.2
13.19
0.72
0.16
-1.42
2.09
-9.34
1.15
-0.24
0.37
0.55

>  <PUBCHEM_SHAPE_SELFOVERLAP>
1341.774

>  <PUBCHEM_SHAPE_VOLUME>
322.8

>  <RI>
-1.72645e+08

>  <Rbt.Current_Directory>
/root/miniconda3/envs/rdock/share/rxdock-2013.1.1_148c5bd1-0/data/ligands/prepped_ligands/Hyperoside

>  <Rbt.Executable>
rbdock/0.1.0

>  <Rbt.Library>
librxdock.so/0.1.0

>  <Rbt.Parameter_File>
/root/miniconda3/envs/rdock/share/rxdock-2013.1.1_148c5bd1-0/data/scripts/dock.prm

>  <Rbt.Receptor>
def.prm

>  <SCORE>
-23.8071

>  <SCORE.INTER>
-25.6429

>  <SCORE.INTER.CONST>
1

>  <SCORE.INTER.POLAR>
-3.40115

>  <SCORE.INTER.REPUL>
0.0813767

>  <SCORE.INTER.ROT>
4

>  <SCORE.INTER.VDW>
-23.8859

>  <SCORE.INTER.norm>
-0.777059

>  <SCORE.INTRA>
2.53751

>  <SCORE.INTRA.DIHEDRAL>
2.35519

>  <SCORE.INTRA.DIHEDRAL.0>
13.4636

>  <SCORE.INTRA.POLAR>
-0.508837

>  <SCORE.INTRA.POLAR.0>
-0.250933

>  <SCORE.INTRA.REPUL>
0

>  <SCORE.INTRA.REPUL.0>
0

>  <SCORE.INTRA.VDW>
3.08996

>  <SCORE.INTRA.VDW.0>
-3.21539

>  <SCORE.INTRA.norm>
0.0768942

>  <SCORE.RESTR>
0.039014

>  <SCORE.RESTR.CAVITY>
0.039014

>  <SCORE.RESTR.norm>
0.00118224

>  <SCORE.SYSTEM>
-0.740681

>  <SCORE.SYSTEM.CONST>
0

>  <SCORE.SYSTEM.DIHEDRAL>
0.460297

>  <SCORE.SYSTEM.VDW>
-0.97083

>  <SCORE.SYSTEM.norm>
-0.0224449

>  <SCORE.heavy>
33

>  <SCORE.norm>
-0.721427

$$$$
5281643
  RxDock  02242111023D
librxdock.so/0.1.0
 41 44  0  0  0  0  0  0  0  0999 V2000
  -47.6171   -1.1104   17.4388 O   0  0  0  0  0  0
  -46.8493   -3.0531   16.3972 O   0  0  0  0  0  0
  -43.7838   -0.1735   18.6858 O   0  0  0  0  0  0
  -45.8933    1.1670   17.4683 O   0  0  0  0  0  0
  -44.4409   -2.8762   17.8928 O   0  0  0  0  0  0
  -49.8624    0.1893   18.1538 O   0  0  0  0  0  0
  -50.3033   -4.2598   15.9493 O   0  0  0  0  0  0
  -46.8724   -5.4593   17.7915 O   0  0  0  0  0  0
  -48.0800   -7.6137   18.6504 O   0  0  0  0  0  0
  -52.6454   -8.1088   17.4437 O   0  0  0  0  0  0
  -47.2610    0.1319   13.2486 O   0  0  0  0  0  0
  -49.7925    1.2246   12.9025 O   0  0  0  0  0  0
  -45.0974   -0.7216   18.7510 C   0  0  0  0  0  0
  -46.1389    0.3927   18.6441 C   0  0  0  0  0  0
  -45.2712   -1.7452   17.6295 C   0  0  0  0  0  0
  -47.5426   -0.2164   18.5564 C   0  0  0  0  0  0
  -46.7243   -2.2182   17.5479 C   0  0  0  0  0  0
  -48.6231    0.8415   18.3658 C   0  0  0  0  0  0
  -47.9780   -3.8408   16.4629 C   0  0  0  0  0  0
  -49.1418   -3.5076   15.8753 C   0  0  0  0  0  0
  -47.9030   -5.1042   17.2354 C   0  0  0  0  0  0
  -49.1351   -5.9052   17.2983 C   0  0  0  0  0  0
  -50.2759   -5.4384   16.6493 C   0  0  0  0  0  0
  -49.3088   -2.2675   15.0966 C   0  0  0  0  0  0
  -49.1664   -7.1139   17.9983 C   0  0  0  0  0  0
  -51.4577   -6.1786   16.6962 C   0  0  0  0  0  0
  -48.1964   -1.6431   14.5317 C   0  0  0  0  0  0
  -50.5792   -1.7178   14.9238 C   0  0  0  0  0  0
  -50.3494   -7.8526   18.0436 C   0  0  0  0  0  0
  -51.4930   -7.3861   17.3939 C   0  0  0  0  0  0
  -48.3546   -0.4695   13.7942 C   0  0  0  0  0  0
  -50.7373   -0.5442   14.1864 C   0  0  0  0  0  0
  -49.6250    0.0799   13.6216 C   0  0  0  0  0  0
  -43.1562   -0.9033   18.8247 H   0  0  0  0  0  0
  -45.0011    1.5447   17.5515 H   0  0  0  0  0  0
  -44.4167   -3.4076   17.0790 H   0  0  0  0  0  0
  -49.7687   -0.3717   17.3648 H   0  0  0  0  0  0
  -48.3510   -8.2703   19.3100 H   0  0  0  0  0  0
  -52.9311   -8.3098   16.5359 H   0  0  0  0  0  0
  -47.4808    0.3994   12.3393 H   0  0  0  0  0  0
  -50.6784    1.5842   13.0813 H   0  0  0  0  0  0
  1 16  1  0  0  0
  1 17  1  0  0  0
  2 17  1  0  0  0
  2 19  1  0  0  0
  3 13  1  0  0  0
  3 34  1  0  0  0
  4 14  1  0  0  0
  4 35  1  0  0  0
  5 15  1  0  0  0
  5 36  1  0  0  0
  6 18  1  0  0  0
  6 37  1  0  0  0
  7 20  1  0  0  0
  7 23  1  0  0  0
  8 21  2  0  0  0
  9 25  1  0  0  0
  9 38  1  0  0  0
 10 30  1  0  0  0
 10 39  1  0  0  0
 11 31  1  0  0  0
 11 40  1  0  0  0
 12 33  1  0  0  0
 12 41  1  0  0  0
 13 14  1  0  0  0
 13 15  1  0  0  0
 14 16  1  0  0  0
 15 17  1  0  0  0
 16 18  1  0  0  0
 19 20  2  0  0  0
 19 21  1  0  0  0
 20 24  1  0  0  0
 21 22  1  0  0  0
 22 23  1  0  0  0
 22 25  2  0  0  0
 23 26  2  0  0  0
 24 27  2  0  0  0
 24 28  1  0  0  0
 25 29  1  0  0  0
 26 30  1  0  0  0
 27 31  1  0  0  0
 28 32  2  0  0  0
 29 30  2  0  0  0
 31 33  2  0  0  0
 32 33  1  0  0  0
M  END
>  <CHROM.0>
50.25426090,-53.53305880,-175.55055727

>  <CHROM.1>
-77.51366408,96.05917097,175.78933090,-60.14347786,-167.38542630,-59.09304854
160.61440951,57.34262421,136.17550436,-165.11014255,52.95263036,-157.70870113
-48.30342415,-2.73314322,16.72915513,-1.02985524,0.60424538,2.68506323

>  <Name>
5281643

>  <PUBCHEM_ATOM_DEF_STEREO_COUNT>
5

>  <PUBCHEM_ATOM_UDEF_STEREO_COUNT>
0

>  <PUBCHEM_BOND_DEF_STEREO_COUNT>
0

>  <PUBCHEM_BOND_UDEF_STEREO_COUNT>
0

>  <PUBCHEM_CACTVS_TAUTO_COUNT>
162

>  <PUBCHEM_COMPONENT_COUNT>
1

>  <PUBCHEM_COMPOUND_CID>
5281643

>  <PUBCHEM_CONFORMER_DIVERSEORDER>
1
86
59
70
75
65
68
80
35
60
72
84
10
81
85
66
61
88
58
63
62
69
39
16
83
52
30
67
49
47
76
25
2
57
64
87
14
71
45
19
53
36
79
27
42
9
34
4
29
40
78
48
43
56
12
11
44
74
17
38
82
37
23
3
8
31
6
50
33
28
55
22
73
77
51
46
5
24
41
26
20
18
32
54
7
21
15
13

>  <PUBCHEM_CONFORMER_ID>
0050976B00000001

>  <PUBCHEM_CONFORMER_RMSD>
0.8

>  <PUBCHEM_COORDINATE_TYPE>
2
5
10

>  <PUBCHEM_EFFECTIVE_ROTOR_COUNT>
5.2

>  <PUBCHEM_FEATURE_SELFOVERLAP>
101.615

>  <PUBCHEM_HEAVY_ATOM_COUNT>
33

>  <PUBCHEM_ISOTOPIC_ATOM_COUNT>
0

>  <PUBCHEM_MMFF94_ENERGY>
104.7486

>  <PUBCHEM_MMFF94_PARTIAL_CHARGES>
46
1 -0.56
10 -0.53
11 -0.53
12 -0.53
13 0.28
14 0.28
15 0.28
16 0.28
17 0.56
18 0.28
19 0.09
2 -0.36
20 0.05
21 0.47
22 0.09
23 0.08
24 0.03
25 0.08
26 -0.15
27 -0.15
28 -0.15
29 -0.15
3 -0.68
30 0.08
31 0.08
32 -0.15
33 0.08
4 -0.68
41 0.4
42 0.4
43 0.4
44 0.4
45 0.15
46 0.15
47 0.15
48 0.15
49 0.15
5 -0.68
50 0.45
51 0.45
52 0.45
53 0.45
6 -0.68
7 -0.16
8 -0.57
9 -0.53

>  <PUBCHEM_PHARMACOPHORE_FEATURES>
20
1 1 acceptor
1 10 donor
1 11 donor
1 12 donor
1 2 acceptor
1 3 acceptor
1 3 donor
1 4 acceptor
1 4 donor
1 5 acceptor
1 5 donor
1 6 acceptor
1 6 donor
1 7 acceptor
1 8 acceptor
1 9 donor
6 1 13 14 15 16 17 rings
6 22 23 25 26 29 30 rings
6 24 27 28 31 32 33 rings
6 7 19 20 21 22 23 rings

>  <PUBCHEM_SHAPE_FINGERPRINT>
10006869 2 18335973191630432171
10050765 1 18411138078758306218
10254770 206 17543629735110429114
10411042 1 18049726522484379307
10688039 33 18122628511688036570
1100329 8 18191865846011046165
11014199 57 18193559101690162847
11115154 58 17485060211102720839
11578080 2 16772653593855117074
12160290 23 18200008716930094571
12422481 6 18057344965791821347
12788726 201 18191291870106976058
13540713 4 18130787898074025568
1361 2 18337097987698836213
13690498 29 18198645374673823918
138480 1 16825304412646788035
13944108 23 17257933693666577220
140371 6 17616249621068240634
14068700 686 18053660567363316456
14508225 48 18194396925319104870
14790565 3 18196095438813983089
15131766 46 15504380113060768694
15463212 79 18262230015331414266
15484559 13 17837767833426351551
17357779 13 17982160420581768986
1813 80 17767144346333510902
19591789 44 18267018367185251353
20101258 96 18119543264584813442
20775438 99 17766234985840219669
21033648 144 18343867719350468664
21033648 29 18339635629996413648
21307412 95 17843144519371973382
21641784 216 18048331221354704092
21703447 108 18196922482976566226
23227448 37 18412825798245716428
23559900 14 18201999920346542688
238 59 17688559707949800469
3298306 158 18050845511872374654
3610482 184 17969243217130771598
38695281 34 18051131393374722297
4058900 60 17977675212157126569
44062 13 18341619213703054494
508706 21 18341040878859799886
59025328 239 17125891581249652975
7164475 11 18193562392178378628

>  <PUBCHEM_SHAPE_MULTIPOLES>
608.69
9.74
6.75
1.2
13.19
0.72
0.16
-1.42
2.09
-9.34
1.15
-0.24
0.37
0.55

>  <PUBCHEM_SHAPE_SELFOVERLAP>
1341.774

>  <PUBCHEM_SHAPE_VOLUME>
322.8

>  <RI>
-1.72645e+08

>  <Rbt.Current_Directory>
/root/miniconda3/envs/rdock/share/rxdock-2013.1.1_148c5bd1-0/data/ligands/prepped_ligands/Hyperoside

>  <Rbt.Executable>
rbdock/0.1.0

>  <Rbt.Library>
librxdock.so/0.1.0

>  <Rbt.Parameter_File>
/root/miniconda3/envs/rdock/share/rxdock-2013.1.1_148c5bd1-0/data/scripts/dock.prm

>  <Rbt.Receptor>
def.prm

>  <SCORE>
-14.6998

>  <SCORE.INTER>
-16.0426

>  <SCORE.INTER.CONST>
1

>  <SCORE.INTER.POLAR>
-1.42528

>  <SCORE.INTER.REPUL>
0.0158033

>  <SCORE.INTER.ROT>
4

>  <SCORE.INTER.VDW>
-20.6757

>  <SCORE.INTER.norm>
-0.486141

>  <SCORE.INTRA>
1.99471

>  <SCORE.INTRA.DIHEDRAL>
1.00348

>  <SCORE.INTRA.DIHEDRAL.0>
13.4636

>  <SCORE.INTRA.POLAR>
0.173837

>  <SCORE.INTRA.POLAR.0>
-0.250933

>  <SCORE.INTRA.REPUL>
0

>  <SCORE.INTRA.REPUL.0>
0

>  <SCORE.INTRA.VDW>
0.901924

>  <SCORE.INTRA.VDW.0>
-3.21539

>  <SCORE.INTRA.norm>
0.0604458

>  <SCORE.RESTR>
0.078107

>  <SCORE.RESTR.CAVITY>
0.078107

>  <SCORE.RESTR.norm>
0.00236688

>  <SCORE.SYSTEM>
-0.729938

>  <SCORE.SYSTEM.CONST>
0

>  <SCORE.SYSTEM.DIHEDRAL>
0.48584

>  <SCORE.SYSTEM.POLAR>
-0.0113017

>  <SCORE.SYSTEM.VDW>
-0.934432

>  <SCORE.SYSTEM.norm>
-0.0221193

>  <SCORE.heavy>
33

>  <SCORE.norm>
-0.445448

$$$$
5281643
  RxDock  02242111023D
librxdock.so/0.1.0
 41 44  0  0  0  0  0  0  0  0999 V2000
  -50.5263   -3.8993   17.4034 O   0  0  0  0  0  0
  -49.5874   -4.8087   15.4694 O   0  0  0  0  0  0
  -53.8629   -6.3160   17.0109 O   0  0  0  0  0  0
  -52.1156   -5.6055   19.0532 O   0  0  0  0  0  0
  -52.1346   -5.8344   14.7423 O   0  0  0  0  0  0
  -50.3143   -1.8332   19.1958 O   0  0  0  0  0  0
  -46.7460   -4.0658   17.6968 O   0  0  0  0  0  0
  -48.5415   -2.4593   14.4106 O   0  0  0  0  0  0
  -46.8092   -0.5007   14.4145 O   0  0  0  0  0  0
  -43.5371   -0.5713   17.8543 O   0  0  0  0  0  0
  -50.0312   -6.9127   20.8236 O   0  0  0  0  0  0
  -49.4328   -9.3914   19.7191 O   0  0  0  0  0  0
  -53.0471   -5.1566   16.8677 C   0  0  0  0  0  0
  -52.6999   -4.5841   18.2424 C   0  0  0  0  0  0
  -51.7834   -5.5239   16.0907 C   0  0  0  0  0  0
  -51.6971   -3.4353   18.0873 C   0  0  0  0  0  0
  -50.7959   -4.3549   16.0782 C   0  0  0  0  0  0
  -51.2469   -2.8730   19.4304 C   0  0  0  0  0  0
  -48.4822   -4.1961   16.0190 C   0  0  0  0  0  0
  -47.8389   -4.6739   17.1000 C   0  0  0  0  0  0
  -47.9972   -2.9417   15.3947 C   0  0  0  0  0  0
  -46.8282   -2.3086   16.0242 C   0  0  0  0  0  0
  -46.2618   -2.9066   17.1476 C   0  0  0  0  0  0
  -48.2572   -5.9078   17.7889 C   0  0  0  0  0  0
  -46.2925   -1.1256   15.5089 C   0  0  0  0  0  0
  -45.1540   -2.3242   17.7644 C   0  0  0  0  0  0
  -48.9552   -5.8316   18.9945 C   0  0  0  0  0  0
  -47.9559   -7.1525   17.2355 C   0  0  0  0  0  0
  -45.1844   -0.5452   16.1273 C   0  0  0  0  0  0
  -44.6160   -1.1431   17.2528 C   0  0  0  0  0  0
  -49.3515   -6.9995   19.6463 C   0  0  0  0  0  0
  -48.3521   -8.3203   17.8874 C   0  0  0  0  0  0
  -49.0500   -8.2438   19.0928 C   0  0  0  0  0  0
  -54.1148   -6.6071   16.1178 H   0  0  0  0  0  0
  -52.7778   -6.3108   19.1521 H   0  0  0  0  0  0
  -52.5054   -6.7332   14.7442 H   0  0  0  0  0  0
  -50.7798   -1.1209   18.7248 H   0  0  0  0  0  0
  -46.1874    0.1611   14.0750 H   0  0  0  0  0  0
  -43.2724    0.2148   17.3462 H   0  0  0  0  0  0
  -50.4519   -7.7724   20.9980 H   0  0  0  0  0  0
  -49.1806   -9.3396   20.6570 H   0  0  0  0  0  0
  1 16  1  0  0  0
  1 17  1  0  0  0
  2 17  1  0  0  0
  2 19  1  0  0  0
  3 13  1  0  0  0
  3 34  1  0  0  0
  4 14  1  0  0  0
  4 35  1  0  0  0
  5 15  1  0  0  0
  5 36  1  0  0  0
  6 18  1  0  0  0
  6 37  1  0  0  0
  7 20  1  0  0  0
  7 23  1  0  0  0
  8 21  2  0  0  0
  9 25  1  0  0  0
  9 38  1  0  0  0
 10 30  1  0  0  0
 10 39  1  0  0  0
 11 31  1  0  0  0
 11 40  1  0  0  0
 12 33  1  0  0  0
 12 41  1  0  0  0
 13 14  1  0  0  0
 13 15  1  0  0  0
 14 16  1  0  0  0
 15 17  1  0  0  0
 16 18  1  0  0  0
 19 20  2  0  0  0
 19 21  1  0  0  0
 20 24  1  0  0  0
 21 22  1  0  0  0
 22 23  1  0  0  0
 22 25  2  0  0  0
 23 26  2  0  0  0
 24 27  2  0  0  0
 24 28  1  0  0  0
 25 29  1  0  0  0
 26 30  1  0  0  0
 27 31  1  0  0  0
 28 32  2  0  0  0
 29 30  2  0  0  0
 31 33  2  0  0  0
 32 33  1  0  0  0
M  END
>  <CHROM.0>
-34.52442894,176.78003047,-64.14424088

>  <CHROM.1>
-25.81463904,88.10836608,175.80235811,-61.10126740,-77.81299189,64.08898010
-165.59932798,177.41187886,163.35281532,-48.48555877,58.34019523,75.72040467
-49.04702727,-4.33676449,17.33659607,2.40727407,0.25175173,2.53067911

>  <Name>
5281643

>  <PUBCHEM_ATOM_DEF_STEREO_COUNT>
5

>  <PUBCHEM_ATOM_UDEF_STEREO_COUNT>
0

>  <PUBCHEM_BOND_DEF_STEREO_COUNT>
0

>  <PUBCHEM_BOND_UDEF_STEREO_COUNT>
0

>  <PUBCHEM_CACTVS_TAUTO_COUNT>
162

>  <PUBCHEM_COMPONENT_COUNT>
1

>  <PUBCHEM_COMPOUND_CID>
5281643

>  <PUBCHEM_CONFORMER_DIVERSEORDER>
1
86
59
70
75
65
68
80
35
60
72
84
10
81
85
66
61
88
58
63
62
69
39
16
83
52
30
67
49
47
76
25
2
57
64
87
14
71
45
19
53
36
79
27
42
9
34
4
29
40
78
48
43
56
12
11
44
74
17
38
82
37
23
3
8
31
6
50
33
28
55
22
73
77
51
46
5
24
41
26
20
18
32
54
7
21
15
13

>  <PUBCHEM_CONFORMER_ID>
0050976B00000001

>  <PUBCHEM_CONFORMER_RMSD>
0.8

>  <PUBCHEM_COORDINATE_TYPE>
2
5
10

>  <PUBCHEM_EFFECTIVE_ROTOR_COUNT>
5.2

>  <PUBCHEM_FEATURE_SELFOVERLAP>
101.615

>  <PUBCHEM_HEAVY_ATOM_COUNT>
33

>  <PUBCHEM_ISOTOPIC_ATOM_COUNT>
0

>  <PUBCHEM_MMFF94_ENERGY>
104.7486

>  <PUBCHEM_MMFF94_PARTIAL_CHARGES>
46
1 -0.56
10 -0.53
11 -0.53
12 -0.53
13 0.28
14 0.28
15 0.28
16 0.28
17 0.56
18 0.28
19 0.09
2 -0.36
20 0.05
21 0.47
22 0.09
23 0.08
24 0.03
25 0.08
26 -0.15
27 -0.15
28 -0.15
29 -0.15
3 -0.68
30 0.08
31 0.08
32 -0.15
33 0.08
4 -0.68
41 0.4
42 0.4
43 0.4
44 0.4
45 0.15
46 0.15
47 0.15
48 0.15
49 0.15
5 -0.68
50 0.45
51 0.45
52 0.45
53 0.45
6 -0.68
7 -0.16
8 -0.57
9 -0.53

>  <PUBCHEM_PHARMACOPHORE_FEATURES>
20
1 1 acceptor
1 10 donor
1 11 donor
1 12 donor
1 2 acceptor
1 3 acceptor
1 3 donor
1 4 acceptor
1 4 donor
1 5 acceptor
1 5 donor
1 6 acceptor
1 6 donor
1 7 acceptor
1 8 acceptor
1 9 donor
6 1 13 14 15 16 17 rings
6 22 23 25 26 29 30 rings
6 24 27 28 31 32 33 rings
6 7 19 20 21 22 23 rings

>  <PUBCHEM_SHAPE_FINGERPRINT>
10006869 2 18335973191630432171
10050765 1 18411138078758306218
10254770 206 17543629735110429114
10411042 1 18049726522484379307
10688039 33 18122628511688036570
1100329 8 18191865846011046165
11014199 57 18193559101690162847
11115154 58 17485060211102720839
11578080 2 16772653593855117074
12160290 23 18200008716930094571
12422481 6 18057344965791821347
12788726 201 18191291870106976058
13540713 4 18130787898074025568
1361 2 18337097987698836213
13690498 29 18198645374673823918
138480 1 16825304412646788035
13944108 23 17257933693666577220
140371 6 17616249621068240634
14068700 686 18053660567363316456
14508225 48 18194396925319104870
14790565 3 18196095438813983089
15131766 46 15504380113060768694
15463212 79 18262230015331414266
15484559 13 17837767833426351551
17357779 13 17982160420581768986
1813 80 17767144346333510902
19591789 44 18267018367185251353
20101258 96 18119543264584813442
20775438 99 17766234985840219669
21033648 144 18343867719350468664
21033648 29 18339635629996413648
21307412 95 17843144519371973382
21641784 216 18048331221354704092
21703447 108 18196922482976566226
23227448 37 18412825798245716428
23559900 14 18201999920346542688
238 59 17688559707949800469
3298306 158 18050845511872374654
3610482 184 17969243217130771598
38695281 34 18051131393374722297
4058900 60 17977675212157126569
44062 13 18341619213703054494
508706 21 18341040878859799886
59025328 239 17125891581249652975
7164475 11 18193562392178378628

>  <PUBCHEM_SHAPE_MULTIPOLES>
608.69
9.74
6.75
1.2
13.19
0.72
0.16
-1.42
2.09
-9.34
1.15
-0.24
0.37
0.55

>  <PUBCHEM_SHAPE_SELFOVERLAP>
1341.774

>  <PUBCHEM_SHAPE_VOLUME>
322.8

>  <RI>
-1.72645e+08

>  <Rbt.Current_Directory>
/root/miniconda3/envs/rdock/share/rxdock-2013.1.1_148c5bd1-0/data/ligands/prepped_ligands/Hyperoside

>  <Rbt.Executable>
rbdock/0.1.0

>  <Rbt.Library>
librxdock.so/0.1.0

>  <Rbt.Parameter_File>
/root/miniconda3/envs/rdock/share/rxdock-2013.1.1_148c5bd1-0/data/scripts/dock.prm

>  <Rbt.Receptor>
def.prm

>  <SCORE>
-6.73379

>  <SCORE.INTER>
-10.5081

>  <SCORE.INTER.CONST>
1

>  <SCORE.INTER.POLAR>
-0.931105

>  <SCORE.INTER.REPUL>
0.412397

>  <SCORE.INTER.ROT>
4

>  <SCORE.INTER.VDW>
-18.8044

>  <SCORE.INTER.norm>
-0.318428

>  <SCORE.INTRA>
3.92509

>  <SCORE.INTRA.DIHEDRAL>
5.29567

>  <SCORE.INTRA.DIHEDRAL.0>
13.4636

>  <SCORE.INTRA.POLAR>
0.237056

>  <SCORE.INTRA.POLAR.0>
-0.250933

>  <SCORE.INTRA.REPUL>
0

>  <SCORE.INTRA.REPUL.0>
0

>  <SCORE.INTRA.VDW>
0.471262

>  <SCORE.INTRA.VDW.0>
-3.21539

>  <SCORE.INTRA.norm>
0.118942

>  <SCORE.RESTR>
0

>  <SCORE.RESTR.CAVITY>
0

>  <SCORE.RESTR.norm>
0

>  <SCORE.SYSTEM>
-0.150747

>  <SCORE.SYSTEM.CONST>
0

>  <SCORE.SYSTEM.DIHEDRAL>
1.46058

>  <SCORE.SYSTEM.VDW>
-0.881036

>  <SCORE.SYSTEM.norm>
-0.00456811

>  <SCORE.heavy>
33

>  <SCORE.norm>
-0.204054

$$$$
