Berchemol.pdb
 OpenBabel02182114013D

 51 53  0  0  1  0  0  0  0  0999 V2000
   12.0110   -2.2490   20.2040 O   0  0  0  0  0  0  0  0  0  0  0  0
    9.1540   -1.7250   21.0230 O   0  0  0  0  0  0  0  0  0  0  0  0
    8.7190   -0.1310   22.9860 O   0  0  0  0  0  0  0  0  0  0  0  0
    9.1770    0.1680   16.5380 O   0  0  0  0  0  0  0  0  0  0  0  0
    6.9650   -2.8050   25.8210 O   0  0  0  0  0  0  0  0  0  0  0  0
   10.0520    2.7410   16.7700 O   0  0  0  0  0  0  0  0  0  0  0  0
    7.4260   -5.1970   27.1650 O   0  0  0  0  0  0  0  0  0  0  0  0
   10.3870   -1.4970   21.7250 C   0  0  1  0  0  0  0  0  0  0  0  0
   10.8970   -2.8860   22.2020 C   0  0  1  0  0  0  0  0  0  0  0  0
   11.4760   -1.0300   20.7330 C   0  0  2  0  0  0  0  0  0  0  0  0
   12.0870   -3.2010   21.2730 C   0  0  0  0  0  0  0  0  0  0  0  0
   11.3240   -3.0610   23.6800 C   0  0  0  0  0  0  0  0  0  0  0  0
   10.1120   -0.4330   22.8130 C   0  0  0  0  0  0  0  0  0  0  0  0
   11.0790   -0.0390   19.6440 C   0  0  0  0  0  0  0  0  0  0  0  0
   10.2690   -3.6270   24.6190 C   0  0  0  0  0  0  0  0  0  0  0  0
   10.3020   -0.4140   18.5670 C   0  0  0  0  0  0  0  0  0  0  0  0
   11.5040    1.2660   19.7480 C   0  0  0  0  0  0  0  0  0  0  0  0
    9.0700   -2.9710   24.7980 C   0  0  0  0  0  0  0  0  0  0  0  0
   10.5080   -4.8030   25.2930 C   0  0  0  0  0  0  0  0  0  0  0  0
    9.9410    0.5000   17.5930 C   0  0  0  0  0  0  0  0  0  0  0  0
   11.1590    2.1870   18.7850 C   0  0  0  0  0  0  0  0  0  0  0  0
   10.3840    1.8110   17.7120 C   0  0  0  0  0  0  0  0  0  0  0  0
    8.1150   -3.4710   25.6590 C   0  0  0  0  0  0  0  0  0  0  0  0
    9.5580   -5.3200   26.1460 C   0  0  0  0  0  0  0  0  0  0  0  0
    8.3620   -4.6630   26.3300 C   0  0  0  0  0  0  0  0  0  0  0  0
    9.2540   -1.1760   16.0170 C   0  0  0  0  0  0  0  0  0  0  0  0
    7.0230   -1.3650   25.7670 C   0  0  0  0  0  0  0  0  0  0  0  0
   10.1170   -3.5100   22.1530 H   0  0  0  0  0  0  0  0  0  0  0  0
   12.1390   -0.4670   21.2260 H   0  0  0  0  0  0  0  0  0  0  0  0
    8.7260   -0.8590   20.7450 H   0  0  0  0  0  0  0  0  0  0  0  0
    8.3580    0.4060   22.2160 H   0  0  0  0  0  0  0  0  0  0  0  0
    9.5230    2.3390   16.0160 H   0  0  0  0  0  0  0  0  0  0  0  0
    7.7760   -6.0090   27.6440 H   0  0  0  0  0  0  0  0  0  0  0  0
   12.9520   -3.1050   21.7660 H   0  0  0  0  0  0  0  0  0  0  0  0
   12.0480   -4.1400   20.9330 H   0  0  0  0  0  0  0  0  0  0  0  0
   11.5970   -2.1640   24.0290 H   0  0  0  0  0  0  0  0  0  0  0  0
   12.0610   -3.7360   23.6680 H   0  0  0  0  0  0  0  0  0  0  0  0
   10.4740   -0.7670   23.6830 H   0  0  0  0  0  0  0  0  0  0  0  0
   10.5590    0.4100   22.5150 H   0  0  0  0  0  0  0  0  0  0  0  0
    9.9940   -1.3620   18.4890 H   0  0  0  0  0  0  0  0  0  0  0  0
   12.0650    1.5460   20.5270 H   0  0  0  0  0  0  0  0  0  0  0  0
    8.8900   -2.1230   24.2990 H   0  0  0  0  0  0  0  0  0  0  0  0
   11.3750   -5.2840   25.1630 H   0  0  0  0  0  0  0  0  0  0  0  0
   11.4740    3.1330   18.8660 H   0  0  0  0  0  0  0  0  0  0  0  0
    9.7380   -6.1750   26.6320 H   0  0  0  0  0  0  0  0  0  0  0  0
    9.9130   -1.6970   16.5590 H   0  0  0  0  0  0  0  0  0  0  0  0
    8.3550   -1.6100   16.0710 H   0  0  0  0  0  0  0  0  0  0  0  0
    9.5470   -1.1500   15.0620 H   0  0  0  0  0  0  0  0  0  0  0  0
    7.9700   -1.0830   25.6080 H   0  0  0  0  0  0  0  0  0  0  0  0
    6.4430   -1.0300   25.0240 H   0  0  0  0  0  0  0  0  0  0  0  0
    6.6980   -0.9820   26.6320 H   0  0  0  0  0  0  0  0  0  0  0  0
  1 10  1  0  0  0  0
  1 11  1  0  0  0  0
  2  8  1  0  0  0  0
  2 30  1  0  0  0  0
  3 13  1  0  0  0  0
  3 31  1  0  0  0  0
  4 20  1  0  0  0  0
  4 26  1  0  0  0  0
  5 23  1  0  0  0  0
  5 27  1  0  0  0  0
  6 22  1  0  0  0  0
  6 32  1  0  0  0  0
  7 25  1  0  0  0  0
  7 33  1  0  0  0  0
  8  9  1  1  0  0  0
  8 13  1  0  0  0  0
  9 11  1  0  0  0  0
  9 12  1  0  0  0  0
  9 28  1  6  0  0  0
 10  8  1  1  0  0  0
 10 14  1  0  0  0  0
 10 29  1  0  0  0  0
 11 34  1  0  0  0  0
 11 35  1  0  0  0  0
 12 15  1  0  0  0  0
 12 36  1  0  0  0  0
 12 37  1  0  0  0  0
 13 38  1  0  0  0  0
 13 39  1  0  0  0  0
 14 16  2  0  0  0  0
 14 17  1  0  0  0  0
 15 18  2  0  0  0  0
 15 19  1  0  0  0  0
 16 20  1  0  0  0  0
 16 40  1  0  0  0  0
 17 21  2  0  0  0  0
 17 41  1  0  0  0  0
 18 23  1  0  0  0  0
 18 42  1  0  0  0  0
 19 24  2  0  0  0  0
 19 43  1  0  0  0  0
 20 22  2  0  0  0  0
 21 22  1  0  0  0  0
 21 44  1  0  0  0  0
 23 25  2  0  0  0  0
 24 25  1  0  0  0  0
 24 45  1  0  0  0  0
 26 46  1  0  0  0  0
 26 47  1  0  0  0  0
 26 48  1  0  0  0  0
 27 49  1  0  0  0  0
 27 50  1  0  0  0  0
 27 51  1  0  0  0  0
M  END
>  <HEADER>
                                                                          

>  <TITLE>
    14521044_D                                                            

>  <MASTER>
        0    0    0    0    0    0    0    0   51    0   51    0          

$$$$
