Berchemol.pdb
  RxDock  02242101543D
librxdock.so/0.1.0
 31 33  0  0  0  0  0  0  0  0999 V2000
  -52.6038   -1.6736   17.8098 O   0  0  0  0  0  0
  -50.0590   -2.8156   16.6577 O   0  0  0  0  0  0
  -49.5914   -2.7670   20.3343 O   0  0  0  0  0  0
  -55.1572   -5.6602   16.1237 O   0  0  0  0  0  0
  -45.2077   -1.6078   17.6329 O   0  0  0  0  0  0
  -53.6367   -7.8569   16.6737 O   0  0  0  0  0  0
  -44.1565    0.9529   17.9136 O   0  0  0  0  0  0
  -50.3738   -2.3877   17.9929 C   0  0  0  0  0  0
  -50.3891   -0.8332   17.9757 C   0  0  0  0  0  0
  -51.8340   -2.7627   18.3326 C   0  0  0  0  0  0
  -51.8831   -0.4601   18.0606 C   0  0  0  0  0  0
  -49.5933   -0.0634   19.0582 C   0  0  0  0  0  0
  -49.3711   -3.0744   18.9492 C   0  0  0  0  0  0
  -52.3516   -4.1227   17.8765 C   0  0  0  0  0  0
  -48.1267    0.1999   18.7502 C   0  0  0  0  0  0
  -53.5498   -4.2576   17.2053 C   0  0  0  0  0  0
  -51.5943   -5.2420   18.1375 C   0  0  0  0  0  0
  -47.3113   -0.8216   18.3124 C   0  0  0  0  0  0
  -47.6080    1.4654   18.9049 C   0  0  0  0  0  0
  -54.0001   -5.4976   16.7882 C   0  0  0  0  0  0
  -52.0300   -6.4840   17.7348 C   0  0  0  0  0  0
  -53.2250   -6.6162   17.0656 C   0  0  0  0  0  0
  -45.9772   -0.5929   18.0453 C   0  0  0  0  0  0
  -46.2807    1.7103   18.6297 C   0  0  0  0  0  0
  -45.4636    0.6898   18.1975 C   0  0  0  0  0  0
  -55.1150   -5.9305   14.7063 C   0  0  0  0  0  0
  -45.3140   -1.9964   16.2482 C   0  0  0  0  0  0
  -49.1707   -2.4532   16.3575 H   0  0  0  0  0  0
  -50.5270   -2.9994   20.6210 H   0  0  0  0  0  0
  -52.9100   -8.3596   16.1949 H   0  0  0  0  0  0
  -43.6715    0.1292   17.6010 H   0  0  0  0  0  0
  1 10  1  0  0  0
  1 11  1  0  0  0
  2  8  1  0  0  0
  2 28  1  0  0  0
  3 13  1  0  0  0
  3 29  1  0  0  0
  4 20  1  0  0  0
  4 26  1  0  0  0
  5 23  1  0  0  0
  5 27  1  0  0  0
  6 22  1  0  0  0
  6 30  1  0  0  0
  7 25  1  0  0  0
  7 31  1  0  0  0
  8  9  1  0  0  0
  8 13  1  0  0  0
  9 11  1  0  0  0
  9 12  1  0  0  0
 10  8  1  0  0  0
 10 14  1  0  0  0
 12 15  1  0  0  0
 14 16  2  0  0  0
 14 17  1  0  0  0
 15 18  2  0  0  0
 15 19  1  0  0  0
 16 20  1  0  0  0
 17 21  2  0  0  0
 18 23  1  0  0  0
 19 24  2  0  0  0
 20 22  2  0  0  0
 21 22  1  0  0  0
 23 25  2  0  0  0
 24 25  1  0  0  0
M  END
>  <CHROM.0>
-70.27120870,-177.91182844,-76.16091344

>  <CHROM.1>
58.90892855,56.29709264,105.28641079,78.51960084,130.75046366,0.07237034
-178.29501087,86.55487826,-9.18144407,-48.90001995,-50.06155557,-2.57876901
17.75259681,2.47314816,-0.07934407,-2.79876313

>  <HEADER>
                                                                          

>  <MASTER>
        0    0    0    0    0    0    0    0   51    0   51    0          

>  <Name>
Berchemol.pdb

>  <RI>
-1.02587e+09

>  <Rbt.Current_Directory>
/root/miniconda3/envs/rdock/share/rxdock-2013.1.1_148c5bd1-0/data/ligands/prepped_ligands/Berchemol

>  <Rbt.Executable>
rbdock/0.1.0

>  <Rbt.Library>
librxdock.so/0.1.0

>  <Rbt.Parameter_File>
/root/miniconda3/envs/rdock/share/rxdock-2013.1.1_148c5bd1-0/data/scripts/dock.prm

>  <Rbt.Receptor>
def.prm

>  <SCORE>
-15.0465

>  <SCORE.INTER>
-11.5477

>  <SCORE.INTER.CONST>
1

>  <SCORE.INTER.POLAR>
-1.7468

>  <SCORE.INTER.REPUL>
0

>  <SCORE.INTER.ROT>
6

>  <SCORE.INTER.VDW>
-17.0085

>  <SCORE.INTER.norm>
-0.427691

>  <SCORE.INTRA>
-2.92684

>  <SCORE.INTRA.DIHEDRAL>
2.07171

>  <SCORE.INTRA.DIHEDRAL.0>
13.6736

>  <SCORE.INTRA.POLAR>
0.0710462

>  <SCORE.INTRA.POLAR.0>
-0.0955695

>  <SCORE.INTRA.REPUL>
0

>  <SCORE.INTRA.REPUL.0>
0

>  <SCORE.INTRA.VDW>
-4.20425

>  <SCORE.INTRA.VDW.0>
2.01328

>  <SCORE.INTRA.norm>
-0.108402

>  <SCORE.RESTR>
0

>  <SCORE.RESTR.CAVITY>
0

>  <SCORE.RESTR.norm>
0

>  <SCORE.SYSTEM>
-0.572033

>  <SCORE.SYSTEM.CONST>
0

>  <SCORE.SYSTEM.DIHEDRAL>
0.901511

>  <SCORE.SYSTEM.VDW>
-1.02279

>  <SCORE.SYSTEM.norm>
-0.0211864

>  <SCORE.heavy>
27

>  <SCORE.norm>
-0.557279

>  <TITLE>
    14521044_D                                                            

$$$$
Berchemol.pdb
  RxDock  02242101543D
librxdock.so/0.1.0
 31 33  0  0  0  0  0  0  0  0999 V2000
  -47.2926   -2.9760   13.8600 O   0  0  0  0  0  0
  -47.5557    0.0198   14.1124 O   0  0  0  0  0  0
  -48.5098    0.3145   16.6847 O   0  0  0  0  0  0
  -44.9545   -1.8724   19.2428 O   0  0  0  0  0  0
  -54.2994   -4.3911   15.3837 O   0  0  0  0  0  0
  -42.7453   -1.1101   17.8364 O   0  0  0  0  0  0
  -52.5472   -5.5285   17.2213 O   0  0  0  0  0  0
  -48.4032   -1.0387   14.5881 C   0  0  0  0  0  0
  -49.1598   -1.5999   13.3513 C   0  0  0  0  0  0
  -47.5390   -2.2305   15.0582 C   0  0  0  0  0  0
  -48.4913   -2.9618   13.0741 C   0  0  0  0  0  0
  -50.6963   -1.7751   13.4281 C   0  0  0  0  0  0
  -49.2599   -0.4653   15.7408 C   0  0  0  0  0  0
  -46.2636   -1.9300   15.8382 C   0  0  0  0  0  0
  -51.2049   -2.7832   14.4480 C   0  0  0  0  0  0
  -46.2097   -2.0347   17.2132 C   0  0  0  0  0  0
  -45.1360   -1.5520   15.1453 C   0  0  0  0  0  0
  -52.5320   -3.1555   14.4591 C   0  0  0  0  0  0
  -50.3370   -3.3317   15.3646 C   0  0  0  0  0  0
  -45.0414   -1.7694   17.9053 C   0  0  0  0  0  0
  -43.9669   -1.2786   15.8185 C   0  0  0  0  0  0
  -43.9154   -1.3838   17.1895 C   0  0  0  0  0  0
  -53.0027   -4.0580   15.3904 C   0  0  0  0  0  0
  -50.7911   -4.2435   16.2918 C   0  0  0  0  0  0
  -52.1176   -4.6124   16.3077 C   0  0  0  0  0  0
  -45.2835   -0.7241   20.0532 C   0  0  0  0  0  0
  -54.6415   -5.7022   14.8899 C   0  0  0  0  0  0
  -46.9699   -0.2920   13.3574 H   0  0  0  0  0  0
  -47.8680   -0.2554   17.2089 H   0  0  0  0  0  0
  -42.7553   -1.4401   18.7856 H   0  0  0  0  0  0
  -51.7835   -6.0634   17.5979 H   0  0  0  0  0  0
  1 10  1  0  0  0
  1 11  1  0  0  0
  2  8  1  0  0  0
  2 28  1  0  0  0
  3 13  1  0  0  0
  3 29  1  0  0  0
  4 20  1  0  0  0
  4 26  1  0  0  0
  5 23  1  0  0  0
  5 27  1  0  0  0
  6 22  1  0  0  0
  6 30  1  0  0  0
  7 25  1  0  0  0
  7 31  1  0  0  0
  8  9  1  0  0  0
  8 13  1  0  0  0
  9 11  1  0  0  0
  9 12  1  0  0  0
 10  8  1  0  0  0
 10 14  1  0  0  0
 12 15  1  0  0  0
 14 16  2  0  0  0
 14 17  1  0  0  0
 15 18  2  0  0  0
 15 19  1  0  0  0
 16 20  1  0  0  0
 17 21  2  0  0  0
 18 23  1  0  0  0
 19 24  2  0  0  0
 20 22  2  0  0  0
 21 22  1  0  0  0
 23 25  2  0  0  0
 24 25  1  0  0  0
M  END
>  <CHROM.0>
-63.18445100,65.19202174,-60.04518836

>  <CHROM.1>
-53.42567610,-67.68313095,-88.55231797,106.51443056,14.31344672,160.71377809
-45.58483812,-63.99612832,-138.10969621,-170.42272111,-48.58025629,-2.36553885
15.81658612,-0.10278957,-0.41629821,-1.21252150

>  <HEADER>
                                                                          

>  <MASTER>
        0    0    0    0    0    0    0    0   51    0   51    0          

>  <Name>
Berchemol.pdb

>  <RI>
-1.02587e+09

>  <Rbt.Current_Directory>
/root/miniconda3/envs/rdock/share/rxdock-2013.1.1_148c5bd1-0/data/ligands/prepped_ligands/Berchemol

>  <Rbt.Executable>
rbdock/0.1.0

>  <Rbt.Library>
librxdock.so/0.1.0

>  <Rbt.Parameter_File>
/root/miniconda3/envs/rdock/share/rxdock-2013.1.1_148c5bd1-0/data/scripts/dock.prm

>  <Rbt.Receptor>
def.prm

>  <SCORE>
-19.6836

>  <SCORE.INTER>
-15.4486

>  <SCORE.INTER.CONST>
1

>  <SCORE.INTER.POLAR>
-1.34354

>  <SCORE.INTER.REPUL>
0.000229445

>  <SCORE.INTER.ROT>
6

>  <SCORE.INTER.VDW>
-22.2817

>  <SCORE.INTER.norm>
-0.57217

>  <SCORE.INTRA>
-3.23585

>  <SCORE.INTRA.DIHEDRAL>
-1.12406

>  <SCORE.INTRA.DIHEDRAL.0>
13.6736

>  <SCORE.INTRA.POLAR>
0.0764941

>  <SCORE.INTRA.POLAR.0>
-0.0955695

>  <SCORE.INTRA.REPUL>
0

>  <SCORE.INTRA.REPUL.0>
0

>  <SCORE.INTRA.VDW>
-2.9339

>  <SCORE.INTRA.VDW.0>
2.01328

>  <SCORE.INTRA.norm>
-0.119846

>  <SCORE.RESTR>
0

>  <SCORE.RESTR.CAVITY>
0

>  <SCORE.RESTR.norm>
0

>  <SCORE.SYSTEM>
-0.999183

>  <SCORE.SYSTEM.CONST>
0

>  <SCORE.SYSTEM.DIHEDRAL>
0.159759

>  <SCORE.SYSTEM.POLAR>
-0.000659597

>  <SCORE.SYSTEM.VDW>
-1.07682

>  <SCORE.SYSTEM.norm>
-0.0370068

>  <SCORE.heavy>
27

>  <SCORE.norm>
-0.729023

>  <TITLE>
    14521044_D                                                            

$$$$
Berchemol.pdb
  RxDock  02242101543D
librxdock.so/0.1.0
 31 33  0  0  0  0  0  0  0  0999 V2000
  -50.3044   -0.9813   17.2921 O   0  0  0  0  0  0
  -51.5576   -3.0118   15.4443 O   0  0  0  0  0  0
  -49.5846   -4.3198   13.8886 O   0  0  0  0  0  0
  -50.0907   -5.9063   20.6186 O   0  0  0  0  0  0
  -45.1091    0.4198   16.9493 O   0  0  0  0  0  0
  -52.7623   -5.4918   20.9797 O   0  0  0  0  0  0
  -43.6356   -1.9037   16.5361 O   0  0  0  0  0  0
  -50.1780   -2.6908   15.6865 C   0  0  0  0  0  0
  -49.9003   -1.3346   14.9790 C   0  0  0  0  0  0
  -49.9698   -2.3700   17.1837 C   0  0  0  0  0  0
  -49.8014   -0.3116   16.1288 C   0  0  0  0  0  0
  -48.6628   -1.2094   14.0568 C   0  0  0  0  0  0
  -49.3331   -3.9069   15.2406 C   0  0  0  0  0  0
  -50.6946   -3.2328   18.2112 C   0  0  0  0  0  0
  -47.3082   -1.3860   14.7268 C   0  0  0  0  0  0
  -50.0361   -4.1985   18.9448 C   0  0  0  0  0  0
  -52.0412   -3.0327   18.4136 C   0  0  0  0  0  0
  -46.8077   -0.4067   15.5577 C   0  0  0  0  0  0
  -46.5765   -2.5309   14.5073 C   0  0  0  0  0  0
  -50.7059   -4.9656   19.8815 C   0  0  0  0  0  0
  -52.7244   -3.7908   19.3373 C   0  0  0  0  0  0
  -52.0658   -4.7531   20.0678 C   0  0  0  0  0  0
  -45.5737   -0.5540   16.1568 C   0  0  0  0  0  0
  -45.3486   -2.6964   15.1092 C   0  0  0  0  0  0
  -44.8449   -1.7166   15.9352 C   0  0  0  0  0  0
  -49.4069   -5.5090   21.8262 C   0  0  0  0  0  0
  -45.8411    0.6894   18.1623 C   0  0  0  0  0  0
  -51.7448   -3.1019   14.4608 H   0  0  0  0  0  0
  -50.5128   -4.6920   13.7816 H   0  0  0  0  0  0
  -53.6919   -5.1364   21.1192 H   0  0  0  0  0  0
  -43.3162   -2.8524   16.4402 H   0  0  0  0  0  0
  1 10  1  0  0  0
  1 11  1  0  0  0
  2  8  1  0  0  0
  2 28  1  0  0  0
  3 13  1  0  0  0
  3 29  1  0  0  0
  4 20  1  0  0  0
  4 26  1  0  0  0
  5 23  1  0  0  0
  5 27  1  0  0  0
  6 22  1  0  0  0
  6 30  1  0  0  0
  7 25  1  0  0  0
  7 31  1  0  0  0
  8  9  1  0  0  0
  8 13  1  0  0  0
  9 11  1  0  0  0
  9 12  1  0  0  0
 10  8  1  0  0  0
 10 14  1  0  0  0
 12 15  1  0  0  0
 14 16  2  0  0  0
 14 17  1  0  0  0
 15 18  2  0  0  0
 15 19  1  0  0  0
 16 20  1  0  0  0
 17 21  2  0  0  0
 18 23  1  0  0  0
 19 24  2  0  0  0
 20 22  2  0  0  0
 21 22  1  0  0  0
 23 25  2  0  0  0
 24 25  1  0  0  0
M  END
>  <CHROM.0>
-69.33391215,-60.13364989,-174.97311756

>  <CHROM.1>
60.49745819,-67.14692192,84.15386445,64.56318308,170.65397380,168.19966491
54.12705085,-63.07928922,-134.14663581,-72.40936936,-48.92701979,-2.65799284
17.12585049,2.41592767,0.32608697,1.94936624

>  <HEADER>
                                                                          

>  <MASTER>
        0    0    0    0    0    0    0    0   51    0   51    0          

>  <Name>
Berchemol.pdb

>  <RI>
-1.02587e+09

>  <Rbt.Current_Directory>
/root/miniconda3/envs/rdock/share/rxdock-2013.1.1_148c5bd1-0/data/ligands/prepped_ligands/Berchemol

>  <Rbt.Executable>
rbdock/0.1.0

>  <Rbt.Library>
librxdock.so/0.1.0

>  <Rbt.Parameter_File>
/root/miniconda3/envs/rdock/share/rxdock-2013.1.1_148c5bd1-0/data/scripts/dock.prm

>  <Rbt.Receptor>
def.prm

>  <SCORE>
-12.4877

>  <SCORE.INTER>
-7.00256

>  <SCORE.INTER.CONST>
1

>  <SCORE.INTER.POLAR>
-0.66601

>  <SCORE.INTER.REPUL>
0

>  <SCORE.INTER.ROT>
6

>  <SCORE.INTER.VDW>
-16.1381

>  <SCORE.INTER.norm>
-0.259354

>  <SCORE.INTRA>
-4.57363

>  <SCORE.INTRA.DIHEDRAL>
-2.67721

>  <SCORE.INTRA.DIHEDRAL.0>
13.6736

>  <SCORE.INTRA.POLAR>
0.0955695

>  <SCORE.INTRA.POLAR.0>
-0.0955695

>  <SCORE.INTRA.REPUL>
0

>  <SCORE.INTRA.REPUL.0>
0

>  <SCORE.INTRA.VDW>
-3.55996

>  <SCORE.INTRA.VDW.0>
2.01328

>  <SCORE.INTRA.norm>
-0.169394

>  <SCORE.RESTR>
0

>  <SCORE.RESTR.CAVITY>
0

>  <SCORE.RESTR.norm>
0

>  <SCORE.SYSTEM>
-0.911553

>  <SCORE.SYSTEM.CONST>
0

>  <SCORE.SYSTEM.DIHEDRAL>
0.275561

>  <SCORE.SYSTEM.POLAR>
-0.0122442

>  <SCORE.SYSTEM.VDW>
-1.0077

>  <SCORE.SYSTEM.norm>
-0.0337612

>  <SCORE.heavy>
27

>  <SCORE.norm>
-0.462509

>  <TITLE>
    14521044_D                                                            

$$$$
Berchemol.pdb
  RxDock  02242101543D
librxdock.so/0.1.0
 31 33  0  0  0  0  0  0  0  0999 V2000
  -47.2842   -1.5967   18.5596 O   0  0  0  0  0  0
  -44.7927   -2.8402   17.3961 O   0  0  0  0  0  0
  -44.7468   -2.5467   14.5730 O   0  0  0  0  0  0
  -43.5167   -0.1837   21.6867 O   0  0  0  0  0  0
  -50.4443   -7.0763   16.6411 O   0  0  0  0  0  0
  -42.3777    1.9830   20.4835 O   0  0  0  0  0  0
  -52.7295   -5.9891   15.4850 O   0  0  0  0  0  0
  -45.8498   -2.0963   16.7682 C   0  0  0  0  0  0
  -47.0802   -3.0431   16.6874 C   0  0  0  0  0  0
  -46.3226   -0.9637   17.7072 C   0  0  0  0  0  0
  -48.0485   -2.5116   17.7636 C   0  0  0  0  0  0
  -47.8250   -3.1915   15.3381 C   0  0  0  0  0  0
  -45.2975   -1.5395   15.4354 C   0  0  0  0  0  0
  -45.2659   -0.1871   18.4855 C   0  0  0  0  0  0
  -49.1410   -3.9541   15.3802 C   0  0  0  0  0  0
  -44.8849   -0.5539   19.7601 C   0  0  0  0  0  0
  -44.6737    0.9044   17.8917 C   0  0  0  0  0  0
  -49.2176   -5.1796   16.0064 C   0  0  0  0  0  0
  -50.2651   -3.4186   14.7938 C   0  0  0  0  0  0
  -43.9164    0.1546   20.4487 C   0  0  0  0  0  0
  -43.7126    1.6241   18.5647 C   0  0  0  0  0  0
  -43.3341    1.2565   19.8355 C   0  0  0  0  0  0
  -50.4041   -5.8829   16.0356 C   0  0  0  0  0  0
  -51.4592   -4.1044   14.8266 C   0  0  0  0  0  0
  -51.5360   -5.3312   15.4470 C   0  0  0  0  0  0
  -44.5001   -0.6556   22.6322 C   0  0  0  0  0  0
  -51.1554   -7.1574   17.8932 C   0  0  0  0  0  0
  -44.4922   -3.6066   16.8192 H   0  0  0  0  0  0
  -44.5290   -2.1769   13.6634 H   0  0  0  0  0  0
  -42.2180    1.6454   21.4165 H   0  0  0  0  0  0
  -52.6032   -6.9867   15.4960 H   0  0  0  0  0  0
  1 10  1  0  0  0
  1 11  1  0  0  0
  2  8  1  0  0  0
  2 28  1  0  0  0
  3 13  1  0  0  0
  3 29  1  0  0  0
  4 20  1  0  0  0
  4 26  1  0  0  0
  5 23  1  0  0  0
  5 27  1  0  0  0
  6 22  1  0  0  0
  6 30  1  0  0  0
  7 25  1  0  0  0
  7 31  1  0  0  0
  8  9  1  0  0  0
  8 13  1  0  0  0
  9 11  1  0  0  0
  9 12  1  0  0  0
 10  8  1  0  0  0
 10 14  1  0  0  0
 12 15  1  0  0  0
 14 16  2  0  0  0
 14 17  1  0  0  0
 15 18  2  0  0  0
 15 19  1  0  0  0
 16 20  1  0  0  0
 17 21  2  0  0  0
 18 23  1  0  0  0
 19 24  2  0  0  0
 20 22  2  0  0  0
 21 22  1  0  0  0
 23 25  2  0  0  0
 24 25  1  0  0  0
M  END
>  <CHROM.0>
-68.86993978,-63.86815727,-57.96692046

>  <CHROM.1>
65.98249437,171.14920245,-38.47945249,108.57783459,-2.92767973,-30.54377581
54.79302782,-170.65111780,28.96776878,-49.13971936,-46.99941230,-2.40897217
17.53159983,0.40623070,0.71163374,1.58854852

>  <HEADER>
                                                                          

>  <MASTER>
        0    0    0    0    0    0    0    0   51    0   51    0          

>  <Name>
Berchemol.pdb

>  <RI>
-1.02587e+09

>  <Rbt.Current_Directory>
/root/miniconda3/envs/rdock/share/rxdock-2013.1.1_148c5bd1-0/data/ligands/prepped_ligands/Berchemol

>  <Rbt.Executable>
rbdock/0.1.0

>  <Rbt.Library>
librxdock.so/0.1.0

>  <Rbt.Parameter_File>
/root/miniconda3/envs/rdock/share/rxdock-2013.1.1_148c5bd1-0/data/scripts/dock.prm

>  <Rbt.Receptor>
def.prm

>  <SCORE>
-17.3431

>  <SCORE.INTER>
-11.948

>  <SCORE.INTER.CONST>
1

>  <SCORE.INTER.POLAR>
-1.72025

>  <SCORE.INTER.REPUL>
0.0373961

>  <SCORE.INTER.ROT>
6

>  <SCORE.INTER.VDW>
-17.6861

>  <SCORE.INTER.norm>
-0.442518

>  <SCORE.INTRA>
-4.50494

>  <SCORE.INTRA.DIHEDRAL>
-3.99669

>  <SCORE.INTRA.DIHEDRAL.0>
13.6736

>  <SCORE.INTRA.POLAR>
-4.66304e-05

>  <SCORE.INTRA.POLAR.0>
-0.0955695

>  <SCORE.INTRA.REPUL>
0

>  <SCORE.INTRA.REPUL.0>
0

>  <SCORE.INTRA.VDW>
-2.50643

>  <SCORE.INTRA.VDW.0>
2.01328

>  <SCORE.INTRA.norm>
-0.16685

>  <SCORE.RESTR>
0.0321664

>  <SCORE.RESTR.CAVITY>
0.0321664

>  <SCORE.RESTR.norm>
0.00119135

>  <SCORE.SYSTEM>
-0.922345

>  <SCORE.SYSTEM.CONST>
0

>  <SCORE.SYSTEM.DIHEDRAL>
0.279294

>  <SCORE.SYSTEM.POLAR>
-0.00567352

>  <SCORE.SYSTEM.VDW>
-1.0427

>  <SCORE.SYSTEM.norm>
-0.0341609

>  <SCORE.heavy>
27

>  <SCORE.norm>
-0.642337

>  <TITLE>
    14521044_D                                                            

$$$$
Berchemol.pdb
  RxDock  02242101543D
librxdock.so/0.1.0
 31 33  0  0  0  0  0  0  0  0999 V2000
  -49.8019   -0.6757   14.4664 O   0  0  0  0  0  0
  -48.7717   -3.4760   14.0135 O   0  0  0  0  0  0
  -48.6183   -4.2701   16.7546 O   0  0  0  0  0  0
  -53.1912   -3.7489   18.2496 O   0  0  0  0  0  0
  -48.0007    1.6014   18.6343 O   0  0  0  0  0  0
  -54.5110   -4.6003   16.0196 O   0  0  0  0  0  0
  -46.3594    0.2612   20.4373 O   0  0  0  0  0  0
  -48.4213   -2.4976   15.0060 C   0  0  0  0  0  0
  -47.5545   -1.4225   14.2920 C   0  0  0  0  0  0
  -49.6826   -1.7182   15.4416 C   0  0  0  0  0  0
  -48.4844   -0.1990   14.1632 C   0  0  0  0  0  0
  -46.2110   -0.9958   14.9327 C   0  0  0  0  0  0
  -47.7773   -3.2506   16.1934 C   0  0  0  0  0  0
  -50.9792   -2.4981   15.6323 C   0  0  0  0  0  0
  -46.2561   -0.6481   16.4133 C   0  0  0  0  0  0
  -51.4845   -2.7742   16.8864 C   0  0  0  0  0  0
  -51.6639   -2.9288   14.5187 C   0  0  0  0  0  0
  -47.1219    0.3191   16.8769 C   0  0  0  0  0  0
  -45.4314   -1.3036   17.2991 C   0  0  0  0  0  0
  -52.6683   -3.4733   17.0423 C   0  0  0  0  0  0
  -52.8400   -3.6307   14.6557 C   0  0  0  0  0  0
  -53.3422   -3.9048   15.9071 C   0  0  0  0  0  0
  -47.1575    0.6495   18.2159 C   0  0  0  0  0  0
  -45.4658   -0.9925   18.6405 C   0  0  0  0  0  0
  -46.3262   -0.0228   19.1043 C   0  0  0  0  0  0
  -52.6397   -3.0969   19.4134 C   0  0  0  0  0  0
  -49.4046    1.2727   18.6649 C   0  0  0  0  0  0
  -47.9724   -4.0195   13.7377 H   0  0  0  0  0  0
  -48.8168   -4.9956   16.0869 H   0  0  0  0  0  0
  -54.7914   -4.7103   16.9783 H   0  0  0  0  0  0
  -46.9556    1.0467   20.6346 H   0  0  0  0  0  0
  1 10  1  0  0  0
  1 11  1  0  0  0
  2  8  1  0  0  0
  2 28  1  0  0  0
  3 13  1  0  0  0
  3 29  1  0  0  0
  4 20  1  0  0  0
  4 26  1  0  0  0
  5 23  1  0  0  0
  5 27  1  0  0  0
  6 22  1  0  0  0
  6 30  1  0  0  0
  7 25  1  0  0  0
  7 31  1  0  0  0
  8  9  1  0  0  0
  8 13  1  0  0  0
  9 11  1  0  0  0
  9 12  1  0  0  0
 10  8  1  0  0  0
 10 14  1  0  0  0
 12 15  1  0  0  0
 14 16  2  0  0  0
 14 17  1  0  0  0
 15 18  2  0  0  0
 15 19  1  0  0  0
 16 20  1  0  0  0
 17 21  2  0  0  0
 18 23  1  0  0  0
 19 24  2  0  0  0
 20 22  2  0  0  0
 21 22  1  0  0  0
 23 25  2  0  0  0
 24 25  1  0  0  0
M  END
>  <CHROM.0>
175.30612629,-176.91740927,-172.54347981

>  <CHROM.1>
70.28581258,62.83098172,11.37014794,72.50225009,1.74915645,-6.27893614,-56.89865094
-48.70912055,-132.55809345,-55.81500280,-49.30797008,-1.80153386,16.62139970
-2.74937133,0.43184920,1.20542364

>  <HEADER>
                                                                          

>  <MASTER>
        0    0    0    0    0    0    0    0   51    0   51    0          

>  <Name>
Berchemol.pdb

>  <RI>
-1.02587e+09

>  <Rbt.Current_Directory>
/root/miniconda3/envs/rdock/share/rxdock-2013.1.1_148c5bd1-0/data/ligands/prepped_ligands/Berchemol

>  <Rbt.Executable>
rbdock/0.1.0

>  <Rbt.Library>
librxdock.so/0.1.0

>  <Rbt.Parameter_File>
/root/miniconda3/envs/rdock/share/rxdock-2013.1.1_148c5bd1-0/data/scripts/dock.prm

>  <Rbt.Receptor>
def.prm

>  <SCORE>
-17.2001

>  <SCORE.INTER>
-10.1972

>  <SCORE.INTER.CONST>
1

>  <SCORE.INTER.POLAR>
-0.853287

>  <SCORE.INTER.REPUL>
0

>  <SCORE.INTER.ROT>
6

>  <SCORE.INTER.VDW>
-18.696

>  <SCORE.INTER.norm>
-0.377674

>  <SCORE.INTRA>
-6.04484

>  <SCORE.INTRA.DIHEDRAL>
-6.88948

>  <SCORE.INTRA.DIHEDRAL.0>
13.6736

>  <SCORE.INTRA.POLAR>
-0.0359158

>  <SCORE.INTRA.POLAR.0>
-0.0955695

>  <SCORE.INTRA.REPUL>
0

>  <SCORE.INTRA.REPUL.0>
0

>  <SCORE.INTRA.VDW>
-2.47798

>  <SCORE.INTRA.VDW.0>
2.01328

>  <SCORE.INTRA.norm>
-0.223883

>  <SCORE.RESTR>
0

>  <SCORE.RESTR.CAVITY>
0

>  <SCORE.RESTR.norm>
0

>  <SCORE.SYSTEM>
-0.958047

>  <SCORE.SYSTEM.CONST>
0

>  <SCORE.SYSTEM.DIHEDRAL>
0.23403

>  <SCORE.SYSTEM.POLAR>
-0.0155698

>  <SCORE.SYSTEM.VDW>
-1.02212

>  <SCORE.SYSTEM.norm>
-0.0354832

>  <SCORE.heavy>
27

>  <SCORE.norm>
-0.63704

>  <TITLE>
    14521044_D                                                            

$$$$
Berchemol.pdb
  RxDock  02242101543D
librxdock.so/0.1.0
 31 33  0  0  0  0  0  0  0  0999 V2000
  -50.8680   -2.3323   17.4400 O   0  0  0  0  0  0
  -51.8626   -3.0824   14.6912 O   0  0  0  0  0  0
  -49.5859   -4.5086   13.7873 O   0  0  0  0  0  0
  -49.1921   -8.0176   17.1691 O   0  0  0  0  0  0
  -46.2202    0.0028   18.2819 O   0  0  0  0  0  0
  -51.8381   -8.5809   17.5177 O   0  0  0  0  0  0
  -44.2923   -0.9662   16.5254 O   0  0  0  0  0  0
  -50.5663   -2.6461   15.1321 C   0  0  0  0  0  0
  -50.6745   -1.1199   15.4075 C   0  0  0  0  0  0
  -50.2562   -3.2461   16.5220 C   0  0  0  0  0  0
  -50.6634   -1.0026   16.9451 C   0  0  0  0  0  0
  -49.6117   -0.1712   14.8008 C   0  0  0  0  0  0
  -49.5374   -3.1020   14.0713 C   0  0  0  0  0  0
  -50.6501   -4.6960   16.7831 C   0  0  0  0  0  0
  -48.1806   -0.3793   15.2740 C   0  0  0  0  0  0
  -49.7111   -5.7054   16.8443 C   0  0  0  0  0  0
  -51.9798   -4.9987   16.9699 C   0  0  0  0  0  0
  -47.8308   -0.1080   16.5793 C   0  0  0  0  0  0
  -47.2273   -0.8448   14.3971 C   0  0  0  0  0  0
  -50.0837   -7.0145   17.0933 C   0  0  0  0  0  0
  -52.3686   -6.2966   17.2127 C   0  0  0  0  0  0
  -51.4306   -7.3015   17.2736 C   0  0  0  0  0  0
  -46.5319   -0.2806   17.0111 C   0  0  0  0  0  0
  -45.9295   -1.0337   14.8184 C   0  0  0  0  0  0
  -45.5773   -0.7579   16.1206 C   0  0  0  0  0  0
  -47.9063   -7.7633   17.7738 C   0  0  0  0  0  0
  -45.8320    1.3595   18.5794 C   0  0  0  0  0  0
  -52.1194   -2.6463   13.8228 H   0  0  0  0  0  0
  -48.7900   -4.8053   13.2486 H   0  0  0  0  0  0
  -52.8384   -8.6495   17.5861 H   0  0  0  0  0  0
  -43.6750   -1.1060   15.7440 H   0  0  0  0  0  0
  1 10  1  0  0  0
  1 11  1  0  0  0
  2  8  1  0  0  0
  2 28  1  0  0  0
  3 13  1  0  0  0
  3 29  1  0  0  0
  4 20  1  0  0  0
  4 26  1  0  0  0
  5 23  1  0  0  0
  5 27  1  0  0  0
  6 22  1  0  0  0
  6 30  1  0  0  0
  7 25  1  0  0  0
  7 31  1  0  0  0
  8  9  1  0  0  0
  8 13  1  0  0  0
  9 11  1  0  0  0
  9 12  1  0  0  0
 10  8  1  0  0  0
 10 14  1  0  0  0
 12 15  1  0  0  0
 14 16  2  0  0  0
 14 17  1  0  0  0
 15 18  2  0  0  0
 15 19  1  0  0  0
 16 20  1  0  0  0
 17 21  2  0  0  0
 18 23  1  0  0  0
 19 24  2  0  0  0
 20 22  2  0  0  0
 21 22  1  0  0  0
 23 25  2  0  0  0
 24 25  1  0  0  0
M  END
>  <CHROM.0>
-56.72655550,-177.12068244,-63.40187147

>  <CHROM.1>
63.62920199,-168.00934314,36.85136744,-88.23376127,-177.43396236,-166.97175081
-54.33079965,-62.91554650,-132.05652011,-67.29571293,-49.11314017,-3.17355804
16.33971417,2.17945647,0.33914245,2.84492348

>  <HEADER>
                                                                          

>  <MASTER>
        0    0    0    0    0    0    0    0   51    0   51    0          

>  <Name>
Berchemol.pdb

>  <RI>
-1.02587e+09

>  <Rbt.Current_Directory>
/root/miniconda3/envs/rdock/share/rxdock-2013.1.1_148c5bd1-0/data/ligands/prepped_ligands/Berchemol

>  <Rbt.Executable>
rbdock/0.1.0

>  <Rbt.Library>
librxdock.so/0.1.0

>  <Rbt.Parameter_File>
/root/miniconda3/envs/rdock/share/rxdock-2013.1.1_148c5bd1-0/data/scripts/dock.prm

>  <Rbt.Receptor>
def.prm

>  <SCORE>
-16.104

>  <SCORE.INTER>
-10.4964

>  <SCORE.INTER.CONST>
1

>  <SCORE.INTER.POLAR>
-0.464247

>  <SCORE.INTER.REPUL>
0.000267073

>  <SCORE.INTER.ROT>
6

>  <SCORE.INTER.VDW>
-20.3193

>  <SCORE.INTER.norm>
-0.388756

>  <SCORE.INTRA>
-4.56107

>  <SCORE.INTRA.DIHEDRAL>
-4.54738

>  <SCORE.INTRA.DIHEDRAL.0>
13.6736

>  <SCORE.INTRA.POLAR>
0.0955695

>  <SCORE.INTRA.POLAR.0>
-0.0955695

>  <SCORE.INTRA.REPUL>
0

>  <SCORE.INTRA.REPUL.0>
0

>  <SCORE.INTRA.VDW>
-2.61232

>  <SCORE.INTRA.VDW.0>
2.01328

>  <SCORE.INTRA.norm>
-0.168929

>  <SCORE.RESTR>
0

>  <SCORE.RESTR.CAVITY>
0

>  <SCORE.RESTR.norm>
0

>  <SCORE.SYSTEM>
-1.04649

>  <SCORE.SYSTEM.CONST>
0

>  <SCORE.SYSTEM.DIHEDRAL>
0.0962383

>  <SCORE.SYSTEM.VDW>
-1.09461

>  <SCORE.SYSTEM.norm>
-0.038759

>  <SCORE.heavy>
27

>  <SCORE.norm>
-0.596443

>  <TITLE>
    14521044_D                                                            

$$$$
Berchemol.pdb
  RxDock  02242101543D
librxdock.so/0.1.0
 31 33  0  0  0  0  0  0  0  0999 V2000
  -51.7324   -2.7437   14.9281 O   0  0  0  0  0  0
  -49.4278   -4.5104   14.1062 O   0  0  0  0  0  0
  -46.9788   -3.2241   15.1570 O   0  0  0  0  0  0
  -54.0274   -7.0474   16.1234 O   0  0  0  0  0  0
  -50.6337    0.5703   18.4295 O   0  0  0  0  0  0
  -52.4493   -8.3027   17.9602 O   0  0  0  0  0  0
  -48.1099    0.9987   19.5191 O   0  0  0  0  0  0
  -49.4652   -3.3562   14.9614 C   0  0  0  0  0  0
  -49.6227   -2.1160   14.0373 C   0  0  0  0  0  0
  -50.7693   -3.3606   15.7906 C   0  0  0  0  0  0
  -51.0846   -1.6676   14.2373 C   0  0  0  0  0  0
  -48.6720   -0.9096   14.2328 C   0  0  0  0  0  0
  -48.2129   -3.4086   15.8672 C   0  0  0  0  0  0
  -51.2541   -4.6893   16.3606 C   0  0  0  0  0  0
  -48.5308   -0.3926   15.6569 C   0  0  0  0  0  0
  -52.4514   -5.2545   15.9715 C   0  0  0  0  0  0
  -50.4675   -5.3419   17.2825 C   0  0  0  0  0  0
  -49.6491   -0.1497   16.4252 C   0  0  0  0  0  0
  -47.2802   -0.1681   16.1862 C   0  0  0  0  0  0
  -52.8719   -6.4665   16.4899 C   0  0  0  0  0  0
  -50.8733   -6.5456   17.8127 C   0  0  0  0  0  0
  -52.0674   -7.1075   17.4232 C   0  0  0  0  0  0
  -49.5287    0.3329   17.7120 C   0  0  0  0  0  0
  -47.1453    0.3017   17.4740 C   0  0  0  0  0  0
  -48.2617    0.5499   18.2408 C   0  0  0  0  0  0
  -55.0435   -6.2404   15.4910 C   0  0  0  0  0  0
  -51.3360   -0.5732   18.9577 C   0  0  0  0  0  0
  -50.2321   -4.5456   13.5042 H   0  0  0  0  0  0
  -46.8588   -3.9159   14.4369 H   0  0  0  0  0  0
  -51.7773   -8.6481   18.6228 H   0  0  0  0  0  0
  -47.1404    1.0542   19.7804 H   0  0  0  0  0  0
  1 10  1  0  0  0
  1 11  1  0  0  0
  2  8  1  0  0  0
  2 28  1  0  0  0
  3 13  1  0  0  0
  3 29  1  0  0  0
  4 20  1  0  0  0
  4 26  1  0  0  0
  5 23  1  0  0  0
  5 27  1  0  0  0
  6 22  1  0  0  0
  6 30  1  0  0  0
  7 25  1  0  0  0
  7 31  1  0  0  0
  8  9  1  0  0  0
  8 13  1  0  0  0
  9 11  1  0  0  0
  9 12  1  0  0  0
 10  8  1  0  0  0
 10 14  1  0  0  0
 12 15  1  0  0  0
 14 16  2  0  0  0
 14 17  1  0  0  0
 15 18  2  0  0  0
 15 19  1  0  0  0
 16 20  1  0  0  0
 17 21  2  0  0  0
 18 23  1  0  0  0
 19 24  2  0  0  0
 20 22  2  0  0  0
 21 22  1  0  0  0
 23 25  2  0  0  0
 24 25  1  0  0  0
M  END
>  <CHROM.0>
-60.92908405,174.20635083,55.72476095

>  <CHROM.1>
-54.76256253,-58.29123818,-18.65293990,74.86001471,-179.67468656,176.49259132
67.49829724,-49.74092120,5.09551650,-48.49729468,-50.31421052,-3.02648196
16.40477733,-2.46570412,0.81475825,0.83295343

>  <HEADER>
                                                                          

>  <MASTER>
        0    0    0    0    0    0    0    0   51    0   51    0          

>  <Name>
Berchemol.pdb

>  <RI>
-1.02587e+09

>  <Rbt.Current_Directory>
/root/miniconda3/envs/rdock/share/rxdock-2013.1.1_148c5bd1-0/data/ligands/prepped_ligands/Berchemol

>  <Rbt.Executable>
rbdock/0.1.0

>  <Rbt.Library>
librxdock.so/0.1.0

>  <Rbt.Parameter_File>
/root/miniconda3/envs/rdock/share/rxdock-2013.1.1_148c5bd1-0/data/scripts/dock.prm

>  <Rbt.Receptor>
def.prm

>  <SCORE>
-15.6644

>  <SCORE.INTER>
-9.93257

>  <SCORE.INTER.CONST>
1

>  <SCORE.INTER.POLAR>
-0.894427

>  <SCORE.INTER.REPUL>
0.132846

>  <SCORE.INTER.ROT>
6

>  <SCORE.INTER.VDW>
-18.9557

>  <SCORE.INTER.norm>
-0.367873

>  <SCORE.INTRA>
-4.74169

>  <SCORE.INTRA.DIHEDRAL>
-6.59832

>  <SCORE.INTRA.DIHEDRAL.0>
13.6736

>  <SCORE.INTRA.POLAR>
0.0955695

>  <SCORE.INTRA.POLAR.0>
-0.0955695

>  <SCORE.INTRA.REPUL>
0

>  <SCORE.INTRA.REPUL.0>
0

>  <SCORE.INTRA.VDW>
-1.76747

>  <SCORE.INTRA.VDW.0>
2.01328

>  <SCORE.INTRA.norm>
-0.175618

>  <SCORE.RESTR>
0

>  <SCORE.RESTR.CAVITY>
0

>  <SCORE.RESTR.norm>
0

>  <SCORE.SYSTEM>
-0.990148

>  <SCORE.SYSTEM.CONST>
0

>  <SCORE.SYSTEM.DIHEDRAL>
0.215759

>  <SCORE.SYSTEM.VDW>
-1.09803

>  <SCORE.SYSTEM.norm>
-0.0366722

>  <SCORE.heavy>
27

>  <SCORE.norm>
-0.580163

>  <TITLE>
    14521044_D                                                            

$$$$
Berchemol.pdb
  RxDock  02242101543D
librxdock.so/0.1.0
 31 33  0  0  0  0  0  0  0  0999 V2000
  -46.7883   -2.7787   14.1159 O   0  0  0  0  0  0
  -47.3812   -3.5971   16.9596 O   0  0  0  0  0  0
  -47.5118   -1.6828   18.7726 O   0  0  0  0  0  0
  -51.2146   -5.5854   15.2534 O   0  0  0  0  0  0
  -45.1379    0.6139   21.0256 O   0  0  0  0  0  0
  -53.0639   -3.7809   14.3794 O   0  0  0  0  0  0
  -43.3442   -1.2380   22.0712 O   0  0  0  0  0  0
  -47.0244   -2.3194   16.4071 C   0  0  0  0  0  0
  -45.5069   -2.3803   16.0750 C   0  0  0  0  0  0
  -47.6929   -2.1410   15.0253 C   0  0  0  0  0  0
  -45.4512   -2.4791   14.5370 C   0  0  0  0  0  0
  -44.5862   -1.2343   16.5613 C   0  0  0  0  0  0
  -47.4860   -1.2352   17.4086 C   0  0  0  0  0  0
  -49.1318   -2.6170   14.8561 C   0  0  0  0  0  0
  -44.2558   -1.2255   18.0465 C   0  0  0  0  0  0
  -49.5055   -3.9165   15.1315 C   0  0  0  0  0  0
  -50.0810   -1.7187   14.4241 C   0  0  0  0  0  0
  -44.8547   -0.3140   18.8893 C   0  0  0  0  0  0
  -43.3564   -2.1342   18.5563 C   0  0  0  0  0  0
  -50.8177   -4.3298   14.9836 C   0  0  0  0  0  0
  -51.3898   -2.1144   14.2659 C   0  0  0  0  0  0
  -51.7603   -3.4107   14.5411 C   0  0  0  0  0  0
  -44.5487   -0.2911   20.2343 C   0  0  0  0  0  0
  -43.0513   -2.1306   19.8995 C   0  0  0  0  0  0
  -43.6447   -1.2171   20.7417 C   0  0  0  0  0  0
  -50.8878   -6.1592   16.5370 C   0  0  0  0  0  0
  -44.4753    1.8853   21.1816 C   0  0  0  0  0  0
  -47.1556   -4.3449   16.3269 H   0  0  0  0  0  0
  -48.2338   -2.3664   18.9246 H   0  0  0  0  0  0
  -53.5766   -3.1168   13.8262 H   0  0  0  0  0  0
  -42.7135   -1.9879   22.2974 H   0  0  0  0  0  0
  1 10  1  0  0  0
  1 11  1  0  0  0
  2  8  1  0  0  0
  2 28  1  0  0  0
  3 13  1  0  0  0
  3 29  1  0  0  0
  4 20  1  0  0  0
  4 26  1  0  0  0
  5 23  1  0  0  0
  5 27  1  0  0  0
  6 22  1  0  0  0
  6 30  1  0  0  0
  7 25  1  0  0  0
  7 31  1  0  0  0
  8  9  1  0  0  0
  8 13  1  0  0  0
  9 11  1  0  0  0
  9 12  1  0  0  0
 10  8  1  0  0  0
 10 14  1  0  0  0
 12 15  1  0  0  0
 14 16  2  0  0  0
 14 17  1  0  0  0
 15 18  2  0  0  0
 15 19  1  0  0  0
 16 20  1  0  0  0
 17 21  2  0  0  0
 18 23  1  0  0  0
 19 24  2  0  0  0
 20 22  2  0  0  0
 21 22  1  0  0  0
 23 25  2  0  0  0
 24 25  1  0  0  0
M  END
>  <CHROM.0>
174.91804967,-59.16519866,-174.33326447

>  <CHROM.1>
-56.81074120,-68.47125268,52.38322194,-89.84115130,-164.24427831,177.14711094
28.49509851,74.51263759,65.47003187,-104.99626105,-47.21630619,-2.22848246
17.11347620,-2.42814875,0.24694853,1.29978590

>  <HEADER>
                                                                          

>  <MASTER>
        0    0    0    0    0    0    0    0   51    0   51    0          

>  <Name>
Berchemol.pdb

>  <RI>
-1.02587e+09

>  <Rbt.Current_Directory>
/root/miniconda3/envs/rdock/share/rxdock-2013.1.1_148c5bd1-0/data/ligands/prepped_ligands/Berchemol

>  <Rbt.Executable>
rbdock/0.1.0

>  <Rbt.Library>
librxdock.so/0.1.0

>  <Rbt.Parameter_File>
/root/miniconda3/envs/rdock/share/rxdock-2013.1.1_148c5bd1-0/data/scripts/dock.prm

>  <Rbt.Receptor>
def.prm

>  <SCORE>
-14.5794

>  <SCORE.INTER>
-10.0655

>  <SCORE.INTER.CONST>
1

>  <SCORE.INTER.POLAR>
-1.19926

>  <SCORE.INTER.REPUL>
0.494152

>  <SCORE.INTER.ROT>
6

>  <SCORE.INTER.VDW>
-19.8588

>  <SCORE.INTER.norm>
-0.372796

>  <SCORE.INTRA>
-3.5404

>  <SCORE.INTRA.DIHEDRAL>
-0.191999

>  <SCORE.INTRA.DIHEDRAL.0>
13.6736

>  <SCORE.INTRA.POLAR>
0.0955695

>  <SCORE.INTRA.POLAR.0>
-0.0955695

>  <SCORE.INTRA.REPUL>
0

>  <SCORE.INTRA.REPUL.0>
0

>  <SCORE.INTRA.VDW>
-3.76934

>  <SCORE.INTRA.VDW.0>
2.01328

>  <SCORE.INTRA.norm>
-0.131126

>  <SCORE.RESTR>
0

>  <SCORE.RESTR.CAVITY>
0

>  <SCORE.RESTR.norm>
0

>  <SCORE.SYSTEM>
-0.973541

>  <SCORE.SYSTEM.CONST>
0

>  <SCORE.SYSTEM.DIHEDRAL>
0.144791

>  <SCORE.SYSTEM.POLAR>
-0.0132195

>  <SCORE.SYSTEM.VDW>
-1.00099

>  <SCORE.SYSTEM.norm>
-0.0360571

>  <SCORE.heavy>
27

>  <SCORE.norm>
-0.539979

>  <TITLE>
    14521044_D                                                            

$$$$
Berchemol.pdb
  RxDock  02242101543D
librxdock.so/0.1.0
 31 33  0  0  0  0  0  0  0  0999 V2000
  -47.9715   -5.2073   16.4474 O   0  0  0  0  0  0
  -49.1660   -3.2097   14.5263 O   0  0  0  0  0  0
  -49.3751   -1.0320   16.3987 O   0  0  0  0  0  0
  -44.4730   -0.7988   17.9558 O   0  0  0  0  0  0
  -55.2205   -7.5864   14.9864 O   0  0  0  0  0  0
  -43.5471   -0.8070   15.3902 O   0  0  0  0  0  0
  -54.3827   -9.7804   16.4780 O   0  0  0  0  0  0
  -49.4665   -3.4788   15.9056 C   0  0  0  0  0  0
  -50.2583   -4.8162   15.9413 C   0  0  0  0  0  0
  -48.1645   -3.8056   16.6713 C   0  0  0  0  0  0
  -49.2540   -5.8455   16.4981 C   0  0  0  0  0  0
  -51.5799   -4.8840   16.7452 C   0  0  0  0  0  0
  -50.1678   -2.2263   16.4809 C   0  0  0  0  0  0
  -46.9201   -2.9817   16.3577 C   0  0  0  0  0  0
  -52.3432   -6.1980   16.6688 C   0  0  0  0  0  0
  -46.2694   -2.2482   17.3287 C   0  0  0  0  0  0
  -46.4329   -2.9801   15.0704 C   0  0  0  0  0  0
  -53.4435   -6.3191   15.8475 C   0  0  0  0  0  0
  -51.9334   -7.2760   17.4201 C   0  0  0  0  0  0
  -45.1347   -1.5147   17.0304 C   0  0  0  0  0  0
  -45.3087   -2.2513   14.7549 C   0  0  0  0  0  0
  -44.6612   -1.5207   15.7247 C   0  0  0  0  0  0
  -54.1488   -7.5031   15.7845 C   0  0  0  0  0  0
  -52.6209   -8.4679   17.3570 C   0  0  0  0  0  0
  -53.7236   -8.5888   16.5412 C   0  0  0  0  0  0
  -43.9028   -1.4844   19.0910 C   0  0  0  0  0  0
  -56.3740   -6.7990   15.3461 C   0  0  0  0  0  0
  -50.0005   -3.1970   13.9661 H   0  0  0  0  0  0
  -49.8315   -0.2532   16.8423 H   0  0  0  0  0  0
  -43.3479   -0.8615   14.4067 H   0  0  0  0  0  0
  -54.9776   -9.8331   15.6690 H   0  0  0  0  0  0
  1 10  1  0  0  0
  1 11  1  0  0  0
  2  8  1  0  0  0
  2 28  1  0  0  0
  3 13  1  0  0  0
  3 29  1  0  0  0
  4 20  1  0  0  0
  4 26  1  0  0  0
  5 23  1  0  0  0
  5 27  1  0  0  0
  6 22  1  0  0  0
  6 30  1  0  0  0
  7 25  1  0  0  0
  7 31  1  0  0  0
  8  9  1  0  0  0
  8 13  1  0  0  0
  9 11  1  0  0  0
  9 12  1  0  0  0
 10  8  1  0  0  0
 10 14  1  0  0  0
 12 15  1  0  0  0
 14 16  2  0  0  0
 14 17  1  0  0  0
 15 18  2  0  0  0
 15 19  1  0  0  0
 16 20  1  0  0  0
 17 21  2  0  0  0
 18 23  1  0  0  0
 19 24  2  0  0  0
 20 22  2  0  0  0
 21 22  1  0  0  0
 23 25  2  0  0  0
 24 25  1  0  0  0
M  END
>  <CHROM.0>
58.30544715,65.20650296,-61.29306754

>  <CHROM.1>
55.53924221,-175.74946707,61.08098230,-67.61317921,-176.90523093,16.64246416
-59.22660920,176.50861347,-117.56879081,-101.40689184,-49.48665177,-4.39390637
16.30795710,-0.50338353,0.34445697,2.67281167

>  <HEADER>
                                                                          

>  <MASTER>
        0    0    0    0    0    0    0    0   51    0   51    0          

>  <Name>
Berchemol.pdb

>  <RI>
-1.02587e+09

>  <Rbt.Current_Directory>
/root/miniconda3/envs/rdock/share/rxdock-2013.1.1_148c5bd1-0/data/ligands/prepped_ligands/Berchemol

>  <Rbt.Executable>
rbdock/0.1.0

>  <Rbt.Library>
librxdock.so/0.1.0

>  <Rbt.Parameter_File>
/root/miniconda3/envs/rdock/share/rxdock-2013.1.1_148c5bd1-0/data/scripts/dock.prm

>  <Rbt.Receptor>
def.prm

>  <SCORE>
-18.7265

>  <SCORE.INTER>
-13.1956

>  <SCORE.INTER.CONST>
1

>  <SCORE.INTER.POLAR>
-0.988676

>  <SCORE.INTER.REPUL>
0.0363274

>  <SCORE.INTER.ROT>
6

>  <SCORE.INTER.VDW>
-21.4158

>  <SCORE.INTER.norm>
-0.488726

>  <SCORE.INTRA>
-4.52818

>  <SCORE.INTRA.DIHEDRAL>
-3.42574

>  <SCORE.INTRA.DIHEDRAL.0>
13.6736

>  <SCORE.INTRA.POLAR>
0.0708388

>  <SCORE.INTRA.POLAR.0>
-0.0955695

>  <SCORE.INTRA.REPUL>
0

>  <SCORE.INTRA.REPUL.0>
0

>  <SCORE.INTRA.VDW>
-3.05616

>  <SCORE.INTRA.VDW.0>
2.01328

>  <SCORE.INTRA.norm>
-0.16771

>  <SCORE.RESTR>
0

>  <SCORE.RESTR.CAVITY>
0

>  <SCORE.RESTR.norm>
0

>  <SCORE.SYSTEM>
-1.00268

>  <SCORE.SYSTEM.CONST>
0

>  <SCORE.SYSTEM.DIHEDRAL>
0.146654

>  <SCORE.SYSTEM.VDW>
-1.076

>  <SCORE.SYSTEM.norm>
-0.0371361

>  <SCORE.heavy>
27

>  <SCORE.norm>
-0.693573

>  <TITLE>
    14521044_D                                                            

$$$$
Berchemol.pdb
  RxDock  02242101543D
librxdock.so/0.1.0
 31 33  0  0  0  0  0  0  0  0999 V2000
  -49.7418   -1.7269   13.7467 O   0  0  0  0  0  0
  -48.4299   -3.5325   15.7781 O   0  0  0  0  0  0
  -47.4747   -2.3564   17.9776 O   0  0  0  0  0  0
  -52.8810   -3.7756   18.5582 O   0  0  0  0  0  0
  -44.3150    0.5410   19.2376 O   0  0  0  0  0  0
  -54.4756   -4.7951   16.5941 O   0  0  0  0  0  0
  -42.6082   -1.6212   18.8477 O   0  0  0  0  0  0
  -48.5703   -2.1027   15.7474 C   0  0  0  0  0  0
  -47.5658   -1.5744   14.6850 C   0  0  0  0  0  0
  -49.9503   -1.7242   15.1639 C   0  0  0  0  0  0
  -48.4480   -1.1668   13.4875 C   0  0  0  0  0  0
  -46.6204   -0.4075   15.0619 C   0  0  0  0  0  0
  -48.4028   -1.5885   17.1962 C   0  0  0  0  0  0
  -51.1598   -2.5530   15.5833 C   0  0  0  0  0  0
  -45.5407   -0.7248   16.0860 C   0  0  0  0  0  0
  -51.4543   -2.7907   16.9103 C   0  0  0  0  0  0
  -51.9811   -3.0689   14.6066 C   0  0  0  0  0  0
  -45.4103    0.0432   17.2232 C   0  0  0  0  0  0
  -44.6892   -1.7866   15.8811 C   0  0  0  0  0  0
  -52.5620   -3.5355   17.2747 C   0  0  0  0  0  0
  -53.0840   -3.8169   14.9512 C   0  0  0  0  0  0
  -53.3759   -4.0526   16.2750 C   0  0  0  0  0  0
  -44.4243   -0.2301   18.1487 C   0  0  0  0  0  0
  -43.7085   -2.0782   16.8033 C   0  0  0  0  0  0
  -43.5735   -1.3087   17.9371 C   0  0  0  0  0  0
  -51.8722   -3.5899   19.5738 C   0  0  0  0  0  0
  -43.2091    1.4656   19.2834 C   0  0  0  0  0  0
  -48.4761   -3.9244   14.8536 H   0  0  0  0  0  0
  -46.5785   -2.4251   17.5262 H   0  0  0  0  0  0
  -54.2615   -5.5148   17.2621 H   0  0  0  0  0  0
  -42.0762   -2.4257   18.5632 H   0  0  0  0  0  0
  1 10  1  0  0  0
  1 11  1  0  0  0
  2  8  1  0  0  0
  2 28  1  0  0  0
  3 13  1  0  0  0
  3 29  1  0  0  0
  4 20  1  0  0  0
  4 26  1  0  0  0
  5 23  1  0  0  0
  5 27  1  0  0  0
  6 22  1  0  0  0
  6 30  1  0  0  0
  7 25  1  0  0  0
  7 31  1  0  0  0
  8  9  1  0  0  0
  8 13  1  0  0  0
  9 11  1  0  0  0
  9 12  1  0  0  0
 10  8  1  0  0  0
 10 14  1  0  0  0
 12 15  1  0  0  0
 14 16  2  0  0  0
 14 17  1  0  0  0
 15 18  2  0  0  0
 15 19  1  0  0  0
 16 20  1  0  0  0
 17 21  2  0  0  0
 18 23  1  0  0  0
 19 24  2  0  0  0
 20 22  2  0  0  0
 21 22  1  0  0  0
 23 25  2  0  0  0
 24 25  1  0  0  0
M  END
>  <CHROM.0>
64.48969357,-57.30974000,-92.33956528

>  <CHROM.1>
-50.12054400,54.47226999,-17.76049675,-106.35111513,-48.91270838,179.65088341
33.57859477,68.70271519,173.33650115,-126.04801133,-48.34411266,-2.01879817
16.67245958,-3.02249717,0.36225246,1.68493176

>  <HEADER>
                                                                          

>  <MASTER>
        0    0    0    0    0    0    0    0   51    0   51    0          

>  <Name>
Berchemol.pdb

>  <RI>
-1.02587e+09

>  <Rbt.Current_Directory>
/root/miniconda3/envs/rdock/share/rxdock-2013.1.1_148c5bd1-0/data/ligands/prepped_ligands/Berchemol

>  <Rbt.Executable>
rbdock/0.1.0

>  <Rbt.Library>
librxdock.so/0.1.0

>  <Rbt.Parameter_File>
/root/miniconda3/envs/rdock/share/rxdock-2013.1.1_148c5bd1-0/data/scripts/dock.prm

>  <Rbt.Receptor>
def.prm

>  <SCORE>
-20.2655

>  <SCORE.INTER>
-17.356

>  <SCORE.INTER.CONST>
1

>  <SCORE.INTER.POLAR>
-2.33626

>  <SCORE.INTER.REPUL>
0.0133655

>  <SCORE.INTER.ROT>
6

>  <SCORE.INTER.VDW>
-20.8796

>  <SCORE.INTER.norm>
-0.642816

>  <SCORE.INTRA>
-3.15634

>  <SCORE.INTRA.DIHEDRAL>
-2.00059

>  <SCORE.INTRA.DIHEDRAL.0>
13.6736

>  <SCORE.INTRA.POLAR>
0.0955695

>  <SCORE.INTRA.POLAR.0>
-0.0955695

>  <SCORE.INTRA.REPUL>
0

>  <SCORE.INTRA.REPUL.0>
0

>  <SCORE.INTRA.VDW>
-2.48099

>  <SCORE.INTRA.VDW.0>
2.01328

>  <SCORE.INTRA.norm>
-0.116902

>  <SCORE.RESTR>
0

>  <SCORE.RESTR.CAVITY>
0

>  <SCORE.RESTR.norm>
0

>  <SCORE.SYSTEM>
0.246836

>  <SCORE.SYSTEM.CONST>
0

>  <SCORE.SYSTEM.DIHEDRAL>
2.11736

>  <SCORE.SYSTEM.VDW>
-0.811842

>  <SCORE.SYSTEM.norm>
0.00914209

>  <SCORE.heavy>
27

>  <SCORE.norm>
-0.750575

>  <TITLE>
    14521044_D                                                            

$$$$
