Berchemol.pdb
  RxDock  02242101103D
librxdock.so/0.1.0
 31 33  0  0  0  0  0  0  0  0999 V2000
  -52.7826   -3.3760   14.3149 O   0  0  0  0  0  0
  -50.2580   -5.0188   14.1279 O   0  0  0  0  0  0
  -48.2578   -3.8665   15.8621 O   0  0  0  0  0  0
  -52.1583   -8.1197   18.1021 O   0  0  0  0  0  0
  -50.9460    2.2235   11.5849 O   0  0  0  0  0  0
  -54.2674   -9.0568   16.6483 O   0  0  0  0  0  0
  -48.3192    2.4242   10.6903 O   0  0  0  0  0  0
  -50.5928   -3.9084   14.9763 C   0  0  0  0  0  0
  -50.5387   -2.6323   14.0900 C   0  0  0  0  0  0
  -52.0775   -3.9983   15.3955 C   0  0  0  0  0  0
  -52.0166   -2.2461   13.8775 C   0  0  0  0  0  0
  -49.7419   -1.4034   14.5925 C   0  0  0  0  0  0
  -49.6500   -3.9590   16.2011 C   0  0  0  0  0  0
  -52.6410   -5.3689   15.7553 C   0  0  0  0  0  0
  -49.3689   -0.3710   13.5389 C   0  0  0  0  0  0
  -52.1133   -6.1262   16.7811 C   0  0  0  0  0  0
  -53.7107   -5.8551   15.0384 C   0  0  0  0  0  0
  -50.3231    0.4851   13.0323 C   0  0  0  0  0  0
  -48.0710   -0.2858   13.0888 C   0  0  0  0  0  0
  -52.6434   -7.3632   17.1024 C   0  0  0  0  0  0
  -54.2467   -7.0863   15.3409 C   0  0  0  0  0  0
  -53.7191   -7.8397   16.3642 C   0  0  0  0  0  0
  -49.9948    1.4137   12.0662 C   0  0  0  0  0  0
  -47.7269    0.6453   12.1338 C   0  0  0  0  0  0
  -48.6801    1.4975   11.6228 C   0  0  0  0  0  0
  -50.7433   -8.0780   18.3845 C   0  0  0  0  0  0
  -50.8578    3.6217   11.9272 C   0  0  0  0  0  0
  -49.3190   -4.9413   13.7777 H   0  0  0  0  0  0
  -47.6760   -3.8676   16.6825 H   0  0  0  0  0  0
  -55.0231   -9.2824   16.0255 H   0  0  0  0  0  0
  -49.1099    2.7390   10.1546 H   0  0  0  0  0  0
  1 10  1  0  0  0
  1 11  1  0  0  0
  2  8  1  0  0  0
  2 28  1  0  0  0
  3 13  1  0  0  0
  3 29  1  0  0  0
  4 20  1  0  0  0
  4 26  1  0  0  0
  5 23  1  0  0  0
  5 27  1  0  0  0
  6 22  1  0  0  0
  6 30  1  0  0  0
  7 25  1  0  0  0
  7 31  1  0  0  0
  8  9  1  0  0  0
  8 13  1  0  0  0
  9 11  1  0  0  0
  9 12  1  0  0  0
 10  8  1  0  0  0
 10 14  1  0  0  0
 12 15  1  0  0  0
 14 16  2  0  0  0
 14 17  1  0  0  0
 15 18  2  0  0  0
 15 19  1  0  0  0
 16 20  1  0  0  0
 17 21  2  0  0  0
 18 23  1  0  0  0
 19 24  2  0  0  0
 20 22  2  0  0  0
 21 22  1  0  0  0
 23 25  2  0  0  0
 24 25  1  0  0  0
M  END
>  <CHROM.0>
-175.76645210,60.90289888,56.32377629

>  <CHROM.1>
63.36221191,177.85830726,-33.52035303,110.91660375,-178.80411884,-21.72498023
60.03745502,161.99178432,-179.16322222,74.62919516,-50.96499389,-3.11608282
14.54481884,1.89369810,0.22497702,2.58169702

>  <HEADER>
                                                                          

>  <MASTER>
        0    0    0    0    0    0    0    0   51    0   51    0          

>  <Name>
Berchemol.pdb

>  <RI>
-2.88976e+08

>  <Rbt.Current_Directory>
/root/miniconda3/envs/rdock/share/rxdock-2013.1.1_148c5bd1-0/data/ligands/prepped_ligands/Berchemol

>  <Rbt.Executable>
rbdock/0.1.0

>  <Rbt.Library>
librxdock.so/0.1.0

>  <Rbt.Parameter_File>
/root/miniconda3/envs/rdock/share/rxdock-2013.1.1_148c5bd1-0/data/scripts/dock.prm

>  <Rbt.Receptor>
def.prm

>  <SCORE>
-24.4602

>  <SCORE.INTER>
-19.7391

>  <SCORE.INTER.CONST>
1

>  <SCORE.INTER.POLAR>
-1.92948

>  <SCORE.INTER.REPUL>
0.929263

>  <SCORE.INTER.ROT>
6

>  <SCORE.INTER.VDW>
-29.2252

>  <SCORE.INTER.norm>
-0.731077

>  <SCORE.INTRA>
-3.76996

>  <SCORE.INTRA.DIHEDRAL>
-4.77115

>  <SCORE.INTRA.DIHEDRAL.0>
13.6736

>  <SCORE.INTRA.POLAR>
0.0955695

>  <SCORE.INTRA.POLAR.0>
-0.0955695

>  <SCORE.INTRA.REPUL>
0

>  <SCORE.INTRA.REPUL.0>
0

>  <SCORE.INTRA.VDW>
-1.70932

>  <SCORE.INTRA.VDW.0>
2.01328

>  <SCORE.INTRA.norm>
-0.139628

>  <SCORE.RESTR>
0

>  <SCORE.RESTR.CAVITY>
0

>  <SCORE.RESTR.norm>
0

>  <SCORE.SYSTEM>
-0.951115

>  <SCORE.SYSTEM.CONST>
0

>  <SCORE.SYSTEM.DIHEDRAL>
0.0813806

>  <SCORE.SYSTEM.VDW>
-0.991805

>  <SCORE.SYSTEM.norm>
-0.0352265

>  <SCORE.heavy>
27

>  <SCORE.norm>
-0.905932

>  <TITLE>
    14521044_D                                                            

$$$$
Berchemol.pdb
  RxDock  02242101103D
librxdock.so/0.1.0
 31 33  0  0  0  0  0  0  0  0999 V2000
  -51.5277   -1.9219   14.4416 O   0  0  0  0  0  0
  -49.2906   -3.9469   14.3871 O   0  0  0  0  0  0
  -49.0546   -2.2094   17.6497 O   0  0  0  0  0  0
  -51.9192   -7.1156   17.6132 O   0  0  0  0  0  0
  -43.9708    0.0653   17.4196 O   0  0  0  0  0  0
  -54.1741   -7.4131   16.1076 O   0  0  0  0  0  0
  -42.9183   -2.1142   16.0474 O   0  0  0  0  0  0
  -49.5465   -2.8571   15.2882 C   0  0  0  0  0  0
  -49.1839   -1.5501   14.5285 C   0  0  0  0  0  0
  -51.0666   -2.7262   15.5337 C   0  0  0  0  0  0
  -50.5452   -0.9086   14.1910 C   0  0  0  0  0  0
  -48.2702   -0.5093   15.2206 C   0  0  0  0  0  0
  -48.7798   -3.1487   16.5992 C   0  0  0  0  0  0
  -51.8792   -4.0047   15.7083 C   0  0  0  0  0  0
  -46.8264   -0.9322   15.4479 C   0  0  0  0  0  0
  -51.5011   -4.9918   16.5954 C   0  0  0  0  0  0
  -53.0249   -4.1693   14.9634 C   0  0  0  0  0  0
  -46.0335   -0.2526   16.3476 C   0  0  0  0  0  0
  -46.3060   -2.0019   14.7555 C   0  0  0  0  0  0
  -52.2555   -6.1413   16.7504 C   0  0  0  0  0  0
  -53.7841   -5.3092   15.1007 C   0  0  0  0  0  0
  -53.4053   -6.2921   15.9860 C   0  0  0  0  0  0
  -44.7194   -0.6217   16.5478 C   0  0  0  0  0  0
  -44.9992   -2.3890   14.9551 C   0  0  0  0  0  0
  -44.2044   -1.7077   15.8495 C   0  0  0  0  0  0
  -50.5543   -7.5849   17.6372 C   0  0  0  0  0  0
  -43.5956   -0.6058   18.6397 C   0  0  0  0  0  0
  -49.5249   -4.8302   14.8058 H   0  0  0  0  0  0
  -48.5537   -2.4380   18.4914 H   0  0  0  0  0  0
  -53.7165   -8.1249   16.6498 H   0  0  0  0  0  0
  -42.7827   -3.0689   15.7620 H   0  0  0  0  0  0
  1 10  1  0  0  0
  1 11  1  0  0  0
  2  8  1  0  0  0
  2 28  1  0  0  0
  3 13  1  0  0  0
  3 29  1  0  0  0
  4 20  1  0  0  0
  4 26  1  0  0  0
  5 23  1  0  0  0
  5 27  1  0  0  0
  6 22  1  0  0  0
  6 30  1  0  0  0
  7 25  1  0  0  0
  7 31  1  0  0  0
  8  9  1  0  0  0
  8 13  1  0  0  0
  9 11  1  0  0  0
  9 12  1  0  0  0
 10  8  1  0  0  0
 10 14  1  0  0  0
 12 15  1  0  0  0
 14 16  2  0  0  0
 14 17  1  0  0  0
 15 18  2  0  0  0
 15 19  1  0  0  0
 16 20  1  0  0  0
 17 21  2  0  0  0
 18 23  1  0  0  0
 19 24  2  0  0  0
 20 22  2  0  0  0
 21 22  1  0  0  0
 23 25  2  0  0  0
 24 25  1  0  0  0
M  END
>  <CHROM.0>
60.18225409,179.23974690,-62.96779338

>  <CHROM.1>
-178.63849925,178.94342469,-47.02985810,110.45430520,-10.68066257,158.92054684
-173.81819512,67.67115598,172.02524644,-162.83867994,-48.98809047,-3.12358395
15.97809658,2.70345639,0.33136528,2.60743170

>  <HEADER>
                                                                          

>  <MASTER>
        0    0    0    0    0    0    0    0   51    0   51    0          

>  <Name>
Berchemol.pdb

>  <RI>
-2.88976e+08

>  <Rbt.Current_Directory>
/root/miniconda3/envs/rdock/share/rxdock-2013.1.1_148c5bd1-0/data/ligands/prepped_ligands/Berchemol

>  <Rbt.Executable>
rbdock/0.1.0

>  <Rbt.Library>
librxdock.so/0.1.0

>  <Rbt.Parameter_File>
/root/miniconda3/envs/rdock/share/rxdock-2013.1.1_148c5bd1-0/data/scripts/dock.prm

>  <Rbt.Receptor>
def.prm

>  <SCORE>
-19.4859

>  <SCORE.INTER>
-13.5283

>  <SCORE.INTER.CONST>
1

>  <SCORE.INTER.POLAR>
-0.773258

>  <SCORE.INTER.REPUL>
0.194404

>  <SCORE.INTER.ROT>
6

>  <SCORE.INTER.VDW>
-23.2713

>  <SCORE.INTER.norm>
-0.501049

>  <SCORE.INTRA>
-4.89665

>  <SCORE.INTRA.DIHEDRAL>
-4.22768

>  <SCORE.INTRA.DIHEDRAL.0>
13.6736

>  <SCORE.INTRA.POLAR>
0.0223085

>  <SCORE.INTRA.POLAR.0>
-0.0955695

>  <SCORE.INTRA.REPUL>
0

>  <SCORE.INTRA.REPUL.0>
0

>  <SCORE.INTRA.VDW>
-2.85866

>  <SCORE.INTRA.VDW.0>
2.01328

>  <SCORE.INTRA.norm>
-0.181357

>  <SCORE.RESTR>
0

>  <SCORE.RESTR.CAVITY>
0

>  <SCORE.RESTR.norm>
0

>  <SCORE.SYSTEM>
-1.06095

>  <SCORE.SYSTEM.CONST>
0

>  <SCORE.SYSTEM.DIHEDRAL>
0.0270983

>  <SCORE.SYSTEM.VDW>
-1.0745

>  <SCORE.SYSTEM.norm>
-0.0392946

>  <SCORE.heavy>
27

>  <SCORE.norm>
-0.721701

>  <TITLE>
    14521044_D                                                            

$$$$
Berchemol.pdb
  RxDock  02242101103D
librxdock.so/0.1.0
 31 33  0  0  0  0  0  0  0  0999 V2000
  -49.7981   -3.2243   18.0743 O   0  0  0  0  0  0
  -49.3443   -4.0122   15.1966 O   0  0  0  0  0  0
  -47.0154   -2.6676   14.1888 O   0  0  0  0  0  0
  -50.5925   -8.2966   17.3682 O   0  0  0  0  0  0
  -47.0290    0.6719   20.5053 O   0  0  0  0  0  0
  -48.2108   -9.3911   18.1227 O   0  0  0  0  0  0
  -44.3583    0.4271   19.7651 O   0  0  0  0  0  0
  -48.5542   -3.2019   16.0822 C   0  0  0  0  0  0
  -49.2859   -1.8368   16.2165 C   0  0  0  0  0  0
  -48.6059   -3.7853   17.5122 C   0  0  0  0  0  0
  -49.9009   -1.8651   17.6305 C   0  0  0  0  0  0
  -48.4778   -0.5305   16.0214 C   0  0  0  0  0  0
  -47.1110   -3.1790   15.5270 C   0  0  0  0  0  0
  -48.5344   -5.3001   17.6735 C   0  0  0  0  0  0
  -47.3751   -0.2677   17.0363 C   0  0  0  0  0  0
  -49.6303   -6.1083   17.4495 C   0  0  0  0  0  0
  -47.3389   -5.8717   18.0455 C   0  0  0  0  0  0
  -47.6883    0.0754   18.3340 C   0  0  0  0  0  0
  -46.0552   -0.3756   16.6611 C   0  0  0  0  0  0
  -49.5461   -7.4822   17.5893 C   0  0  0  0  0  0
  -47.2389   -7.2364   18.1949 C   0  0  0  0  0  0
  -48.3329   -8.0404   17.9708 C   0  0  0  0  0  0
  -46.6934    0.3293   19.2554 C   0  0  0  0  0  0
  -45.0519   -0.1372   17.5743 C   0  0  0  0  0  0
  -45.3633    0.2109   18.8696 C   0  0  0  0  0  0
  -51.8430   -8.0213   18.0346 C   0  0  0  0  0  0
  -47.5298    2.0086   20.7114 C   0  0  0  0  0  0
  -49.3706   -3.6227   14.2703 H   0  0  0  0  0  0
  -46.0665   -2.6770   13.8555 H   0  0  0  0  0  0
  -49.0531   -9.8752   17.8658 H   0  0  0  0  0  0
  -44.7163    0.6451   20.6792 H   0  0  0  0  0  0
  1 10  1  0  0  0
  1 11  1  0  0  0
  2  8  1  0  0  0
  2 28  1  0  0  0
  3 13  1  0  0  0
  3 29  1  0  0  0
  4 20  1  0  0  0
  4 26  1  0  0  0
  5 23  1  0  0  0
  5 27  1  0  0  0
  6 22  1  0  0  0
  6 30  1  0  0  0
  7 25  1  0  0  0
  7 31  1  0  0  0
  8  9  1  0  0  0
  8 13  1  0  0  0
  9 11  1  0  0  0
  9 12  1  0  0  0
 10  8  1  0  0  0
 10 14  1  0  0  0
 12 15  1  0  0  0
 14 16  2  0  0  0
 14 17  1  0  0  0
 15 18  2  0  0  0
 15 19  1  0  0  0
 16 20  1  0  0  0
 17 21  2  0  0  0
 18 23  1  0  0  0
 19 24  2  0  0  0
 20 22  2  0  0  0
 21 22  1  0  0  0
 23 25  2  0  0  0
 24 25  1  0  0  0
M  END
>  <CHROM.0>
-164.21837527,178.60600473,58.94272750

>  <CHROM.1>
64.90141197,-179.31528719,-51.95289076,-74.38582368,4.04422792,1.33700120
58.40022936,-63.96672942,43.15711452,-71.16943834,-48.03911289,-3.24774275
17.61028230,-2.53347496,-1.14070230,-0.77803676

>  <HEADER>
                                                                          

>  <MASTER>
        0    0    0    0    0    0    0    0   51    0   51    0          

>  <Name>
Berchemol.pdb

>  <RI>
-2.88976e+08

>  <Rbt.Current_Directory>
/root/miniconda3/envs/rdock/share/rxdock-2013.1.1_148c5bd1-0/data/ligands/prepped_ligands/Berchemol

>  <Rbt.Executable>
rbdock/0.1.0

>  <Rbt.Library>
librxdock.so/0.1.0

>  <Rbt.Parameter_File>
/root/miniconda3/envs/rdock/share/rxdock-2013.1.1_148c5bd1-0/data/scripts/dock.prm

>  <Rbt.Receptor>
def.prm

>  <SCORE>
-12.3383

>  <SCORE.INTER>
-5.50363

>  <SCORE.INTER.CONST>
1

>  <SCORE.INTER.POLAR>
-0.200572

>  <SCORE.INTER.REPUL>
8.61445e-06

>  <SCORE.INTER.ROT>
6

>  <SCORE.INTER.VDW>
-16.2217

>  <SCORE.INTER.norm>
-0.203838

>  <SCORE.INTRA>
-6.13784

>  <SCORE.INTRA.DIHEDRAL>
-4.65637

>  <SCORE.INTRA.DIHEDRAL.0>
13.6736

>  <SCORE.INTRA.POLAR>
-0.0336429

>  <SCORE.INTRA.POLAR.0>
-0.0955695

>  <SCORE.INTRA.REPUL>
0

>  <SCORE.INTRA.REPUL.0>
0

>  <SCORE.INTRA.VDW>
-3.69527

>  <SCORE.INTRA.VDW.0>
2.01328

>  <SCORE.INTRA.norm>
-0.227327

>  <SCORE.RESTR>
0

>  <SCORE.RESTR.CAVITY>
0

>  <SCORE.RESTR.norm>
0

>  <SCORE.SYSTEM>
-0.696808

>  <SCORE.SYSTEM.CONST>
0

>  <SCORE.SYSTEM.DIHEDRAL>
0.583344

>  <SCORE.SYSTEM.VDW>
-0.98848

>  <SCORE.SYSTEM.norm>
-0.0258077

>  <SCORE.heavy>
27

>  <SCORE.norm>
-0.456973

>  <TITLE>
    14521044_D                                                            

$$$$
Berchemol.pdb
  RxDock  02242101103D
librxdock.so/0.1.0
 31 33  0  0  0  0  0  0  0  0999 V2000
  -49.7397   -1.9286   13.7764 O   0  0  0  0  0  0
  -48.1101   -3.8395   15.4500 O   0  0  0  0  0  0
  -47.0357   -2.6386   17.7177 O   0  0  0  0  0  0
  -51.5370   -6.1899   17.5281 O   0  0  0  0  0  0
  -44.4742    0.3913   19.4316 O   0  0  0  0  0  0
  -53.9329   -5.9788   16.2417 O   0  0  0  0  0  0
  -42.6546   -1.6443   18.8968 O   0  0  0  0  0  0
  -48.4389   -2.4563   15.6594 C   0  0  0  0  0  0
  -47.5622   -1.6312   14.6758 C   0  0  0  0  0  0
  -49.8819   -2.1823   15.1791 C   0  0  0  0  0  0
  -48.5441   -1.1618   13.5832 C   0  0  0  0  0  0
  -46.7625   -0.4214   15.2181 C   0  0  0  0  0  0
  -48.2746   -2.1634   17.1690 C   0  0  0  0  0  0
  -50.9513   -3.2258   15.4839 C   0  0  0  0  0  0
  -45.6575   -0.7415   16.2140 C   0  0  0  0  0  0
  -50.7319   -4.2525   16.3795 C   0  0  0  0  0  0
  -52.1698   -3.1311   14.8508 C   0  0  0  0  0  0
  -45.5590   -0.0400   17.3964 C   0  0  0  0  0  0
  -44.7508   -1.7395   15.9379 C   0  0  0  0  0  0
  -51.7166   -5.1850   16.6536 C   0  0  0  0  0  0
  -53.1586   -4.0537   15.1073 C   0  0  0  0  0  0
  -52.9378   -5.0765   16.0009 C   0  0  0  0  0  0
  -44.5509   -0.3152   18.2971 C   0  0  0  0  0  0
  -43.7470   -2.0333   16.8341 C   0  0  0  0  0  0
  -43.6440   -1.3297   18.0132 C   0  0  0  0  0  0
  -50.3253   -6.9709   17.4533 C   0  0  0  0  0  0
  -44.9375   -0.2467   20.6391 C   0  0  0  0  0  0
  -48.1868   -4.0907   14.4797 H   0  0  0  0  0  0
  -46.9169   -3.6255   17.5640 H   0  0  0  0  0  0
  -53.6770   -6.6378   16.9560 H   0  0  0  0  0  0
  -42.0824   -2.3994   18.5598 H   0  0  0  0  0  0
  1 10  1  0  0  0
  1 11  1  0  0  0
  2  8  1  0  0  0
  2 28  1  0  0  0
  3 13  1  0  0  0
  3 29  1  0  0  0
  4 20  1  0  0  0
  4 26  1  0  0  0
  5 23  1  0  0  0
  5 27  1  0  0  0
  6 22  1  0  0  0
  6 30  1  0  0  0
  7 25  1  0  0  0
  7 31  1  0  0  0
  8  9  1  0  0  0
  8 13  1  0  0  0
  9 11  1  0  0  0
  9 12  1  0  0  0
 10  8  1  0  0  0
 10 14  1  0  0  0
 12 15  1  0  0  0
 14 16  2  0  0  0
 14 17  1  0  0  0
 15 18  2  0  0  0
 15 19  1  0  0  0
 16 20  1  0  0  0
 17 21  2  0  0  0
 18 23  1  0  0  0
 19 24  2  0  0  0
 20 22  2  0  0  0
 21 22  1  0  0  0
 23 25  2  0  0  0
 24 25  1  0  0  0
M  END
>  <CHROM.0>
-61.40350079,173.62501274,-179.05260954

>  <CHROM.1>
-52.68514767,-56.45320102,-47.09913453,103.12354285,3.70445089,179.58370256
48.30642337,65.21896367,134.33798967,-131.42063681,-48.19868558,-2.64487634
16.55781205,3.07830146,0.53406506,2.18296066

>  <HEADER>
                                                                          

>  <MASTER>
        0    0    0    0    0    0    0    0   51    0   51    0          

>  <Name>
Berchemol.pdb

>  <RI>
-2.88976e+08

>  <Rbt.Current_Directory>
/root/miniconda3/envs/rdock/share/rxdock-2013.1.1_148c5bd1-0/data/ligands/prepped_ligands/Berchemol

>  <Rbt.Executable>
rbdock/0.1.0

>  <Rbt.Library>
librxdock.so/0.1.0

>  <Rbt.Parameter_File>
/root/miniconda3/envs/rdock/share/rxdock-2013.1.1_148c5bd1-0/data/scripts/dock.prm

>  <Rbt.Receptor>
def.prm

>  <SCORE>
-20.8013

>  <SCORE.INTER>
-13.8827

>  <SCORE.INTER.CONST>
1

>  <SCORE.INTER.POLAR>
-1.66854

>  <SCORE.INTER.REPUL>
0.0351448

>  <SCORE.INTER.ROT>
6

>  <SCORE.INTER.VDW>
-19.7854

>  <SCORE.INTER.norm>
-0.514174

>  <SCORE.INTRA>
-5.89978

>  <SCORE.INTRA.DIHEDRAL>
-4.39731

>  <SCORE.INTRA.DIHEDRAL.0>
13.6736

>  <SCORE.INTRA.POLAR>
0.000619515

>  <SCORE.INTRA.POLAR.0>
-0.0955695

>  <SCORE.INTRA.REPUL>
0

>  <SCORE.INTRA.REPUL.0>
0

>  <SCORE.INTRA.VDW>
-3.70323

>  <SCORE.INTRA.VDW.0>
2.01328

>  <SCORE.INTRA.norm>
-0.21851

>  <SCORE.RESTR>
0

>  <SCORE.RESTR.CAVITY>
0

>  <SCORE.RESTR.norm>
0

>  <SCORE.SYSTEM>
-1.01883

>  <SCORE.SYSTEM.CONST>
0

>  <SCORE.SYSTEM.DIHEDRAL>
0.206234

>  <SCORE.SYSTEM.POLAR>
-0.00428648

>  <SCORE.SYSTEM.VDW>
-1.10737

>  <SCORE.SYSTEM.norm>
-0.0377343

>  <SCORE.heavy>
27

>  <SCORE.norm>
-0.770419

>  <TITLE>
    14521044_D                                                            

$$$$
Berchemol.pdb
  RxDock  02242101103D
librxdock.so/0.1.0
 31 33  0  0  0  0  0  0  0  0999 V2000
  -47.4793   -3.3990   17.5587 O   0  0  0  0  0  0
  -47.3399   -0.9113   15.8559 O   0  0  0  0  0  0
  -49.7888   -0.4349   14.5341 O   0  0  0  0  0  0
  -45.0749    0.4109   20.0986 O   0  0  0  0  0  0
  -51.9541   -5.5424   18.0782 O   0  0  0  0  0  0
  -47.0770    1.5221   21.5807 O   0  0  0  0  0  0
  -54.2862   -4.4456   17.0299 O   0  0  0  0  0  0
  -48.4363   -1.7987   16.1307 C   0  0  0  0  0  0
  -48.1825   -3.0951   15.3110 C   0  0  0  0  0  0
  -48.3683   -2.2765   17.5987 C   0  0  0  0  0  0
  -47.7524   -4.1389   16.3616 C   0  0  0  0  0  0
  -49.3274   -3.6678   14.4400 C   0  0  0  0  0  0
  -49.7436   -1.0245   15.8425 C   0  0  0  0  0  0
  -47.9857   -1.2595   18.6686 C   0  0  0  0  0  0
  -50.6590   -3.8852   15.1434 C   0  0  0  0  0  0
  -46.6726   -0.9001   18.8947 C   0  0  0  0  0  0
  -48.9828   -0.6816   19.4211 C   0  0  0  0  0  0
  -50.7196   -4.6105   16.3140 C   0  0  0  0  0  0
  -51.8121   -3.3531   14.6126 C   0  0  0  0  0  0
  -46.3429    0.0327   19.8619 C   0  0  0  0  0  0
  -48.6721    0.2439   20.3914 C   0  0  0  0  0  0
  -47.3622    0.6009   20.6150 C   0  0  0  0  0  0
  -51.9256   -4.8238   16.9490 C   0  0  0  0  0  0
  -53.0211   -3.5477   15.2432 C   0  0  0  0  0  0
  -53.0840   -4.2766   16.4098 C   0  0  0  0  0  0
  -44.0556   -0.6041   20.2192 C   0  0  0  0  0  0
  -51.8228   -4.8235   19.3215 C   0  0  0  0  0  0
  -46.4568   -1.3495   16.0523 H   0  0  0  0  0  0
  -49.7706   -1.1344   13.8117 H   0  0  0  0  0  0
  -46.0869    1.6484   21.6981 H   0  0  0  0  0  0
  -54.5213   -3.6552   17.6055 H   0  0  0  0  0  0
  1 10  1  0  0  0
  1 11  1  0  0  0
  2  8  1  0  0  0
  2 28  1  0  0  0
  3 13  1  0  0  0
  3 29  1  0  0  0
  4 20  1  0  0  0
  4 26  1  0  0  0
  5 23  1  0  0  0
  5 27  1  0  0  0
  6 22  1  0  0  0
  6 30  1  0  0  0
  7 25  1  0  0  0
  7 31  1  0  0  0
  8  9  1  0  0  0
  8 13  1  0  0  0
  9 11  1  0  0  0
  9 12  1  0  0  0
 10  8  1  0  0  0
 10 14  1  0  0  0
 12 15  1  0  0  0
 14 16  2  0  0  0
 14 17  1  0  0  0
 15 18  2  0  0  0
 15 19  1  0  0  0
 16 20  1  0  0  0
 17 21  2  0  0  0
 18 23  1  0  0  0
 19 24  2  0  0  0
 20 22  2  0  0  0
 21 22  1  0  0  0
 23 25  2  0  0  0
 24 25  1  0  0  0
M  END
>  <CHROM.0>
75.63370023,178.26588081,27.55233118

>  <CHROM.1>
-55.16516908,63.65935295,-46.62290433,91.18154927,-4.57278415,96.75873020
53.09121469,-52.30376199,41.63288907,-52.32301711,-49.15339118,-2.22392998
17.52021155,-0.60511321,-0.53926761,-1.77961438

>  <HEADER>
                                                                          

>  <MASTER>
        0    0    0    0    0    0    0    0   51    0   51    0          

>  <Name>
Berchemol.pdb

>  <RI>
-2.88976e+08

>  <Rbt.Current_Directory>
/root/miniconda3/envs/rdock/share/rxdock-2013.1.1_148c5bd1-0/data/ligands/prepped_ligands/Berchemol

>  <Rbt.Executable>
rbdock/0.1.0

>  <Rbt.Library>
librxdock.so/0.1.0

>  <Rbt.Parameter_File>
/root/miniconda3/envs/rdock/share/rxdock-2013.1.1_148c5bd1-0/data/scripts/dock.prm

>  <Rbt.Receptor>
def.prm

>  <SCORE>
-10.6227

>  <SCORE.INTER>
-6.86551

>  <SCORE.INTER.CONST>
1

>  <SCORE.INTER.POLAR>
-1.63573

>  <SCORE.INTER.REPUL>
0

>  <SCORE.INTER.ROT>
6

>  <SCORE.INTER.VDW>
-12.704

>  <SCORE.INTER.norm>
-0.254278

>  <SCORE.INTRA>
-4.30947

>  <SCORE.INTRA.DIHEDRAL>
0.355397

>  <SCORE.INTRA.DIHEDRAL.0>
13.6736

>  <SCORE.INTRA.POLAR>
0.00243307

>  <SCORE.INTRA.POLAR.0>
-0.0955695

>  <SCORE.INTRA.REPUL>
0

>  <SCORE.INTRA.REPUL.0>
0

>  <SCORE.INTRA.VDW>
-4.49544

>  <SCORE.INTRA.VDW.0>
2.01328

>  <SCORE.INTRA.norm>
-0.15961

>  <SCORE.RESTR>
0

>  <SCORE.RESTR.CAVITY>
0

>  <SCORE.RESTR.norm>
0

>  <SCORE.SYSTEM>
0.552309

>  <SCORE.SYSTEM.CONST>
0

>  <SCORE.SYSTEM.DIHEDRAL>
2.62021

>  <SCORE.SYSTEM.VDW>
-0.757794

>  <SCORE.SYSTEM.norm>
0.0204559

>  <SCORE.heavy>
27

>  <SCORE.norm>
-0.393433

>  <TITLE>
    14521044_D                                                            

$$$$
Berchemol.pdb
  RxDock  02242101103D
librxdock.so/0.1.0
 31 33  0  0  0  0  0  0  0  0999 V2000
  -50.6907   -1.6926   17.1866 O   0  0  0  0  0  0
  -49.8703   -4.5354   17.7809 O   0  0  0  0  0  0
  -49.3353   -5.3724   15.1170 O   0  0  0  0  0  0
  -45.6412   -1.9166   18.2635 O   0  0  0  0  0  0
  -52.0060   -8.6425   17.8017 O   0  0  0  0  0  0
  -44.4893   -2.1118   15.7988 O   0  0  0  0  0  0
  -54.0816   -9.7071   16.2855 O   0  0  0  0  0  0
  -50.6692   -3.9937   16.7163 C   0  0  0  0  0  0
  -52.0517   -3.6333   17.3295 C   0  0  0  0  0  0
  -50.0982   -2.6268   16.2763 C   0  0  0  0  0  0
  -52.0483   -2.0933   17.4125 C   0  0  0  0  0  0
  -53.3377   -4.1179   16.6162 C   0  0  0  0  0  0
  -50.6550   -5.0178   15.5577 C   0  0  0  0  0  0
  -48.5836   -2.4774   16.1813 C   0  0  0  0  0  0
  -53.5283   -5.6251   16.5309 C   0  0  0  0  0  0
  -47.8034   -2.2500   17.2966 C   0  0  0  0  0  0
  -47.9831   -2.5813   14.9472 C   0  0  0  0  0  0
  -52.6876   -6.4747   17.2174 C   0  0  0  0  0  0
  -54.5475   -6.1472   15.7675 C   0  0  0  0  0  0
  -46.4289   -2.1280   17.1950 C   0  0  0  0  0  0
  -46.6176   -2.4566   14.8271 C   0  0  0  0  0  0
  -45.8415   -2.2300   15.9405 C   0  0  0  0  0  0
  -52.8457   -7.8426   17.1328 C   0  0  0  0  0  0
  -54.7246   -7.5107   15.6844 C   0  0  0  0  0  0
  -53.8822   -8.3609   16.3652 C   0  0  0  0  0  0
  -45.5826   -0.5924   18.8353 C   0  0  0  0  0  0
  -51.5562   -8.1926   19.0959 C   0  0  0  0  0  0
  -49.8265   -3.9049   18.5625 H   0  0  0  0  0  0
  -48.7820   -5.7474   15.8686 H   0  0  0  0  0  0
  -44.0285   -1.9907   16.6836 H   0  0  0  0  0  0
  -54.7678   -9.9400   15.5882 H   0  0  0  0  0  0
  1 10  1  0  0  0
  1 11  1  0  0  0
  2  8  1  0  0  0
  2 28  1  0  0  0
  3 13  1  0  0  0
  3 29  1  0  0  0
  4 20  1  0  0  0
  4 26  1  0  0  0
  5 23  1  0  0  0
  5 27  1  0  0  0
  6 22  1  0  0  0
  6 30  1  0  0  0
  7 25  1  0  0  0
  7 31  1  0  0  0
  8  9  1  0  0  0
  8 13  1  0  0  0
  9 11  1  0  0  0
  9 12  1  0  0  0
 10  8  1  0  0  0
 10 14  1  0  0  0
 12 15  1  0  0  0
 14 16  2  0  0  0
 14 17  1  0  0  0
 15 18  2  0  0  0
 15 19  1  0  0  0
 16 20  1  0  0  0
 17 21  2  0  0  0
 18 23  1  0  0  0
 19 24  2  0  0  0
 20 22  2  0  0  0
 21 22  1  0  0  0
 23 25  2  0  0  0
 24 25  1  0  0  0
M  END
>  <CHROM.0>
-62.47247197,61.97367865,62.25289771

>  <CHROM.1>
-54.42888344,57.61097366,-76.88840347,36.36011425,2.37978780,-171.06691611
-55.28274758,63.26920057,41.04366250,8.59489207,-50.22077927,-4.47845275
16.74441779,0.67714789,-0.04216385,-0.03807197

>  <HEADER>
                                                                          

>  <MASTER>
        0    0    0    0    0    0    0    0   51    0   51    0          

>  <Name>
Berchemol.pdb

>  <RI>
-2.88976e+08

>  <Rbt.Current_Directory>
/root/miniconda3/envs/rdock/share/rxdock-2013.1.1_148c5bd1-0/data/ligands/prepped_ligands/Berchemol

>  <Rbt.Executable>
rbdock/0.1.0

>  <Rbt.Library>
librxdock.so/0.1.0

>  <Rbt.Parameter_File>
/root/miniconda3/envs/rdock/share/rxdock-2013.1.1_148c5bd1-0/data/scripts/dock.prm

>  <Rbt.Receptor>
def.prm

>  <SCORE>
-20.8197

>  <SCORE.INTER>
-15.6905

>  <SCORE.INTER.CONST>
1

>  <SCORE.INTER.POLAR>
-1.66649

>  <SCORE.INTER.REPUL>
0

>  <SCORE.INTER.ROT>
6

>  <SCORE.INTER.VDW>
-21.4244

>  <SCORE.INTER.norm>
-0.581129

>  <SCORE.INTRA>
-4.15547

>  <SCORE.INTRA.DIHEDRAL>
-5.62033

>  <SCORE.INTRA.DIHEDRAL.0>
13.6736

>  <SCORE.INTRA.POLAR>
0.0509838

>  <SCORE.INTRA.POLAR.0>
-0.0955695

>  <SCORE.INTRA.REPUL>
0

>  <SCORE.INTRA.REPUL.0>
0

>  <SCORE.INTRA.VDW>
-1.51865

>  <SCORE.INTRA.VDW.0>
2.01328

>  <SCORE.INTRA.norm>
-0.153906

>  <SCORE.RESTR>
0

>  <SCORE.RESTR.CAVITY>
0

>  <SCORE.RESTR.norm>
0

>  <SCORE.SYSTEM>
-0.973772

>  <SCORE.SYSTEM.CONST>
0

>  <SCORE.SYSTEM.DIHEDRAL>
0.0469661

>  <SCORE.SYSTEM.POLAR>
-0.00607869

>  <SCORE.SYSTEM.VDW>
-0.976588

>  <SCORE.SYSTEM.norm>
-0.0360656

>  <SCORE.heavy>
27

>  <SCORE.norm>
-0.771101

>  <TITLE>
    14521044_D                                                            

$$$$
Berchemol.pdb
  RxDock  02242101103D
librxdock.so/0.1.0
 31 33  0  0  0  0  0  0  0  0999 V2000
  -47.1941   -2.8233   16.8467 O   0  0  0  0  0  0
  -46.1058   -1.1434   14.5881 O   0  0  0  0  0  0
  -48.0257    0.1774   13.1441 O   0  0  0  0  0  0
  -43.1793    0.0204   18.4488 O   0  0  0  0  0  0
  -52.3506   -1.6147   17.2605 O   0  0  0  0  0  0
  -44.3783    2.2146   19.5386 O   0  0  0  0  0  0
  -53.7326   -4.0180   17.0263 O   0  0  0  0  0  0
  -47.4564   -1.3591   15.0291 C   0  0  0  0  0  0
  -47.8581   -2.7881   14.5671 C   0  0  0  0  0  0
  -47.4956   -1.4503   16.5713 C   0  0  0  0  0  0
  -47.8520   -3.6287   15.8601 C   0  0  0  0  0  0
  -49.1995   -2.9850   13.8191 C   0  0  0  0  0  0
  -48.3097   -0.1806   14.5053 C   0  0  0  0  0  0
  -46.6276   -0.4844   17.3708 C   0  0  0  0  0  0
  -50.4179   -3.2553   14.6896 C   0  0  0  0  0  0
  -45.2758   -0.6973   17.5483 C   0  0  0  0  0  0
  -47.2130    0.6330   17.9213 C   0  0  0  0  0  0
  -50.8585   -2.3066   15.5872 C   0  0  0  0  0  0
  -51.0892   -4.4519   14.5804 C   0  0  0  0  0  0
  -44.4997    0.1946   18.2671 C   0  0  0  0  0  0
  -46.4570    1.5277   18.6443 C   0  0  0  0  0  0
  -45.1092    1.3135   18.8200 C   0  0  0  0  0  0
  -51.9537   -2.5509   16.3898 C   0  0  0  0  0  0
  -52.1918   -4.7038   15.3667 C   0  0  0  0  0  0
  -52.6299   -3.7592   16.2677 C   0  0  0  0  0  0
  -42.6973   -1.2770   18.8589 C   0  0  0  0  0  0
  -51.9878   -1.8033   18.6435 C   0  0  0  0  0  0
  -46.0557   -1.0684   13.5870 H   0  0  0  0  0  0
  -48.2389   -0.5746   12.5111 H   0  0  0  0  0  0
  -44.8827    2.5538   20.3389 H   0  0  0  0  0  0
  -54.1221   -4.9216   16.8190 H   0  0  0  0  0  0
  1 10  1  0  0  0
  1 11  1  0  0  0
  2  8  1  0  0  0
  2 28  1  0  0  0
  3 13  1  0  0  0
  3 29  1  0  0  0
  4 20  1  0  0  0
  4 26  1  0  0  0
  5 23  1  0  0  0
  5 27  1  0  0  0
  6 22  1  0  0  0
  6 30  1  0  0  0
  7 25  1  0  0  0
  7 31  1  0  0  0
  8  9  1  0  0  0
  8 13  1  0  0  0
  9 11  1  0  0  0
  9 12  1  0  0  0
 10  8  1  0  0  0
 10 14  1  0  0  0
 12 15  1  0  0  0
 14 16  2  0  0  0
 14 17  1  0  0  0
 15 18  2  0  0  0
 15 19  1  0  0  0
 16 20  1  0  0  0
 17 21  2  0  0  0
 18 23  1  0  0  0
 19 24  2  0  0  0
 20 22  2  0  0  0
 21 22  1  0  0  0
 23 25  2  0  0  0
 24 25  1  0  0  0
M  END
>  <CHROM.0>
-60.18710518,60.26782162,177.57625859

>  <CHROM.1>
68.97670145,62.91420788,-46.93976651,-101.69813830,-140.81572732,179.08914495
43.36042948,-89.06252664,41.96828165,63.30815442,-48.19725830,-1.50080287
16.53252396,-0.44188982,-0.33039813,-1.97574318

>  <HEADER>
                                                                          

>  <MASTER>
        0    0    0    0    0    0    0    0   51    0   51    0          

>  <Name>
Berchemol.pdb

>  <RI>
-2.88976e+08

>  <Rbt.Current_Directory>
/root/miniconda3/envs/rdock/share/rxdock-2013.1.1_148c5bd1-0/data/ligands/prepped_ligands/Berchemol

>  <Rbt.Executable>
rbdock/0.1.0

>  <Rbt.Library>
librxdock.so/0.1.0

>  <Rbt.Parameter_File>
/root/miniconda3/envs/rdock/share/rxdock-2013.1.1_148c5bd1-0/data/scripts/dock.prm

>  <Rbt.Receptor>
def.prm

>  <SCORE>
-17.0407

>  <SCORE.INTER>
-13.2362

>  <SCORE.INTER.CONST>
1

>  <SCORE.INTER.POLAR>
-1.6899

>  <SCORE.INTER.REPUL>
0

>  <SCORE.INTER.ROT>
6

>  <SCORE.INTER.VDW>
-18.8905

>  <SCORE.INTER.norm>
-0.490228

>  <SCORE.INTRA>
-2.79774

>  <SCORE.INTRA.DIHEDRAL>
0.452942

>  <SCORE.INTRA.DIHEDRAL.0>
13.6736

>  <SCORE.INTRA.POLAR>
0.0955695

>  <SCORE.INTRA.POLAR.0>
-0.0955695

>  <SCORE.INTRA.REPUL>
0

>  <SCORE.INTRA.REPUL.0>
0

>  <SCORE.INTRA.VDW>
-3.34915

>  <SCORE.INTRA.VDW.0>
2.01328

>  <SCORE.INTRA.norm>
-0.10362

>  <SCORE.RESTR>
0

>  <SCORE.RESTR.CAVITY>
0

>  <SCORE.RESTR.norm>
0

>  <SCORE.SYSTEM>
-1.00684

>  <SCORE.SYSTEM.CONST>
0

>  <SCORE.SYSTEM.DIHEDRAL>
0.0172256

>  <SCORE.SYSTEM.VDW>
-1.01546

>  <SCORE.SYSTEM.norm>
-0.0372905

>  <SCORE.heavy>
27

>  <SCORE.norm>
-0.631139

>  <TITLE>
    14521044_D                                                            

$$$$
Berchemol.pdb
  RxDock  02242101113D
librxdock.so/0.1.0
 31 33  0  0  0  0  0  0  0  0999 V2000
  -50.5519   -1.4002   16.2093 O   0  0  0  0  0  0
  -50.6729   -1.9984   13.2538 O   0  0  0  0  0  0
  -49.0426   -4.1264   12.8896 O   0  0  0  0  0  0
  -51.5574   -7.0560   16.9552 O   0  0  0  0  0  0
  -46.1858   -1.3969   18.8361 O   0  0  0  0  0  0
  -53.8725   -6.7489   15.5460 O   0  0  0  0  0  0
  -44.1140   -2.9340   17.7942 O   0  0  0  0  0  0
  -49.5726   -2.0526   14.1767 C   0  0  0  0  0  0
  -49.1578   -0.5832   14.4693 C   0  0  0  0  0  0
  -50.0632   -2.5724   15.5468 C   0  0  0  0  0  0
  -49.6686   -0.3146   15.8995 C   0  0  0  0  0  0
  -47.6638   -0.1903   14.3629 C   0  0  0  0  0  0
  -48.4987   -2.9820   13.5649 C   0  0  0  0  0  0
  -51.0673   -3.7201   15.5625 C   0  0  0  0  0  0
  -46.7109   -0.9235   15.2954 C   0  0  0  0  0  0
  -50.8293   -4.8856   16.2620 C   0  0  0  0  0  0
  -52.2451   -3.5804   14.8642 C   0  0  0  0  0  0
  -46.8759   -0.8482   16.6618 C   0  0  0  0  0  0
  -45.6785   -1.6705   14.7752 C   0  0  0  0  0  0
  -51.7555   -5.9134   16.2754 C   0  0  0  0  0  0
  -53.1750   -4.5952   14.8619 C   0  0  0  0  0  0
  -52.9358   -5.7565   15.5602 C   0  0  0  0  0  0
  -46.0068   -1.4985   17.5133 C   0  0  0  0  0  0
  -44.8111   -2.3352   15.6137 C   0  0  0  0  0  0
  -44.9714   -2.2565   16.9790 C   0  0  0  0  0  0
  -50.2335   -7.3536   17.4475 C   0  0  0  0  0  0
  -45.2437   -0.5877   19.5694 C   0  0  0  0  0  0
  -50.3764   -1.6731   12.3501 H   0  0  0  0  0  0
  -49.5218   -4.7395   13.5269 H   0  0  0  0  0  0
  -53.4520   -7.6616   15.5339 H   0  0  0  0  0  0
  -43.6218   -3.6563   17.2969 H   0  0  0  0  0  0
  1 10  1  0  0  0
  1 11  1  0  0  0
  2  8  1  0  0  0
  2 28  1  0  0  0
  3 13  1  0  0  0
  3 29  1  0  0  0
  4 20  1  0  0  0
  4 26  1  0  0  0
  5 23  1  0  0  0
  5 27  1  0  0  0
  6 22  1  0  0  0
  6 30  1  0  0  0
  7 25  1  0  0  0
  7 31  1  0  0  0
  8  9  1  0  0  0
  8 13  1  0  0  0
  9 11  1  0  0  0
  9 12  1  0  0  0
 10  8  1  0  0  0
 10 14  1  0  0  0
 12 15  1  0  0  0
 14 16  2  0  0  0
 14 17  1  0  0  0
 15 18  2  0  0  0
 15 19  1  0  0  0
 16 20  1  0  0  0
 17 21  2  0  0  0
 18 23  1  0  0  0
 19 24  2  0  0  0
 20 22  2  0  0  0
 21 22  1  0  0  0
 23 25  2  0  0  0
 24 25  1  0  0  0
M  END
>  <CHROM.0>
62.09944371,178.50772683,-63.05184876

>  <CHROM.1>
68.91468584,-64.74140894,-13.76417648,-107.77716757,-36.73979005,161.48580176
-38.57964889,-60.57685133,-113.44047776,-59.55033027,-49.01523311,-3.02001394
15.81740273,2.85872176,0.52687460,2.42608361

>  <HEADER>
                                                                          

>  <MASTER>
        0    0    0    0    0    0    0    0   51    0   51    0          

>  <Name>
Berchemol.pdb

>  <RI>
-2.88976e+08

>  <Rbt.Current_Directory>
/root/miniconda3/envs/rdock/share/rxdock-2013.1.1_148c5bd1-0/data/ligands/prepped_ligands/Berchemol

>  <Rbt.Executable>
rbdock/0.1.0

>  <Rbt.Library>
librxdock.so/0.1.0

>  <Rbt.Parameter_File>
/root/miniconda3/envs/rdock/share/rxdock-2013.1.1_148c5bd1-0/data/scripts/dock.prm

>  <Rbt.Receptor>
def.prm

>  <SCORE>
-20.9697

>  <SCORE.INTER>
-16.8803

>  <SCORE.INTER.CONST>
1

>  <SCORE.INTER.POLAR>
-2.64746

>  <SCORE.INTER.REPUL>
0

>  <SCORE.INTER.ROT>
6

>  <SCORE.INTER.VDW>
-19.2789

>  <SCORE.INTER.norm>
-0.625196

>  <SCORE.INTRA>
-3.04168

>  <SCORE.INTRA.DIHEDRAL>
-3.72645

>  <SCORE.INTRA.DIHEDRAL.0>
13.6736

>  <SCORE.INTRA.POLAR>
0.0955695

>  <SCORE.INTRA.POLAR.0>
-0.0955695

>  <SCORE.INTRA.REPUL>
0

>  <SCORE.INTRA.REPUL.0>
0

>  <SCORE.INTRA.VDW>
-1.50339

>  <SCORE.INTRA.VDW.0>
2.01328

>  <SCORE.INTRA.norm>
-0.112655

>  <SCORE.RESTR>
0.018017

>  <SCORE.RESTR.CAVITY>
0.018017

>  <SCORE.RESTR.norm>
0.000667296

>  <SCORE.SYSTEM>
-1.06571

>  <SCORE.SYSTEM.CONST>
0

>  <SCORE.SYSTEM.DIHEDRAL>
0.045909

>  <SCORE.SYSTEM.VDW>
-1.08867

>  <SCORE.SYSTEM.norm>
-0.0394709

>  <SCORE.heavy>
27

>  <SCORE.norm>
-0.776655

>  <TITLE>
    14521044_D                                                            

$$$$
Berchemol.pdb
  RxDock  02242101113D
librxdock.so/0.1.0
 31 33  0  0  0  0  0  0  0  0999 V2000
  -47.6799   -2.7589   16.1782 O   0  0  0  0  0  0
  -47.5082   -0.6992   13.9791 O   0  0  0  0  0  0
  -50.2635   -0.0534   13.1859 O   0  0  0  0  0  0
  -47.7069    2.6640   18.8148 O   0  0  0  0  0  0
  -53.6109   -5.9570   15.8008 O   0  0  0  0  0  0
  -44.9979    2.3515   18.7535 O   0  0  0  0  0  0
  -53.9638   -4.1389   17.8770 O   0  0  0  0  0  0
  -48.6446   -1.2241   14.6848 C   0  0  0  0  0  0
  -48.8910   -2.6584   14.1381 C   0  0  0  0  0  0
  -48.2783   -1.4574   16.1679 C   0  0  0  0  0  0
  -48.4119   -3.5910   15.2691 C   0  0  0  0  0  0
  -50.3208   -3.0580   13.6982 C   0  0  0  0  0  0
  -49.7963   -0.2030   14.5353 C   0  0  0  0  0  0
  -47.4217   -0.4092   16.8701 C   0  0  0  0  0  0
  -51.3067   -3.3568   14.8180 C   0  0  0  0  0  0
  -47.9818    0.6709   17.5213 C   0  0  0  0  0  0
  -46.0530   -0.5543   16.8572 C   0  0  0  0  0  0
  -52.0190   -4.5368   14.8241 C   0  0  0  0  0  0
  -51.4885   -2.4473   15.8349 C   0  0  0  0  0  0
  -47.1911    1.6073   18.1634 C   0  0  0  0  0  0
  -45.2512    0.3711   17.4860 C   0  0  0  0  0  0
  -45.8117    1.4472   18.1349 C   0  0  0  0  0  0
  -52.9252   -4.8075   15.8286 C   0  0  0  0  0  0
  -52.3808   -2.7106   16.8508 C   0  0  0  0  0  0
  -53.0972   -3.8866   16.8554 C   0  0  0  0  0  0
  -48.9771    2.5178   19.4848 C   0  0  0  0  0  0
  -53.2726   -6.9514   16.7891 C   0  0  0  0  0  0
  -46.7487   -1.3576   13.9678 H   0  0  0  0  0  0
  -51.0567    0.5629   13.1347 H   0  0  0  0  0  0
  -44.0569    2.0102   18.8421 H   0  0  0  0  0  0
  -54.2405   -3.2936   18.3463 H   0  0  0  0  0  0
  1 10  1  0  0  0
  1 11  1  0  0  0
  2  8  1  0  0  0
  2 28  1  0  0  0
  3 13  1  0  0  0
  3 29  1  0  0  0
  4 20  1  0  0  0
  4 26  1  0  0  0
  5 23  1  0  0  0
  5 27  1  0  0  0
  6 22  1  0  0  0
  6 30  1  0  0  0
  7 25  1  0  0  0
  7 31  1  0  0  0
  8  9  1  0  0  0
  8 13  1  0  0  0
  9 11  1  0  0  0
  9 12  1  0  0  0
 10  8  1  0  0  0
 10 14  1  0  0  0
 12 15  1  0  0  0
 14 16  2  0  0  0
 14 17  1  0  0  0
 15 18  2  0  0  0
 15 19  1  0  0  0
 16 20  1  0  0  0
 17 21  2  0  0  0
 18 23  1  0  0  0
 19 24  2  0  0  0
 20 22  2  0  0  0
 21 22  1  0  0  0
 23 25  2  0  0  0
 24 25  1  0  0  0
M  END
>  <CHROM.0>
57.36884607,178.07520911,-155.37568306

>  <CHROM.1>
-48.23302924,175.62893883,33.50812398,109.27841447,166.62770334,-159.21444206
65.44202950,-76.15322941,-149.24418926,-127.75470076,-49.46341156,-1.60319743
16.27912948,-0.55841806,-0.61508796,-2.09705173

>  <HEADER>
                                                                          

>  <MASTER>
        0    0    0    0    0    0    0    0   51    0   51    0          

>  <Name>
Berchemol.pdb

>  <RI>
-2.88976e+08

>  <Rbt.Current_Directory>
/root/miniconda3/envs/rdock/share/rxdock-2013.1.1_148c5bd1-0/data/ligands/prepped_ligands/Berchemol

>  <Rbt.Executable>
rbdock/0.1.0

>  <Rbt.Library>
librxdock.so/0.1.0

>  <Rbt.Parameter_File>
/root/miniconda3/envs/rdock/share/rxdock-2013.1.1_148c5bd1-0/data/scripts/dock.prm

>  <Rbt.Receptor>
def.prm

>  <SCORE>
-17.9614

>  <SCORE.INTER>
-13.7977

>  <SCORE.INTER.CONST>
1

>  <SCORE.INTER.POLAR>
-2.20889

>  <SCORE.INTER.REPUL>
0.0124367

>  <SCORE.INTER.ROT>
6

>  <SCORE.INTER.VDW>
-17.7496

>  <SCORE.INTER.norm>
-0.511025

>  <SCORE.INTRA>
-3.94688

>  <SCORE.INTRA.DIHEDRAL>
-4.27132

>  <SCORE.INTRA.DIHEDRAL.0>
13.6736

>  <SCORE.INTRA.POLAR>
0.0955695

>  <SCORE.INTRA.POLAR.0>
-0.0955695

>  <SCORE.INTRA.REPUL>
0

>  <SCORE.INTRA.REPUL.0>
0

>  <SCORE.INTRA.VDW>
-2.13616

>  <SCORE.INTRA.VDW.0>
2.01328

>  <SCORE.INTRA.norm>
-0.146181

>  <SCORE.RESTR>
0

>  <SCORE.RESTR.CAVITY>
0

>  <SCORE.RESTR.norm>
0

>  <SCORE.SYSTEM>
-0.21686

>  <SCORE.SYSTEM.CONST>
0

>  <SCORE.SYSTEM.DIHEDRAL>
1.32243

>  <SCORE.SYSTEM.POLAR>
-0.0159345

>  <SCORE.SYSTEM.VDW>
-0.8239

>  <SCORE.SYSTEM.norm>
-0.00803187

>  <SCORE.heavy>
27

>  <SCORE.norm>
-0.665237

>  <TITLE>
    14521044_D                                                            

$$$$
Berchemol.pdb
  RxDock  02242101113D
librxdock.so/0.1.0
 31 33  0  0  0  0  0  0  0  0999 V2000
  -49.5427   -2.3238   14.9815 O   0  0  0  0  0  0
  -49.0206   -0.3022   17.1606 O   0  0  0  0  0  0
  -50.0852   -1.3024   19.6482 O   0  0  0  0  0  0
  -44.2705   -2.7865   18.0171 O   0  0  0  0  0  0
  -53.7793   -6.2340   15.3584 O   0  0  0  0  0  0
  -43.2600   -2.0526   15.5923 O   0  0  0  0  0  0
  -52.5736   -7.7831   17.3299 O   0  0  0  0  0  0
  -49.5805   -1.6242   17.2233 C   0  0  0  0  0  0
  -51.0253   -1.5285   16.6573 C   0  0  0  0  0  0
  -48.8561   -2.5481   16.2186 C   0  0  0  0  0  0
  -50.9411   -2.1922   15.2678 C   0  0  0  0  0  0
  -52.1903   -2.1496   17.4662 C   0  0  0  0  0  0
  -49.4226   -2.1269   18.6772 C   0  0  0  0  0  0
  -47.3425   -2.4179   16.0846 C   0  0  0  0  0  0
  -52.3016   -3.6665   17.4225 C   0  0  0  0  0  0
  -46.4946   -2.6595   17.1462 C   0  0  0  0  0  0
  -46.8133   -2.0567   14.8665 C   0  0  0  0  0  0
  -52.9835   -4.2869   16.3979 C   0  0  0  0  0  0
  -51.7159   -4.4276   18.4084 C   0  0  0  0  0  0
  -45.1227   -2.5478   17.0053 C   0  0  0  0  0  0
  -45.4511   -1.9353   14.7103 C   0  0  0  0  0  0
  -44.6074   -2.1768   15.7700 C   0  0  0  0  0  0
  -53.1006   -5.6610   16.3600 C   0  0  0  0  0  0
  -51.8143   -5.8012   18.3760 C   0  0  0  0  0  0
  -52.4999   -6.4221   17.3560 C   0  0  0  0  0  0
  -43.6744   -1.6663   18.7053 C   0  0  0  0  0  0
  -55.0818   -6.7714   15.6662 C   0  0  0  0  0  0
  -49.0347    0.0568   16.2218 H   0  0  0  0  0  0
  -49.9105   -1.6214   20.5859 H   0  0  0  0  0  0
  -43.0313   -1.7380   14.6656 H   0  0  0  0  0  0
  -52.5732   -8.1369   16.3885 H   0  0  0  0  0  0
  1 10  1  0  0  0
  1 11  1  0  0  0
  2  8  1  0  0  0
  2 28  1  0  0  0
  3 13  1  0  0  0
  3 29  1  0  0  0
  4 20  1  0  0  0
  4 26  1  0  0  0
  5 23  1  0  0  0
  5 27  1  0  0  0
  6 22  1  0  0  0
  6 30  1  0  0  0
  7 25  1  0  0  0
  7 31  1  0  0  0
  8  9  1  0  0  0
  8 13  1  0  0  0
  9 11  1  0  0  0
  9 12  1  0  0  0
 10  8  1  0  0  0
 10 14  1  0  0  0
 12 15  1  0  0  0
 14 16  2  0  0  0
 14 17  1  0  0  0
 15 18  2  0  0  0
 15 19  1  0  0  0
 16 20  1  0  0  0
 17 21  2  0  0  0
 18 23  1  0  0  0
 19 24  2  0  0  0
 20 22  2  0  0  0
 21 22  1  0  0  0
 23 25  2  0  0  0
 24 25  1  0  0  0
M  END
>  <CHROM.0>
51.83200040,63.42515463,-59.19423731

>  <CHROM.1>
-57.39470088,-176.11485331,-102.83028842,-106.31719490,-177.33632527,33.60689633
59.77237822,-75.55071009,-176.83941668,-85.68601045,-49.37211279,-3.23261578
16.82294864,-0.37890829,-0.18689639,-2.71624978

>  <HEADER>
                                                                          

>  <MASTER>
        0    0    0    0    0    0    0    0   51    0   51    0          

>  <Name>
Berchemol.pdb

>  <RI>
-2.88976e+08

>  <Rbt.Current_Directory>
/root/miniconda3/envs/rdock/share/rxdock-2013.1.1_148c5bd1-0/data/ligands/prepped_ligands/Berchemol

>  <Rbt.Executable>
rbdock/0.1.0

>  <Rbt.Library>
librxdock.so/0.1.0

>  <Rbt.Parameter_File>
/root/miniconda3/envs/rdock/share/rxdock-2013.1.1_148c5bd1-0/data/scripts/dock.prm

>  <Rbt.Receptor>
def.prm

>  <SCORE>
-16.3809

>  <SCORE.INTER>
-11.5348

>  <SCORE.INTER.CONST>
1

>  <SCORE.INTER.POLAR>
-0.848528

>  <SCORE.INTER.REPUL>
0

>  <SCORE.INTER.ROT>
6

>  <SCORE.INTER.VDW>
-20.0498

>  <SCORE.INTER.norm>
-0.427214

>  <SCORE.INTRA>
-3.93609

>  <SCORE.INTRA.DIHEDRAL>
-0.738543

>  <SCORE.INTRA.DIHEDRAL.0>
13.6736

>  <SCORE.INTRA.POLAR>
0.0955695

>  <SCORE.INTRA.POLAR.0>
-0.0955695

>  <SCORE.INTRA.REPUL>
0

>  <SCORE.INTRA.REPUL.0>
0

>  <SCORE.INTRA.VDW>
-3.89176

>  <SCORE.INTRA.VDW.0>
2.01328

>  <SCORE.INTRA.norm>
-0.145781

>  <SCORE.RESTR>
0

>  <SCORE.RESTR.CAVITY>
0

>  <SCORE.RESTR.norm>
0

>  <SCORE.SYSTEM>
-0.91005

>  <SCORE.SYSTEM.CONST>
0

>  <SCORE.SYSTEM.DIHEDRAL>
0.226853

>  <SCORE.SYSTEM.POLAR>
-0.0028159

>  <SCORE.SYSTEM.VDW>
-1.0139

>  <SCORE.SYSTEM.norm>
-0.0337056

>  <SCORE.heavy>
27

>  <SCORE.norm>
-0.606701

>  <TITLE>
    14521044_D                                                            

$$$$
