Berchemol.pdb
  RxDock  02242110273D
librxdock.so/0.1.0
 31 33  0  0  0  0  0  0  0  0999 V2000
  -47.5790    0.5293   17.7871 O   0  0  0  0  0  0
  -47.4889   -2.4838   17.9310 O   0  0  0  0  0  0
  -48.1928   -3.5205   15.2917 O   0  0  0  0  0  0
  -43.0814    0.7563   20.0161 O   0  0  0  0  0  0
  -52.7307   -4.3907   18.0658 O   0  0  0  0  0  0
  -41.5216   -1.1446   18.8357 O   0  0  0  0  0  0
  -54.1314   -5.0108   15.7432 O   0  0  0  0  0  0
  -47.6854   -1.6045   16.8115 C   0  0  0  0  0  0
  -49.1321   -1.0468   16.9256 C   0  0  0  0  0  0
  -46.7977   -0.3495   16.9690 C   0  0  0  0  0  0
  -48.9482    0.4159   17.3783 C   0  0  0  0  0  0
  -50.0564   -1.1001   15.6845 C   0  0  0  0  0  0
  -47.3320   -2.3966   15.5313 C   0  0  0  0  0  0
  -45.3773   -0.5348   17.4924 C   0  0  0  0  0  0
  -51.1505   -2.1572   15.7097 C   0  0  0  0  0  0
  -44.8791    0.2264   18.5300 C   0  0  0  0  0  0
  -44.5779   -1.4950   16.9150 C   0  0  0  0  0  0
  -51.4701   -2.8029   16.8848 C   0  0  0  0  0  0
  -51.8303   -2.4709   14.5547 C   0  0  0  0  0  0
  -43.5917    0.0382   19.0008 C   0  0  0  0  0  0
  -43.2927   -1.6915   17.3671 C   0  0  0  0  0  0
  -42.7979   -0.9315   18.4020 C   0  0  0  0  0  0
  -52.4510   -3.7726   16.9116 C   0  0  0  0  0  0
  -52.8206   -3.4282   14.5700 C   0  0  0  0  0  0
  -53.1373   -4.0780   15.7420 C   0  0  0  0  0  0
  -43.8118    0.8226   21.2594 C   0  0  0  0  0  0
  -52.4394   -5.8008   18.1468 C   0  0  0  0  0  0
  -48.1342   -3.2542   17.9085 H   0  0  0  0  0  0
  -47.9279   -4.0192   14.4594 H   0  0  0  0  0  0
  -41.1585   -2.0251   18.5151 H   0  0  0  0  0  0
  -55.0181   -4.6086   15.4918 H   0  0  0  0  0  0
  1 10  1  0  0  0
  1 11  1  0  0  0
  2  8  1  0  0  0
  2 28  1  0  0  0
  3 13  1  0  0  0
  3 29  1  0  0  0
  4 20  1  0  0  0
  4 26  1  0  0  0
  5 23  1  0  0  0
  5 27  1  0  0  0
  6 22  1  0  0  0
  6 30  1  0  0  0
  7 25  1  0  0  0
  7 31  1  0  0  0
  8  9  1  0  0  0
  8 13  1  0  0  0
  9 11  1  0  0  0
  9 12  1  0  0  0
 10  8  1  0  0  0
 10 14  1  0  0  0
 12 15  1  0  0  0
 14 16  2  0  0  0
 14 17  1  0  0  0
 15 18  2  0  0  0
 15 19  1  0  0  0
 16 20  1  0  0  0
 17 21  2  0  0  0
 18 23  1  0  0  0
 19 24  2  0  0  0
 20 22  2  0  0  0
 21 22  1  0  0  0
 23 25  2  0  0  0
 24 25  1  0  0  0
M  END
>  <CHROM.0>
-53.69856667,-177.36080771,179.10120289

>  <CHROM.1>
61.44642722,-179.26150997,53.07378482,-114.42889833,163.43068134,117.54111543
63.64316462,105.35773647,-8.66282147,13.97644505,-48.07736855,-1.86750585
17.24103592,0.29768108,0.36077025,1.49261972

>  <HEADER>
                                                                          

>  <MASTER>
        0    0    0    0    0    0    0    0   51    0   51    0          

>  <Name>
Berchemol.pdb

>  <RI>
-1.07356e+09

>  <Rbt.Current_Directory>
/root/miniconda3/envs/rdock/share/rxdock-2013.1.1_148c5bd1-0/data/ligands/prepped_ligands/Berchemol

>  <Rbt.Executable>
rbdock/0.1.0

>  <Rbt.Library>
librxdock.so/0.1.0

>  <Rbt.Parameter_File>
/root/miniconda3/envs/rdock/share/rxdock-2013.1.1_148c5bd1-0/data/scripts/dock.prm

>  <Rbt.Receptor>
def.prm

>  <SCORE>
-14.8097

>  <SCORE.INTER>
-13.0595

>  <SCORE.INTER.CONST>
1

>  <SCORE.INTER.POLAR>
-1.83162

>  <SCORE.INTER.REPUL>
0.0825183

>  <SCORE.INTER.ROT>
6

>  <SCORE.INTER.VDW>
-18.6446

>  <SCORE.INTER.norm>
-0.483684

>  <SCORE.INTRA>
-0.722626

>  <SCORE.INTRA.DIHEDRAL>
3.69106

>  <SCORE.INTRA.DIHEDRAL.0>
13.6736

>  <SCORE.INTRA.POLAR>
0.0955695

>  <SCORE.INTRA.POLAR.0>
-0.0955695

>  <SCORE.INTRA.REPUL>
0

>  <SCORE.INTRA.REPUL.0>
0

>  <SCORE.INTRA.VDW>
-2.89309

>  <SCORE.INTRA.VDW.0>
2.01328

>  <SCORE.INTRA.norm>
-0.0267639

>  <SCORE.RESTR>
0

>  <SCORE.RESTR.CAVITY>
0

>  <SCORE.RESTR.norm>
0

>  <SCORE.SYSTEM>
-1.02766

>  <SCORE.SYSTEM.CONST>
0

>  <SCORE.SYSTEM.DIHEDRAL>
0.129756

>  <SCORE.SYSTEM.VDW>
-1.09254

>  <SCORE.SYSTEM.norm>
-0.0380614

>  <SCORE.heavy>
27

>  <SCORE.norm>
-0.548509

>  <TITLE>
    14521044_D                                                            

$$$$
Berchemol.pdb
  RxDock  02242110283D
librxdock.so/0.1.0
 31 33  0  0  0  0  0  0  0  0999 V2000
  -49.3095   -4.6776   14.7672 O   0  0  0  0  0  0
  -49.8103   -1.7321   14.3417 O   0  0  0  0  0  0
  -49.7109   -0.7580   16.9320 O   0  0  0  0  0  0
  -45.1394   -2.3304   18.2743 O   0  0  0  0  0  0
  -52.8241   -3.5805   20.3238 O   0  0  0  0  0  0
  -43.8413   -1.7301   15.9518 O   0  0  0  0  0  0
  -52.5703   -6.3489   20.4325 O   0  0  0  0  0  0
  -50.2750   -2.6229   15.3691 C   0  0  0  0  0  0
  -51.3780   -3.5120   14.7291 C   0  0  0  0  0  0
  -49.1607   -3.6299   15.7328 C   0  0  0  0  0  0
  -50.7113   -4.8920   14.5577 C   0  0  0  0  0  0
  -52.7325   -3.6707   15.4623 C   0  0  0  0  0  0
  -50.6813   -1.7577   16.5848 C   0  0  0  0  0  0
  -47.7286   -3.1142   15.8270 C   0  0  0  0  0  0
  -52.6868   -4.3830   16.8061 C   0  0  0  0  0  0
  -47.0928   -2.9497   17.0406 C   0  0  0  0  0  0
  -47.0542   -2.8138   14.6653 C   0  0  0  0  0  0
  -52.7892   -3.6667   17.9793 C   0  0  0  0  0  0
  -52.5461   -5.7512   16.8547 C   0  0  0  0  0  0
  -45.7891   -2.4913   17.1085 C   0  0  0  0  0  0
  -45.7588   -2.3512   14.7148 C   0  0  0  0  0  0
  -45.1266   -2.1880   15.9261 C   0  0  0  0  0  0
  -52.7338   -4.3046   19.2013 C   0  0  0  0  0  0
  -52.5022   -6.4022   18.0679 C   0  0  0  0  0  0
  -52.5988   -5.6874   19.2408 C   0  0  0  0  0  0
  -44.8897   -0.9921   18.7542 C   0  0  0  0  0  0
  -54.0448   -2.8426   20.5368 C   0  0  0  0  0  0
  -49.4845   -2.2397   13.5376 H   0  0  0  0  0  0
  -48.8369   -1.1709   17.2099 H   0  0  0  0  0  0
  -43.3653   -1.9953   16.7962 H   0  0  0  0  0  0
  -52.5624   -5.7118   21.2105 H   0  0  0  0  0  0
  1 10  1  0  0  0
  1 11  1  0  0  0
  2  8  1  0  0  0
  2 28  1  0  0  0
  3 13  1  0  0  0
  3 29  1  0  0  0
  4 20  1  0  0  0
  4 26  1  0  0  0
  5 23  1  0  0  0
  5 27  1  0  0  0
  6 22  1  0  0  0
  6 30  1  0  0  0
  7 25  1  0  0  0
  7 31  1  0  0  0
  8  9  1  0  0  0
  8 13  1  0  0  0
  9 11  1  0  0  0
  9 12  1  0  0  0
 10  8  1  0  0  0
 10 14  1  0  0  0
 12 15  1  0  0  0
 14 16  2  0  0  0
 14 17  1  0  0  0
 15 18  2  0  0  0
 15 19  1  0  0  0
 16 20  1  0  0  0
 17 21  2  0  0  0
 18 23  1  0  0  0
 19 24  2  0  0  0
 20 22  2  0  0  0
 21 22  1  0  0  0
 23 25  2  0  0  0
 24 25  1  0  0  0
M  END
>  <CHROM.0>
61.87720600,64.42135130,-61.64913975

>  <CHROM.1>
-56.38897208,-62.82357149,-107.88676015,62.00885344,23.02569432,-5.77246977
-46.79060473,-65.14442754,-131.97077914,104.35793972,-49.64986534,-3.33279980
16.93588284,0.29086716,-0.34368544,-1.58120149

>  <HEADER>
                                                                          

>  <MASTER>
        0    0    0    0    0    0    0    0   51    0   51    0          

>  <Name>
Berchemol.pdb

>  <RI>
-1.07356e+09

>  <Rbt.Current_Directory>
/root/miniconda3/envs/rdock/share/rxdock-2013.1.1_148c5bd1-0/data/ligands/prepped_ligands/Berchemol

>  <Rbt.Executable>
rbdock/0.1.0

>  <Rbt.Library>
librxdock.so/0.1.0

>  <Rbt.Parameter_File>
/root/miniconda3/envs/rdock/share/rxdock-2013.1.1_148c5bd1-0/data/scripts/dock.prm

>  <Rbt.Receptor>
def.prm

>  <SCORE>
-13.8034

>  <SCORE.INTER>
-8.03484

>  <SCORE.INTER.CONST>
1

>  <SCORE.INTER.POLAR>
-0.37239

>  <SCORE.INTER.REPUL>
0

>  <SCORE.INTER.ROT>
6

>  <SCORE.INTER.VDW>
-18.1687

>  <SCORE.INTER.norm>
-0.297587

>  <SCORE.INTRA>
-4.76222

>  <SCORE.INTRA.DIHEDRAL>
-2.54628

>  <SCORE.INTRA.DIHEDRAL.0>
13.6736

>  <SCORE.INTRA.POLAR>
0.0465188

>  <SCORE.INTRA.POLAR.0>
-0.0955695

>  <SCORE.INTRA.REPUL>
0

>  <SCORE.INTRA.REPUL.0>
0

>  <SCORE.INTRA.VDW>
-3.64724

>  <SCORE.INTRA.VDW.0>
2.01328

>  <SCORE.INTRA.norm>
-0.176378

>  <SCORE.RESTR>
0

>  <SCORE.RESTR.CAVITY>
0

>  <SCORE.RESTR.norm>
0

>  <SCORE.SYSTEM>
-1.00637

>  <SCORE.SYSTEM.CONST>
0

>  <SCORE.SYSTEM.DIHEDRAL>
0.11159

>  <SCORE.SYSTEM.VDW>
-1.06216

>  <SCORE.SYSTEM.norm>
-0.0372729

>  <SCORE.heavy>
27

>  <SCORE.norm>
-0.511238

>  <TITLE>
    14521044_D                                                            

$$$$
Berchemol.pdb
  RxDock  02242110283D
librxdock.so/0.1.0
 31 33  0  0  0  0  0  0  0  0999 V2000
  -48.3829   -3.2406   14.9767 O   0  0  0  0  0  0
  -48.1556   -3.2388   17.9860 O   0  0  0  0  0  0
  -49.3138   -0.9281   18.7862 O   0  0  0  0  0  0
  -52.8646   -2.8006   18.9873 O   0  0  0  0  0  0
  -44.6715   -1.3910   20.9739 O   0  0  0  0  0  0
  -54.2674   -4.1786   17.0970 O   0  0  0  0  0  0
  -44.2389    1.3549   21.0892 O   0  0  0  0  0  0
  -48.0330   -2.1674   17.0363 C   0  0  0  0  0  0
  -46.6559   -2.3416   16.3361 C   0  0  0  0  0  0
  -49.0516   -2.3636   15.8908 C   0  0  0  0  0  0
  -47.0021   -2.8590   14.9252 C   0  0  0  0  0  0
  -45.7087   -1.1214   16.2303 C   0  0  0  0  0  0
  -48.2772   -0.8429   17.7964 C   0  0  0  0  0  0
  -50.4536   -2.8442   16.2500 C   0  0  0  0  0  0
  -45.3159   -0.4630   17.5445 C   0  0  0  0  0  0
  -51.0118   -2.5992   17.4880 C   0  0  0  0  0  0
  -51.1802   -3.5340   15.3063 C   0  0  0  0  0  0
  -45.1528   -1.2216   18.6837 C   0  0  0  0  0  0
  -45.1176    0.8979   17.5996 C   0  0  0  0  0  0
  -52.2896   -3.0324   17.7946 C   0  0  0  0  0  0
  -52.4506   -3.9773   15.5965 C   0  0  0  0  0  0
  -53.0055   -3.7318   16.8315 C   0  0  0  0  0  0
  -44.8110   -0.6292   19.8818 C   0  0  0  0  0  0
  -44.7636    1.5007   18.7865 C   0  0  0  0  0  0
  -44.6057    0.7448   19.9266 C   0  0  0  0  0  0
  -52.9494   -3.8800   19.9419 C   0  0  0  0  0  0
  -43.3450   -1.5167   21.5258 C   0  0  0  0  0  0
  -48.0200   -4.1332   17.5477 H   0  0  0  0  0  0
  -49.0963   -1.6102   19.4926 H   0  0  0  0  0  0
  -54.7697   -4.4052   16.2567 H   0  0  0  0  0  0
  -44.1160    2.3454   20.9659 H   0  0  0  0  0  0
  1 10  1  0  0  0
  1 11  1  0  0  0
  2  8  1  0  0  0
  2 28  1  0  0  0
  3 13  1  0  0  0
  3 29  1  0  0  0
  4 20  1  0  0  0
  4 26  1  0  0  0
  5 23  1  0  0  0
  5 27  1  0  0  0
  6 22  1  0  0  0
  6 30  1  0  0  0
  7 25  1  0  0  0
  7 31  1  0  0  0
  8  9  1  0  0  0
  8 13  1  0  0  0
  9 11  1  0  0  0
  9 12  1  0  0  0
 10  8  1  0  0  0
 10 14  1  0  0  0
 12 15  1  0  0  0
 14 16  2  0  0  0
 14 17  1  0  0  0
 15 18  2  0  0  0
 15 19  1  0  0  0
 16 20  1  0  0  0
 17 21  2  0  0  0
 18 23  1  0  0  0
 19 24  2  0  0  0
 20 22  2  0  0  0
 21 22  1  0  0  0
 23 25  2  0  0  0
 24 25  1  0  0  0
M  END
>  <CHROM.0>
72.31980740,179.94686221,-25.68413930

>  <CHROM.1>
-54.24338540,60.60719750,-103.72740925,112.66264432,162.27232702,179.26905096
-38.64792350,57.52642060,148.22582157,34.18657523,-48.28889594,-1.88782342
17.89101166,-2.77103337,0.34507157,1.34760034

>  <HEADER>
                                                                          

>  <MASTER>
        0    0    0    0    0    0    0    0   51    0   51    0          

>  <Name>
Berchemol.pdb

>  <RI>
-1.07356e+09

>  <Rbt.Current_Directory>
/root/miniconda3/envs/rdock/share/rxdock-2013.1.1_148c5bd1-0/data/ligands/prepped_ligands/Berchemol

>  <Rbt.Executable>
rbdock/0.1.0

>  <Rbt.Library>
librxdock.so/0.1.0

>  <Rbt.Parameter_File>
/root/miniconda3/envs/rdock/share/rxdock-2013.1.1_148c5bd1-0/data/scripts/dock.prm

>  <Rbt.Receptor>
def.prm

>  <SCORE>
-7.66808

>  <SCORE.INTER>
-5.04079

>  <SCORE.INTER.CONST>
1

>  <SCORE.INTER.POLAR>
-0.815947

>  <SCORE.INTER.REPUL>
0.166802

>  <SCORE.INTER.ROT>
6

>  <SCORE.INTER.VDW>
-14.5006

>  <SCORE.INTER.norm>
-0.186696

>  <SCORE.INTRA>
-3.34674

>  <SCORE.INTRA.DIHEDRAL>
-1.66575

>  <SCORE.INTRA.DIHEDRAL.0>
13.6736

>  <SCORE.INTRA.POLAR>
0.0955695

>  <SCORE.INTRA.POLAR.0>
-0.0955695

>  <SCORE.INTRA.REPUL>
0

>  <SCORE.INTRA.REPUL.0>
0

>  <SCORE.INTRA.VDW>
-2.8388

>  <SCORE.INTRA.VDW.0>
2.01328

>  <SCORE.INTRA.norm>
-0.123953

>  <SCORE.RESTR>
0

>  <SCORE.RESTR.CAVITY>
0

>  <SCORE.RESTR.norm>
0

>  <SCORE.SYSTEM>
0.719449

>  <SCORE.SYSTEM.CONST>
0

>  <SCORE.SYSTEM.DIHEDRAL>
2.54139

>  <SCORE.SYSTEM.POLAR>
-0.00812874

>  <SCORE.SYSTEM.VDW>
-0.523608

>  <SCORE.SYSTEM.norm>
0.0266462

>  <SCORE.heavy>
27

>  <SCORE.norm>
-0.284003

>  <TITLE>
    14521044_D                                                            

$$$$
Berchemol.pdb
  RxDock  02242110283D
librxdock.so/0.1.0
 31 33  0  0  0  0  0  0  0  0999 V2000
  -49.2965   -3.0886   17.5510 O   0  0  0  0  0  0
  -50.0861   -4.5119   15.0097 O   0  0  0  0  0  0
  -52.1785   -2.8319   14.1604 O   0  0  0  0  0  0
  -50.0111    1.3531   13.6084 O   0  0  0  0  0  0
  -55.9165   -6.4549   15.0149 O   0  0  0  0  0  0
  -47.5081    0.6539   12.7802 O   0  0  0  0  0  0
  -55.2806   -9.1512   15.2718 O   0  0  0  0  0  0
  -50.8912   -3.8869   16.0227 C   0  0  0  0  0  0
  -50.8790   -4.8342   17.2554 C   0  0  0  0  0  0
  -50.1883   -2.6105   16.5371 C   0  0  0  0  0  0
  -49.9666   -4.1267   18.2778 C   0  0  0  0  0  0
  -52.2234   -5.2117   17.9244 C   0  0  0  0  0  0
  -52.2659   -3.5663   15.3911 C   0  0  0  0  0  0
  -49.4952   -1.7116   15.5186 C   0  0  0  0  0  0
  -53.0547   -6.2658   17.2082 C   0  0  0  0  0  0
  -50.0998   -0.5759   15.0199 C   0  0  0  0  0  0
  -48.2283   -2.0435   15.0949 C   0  0  0  0  0  0
  -54.1170   -5.8945   16.4123 C   0  0  0  0  0  0
  -52.7451   -7.5993   17.3506 C   0  0  0  0  0  0
  -49.4530    0.2354   14.1046 C   0  0  0  0  0  0
  -47.5726   -1.2508   14.1804 C   0  0  0  0  0  0
  -48.1773   -0.1186   13.6845 C   0  0  0  0  0  0
  -54.8838   -6.8459   15.7718 C   0  0  0  0  0  0
  -53.4946   -8.5589   16.7065 C   0  0  0  0  0  0
  -54.5594   -8.1898   15.9154 C   0  0  0  0  0  0
  -50.0644    1.5293   12.1767 C   0  0  0  0  0  0
  -57.1882   -6.2809   15.6725 C   0  0  0  0  0  0
  -50.0062   -3.9288   14.1948 H   0  0  0  0  0  0
  -53.0880   -2.6556   13.7688 H   0  0  0  0  0  0
  -46.6935    0.1888   12.4195 H   0  0  0  0  0  0
  -55.0624  -10.0709   15.6150 H   0  0  0  0  0  0
  1 10  1  0  0  0
  1 11  1  0  0  0
  2  8  1  0  0  0
  2 28  1  0  0  0
  3 13  1  0  0  0
  3 29  1  0  0  0
  4 20  1  0  0  0
  4 26  1  0  0  0
  5 23  1  0  0  0
  5 27  1  0  0  0
  6 22  1  0  0  0
  6 30  1  0  0  0
  7 25  1  0  0  0
  7 31  1  0  0  0
  8  9  1  0  0  0
  8 13  1  0  0  0
  9 11  1  0  0  0
  9 12  1  0  0  0
 10  8  1  0  0  0
 10 14  1  0  0  0
 12 15  1  0  0  0
 14 16  2  0  0  0
 14 17  1  0  0  0
 15 18  2  0  0  0
 15 19  1  0  0  0
 16 20  1  0  0  0
 17 21  2  0  0  0
 18 23  1  0  0  0
 19 24  2  0  0  0
 20 22  2  0  0  0
 21 22  1  0  0  0
 23 25  2  0  0  0
 24 25  1  0  0  0
M  END
>  <CHROM.0>
-60.01071946,64.73775338,-82.73693530

>  <CHROM.1>
-176.88063940,178.93616284,-127.63074076,-87.86121992,-167.81191547,-167.97457614
-52.08515515,77.61795604,-139.90953433,-99.75845075,-51.49443669,-3.74499494
15.47980677,-0.82681749,0.47086316,2.44884951

>  <HEADER>
                                                                          

>  <MASTER>
        0    0    0    0    0    0    0    0   51    0   51    0          

>  <Name>
Berchemol.pdb

>  <RI>
-1.07356e+09

>  <Rbt.Current_Directory>
/root/miniconda3/envs/rdock/share/rxdock-2013.1.1_148c5bd1-0/data/ligands/prepped_ligands/Berchemol

>  <Rbt.Executable>
rbdock/0.1.0

>  <Rbt.Library>
librxdock.so/0.1.0

>  <Rbt.Parameter_File>
/root/miniconda3/envs/rdock/share/rxdock-2013.1.1_148c5bd1-0/data/scripts/dock.prm

>  <Rbt.Receptor>
def.prm

>  <SCORE>
-19.9639

>  <SCORE.INTER>
-15.8269

>  <SCORE.INTER.CONST>
1

>  <SCORE.INTER.POLAR>
-2.64108

>  <SCORE.INTER.REPUL>
0.164941

>  <SCORE.INTER.ROT>
6

>  <SCORE.INTER.VDW>
-19.072

>  <SCORE.INTER.norm>
-0.586182

>  <SCORE.INTRA>
-3.76435

>  <SCORE.INTRA.DIHEDRAL>
-2.65003

>  <SCORE.INTRA.DIHEDRAL.0>
13.6736

>  <SCORE.INTRA.POLAR>
0.0899011

>  <SCORE.INTRA.POLAR.0>
-0.0955695

>  <SCORE.INTRA.REPUL>
0

>  <SCORE.INTRA.REPUL.0>
0

>  <SCORE.INTRA.VDW>
-2.745

>  <SCORE.INTRA.VDW.0>
2.01328

>  <SCORE.INTRA.norm>
-0.13942

>  <SCORE.RESTR>
0

>  <SCORE.RESTR.CAVITY>
0

>  <SCORE.RESTR.norm>
0

>  <SCORE.SYSTEM>
-0.372611

>  <SCORE.SYSTEM.CONST>
0

>  <SCORE.SYSTEM.DIHEDRAL>
1.25666

>  <SCORE.SYSTEM.VDW>
-1.00094

>  <SCORE.SYSTEM.norm>
-0.0138004

>  <SCORE.heavy>
27

>  <SCORE.norm>
-0.739403

>  <TITLE>
    14521044_D                                                            

$$$$
Berchemol.pdb
  RxDock  02242110283D
librxdock.so/0.1.0
 31 33  0  0  0  0  0  0  0  0999 V2000
  -50.8094   -2.3077   13.9821 O   0  0  0  0  0  0
  -48.6131   -4.0226   15.1412 O   0  0  0  0  0  0
  -49.2317   -3.5226   17.9103 O   0  0  0  0  0  0
  -54.9047   -5.0236   16.1549 O   0  0  0  0  0  0
  -45.0045    0.0310   18.9138 O   0  0  0  0  0  0
  -53.5544   -7.3135   16.7657 O   0  0  0  0  0  0
  -42.8841   -1.1408   17.5457 O   0  0  0  0  0  0
  -49.1075   -2.7346   15.5434 C   0  0  0  0  0  0
  -48.5739   -1.7043   14.5087 C   0  0  0  0  0  0
  -50.6403   -2.6797   15.3551 C   0  0  0  0  0  0
  -49.8070   -1.3352   13.6592 C   0  0  0  0  0  0
  -47.8841   -0.4160   15.0204 C   0  0  0  0  0  0
  -48.7063   -2.5243   17.0220 C   0  0  0  0  0  0
  -51.4560   -3.9103   15.7371 C   0  0  0  0  0  0
  -46.5401   -0.6044   15.7083 C   0  0  0  0  0  0
  -52.8351   -3.8852   15.7783 C   0  0  0  0  0  0
  -50.7927   -5.0775   16.0405 C   0  0  0  0  0  0
  -46.3661   -0.2141   17.0188 C   0  0  0  0  0  0
  -45.4899   -1.1710   15.0223 C   0  0  0  0  0  0
  -53.5611   -5.0136   16.1160 C   0  0  0  0  0  0
  -51.4990   -6.2078   16.3842 C   0  0  0  0  0  0
  -52.8741   -6.1806   16.4245 C   0  0  0  0  0  0
  -45.1460   -0.3686   17.6439 C   0  0  0  0  0  0
  -44.2700   -1.3427   15.6384 C   0  0  0  0  0  0
  -44.0931   -0.9484   16.9458 C   0  0  0  0  0  0
  -55.6218   -5.8907   15.2507 C   0  0  0  0  0  0
  -44.8327   -0.9945   19.9132 C   0  0  0  0  0  0
  -48.8078   -4.2025   14.1715 H   0  0  0  0  0  0
  -50.2310   -3.4510   17.9984 H   0  0  0  0  0  0
  -53.0965   -8.1420   16.4285 H   0  0  0  0  0  0
  -42.7181   -2.1128   17.7428 H   0  0  0  0  0  0
  1 10  1  0  0  0
  1 11  1  0  0  0
  2  8  1  0  0  0
  2 28  1  0  0  0
  3 13  1  0  0  0
  3 29  1  0  0  0
  4 20  1  0  0  0
  4 26  1  0  0  0
  5 23  1  0  0  0
  5 27  1  0  0  0
  6 22  1  0  0  0
  6 30  1  0  0  0
  7 25  1  0  0  0
  7 31  1  0  0  0
  8  9  1  0  0  0
  8 13  1  0  0  0
  9 11  1  0  0  0
  9 12  1  0  0  0
 10  8  1  0  0  0
 10 14  1  0  0  0
 12 15  1  0  0  0
 14 16  2  0  0  0
 14 17  1  0  0  0
 15 18  2  0  0  0
 15 19  1  0  0  0
 16 20  1  0  0  0
 17 21  2  0  0  0
 18 23  1  0  0  0
 19 24  2  0  0  0
 20 22  2  0  0  0
 21 22  1  0  0  0
 23 25  2  0  0  0
 24 25  1  0  0  0
M  END
>  <CHROM.0>
177.78553766,65.89469330,155.45010412

>  <CHROM.1>
-50.90323465,-68.47033508,117.24693716,110.76440057,144.90842993,107.59261048
-59.38479472,68.11783960,-67.65809586,-119.67130752,-49.09749982,-2.87391526
16.22426703,3.00219808,0.49945411,2.13137440

>  <HEADER>
                                                                          

>  <MASTER>
        0    0    0    0    0    0    0    0   51    0   51    0          

>  <Name>
Berchemol.pdb

>  <RI>
-1.07356e+09

>  <Rbt.Current_Directory>
/root/miniconda3/envs/rdock/share/rxdock-2013.1.1_148c5bd1-0/data/ligands/prepped_ligands/Berchemol

>  <Rbt.Executable>
rbdock/0.1.0

>  <Rbt.Library>
librxdock.so/0.1.0

>  <Rbt.Parameter_File>
/root/miniconda3/envs/rdock/share/rxdock-2013.1.1_148c5bd1-0/data/scripts/dock.prm

>  <Rbt.Receptor>
def.prm

>  <SCORE>
-15.5959

>  <SCORE.INTER>
-14.3118

>  <SCORE.INTER.CONST>
1

>  <SCORE.INTER.POLAR>
-1.54651

>  <SCORE.INTER.REPUL>
0.0107026

>  <SCORE.INTER.ROT>
6

>  <SCORE.INTER.VDW>
-20.5072

>  <SCORE.INTER.norm>
-0.530066

>  <SCORE.INTRA>
-1.08657

>  <SCORE.INTRA.DIHEDRAL>
2.39528

>  <SCORE.INTRA.DIHEDRAL.0>
13.6736

>  <SCORE.INTRA.POLAR>
0.0955695

>  <SCORE.INTRA.POLAR.0>
-0.0955695

>  <SCORE.INTRA.REPUL>
0

>  <SCORE.INTRA.REPUL.0>
0

>  <SCORE.INTRA.VDW>
-2.60915

>  <SCORE.INTRA.VDW.0>
2.01328

>  <SCORE.INTRA.norm>
-0.0402434

>  <SCORE.RESTR>
0.00528244

>  <SCORE.RESTR.CAVITY>
0.00528244

>  <SCORE.RESTR.norm>
0.000195646

>  <SCORE.SYSTEM>
-0.202852

>  <SCORE.SYSTEM.CONST>
0

>  <SCORE.SYSTEM.DIHEDRAL>
1.49218

>  <SCORE.SYSTEM.VDW>
-0.948944

>  <SCORE.SYSTEM.norm>
-0.00751302

>  <SCORE.heavy>
27

>  <SCORE.norm>
-0.577626

>  <TITLE>
    14521044_D                                                            

$$$$
Berchemol.pdb
  RxDock  02242110283D
librxdock.so/0.1.0
 31 33  0  0  0  0  0  0  0  0999 V2000
  -48.5557   -1.9553   18.4815 O   0  0  0  0  0  0
  -48.0346   -4.8589   17.8451 O   0  0  0  0  0  0
  -50.4387   -3.6731   15.2849 O   0  0  0  0  0  0
  -43.4941   -2.6711   17.8471 O   0  0  0  0  0  0
  -51.0824   -8.7307   18.3102 O   0  0  0  0  0  0
  -43.0997   -2.1413   15.2007 O   0  0  0  0  0  0
  -53.3723   -9.1211   16.7790 O   0  0  0  0  0  0
  -49.0040   -3.9420   17.3117 C   0  0  0  0  0  0
  -50.0979   -3.7591   18.4011 C   0  0  0  0  0  0
  -48.3787   -2.5346   17.1834 C   0  0  0  0  0  0
  -49.8443   -2.3488   18.9711 C   0  0  0  0  0  0
  -51.5866   -3.9037   18.0006 C   0  0  0  0  0  0
  -49.4576   -4.4921   15.9395 C   0  0  0  0  0  0
  -46.9424   -2.4292   16.6818 C   0  0  0  0  0  0
  -52.0582   -5.3131   17.6743 C   0  0  0  0  0  0
  -45.8630   -2.5934   17.5256 C   0  0  0  0  0  0
  -46.7232   -2.1707   15.3477 C   0  0  0  0  0  0
  -51.3673   -6.4074   18.1488 C   0  0  0  0  0  0
  -53.1832   -5.5007   16.9039 C   0  0  0  0  0  0
  -44.5657   -2.5058   17.0526 C   0  0  0  0  0  0
  -45.4392   -2.0745   14.8614 C   0  0  0  0  0  0
  -44.3643   -2.2387   15.7046 C   0  0  0  0  0  0
  -51.7810   -7.6879   17.8446 C   0  0  0  0  0  0
  -53.6145   -6.7739   16.6032 C   0  0  0  0  0  0
  -52.9223   -7.8680   17.0719 C   0  0  0  0  0  0
  -42.8557   -1.5043   18.4081 C   0  0  0  0  0  0
  -49.6681   -8.7561   18.0292 C   0  0  0  0  0  0
  -48.4236   -5.7793   17.9549 H   0  0  0  0  0  0
  -50.1183   -2.7258   15.1775 H   0  0  0  0  0  0
  -42.4066   -2.4325   15.8676 H   0  0  0  0  0  0
  -53.8871   -9.1381   15.9153 H   0  0  0  0  0  0
  1 10  1  0  0  0
  1 11  1  0  0  0
  2  8  1  0  0  0
  2 28  1  0  0  0
  3 13  1  0  0  0
  3 29  1  0  0  0
  4 20  1  0  0  0
  4 26  1  0  0  0
  5 23  1  0  0  0
  5 27  1  0  0  0
  6 22  1  0  0  0
  6 30  1  0  0  0
  7 25  1  0  0  0
  7 31  1  0  0  0
  8  9  1  0  0  0
  8 13  1  0  0  0
  9 11  1  0  0  0
  9 12  1  0  0  0
 10  8  1  0  0  0
 10 14  1  0  0  0
 12 15  1  0  0  0
 14 16  2  0  0  0
 14 17  1  0  0  0
 15 18  2  0  0  0
 15 19  1  0  0  0
 16 20  1  0  0  0
 17 21  2  0  0  0
 18 23  1  0  0  0
 19 24  2  0  0  0
 20 22  2  0  0  0
 21 22  1  0  0  0
 23 25  2  0  0  0
 24 25  1  0  0  0
M  END
>  <CHROM.0>
36.41897939,-175.44849460,-178.27066233

>  <CHROM.1>
67.12796103,55.53185174,-95.70045245,-53.69432479,9.53803363,-152.89932002
179.79948152,71.12462664,38.51112574,21.71953502,-48.76259488,-4.39411711
17.16757881,0.58814532,0.03148771,-0.07984555

>  <HEADER>
                                                                          

>  <MASTER>
        0    0    0    0    0    0    0    0   51    0   51    0          

>  <Name>
Berchemol.pdb

>  <RI>
-1.07356e+09

>  <Rbt.Current_Directory>
/root/miniconda3/envs/rdock/share/rxdock-2013.1.1_148c5bd1-0/data/ligands/prepped_ligands/Berchemol

>  <Rbt.Executable>
rbdock/0.1.0

>  <Rbt.Library>
librxdock.so/0.1.0

>  <Rbt.Parameter_File>
/root/miniconda3/envs/rdock/share/rxdock-2013.1.1_148c5bd1-0/data/scripts/dock.prm

>  <Rbt.Receptor>
def.prm

>  <SCORE>
-17.9901

>  <SCORE.INTER>
-13.077

>  <SCORE.INTER.CONST>
1

>  <SCORE.INTER.POLAR>
-0.893438

>  <SCORE.INTER.REPUL>
0

>  <SCORE.INTER.ROT>
6

>  <SCORE.INTER.VDW>
-21.4393

>  <SCORE.INTER.norm>
-0.484334

>  <SCORE.INTRA>
-4.64221

>  <SCORE.INTRA.DIHEDRAL>
-2.61412

>  <SCORE.INTRA.DIHEDRAL.0>
13.6736

>  <SCORE.INTRA.POLAR>
0.0864696

>  <SCORE.INTRA.POLAR.0>
-0.0955695

>  <SCORE.INTRA.REPUL>
0

>  <SCORE.INTRA.REPUL.0>
0

>  <SCORE.INTRA.VDW>
-3.62915

>  <SCORE.INTRA.VDW.0>
2.01328

>  <SCORE.INTRA.norm>
-0.171934

>  <SCORE.RESTR>
0

>  <SCORE.RESTR.CAVITY>
0

>  <SCORE.RESTR.norm>
0

>  <SCORE.SYSTEM>
-0.270852

>  <SCORE.SYSTEM.CONST>
0

>  <SCORE.SYSTEM.DIHEDRAL>
1.32753

>  <SCORE.SYSTEM.POLAR>
-0.00604892

>  <SCORE.SYSTEM.VDW>
-0.914052

>  <SCORE.SYSTEM.norm>
-0.0100316

>  <SCORE.heavy>
27

>  <SCORE.norm>
-0.6663

>  <TITLE>
    14521044_D                                                            

$$$$
Berchemol.pdb
  RxDock  02242110283D
librxdock.so/0.1.0
 31 33  0  0  0  0  0  0  0  0999 V2000
  -49.6006   -2.1445   18.8512 O   0  0  0  0  0  0
  -51.2213   -2.8379   16.4016 O   0  0  0  0  0  0
  -49.3956   -4.8237   15.3691 O   0  0  0  0  0  0
  -49.2950   -8.1031   18.7101 O   0  0  0  0  0  0
  -44.4184   -0.6036   18.5652 O   0  0  0  0  0  0
  -51.8086   -7.9981   19.7641 O   0  0  0  0  0  0
  -43.1649   -2.3073   16.7578 O   0  0  0  0  0  0
  -49.8039   -2.6731   16.5718 C   0  0  0  0  0  0
  -49.5401   -1.1462   16.6975 C   0  0  0  0  0  0
  -49.3729   -3.2317   17.9467 C   0  0  0  0  0  0
  -49.2200   -0.9306   18.1906 C   0  0  0  0  0  0
  -48.4349   -0.5019   15.8251 C   0  0  0  0  0  0
  -49.1070   -3.4178   15.4093 C   0  0  0  0  0  0
  -50.0036   -4.5362   18.4223 C   0  0  0  0  0  0
  -47.0140   -0.9806   16.0836 C   0  0  0  0  0  0
  -49.3389   -5.7419   18.3302 C   0  0  0  0  0  0
  -51.2681   -4.5021   18.9649 C   0  0  0  0  0  0
  -46.3425   -0.5904   17.2224 C   0  0  0  0  0  0
  -46.3929   -1.8114   15.1790 C   0  0  0  0  0  0
  -49.9207   -6.9152   18.7767 C   0  0  0  0  0  0
  -51.8643   -5.6607   19.4086 C   0  0  0  0  0  0
  -51.1995   -6.8620   19.3160 C   0  0  0  0  0  0
  -45.0488   -1.0090   17.4558 C   0  0  0  0  0  0
  -45.1060   -2.2470   15.4059 C   0  0  0  0  0  0
  -44.4320   -1.8537   16.5403 C   0  0  0  0  0  0
  -49.2133   -8.7774   17.4364 C   0  0  0  0  0  0
  -43.6608    0.6208   18.4837 C   0  0  0  0  0  0
  -51.5368   -2.4243   15.5415 H   0  0  0  0  0  0
  -50.3806   -4.9968   15.2627 H   0  0  0  0  0  0
  -52.5479   -7.7961   20.4142 H   0  0  0  0  0  0
  -42.9798   -3.1518   16.2441 H   0  0  0  0  0  0
  1 10  1  0  0  0
  1 11  1  0  0  0
  2  8  1  0  0  0
  2 28  1  0  0  0
  3 13  1  0  0  0
  3 29  1  0  0  0
  4 20  1  0  0  0
  4 26  1  0  0  0
  5 23  1  0  0  0
  5 27  1  0  0  0
  6 22  1  0  0  0
  6 30  1  0  0  0
  7 25  1  0  0  0
  7 31  1  0  0  0
  8  9  1  0  0  0
  8 13  1  0  0  0
  9 11  1  0  0  0
  9 12  1  0  0  0
 10  8  1  0  0  0
 10 14  1  0  0  0
 12 15  1  0  0  0
 14 16  2  0  0  0
 14 17  1  0  0  0
 15 18  2  0  0  0
 15 19  1  0  0  0
 16 20  1  0  0  0
 17 21  2  0  0  0
 18 23  1  0  0  0
 19 24  2  0  0  0
 20 22  2  0  0  0
 21 22  1  0  0  0
 23 25  2  0  0  0
 24 25  1  0  0  0
M  END
>  <CHROM.0>
59.65956891,-59.44350453,-62.92036745

>  <CHROM.1>
64.27334660,59.88940808,-76.52821190,-90.09776704,159.06665659,157.79815507
-60.16226132,-63.55921614,-137.53465908,-73.29090686,-48.34223238,-3.43530232
17.48899385,2.31794025,-0.02529461,2.89201877

>  <HEADER>
                                                                          

>  <MASTER>
        0    0    0    0    0    0    0    0   51    0   51    0          

>  <Name>
Berchemol.pdb

>  <RI>
-1.07356e+09

>  <Rbt.Current_Directory>
/root/miniconda3/envs/rdock/share/rxdock-2013.1.1_148c5bd1-0/data/ligands/prepped_ligands/Berchemol

>  <Rbt.Executable>
rbdock/0.1.0

>  <Rbt.Library>
librxdock.so/0.1.0

>  <Rbt.Parameter_File>
/root/miniconda3/envs/rdock/share/rxdock-2013.1.1_148c5bd1-0/data/scripts/dock.prm

>  <Rbt.Receptor>
def.prm

>  <SCORE>
-13.4437

>  <SCORE.INTER>
-7.48685

>  <SCORE.INTER.CONST>
1

>  <SCORE.INTER.POLAR>
-0.871321

>  <SCORE.INTER.REPUL>
0

>  <SCORE.INTER.ROT>
6

>  <SCORE.INTER.VDW>
-15.9244

>  <SCORE.INTER.norm>
-0.277291

>  <SCORE.INTRA>
-4.91141

>  <SCORE.INTRA.DIHEDRAL>
-1.51108

>  <SCORE.INTRA.DIHEDRAL.0>
13.6736

>  <SCORE.INTRA.POLAR>
0.0955695

>  <SCORE.INTRA.POLAR.0>
-0.0955695

>  <SCORE.INTRA.REPUL>
0

>  <SCORE.INTRA.REPUL.0>
0

>  <SCORE.INTRA.VDW>
-4.4808

>  <SCORE.INTRA.VDW.0>
2.01328

>  <SCORE.INTRA.norm>
-0.181904

>  <SCORE.RESTR>
0

>  <SCORE.RESTR.CAVITY>
0

>  <SCORE.RESTR.norm>
0

>  <SCORE.SYSTEM>
-1.04542

>  <SCORE.SYSTEM.CONST>
0

>  <SCORE.SYSTEM.DIHEDRAL>
0.0256404

>  <SCORE.SYSTEM.VDW>
-1.05824

>  <SCORE.SYSTEM.norm>
-0.0387192

>  <SCORE.heavy>
27

>  <SCORE.norm>
-0.497914

>  <TITLE>
    14521044_D                                                            

$$$$
Berchemol.pdb
  RxDock  02242110283D
librxdock.so/0.1.0
 31 33  0  0  0  0  0  0  0  0999 V2000
  -47.4355   -3.6143   17.9982 O   0  0  0  0  0  0
  -46.3671   -3.3946   15.1843 O   0  0  0  0  0  0
  -46.5902   -0.6969   14.6681 O   0  0  0  0  0  0
  -43.8858    1.1204   18.4961 O   0  0  0  0  0  0
  -51.5789   -7.5944   17.3516 O   0  0  0  0  0  0
  -41.8454   -0.6880   18.4183 O   0  0  0  0  0  0
  -54.0826   -7.2597   16.1854 O   0  0  0  0  0  0
  -47.4695   -2.7296   15.8228 C   0  0  0  0  0  0
  -48.6157   -3.7728   15.9438 C   0  0  0  0  0  0
  -47.1098   -2.4115   17.2916 C   0  0  0  0  0  0
  -48.6459   -4.1424   17.4407 C   0  0  0  0  0  0
  -50.0375   -3.3831   15.4703 C   0  0  0  0  0  0
  -47.7660   -1.4437   15.0166 C   0  0  0  0  0  0
  -45.7008   -1.9130   17.5949 C   0  0  0  0  0  0
  -51.1199   -4.4344   15.6663 C   0  0  0  0  0  0
  -45.4466   -0.5916   17.9008 C   0  0  0  0  0  0
  -44.6592   -2.8124   17.5687 C   0  0  0  0  0  0
  -50.8767   -5.5510   16.4371 C   0  0  0  0  0  0
  -52.3520   -4.2714   15.0750 C   0  0  0  0  0  0
  -44.1639   -0.1574   18.1846 C   0  0  0  0  0  0
  -43.3761   -2.3963   17.8428 C   0  0  0  0  0  0
  -43.1248   -1.0783   18.1478 C   0  0  0  0  0  0
  -51.8488   -6.5151   16.6070 C   0  0  0  0  0  0
  -53.3358   -5.2201   15.2468 C   0  0  0  0  0  0
  -53.0926   -6.3387   16.0120 C   0  0  0  0  0  0
  -44.6333    1.7587   19.5531 C   0  0  0  0  0  0
  -51.6342   -7.4385   18.7843 C   0  0  0  0  0  0
  -46.6621   -3.8742   14.3516 H   0  0  0  0  0  0
  -46.0678   -1.1484   13.9368 H   0  0  0  0  0  0
  -41.2056   -1.4629   18.4030 H   0  0  0  0  0  0
  -53.7531   -8.0697   16.6820 H   0  0  0  0  0  0
  1 10  1  0  0  0
  1 11  1  0  0  0
  2  8  1  0  0  0
  2 28  1  0  0  0
  3 13  1  0  0  0
  3 29  1  0  0  0
  4 20  1  0  0  0
  4 26  1  0  0  0
  5 23  1  0  0  0
  5 27  1  0  0  0
  6 22  1  0  0  0
  6 30  1  0  0  0
  7 25  1  0  0  0
  7 31  1  0  0  0
  8  9  1  0  0  0
  8 13  1  0  0  0
  9 11  1  0  0  0
  9 12  1  0  0  0
 10  8  1  0  0  0
 10 14  1  0  0  0
 12 15  1  0  0  0
 14 16  2  0  0  0
 14 17  1  0  0  0
 15 18  2  0  0  0
 15 19  1  0  0  0
 16 20  1  0  0  0
 17 21  2  0  0  0
 18 23  1  0  0  0
 19 24  2  0  0  0
 20 22  2  0  0  0
 21 22  1  0  0  0
 23 25  2  0  0  0
 24 25  1  0  0  0
M  END
>  <CHROM.0>
-59.65639608,-62.29865086,-59.03787850

>  <CHROM.1>
49.63687038,73.49239122,52.37784946,78.81484520,176.99313925,-6.28675976
-45.14651654,-177.79812664,-132.82655759,11.26655560,-47.98915944,-3.21465589
16.89275090,-0.30343075,0.55240589,2.38101769

>  <HEADER>
                                                                          

>  <MASTER>
        0    0    0    0    0    0    0    0   51    0   51    0          

>  <Name>
Berchemol.pdb

>  <RI>
-1.07356e+09

>  <Rbt.Current_Directory>
/root/miniconda3/envs/rdock/share/rxdock-2013.1.1_148c5bd1-0/data/ligands/prepped_ligands/Berchemol

>  <Rbt.Executable>
rbdock/0.1.0

>  <Rbt.Library>
librxdock.so/0.1.0

>  <Rbt.Parameter_File>
/root/miniconda3/envs/rdock/share/rxdock-2013.1.1_148c5bd1-0/data/scripts/dock.prm

>  <Rbt.Receptor>
def.prm

>  <SCORE>
-18.0535

>  <SCORE.INTER>
-15.1472

>  <SCORE.INTER.CONST>
1

>  <SCORE.INTER.POLAR>
-2.41397

>  <SCORE.INTER.REPUL>
0.30221

>  <SCORE.INTER.ROT>
6

>  <SCORE.INTER.VDW>
-19.8507

>  <SCORE.INTER.norm>
-0.561006

>  <SCORE.INTRA>
-1.82602

>  <SCORE.INTRA.DIHEDRAL>
-1.77393

>  <SCORE.INTRA.DIHEDRAL.0>
13.6736

>  <SCORE.INTRA.POLAR>
0.0697517

>  <SCORE.INTRA.POLAR.0>
-0.0955695

>  <SCORE.INTRA.REPUL>
0

>  <SCORE.INTRA.REPUL.0>
0

>  <SCORE.INTRA.VDW>
-1.17622

>  <SCORE.INTRA.VDW.0>
2.01328

>  <SCORE.INTRA.norm>
-0.0676305

>  <SCORE.RESTR>
0

>  <SCORE.RESTR.CAVITY>
0

>  <SCORE.RESTR.norm>
0

>  <SCORE.SYSTEM>
-1.08031

>  <SCORE.SYSTEM.CONST>
0

>  <SCORE.SYSTEM.DIHEDRAL>
0.0277804

>  <SCORE.SYSTEM.POLAR>
-0.00319543

>  <SCORE.SYSTEM.VDW>
-1.08333

>  <SCORE.SYSTEM.norm>
-0.0400113

>  <SCORE.heavy>
27

>  <SCORE.norm>
-0.668648

>  <TITLE>
    14521044_D                                                            

$$$$
Berchemol.pdb
  RxDock  02242110283D
librxdock.so/0.1.0
 31 33  0  0  0  0  0  0  0  0999 V2000
  -51.0135   -2.2127   17.5386 O   0  0  0  0  0  0
  -51.7181   -2.6742   14.6406 O   0  0  0  0  0  0
  -49.6091   -4.5773   14.1080 O   0  0  0  0  0  0
  -50.6567   -7.9981   17.8686 O   0  0  0  0  0  0
  -46.1703   -1.6617   18.9812 O   0  0  0  0  0  0
  -53.2748   -8.1094   17.1116 O   0  0  0  0  0  0
  -44.1870   -2.5751   17.2571 O   0  0  0  0  0  0
  -50.4406   -2.5367   15.2840 C   0  0  0  0  0  0
  -50.2659   -1.0290   15.6206 C   0  0  0  0  0  0
  -50.4764   -3.2178   16.6707 C   0  0  0  0  0  0
  -50.4620   -0.9485   17.1481 C   0  0  0  0  0  0
  -48.9486   -0.3195   15.2222 C   0  0  0  0  0  0
  -49.3828   -3.1817   14.3586 C   0  0  0  0  0  0
  -51.2008   -4.5539   16.7968 C   0  0  0  0  0  0
  -47.6680   -0.9230   15.7799 C   0  0  0  0  0  0
  -50.5678   -5.6824   17.2766 C   0  0  0  0  0  0
  -52.5247   -4.6278   16.4277 C   0  0  0  0  0  0
  -47.4868   -1.0396   17.1414 C   0  0  0  0  0  0
  -46.6835   -1.3597   14.9230 C   0  0  0  0  0  0
  -51.2424   -6.8845   17.3955 C   0  0  0  0  0  0
  -53.2093   -5.8172   16.5339 C   0  0  0  0  0  0
  -52.5763   -6.9412   17.0127 C   0  0  0  0  0  0
  -46.3221   -1.5724   17.6541 C   0  0  0  0  0  0
  -45.5210   -1.9054   15.4212 C   0  0  0  0  0  0
  -45.3363   -2.0175   16.7811 C   0  0  0  0  0  0
  -49.3088   -8.3067   17.4544 C   0  0  0  0  0  0
  -45.1276   -0.8663   19.5813 C   0  0  0  0  0  0
  -51.7181   -2.2444   13.7320 H   0  0  0  0  0  0
  -50.5363   -4.7448   13.7561 H   0  0  0  0  0  0
  -52.7085   -8.8555   17.4759 H   0  0  0  0  0  0
  -44.0554   -3.5091   16.9083 H   0  0  0  0  0  0
  1 10  1  0  0  0
  1 11  1  0  0  0
  2  8  1  0  0  0
  2 28  1  0  0  0
  3 13  1  0  0  0
  3 29  1  0  0  0
  4 20  1  0  0  0
  4 26  1  0  0  0
  5 23  1  0  0  0
  5 27  1  0  0  0
  6 22  1  0  0  0
  6 30  1  0  0  0
  7 25  1  0  0  0
  7 31  1  0  0  0
  8  9  1  0  0  0
  8 13  1  0  0  0
  9 11  1  0  0  0
  9 12  1  0  0  0
 10  8  1  0  0  0
 10 14  1  0  0  0
 12 15  1  0  0  0
 14 16  2  0  0  0
 14 17  1  0  0  0
 15 18  2  0  0  0
 15 19  1  0  0  0
 16 20  1  0  0  0
 17 21  2  0  0  0
 18 23  1  0  0  0
 19 24  2  0  0  0
 20 22  2  0  0  0
 21 22  1  0  0  0
 23 25  2  0  0  0
 24 25  1  0  0  0
M  END
>  <CHROM.0>
-59.81666215,-173.46479549,-177.00315266

>  <CHROM.1>
68.66358643,54.04788672,-41.40835633,-115.01991416,-0.04445336,121.68579641
-60.35439625,-57.35563666,-115.01383774,-58.57688250,-49.30764612,-3.51609883
16.60190538,2.48346219,0.37406205,2.73790664

>  <HEADER>
                                                                          

>  <MASTER>
        0    0    0    0    0    0    0    0   51    0   51    0          

>  <Name>
Berchemol.pdb

>  <RI>
-1.07356e+09

>  <Rbt.Current_Directory>
/root/miniconda3/envs/rdock/share/rxdock-2013.1.1_148c5bd1-0/data/ligands/prepped_ligands/Berchemol

>  <Rbt.Executable>
rbdock/0.1.0

>  <Rbt.Library>
librxdock.so/0.1.0

>  <Rbt.Parameter_File>
/root/miniconda3/envs/rdock/share/rxdock-2013.1.1_148c5bd1-0/data/scripts/dock.prm

>  <Rbt.Receptor>
def.prm

>  <SCORE>
-15.9235

>  <SCORE.INTER>
-10.699

>  <SCORE.INTER.CONST>
1

>  <SCORE.INTER.POLAR>
-1.16748

>  <SCORE.INTER.REPUL>
0.162462

>  <SCORE.INTER.ROT>
6

>  <SCORE.INTER.VDW>
-18.9419

>  <SCORE.INTER.norm>
-0.396261

>  <SCORE.INTRA>
-4.22427

>  <SCORE.INTRA.DIHEDRAL>
-2.38794

>  <SCORE.INTRA.DIHEDRAL.0>
13.6736

>  <SCORE.INTRA.POLAR>
-0.00187875

>  <SCORE.INTRA.POLAR.0>
-0.0955695

>  <SCORE.INTRA.REPUL>
0

>  <SCORE.INTRA.REPUL.0>
0

>  <SCORE.INTRA.VDW>
-3.02392

>  <SCORE.INTRA.VDW.0>
2.01328

>  <SCORE.INTRA.norm>
-0.156454

>  <SCORE.RESTR>
0

>  <SCORE.RESTR.CAVITY>
0

>  <SCORE.RESTR.norm>
0

>  <SCORE.SYSTEM>
-1.00019

>  <SCORE.SYSTEM.CONST>
0

>  <SCORE.SYSTEM.DIHEDRAL>
0.228539

>  <SCORE.SYSTEM.POLAR>
-0.00866507

>  <SCORE.SYSTEM.VDW>
-1.085

>  <SCORE.SYSTEM.norm>
-0.037044

>  <SCORE.heavy>
27

>  <SCORE.norm>
-0.589759

>  <TITLE>
    14521044_D                                                            

$$$$
Berchemol.pdb
  RxDock  02242110283D
librxdock.so/0.1.0
 31 33  0  0  0  0  0  0  0  0999 V2000
  -47.7887   -3.0764   17.3886 O   0  0  0  0  0  0
  -46.5069   -1.9526   14.8983 O   0  0  0  0  0  0
  -48.7034   -1.4092   12.9979 O   0  0  0  0  0  0
  -47.7333    2.6696   18.7920 O   0  0  0  0  0  0
  -52.8061   -6.6838   16.6903 O   0  0  0  0  0  0
  -45.0370    2.3649   19.0691 O   0  0  0  0  0  0
  -54.2779   -4.4107   17.3287 O   0  0  0  0  0  0
  -47.8910   -2.0909   15.2592 C   0  0  0  0  0  0
  -48.2449   -3.5980   15.1174 C   0  0  0  0  0  0
  -48.0686   -1.8154   16.7694 C   0  0  0  0  0  0
  -48.3525   -4.1083   16.5688 C   0  0  0  0  0  0
  -49.5128   -3.9993   14.3244 C   0  0  0  0  0  0
  -48.6975   -1.0912   14.3980 C   0  0  0  0  0  0
  -47.2792   -0.6667   17.3882 C   0  0  0  0  0  0
  -50.7967   -4.1205   15.1317 C   0  0  0  0  0  0
  -47.8926    0.4986   17.8009 C   0  0  0  0  0  0
  -45.9187   -0.8052   17.5440 C   0  0  0  0  0  0
  -51.2321   -5.3530   15.5693 C   0  0  0  0  0  0
  -51.5291   -2.9946   15.4321 C   0  0  0  0  0  0
  -47.1637    1.5272   18.3709 C   0  0  0  0  0  0
  -45.1774    0.2106   18.1038 C   0  0  0  0  0  0
  -45.7910    1.3715   18.5147 C   0  0  0  0  0  0
  -52.4030   -5.4718   16.2892 C   0  0  0  0  0  0
  -52.6934   -3.0974   16.1610 C   0  0  0  0  0  0
  -53.1324   -4.3285   16.5942 C   0  0  0  0  0  0
  -48.9891    2.6024   19.5007 C   0  0  0  0  0  0
  -52.0084   -7.3464   17.6926 C   0  0  0  0  0  0
  -46.1990   -0.9999   14.9880 H   0  0  0  0  0  0
  -49.2095   -0.7231   12.4643 H   0  0  0  0  0  0
  -44.0588    2.2488   18.8703 H   0  0  0  0  0  0
  -54.4788   -3.5460   17.8011 H   0  0  0  0  0  0
  1 10  1  0  0  0
  1 11  1  0  0  0
  2  8  1  0  0  0
  2 28  1  0  0  0
  3 13  1  0  0  0
  3 29  1  0  0  0
  4 20  1  0  0  0
  4 26  1  0  0  0
  5 23  1  0  0  0
  5 27  1  0  0  0
  6 22  1  0  0  0
  6 30  1  0  0  0
  7 25  1  0  0  0
  7 31  1  0  0  0
  8  9  1  0  0  0
  8 13  1  0  0  0
  9 11  1  0  0  0
  9 12  1  0  0  0
 10  8  1  0  0  0
 10 14  1  0  0  0
 12 15  1  0  0  0
 14 16  2  0  0  0
 14 17  1  0  0  0
 15 18  2  0  0  0
 15 19  1  0  0  0
 16 20  1  0  0  0
 17 21  2  0  0  0
 18 23  1  0  0  0
 19 24  2  0  0  0
 20 22  2  0  0  0
 21 22  1  0  0  0
 23 25  2  0  0  0
 24 25  1  0  0  0
M  END
>  <CHROM.0>
-59.06155159,-64.42188396,-94.60379082

>  <CHROM.1>
-178.63379036,-178.06113497,41.81616204,67.91987488,-163.10287359,155.39258358
67.06413492,-90.57690193,-129.37113563,-97.79248901,-49.09518798,-2.09772718
16.65896463,-0.74090437,-0.50636950,-2.36932937

>  <HEADER>
                                                                          

>  <MASTER>
        0    0    0    0    0    0    0    0   51    0   51    0          

>  <Name>
Berchemol.pdb

>  <RI>
-1.07356e+09

>  <Rbt.Current_Directory>
/root/miniconda3/envs/rdock/share/rxdock-2013.1.1_148c5bd1-0/data/ligands/prepped_ligands/Berchemol

>  <Rbt.Executable>
rbdock/0.1.0

>  <Rbt.Library>
librxdock.so/0.1.0

>  <Rbt.Parameter_File>
/root/miniconda3/envs/rdock/share/rxdock-2013.1.1_148c5bd1-0/data/scripts/dock.prm

>  <Rbt.Receptor>
def.prm

>  <SCORE>
-13.952

>  <SCORE.INTER>
-11.8203

>  <SCORE.INTER.CONST>
1

>  <SCORE.INTER.POLAR>
-2.10807

>  <SCORE.INTER.REPUL>
0.101556

>  <SCORE.INTER.ROT>
6

>  <SCORE.INTER.VDW>
-16.5607

>  <SCORE.INTER.norm>
-0.43779

>  <SCORE.INTRA>
-2.43312

>  <SCORE.INTRA.DIHEDRAL>
-1.68759

>  <SCORE.INTRA.DIHEDRAL.0>
13.6736

>  <SCORE.INTRA.POLAR>
0.0955695

>  <SCORE.INTRA.POLAR.0>
-0.0955695

>  <SCORE.INTRA.REPUL>
0

>  <SCORE.INTRA.REPUL.0>
0

>  <SCORE.INTRA.VDW>
-1.91426

>  <SCORE.INTRA.VDW.0>
2.01328

>  <SCORE.INTRA.norm>
-0.0901154

>  <SCORE.RESTR>
0.000788591

>  <SCORE.RESTR.CAVITY>
0.000788591

>  <SCORE.RESTR.norm>
2.92071e-05

>  <SCORE.SYSTEM>
0.30066

>  <SCORE.SYSTEM.CONST>
0

>  <SCORE.SYSTEM.DIHEDRAL>
2.34244

>  <SCORE.SYSTEM.VDW>
-0.870558

>  <SCORE.SYSTEM.norm>
0.0111355

>  <SCORE.heavy>
27

>  <SCORE.norm>
-0.516741

>  <TITLE>
    14521044_D                                                            

$$$$
