Berchemol.pdb
  RxDock  02242112493D
librxdock.so/0.1.0
 31 33  0  0  0  0  0  0  0  0999 V2000
  -47.9077    0.1186   17.1359 O   0  0  0  0  0  0
  -47.8858   -2.6732   18.2821 O   0  0  0  0  0  0
  -47.9771   -3.0957   14.6007 O   0  0  0  0  0  0
  -43.3006    1.0063   18.9554 O   0  0  0  0  0  0
  -54.0856   -5.1094   14.6397 O   0  0  0  0  0  0
  -41.8720   -1.2912   18.6081 O   0  0  0  0  0  0
  -53.2173   -6.9107   16.5741 O   0  0  0  0  0  0
  -48.0877   -2.2146   16.9352 C   0  0  0  0  0  0
  -49.5177   -1.6075   16.8759 C   0  0  0  0  0  0
  -47.1670   -1.0069   16.6494 C   0  0  0  0  0  0
  -49.2885   -0.0839   16.8084 C   0  0  0  0  0  0
  -50.4719   -2.0459   15.7381 C   0  0  0  0  0  0
  -47.7833   -3.4004   15.9904 C   0  0  0  0  0  0
  -45.7395   -1.0488   17.1844 C   0  0  0  0  0  0
  -51.2198   -3.3526   15.9579 C   0  0  0  0  0  0
  -45.1711    0.0322   17.8268 C   0  0  0  0  0  0
  -45.0056   -2.2024   17.0261 C   0  0  0  0  0  0
  -52.3212   -3.6640   15.1898 C   0  0  0  0  0  0
  -50.7950   -4.2336   16.9263 C   0  0  0  0  0  0
  -43.8783   -0.0257   18.3165 C   0  0  0  0  0  0
  -43.7161   -2.2753   17.5020 C   0  0  0  0  0  0
  -43.1513   -1.1963   18.1423 C   0  0  0  0  0  0
  -53.0126   -4.8403   15.3936 C   0  0  0  0  0  0
  -51.4686   -5.4174   17.1318 C   0  0  0  0  0  0
  -52.5722   -5.7274   16.3690 C   0  0  0  0  0  0
  -43.9347    1.5365   20.1388 C   0  0  0  0  0  0
  -55.3344   -5.3342   15.3252 C   0  0  0  0  0  0
  -48.5155   -3.4223   18.5115 H   0  0  0  0  0  0
  -47.6698   -3.8494   14.0099 H   0  0  0  0  0  0
  -41.4760   -2.1984   18.4348 H   0  0  0  0  0  0
  -52.8817   -7.3783   17.3987 H   0  0  0  0  0  0
  1 10  1  0  0  0
  1 11  1  0  0  0
  2  8  1  0  0  0
  2 28  1  0  0  0
  3 13  1  0  0  0
  3 29  1  0  0  0
  4 20  1  0  0  0
  4 26  1  0  0  0
  5 23  1  0  0  0
  5 27  1  0  0  0
  6 22  1  0  0  0
  6 30  1  0  0  0
  7 25  1  0  0  0
  7 31  1  0  0  0
  8  9  1  0  0  0
  8 13  1  0  0  0
  9 11  1  0  0  0
  9 12  1  0  0  0
 10  8  1  0  0  0
 10 14  1  0  0  0
 12 15  1  0  0  0
 14 16  2  0  0  0
 14 17  1  0  0  0
 15 18  2  0  0  0
 15 19  1  0  0  0
 16 20  1  0  0  0
 17 21  2  0  0  0
 18 23  1  0  0  0
 19 24  2  0  0  0
 20 22  2  0  0  0
 21 22  1  0  0  0
 23 25  2  0  0  0
 24 25  1  0  0  0
M  END
>  <CHROM.0>
66.22052010,176.90642882,65.59127651

>  <CHROM.1>
64.64193435,173.38374055,57.63475482,-122.18397451,178.51944765,-170.97545885
178.52642976,82.55340635,-12.74285769,163.66249618,-48.36240166,-2.45813418
16.90642888,0.48479483,-0.23329192,0.09178316

>  <HEADER>
                                                                          

>  <MASTER>
        0    0    0    0    0    0    0    0   51    0   51    0          

>  <Name>
Berchemol.pdb

>  <RI>
-9.6636e+08

>  <Rbt.Current_Directory>
/root/miniconda3/envs/rdock/share/rxdock-2013.1.1_148c5bd1-0/data/ligands/prepped_ligands/Berchemol

>  <Rbt.Executable>
rbdock/0.1.0

>  <Rbt.Library>
librxdock.so/0.1.0

>  <Rbt.Parameter_File>
/root/miniconda3/envs/rdock/share/rxdock-2013.1.1_148c5bd1-0/data/scripts/dock.prm

>  <Rbt.Receptor>
def.prm

>  <SCORE>
-20.1222

>  <SCORE.INTER>
-15.7437

>  <SCORE.INTER.CONST>
1

>  <SCORE.INTER.POLAR>
-2.04013

>  <SCORE.INTER.REPUL>
0.00569194

>  <SCORE.INTER.ROT>
6

>  <SCORE.INTER.VDW>
-20.2358

>  <SCORE.INTER.norm>
-0.583101

>  <SCORE.INTRA>
-3.45981

>  <SCORE.INTRA.DIHEDRAL>
-3.29972

>  <SCORE.INTRA.DIHEDRAL.0>
13.6736

>  <SCORE.INTRA.POLAR>
0.0955695

>  <SCORE.INTRA.POLAR.0>
-0.0955695

>  <SCORE.INTRA.REPUL>
0

>  <SCORE.INTRA.REPUL.0>
0

>  <SCORE.INTRA.VDW>
-2.13488

>  <SCORE.INTRA.VDW.0>
2.01328

>  <SCORE.INTRA.norm>
-0.128141

>  <SCORE.RESTR>
0

>  <SCORE.RESTR.CAVITY>
0

>  <SCORE.RESTR.norm>
0

>  <SCORE.SYSTEM>
-0.91869

>  <SCORE.SYSTEM.CONST>
0

>  <SCORE.SYSTEM.DIHEDRAL>
0.209525

>  <SCORE.SYSTEM.POLAR>
-0.0118776

>  <SCORE.SYSTEM.VDW>
-0.983068

>  <SCORE.SYSTEM.norm>
-0.0340255

>  <SCORE.heavy>
27

>  <SCORE.norm>
-0.745267

>  <TITLE>
    14521044_D                                                            

$$$$
Berchemol.pdb
  RxDock  02242112493D
librxdock.so/0.1.0
 31 33  0  0  0  0  0  0  0  0999 V2000
  -51.5600   -2.5032   15.3685 O   0  0  0  0  0  0
  -49.4454   -4.3375   14.2408 O   0  0  0  0  0  0
  -46.8815   -3.4717   15.4685 O   0  0  0  0  0  0
  -54.4603   -6.4979   16.2966 O   0  0  0  0  0  0
  -46.0250   -1.2858   19.2161 O   0  0  0  0  0  0
  -52.8564   -8.3910   17.4295 O   0  0  0  0  0  0
  -47.9112    0.3538   20.4386 O   0  0  0  0  0  0
  -49.3682   -3.3418   15.2742 C   0  0  0  0  0  0
  -49.3922   -1.9571   14.5679 C   0  0  0  0  0  0
  -50.6701   -3.3488   16.1067 C   0  0  0  0  0  0
  -50.8012   -1.4003   14.8560 C   0  0  0  0  0  0
  -48.3233   -0.9031   14.9474 C   0  0  0  0  0  0
  -48.1327   -3.6705   16.1442 C   0  0  0  0  0  0
  -51.2923   -4.6964   16.4567 C   0  0  0  0  0  0
  -48.2054   -0.5725   16.4279 C   0  0  0  0  0  0
  -52.6236   -4.9679   16.2156 C   0  0  0  0  0  0
  -50.4968   -5.6674   17.0214 C   0  0  0  0  0  0
  -47.1550   -1.0660   17.1717 C   0  0  0  0  0  0
  -49.1494    0.2270   17.0313 C   0  0  0  0  0  0
  -53.1703   -6.1997   16.5287 C   0  0  0  0  0  0
  -51.0257   -6.8964   17.3446 C   0  0  0  0  0  0
  -52.3534   -7.1651   17.1031 C   0  0  0  0  0  0
  -47.0501   -0.7822   18.5177 C   0  0  0  0  0  0
  -49.0497    0.5287   18.3717 C   0  0  0  0  0  0
  -48.0040    0.0320   19.1171 C   0  0  0  0  0  0
  -55.1008   -5.9556   15.1222 C   0  0  0  0  0  0
  -44.7498   -0.6247   19.0865 C   0  0  0  0  0  0
  -50.2278   -4.1723   13.6317 H   0  0  0  0  0  0
  -46.7837   -4.0895   14.6809 H   0  0  0  0  0  0
  -52.1985   -8.9384   17.9563 H   0  0  0  0  0  0
  -46.9915    0.1701   20.8016 H   0  0  0  0  0  0
  1 10  1  0  0  0
  1 11  1  0  0  0
  2  8  1  0  0  0
  2 28  1  0  0  0
  3 13  1  0  0  0
  3 29  1  0  0  0
  4 20  1  0  0  0
  4 26  1  0  0  0
  5 23  1  0  0  0
  5 27  1  0  0  0
  6 22  1  0  0  0
  6 30  1  0  0  0
  7 25  1  0  0  0
  7 31  1  0  0  0
  8  9  1  0  0  0
  8 13  1  0  0  0
  9 11  1  0  0  0
  9 12  1  0  0  0
 10  8  1  0  0  0
 10 14  1  0  0  0
 12 15  1  0  0  0
 14 16  2  0  0  0
 14 17  1  0  0  0
 15 18  2  0  0  0
 15 19  1  0  0  0
 16 20  1  0  0  0
 17 21  2  0  0  0
 18 23  1  0  0  0
 19 24  2  0  0  0
 20 22  2  0  0  0
 21 22  1  0  0  0
 23 25  2  0  0  0
 24 25  1  0  0  0
M  END
>  <CHROM.0>
-65.38373529,-64.32659767,-58.85410966

>  <CHROM.1>
-52.80366603,-63.45496204,35.24853936,78.82055765,-171.56657968,16.43342249
68.76128463,-53.91305855,-7.41801928,104.34303515,-49.81219692,-3.16767416
16.73310493,2.89352504,0.78252804,2.22652457

>  <HEADER>
                                                                          

>  <MASTER>
        0    0    0    0    0    0    0    0   51    0   51    0          

>  <Name>
Berchemol.pdb

>  <RI>
-9.6636e+08

>  <Rbt.Current_Directory>
/root/miniconda3/envs/rdock/share/rxdock-2013.1.1_148c5bd1-0/data/ligands/prepped_ligands/Berchemol

>  <Rbt.Executable>
rbdock/0.1.0

>  <Rbt.Library>
librxdock.so/0.1.0

>  <Rbt.Parameter_File>
/root/miniconda3/envs/rdock/share/rxdock-2013.1.1_148c5bd1-0/data/scripts/dock.prm

>  <Rbt.Receptor>
def.prm

>  <SCORE>
-15.8441

>  <SCORE.INTER>
-10.4481

>  <SCORE.INTER.CONST>
1

>  <SCORE.INTER.POLAR>
-1.3527

>  <SCORE.INTER.REPUL>
0.0270096

>  <SCORE.INTER.ROT>
6

>  <SCORE.INTER.VDW>
-17.3839

>  <SCORE.INTER.norm>
-0.386965

>  <SCORE.INTRA>
-4.37781

>  <SCORE.INTRA.DIHEDRAL>
-4.9616

>  <SCORE.INTRA.DIHEDRAL.0>
13.6736

>  <SCORE.INTRA.POLAR>
0.0891828

>  <SCORE.INTRA.POLAR.0>
-0.0955695

>  <SCORE.INTRA.REPUL>
0

>  <SCORE.INTRA.REPUL.0>
0

>  <SCORE.INTRA.VDW>
-2.20023

>  <SCORE.INTRA.VDW.0>
2.01328

>  <SCORE.INTRA.norm>
-0.162141

>  <SCORE.RESTR>
0

>  <SCORE.RESTR.CAVITY>
0

>  <SCORE.RESTR.norm>
0

>  <SCORE.SYSTEM>
-1.01826

>  <SCORE.SYSTEM.CONST>
0

>  <SCORE.SYSTEM.DIHEDRAL>
0.169456

>  <SCORE.SYSTEM.POLAR>
-0.00363571

>  <SCORE.SYSTEM.VDW>
-1.09063

>  <SCORE.SYSTEM.norm>
-0.0377135

>  <SCORE.heavy>
27

>  <SCORE.norm>
-0.586819

>  <TITLE>
    14521044_D                                                            

$$$$
Berchemol.pdb
  RxDock  02242112493D
librxdock.so/0.1.0
 31 33  0  0  0  0  0  0  0  0999 V2000
  -51.0794   -1.0520   13.6241 O   0  0  0  0  0  0
  -48.8346   -0.2787   15.4871 O   0  0  0  0  0  0
  -46.8348   -2.3936   15.4184 O   0  0  0  0  0  0
  -50.6420    3.8416   12.4700 O   0  0  0  0  0  0
  -53.4115   -6.6388   16.3776 O   0  0  0  0  0  0
  -48.2824    4.1003   11.1265 O   0  0  0  0  0  0
  -52.4682   -7.0515   18.9623 O   0  0  0  0  0  0
  -48.9582   -1.3834   14.5764 C   0  0  0  0  0  0
  -49.9475   -2.3925   15.2243 C   0  0  0  0  0  0
  -49.6909   -0.9264   13.2949 C   0  0  0  0  0  0
  -51.2446   -2.2436   14.4035 C   0  0  0  0  0  0
  -49.5477   -3.8860   15.3081 C   0  0  0  0  0  0
  -47.5309   -1.8920   14.2671 C   0  0  0  0  0  0
  -49.3435    0.4415   12.7172 C   0  0  0  0  0  0
  -50.3430   -4.7380   16.2863 C   0  0  0  0  0  0
  -50.1843    1.5264   12.8595 C   0  0  0  0  0  0
  -48.1531    0.5938   12.0432 C   0  0  0  0  0  0
  -51.5264   -5.3273   15.8962 C   0  0  0  0  0  0
  -49.8795   -4.9268   17.5684 C   0  0  0  0  0  0
  -49.8493    2.7639   12.3391 C   0  0  0  0  0  0
  -47.8068    1.8164   11.5140 C   0  0  0  0  0  0
  -48.6466    2.8969   11.6572 C   0  0  0  0  0  0
  -52.2598   -6.0890   16.7823 C   0  0  0  0  0  0
  -50.5954   -5.6954   18.4595 C   0  0  0  0  0  0
  -51.7805   -6.2803   18.0730 C   0  0  0  0  0  0
  -51.9043    3.8675   11.7703 C   0  0  0  0  0  0
  -54.3763   -5.7664   15.7547 C   0  0  0  0  0  0
  -49.7202    0.1730   15.6364 H   0  0  0  0  0  0
  -45.9184   -2.7320   15.1788 H   0  0  0  0  0  0
  -48.8691    4.8477   11.4537 H   0  0  0  0  0  0
  -52.0991   -6.9629   19.8935 H   0  0  0  0  0  0
  1 10  1  0  0  0
  1 11  1  0  0  0
  2  8  1  0  0  0
  2 28  1  0  0  0
  3 13  1  0  0  0
  3 29  1  0  0  0
  4 20  1  0  0  0
  4 26  1  0  0  0
  5 23  1  0  0  0
  5 27  1  0  0  0
  6 22  1  0  0  0
  6 30  1  0  0  0
  7 25  1  0  0  0
  7 31  1  0  0  0
  8  9  1  0  0  0
  8 13  1  0  0  0
  9 11  1  0  0  0
  9 12  1  0  0  0
 10  8  1  0  0  0
 10 14  1  0  0  0
 12 15  1  0  0  0
 14 16  2  0  0  0
 14 17  1  0  0  0
 15 18  2  0  0  0
 15 19  1  0  0  0
 16 20  1  0  0  0
 17 21  2  0  0  0
 18 23  1  0  0  0
 19 24  2  0  0  0
 20 22  2  0  0  0
 21 22  1  0  0  0
 23 25  2  0  0  0
 24 25  1  0  0  0
M  END
>  <CHROM.0>
-179.42888304,177.89458910,-59.11859531

>  <CHROM.1>
-60.70960330,178.89054681,-68.30195427,-51.74780883,11.70279855,-169.46544020
62.59616474,162.89599196,17.04202390,86.49429868,-50.20633491,-1.71552652
14.61311335,1.31979932,-0.08324891,-0.56319485

>  <HEADER>
                                                                          

>  <MASTER>
        0    0    0    0    0    0    0    0   51    0   51    0          

>  <Name>
Berchemol.pdb

>  <RI>
-9.6636e+08

>  <Rbt.Current_Directory>
/root/miniconda3/envs/rdock/share/rxdock-2013.1.1_148c5bd1-0/data/ligands/prepped_ligands/Berchemol

>  <Rbt.Executable>
rbdock/0.1.0

>  <Rbt.Library>
librxdock.so/0.1.0

>  <Rbt.Parameter_File>
/root/miniconda3/envs/rdock/share/rxdock-2013.1.1_148c5bd1-0/data/scripts/dock.prm

>  <Rbt.Receptor>
def.prm

>  <SCORE>
-19.7056

>  <SCORE.INTER>
-14.2387

>  <SCORE.INTER.CONST>
1

>  <SCORE.INTER.POLAR>
-0.165424

>  <SCORE.INTER.REPUL>
0.0606575

>  <SCORE.INTER.ROT>
6

>  <SCORE.INTER.VDW>
-25.3795

>  <SCORE.INTER.norm>
-0.527358

>  <SCORE.INTRA>
-4.39535

>  <SCORE.INTRA.DIHEDRAL>
-3.54836

>  <SCORE.INTRA.DIHEDRAL.0>
13.6736

>  <SCORE.INTRA.POLAR>
0.0429787

>  <SCORE.INTRA.POLAR.0>
-0.0955695

>  <SCORE.INTRA.REPUL>
0

>  <SCORE.INTRA.REPUL.0>
0

>  <SCORE.INTRA.VDW>
-2.7673

>  <SCORE.INTRA.VDW.0>
2.01328

>  <SCORE.INTRA.norm>
-0.162791

>  <SCORE.RESTR>
0.000280042

>  <SCORE.RESTR.CAVITY>
0.000280042

>  <SCORE.RESTR.norm>
1.03719e-05

>  <SCORE.SYSTEM>
-1.0719

>  <SCORE.SYSTEM.CONST>
0

>  <SCORE.SYSTEM.DIHEDRAL>
0.0236341

>  <SCORE.SYSTEM.POLAR>
-0.00300007

>  <SCORE.SYSTEM.VDW>
-1.07351

>  <SCORE.SYSTEM.norm>
-0.0396999

>  <SCORE.heavy>
27

>  <SCORE.norm>
-0.729839

>  <TITLE>
    14521044_D                                                            

$$$$
Berchemol.pdb
  RxDock  02242112493D
librxdock.so/0.1.0
 31 33  0  0  0  0  0  0  0  0999 V2000
  -51.4668   -1.6068   14.3135 O   0  0  0  0  0  0
  -49.3560   -3.7576   14.4763 O   0  0  0  0  0  0
  -49.0923   -4.1136   17.2024 O   0  0  0  0  0  0
  -52.5785   -6.1890   18.1819 O   0  0  0  0  0  0
  -43.9189    0.1027   17.4301 O   0  0  0  0  0  0
  -54.4617   -6.8008   16.3060 O   0  0  0  0  0  0
  -42.9340   -2.1877   16.1954 O   0  0  0  0  0  0
  -49.5653   -2.5869   15.2831 C   0  0  0  0  0  0
  -49.1074   -1.3675   14.4343 C   0  0  0  0  0  0
  -51.0797   -2.3480   15.4766 C   0  0  0  0  0  0
  -50.4194   -0.6759   14.0116 C   0  0  0  0  0  0
  -48.1477   -0.3307   15.0680 C   0  0  0  0  0  0
  -48.8470   -2.8186   16.6328 C   0  0  0  0  0  0
  -51.9721   -3.5588   15.7280 C   0  0  0  0  0  0
  -46.7408   -0.8215   15.3760 C   0  0  0  0  0  0
  -51.8453   -4.3330   16.8632 C   0  0  0  0  0  0
  -52.9339   -3.8785   14.7967 C   0  0  0  0  0  0
  -45.9495   -0.1481   16.2816 C   0  0  0  0  0  0
  -46.2528   -1.9467   14.7513 C   0  0  0  0  0  0
  -52.6704   -5.4220   17.0818 C   0  0  0  0  0  0
  -53.7593   -4.9619   14.9954 C   0  0  0  0  0  0
  -53.6313   -5.7325   16.1282 C   0  0  0  0  0  0
  -44.6677   -0.5792   16.5546 C   0  0  0  0  0  0
  -44.9794   -2.3954   15.0241 C   0  0  0  0  0  0
  -44.1857   -1.7206   15.9244 C   0  0  0  0  0  0
  -51.3302   -6.8569   18.4638 C   0  0  0  0  0  0
  -43.8428   -0.4119   18.7752 C   0  0  0  0  0  0
  -48.3782   -3.9105   14.3006 H   0  0  0  0  0  0
  -48.5735   -4.2482   18.0535 H   0  0  0  0  0  0
  -55.1380   -6.8775   15.5666 H   0  0  0  0  0  0
  -42.8296   -3.1497   15.9219 H   0  0  0  0  0  0
  1 10  1  0  0  0
  1 11  1  0  0  0
  2  8  1  0  0  0
  2 28  1  0  0  0
  3 13  1  0  0  0
  3 29  1  0  0  0
  4 20  1  0  0  0
  4 26  1  0  0  0
  5 23  1  0  0  0
  5 27  1  0  0  0
  6 22  1  0  0  0
  6 30  1  0  0  0
  7 25  1  0  0  0
  7 31  1  0  0  0
  8  9  1  0  0  0
  8 13  1  0  0  0
  9 11  1  0  0  0
  9 12  1  0  0  0
 10  8  1  0  0  0
 10 14  1  0  0  0
 12 15  1  0  0  0
 14 16  2  0  0  0
 14 17  1  0  0  0
 15 18  2  0  0  0
 15 19  1  0  0  0
 16 20  1  0  0  0
 17 21  2  0  0  0
 18 23  1  0  0  0
 19 24  2  0  0  0
 20 22  2  0  0  0
 21 22  1  0  0  0
 23 25  2  0  0  0
 24 25  1  0  0  0
M  END
>  <CHROM.0>
-174.62882646,60.27651270,-57.61104556

>  <CHROM.1>
65.62504530,177.04694620,-58.99891052,98.97220786,176.84268696,161.15027213
-45.89366248,67.21943840,-173.94749075,-160.31104363,-49.08294411,-2.91631074
16.02955753,2.79981368,0.34475977,2.40295652

>  <HEADER>
                                                                          

>  <MASTER>
        0    0    0    0    0    0    0    0   51    0   51    0          

>  <Name>
Berchemol.pdb

>  <RI>
-9.6636e+08

>  <Rbt.Current_Directory>
/root/miniconda3/envs/rdock/share/rxdock-2013.1.1_148c5bd1-0/data/ligands/prepped_ligands/Berchemol

>  <Rbt.Executable>
rbdock/0.1.0

>  <Rbt.Library>
librxdock.so/0.1.0

>  <Rbt.Parameter_File>
/root/miniconda3/envs/rdock/share/rxdock-2013.1.1_148c5bd1-0/data/scripts/dock.prm

>  <Rbt.Receptor>
def.prm

>  <SCORE>
-19.4493

>  <SCORE.INTER>
-14.4616

>  <SCORE.INTER.CONST>
1

>  <SCORE.INTER.POLAR>
-1.25022

>  <SCORE.INTER.REPUL>
0.124387

>  <SCORE.INTER.ROT>
6

>  <SCORE.INTER.VDW>
-22.2328

>  <SCORE.INTER.norm>
-0.535615

>  <SCORE.INTRA>
-4.06645

>  <SCORE.INTRA.DIHEDRAL>
-2.57987

>  <SCORE.INTRA.DIHEDRAL.0>
13.6736

>  <SCORE.INTRA.POLAR>
0.0955695

>  <SCORE.INTRA.POLAR.0>
-0.0955695

>  <SCORE.INTRA.REPUL>
0

>  <SCORE.INTRA.REPUL.0>
0

>  <SCORE.INTRA.VDW>
-3.10145

>  <SCORE.INTRA.VDW.0>
2.01328

>  <SCORE.INTRA.norm>
-0.150609

>  <SCORE.RESTR>
0

>  <SCORE.RESTR.CAVITY>
0

>  <SCORE.RESTR.norm>
0

>  <SCORE.SYSTEM>
-0.921228

>  <SCORE.SYSTEM.CONST>
0

>  <SCORE.SYSTEM.DIHEDRAL>
0.0794914

>  <SCORE.SYSTEM.POLAR>
-0.00645019

>  <SCORE.SYSTEM.VDW>
-0.939043

>  <SCORE.SYSTEM.norm>
-0.0341195

>  <SCORE.heavy>
27

>  <SCORE.norm>
-0.720343

>  <TITLE>
    14521044_D                                                            

$$$$
Berchemol.pdb
  RxDock  02242112493D
librxdock.so/0.1.0
 31 33  0  0  0  0  0  0  0  0999 V2000
  -48.0552   -4.8271   18.1489 O   0  0  0  0  0  0
  -49.3082   -4.7979   15.4035 O   0  0  0  0  0  0
  -51.2765   -2.4901   17.5058 O   0  0  0  0  0  0
  -45.3492   -0.0505   17.2973 O   0  0  0  0  0  0
  -54.3928   -8.3555   15.2620 O   0  0  0  0  0  0
  -44.8782   -0.5858   14.6646 O   0  0  0  0  0  0
  -56.0329   -6.1785   14.7038 O   0  0  0  0  0  0
  -49.8067   -4.3267   16.6663 C   0  0  0  0  0  0
  -50.2074   -5.5834   17.4893 C   0  0  0  0  0  0
  -48.6532   -3.7065   17.4865 C   0  0  0  0  0  0
  -49.1056   -5.7114   18.5608 C   0  0  0  0  0  0
  -51.6014   -5.6262   18.1619 C   0  0  0  0  0  0
  -50.9171   -3.2919   16.3702 C   0  0  0  0  0  0
  -47.6331   -2.8424   16.7528 C   0  0  0  0  0  0
  -52.7912   -5.7842   17.2268 C   0  0  0  0  0  0
  -46.9597   -1.8169   17.3844 C   0  0  0  0  0  0
  -47.3757   -3.1027   15.4259 C   0  0  0  0  0  0
  -53.0780   -7.0090   16.6632 C   0  0  0  0  0  0
  -53.5907   -4.7006   16.9421 C   0  0  0  0  0  0
  -46.0287   -1.0491   16.7074 C   0  0  0  0  0  0
  -46.4570   -2.3450   14.7357 C   0  0  0  0  0  0
  -45.7864   -1.3230   15.3675 C   0  0  0  0  0  0
  -54.1466   -7.1559   15.8031 C   0  0  0  0  0  0
  -54.6684   -4.8362   16.0949 C   0  0  0  0  0  0
  -54.9529   -6.0578   15.5269 C   0  0  0  0  0  0
  -46.0203    0.7614   18.2844 C   0  0  0  0  0  0
  -55.0998   -9.3138   16.0754 C   0  0  0  0  0  0
  -50.0319   -5.2458   14.8688 H   0  0  0  0  0  0
  -51.6444   -3.0519   18.2545 H   0  0  0  0  0  0
  -45.0754   -0.5878   13.6792 H   0  0  0  0  0  0
  -56.1251   -7.1143   14.3473 H   0  0  0  0  0  0
  1 10  1  0  0  0
  1 11  1  0  0  0
  2  8  1  0  0  0
  2 28  1  0  0  0
  3 13  1  0  0  0
  3 29  1  0  0  0
  4 20  1  0  0  0
  4 26  1  0  0  0
  5 23  1  0  0  0
  5 27  1  0  0  0
  6 22  1  0  0  0
  6 30  1  0  0  0
  7 25  1  0  0  0
  7 31  1  0  0  0
  8  9  1  0  0  0
  8 13  1  0  0  0
  9 11  1  0  0  0
  9 12  1  0  0  0
 10  8  1  0  0  0
 10 14  1  0  0  0
 12 15  1  0  0  0
 14 16  2  0  0  0
 14 17  1  0  0  0
 15 18  2  0  0  0
 15 19  1  0  0  0
 16 20  1  0  0  0
 17 21  2  0  0  0
 18 23  1  0  0  0
 19 24  2  0  0  0
 20 22  2  0  0  0
 21 22  1  0  0  0
 23 25  2  0  0  0
 24 25  1  0  0  0
M  END
>  <CHROM.0>
53.04570093,61.29202628,-58.71401747

>  <CHROM.1>
65.52144652,-61.84374776,-36.32258236,80.69245155,-154.67461993,-1.09720487
-165.13781631,71.21721172,-87.23097367,75.92001511,-50.15371416,-4.14493257
16.52978950,-0.35543627,0.50408684,2.31716916

>  <HEADER>
                                                                          

>  <MASTER>
        0    0    0    0    0    0    0    0   51    0   51    0          

>  <Name>
Berchemol.pdb

>  <RI>
-9.6636e+08

>  <Rbt.Current_Directory>
/root/miniconda3/envs/rdock/share/rxdock-2013.1.1_148c5bd1-0/data/ligands/prepped_ligands/Berchemol

>  <Rbt.Executable>
rbdock/0.1.0

>  <Rbt.Library>
librxdock.so/0.1.0

>  <Rbt.Parameter_File>
/root/miniconda3/envs/rdock/share/rxdock-2013.1.1_148c5bd1-0/data/scripts/dock.prm

>  <Rbt.Receptor>
def.prm

>  <SCORE>
-15.2913

>  <SCORE.INTER>
-11.1881

>  <SCORE.INTER.CONST>
1

>  <SCORE.INTER.POLAR>
-0.727276

>  <SCORE.INTER.REPUL>
0

>  <SCORE.INTER.ROT>
6

>  <SCORE.INTER.VDW>
-20.1154

>  <SCORE.INTER.norm>
-0.414375

>  <SCORE.INTRA>
-3.18036

>  <SCORE.INTRA.DIHEDRAL>
-3.72229

>  <SCORE.INTRA.DIHEDRAL.0>
13.6736

>  <SCORE.INTRA.POLAR>
0.0736332

>  <SCORE.INTRA.POLAR.0>
-0.0955695

>  <SCORE.INTRA.REPUL>
0

>  <SCORE.INTRA.REPUL.0>
0

>  <SCORE.INTRA.VDW>
-1.56957

>  <SCORE.INTRA.VDW.0>
2.01328

>  <SCORE.INTRA.norm>
-0.117791

>  <SCORE.RESTR>
0

>  <SCORE.RESTR.CAVITY>
0

>  <SCORE.RESTR.norm>
0

>  <SCORE.SYSTEM>
-0.922804

>  <SCORE.SYSTEM.CONST>
0

>  <SCORE.SYSTEM.DIHEDRAL>
0.134504

>  <SCORE.SYSTEM.POLAR>
-0.00396716

>  <SCORE.SYSTEM.VDW>
-0.976568

>  <SCORE.SYSTEM.norm>
-0.0341779

>  <SCORE.heavy>
27

>  <SCORE.norm>
-0.566344

>  <TITLE>
    14521044_D                                                            

$$$$
Berchemol.pdb
  RxDock  02242112493D
librxdock.so/0.1.0
 31 33  0  0  0  0  0  0  0  0999 V2000
  -47.6762   -1.5246   14.1945 O   0  0  0  0  0  0
  -48.7551   -1.8430   16.9949 O   0  0  0  0  0  0
  -46.8390   -3.9120   17.7607 O   0  0  0  0  0  0
  -45.6727    1.5340   18.0663 O   0  0  0  0  0  0
  -53.0451   -7.3341   16.8156 O   0  0  0  0  0  0
  -43.1137    0.5902   18.0918 O   0  0  0  0  0  0
  -55.1656   -5.6423   16.1974 O   0  0  0  0  0  0
  -48.2974   -2.8240   16.0497 C   0  0  0  0  0  0
  -49.4051   -2.9573   14.9671 C   0  0  0  0  0  0
  -47.0862   -2.2707   15.2655 C   0  0  0  0  0  0
  -48.8219   -2.2487   13.7277 C   0  0  0  0  0  0
  -49.9067   -4.3693   14.5771 C   0  0  0  0  0  0
  -47.9288   -4.0982   16.8446 C   0  0  0  0  0  0
  -46.0374   -1.4723   16.0324 C   0  0  0  0  0  0
  -51.3203   -4.7222   15.0155 C   0  0  0  0  0  0
  -46.3543   -0.3060   16.6985 C   0  0  0  0  0  0
  -44.7422   -1.9371   16.0637 C   0  0  0  0  0  0
  -51.5605   -5.8716   15.7374 C   0  0  0  0  0  0
  -52.3680   -3.8895   14.6943 C   0  0  0  0  0  0
  -45.3932    0.4010   17.3992 C   0  0  0  0  0  0
  -43.7724   -1.2432   16.7511 C   0  0  0  0  0  0
  -44.0905   -0.0806   17.4148 C   0  0  0  0  0  0
  -52.8418   -6.2050   16.1255 C   0  0  0  0  0  0
  -53.6505   -4.2039   15.0864 C   0  0  0  0  0  0
  -53.8928   -5.3545   15.8029 C   0  0  0  0  0  0
  -46.8986    1.6124   18.8244 C   0  0  0  0  0  0
  -52.0695   -7.6782   17.8204 C   0  0  0  0  0  0
  -49.6121   -2.1307   17.4343 H   0  0  0  0  0  0
  -45.9719   -3.7512   17.2771 H   0  0  0  0  0  0
  -43.4798    1.3800   18.5939 H   0  0  0  0  0  0
  -55.8405   -5.0695   15.7203 H   0  0  0  0  0  0
  1 10  1  0  0  0
  1 11  1  0  0  0
  2  8  1  0  0  0
  2 28  1  0  0  0
  3 13  1  0  0  0
  3 29  1  0  0  0
  4 20  1  0  0  0
  4 26  1  0  0  0
  5 23  1  0  0  0
  5 27  1  0  0  0
  6 22  1  0  0  0
  6 30  1  0  0  0
  7 25  1  0  0  0
  7 31  1  0  0  0
  8  9  1  0  0  0
  8 13  1  0  0  0
  9 11  1  0  0  0
  9 12  1  0  0  0
 10  8  1  0  0  0
 10 14  1  0  0  0
 12 15  1  0  0  0
 14 16  2  0  0  0
 14 17  1  0  0  0
 15 18  2  0  0  0
 15 19  1  0  0  0
 16 20  1  0  0  0
 17 21  2  0  0  0
 18 23  1  0  0  0
 19 24  2  0  0  0
 20 22  2  0  0  0
 21 22  1  0  0  0
 23 25  2  0  0  0
 24 25  1  0  0  0
M  END
>  <CHROM.0>
70.61041507,-176.34193048,44.79073701

>  <CHROM.1>
60.94977901,-67.81278083,41.16921376,39.42209866,4.27819998,-166.64283119
-63.68486224,109.95967138,61.18776505,-126.64944271,-48.76499345,-2.86878719
16.31702952,0.44651741,-0.46807824,-0.53088588

>  <HEADER>
                                                                          

>  <MASTER>
        0    0    0    0    0    0    0    0   51    0   51    0          

>  <Name>
Berchemol.pdb

>  <RI>
-9.6636e+08

>  <Rbt.Current_Directory>
/root/miniconda3/envs/rdock/share/rxdock-2013.1.1_148c5bd1-0/data/ligands/prepped_ligands/Berchemol

>  <Rbt.Executable>
rbdock/0.1.0

>  <Rbt.Library>
librxdock.so/0.1.0

>  <Rbt.Parameter_File>
/root/miniconda3/envs/rdock/share/rxdock-2013.1.1_148c5bd1-0/data/scripts/dock.prm

>  <Rbt.Receptor>
def.prm

>  <SCORE>
-16.4942

>  <SCORE.INTER>
-13.7941

>  <SCORE.INTER.CONST>
1

>  <SCORE.INTER.POLAR>
-1.12693

>  <SCORE.INTER.REPUL>
0

>  <SCORE.INTER.ROT>
6

>  <SCORE.INTER.VDW>
-21.3626

>  <SCORE.INTER.norm>
-0.510893

>  <SCORE.INTRA>
-2.1391

>  <SCORE.INTRA.DIHEDRAL>
-2.49178

>  <SCORE.INTRA.DIHEDRAL.0>
13.6736

>  <SCORE.INTRA.POLAR>
0.00148035

>  <SCORE.INTRA.POLAR.0>
-0.0955695

>  <SCORE.INTRA.REPUL>
0

>  <SCORE.INTRA.REPUL.0>
0

>  <SCORE.INTRA.VDW>
-0.898242

>  <SCORE.INTRA.VDW.0>
2.01328

>  <SCORE.INTRA.norm>
-0.079226

>  <SCORE.RESTR>
0

>  <SCORE.RESTR.CAVITY>
0

>  <SCORE.RESTR.norm>
0

>  <SCORE.SYSTEM>
-0.560938

>  <SCORE.SYSTEM.CONST>
0

>  <SCORE.SYSTEM.DIHEDRAL>
0.881617

>  <SCORE.SYSTEM.VDW>
-1.00175

>  <SCORE.SYSTEM.norm>
-0.0207755

>  <SCORE.heavy>
27

>  <SCORE.norm>
-0.610895

>  <TITLE>
    14521044_D                                                            

$$$$
Berchemol.pdb
  RxDock  02242112493D
librxdock.so/0.1.0
 31 33  0  0  0  0  0  0  0  0999 V2000
  -49.8760   -1.2030   15.2414 O   0  0  0  0  0  0
  -48.2699   -2.9549   17.1012 O   0  0  0  0  0  0
  -47.7051    0.5385   18.1833 O   0  0  0  0  0  0
  -53.0188   -4.4822   17.6857 O   0  0  0  0  0  0
  -43.5742    0.9250   19.2713 O   0  0  0  0  0  0
  -53.8483   -3.0600   19.8604 O   0  0  0  0  0  0
  -41.9323   -1.2726   18.8073 O   0  0  0  0  0  0
  -48.2411   -1.5331   16.8951 C   0  0  0  0  0  0
  -47.5216   -1.2893   15.5387 C   0  0  0  0  0  0
  -49.6740   -1.0106   16.6465 C   0  0  0  0  0  0
  -48.6506   -0.8842   14.5693 C   0  0  0  0  0  0
  -46.3757   -0.2500   15.4738 C   0  0  0  0  0  0
  -47.6111   -0.8939   18.1545 C   0  0  0  0  0  0
  -50.8061   -1.5885   17.4892 C   0  0  0  0  0  0
  -45.1793   -0.5155   16.3756 C   0  0  0  0  0  0
  -51.4046   -2.7920   17.1767 C   0  0  0  0  0  0
  -51.2328   -0.8895   18.5954 C   0  0  0  0  0  0
  -44.9090    0.3178   17.4397 C   0  0  0  0  0  0
  -44.3615   -1.5956   16.1328 C   0  0  0  0  0  0
  -52.4232   -3.3082   17.9580 C   0  0  0  0  0  0
  -52.2488   -1.3856   19.3804 C   0  0  0  0  0  0
  -52.8442   -2.5859   19.0671 C   0  0  0  0  0  0
  -43.8176    0.0912   18.2526 C   0  0  0  0  0  0
  -43.2757   -1.8408   16.9441 C   0  0  0  0  0  0
  -43.0012   -1.0061   18.0043 C   0  0  0  0  0  0
  -53.5143   -4.7193   16.3508 C   0  0  0  0  0  0
  -44.0205    0.5158   20.5802 C   0  0  0  0  0  0
  -48.7024   -3.4280   16.3269 H   0  0  0  0  0  0
  -47.2773    0.9213   19.0092 H   0  0  0  0  0  0
  -54.7469   -2.7101   19.5776 H   0  0  0  0  0  0
  -41.5261   -2.1687   18.5993 H   0  0  0  0  0  0
  1 10  1  0  0  0
  1 11  1  0  0  0
  2  8  1  0  0  0
  2 28  1  0  0  0
  3 13  1  0  0  0
  3 29  1  0  0  0
  4 20  1  0  0  0
  4 26  1  0  0  0
  5 23  1  0  0  0
  5 27  1  0  0  0
  6 22  1  0  0  0
  6 30  1  0  0  0
  7 25  1  0  0  0
  7 31  1  0  0  0
  8  9  1  0  0  0
  8 13  1  0  0  0
  9 11  1  0  0  0
  9 12  1  0  0  0
 10  8  1  0  0  0
 10 14  1  0  0  0
 12 15  1  0  0  0
 14 16  2  0  0  0
 14 17  1  0  0  0
 15 18  2  0  0  0
 15 19  1  0  0  0
 16 20  1  0  0  0
 17 21  2  0  0  0
 18 23  1  0  0  0
 19 24  2  0  0  0
 20 22  2  0  0  0
 21 22  1  0  0  0
 23 25  2  0  0  0
 24 25  1  0  0  0
M  END
>  <CHROM.0>
59.01505673,62.41996993,62.84216446

>  <CHROM.1>
-55.53791512,-179.36200819,-50.68130226,98.33472034,-92.74947845,170.87507737
-170.83431385,59.93300562,39.55572748,-112.45973859,-48.13745480,-1.44846758
17.55636016,-3.06883879,0.27703362,1.35938866

>  <HEADER>
                                                                          

>  <MASTER>
        0    0    0    0    0    0    0    0   51    0   51    0          

>  <Name>
Berchemol.pdb

>  <RI>
-9.6636e+08

>  <Rbt.Current_Directory>
/root/miniconda3/envs/rdock/share/rxdock-2013.1.1_148c5bd1-0/data/ligands/prepped_ligands/Berchemol

>  <Rbt.Executable>
rbdock/0.1.0

>  <Rbt.Library>
librxdock.so/0.1.0

>  <Rbt.Parameter_File>
/root/miniconda3/envs/rdock/share/rxdock-2013.1.1_148c5bd1-0/data/scripts/dock.prm

>  <Rbt.Receptor>
def.prm

>  <SCORE>
-15.7481

>  <SCORE.INTER>
-11.2899

>  <SCORE.INTER.CONST>
1

>  <SCORE.INTER.POLAR>
-1.3665

>  <SCORE.INTER.REPUL>
5.55693e-05

>  <SCORE.INTER.ROT>
6

>  <SCORE.INTER.VDW>
-18.0441

>  <SCORE.INTER.norm>
-0.418144

>  <SCORE.INTRA>
-3.48536

>  <SCORE.INTRA.DIHEDRAL>
0.594834

>  <SCORE.INTRA.DIHEDRAL.0>
13.6736

>  <SCORE.INTRA.POLAR>
0.0955695

>  <SCORE.INTRA.POLAR.0>
-0.0955695

>  <SCORE.INTRA.REPUL>
0

>  <SCORE.INTRA.REPUL.0>
0

>  <SCORE.INTRA.VDW>
-4.10772

>  <SCORE.INTRA.VDW.0>
2.01328

>  <SCORE.INTRA.norm>
-0.129088

>  <SCORE.RESTR>
0

>  <SCORE.RESTR.CAVITY>
0

>  <SCORE.RESTR.norm>
0

>  <SCORE.SYSTEM>
-0.972829

>  <SCORE.SYSTEM.CONST>
0

>  <SCORE.SYSTEM.DIHEDRAL>
0.0497665

>  <SCORE.SYSTEM.POLAR>
-0.00724194

>  <SCORE.SYSTEM.VDW>
-0.973089

>  <SCORE.SYSTEM.norm>
-0.0360307

>  <SCORE.heavy>
27

>  <SCORE.norm>
-0.583262

>  <TITLE>
    14521044_D                                                            

$$$$
Berchemol.pdb
  RxDock  02242112493D
librxdock.so/0.1.0
 31 33  0  0  0  0  0  0  0  0999 V2000
  -49.1071   -3.2041   15.2226 O   0  0  0  0  0  0
  -51.6402   -1.9223   16.2464 O   0  0  0  0  0  0
  -50.6971   -4.5204   18.6685 O   0  0  0  0  0  0
  -48.6013    0.0913   20.3300 O   0  0  0  0  0  0
  -51.5322   -8.6945   19.4270 O   0  0  0  0  0  0
  -47.2480    1.7645   18.6541 O   0  0  0  0  0  0
  -48.7539   -8.6868   19.2797 O   0  0  0  0  0  0
  -51.0149   -3.1691   16.5922 C   0  0  0  0  0  0
  -51.2781   -4.1471   15.4128 C   0  0  0  0  0  0
  -49.4785   -3.0025   16.5914 C   0  0  0  0  0  0
  -49.9186   -4.2608   14.6937 C   0  0  0  0  0  0
  -51.8295   -5.5610   15.7199 C   0  0  0  0  0  0
  -51.5433   -3.5830   17.9854 C   0  0  0  0  0  0
  -48.8941   -1.7220   17.1782 C   0  0  0  0  0  0
  -51.0095   -6.4042   16.6851 C   0  0  0  0  0  0
  -49.0355   -1.4027   18.5133 C   0  0  0  0  0  0
  -48.2005   -0.8692   16.3499 C   0  0  0  0  0  0
  -51.6345   -7.1924   17.6275 C   0  0  0  0  0  0
  -49.6349   -6.3853   16.6178 C   0  0  0  0  0  0
  -48.4895   -0.2423   19.0327 C   0  0  0  0  0  0
  -47.6559    0.2924   16.8488 C   0  0  0  0  0  0
  -47.7980    0.6088   18.1803 C   0  0  0  0  0  0
  -50.8968   -7.9481   18.5152 C   0  0  0  0  0  0
  -48.8864   -7.1448   17.4898 C   0  0  0  0  0  0
  -49.5092   -7.9285   18.4353 C   0  0  0  0  0  0
  -48.3927   -0.9266   21.3320 C   0  0  0  0  0  0
  -51.5963   -8.1799   20.7727 C   0  0  0  0  0  0
  -51.4067   -1.2007   16.9062 H   0  0  0  0  0  0
  -49.8054   -4.1157   18.8980 H   0  0  0  0  0  0
  -46.9671    2.3788   17.9101 H   0  0  0  0  0  0
  -47.7829   -8.6777   19.0185 H   0  0  0  0  0  0
  1 10  1  0  0  0
  1 11  1  0  0  0
  2  8  1  0  0  0
  2 28  1  0  0  0
  3 13  1  0  0  0
  3 29  1  0  0  0
  4 20  1  0  0  0
  4 26  1  0  0  0
  5 23  1  0  0  0
  5 27  1  0  0  0
  6 22  1  0  0  0
  6 30  1  0  0  0
  7 25  1  0  0  0
  7 31  1  0  0  0
  8  9  1  0  0  0
  8 13  1  0  0  0
  9 11  1  0  0  0
  9 12  1  0  0  0
 10  8  1  0  0  0
 10 14  1  0  0  0
 12 15  1  0  0  0
 14 16  2  0  0  0
 14 17  1  0  0  0
 15 18  2  0  0  0
 15 19  1  0  0  0
 16 20  1  0  0  0
 17 21  2  0  0  0
 18 23  1  0  0  0
 19 24  2  0  0  0
 20 22  2  0  0  0
 21 22  1  0  0  0
 23 25  2  0  0  0
 24 25  1  0  0  0
M  END
>  <CHROM.0>
-58.34764541,-178.13082682,-59.93614847

>  <CHROM.1>
-172.28534117,65.49145075,43.74282116,-101.68591994,-166.88823648,171.51503289
-159.24561524,-56.20834734,-174.26912040,140.37804542,-49.78721157,-3.85217985
17.77505692,0.69179598,-1.17807937,-0.84919619

>  <HEADER>
                                                                          

>  <MASTER>
        0    0    0    0    0    0    0    0   51    0   51    0          

>  <Name>
Berchemol.pdb

>  <RI>
-9.6636e+08

>  <Rbt.Current_Directory>
/root/miniconda3/envs/rdock/share/rxdock-2013.1.1_148c5bd1-0/data/ligands/prepped_ligands/Berchemol

>  <Rbt.Executable>
rbdock/0.1.0

>  <Rbt.Library>
librxdock.so/0.1.0

>  <Rbt.Parameter_File>
/root/miniconda3/envs/rdock/share/rxdock-2013.1.1_148c5bd1-0/data/scripts/dock.prm

>  <Rbt.Receptor>
def.prm

>  <SCORE>
-9.13657

>  <SCORE.INTER>
-4.30422

>  <SCORE.INTER.CONST>
1

>  <SCORE.INTER.POLAR>
-0.364548

>  <SCORE.INTER.REPUL>
0

>  <SCORE.INTER.ROT>
6

>  <SCORE.INTER.VDW>
-14.4648

>  <SCORE.INTER.norm>
-0.159415

>  <SCORE.INTRA>
-3.76006

>  <SCORE.INTRA.DIHEDRAL>
-3.31332

>  <SCORE.INTRA.DIHEDRAL.0>
13.6736

>  <SCORE.INTRA.POLAR>
0.0955695

>  <SCORE.INTRA.POLAR.0>
-0.0955695

>  <SCORE.INTRA.REPUL>
0

>  <SCORE.INTRA.REPUL.0>
0

>  <SCORE.INTRA.VDW>
-2.42833

>  <SCORE.INTRA.VDW.0>
2.01328

>  <SCORE.INTRA.norm>
-0.139261

>  <SCORE.RESTR>
0

>  <SCORE.RESTR.CAVITY>
0

>  <SCORE.RESTR.norm>
0

>  <SCORE.SYSTEM>
-1.0723

>  <SCORE.SYSTEM.CONST>
0

>  <SCORE.SYSTEM.DIHEDRAL>
0.0228989

>  <SCORE.SYSTEM.POLAR>
-0.000939621

>  <SCORE.SYSTEM.VDW>
-1.08055

>  <SCORE.SYSTEM.norm>
-0.0397148

>  <SCORE.heavy>
27

>  <SCORE.norm>
-0.338392

>  <TITLE>
    14521044_D                                                            

$$$$
Berchemol.pdb
  RxDock  02242112493D
librxdock.so/0.1.0
 31 33  0  0  0  0  0  0  0  0999 V2000
  -49.2919   -4.1119   14.9872 O   0  0  0  0  0  0
  -50.3514   -1.3131   14.5971 O   0  0  0  0  0  0
  -50.8281   -0.2030   16.9345 O   0  0  0  0  0  0
  -46.8200    0.9184   17.3078 O   0  0  0  0  0  0
  -52.3548   -4.1546   20.4061 O   0  0  0  0  0  0
  -44.5017   -0.2778   16.5114 O   0  0  0  0  0  0
  -52.3316   -6.9329   20.2613 O   0  0  0  0  0  0
  -50.6619   -2.3025   15.5919 C   0  0  0  0  0  0
  -51.5478   -3.3756   14.8985 C   0  0  0  0  0  0
  -49.3822   -3.0791   15.9758 C   0  0  0  0  0  0
  -50.6167   -4.5928   14.7257 C   0  0  0  0  0  0
  -52.8658   -3.8155   15.5817 C   0  0  0  0  0  0
  -51.2677   -1.5640   16.8081 C   0  0  0  0  0  0
  -48.0837   -2.2941   16.1284 C   0  0  0  0  0  0
  -52.7185   -4.6467   16.8476 C   0  0  0  0  0  0
  -48.0625   -1.0170   16.6508 C   0  0  0  0  0  0
  -46.9025   -2.8842   15.7398 C   0  0  0  0  0  0
  -52.6141   -4.0328   18.0773 C   0  0  0  0  0  0
  -52.6926   -6.0206   16.7691 C   0  0  0  0  0  0
  -46.8745   -0.3222   16.7931 C   0  0  0  0  0  0
  -45.7122   -2.2051   15.8690 C   0  0  0  0  0  0
  -45.6933   -0.9319   16.3903 C   0  0  0  0  0  0
  -52.4657   -4.7800   19.2275 C   0  0  0  0  0  0
  -52.5577   -6.7791   17.9110 C   0  0  0  0  0  0
  -52.4478   -6.1671   19.1395 C   0  0  0  0  0  0
  -47.5466    1.2017   18.5224 C   0  0  0  0  0  0
  -53.5343   -3.5043   20.9217 C   0  0  0  0  0  0
  -51.1738   -0.8095   14.3131 H   0  0  0  0  0  0
  -51.2097    0.2347   17.7558 H   0  0  0  0  0  0
  -44.6043    0.6053   16.9799 H   0  0  0  0  0  0
  -52.2978   -7.9132   20.0396 H   0  0  0  0  0  0
  1 10  1  0  0  0
  1 11  1  0  0  0
  2  8  1  0  0  0
  2 28  1  0  0  0
  3 13  1  0  0  0
  3 29  1  0  0  0
  4 20  1  0  0  0
  4 26  1  0  0  0
  5 23  1  0  0  0
  5 27  1  0  0  0
  6 22  1  0  0  0
  6 30  1  0  0  0
  7 25  1  0  0  0
  7 31  1  0  0  0
  8  9  1  0  0  0
  8 13  1  0  0  0
  9 11  1  0  0  0
  9 12  1  0  0  0
 10  8  1  0  0  0
 10 14  1  0  0  0
 12 15  1  0  0  0
 14 16  2  0  0  0
 14 17  1  0  0  0
 15 18  2  0  0  0
 15 19  1  0  0  0
 16 20  1  0  0  0
 17 21  2  0  0  0
 18 23  1  0  0  0
 19 24  2  0  0  0
 20 22  2  0  0  0
 21 22  1  0  0  0
 23 25  2  0  0  0
 24 25  1  0  0  0
M  END
>  <CHROM.0>
176.77138587,-55.29927725,64.54037684

>  <CHROM.1>
66.77043429,-177.58406579,46.66441280,70.53722654,4.99528173,-177.82414050
-26.95111848,-70.50647553,157.44282789,88.51298248,-50.01670613,-2.86890660
17.05443039,0.04325076,-0.71001084,-1.91698320

>  <HEADER>
                                                                          

>  <MASTER>
        0    0    0    0    0    0    0    0   51    0   51    0          

>  <Name>
Berchemol.pdb

>  <RI>
-9.6636e+08

>  <Rbt.Current_Directory>
/root/miniconda3/envs/rdock/share/rxdock-2013.1.1_148c5bd1-0/data/ligands/prepped_ligands/Berchemol

>  <Rbt.Executable>
rbdock/0.1.0

>  <Rbt.Library>
librxdock.so/0.1.0

>  <Rbt.Parameter_File>
/root/miniconda3/envs/rdock/share/rxdock-2013.1.1_148c5bd1-0/data/scripts/dock.prm

>  <Rbt.Receptor>
def.prm

>  <SCORE>
-13.0773

>  <SCORE.INTER>
-8.77117

>  <SCORE.INTER.CONST>
1

>  <SCORE.INTER.POLAR>
-0.687122

>  <SCORE.INTER.REPUL>
0.0887045

>  <SCORE.INTER.ROT>
6

>  <SCORE.INTER.VDW>
-18.2785

>  <SCORE.INTER.norm>
-0.324858

>  <SCORE.INTRA>
-3.42197

>  <SCORE.INTRA.DIHEDRAL>
-1.926

>  <SCORE.INTRA.DIHEDRAL.0>
13.6736

>  <SCORE.INTRA.POLAR>
0.00272884

>  <SCORE.INTRA.POLAR.0>
-0.0955695

>  <SCORE.INTRA.REPUL>
0

>  <SCORE.INTRA.REPUL.0>
0

>  <SCORE.INTRA.VDW>
-2.46825

>  <SCORE.INTRA.VDW.0>
2.01328

>  <SCORE.INTRA.norm>
-0.12674

>  <SCORE.RESTR>
0

>  <SCORE.RESTR.CAVITY>
0

>  <SCORE.RESTR.norm>
0

>  <SCORE.SYSTEM>
-0.884204

>  <SCORE.SYSTEM.CONST>
0

>  <SCORE.SYSTEM.DIHEDRAL>
0.183683

>  <SCORE.SYSTEM.POLAR>
-0.0102578

>  <SCORE.SYSTEM.VDW>
-0.941169

>  <SCORE.SYSTEM.norm>
-0.0327483

>  <SCORE.heavy>
27

>  <SCORE.norm>
-0.484346

>  <TITLE>
    14521044_D                                                            

$$$$
Berchemol.pdb
  RxDock  02242112503D
librxdock.so/0.1.0
 31 33  0  0  0  0  0  0  0  0999 V2000
  -49.5909   -3.4131   14.4384 O   0  0  0  0  0  0
  -49.7583   -0.9163   16.1253 O   0  0  0  0  0  0
  -51.0734   -1.4314   18.5772 O   0  0  0  0  0  0
  -45.0014   -2.4508   18.3392 O   0  0  0  0  0  0
  -50.2709   -6.9520   18.1344 O   0  0  0  0  0  0
  -43.6366   -2.0112   16.0189 O   0  0  0  0  0  0
  -52.3933   -8.6481   17.5348 O   0  0  0  0  0  0
  -50.1608   -2.2666   16.4074 C   0  0  0  0  0  0
  -51.4632   -2.5264   15.5991 C   0  0  0  0  0  0
  -49.1459   -3.2555   15.7909 C   0  0  0  0  0  0
  -51.0239   -3.4491   14.4441 C   0  0  0  0  0  0
  -52.6864   -3.1389   16.3244 C   0  0  0  0  0  0
  -50.2412   -2.4157   17.9446 C   0  0  0  0  0  0
  -47.6623   -2.9164   15.8875 C   0  0  0  0  0  0
  -52.5969   -4.6221   16.6517 C   0  0  0  0  0  0
  -47.0132   -2.8298   17.1023 C   0  0  0  0  0  0
  -46.9547   -2.6994   14.7271 C   0  0  0  0  0  0
  -51.4735   -5.1351   17.2639 C   0  0  0  0  0  0
  -53.6436   -5.4596   16.3395 C   0  0  0  0  0  0
  -45.6639   -2.5320   17.1724 C   0  0  0  0  0  0
  -45.6130   -2.3964   14.7787 C   0  0  0  0  0  0
  -44.9677   -2.3108   15.9910 C   0  0  0  0  0  0
  -51.3798   -6.4814   17.5502 C   0  0  0  0  0  0
  -53.5684   -6.8037   16.6313 C   0  0  0  0  0  0
  -52.4446   -7.3185   17.2379 C   0  0  0  0  0  0
  -44.6042   -1.1512   18.8262 C   0  0  0  0  0  0
  -49.0369   -6.8374   17.3970 C   0  0  0  0  0  0
  -48.8900   -0.6912   16.5791 H   0  0  0  0  0  0
  -51.1856   -1.6171   19.5593 H   0  0  0  0  0  0
  -43.0658   -2.8383   16.0194 H   0  0  0  0  0  0
  -51.5714   -8.8781   18.0667 H   0  0  0  0  0  0
  1 10  1  0  0  0
  1 11  1  0  0  0
  2  8  1  0  0  0
  2 28  1  0  0  0
  3 13  1  0  0  0
  3 29  1  0  0  0
  4 20  1  0  0  0
  4 26  1  0  0  0
  5 23  1  0  0  0
  5 27  1  0  0  0
  6 22  1  0  0  0
  6 30  1  0  0  0
  7 25  1  0  0  0
  7 31  1  0  0  0
  8  9  1  0  0  0
  8 13  1  0  0  0
  9 11  1  0  0  0
  9 12  1  0  0  0
 10  8  1  0  0  0
 10 14  1  0  0  0
 12 15  1  0  0  0
 14 16  2  0  0  0
 14 17  1  0  0  0
 15 18  2  0  0  0
 15 19  1  0  0  0
 16 20  1  0  0  0
 17 21  2  0  0  0
 18 23  1  0  0  0
 19 24  2  0  0  0
 20 22  2  0  0  0
 21 22  1  0  0  0
 23 25  2  0  0  0
 24 25  1  0  0  0
M  END
>  <CHROM.0>
58.25341499,58.66809363,-65.22258486

>  <CHROM.1>
-177.00278905,173.69300775,-107.29716726,-63.17905650,87.41980796,6.07119230
53.78996348,-74.40007301,-174.69191783,48.68220078,-49.32495537,-3.77342331
16.68097180,0.51363519,-0.13227785,-0.29505479

>  <HEADER>
                                                                          

>  <MASTER>
        0    0    0    0    0    0    0    0   51    0   51    0          

>  <Name>
Berchemol.pdb

>  <RI>
-9.6636e+08

>  <Rbt.Current_Directory>
/root/miniconda3/envs/rdock/share/rxdock-2013.1.1_148c5bd1-0/data/ligands/prepped_ligands/Berchemol

>  <Rbt.Executable>
rbdock/0.1.0

>  <Rbt.Library>
librxdock.so/0.1.0

>  <Rbt.Parameter_File>
/root/miniconda3/envs/rdock/share/rxdock-2013.1.1_148c5bd1-0/data/scripts/dock.prm

>  <Rbt.Receptor>
def.prm

>  <SCORE>
-13.6102

>  <SCORE.INTER>
-9.99815

>  <SCORE.INTER.CONST>
1

>  <SCORE.INTER.POLAR>
-0.741183

>  <SCORE.INTER.REPUL>
0.124396

>  <SCORE.INTER.ROT>
6

>  <SCORE.INTER.VDW>
-19.5001

>  <SCORE.INTER.norm>
-0.370302

>  <SCORE.INTRA>
-2.69945

>  <SCORE.INTRA.DIHEDRAL>
1.91457

>  <SCORE.INTRA.DIHEDRAL.0>
13.6736

>  <SCORE.INTRA.POLAR>
0.045916

>  <SCORE.INTRA.POLAR.0>
-0.0955695

>  <SCORE.INTRA.REPUL>
0

>  <SCORE.INTRA.REPUL.0>
0

>  <SCORE.INTRA.VDW>
-3.81285

>  <SCORE.INTRA.VDW.0>
2.01328

>  <SCORE.INTRA.norm>
-0.0999798

>  <SCORE.RESTR>
0

>  <SCORE.RESTR.CAVITY>
0

>  <SCORE.RESTR.norm>
0

>  <SCORE.SYSTEM>
-0.912606

>  <SCORE.SYSTEM.CONST>
0

>  <SCORE.SYSTEM.DIHEDRAL>
0.0888457

>  <SCORE.SYSTEM.VDW>
-0.957029

>  <SCORE.SYSTEM.norm>
-0.0338002

>  <SCORE.heavy>
27

>  <SCORE.norm>
-0.504082

>  <TITLE>
    14521044_D                                                            

$$$$
